data_functionalizedCrystal
_audit_creation_method	'EQeq! by Chris Wilmer'
_symmetry_space_group_name_H-M	'P1'
_symmetry_Int_Tables_number	1
_symmetry_cell_setting	triclinic
loop_
_symmetry_equiv_pos_as_xyz
  x,y,z
_cell_length_a	11.6274
_cell_length_b	19.663
_cell_length_c	32.678
_cell_angle_alpha	90
_cell_angle_beta	90
_cell_angle_gamma	90
loop_
_atom_site_label
_atom_site_type_symbol
_atom_site_fract_x
_atom_site_fract_y
_atom_site_fract_z
_atom_site_charge
Mof_C 	C 	0.9402	0.4622	0.4417	0.382
Mof_C 	C 	0.9142	0.5346	0.9763	0.115
Mof_C 	C 	0.0017	0.6141	0.0256	0.049
Mof_H 	H 	0.0562	0.5807	0.0313	0.016
Mof_C 	C 	0.7995	0.9287	0.1997	-0.185
Mof_H 	H 	0.7851	0.9719	0.2101	0.097
Mof_C 	C 	0.8634	0.4563	0.9222	0.131
Mof_H 	H 	0.8288	0.4503	0.8968	-0.003
Mof_C 	C 	0.9648	0.1143	0.2077	-0.11
Mof_C 	C 	0.842	0.8073	0.1694	0.132
Mof_H 	H 	0.8501	0.764	0.1583	0.001
Mof_C 	C 	0.0654	0.0913	0.2303	0.421
Mof_C 	C 	0.4213	0.1407	0.2991	0.276
Mof_C 	C 	0.173	0.9059	0.2996	0.156
Mof_C 	C 	0.9281	0.7251	0.0365	0.177
Mof_C 	C 	0.8523	0.6502	0.9883	0.054
Mof_H 	H 	0.7966	0.6439	0.9682	0.043
Mof_C 	C 	0.9443	0.0957	0.1637	-0.011
Mof_H 	H 	0.9976	0.0694	0.1496	0.057
Mof_C 	C 	0.4735	0.8503	0.2807	-0.097
Mof_H 	H 	0.4224	0.8152	0.2864	0.078
Mof_C 	C 	0.8793	0.9192	0.1678	0.095
Mof_H 	H 	0.9159	0.9567	0.1563	0.02
Mof_C 	C 	0.3552	0.9261	0.3247	0.004
Mof_H 	H 	0.3744	0.9647	0.3423	0.044
Mof_C 	C 	0.7439	0.8733	0.215	0.148
Mof_C 	C 	0.0124	0.6757	0.048	-0.172
Mof_H 	H 	0.068	0.683	0.068	0.104
Mof_C 	C 	0.6488	0.8859	0.2493	-0.048
Mof_C 	C 	0.7597	0.1498	0.1638	-0.062
Mof_C 	C 	0.4728	0.0382	0.1926	0.131
Mof_H 	H 	0.4954	0.0791	0.2044	0.006
Mof_C 	C 	0.6909	0.235	0.3528	-0.17
Mof_C 	C 	0.6043	0.21	0.378	0.031
Mof_H 	H 	0.6094	0.2156	0.4062	0.029
Mof_C 	C 	0.5102	0.1768	0.3611	-0.043
Mof_H 	H 	0.4522	0.1601	0.3779	0.057
Mof_C 	C 	0.5027	0.1685	0.3189	-0.08
Mof_C 	C 	0.5893	0.1934	0.2937	-0.055
Mof_H 	H 	0.5843	0.1879	0.2655	0.061
Mof_C 	C 	0.6834	0.2267	0.3107	0.038
Mof_H 	H 	0.7414	0.2433	0.2938	0.03
Mof_C 	C 	0.6402	0.9445	0.2689	-0.002
Mof_H 	H 	0.6969	0.9772	0.2648	0.032
Mof_C 	C 	0.9213	0.5978	0.9969	-0.085
Mof_C 	C 	0.7636	0.8143	0.2016	-0.221
Mof_H 	H 	0.7272	0.7766	0.2129	0.118
Mof_C 	C 	0.7761	0.7738	0.9985	-0.127
Mof_H 	H 	0.7797	0.7897	0.9704	0.084
Mof_H 	H 	0.6969	0.7647	0.006	0.084
Mof_C 	C 	0.8455	0.1181	0.1443	-0.031
Mof_H 	H 	0.8383	0.1107	0.1163	0.053
Mof_C 	C 	0.5388	0.0094	0.1636	-0.214
Mof_H 	H 	0.6036	0.0331	0.155	0.11
Mof_C 	C 	0.8024	0.7251	0.3993	0.078
Mof_H 	H 	0.7994	0.7152	0.4271	0.016
Mof_C 	C 	0.8992	0.7564	0.3829	-0.149
Mof_H 	H 	0.961	0.7674	0.3997	0.089
Mof_C 	C 	0.9037	0.7712	0.3413	0.106
Mof_C 	C 	0.8114	0.7548	0.3162	-0.145
Mof_H 	H 	0.8143	0.7648	0.2884	0.093
Mof_C 	C 	0.7145	0.7236	0.3326	0.078
Mof_H 	H 	0.6528	0.7126	0.3157	0.027
Mof_N 	N 	0.7101	0.7087	0.3741	-0.147
Mof_C 	C 	0.7732	0.169	0.2012	-0.033
Mof_H 	H 	0.7183	0.197	0.2133	0.052
Mof_C 	C 	0.5461	0.9601	0.2967	-0.094
Mof_H 	H 	0.542	0.0005	0.3115	0.073
Mof_C 	C 	0.001	0.7	0.5428	0.332
Mof_C 	C 	0.966	0.4718	0.9976	-0.152
Mof_H 	H 	0.9925	0.4726	0.0244	0.089
Mof_C 	C 	0.0666	0.9057	0.2772	-0.158
Mof_H 	H 	0.0541	0.9321	0.254	0.1
Mof_C 	C 	0.8551	0.5193	0.9402	-0.184
Mof_H 	H 	0.8093	0.5524	0.928	0.109
Mof_C 	C 	0.8791	0.1465	0.2262	0.002
Mof_H 	H 	0.8829	0.1554	0.2542	0.047
Mof_C 	C 	0.9974	0.8174	0.3261	-0.054
Mof_C 	C 	0.4601	0.9082	0.2994	0.059
Mof_C 	C 	0.9861	0.8632	0.2931	0.041
Mof_H 	H 	0.9142	0.8645	0.2806	0.024
Mof_C 	C 	0.9757	0.6418	0.5139	-0.05
Mof_C 	C 	0.9121	0.5881	0.5298	-0.038
Mof_H 	H 	0.8785	0.5919	0.5555	0.055
Mof_C 	C 	0.8986	0.5287	0.5073	0.004
Mof_H 	H 	0.856	0.4928	0.5179	0.046
Mof_C 	C 	0.9488	0.523	0.4688	-0.096
Mof_C 	C 	0.0124	0.5767	0.4529	-0.003
Mof_H 	H 	0.046	0.5729	0.4272	0.042
Mof_C 	C 	0.0259	0.6361	0.4755	-0.037
Mof_H 	H 	0.0685	0.672	0.4648	0.06
Mof_C 	C 	0.6482	0.1672	0.1417	0.327
Mof_C 	C 	0.969	0.4145	0.9736	0.091
Mof_H 	H 	0.0136	0.3782	0.9829	0.018
Mof_C 	C 	0.599	0.8475	0.1118	-0.016
Mof_H 	H 	0.5524	0.8211	0.1285	0.04
Mof_C 	C 	0.5976	0.918	0.1154	-0.04
Mof_C 	C 	0.6674	0.9575	0.0903	-0.017
Mof_H 	H 	0.6665	0.0046	0.0927	0.046
Mof_C 	C 	0.7386	0.9265	0.0617	-0.074
Mof_H 	H 	0.7853	0.953	0.0449	0.062
Mof_C 	C 	0.74	0.8561	0.0581	0.026
Mof_C 	C 	0.6702	0.8166	0.0831	-0.074
Mof_H 	H 	0.6712	0.7695	0.0807	0.063
Mof_C 	C 	0.3025	0.8723	0.35	-0.102
Mof_H 	H 	0.294	0.8873	0.3781	0.074
Mof_H 	H 	0.3487	0.8313	0.3495	0.084
Mof_C 	C 	0.8315	0.8203	0.0266	0.04
Mof_H 	H 	0.8677	0.8564	0.0104	0.029
Mof_C 	C 	0.1039	0.8134	0.3458	0.021
Mof_H 	H 	0.1191	0.7829	0.3669	0.033
Mof_C 	C 	0.5633	0.8386	0.2519	-0.003
Mof_H 	H 	0.5636	0.8001	0.2354	0.037
Mof_C 	C 	0.5185	0.951	0.1467	0.146
Mof_C 	C 	0.4213	0.9195	0.1597	-0.189
Mof_H 	H 	0.4008	0.8777	0.1486	0.102
Mof_C 	C 	0.3505	0.9497	0.1901	0.119
Mof_H 	H 	0.2857	0.9269	0.1996	0.002
Mof_Cd	Cd	0.97405	0.3419	0.40176	0.446
Mof_Cd	Cd	0.03571	0.80643	0.59522	0.44
Mof_Cd	Cd	0.26441	0.04665	0.25984	0.455
Mof_N 	N 	0.9038	0.8557	0.1534	-0.16
Mof_N 	N 	0.919	0.7879	0.0498	-0.163
Mof_N 	N 	0.263	0.9484	0.2946	-0.153
Mof_N 	N 	0.8573	0.7103	0.0062	-0.131
Mof_N 	N 	0.1871	0.8603	0.3307	-0.118
Mof_N 	N 	0.3761	0.0088	0.2046	-0.165
Mof_N 	N 	0.9141	0.4068	0.9376	-0.169
Mof_O 	O 	0.6442	0.1513	0.1052	-0.295
Mof_O 	O 	0.572	0.1958	0.159	-0.296
Mof_O 	O 	0.97	0.4594	0.4096	-0.342
Mof_O 	O 	0.0929	0.117	0.2597	-0.328
Mof_O 	O 	0.3492	0.0953	0.3179	-0.24
Mof_O 	O 	0.3911	0.1373	0.2626	-0.266
Mof_O 	O 	0.1227	0.0481	0.2143	-0.328
Mof_O 	O 	0.905	0.4091	0.4603	-0.285
Mof_O 	O 	0.986	0.6991	0.5784	-0.301
Mof_O 	O 	0.054	0.7485	0.527	-0.275
Mof_C 	C 	0.7839	0.2651	0.3695	0.416
Mof_O 	O 	0.7963	0.2814	0.4041	-0.321
Mof_O 	O 	0.8727	0.2768	0.3518	-0.305
Mof_C 	C 	0.5598	0.5378	0.9417	0.383
Mof_C 	C 	0.5858	0.4654	0.4763	0.116
Mof_C 	C 	0.4983	0.3859	0.5256	0.049
Mof_H 	H 	0.4438	0.4193	0.5313	0.017
Mof_C 	C 	0.7005	0.0713	0.6997	-0.185
Mof_H 	H 	0.7149	0.0281	0.7101	0.098
Mof_C 	C 	0.6366	0.5437	0.4222	0.132
Mof_H 	H 	0.6712	0.5497	0.3968	-0.002
Mof_C 	C 	0.5352	0.8857	0.7077	-0.107
Mof_C 	C 	0.658	0.1927	0.6694	0.133
Mof_H 	H 	0.6499	0.236	0.6583	0.002
Mof_C 	C 	0.4346	0.9087	0.7303	0.42
Mof_C 	C 	0.0787	0.8593	0.7991	0.276
Mof_C 	C 	0.327	0.0941	0.7996	0.157
Mof_C 	C 	0.5719	0.2749	0.5365	0.178
Mof_C 	C 	0.6477	0.3498	0.4883	0.054
Mof_H 	H 	0.7034	0.3561	0.4682	0.043
Mof_C 	C 	0.5557	0.9043	0.6637	-0.011
Mof_H 	H 	0.5024	0.9306	0.6496	0.058
Mof_C 	C 	0.0265	0.1497	0.7807	-0.098
Mof_H 	H 	0.0776	0.1848	0.7864	0.079
Mof_C 	C 	0.6207	0.0808	0.6678	0.095
Mof_H 	H 	0.5841	0.0433	0.6563	0.019
Mof_C 	C 	0.1448	0.0739	0.8247	0.003
Mof_H 	H 	0.1256	0.0353	0.8423	0.045
Mof_C 	C 	0.7561	0.1267	0.715	0.149
Mof_C 	C 	0.4876	0.3243	0.548	-0.172
Mof_H 	H 	0.432	0.317	0.568	0.104
Mof_C 	C 	0.8512	0.1141	0.7493	-0.049
Mof_C 	C 	0.7403	0.8502	0.6638	-0.062
Mof_C 	C 	0.0272	0.9618	0.6926	0.123
Mof_H 	H 	0.0046	0.9209	0.7044	0.008
Mof_C 	C 	0.8091	0.765	0.8528	-0.17
Mof_C 	C 	0.8957	0.79	0.878	0.031
Mof_H 	H 	0.8906	0.7844	0.9062	0.029
Mof_C 	C 	0.9898	0.8232	0.8611	-0.043
Mof_H 	H 	0.0478	0.8399	0.8779	0.057
Mof_C 	C 	0.9973	0.8315	0.8189	-0.079
Mof_C 	C 	0.9107	0.8066	0.7937	-0.056
Mof_H 	H 	0.9157	0.8121	0.7655	0.061
Mof_C 	C 	0.8166	0.7733	0.8107	0.039
Mof_H 	H 	0.7586	0.7567	0.7938	0.03
Mof_C 	C 	0.8598	0.0555	0.7689	0.001
Mof_H 	H 	0.8031	0.0228	0.7648	0.031
Mof_C 	C 	0.5787	0.4022	0.4969	-0.084
Mof_C 	C 	0.7364	0.1857	0.7016	-0.222
Mof_H 	H 	0.7728	0.2234	0.7129	0.118
Mof_C 	C 	0.7239	0.2262	0.4985	-0.128
Mof_H 	H 	0.7203	0.2103	0.4704	0.084
Mof_H 	H 	0.8031	0.2353	0.506	0.084
Mof_C 	C 	0.6545	0.8819	0.6443	-0.03
Mof_H 	H 	0.6617	0.8893	0.6163	0.053
Mof_C 	C 	0.9612	0.9906	0.6636	-0.204
Mof_H 	H 	0.8964	0.9669	0.655	0.107
Mof_C 	C 	0.6976	0.2749	0.8993	0.078
Mof_H 	H 	0.7006	0.2848	0.9271	0.016
Mof_C 	C 	0.6008	0.2436	0.8829	-0.149
Mof_H 	H 	0.539	0.2326	0.8997	0.089
Mof_C 	C 	0.5963	0.2288	0.8413	0.106
Mof_C 	C 	0.6886	0.2452	0.8162	-0.145
Mof_H 	H 	0.6857	0.2352	0.7884	0.093
Mof_C 	C 	0.7855	0.2764	0.8326	0.078
Mof_H 	H 	0.8472	0.2874	0.8157	0.027
Mof_N 	N 	0.7899	0.2913	0.8741	-0.147
Mof_C 	C 	0.7268	0.831	0.7012	-0.032
Mof_H 	H 	0.7817	0.803	0.7133	0.052
Mof_C 	C 	0.9539	0.0399	0.7967	-0.1
Mof_H 	H 	0.958	0.9995	0.8115	0.075
Mof_C 	C 	0.499	0.3	0.0428	0.336
Mof_C 	C 	0.534	0.5282	0.4976	-0.153
Mof_H 	H 	0.5075	0.5274	0.5244	0.09
Mof_C 	C 	0.4334	0.0943	0.7772	-0.156
Mof_H 	H 	0.4459	0.0679	0.754	0.099
Mof_C 	C 	0.6449	0.4807	0.4402	-0.185
Mof_H 	H 	0.6907	0.4476	0.428	0.109
Mof_C 	C 	0.6209	0.8535	0.7262	0.001
Mof_H 	H 	0.6171	0.8446	0.7542	0.047
Mof_C 	C 	0.5026	0.1826	0.8261	-0.055
Mof_C 	C 	0.0399	0.0918	0.7994	0.063
Mof_C 	C 	0.5139	0.1368	0.7931	0.039
Mof_H 	H 	0.5858	0.1355	0.7806	0.024
Mof_C 	C 	0.5243	0.3582	0.0139	-0.055
Mof_C 	C 	0.5879	0.4119	0.0298	-0.035
Mof_H 	H 	0.6215	0.4081	0.0555	0.054
Mof_C 	C 	0.6014	0.4713	0.0073	0.002
Mof_H 	H 	0.644	0.5072	0.0179	0.046
Mof_C 	C 	0.5512	0.477	0.9688	-0.096
Mof_C 	C 	0.4876	0.4233	0.9529	-0.003
Mof_H 	H 	0.454	0.4271	0.9272	0.042
Mof_C 	C 	0.4741	0.3639	0.9755	-0.034
Mof_H 	H 	0.4315	0.328	0.9648	0.059
Mof_C 	C 	0.8518	0.8328	0.6417	0.327
Mof_C 	C 	0.531	0.5855	0.4736	0.094
Mof_H 	H 	0.4864	0.6218	0.4829	0.016
Mof_C 	C 	0.901	0.1525	0.6118	-0.02
Mof_H 	H 	0.9476	0.1789	0.6285	0.041
Mof_C 	C 	0.9024	0.082	0.6154	-0.035
Mof_C 	C 	0.8326	0.0425	0.5903	-0.023
Mof_H 	H 	0.8335	0.9954	0.5927	0.049
Mof_C 	C 	0.7614	0.0735	0.5617	-0.07
Mof_H 	H 	0.7147	0.047	0.5449	0.061
Mof_C 	C 	0.76	0.1439	0.5581	0.024
Mof_C 	C 	0.8298	0.1834	0.5831	-0.072
Mof_H 	H 	0.8288	0.2305	0.5807	0.062
Mof_C 	C 	0.1975	0.1277	0.85	-0.101
Mof_H 	H 	0.206	0.1127	0.8781	0.074
Mof_H 	H 	0.1513	0.1687	0.8495	0.084
Mof_C 	C 	0.6685	0.1797	0.5266	0.041
Mof_H 	H 	0.6323	0.1436	0.5104	0.029
Mof_C 	C 	0.3961	0.1866	0.8458	0.022
Mof_H 	H 	0.3809	0.2171	0.8669	0.033
Mof_C 	C 	0.9367	0.1614	0.7519	-0.002
Mof_H 	H 	0.9364	0.1999	0.7354	0.037
Mof_C 	C 	0.9815	0.049	0.6467	0.138
Mof_C 	C 	0.0787	0.0805	0.6597	-0.184
Mof_H 	H 	0.0992	0.1223	0.6486	0.101
Mof_C 	C 	0.1495	0.0503	0.6901	0.118
Mof_H 	H 	0.2143	0.0731	0.6996	0.002
Mof_Cd	Cd	0.52595	0.6581	0.90176	0.445
Mof_Cd	Cd	0.46429	0.19357	0.09522	0.442
Mof_Cd	Cd	0.23559	0.95335	0.75984	0.454
Mof_N 	N 	0.5962	0.1443	0.6534	-0.16
Mof_N 	N 	0.581	0.2121	0.5498	-0.163
Mof_N 	N 	0.237	0.0516	0.7946	-0.153
Mof_N 	N 	0.6427	0.2897	0.5062	-0.13
Mof_N 	N 	0.3129	0.1397	0.8307	-0.118
Mof_N 	N 	0.1239	0.9912	0.7046	-0.164
Mof_N 	N 	0.5859	0.5932	0.4376	-0.17
Mof_O 	O 	0.8558	0.8487	0.6052	-0.294
Mof_O 	O 	0.928	0.8042	0.659	-0.296
Mof_O 	O 	0.53	0.5406	0.9096	-0.343
Mof_O 	O 	0.4071	0.883	0.7597	-0.327
Mof_O 	O 	0.1508	0.9047	0.8179	-0.241
Mof_O 	O 	0.1089	0.8627	0.7626	-0.266
Mof_O 	O 	0.3773	0.9519	0.7143	-0.328
Mof_O 	O 	0.595	0.5909	0.9603	-0.285
Mof_O 	O 	0.514	0.3009	0.0784	-0.304
Mof_O 	O 	0.446	0.2515	0.027	-0.276
Mof_C 	C 	0.7161	0.7349	0.8695	0.416
Mof_O 	O 	0.7037	0.7186	0.9041	-0.321
Mof_O 	O 	0.6273	0.7232	0.8518	-0.305
Mof_C 	C 	0.0598	0.9622	0.0583	0.382
Mof_C 	C 	0.0858	0.0346	0.5237	0.115
Mof_C 	C 	0.9983	0.1141	0.4744	0.049
Mof_H 	H 	0.9438	0.0807	0.4687	0.017
Mof_C 	C 	0.2005	0.4287	0.3003	-0.184
Mof_H 	H 	0.2149	0.4719	0.2899	0.098
Mof_C 	C 	0.1366	0.9563	0.5778	0.13
Mof_H 	H 	0.1712	0.9503	0.6032	-0.002
Mof_C 	C 	0.0352	0.6143	0.2923	-0.107
Mof_C 	C 	0.158	0.3073	0.3306	0.133
Mof_H 	H 	0.1499	0.264	0.3417	0.002
Mof_C 	C 	0.9346	0.5913	0.2697	0.421
Mof_C 	C 	0.5787	0.6407	0.2009	0.277
Mof_C 	C 	0.827	0.4059	0.2004	0.157
Mof_C 	C 	0.0719	0.2251	0.4635	0.177
Mof_C 	C 	0.1477	0.1502	0.5117	0.054
Mof_H 	H 	0.2034	0.1439	0.5318	0.043
Mof_C 	C 	0.0557	0.5957	0.3363	-0.011
Mof_H 	H 	0.0024	0.5694	0.3504	0.058
Mof_C 	C 	0.5265	0.3503	0.2193	-0.098
Mof_H 	H 	0.5776	0.3152	0.2136	0.078
Mof_C 	C 	0.1207	0.4192	0.3322	0.095
Mof_H 	H 	0.0841	0.4567	0.3437	0.019
Mof_C 	C 	0.6448	0.4261	0.1753	0.004
Mof_H 	H 	0.6256	0.4647	0.1577	0.044
Mof_C 	C 	0.2561	0.3733	0.285	0.148
Mof_C 	C 	0.9876	0.1757	0.452	-0.171
Mof_H 	H 	0.932	0.183	0.432	0.104
Mof_C 	C 	0.3512	0.3859	0.2507	-0.048
Mof_C 	C 	0.2403	0.6498	0.3362	-0.062
Mof_C 	C 	0.5272	0.5382	0.3074	0.131
Mof_H 	H 	0.5046	0.5791	0.2956	0.006
Mof_C 	C 	0.3091	0.735	0.1472	-0.17
Mof_C 	C 	0.3957	0.71	0.122	0.031
Mof_H 	H 	0.3906	0.7156	0.0938	0.029
Mof_C 	C 	0.4898	0.6768	0.1389	-0.043
Mof_H 	H 	0.5478	0.6601	0.1221	0.057
Mof_C 	C 	0.4973	0.6685	0.1811	-0.08
Mof_C 	C 	0.4107	0.6934	0.2063	-0.055
Mof_H 	H 	0.4157	0.6879	0.2345	0.061
Mof_C 	C 	0.3166	0.7267	0.1893	0.038
Mof_H 	H 	0.2586	0.7433	0.2062	0.03
Mof_C 	C 	0.3598	0.4445	0.2311	-0.002
Mof_H 	H 	0.3031	0.4772	0.2352	0.032
Mof_C 	C 	0.0787	0.0978	0.5031	-0.083
Mof_C 	C 	0.2364	0.3143	0.2984	-0.221
Mof_H 	H 	0.2728	0.2766	0.2871	0.118
Mof_C 	C 	0.2239	0.2738	0.5015	-0.127
Mof_H 	H 	0.2203	0.2897	0.5296	0.084
Mof_H 	H 	0.3031	0.2647	0.494	0.084
Mof_C 	C 	0.1545	0.6181	0.3557	-0.031
Mof_H 	H 	0.1617	0.6107	0.3837	0.053
Mof_C 	C 	0.4612	0.5094	0.3364	-0.214
Mof_H 	H 	0.3964	0.5331	0.345	0.111
Mof_C 	C 	0.1976	0.2251	0.1007	0.078
Mof_H 	H 	0.2006	0.2152	0.0729	0.016
Mof_C 	C 	0.1008	0.2564	0.1171	-0.149
Mof_H 	H 	0.039	0.2674	0.1003	0.089
Mof_C 	C 	0.0963	0.2712	0.1587	0.106
Mof_C 	C 	0.1886	0.2548	0.1838	-0.145
Mof_H 	H 	0.1857	0.2648	0.2116	0.093
Mof_C 	C 	0.2855	0.2236	0.1674	0.078
Mof_H 	H 	0.3472	0.2126	0.1843	0.027
Mof_N 	N 	0.2899	0.2087	0.1259	-0.147
Mof_C 	C 	0.2268	0.669	0.2988	-0.032
Mof_H 	H 	0.2817	0.697	0.2867	0.052
Mof_C 	C 	0.4539	0.4601	0.2033	-0.094
Mof_H 	H 	0.458	0.5005	0.1885	0.073
Mof_C 	C 	0.999	0.2	0.9572	0.331
Mof_C 	C 	0.034	0.9718	0.5024	-0.152
Mof_H 	H 	0.0075	0.9726	0.4756	0.089
Mof_C 	C 	0.9334	0.4057	0.2228	-0.157
Mof_H 	H 	0.9459	0.4321	0.246	0.1
Mof_C 	C 	0.1449	0.0193	0.5598	-0.182
Mof_H 	H 	0.1907	0.0524	0.572	0.108
Mof_C 	C 	0.1209	0.6465	0.2738	0.001
Mof_H 	H 	0.1171	0.6554	0.2458	0.047
Mof_C 	C 	0.0026	0.3174	0.1739	-0.054
Mof_C 	C 	0.5399	0.4082	0.2006	0.059
Mof_C 	C 	0.0139	0.3632	0.2069	0.039
Mof_H 	H 	0.0858	0.3645	0.2194	0.024
Mof_C 	C 	0.0243	0.1418	0.9861	-0.049
Mof_C 	C 	0.0879	0.0881	0.9702	-0.039
Mof_H 	H 	0.1215	0.0919	0.9445	0.055
Mof_C 	C 	0.1014	0.0287	0.9927	0.005
Mof_H 	H 	0.144	0.9928	0.9821	0.045
Mof_C 	C 	0.0512	0.023	0.0312	-0.094
Mof_C 	C 	0.9876	0.0767	0.0471	-0.004
Mof_H 	H 	0.954	0.0729	0.0728	0.042
Mof_C 	C 	0.9741	0.1361	0.0245	-0.038
Mof_H 	H 	0.9315	0.172	0.0352	0.06
Mof_C 	C 	0.3518	0.6672	0.3583	0.327
Mof_C 	C 	0.031	0.9145	0.5264	0.089
Mof_H 	H 	0.9864	0.8782	0.5171	0.019
Mof_C 	C 	0.401	0.3475	0.3882	-0.016
Mof_H 	H 	0.4476	0.3211	0.3715	0.04
Mof_C 	C 	0.4024	0.418	0.3846	-0.039
Mof_C 	C 	0.3326	0.4575	0.4097	-0.018
Mof_H 	H 	0.3335	0.5046	0.4073	0.046
Mof_C 	C 	0.2614	0.4265	0.4383	-0.073
Mof_H 	H 	0.2147	0.453	0.4551	0.062
Mof_C 	C 	0.26	0.3561	0.4419	0.026
Mof_C 	C 	0.3298	0.3166	0.4169	-0.074
Mof_H 	H 	0.3288	0.2695	0.4193	0.063
Mof_C 	C 	0.6975	0.3723	0.15	-0.102
Mof_H 	H 	0.706	0.3873	0.1219	0.074
Mof_H 	H 	0.6513	0.3313	0.1505	0.084
Mof_C 	C 	0.1685	0.3203	0.4734	0.04
Mof_H 	H 	0.1323	0.3564	0.4896	0.029
Mof_C 	C 	0.8961	0.3134	0.1542	0.021
Mof_H 	H 	0.8809	0.2829	0.1331	0.033
Mof_C 	C 	0.4367	0.3386	0.2481	-0.002
Mof_H 	H 	0.4364	0.3001	0.2646	0.037
Mof_C 	C 	0.4815	0.451	0.3533	0.146
Mof_C 	C 	0.5787	0.4195	0.3403	-0.19
Mof_H 	H 	0.5992	0.3777	0.3514	0.102
Mof_C 	C 	0.6495	0.4497	0.3099	0.119
Mof_H 	H 	0.7143	0.4269	0.3004	0.002
Mof_Cd	Cd	0.02595	0.8419	0.09824	0.445
Mof_Cd	Cd	0.96429	0.30643	0.90478	0.44
Mof_Cd	Cd	0.73559	0.54665	0.24016	0.454
Mof_N 	N 	0.0962	0.3557	0.3466	-0.16
Mof_N 	N 	0.081	0.2879	0.4502	-0.163
Mof_N 	N 	0.737	0.4484	0.2054	-0.153
Mof_N 	N 	0.1427	0.2103	0.4938	-0.13
Mof_N 	N 	0.8129	0.3603	0.1693	-0.118
Mof_N 	N 	0.6239	0.5088	0.2954	-0.165
Mof_N 	N 	0.0859	0.9068	0.5624	-0.169
Mof_O 	O 	0.3558	0.6513	0.3948	-0.295
Mof_O 	O 	0.428	0.6958	0.341	-0.296
Mof_O 	O 	0.03	0.9594	0.0904	-0.342
Mof_O 	O 	0.9071	0.617	0.2403	-0.328
Mof_O 	O 	0.6508	0.5953	0.1821	-0.241
Mof_O 	O 	0.6089	0.6373	0.2374	-0.266
Mof_O 	O 	0.8773	0.5481	0.2857	-0.328
Mof_O 	O 	0.095	0.9091	0.0397	-0.285
Mof_O 	O 	0.014	0.1991	0.9216	-0.301
Mof_O 	O 	0.946	0.2485	0.973	-0.275
Mof_C 	C 	0.2161	0.7651	0.1305	0.416
Mof_O 	O 	0.2037	0.7814	0.0959	-0.321
Mof_O 	O 	0.1273	0.7768	0.1482	-0.305
Mof_C 	C 	0.4402	0.0378	0.5583	0.383
Mof_C 	C 	0.4142	0.9654	0.0237	0.116
Mof_C 	C 	0.5017	0.8859	0.9744	0.049
Mof_H 	H 	0.5562	0.9193	0.9687	0.017
Mof_C 	C 	0.2995	0.5713	0.8003	-0.184
Mof_H 	H 	0.2851	0.5281	0.7899	0.098
Mof_C 	C 	0.3634	0.0437	0.0778	0.133
Mof_H 	H 	0.3288	0.0497	0.1032	-0.003
Mof_C 	C 	0.4648	0.3857	0.7923	-0.107
Mof_C 	C 	0.342	0.6927	0.8306	0.133
Mof_H 	H 	0.3501	0.736	0.8417	0.002
Mof_C 	C 	0.5654	0.4087	0.7697	0.42
Mof_C 	C 	0.9213	0.3593	0.7009	0.277
Mof_C 	C 	0.673	0.5941	0.7004	0.157
Mof_C 	C 	0.4281	0.7749	0.9635	0.178
Mof_C 	C 	0.3523	0.8498	0.0117	0.054
Mof_H 	H 	0.2966	0.8561	0.0318	0.043
Mof_C 	C 	0.4443	0.4043	0.8363	-0.011
Mof_H 	H 	0.4976	0.4306	0.8504	0.058
Mof_C 	C 	0.9735	0.6497	0.7193	-0.097
Mof_H 	H 	0.9224	0.6848	0.7136	0.078
Mof_C 	C 	0.3793	0.5808	0.8322	0.095
Mof_H 	H 	0.4159	0.5433	0.8437	0.019
Mof_C 	C 	0.8552	0.5739	0.6753	0.004
Mof_H 	H 	0.8744	0.5353	0.6577	0.044
Mof_C 	C 	0.2439	0.6267	0.785	0.148
Mof_C 	C 	0.5124	0.8243	0.952	-0.172
Mof_H 	H 	0.568	0.817	0.932	0.104
Mof_C 	C 	0.1488	0.6141	0.7507	-0.048
Mof_C 	C 	0.2597	0.3502	0.8362	-0.063
Mof_C 	C 	0.9728	0.4618	0.8074	0.13
Mof_H 	H 	0.9954	0.4209	0.7956	0.006
Mof_C 	C 	0.1909	0.265	0.6472	-0.17
Mof_C 	C 	0.1043	0.29	0.622	0.031
Mof_H 	H 	0.1094	0.2844	0.5938	0.029
Mof_C 	C 	0.0102	0.3232	0.6389	-0.044
Mof_H 	H 	0.9522	0.3399	0.6221	0.058
Mof_C 	C 	0.0027	0.3315	0.6811	-0.079
Mof_C 	C 	0.0893	0.3066	0.7063	-0.056
Mof_H 	H 	0.0843	0.3121	0.7345	0.061
Mof_C 	C 	0.1834	0.2733	0.6893	0.039
Mof_H 	H 	0.2414	0.2567	0.7062	0.03
Mof_C 	C 	0.1402	0.5555	0.7311	-0.002
Mof_H 	H 	0.1969	0.5228	0.7352	0.032
Mof_C 	C 	0.4213	0.9022	0.0031	-0.084
Mof_C 	C 	0.2636	0.6857	0.7984	-0.221
Mof_H 	H 	0.2272	0.7234	0.7871	0.118
Mof_C 	C 	0.2761	0.7262	0.0015	-0.127
Mof_H 	H 	0.2797	0.7103	0.0296	0.084
Mof_H 	H 	0.1969	0.7353	0.994	0.084
Mof_C 	C 	0.3455	0.3819	0.8557	-0.03
Mof_H 	H 	0.3383	0.3893	0.8837	0.053
Mof_C 	C 	0.0388	0.4906	0.8364	-0.213
Mof_H 	H 	0.1036	0.4669	0.845	0.11
Mof_C 	C 	0.3024	0.7749	0.6007	0.078
Mof_H 	H 	0.2994	0.7848	0.5729	0.016
Mof_C 	C 	0.3992	0.7436	0.6171	-0.149
Mof_H 	H 	0.461	0.7326	0.6003	0.089
Mof_C 	C 	0.4037	0.7288	0.6587	0.106
Mof_C 	C 	0.3114	0.7452	0.6838	-0.145
Mof_H 	H 	0.3143	0.7352	0.7116	0.093
Mof_C 	C 	0.2145	0.7764	0.6674	0.078
Mof_H 	H 	0.1528	0.7874	0.6843	0.027
Mof_N 	N 	0.2101	0.7913	0.6259	-0.147
Mof_C 	C 	0.2732	0.331	0.7988	-0.032
Mof_H 	H 	0.2183	0.303	0.7867	0.052
Mof_C 	C 	0.0461	0.5399	0.7033	-0.095
Mof_H 	H 	0.042	0.4995	0.6885	0.073
Mof_C 	C 	0.501	0.8	0.4572	0.337
Mof_C 	C 	0.466	0.0282	0.0024	-0.153
Mof_H 	H 	0.4925	0.0274	0.9756	0.09
Mof_C 	C 	0.5666	0.5943	0.7228	-0.156
Mof_H 	H 	0.5541	0.5679	0.746	0.099
Mof_C 	C 	0.3551	0.9807	0.0598	-0.186
Mof_H 	H 	0.3093	0.9476	0.072	0.109
Mof_C 	C 	0.3791	0.3535	0.7738	0.001
Mof_H 	H 	0.3829	0.3446	0.7458	0.047
Mof_C 	C 	0.4974	0.6826	0.6739	-0.055
Mof_C 	C 	0.9601	0.5918	0.7006	0.06
Mof_C 	C 	0.4861	0.6368	0.7069	0.039
Mof_H 	H 	0.4142	0.6355	0.7194	0.024
Mof_C 	C 	0.4757	0.8582	0.4861	-0.055
Mof_C 	C 	0.4121	0.9119	0.4702	-0.035
Mof_H 	H 	0.3785	0.9081	0.4445	0.054
Mof_C 	C 	0.3986	0.9713	0.4927	0.001
Mof_H 	H 	0.356	0.0072	0.4821	0.047
Mof_C 	C 	0.4488	0.977	0.5312	-0.096
Mof_C 	C 	0.5124	0.9233	0.5471	-0.004
Mof_H 	H 	0.546	0.9271	0.5728	0.042
Mof_C 	C 	0.5259	0.8639	0.5245	-0.033
Mof_H 	H 	0.5685	0.828	0.5352	0.059
Mof_C 	C 	0.1482	0.3328	0.8583	0.327
Mof_C 	C 	0.469	0.0855	0.0264	0.094
Mof_H 	H 	0.5136	0.1218	0.0171	0.016
Mof_C 	C 	0.099	0.6525	0.8882	-0.016
Mof_H 	H 	0.0524	0.6789	0.8715	0.04
Mof_C 	C 	0.0976	0.582	0.8846	-0.039
Mof_C 	C 	0.1674	0.5425	0.9097	-0.018
Mof_H 	H 	0.1665	0.4954	0.9073	0.046
Mof_C 	C 	0.2386	0.5735	0.9383	-0.073
Mof_H 	H 	0.2853	0.547	0.9551	0.062
Mof_C 	C 	0.24	0.6439	0.9419	0.026
Mof_C 	C 	0.1702	0.6834	0.9169	-0.074
Mof_H 	H 	0.1712	0.7305	0.9193	0.062
Mof_C 	C 	0.8025	0.6277	0.65	-0.102
Mof_H 	H 	0.794	0.6127	0.6219	0.074
Mof_H 	H 	0.8487	0.6687	0.6505	0.084
Mof_C 	C 	0.3315	0.6797	0.9734	0.04
Mof_H 	H 	0.3677	0.6436	0.9896	0.029
Mof_C 	C 	0.6039	0.6866	0.6542	0.022
Mof_H 	H 	0.6191	0.7171	0.6331	0.033
Mof_C 	C 	0.0633	0.6614	0.7481	-0.003
Mof_H 	H 	0.0636	0.6999	0.7646	0.037
Mof_C 	C 	0.0185	0.549	0.8533	0.146
Mof_C 	C 	0.9213	0.5805	0.8403	-0.19
Mof_H 	H 	0.9008	0.6223	0.8514	0.103
Mof_C 	C 	0.8505	0.5503	0.8099	0.12
Mof_H 	H 	0.7857	0.5731	0.8004	0.002
Mof_Cd	Cd	0.47405	0.1581	0.59824	0.445
Mof_Cd	Cd	0.53571	0.69357	0.40478	0.442
Mof_Cd	Cd	0.76441	0.45335	0.74016	0.454
Mof_N 	N 	0.4038	0.6443	0.8466	-0.16
Mof_N 	N 	0.419	0.7121	0.9502	-0.163
Mof_N 	N 	0.763	0.5516	0.7054	-0.153
Mof_N 	N 	0.3573	0.7897	0.9938	-0.13
Mof_N 	N 	0.6871	0.6397	0.6693	-0.118
Mof_N 	N 	0.8761	0.4912	0.7954	-0.165
Mof_N 	N 	0.4141	0.0932	0.0624	-0.17
Mof_O 	O 	0.1442	0.3487	0.8948	-0.294
Mof_O 	O 	0.072	0.3042	0.841	-0.296
Mof_O 	O 	0.47	0.0406	0.5904	-0.343
Mof_O 	O 	0.5929	0.383	0.7403	-0.327
Mof_O 	O 	0.8492	0.4047	0.6821	-0.24
Mof_O 	O 	0.8911	0.3627	0.7374	-0.266
Mof_O 	O 	0.6227	0.4519	0.7857	-0.328
Mof_O 	O 	0.405	0.0909	0.5397	-0.285
Mof_O 	O 	0.486	0.8009	0.4216	-0.304
Mof_O 	O 	0.554	0.7515	0.473	-0.276
Mof_C 	C 	0.2839	0.2349	0.6305	0.416
Mof_O 	O 	0.2963	0.2186	0.5959	-0.321
Mof_O 	O 	0.3727	0.2232	0.6482	-0.305
_end
