data_functionalizedCrystal
_audit_creation_method	'EQeq! by Chris Wilmer'
_symmetry_space_group_name_H-M	'P1'
_symmetry_Int_Tables_number	1
_symmetry_cell_setting	triclinic
loop_
_symmetry_equiv_pos_as_xyz
  x,y,z
_cell_length_a	15.916
_cell_length_b	15.916
_cell_length_c	21.495
_cell_angle_alpha	90
_cell_angle_beta	90
_cell_angle_gamma	90
loop_
_atom_site_label
_atom_site_type_symbol
_atom_site_fract_x
_atom_site_fract_y
_atom_site_fract_z
_atom_site_charge
Mof_Cd	Cd	0.05908	0.94092	0.75	0.386
Mof_Cd	Cd	0.94092	0.05908	0.25	0.385
Mof_Cd	Cd	0.55908	0.55908	0.5	0.387
Mof_Cd	Cd	0.44092	0.44092	-0	0.387
Mof_H 	H 	0.7421	0.4971	0.4287	0.013
Mof_H 	H 	0.85	0.4011	0.4381	0.081
Mof_H 	H 	0.7616	0.3422	0.6076	0.098
Mof_H 	H 	0.655	0.4391	0.5919	0.013
Mof_H 	H 	0.9644	0.3362	0.4626	0.056
Mof_H 	H 	0.0662	0.2317	0.4744	0.054
Mof_H 	H 	0.0453	0.1207	0.5421	0.066
Mof_H 	H 	0.8229	0.2219	0.5952	0.079
Mof_H 	H 	0.7974	0.0066	0.7926	0.08
Mof_H 	H 	0.6986	0.9123	0.8372	0.039
Mof_H 	H 	0.6458	0.8009	0.781	0.066
Mof_H 	H 	0.8049	0.8586	0.6396	0.084
Mof_H 	H 	0.5841	0.7161	0.7164	0.089
Mof_H 	H 	0.5352	0.6133	0.6497	0.038
Mof_H 	H 	0.7305	0.6383	0.5411	0.015
Mof_H 	H 	0.7875	0.7396	0.6048	0.091
Mof_H 	H 	0.7378	0.0922	0.6517	0.14
Mof_H 	H 	0.7453	0.0275	0.6022	0.127
Mof_H 	H 	0.2579	0.5029	0.9287	0.014
Mof_H 	H 	0.15	0.5989	0.9381	0.081
Mof_H 	H 	0.2384	0.6578	0.1076	0.098
Mof_H 	H 	0.345	0.5609	0.0919	0.013
Mof_H 	H 	0.0356	0.6638	0.9626	0.057
Mof_H 	H 	0.9338	0.7683	0.9744	0.054
Mof_H 	H 	0.9547	0.8793	0.0421	0.067
Mof_H 	H 	0.1771	0.7781	0.0952	0.08
Mof_H 	H 	0.2026	0.9934	0.2926	0.08
Mof_H 	H 	0.3014	0.0877	0.3372	0.039
Mof_H 	H 	0.3542	0.1991	0.281	0.066
Mof_H 	H 	0.1951	0.1414	0.1396	0.084
Mof_H 	H 	0.4159	0.2839	0.2164	0.089
Mof_H 	H 	0.4648	0.3867	0.1497	0.038
Mof_H 	H 	0.2695	0.3617	0.0411	0.015
Mof_H 	H 	0.2125	0.2604	0.1048	0.091
Mof_H 	H 	0.2622	0.9078	0.1517	0.14
Mof_H 	H 	0.2547	0.9725	0.1022	0.127
Mof_H 	H 	0.0029	0.2421	0.1787	0.014
Mof_H 	H 	0.0989	0.35	0.1881	0.081
Mof_H 	H 	0.1578	0.2616	0.3576	0.098
Mof_H 	H 	0.0609	0.155	0.3419	0.014
Mof_H 	H 	0.1638	0.4644	0.2126	0.056
Mof_H 	H 	0.2683	0.5662	0.2244	0.055
Mof_H 	H 	0.3793	0.5453	0.2921	0.067
Mof_H 	H 	0.2781	0.3229	0.3452	0.08
Mof_H 	H 	0.4934	0.2974	0.5426	0.081
Mof_H 	H 	0.5877	0.1986	0.5872	0.038
Mof_H 	H 	0.6991	0.1458	0.531	0.066
Mof_H 	H 	0.6414	0.3049	0.3896	0.085
Mof_H 	H 	0.7839	0.0841	0.4664	0.089
Mof_H 	H 	0.8867	0.0352	0.3997	0.037
Mof_H 	H 	0.8617	0.2305	0.2911	0.015
Mof_H 	H 	0.7604	0.2875	0.3548	0.091
Mof_H 	H 	0.4078	0.2378	0.4017	0.14
Mof_H 	H 	0.4725	0.2453	0.3522	0.127
Mof_H 	H 	0.9971	0.7579	0.6787	0.014
Mof_H 	H 	0.9011	0.65	0.6881	0.081
Mof_H 	H 	0.8422	0.7384	0.8576	0.098
Mof_H 	H 	0.9391	0.845	0.8419	0.014
Mof_H 	H 	0.8362	0.5356	0.7126	0.056
Mof_H 	H 	0.7317	0.4338	0.7244	0.055
Mof_H 	H 	0.6207	0.4547	0.7921	0.067
Mof_H 	H 	0.7219	0.6771	0.8452	0.08
Mof_H 	H 	0.5066	0.7026	0.0426	0.08
Mof_H 	H 	0.4123	0.8014	0.0872	0.039
Mof_H 	H 	0.3009	0.8542	0.031	0.065
Mof_H 	H 	0.3586	0.6951	0.8896	0.084
Mof_H 	H 	0.2161	0.9159	0.9664	0.089
Mof_H 	H 	0.1133	0.9648	0.8997	0.037
Mof_H 	H 	0.1383	0.7695	0.7911	0.015
Mof_H 	H 	0.2396	0.7125	0.8548	0.091
Mof_H 	H 	0.5922	0.7622	0.9017	0.14
Mof_H 	H 	0.5275	0.7547	0.8522	0.127
Mof_H 	H 	0.7579	0.9971	0.3213	0.014
Mof_H 	H 	0.65	0.9011	0.3119	0.081
Mof_H 	H 	0.7384	0.8422	0.1424	0.098
Mof_H 	H 	0.845	0.9391	0.1581	0.014
Mof_H 	H 	0.5356	0.8362	0.2874	0.056
Mof_H 	H 	0.4338	0.7317	0.2756	0.055
Mof_H 	H 	0.4547	0.6207	0.2079	0.067
Mof_H 	H 	0.6771	0.7219	0.1548	0.08
Mof_H 	H 	0.7026	0.5066	0.9574	0.082
Mof_H 	H 	0.8014	0.4123	0.9128	0.038
Mof_H 	H 	0.8542	0.3009	0.969	0.066
Mof_H 	H 	0.6951	0.3586	0.1104	0.085
Mof_H 	H 	0.9159	0.2161	0.0336	0.089
Mof_H 	H 	0.9648	0.1133	0.1003	0.037
Mof_H 	H 	0.7695	0.1383	0.2089	0.015
Mof_H 	H 	0.7125	0.2396	0.1452	0.09
Mof_H 	H 	0.7622	0.5922	0.0983	0.141
Mof_H 	H 	0.7547	0.5275	0.1478	0.127
Mof_H 	H 	0.2421	0.0029	0.8213	0.014
Mof_H 	H 	0.35	0.0989	0.8119	0.081
Mof_H 	H 	0.2616	0.1578	0.6424	0.098
Mof_H 	H 	0.155	0.0609	0.6581	0.014
Mof_H 	H 	0.4644	0.1638	0.7874	0.056
Mof_H 	H 	0.5662	0.2683	0.7756	0.055
Mof_H 	H 	0.5453	0.3793	0.7079	0.067
Mof_H 	H 	0.3229	0.2781	0.6548	0.08
Mof_H 	H 	0.2974	0.4934	0.4574	0.081
Mof_H 	H 	0.1986	0.5877	0.4128	0.038
Mof_H 	H 	0.1458	0.6991	0.469	0.066
Mof_H 	H 	0.3049	0.6414	0.6104	0.085
Mof_H 	H 	0.0841	0.7839	0.5336	0.089
Mof_H 	H 	0.0352	0.8867	0.6003	0.037
Mof_H 	H 	0.2305	0.8617	0.7089	0.015
Mof_H 	H 	0.2875	0.7604	0.6452	0.091
Mof_H 	H 	0.2378	0.4078	0.5983	0.14
Mof_H 	H 	0.2453	0.4725	0.6478	0.127
Mof_H 	H 	0.4971	0.7421	0.5713	0.013
Mof_H 	H 	0.4011	0.85	0.5619	0.081
Mof_H 	H 	0.3422	0.7616	0.3924	0.098
Mof_H 	H 	0.4391	0.655	0.4081	0.013
Mof_H 	H 	0.3362	0.9644	0.5374	0.056
Mof_H 	H 	0.2317	0.0662	0.5256	0.054
Mof_H 	H 	0.1207	0.0453	0.4579	0.066
Mof_H 	H 	0.2219	0.8229	0.4048	0.079
Mof_H 	H 	0.0066	0.7974	0.2074	0.08
Mof_H 	H 	0.9123	0.6986	0.1628	0.039
Mof_H 	H 	0.8009	0.6458	0.219	0.066
Mof_H 	H 	0.8586	0.8049	0.3604	0.084
Mof_H 	H 	0.7161	0.5841	0.2836	0.089
Mof_H 	H 	0.6133	0.5352	0.3503	0.038
Mof_H 	H 	0.6383	0.7305	0.4589	0.015
Mof_H 	H 	0.7396	0.7875	0.3952	0.091
Mof_H 	H 	0.0922	0.7378	0.3483	0.14
Mof_H 	H 	0.0275	0.7453	0.3978	0.127
Mof_H 	H 	0.5029	0.2579	0.0713	0.013
Mof_H 	H 	0.5989	0.15	0.0619	0.081
Mof_H 	H 	0.6578	0.2384	0.8924	0.097
Mof_H 	H 	0.5609	0.345	0.9081	0.014
Mof_H 	H 	0.6638	0.0356	0.0374	0.057
Mof_H 	H 	0.7683	0.9338	0.0256	0.053
Mof_H 	H 	0.8793	0.9547	0.9579	0.068
Mof_H 	H 	0.7781	0.1771	0.9048	0.08
Mof_H 	H 	0.9934	0.2026	0.7074	0.08
Mof_H 	H 	0.0877	0.3014	0.6628	0.039
Mof_H 	H 	0.1991	0.3542	0.719	0.066
Mof_H 	H 	0.1414	0.1951	0.8604	0.084
Mof_H 	H 	0.2839	0.4159	0.7836	0.089
Mof_H 	H 	0.3867	0.4648	0.8503	0.038
Mof_H 	H 	0.3617	0.2695	0.9589	0.015
Mof_H 	H 	0.2604	0.2125	0.8952	0.091
Mof_H 	H 	0.9078	0.2622	0.8483	0.14
Mof_H 	H 	0.9725	0.2547	0.8978	0.127
Mof_C 	C 	0.7449	0.4638	0.4653	0.086
Mof_C 	C 	0.81	0.4064	0.4707	-0.14
Mof_C 	C 	0.8168	0.3572	0.523	0.084
Mof_C 	C 	0.7584	0.3719	0.5693	-0.145
Mof_C 	C 	0.6949	0.4305	0.5596	0.089
Mof_C 	C 	0.8823	0.2914	0.529	0.01
Mof_C 	C 	0.956	0.2924	0.4919	-0.061
Mof_C 	C 	0.0161	0.2292	0.4983	-0.007
Mof_C 	C 	0.0041	0.1636	0.5386	-0.059
Mof_C 	C 	0.9308	0.1601	0.5746	0.021
Mof_C 	C 	0.8718	0.224	0.5699	-0.072
Mof_C 	C 	0.9233	0.0913	0.6183	0.113
Mof_C 	C 	0.8722	0.9949	0.6806	0.107
Mof_C 	C 	0.8101	0.9409	0.7114	0.03
Mof_C 	C 	0.7789	0.9585	0.7702	-0.076
Mof_C 	C 	0.7184	0.9026	0.7962	0.009
Mof_C 	C 	0.6883	0.8355	0.7636	-0.082
Mof_C 	C 	0.7207	0.8179	0.7039	0.029
Mof_C 	C 	0.7819	0.8708	0.6793	-0.092
Mof_C 	C 	0.6903	0.7452	0.6666	0.064
Mof_C 	C 	0.615	0.7028	0.6799	-0.121
Mof_C 	C 	0.5859	0.6414	0.6393	0.074
Mof_C 	C 	0.6995	0.6558	0.5766	0.073
Mof_C 	C 	0.7339	0.7168	0.6144	-0.128
Mof_C 	C 	0.2551	0.5362	0.9653	0.085
Mof_C 	C 	0.19	0.5936	0.9707	-0.142
Mof_C 	C 	0.1832	0.6428	0.023	0.084
Mof_C 	C 	0.2416	0.6281	0.0693	-0.145
Mof_C 	C 	0.3051	0.5695	0.0596	0.09
Mof_C 	C 	0.1177	0.7086	0.029	0.013
Mof_C 	C 	0.044	0.7076	0.9919	-0.065
Mof_C 	C 	0.9839	0.7708	0.9983	-0.004
Mof_C 	C 	0.9959	0.8364	0.0386	-0.061
Mof_C 	C 	0.0692	0.8399	0.0746	0.022
Mof_C 	C 	0.1282	0.776	0.0699	-0.073
Mof_C 	C 	0.0767	0.9087	0.1183	0.113
Mof_C 	C 	0.1278	0.0051	0.1806	0.106
Mof_C 	C 	0.1899	0.0591	0.2114	0.03
Mof_C 	C 	0.2211	0.0415	0.2702	-0.076
Mof_C 	C 	0.2816	0.0974	0.2962	0.009
Mof_C 	C 	0.3117	0.1645	0.2636	-0.082
Mof_C 	C 	0.2793	0.1821	0.2039	0.029
Mof_C 	C 	0.2181	0.1292	0.1793	-0.092
Mof_C 	C 	0.3097	0.2548	0.1666	0.064
Mof_C 	C 	0.385	0.2972	0.1799	-0.121
Mof_C 	C 	0.4141	0.3586	0.1393	0.074
Mof_C 	C 	0.3005	0.3442	0.0766	0.073
Mof_C 	C 	0.2661	0.2832	0.1144	-0.128
Mof_C 	C 	0.0362	0.2449	0.2153	0.086
Mof_C 	C 	0.0936	0.31	0.2207	-0.14
Mof_C 	C 	0.1428	0.3168	0.273	0.084
Mof_C 	C 	0.1281	0.2584	0.3193	-0.144
Mof_C 	C 	0.0695	0.1949	0.3096	0.089
Mof_C 	C 	0.2086	0.3823	0.279	0.01
Mof_C 	C 	0.2076	0.456	0.2419	-0.06
Mof_C 	C 	0.2708	0.5161	0.2483	-0.007
Mof_C 	C 	0.3364	0.5041	0.2886	-0.06
Mof_C 	C 	0.3399	0.4308	0.3246	0.022
Mof_C 	C 	0.276	0.3718	0.3199	-0.072
Mof_C 	C 	0.4087	0.4233	0.3683	0.113
Mof_C 	C 	0.5051	0.3722	0.4306	0.105
Mof_C 	C 	0.5591	0.3101	0.4614	0.031
Mof_C 	C 	0.5415	0.2789	0.5202	-0.079
Mof_C 	C 	0.5974	0.2184	0.5462	0.011
Mof_C 	C 	0.6645	0.1883	0.5136	-0.083
Mof_C 	C 	0.6821	0.2207	0.4539	0.03
Mof_C 	C 	0.6292	0.2819	0.4293	-0.092
Mof_C 	C 	0.7548	0.1903	0.4166	0.064
Mof_C 	C 	0.7972	0.115	0.4299	-0.121
Mof_C 	C 	0.8586	0.0859	0.3893	0.074
Mof_C 	C 	0.8442	0.1995	0.3266	0.073
Mof_C 	C 	0.7832	0.2339	0.3644	-0.128
Mof_C 	C 	0.9638	0.7551	0.7153	0.086
Mof_C 	C 	0.9064	0.69	0.7207	-0.14
Mof_C 	C 	0.8572	0.6832	0.773	0.084
Mof_C 	C 	0.8719	0.7416	0.8193	-0.144
Mof_C 	C 	0.9305	0.8051	0.8096	0.089
Mof_C 	C 	0.7914	0.6177	0.779	0.01
Mof_C 	C 	0.7924	0.544	0.7419	-0.06
Mof_C 	C 	0.7292	0.4839	0.7483	-0.007
Mof_C 	C 	0.6636	0.4959	0.7886	-0.06
Mof_C 	C 	0.6601	0.5692	0.8246	0.022
Mof_C 	C 	0.724	0.6282	0.8199	-0.072
Mof_C 	C 	0.5913	0.5767	0.8683	0.113
Mof_C 	C 	0.4949	0.6278	0.9306	0.106
Mof_C 	C 	0.4409	0.6899	0.9614	0.028
Mof_C 	C 	0.4585	0.7211	0.0202	-0.075
Mof_C 	C 	0.4026	0.7816	0.0462	0.008
Mof_C 	C 	0.3355	0.8117	0.0136	-0.079
Mof_C 	C 	0.3179	0.7793	0.9539	0.026
Mof_C 	C 	0.3708	0.7181	0.9293	-0.09
Mof_C 	C 	0.2452	0.8097	0.9166	0.065
Mof_C 	C 	0.2028	0.885	0.9299	-0.122
Mof_C 	C 	0.1414	0.9141	0.8893	0.074
Mof_C 	C 	0.1558	0.8005	0.8266	0.074
Mof_C 	C 	0.2168	0.7661	0.8644	-0.129
Mof_C 	C 	0.7551	0.9638	0.2847	0.086
Mof_C 	C 	0.69	0.9064	0.2793	-0.14
Mof_C 	C 	0.6832	0.8572	0.227	0.084
Mof_C 	C 	0.7416	0.8719	0.1807	-0.144
Mof_C 	C 	0.8051	0.9305	0.1904	0.089
Mof_C 	C 	0.6177	0.7914	0.221	0.01
Mof_C 	C 	0.544	0.7924	0.2581	-0.06
Mof_C 	C 	0.4839	0.7292	0.2517	-0.007
Mof_C 	C 	0.4959	0.6636	0.2114	-0.06
Mof_C 	C 	0.5692	0.6601	0.1754	0.022
Mof_C 	C 	0.6282	0.724	0.1801	-0.072
Mof_C 	C 	0.5767	0.5913	0.1317	0.113
Mof_C 	C 	0.6278	0.4949	0.0694	0.105
Mof_C 	C 	0.6899	0.4409	0.0386	0.032
Mof_C 	C 	0.7211	0.4585	0.9798	-0.08
Mof_C 	C 	0.7816	0.4026	0.9538	0.012
Mof_C 	C 	0.8117	0.3355	0.9864	-0.084
Mof_C 	C 	0.7793	0.3179	0.0461	0.031
Mof_C 	C 	0.7181	0.3708	0.0707	-0.093
Mof_C 	C 	0.8097	0.2452	0.0834	0.063
Mof_C 	C 	0.885	0.2028	0.0701	-0.121
Mof_C 	C 	0.9141	0.1414	0.1107	0.074
Mof_C 	C 	0.8005	0.1558	0.1734	0.073
Mof_C 	C 	0.7661	0.2168	0.1356	-0.128
Mof_C 	C 	0.2449	0.0362	0.7847	0.086
Mof_C 	C 	0.31	0.0936	0.7793	-0.14
Mof_C 	C 	0.3168	0.1428	0.727	0.084
Mof_C 	C 	0.2584	0.1281	0.6807	-0.144
Mof_C 	C 	0.1949	0.0695	0.6904	0.089
Mof_C 	C 	0.3823	0.2086	0.721	0.01
Mof_C 	C 	0.456	0.2076	0.7581	-0.06
Mof_C 	C 	0.5161	0.2708	0.7517	-0.007
Mof_C 	C 	0.5041	0.3364	0.7114	-0.06
Mof_C 	C 	0.4308	0.3399	0.6754	0.022
Mof_C 	C 	0.3718	0.276	0.6801	-0.072
Mof_C 	C 	0.4233	0.4087	0.6317	0.113
Mof_C 	C 	0.3722	0.5051	0.5694	0.105
Mof_C 	C 	0.3101	0.5591	0.5386	0.031
Mof_C 	C 	0.2789	0.5415	0.4798	-0.079
Mof_C 	C 	0.2184	0.5974	0.4538	0.011
Mof_C 	C 	0.1883	0.6645	0.4864	-0.083
Mof_C 	C 	0.2207	0.6821	0.5461	0.03
Mof_C 	C 	0.2819	0.6292	0.5707	-0.092
Mof_C 	C 	0.1903	0.7548	0.5834	0.064
Mof_C 	C 	0.115	0.7972	0.5701	-0.121
Mof_C 	C 	0.0859	0.8586	0.6107	0.074
Mof_C 	C 	0.1995	0.8442	0.6734	0.073
Mof_C 	C 	0.2339	0.7832	0.6356	-0.128
Mof_C 	C 	0.4638	0.7449	0.5347	0.086
Mof_C 	C 	0.4064	0.81	0.5293	-0.14
Mof_C 	C 	0.3572	0.8168	0.477	0.084
Mof_C 	C 	0.3719	0.7584	0.4307	-0.145
Mof_C 	C 	0.4305	0.6949	0.4404	0.089
Mof_C 	C 	0.2914	0.8823	0.471	0.01
Mof_C 	C 	0.2924	0.956	0.5081	-0.061
Mof_C 	C 	0.2292	0.0161	0.5017	-0.007
Mof_C 	C 	0.1636	0.0041	0.4614	-0.059
Mof_C 	C 	0.1601	0.9308	0.4254	0.021
Mof_C 	C 	0.224	0.8718	0.4301	-0.072
Mof_C 	C 	0.0913	0.9233	0.3817	0.113
Mof_C 	C 	0.9949	0.8722	0.3194	0.107
Mof_C 	C 	0.9409	0.8101	0.2886	0.03
Mof_C 	C 	0.9585	0.7789	0.2298	-0.076
Mof_C 	C 	0.9026	0.7184	0.2038	0.009
Mof_C 	C 	0.8355	0.6883	0.2364	-0.082
Mof_C 	C 	0.8179	0.7207	0.2961	0.029
Mof_C 	C 	0.8708	0.7819	0.3207	-0.092
Mof_C 	C 	0.7452	0.6903	0.3334	0.064
Mof_C 	C 	0.7028	0.615	0.3201	-0.121
Mof_C 	C 	0.6414	0.5859	0.3607	0.074
Mof_C 	C 	0.6558	0.6995	0.4234	0.073
Mof_C 	C 	0.7168	0.7339	0.3856	-0.128
Mof_C 	C 	0.5362	0.2551	0.0347	0.087
Mof_C 	C 	0.5936	0.19	0.0293	-0.139
Mof_C 	C 	0.6428	0.1832	0.977	0.082
Mof_C 	C 	0.6281	0.2416	0.9307	-0.144
Mof_C 	C 	0.5695	0.3051	0.9404	0.089
Mof_C 	C 	0.7086	0.1177	0.971	0.012
Mof_C 	C 	0.7076	0.044	0.0081	-0.064
Mof_C 	C 	0.7708	0.9839	0.0017	-0.002
Mof_C 	C 	0.8364	0.9959	0.9614	-0.063
Mof_C 	C 	0.8399	0.0692	0.9254	0.023
Mof_C 	C 	0.776	0.1282	0.9301	-0.074
Mof_C 	C 	0.9087	0.0767	0.8817	0.113
Mof_C 	C 	0.0051	0.1278	0.8194	0.106
Mof_C 	C 	0.0591	0.1899	0.7886	0.03
Mof_C 	C 	0.0415	0.2211	0.7298	-0.076
Mof_C 	C 	0.0974	0.2816	0.7038	0.009
Mof_C 	C 	0.1645	0.3117	0.7364	-0.082
Mof_C 	C 	0.1821	0.2793	0.7961	0.029
Mof_C 	C 	0.1292	0.2181	0.8207	-0.092
Mof_C 	C 	0.2548	0.3097	0.8334	0.064
Mof_C 	C 	0.2972	0.385	0.8201	-0.121
Mof_C 	C 	0.3586	0.4141	0.8607	0.074
Mof_C 	C 	0.3442	0.3005	0.9234	0.073
Mof_C 	C 	0.2832	0.2661	0.8856	-0.128
Mof_N 	N 	0.987	0.0541	0.6448	-0.099
Mof_N 	N 	0.9551	0.9925	0.6838	-0.111
Mof_N 	N 	0.8502	0.0553	0.6399	-0.097
Mof_N 	N 	0.7692	0.0743	0.6189	-0.213
Mof_N 	N 	0.624	0.6197	0.5875	-0.151
Mof_N 	N 	0.6868	0.4748	0.5082	-0.155
Mof_N 	N 	0.013	0.9459	0.1448	-0.099
Mof_N 	N 	0.0449	0.0075	0.1838	-0.111
Mof_N 	N 	0.1498	0.9447	0.1399	-0.096
Mof_N 	N 	0.2308	0.9257	0.1189	-0.213
Mof_N 	N 	0.376	0.3803	0.0875	-0.151
Mof_N 	N 	0.3132	0.5252	0.0082	-0.154
Mof_N 	N 	0.4459	0.487	0.3948	-0.098
Mof_N 	N 	0.5075	0.4551	0.4338	-0.112
Mof_N 	N 	0.4447	0.3502	0.3899	-0.096
Mof_N 	N 	0.4257	0.2692	0.3689	-0.213
Mof_N 	N 	0.8803	0.124	0.3375	-0.152
Mof_N 	N 	0.0252	0.1868	0.2582	-0.154
Mof_N 	N 	0.5541	0.513	0.8948	-0.098
Mof_N 	N 	0.4925	0.5449	0.9338	-0.112
Mof_N 	N 	0.5553	0.6498	0.8899	-0.096
Mof_N 	N 	0.5743	0.7308	0.8689	-0.213
Mof_N 	N 	0.1197	0.876	0.8375	-0.152
Mof_N 	N 	0.9748	0.8132	0.7582	-0.154
Mof_N 	N 	0.513	0.5541	0.1052	-0.098
Mof_N 	N 	0.5449	0.4925	0.0662	-0.111
Mof_N 	N 	0.6498	0.5553	0.1101	-0.096
Mof_N 	N 	0.7308	0.5743	0.1311	-0.213
Mof_N 	N 	0.876	0.1197	0.1625	-0.152
Mof_N 	N 	0.8132	0.9748	0.2418	-0.154
Mof_N 	N 	0.487	0.4459	0.6052	-0.098
Mof_N 	N 	0.4551	0.5075	0.5662	-0.112
Mof_N 	N 	0.3502	0.4447	0.6101	-0.096
Mof_N 	N 	0.2692	0.4257	0.6311	-0.213
Mof_N 	N 	0.124	0.8803	0.6625	-0.152
Mof_N 	N 	0.1868	0.0252	0.7418	-0.154
Mof_N 	N 	0.0541	0.987	0.3552	-0.099
Mof_N 	N 	0.9925	0.9551	0.3162	-0.111
Mof_N 	N 	0.0553	0.8502	0.3601	-0.097
Mof_N 	N 	0.0743	0.7692	0.3811	-0.213
Mof_N 	N 	0.6197	0.624	0.4125	-0.151
Mof_N 	N 	0.4748	0.6868	0.4918	-0.155
Mof_N 	N 	0.9459	0.013	0.8552	-0.099
Mof_N 	N 	0.0075	0.0449	0.8162	-0.111
Mof_N 	N 	0.9447	0.1498	0.8601	-0.096
Mof_N 	N 	0.9257	0.2308	0.8811	-0.213
Mof_N 	N 	0.3803	0.376	0.9125	-0.152
Mof_N 	N 	0.5252	0.3132	0.9918	-0.155
Mof_Cl	Cl	0.7322	0.7322	-0	-0.214
Mof_O 	O 	0.7787	0.655	0.9801	-0.058
Mof_O 	O 	0.7756	0.7549	0.0525	-0.045
Mof_O 	O 	0.655	0.7787	0.0199	-0.057
Mof_O 	O 	0.7549	0.7756	0.9475	-0.045
Mof_Cl	Cl	0.12264	0.12264	-0	-0.227
Mof_O 	O 	0.0978	0.1794	0.0511	-0.058
Mof_O 	O 	0.1071	0.0458	0.0264	-0.023
Mof_O 	O 	0.1794	0.0978	0.9489	-0.059
Mof_O 	O 	0.0458	0.1071	0.9736	-0.024
Mof_Cl	Cl	0.2678	0.2678	0.5	-0.215
Mof_O 	O 	0.2213	0.345	0.4801	-0.057
Mof_O 	O 	0.2244	0.2451	0.5525	-0.045
Mof_O 	O 	0.345	0.2213	0.5199	-0.057
Mof_O 	O 	0.2451	0.2244	0.4475	-0.045
Mof_Cl	Cl	0.87736	0.87736	0.5	-0.229
Mof_O 	O 	0.9022	0.8206	0.5511	-0.058
Mof_O 	O 	0.8929	0.9542	0.5264	-0.023
Mof_O 	O 	0.8206	0.9022	0.4489	-0.058
Mof_O 	O 	0.9542	0.8929	0.4736	-0.023
Mof_Cl	Cl	0.7678	0.2322	0.75	-0.215
Mof_O 	O 	0.845	0.2787	0.7301	-0.057
Mof_O 	O 	0.7451	0.2756	0.8025	-0.045
Mof_O 	O 	0.7213	0.155	0.7699	-0.057
Mof_O 	O 	0.7244	0.2549	0.6975	-0.045
Mof_Cl	Cl	0.37736	0.62264	0.75	-0.228
Mof_O 	O 	0.3206	0.5978	0.8011	-0.059
Mof_O 	O 	0.4542	0.6071	0.7764	-0.024
Mof_O 	O 	0.4022	0.6794	0.6989	-0.059
Mof_O 	O 	0.3929	0.5458	0.7236	-0.024
Mof_Cl	Cl	0.2322	0.7678	0.25	-0.215
Mof_O 	O 	0.155	0.7213	0.2301	-0.057
Mof_O 	O 	0.2549	0.7244	0.3025	-0.045
Mof_O 	O 	0.2787	0.845	0.2699	-0.057
Mof_O 	O 	0.2756	0.7451	0.1975	-0.045
Mof_Cl	Cl	0.62264	0.37736	0.25	-0.229
Mof_O 	O 	0.6794	0.4022	0.3011	-0.059
Mof_O 	O 	0.5458	0.3929	0.2764	-0.024
Mof_O 	O 	0.5978	0.3206	0.1989	-0.059
Mof_O 	O 	0.6071	0.4542	0.2236	-0.024
_end
