data_functionalizedCrystal
_audit_creation_method	'EQeq! by Chris Wilmer'
_symmetry_space_group_name_H-M	'P1'
_symmetry_Int_Tables_number	1
_symmetry_cell_setting	triclinic
loop_
_symmetry_equiv_pos_as_xyz
  x,y,z
_cell_length_a	21.9415
_cell_length_b	19.2703
_cell_length_c	8.905
_cell_angle_alpha	90
_cell_angle_beta	90
_cell_angle_gamma	90
loop_
_atom_site_label
_atom_site_type_symbol
_atom_site_fract_x
_atom_site_fract_y
_atom_site_fract_z
_atom_site_charge
Mof_C 	C 	0.49923	0.15299	0.4438	-0.192
Mof_C 	C 	0.50117	0.18082	0.5586	-0.188
Mof_N 	N 	0.4253	0.03387	0.2562	-0.197
Mof_C 	C 	0.42958	0.97045	0.199	-0.001
Mof_H 	H 	0.462	0.9599	0.1356	0.004
Mof_N 	N 	0.33803	0.93186	0.3157	-0.108
Mof_C 	C 	0.3869	0.9197	0.2314	0.002
Mof_H 	H 	0.3926	0.8754	0.1927	0.011
Mof_N 	N 	0.26437	0.07718	0.4879	-0.138
Mof_C 	C 	0.33234	0.99665	0.3685	0.022
Mof_N 	N 	0.14614	0.17971	0.6569	-0.12
Mof_C 	C 	0.37612	0.04615	0.3397	0.001
Mof_H 	H 	0.3711	0.0902	0.3805	0.018
Mof_N 	N 	0.2154	0.2829	0.5278	-0.104
Mof_C 	C 	0.27677	0.01028	0.4607	0.106
Mof_N 	N 	0.06983	0.80337	0.7202	-0.246
Mof_C 	C 	0.24135	0.95653	0.5091	-0.143
Mof_H 	H 	0.252	0.9111	0.4855	0.096
Mof_C 	C 	0.18955	0.96955	0.5932	0.052
Mof_C 	C 	0.1481	0.91197	0.6398	0.076
Mof_C 	C 	0.1415	0.8538	0.5512	-0.161
Mof_H 	H 	0.1635	0.8497	0.4624	0.093
Mof_C 	C 	0.1027	0.8024	0.5938	0.087
Mof_H 	H 	0.0988	0.7641	0.531	-0.031
Mof_C 	C 	0.07684	0.859	0.8029	0.104
Mof_H 	H 	0.0546	0.8616	0.8916	-0.031
Mof_C 	C 	0.1143	0.9132	0.7691	-0.168
Mof_H 	H 	0.1168	0.951	0.8337	0.087
Mof_C 	C 	0.17687	0.03881	0.6256	-0.133
Mof_H 	H 	0.1434	0.0502	0.6847	0.077
Mof_C 	C 	0.21436	0.09071	0.5692	0.093
Mof_C 	C 	0.19816	0.16507	0.5883	0.029
Mof_C 	C 	0.13	0.2467	0.6627	0.007
Mof_H 	H 	0.0944	0.259	0.7131	0.001
Mof_C 	C 	0.1637	0.2964	0.5977	-0.003
Mof_H 	H 	0.1501	0.342	0.6021	0.027
Mof_C 	C 	0.2316	0.2168	0.525	0.002
Mof_H 	H 	0.2679	0.205	0.4771	0.046
Mof_N 	N 	0.50077	0.15299	0.0562	-0.211
Mof_C 	C 	0.49883	0.18082	0.9414	-0.17
Mof_N 	N 	0.5747	0.03387	0.2438	-0.198
Mof_C 	C 	0.57042	0.97045	0.301	-0.003
Mof_H 	H 	0.538	0.9599	0.3644	0.004
Mof_N 	N 	0.66197	0.93186	0.1843	-0.109
Mof_C 	C 	0.6131	0.9197	0.2686	0.002
Mof_H 	H 	0.6074	0.8754	0.3073	0.012
Mof_N 	N 	0.73563	0.07718	0.0121	-0.141
Mof_C 	C 	0.66766	0.99665	0.1315	0.025
Mof_N 	N 	0.85386	0.17971	0.8431	-0.11
Mof_C 	C 	0.62388	0.04615	0.1603	-0
Mof_H 	H 	0.6289	0.0902	0.1195	0.018
Mof_N 	N 	0.7846	0.2829	0.9722	-0.105
Mof_C 	C 	0.72323	0.01028	0.0393	0.094
Mof_N 	N 	0.93017	0.80337	0.7798	-0.215
Mof_C 	C 	0.75865	0.95653	0.9909	-0.123
Mof_H 	H 	0.748	0.9111	0.0145	0.086
Mof_C 	C 	0.81045	0.96955	0.9068	0.055
Mof_C 	C 	0.8519	0.91197	0.8602	0.074
Mof_C 	C 	0.8585	0.8538	0.9488	-0.135
Mof_H 	H 	0.8365	0.8497	0.0376	0.084
Mof_C 	C 	0.8973	0.8024	0.9062	0.089
Mof_H 	H 	0.9012	0.7641	0.969	-0.004
Mof_C 	C 	0.92316	0.859	0.6971	0.108
Mof_H 	H 	0.9454	0.8616	0.6084	-0.002
Mof_C 	C 	0.8857	0.9132	0.7309	-0.151
Mof_H 	H 	0.8832	0.951	0.6663	0.093
Mof_C 	C 	0.82313	0.03881	0.8744	-0.136
Mof_H 	H 	0.8566	0.0502	0.8153	0.09
Mof_C 	C 	0.78564	0.09071	0.9308	0.102
Mof_C 	C 	0.80184	0.16507	0.9117	0.024
Mof_C 	C 	0.87	0.2467	0.8373	0.004
Mof_H 	H 	0.9056	0.259	0.7869	0.025
Mof_C 	C 	0.8363	0.2964	0.9023	0.003
Mof_H 	H 	0.8499	0.342	0.8979	0.034
Mof_C 	C 	0.7684	0.2168	0.975	0.016
Mof_H 	H 	0.7321	0.205	0.0229	0.037
Mof_C 	C 	0.99923	0.65299	0.0562	-0.03
Mof_C 	C 	0.00117	0.68082	0.9414	-0.341
Mof_N 	N 	0.9253	0.53387	0.2438	-0.183
Mof_C 	C 	0.92958	0.47045	0.301	0.003
Mof_H 	H 	0.962	0.4599	0.3644	0.028
Mof_N 	N 	0.83803	0.43186	0.1843	-0.109
Mof_C 	C 	0.8869	0.4197	0.2686	0.007
Mof_H 	H 	0.8926	0.3754	0.3073	0.019
Mof_N 	N 	0.76437	0.57718	0.0121	-0.14
Mof_C 	C 	0.83234	0.49665	0.1315	0.03
Mof_N 	N 	0.64614	0.67971	0.8431	-0.115
Mof_C 	C 	0.87612	0.54615	0.1603	-0.002
Mof_H 	H 	0.8711	0.5902	0.1195	0.021
Mof_N 	N 	0.7154	0.7829	0.9722	-0.105
Mof_C 	C 	0.77677	0.51028	0.0393	0.091
Mof_N 	N 	0.56983	0.30337	0.7798	-0.234
Mof_C 	C 	0.74135	0.45653	0.9909	-0.119
Mof_H 	H 	0.752	0.4111	0.0145	0.085
Mof_C 	C 	0.68955	0.46955	0.9068	0.051
Mof_C 	C 	0.6481	0.41197	0.8602	0.075
Mof_C 	C 	0.6415	0.3538	0.9488	-0.142
Mof_H 	H 	0.6635	0.3497	0.0376	0.085
Mof_C 	C 	0.6027	0.3024	0.9062	0.085
Mof_H 	H 	0.5988	0.2641	0.969	-0.016
Mof_C 	C 	0.57684	0.359	0.6971	0.106
Mof_H 	H 	0.5546	0.3616	0.6084	-0.018
Mof_C 	C 	0.6143	0.4132	0.7309	-0.16
Mof_H 	H 	0.6168	0.451	0.6663	0.09
Mof_C 	C 	0.67687	0.53881	0.8744	-0.134
Mof_H 	H 	0.6434	0.5502	0.8153	0.083
Mof_C 	C 	0.71436	0.59071	0.9308	0.1
Mof_C 	C 	0.69816	0.66507	0.9117	0.024
Mof_C 	C 	0.63	0.7467	0.8373	0.006
Mof_H 	H 	0.5944	0.759	0.7869	0.009
Mof_C 	C 	0.6637	0.7964	0.9023	-0.001
Mof_H 	H 	0.6501	0.842	0.8979	0.029
Mof_C 	C 	0.7316	0.7168	0.975	0.015
Mof_H 	H 	0.7679	0.705	0.0229	0.037
Mof_N 	N 	0.00077	0.65299	0.4438	-0.286
Mof_C 	C 	0.99883	0.68082	0.5586	-0.049
Mof_N 	N 	0.0747	0.53387	0.2562	-0.209
Mof_C 	C 	0.07042	0.47045	0.199	-0.007
Mof_H 	H 	0.038	0.4599	0.1356	-0.017
Mof_N 	N 	0.16197	0.43186	0.3157	-0.109
Mof_C 	C 	0.1131	0.4197	0.2314	-0.001
Mof_H 	H 	0.1074	0.3754	0.1927	0.006
Mof_N 	N 	0.23563	0.57718	0.4879	-0.139
Mof_C 	C 	0.16766	0.49665	0.3685	0.022
Mof_N 	N 	0.35386	0.67971	0.6569	-0.116
Mof_C 	C 	0.12388	0.54615	0.3397	-0.001
Mof_H 	H 	0.1289	0.5902	0.3805	0.015
Mof_N 	N 	0.2846	0.7829	0.5278	-0.104
Mof_C 	C 	0.22323	0.51028	0.4607	0.105
Mof_N 	N 	0.43017	0.30337	0.7202	-0.236
Mof_C 	C 	0.25865	0.45653	0.5091	-0.143
Mof_H 	H 	0.248	0.4111	0.4855	0.097
Mof_C 	C 	0.31045	0.46955	0.5932	0.056
Mof_C 	C 	0.3519	0.41197	0.6398	0.077
Mof_C 	C 	0.3585	0.3538	0.5512	-0.156
Mof_H 	H 	0.3365	0.3497	0.4624	0.093
Mof_C 	C 	0.3973	0.3024	0.5938	0.092
Mof_H 	H 	0.4012	0.2641	0.531	-0.02
Mof_C 	C 	0.42316	0.359	0.8029	0.107
Mof_H 	H 	0.4454	0.3616	0.8916	-0.018
Mof_C 	C 	0.3857	0.4132	0.7691	-0.161
Mof_H 	H 	0.3832	0.451	0.8337	0.091
Mof_C 	C 	0.32313	0.53881	0.6256	-0.136
Mof_H 	H 	0.3566	0.5502	0.6847	0.084
Mof_C 	C 	0.28564	0.59071	0.5692	0.095
Mof_C 	C 	0.30184	0.66507	0.5883	0.029
Mof_C 	C 	0.37	0.7467	0.6627	0.006
Mof_H 	H 	0.4056	0.759	0.7131	0.009
Mof_C 	C 	0.3363	0.7964	0.5977	-0.002
Mof_H 	H 	0.3499	0.842	0.6021	0.029
Mof_C 	C 	0.2684	0.7168	0.525	0.003
Mof_H 	H 	0.2321	0.705	0.4771	0.045
Mof_Cu	Cu	0.5	0.10918	0.25	0.844
Mof_Cu	Cu	3.73264e-33	0.60918	0.25	0.804
Mof_Cu	Cu	0.5	0.22632	0.75	0.846
Mof_Cu	Cu	1.14128e-33	0.72632	0.75	0.817
Mof_C 	C 	0.00077	0.34701	0.9438	-0.341
Mof_C 	C 	0.99883	0.31918	0.0586	-0.022
Mof_N 	N 	0.0747	0.46613	0.7562	-0.206
Mof_C 	C 	0.07042	0.52955	0.699	-0.005
Mof_H 	H 	0.038	0.5401	0.6356	-0.017
Mof_N 	N 	0.16197	0.56814	0.8157	-0.108
Mof_C 	C 	0.1131	0.5803	0.7314	-0.001
Mof_H 	H 	0.1074	0.6246	0.6927	0.006
Mof_N 	N 	0.23563	0.42282	0.9879	-0.137
Mof_C 	C 	0.16766	0.50335	0.8685	0.02
Mof_N 	N 	0.35386	0.32029	0.1569	-0.117
Mof_C 	C 	0.12388	0.45385	0.8397	0
Mof_H 	H 	0.1289	0.4098	0.8805	0.018
Mof_N 	N 	0.2846	0.2171	0.0278	-0.104
Mof_C 	C 	0.22323	0.48972	0.9607	0.115
Mof_N 	N 	0.43017	0.69663	0.2202	-0.237
Mof_C 	C 	0.25865	0.54347	0.0091	-0.16
Mof_H 	H 	0.248	0.5889	0.9855	0.105
Mof_C 	C 	0.31045	0.53045	0.0932	0.06
Mof_C 	C 	0.3519	0.58803	0.1398	0.079
Mof_C 	C 	0.3585	0.6462	0.0512	-0.167
Mof_H 	H 	0.3365	0.6503	0.9624	0.1
Mof_C 	C 	0.3973	0.6976	0.0938	0.097
Mof_H 	H 	0.4012	0.7359	0.031	-0.024
Mof_C 	C 	0.42316	0.641	0.3029	0.108
Mof_H 	H 	0.4454	0.6384	0.3916	-0.019
Mof_C 	C 	0.3857	0.5868	0.2691	-0.163
Mof_H 	H 	0.3832	0.549	0.3337	0.09
Mof_C 	C 	0.32313	0.46119	0.1256	-0.137
Mof_H 	H 	0.3566	0.4498	0.1847	0.083
Mof_C 	C 	0.28564	0.40929	0.0692	0.091
Mof_C 	C 	0.30184	0.33493	0.0883	0.032
Mof_C 	C 	0.37	0.2533	0.1627	0.007
Mof_H 	H 	0.4056	0.241	0.2131	0.008
Mof_C 	C 	0.3363	0.2036	0.0977	-0.003
Mof_H 	H 	0.3499	0.158	0.1021	0.028
Mof_C 	C 	0.2684	0.2832	0.025	-0.007
Mof_H 	H 	0.2321	0.295	0.9771	0.051
Mof_N 	N 	0.99923	0.34701	0.5562	-0.121
Mof_C 	C 	0.00117	0.31918	0.4414	-0.281
Mof_N 	N 	0.9253	0.46613	0.7438	-0.179
Mof_C 	C 	0.92958	0.52955	0.801	0.005
Mof_H 	H 	0.962	0.5401	0.8644	0.027
Mof_N 	N 	0.83803	0.56814	0.6843	-0.107
Mof_C 	C 	0.8869	0.5803	0.7686	0.007
Mof_H 	H 	0.8926	0.6246	0.8073	0.02
Mof_N 	N 	0.76437	0.42282	0.5121	-0.138
Mof_C 	C 	0.83234	0.50335	0.6315	0.026
Mof_N 	N 	0.64614	0.32029	0.3431	-0.116
Mof_C 	C 	0.87612	0.45385	0.6603	0.002
Mof_H 	H 	0.8711	0.4098	0.6195	0.024
Mof_N 	N 	0.7154	0.2171	0.4722	-0.104
Mof_C 	C 	0.77677	0.48972	0.5393	0.104
Mof_N 	N 	0.56983	0.69663	0.2798	-0.236
Mof_C 	C 	0.74135	0.54347	0.4909	-0.142
Mof_H 	H 	0.752	0.5889	0.5145	0.097
Mof_C 	C 	0.68955	0.53045	0.4068	0.056
Mof_C 	C 	0.6481	0.58803	0.3602	0.076
Mof_C 	C 	0.6415	0.6462	0.4488	-0.156
Mof_H 	H 	0.6635	0.6503	0.5376	0.093
Mof_C 	C 	0.6027	0.6976	0.4062	0.091
Mof_H 	H 	0.5988	0.7359	0.469	-0.02
Mof_C 	C 	0.57684	0.641	0.1971	0.106
Mof_H 	H 	0.5546	0.6384	0.1084	-0.02
Mof_C 	C 	0.6143	0.5868	0.2309	-0.162
Mof_H 	H 	0.6168	0.549	0.1663	0.089
Mof_C 	C 	0.67687	0.46119	0.3744	-0.135
Mof_H 	H 	0.6434	0.4498	0.3153	0.082
Mof_C 	C 	0.71436	0.40929	0.4308	0.095
Mof_C 	C 	0.69816	0.33493	0.4117	0.029
Mof_C 	C 	0.63	0.2533	0.3373	0.006
Mof_H 	H 	0.5944	0.241	0.2869	0.008
Mof_C 	C 	0.6637	0.2036	0.4023	-0.002
Mof_H 	H 	0.6501	0.158	0.3979	0.029
Mof_C 	C 	0.7316	0.2832	0.475	0.002
Mof_H 	H 	0.7679	0.295	0.5229	0.046
Mof_C 	C 	0.50077	0.84701	0.5562	-0.192
Mof_C 	C 	0.49883	0.81918	0.4414	-0.189
Mof_N 	N 	0.5747	0.96613	0.7438	-0.198
Mof_C 	C 	0.57042	0.02955	0.801	-0
Mof_H 	H 	0.538	0.0401	0.8644	0.005
Mof_N 	N 	0.66197	0.06814	0.6843	-0.108
Mof_C 	C 	0.6131	0.0803	0.7686	0.003
Mof_H 	H 	0.6074	0.1246	0.8073	0.012
Mof_N 	N 	0.73563	0.92282	0.5121	-0.139
Mof_C 	C 	0.66766	0.00335	0.6315	0.025
Mof_N 	N 	0.85386	0.82029	0.3431	-0.112
Mof_C 	C 	0.62388	0.95385	0.6603	-0.001
Mof_H 	H 	0.6289	0.9098	0.6195	0.019
Mof_N 	N 	0.7846	0.7171	0.4722	-0.105
Mof_C 	C 	0.72323	0.98972	0.5393	0.104
Mof_N 	N 	0.93017	0.19663	0.2798	-0.218
Mof_C 	C 	0.75865	0.04347	0.4909	-0.143
Mof_H 	H 	0.748	0.0889	0.5145	0.097
Mof_C 	C 	0.81045	0.03045	0.4068	0.06
Mof_C 	C 	0.8519	0.08803	0.3602	0.076
Mof_C 	C 	0.8585	0.1462	0.4488	-0.15
Mof_H 	H 	0.8365	0.1503	0.5376	0.093
Mof_C 	C 	0.8973	0.1976	0.4062	0.095
Mof_H 	H 	0.9012	0.2359	0.469	-0.007
Mof_C 	C 	0.92316	0.141	0.1971	0.109
Mof_H 	H 	0.9454	0.1384	0.1084	-0.003
Mof_C 	C 	0.8857	0.0868	0.2309	-0.153
Mof_H 	H 	0.8832	0.049	0.1663	0.092
Mof_C 	C 	0.82313	0.96119	0.3744	-0.139
Mof_H 	H 	0.8566	0.9498	0.3153	0.089
Mof_C 	C 	0.78564	0.90929	0.4308	0.097
Mof_C 	C 	0.80184	0.83493	0.4117	0.028
Mof_C 	C 	0.87	0.7533	0.3373	0.006
Mof_H 	H 	0.9056	0.741	0.2869	0.019
Mof_C 	C 	0.8363	0.7036	0.4023	-0
Mof_H 	H 	0.8499	0.658	0.3979	0.032
Mof_C 	C 	0.7684	0.7832	0.475	0.003
Mof_H 	H 	0.7321	0.795	0.5229	0.045
Mof_N 	N 	0.49923	0.84701	0.9438	-0.203
Mof_C 	C 	0.50117	0.81918	0.0586	-0.181
Mof_N 	N 	0.4253	0.96613	0.7562	-0.198
Mof_C 	C 	0.42958	0.02955	0.699	-0
Mof_H 	H 	0.462	0.0401	0.6356	0.003
Mof_N 	N 	0.33803	0.06814	0.8157	-0.107
Mof_C 	C 	0.3869	0.0803	0.7314	0.003
Mof_H 	H 	0.3926	0.1246	0.6927	0.012
Mof_N 	N 	0.26437	0.92282	0.9879	-0.136
Mof_C 	C 	0.33234	0.00335	0.8685	0.023
Mof_N 	N 	0.14614	0.82029	0.1569	-0.121
Mof_C 	C 	0.37612	0.95385	0.8397	0.001
Mof_H 	H 	0.3711	0.9098	0.8805	0.019
Mof_N 	N 	0.2154	0.7171	0.0278	-0.103
Mof_C 	C 	0.27677	0.98972	0.9607	0.112
Mof_N 	N 	0.06983	0.19663	0.2202	-0.247
Mof_C 	C 	0.24135	0.04347	0.0091	-0.156
Mof_H 	H 	0.252	0.0889	0.9855	0.104
Mof_C 	C 	0.18955	0.03045	0.0932	0.057
Mof_C 	C 	0.1481	0.08803	0.1398	0.078
Mof_C 	C 	0.1415	0.1462	0.0512	-0.171
Mof_H 	H 	0.1635	0.1503	0.9624	0.099
Mof_C 	C 	0.1027	0.1976	0.0938	0.091
Mof_H 	H 	0.0988	0.2359	0.031	-0.032
Mof_C 	C 	0.07684	0.141	0.3029	0.104
Mof_H 	H 	0.0546	0.1384	0.3916	-0.032
Mof_C 	C 	0.1143	0.0868	0.2691	-0.169
Mof_H 	H 	0.1168	0.049	0.3337	0.086
Mof_C 	C 	0.17687	0.96119	0.1256	-0.135
Mof_H 	H 	0.1434	0.9498	0.1847	0.077
Mof_C 	C 	0.21436	0.90929	0.0692	0.089
Mof_C 	C 	0.19816	0.83493	0.0883	0.033
Mof_C 	C 	0.13	0.7533	0.1627	0.008
Mof_H 	H 	0.0944	0.741	0.2131	-0.005
Mof_C 	C 	0.1637	0.7036	0.0977	-0.006
Mof_H 	H 	0.1501	0.658	0.1021	0.024
Mof_C 	C 	0.2316	0.7832	0.025	-0.008
Mof_H 	H 	0.2679	0.795	0.9771	0.052
Mof_Cu	Cu	4.49349e-33	0.39082	0.75	0.822
Mof_Cu	Cu	0.5	0.89082	0.75	0.844
Mof_Cu	Cu	-1.29568e-33	0.27368	0.25	0.812
Mof_Cu	Cu	0.5	0.77368	0.25	0.846
_end
