data_functionalizedCrystal
_audit_creation_method	'EQeq! by Chris Wilmer'
_symmetry_space_group_name_H-M	'P1'
_symmetry_Int_Tables_number	1
_symmetry_cell_setting	triclinic
loop_
_symmetry_equiv_pos_as_xyz
  x,y,z
_cell_length_a	10.2208
_cell_length_b	23.966
_cell_length_c	11.4286
_cell_angle_alpha	90
_cell_angle_beta	91.7114
_cell_angle_gamma	90
loop_
_atom_site_label
_atom_site_type_symbol
_atom_site_fract_x
_atom_site_fract_y
_atom_site_fract_z
_atom_site_charge
Mof_Co	Co	0.99598	0.66051	0.58053	1.163
Mof_Co	Co	0.49338	0.74161	0.56191	1.159
Mof_O 	O 	0.3058	0.7076	0.5616	-0.434
Mof_O 	O 	0.808	0.6941	0.5694	-0.424
Mof_O 	O 	0.185	0.6315	0.5852	-0.431
Mof_O 	O 	0.6825	0.7705	0.5635	-0.43
Mof_N 	N 	0.9957	0.6537	0.7715	-0.222
Mof_N 	N 	0.4927	0.7488	0.7514	-0.222
Mof_N 	N 	0.4969	0.7428	0.3719	-0.232
Mof_C 	C 	0.1066	0.6602	0.3275	0.083
Mof_H 	H 	0.1865	0.6675	0.3692	-0.002
Mof_N 	N 	0.0006	0.655	0.3899	-0.225
Mof_C 	C 	0.3841	0.7366	0.8106	0.056
Mof_H 	H 	0.307	0.7259	0.7679	0.003
Mof_C 	C 	0.6041	0.7366	0.3117	0.075
Mof_H 	H 	0.6836	0.7291	0.3539	0.001
Mof_C 	C 	0.112	0.656	0.2087	-0.137
Mof_H 	H 	0.1923	0.66	0.1698	0.072
Mof_C 	C 	0.608	0.7405	0.1906	-0.133
Mof_H 	H 	0.6877	0.7355	0.1513	0.072
Mof_C 	C 	0.8833	0.6626	0.9509	-0.116
Mof_H 	H 	0.805	0.6721	0.9891	0.064
Mof_O 	O 	0.5277	0.6523	0.5594	-0.407
Mof_H 	H 	0.537	0.651	0.4831	0.169
Mof_C 	C 	0.9965	0.6459	0.1475	0.054
Mof_O 	O 	0.025	0.7507	0.593	-0.439
Mof_H 	H 	0.077	0.771	0.639	0.209
Mof_C 	C 	0.2916	0.6562	0.576	0.35
Mof_N 	N 	0.0881	0.079	0.4255	-0.228
Mof_C 	C 	0.9914	0.6452	0.0167	0.039
Mof_C 	C 	0.2147	0.0719	0.4029	0.062
Mof_H 	H 	0.2619	0.1024	0.3717	0.018
Mof_C 	C 	0.381	0.7391	0.9322	-0.112
Mof_H 	H 	0.3014	0.7316	0.97	0.064
Mof_C 	C 	0.8875	0.6665	0.831	0.058
Mof_H 	H 	0.8114	0.6785	0.7884	0.003
Mof_C 	C 	0.386	0.7542	0.3103	0.068
Mof_H 	H 	0.3076	0.7596	0.3514	-0.001
Mof_C 	C 	0.8902	0.6428	0.3306	0.07
Mof_H 	H 	0.8128	0.6373	0.3732	-0.001
Mof_C 	C 	0.4929	0.7517	0.129	0.059
Mof_C 	C 	0.7903	0.7459	0.5661	0.344
Mof_N 	N 	0.4135	0.8235	0.5469	-0.233
Mof_C 	C 	0.5994	0.7643	0.8152	0.058
Mof_H 	H 	0.6758	0.7743	0.7746	0.005
Mof_C 	C 	0.6048	0.7667	0.9363	-0.114
Mof_H 	H 	0.683	0.7779	0.9769	0.064
Mof_C 	C 	0.0993	0.6286	0.954	-0.115
Mof_H 	H 	0.1745	0.6141	0.9942	0.067
Mof_C 	C 	0.3814	0.7586	0.1904	-0.132
Mof_H 	H 	0.3007	0.7663	0.1503	0.071
Mof_C 	C 	0.0974	0.6333	0.8333	0.062
Mof_H 	H 	0.1722	0.6214	0.7926	0.011
Mof_C 	C 	0.4141	0.6187	0.5816	-0.077
Mof_H 	H 	0.4051	0.5898	0.5188	0.054
Mof_C 	C 	0.492	0.7523	0.9988	0.036
Mof_C 	C 	0.2829	0.924	0.4946	0.052
Mof_C 	C 	0.8828	0.6377	0.2107	-0.129
Mof_H 	H 	0.8022	0.6287	0.1715	0.07
Mof_C 	C 	0.9127	0.7838	0.5712	-0.047
Mof_H 	H 	0.9043	0.8111	0.6368	0.041
Mof_C 	C 	0.2139	0.9768	0.467	0.047
Mof_C 	C 	0.2795	0.0223	0.4229	-0.115
Mof_H 	H 	0.3698	0.0193	0.4064	0.072
Mof_C 	C 	0.2356	0.8863	0.5756	-0.128
Mof_H 	H 	0.1565	0.8939	0.6144	0.069
Mof_C 	C 	0.4272	0.5895	0.6981	0.094
Mof_C 	C 	0.3996	0.9095	0.4407	-0.123
Mof_H 	H 	0.4366	0.9339	0.3852	0.07
Mof_C 	C 	0.0234	0.0337	0.4625	0.068
Mof_H 	H 	0.9319	0.037	0.4733	0.003
Mof_C 	C 	0.5108	0.586	0.8979	0.033
Mof_H 	H 	0.5676	0.6007	0.9575	0.016
Mof_C 	C 	0.3515	0.5428	0.7218	-0.129
Mof_H 	H 	0.2972	0.5272	0.6613	0.075
Mof_C 	C 	0.0798	0.984	0.4853	-0.122
Mof_H 	H 	0.0292	0.9539	0.5136	0.07
Mof_C 	C 	0.5089	0.6105	0.7863	-0.125
Mof_H 	H 	0.5638	0.6415	0.7713	0.081
Mof_C 	C 	0.9186	0.8161	0.4553	0.076
Mof_C 	C 	0.4601	0.8598	0.4688	0.068
Mof_H 	H 	0.5388	0.8506	0.4311	0.002
Mof_C 	C 	0.9995	0.7987	0.3671	-0.112
Mof_H 	H 	0.0611	0.7698	0.3823	0.077
Mof_C 	C 	0.4328	0.5414	0.9229	-0.105
Mof_H 	H 	0.4317	0.5261	0.9996	0.062
Mof_C 	C 	0.3539	0.5188	0.831	0.031
Mof_H 	H 	0.3021	0.4867	0.8449	0.016
Mof_C 	C 	0.8381	0.861	0.4373	-0.118
Mof_H 	H 	0.7847	0.8737	0.4984	0.072
Mof_C 	C 	0.8342	0.8879	0.3304	0.024
Mof_H 	H 	0.779	0.9193	0.3181	0.017
Mof_C 	C 	0.3046	0.8379	0.5993	0.08
Mof_H 	H 	0.2719	0.8133	0.6567	-0.012
Mof_C 	C 	0.9915	0.8237	0.2544	0.017
Mof_H 	H 	0.0399	0.8096	0.191	0.022
Mof_C 	C 	0.9111	0.8687	0.2416	-0.091
Mof_H 	H 	0.9078	0.8878	0.1687	0.057
Mof_Co	Co	0.00402	0.16051	0.41947	1.161
Mof_Co	Co	0.50662	0.24161	0.43809	1.158
Mof_O 	O 	0.6942	0.2076	0.4384	-0.435
Mof_O 	O 	0.192	0.1941	0.4306	-0.425
Mof_O 	O 	0.815	0.1315	0.4148	-0.432
Mof_O 	O 	0.3175	0.2705	0.4365	-0.43
Mof_N 	N 	0.0043	0.1537	0.2285	-0.222
Mof_N 	N 	0.5073	0.2488	0.2486	-0.222
Mof_N 	N 	0.5031	0.2428	0.6281	-0.232
Mof_C 	C 	0.8934	0.1602	0.6725	0.083
Mof_H 	H 	0.8135	0.1675	0.6308	-0.002
Mof_N 	N 	0.9994	0.155	0.6101	-0.225
Mof_C 	C 	0.6159	0.2366	0.1894	0.056
Mof_H 	H 	0.693	0.2259	0.2321	0.003
Mof_C 	C 	0.3959	0.2366	0.6883	0.076
Mof_H 	H 	0.3164	0.2291	0.6461	0
Mof_C 	C 	0.888	0.156	0.7913	-0.137
Mof_H 	H 	0.8077	0.16	0.8302	0.072
Mof_C 	C 	0.392	0.2405	0.8094	-0.133
Mof_H 	H 	0.3123	0.2355	0.8487	0.072
Mof_C 	C 	0.1167	0.1626	0.0491	-0.115
Mof_H 	H 	0.195	0.1721	0.0109	0.064
Mof_O 	O 	0.4723	0.1523	0.4406	-0.407
Mof_H 	H 	0.463	0.151	0.5169	0.169
Mof_C 	C 	0.0035	0.1459	0.8525	0.054
Mof_O 	O 	0.975	0.2507	0.407	-0.44
Mof_H 	H 	0.923	0.271	0.361	0.209
Mof_C 	C 	0.7084	0.1562	0.424	0.35
Mof_N 	N 	0.9119	0.579	0.5745	-0.229
Mof_C 	C 	0.0086	0.1452	0.9833	0.039
Mof_C 	C 	0.7853	0.5719	0.5971	0.062
Mof_H 	H 	0.7381	0.6024	0.6283	0.018
Mof_C 	C 	0.619	0.2391	0.0678	-0.112
Mof_H 	H 	0.6986	0.2316	0.03	0.064
Mof_C 	C 	0.1125	0.1665	0.169	0.058
Mof_H 	H 	0.1886	0.1785	0.2116	0.003
Mof_C 	C 	0.614	0.2542	0.6897	0.068
Mof_H 	H 	0.6924	0.2596	0.6486	-0.001
Mof_C 	C 	0.1098	0.1428	0.6694	0.069
Mof_H 	H 	0.1872	0.1373	0.6268	-0.001
Mof_C 	C 	0.5071	0.2517	0.871	0.059
Mof_C 	C 	0.2097	0.2459	0.4339	0.344
Mof_N 	N 	0.5865	0.3235	0.4531	-0.233
Mof_C 	C 	0.4006	0.2643	0.1848	0.058
Mof_H 	H 	0.3242	0.2743	0.2254	0.005
Mof_C 	C 	0.3952	0.2667	0.0637	-0.114
Mof_H 	H 	0.317	0.2779	0.0231	0.064
Mof_C 	C 	0.9007	0.1286	0.046	-0.115
Mof_H 	H 	0.8255	0.1141	0.0058	0.067
Mof_C 	C 	0.6186	0.2586	0.8096	-0.132
Mof_H 	H 	0.6993	0.2663	0.8497	0.071
Mof_C 	C 	0.9026	0.1333	0.1667	0.062
Mof_H 	H 	0.8278	0.1214	0.2074	0.011
Mof_C 	C 	0.5859	0.1187	0.4184	-0.078
Mof_H 	H 	0.5949	0.0898	0.4812	0.055
Mof_C 	C 	0.508	0.2523	0.0012	0.036
Mof_C 	C 	0.7171	0.424	0.5054	0.052
Mof_C 	C 	0.1172	0.1377	0.7893	-0.128
Mof_H 	H 	0.1978	0.1287	0.8285	0.069
Mof_C 	C 	0.0873	0.2838	0.4288	-0.047
Mof_H 	H 	0.0957	0.3111	0.3632	0.042
Mof_C 	C 	0.7861	0.4768	0.533	0.048
Mof_C 	C 	0.7205	0.5223	0.5771	-0.116
Mof_H 	H 	0.6302	0.5193	0.5936	0.072
Mof_C 	C 	0.7644	0.3863	0.4244	-0.127
Mof_H 	H 	0.8435	0.3939	0.3856	0.069
Mof_C 	C 	0.5728	0.0895	0.3019	0.096
Mof_C 	C 	0.6004	0.4095	0.5593	-0.123
Mof_H 	H 	0.5634	0.4339	0.6148	0.07
Mof_C 	C 	0.9766	0.5337	0.5375	0.07
Mof_H 	H 	0.0681	0.537	0.5267	0.001
Mof_C 	C 	0.4892	0.086	0.1021	0.035
Mof_H 	H 	0.4324	0.1007	0.0425	0.016
Mof_C 	C 	0.6485	0.0428	0.2782	-0.132
Mof_H 	H 	0.7028	0.0272	0.3387	0.076
Mof_C 	C 	0.9202	0.484	0.5147	-0.124
Mof_H 	H 	0.9708	0.4539	0.4864	0.071
Mof_C 	C 	0.4911	0.1105	0.2137	-0.127
Mof_H 	H 	0.4362	0.1415	0.2287	0.082
Mof_C 	C 	0.0814	0.3161	0.5447	0.076
Mof_C 	C 	0.5399	0.3598	0.5312	0.068
Mof_H 	H 	0.4612	0.3506	0.5689	0.002
Mof_C 	C 	0.0005	0.2987	0.6329	-0.111
Mof_H 	H 	0.9389	0.2698	0.6177	0.077
Mof_C 	C 	0.5672	0.0414	0.0771	-0.108
Mof_H 	H 	0.5683	0.0261	0.0004	0.063
Mof_C 	C 	0.6461	0.0188	0.169	0.036
Mof_H 	H 	0.6979	0.9867	0.1551	0.013
Mof_C 	C 	0.1619	0.361	0.5627	-0.119
Mof_H 	H 	0.2153	0.3737	0.5016	0.072
Mof_C 	C 	0.1658	0.3879	0.6696	0.025
Mof_H 	H 	0.221	0.4193	0.6819	0.017
Mof_C 	C 	0.6954	0.3379	0.4007	0.08
Mof_H 	H 	0.7281	0.3133	0.3433	-0.012
Mof_C 	C 	0.0085	0.3237	0.7456	0.019
Mof_H 	H 	0.9601	0.3096	0.809	0.021
Mof_C 	C 	0.0889	0.3687	0.7584	-0.092
Mof_H 	H 	0.0922	0.3878	0.8313	0.058
_end
