data_functionalizedCrystal
_audit_creation_method	'EQeq! by Chris Wilmer'
_symmetry_space_group_name_H-M	'P1'
_symmetry_Int_Tables_number	1
_symmetry_cell_setting	triclinic
loop_
_symmetry_equiv_pos_as_xyz
  x,y,z
_cell_length_a	29.1934
_cell_length_b	29.1934
_cell_length_c	10.5041
_cell_angle_alpha	90
_cell_angle_beta	90
_cell_angle_gamma	90
loop_
_atom_site_label
_atom_site_type_symbol
_atom_site_fract_x
_atom_site_fract_y
_atom_site_fract_z
_atom_site_charge
Mof_Eu	Eu	0.39184	0.68331	0.21445	2.36
Mof_C 	C 	0.3419	0.6015	0.1883	0.244
Mof_C 	C 	0.3078	0.5666	0.1609	0.067
Mof_C 	C 	0.2639	0.5631	0.2012	-0.084
Mof_H 	H 	0.2478	0.5847	0.2519	0.076
Mof_C 	C 	0.2467	0.5212	0.1535	0.01
Mof_H 	H 	0.2171	0.5086	0.1675	0.027
Mof_C 	C 	0.2812	0.5028	0.0835	-0.04
Mof_C 	C 	0.2826	0.4595	0.0098	0.471
Mof_C 	C 	0.3241	0.7763	0.268	0.471
Mof_C 	C 	0.2828	0.7968	0.3248	-0.034
Mof_C 	C 	0.2705	0.8414	0.3418	-0.022
Mof_H 	H 	0.287	0.8675	0.3135	0.048
Mof_C 	C 	0.491	0.6216	0.2527	0.074
Mof_H 	H 	0.4881	0.6215	0.1626	0.008
Mof_C 	C 	0.5303	0.6013	0.307	-0.09
Mof_H 	H 	0.5542	0.5893	0.2555	0.067
Mof_C 	C 	0.5327	0.5996	0.4405	-0.028
Mof_H 	H 	0.5581	0.5853	0.4804	0.04
Mof_C 	C 	0.4979	0.6189	0.5157	-0.002
Mof_C 	C 	0.4975	0.6174	0.6527	-0.043
Mof_H 	H 	0.5229	0.6046	0.6967	0.054
Mof_C 	C 	0.4629	0.6332	0.7172	-0.059
Mof_H 	H 	0.4635	0.6313	0.8074	0.068
Mof_C 	C 	0.4243	0.6532	0.6575	0.005
Mof_C 	C 	0.3854	0.67	0.722	-0.031
Mof_H 	H 	0.3848	0.6696	0.8124	0.051
Mof_C 	C 	0.3485	0.6867	0.6576	-0.085
Mof_H 	H 	0.3215	0.6962	0.7007	0.068
Mof_C 	C 	0.3521	0.6891	0.5234	0.067
Mof_H 	H 	0.3269	0.7009	0.4768	0.014
Mof_C 	C 	0.4241	0.6571	0.5229	0.03
Mof_C 	C 	0.4616	0.6386	0.451	0.025
Mof_N 	N 	0.4585	0.6404	0.3199	-0.255
Mof_N 	N 	0.3888	0.676	0.4595	-0.246
Mof_O 	O 	0.31741	0.45011	0.9466	-0.53
Mof_O 	O 	0.24614	0.43484	0.0169	-0.607
Mof_O 	O 	0.31876	0.52981	0.0863	-0.163
Mof_O 	O 	0.38152	0.60115	0.1376	-0.392
Mof_O 	O 	0.3292	0.634	0.2635	-0.447
Mof_O 	O 	0.33034	0.73427	0.2733	-0.531
Mof_O 	O 	0.35179	0.80549	0.2209	-0.575
Mof_Eu	Eu	0.89184	0.18331	0.71445	2.359
Mof_C 	C 	0.8419	0.1015	0.6883	0.243
Mof_C 	C 	0.8078	0.0666	0.6609	0.065
Mof_C 	C 	0.7639	0.0631	0.7012	-0.085
Mof_H 	H 	0.7478	0.0847	0.7519	0.076
Mof_C 	C 	0.7467	0.0212	0.6535	0.01
Mof_H 	H 	0.7171	0.0086	0.6675	0.026
Mof_C 	C 	0.7812	0.0028	0.5835	-0.04
Mof_C 	C 	0.7826	0.9595	0.5098	0.47
Mof_C 	C 	0.8241	0.2763	0.768	0.472
Mof_C 	C 	0.7828	0.2968	0.8248	-0.034
Mof_C 	C 	0.7705	0.3414	0.8418	-0.022
Mof_H 	H 	0.787	0.3675	0.8135	0.047
Mof_C 	C 	0.991	0.1216	0.7527	0.073
Mof_H 	H 	0.9881	0.1215	0.6626	0.008
Mof_C 	C 	0.0303	0.1013	0.807	-0.088
Mof_H 	H 	0.0542	0.0893	0.7555	0.066
Mof_C 	C 	0.0327	0.0996	0.9405	-0.031
Mof_H 	H 	0.0581	0.0853	0.9804	0.041
Mof_C 	C 	0.9979	0.1189	0.0157	0.001
Mof_C 	C 	0.9975	0.1174	0.1527	-0.046
Mof_H 	H 	0.0229	0.1046	0.1967	0.055
Mof_C 	C 	0.9629	0.1332	0.2172	-0.056
Mof_H 	H 	0.9635	0.1313	0.3074	0.067
Mof_C 	C 	0.9243	0.1532	0.1575	0.003
Mof_C 	C 	0.8854	0.17	0.222	-0.03
Mof_H 	H 	0.8848	0.1696	0.3124	0.05
Mof_C 	C 	0.8485	0.1867	0.1576	-0.087
Mof_H 	H 	0.8215	0.1962	0.2007	0.068
Mof_C 	C 	0.8521	0.1891	0.0234	0.068
Mof_H 	H 	0.8269	0.2009	0.9768	0.013
Mof_C 	C 	0.9241	0.1571	0.0229	0.033
Mof_C 	C 	0.9616	0.1386	0.951	0.022
Mof_N 	N 	0.9585	0.1404	0.8199	-0.254
Mof_N 	N 	0.8888	0.176	0.9595	-0.247
Mof_O 	O 	0.81741	0.95011	0.4466	-0.528
Mof_O 	O 	0.74614	0.93484	0.5169	-0.61
Mof_O 	O 	0.81876	0.02981	0.5863	-0.163
Mof_O 	O 	0.88152	0.10115	0.6376	-0.392
Mof_O 	O 	0.8292	0.134	0.7635	-0.447
Mof_O 	O 	0.83034	0.23427	0.7733	-0.531
Mof_O 	O 	0.85179	0.30549	0.7209	-0.576
Mof_Eu	Eu	0.60816	0.31669	0.21445	2.359
Mof_C 	C 	0.6581	0.3985	0.1883	0.243
Mof_C 	C 	0.6922	0.4334	0.1609	0.066
Mof_C 	C 	0.7361	0.4369	0.2012	-0.085
Mof_H 	H 	0.7522	0.4153	0.2519	0.076
Mof_C 	C 	0.7533	0.4788	0.1535	0.01
Mof_H 	H 	0.7829	0.4914	0.1675	0.027
Mof_C 	C 	0.7188	0.4972	0.0835	-0.04
Mof_C 	C 	0.7174	0.5405	0.0098	0.471
Mof_C 	C 	0.6759	0.2237	0.268	0.471
Mof_C 	C 	0.7172	0.2032	0.3248	-0.034
Mof_C 	C 	0.7295	0.1586	0.3418	-0.022
Mof_H 	H 	0.713	0.1325	0.3135	0.048
Mof_C 	C 	0.509	0.3784	0.2527	0.074
Mof_H 	H 	0.5119	0.3785	0.1626	0.008
Mof_C 	C 	0.4697	0.3987	0.307	-0.09
Mof_H 	H 	0.4458	0.4107	0.2555	0.067
Mof_C 	C 	0.4673	0.4004	0.4405	-0.028
Mof_H 	H 	0.4419	0.4147	0.4804	0.04
Mof_C 	C 	0.5021	0.3811	0.5157	-0.002
Mof_C 	C 	0.5025	0.3826	0.6527	-0.043
Mof_H 	H 	0.4771	0.3954	0.6967	0.054
Mof_C 	C 	0.5371	0.3668	0.7172	-0.059
Mof_H 	H 	0.5365	0.3687	0.8074	0.068
Mof_C 	C 	0.5757	0.3468	0.6575	0.005
Mof_C 	C 	0.6146	0.33	0.722	-0.031
Mof_H 	H 	0.6152	0.3304	0.8124	0.051
Mof_C 	C 	0.6515	0.3133	0.6576	-0.085
Mof_H 	H 	0.6785	0.3038	0.7007	0.068
Mof_C 	C 	0.6479	0.3109	0.5234	0.067
Mof_H 	H 	0.6731	0.2991	0.4768	0.014
Mof_C 	C 	0.5759	0.3429	0.5229	0.03
Mof_C 	C 	0.5384	0.3614	0.451	0.025
Mof_N 	N 	0.5415	0.3596	0.3199	-0.255
Mof_N 	N 	0.6112	0.324	0.4595	-0.246
Mof_O 	O 	0.68259	0.54989	0.9466	-0.53
Mof_O 	O 	0.75386	0.56516	0.0169	-0.607
Mof_O 	O 	0.68124	0.47019	0.0863	-0.163
Mof_O 	O 	0.61848	0.39885	0.1376	-0.392
Mof_O 	O 	0.6708	0.366	0.2635	-0.447
Mof_O 	O 	0.66966	0.26573	0.2733	-0.531
Mof_O 	O 	0.64821	0.19451	0.2209	-0.575
Mof_Eu	Eu	0.10816	0.81669	0.71445	2.359
Mof_C 	C 	0.1581	0.8985	0.6883	0.243
Mof_C 	C 	0.1922	0.9334	0.6609	0.065
Mof_C 	C 	0.2361	0.9369	0.7012	-0.085
Mof_H 	H 	0.2522	0.9153	0.7519	0.076
Mof_C 	C 	0.2533	0.9788	0.6535	0.01
Mof_H 	H 	0.2829	0.9914	0.6675	0.026
Mof_C 	C 	0.2188	0.9972	0.5835	-0.04
Mof_C 	C 	0.2174	0.0405	0.5098	0.47
Mof_C 	C 	0.1759	0.7237	0.768	0.472
Mof_C 	C 	0.2172	0.7032	0.8248	-0.034
Mof_C 	C 	0.2295	0.6586	0.8418	-0.022
Mof_H 	H 	0.213	0.6325	0.8135	0.047
Mof_C 	C 	0.009	0.8784	0.7527	0.073
Mof_H 	H 	0.0119	0.8785	0.6626	0.008
Mof_C 	C 	0.9697	0.8987	0.807	-0.088
Mof_H 	H 	0.9458	0.9107	0.7555	0.066
Mof_C 	C 	0.9673	0.9004	0.9405	-0.031
Mof_H 	H 	0.9419	0.9147	0.9804	0.041
Mof_C 	C 	0.0021	0.8811	0.0157	0.001
Mof_C 	C 	0.0025	0.8826	0.1527	-0.046
Mof_H 	H 	0.9771	0.8954	0.1967	0.055
Mof_C 	C 	0.0371	0.8668	0.2172	-0.056
Mof_H 	H 	0.0365	0.8687	0.3074	0.067
Mof_C 	C 	0.0757	0.8468	0.1575	0.003
Mof_C 	C 	0.1146	0.83	0.222	-0.03
Mof_H 	H 	0.1152	0.8304	0.3124	0.05
Mof_C 	C 	0.1515	0.8133	0.1576	-0.087
Mof_H 	H 	0.1785	0.8038	0.2007	0.068
Mof_C 	C 	0.1479	0.8109	0.0234	0.068
Mof_H 	H 	0.1731	0.7991	0.9768	0.013
Mof_C 	C 	0.0759	0.8429	0.0229	0.033
Mof_C 	C 	0.0384	0.8614	0.951	0.022
Mof_N 	N 	0.0415	0.8596	0.8199	-0.254
Mof_N 	N 	0.1112	0.824	0.9595	-0.247
Mof_O 	O 	0.18259	0.04989	0.4466	-0.528
Mof_O 	O 	0.25386	0.06516	0.5169	-0.61
Mof_O 	O 	0.18124	0.97019	0.5863	-0.163
Mof_O 	O 	0.11848	0.89885	0.6376	-0.392
Mof_O 	O 	0.1708	0.866	0.7635	-0.447
Mof_O 	O 	0.16966	0.76573	0.7733	-0.531
Mof_O 	O 	0.14821	0.69451	0.7209	-0.576
Mof_Eu	Eu	0.68331	0.60816	0.78555	2.359
Mof_C 	C 	0.6015	0.6581	0.8117	0.243
Mof_C 	C 	0.5666	0.6922	0.8391	0.066
Mof_C 	C 	0.5631	0.7361	0.7988	-0.085
Mof_H 	H 	0.5847	0.7522	0.7481	0.076
Mof_C 	C 	0.5212	0.7533	0.8465	0.01
Mof_H 	H 	0.5086	0.7829	0.8325	0.027
Mof_C 	C 	0.5028	0.7188	0.9165	-0.04
Mof_C 	C 	0.4595	0.7174	0.9902	0.471
Mof_C 	C 	0.7763	0.6759	0.732	0.471
Mof_C 	C 	0.7968	0.7172	0.6752	-0.034
Mof_C 	C 	0.8414	0.7295	0.6582	-0.022
Mof_H 	H 	0.8675	0.713	0.6865	0.048
Mof_C 	C 	0.6216	0.509	0.7473	0.074
Mof_H 	H 	0.6215	0.5119	0.8374	0.008
Mof_C 	C 	0.6013	0.4697	0.693	-0.09
Mof_H 	H 	0.5893	0.4458	0.7445	0.067
Mof_C 	C 	0.5996	0.4673	0.5595	-0.028
Mof_H 	H 	0.5853	0.4419	0.5196	0.04
Mof_C 	C 	0.6189	0.5021	0.4843	-0.002
Mof_C 	C 	0.6174	0.5025	0.3473	-0.043
Mof_H 	H 	0.6046	0.4771	0.3033	0.054
Mof_C 	C 	0.6332	0.5371	0.2828	-0.059
Mof_H 	H 	0.6313	0.5365	0.1926	0.068
Mof_C 	C 	0.6532	0.5757	0.3425	0.005
Mof_C 	C 	0.67	0.6146	0.278	-0.031
Mof_H 	H 	0.6696	0.6152	0.1876	0.051
Mof_C 	C 	0.6867	0.6515	0.3424	-0.085
Mof_H 	H 	0.6962	0.6785	0.2993	0.068
Mof_C 	C 	0.6891	0.6479	0.4766	0.067
Mof_H 	H 	0.7009	0.6731	0.5232	0.014
Mof_C 	C 	0.6571	0.5759	0.4771	0.03
Mof_C 	C 	0.6386	0.5384	0.549	0.025
Mof_N 	N 	0.6404	0.5415	0.6801	-0.255
Mof_N 	N 	0.676	0.6112	0.5405	-0.246
Mof_O 	O 	0.45011	0.68259	0.0534	-0.53
Mof_O 	O 	0.43484	0.75386	0.9831	-0.607
Mof_O 	O 	0.52981	0.68124	0.9137	-0.163
Mof_O 	O 	0.60115	0.61848	0.8624	-0.392
Mof_O 	O 	0.634	0.6708	0.7365	-0.447
Mof_O 	O 	0.73427	0.66966	0.7267	-0.531
Mof_O 	O 	0.80549	0.64821	0.7791	-0.575
Mof_Eu	Eu	0.18331	0.10816	0.28555	2.359
Mof_C 	C 	0.1015	0.1581	0.3117	0.243
Mof_C 	C 	0.0666	0.1922	0.3391	0.065
Mof_C 	C 	0.0631	0.2361	0.2988	-0.085
Mof_H 	H 	0.0847	0.2522	0.2481	0.076
Mof_C 	C 	0.0212	0.2533	0.3465	0.01
Mof_H 	H 	0.0086	0.2829	0.3325	0.026
Mof_C 	C 	0.0028	0.2188	0.4165	-0.04
Mof_C 	C 	0.9595	0.2174	0.4902	0.47
Mof_C 	C 	0.2763	0.1759	0.232	0.472
Mof_C 	C 	0.2968	0.2172	0.1752	-0.034
Mof_C 	C 	0.3414	0.2295	0.1582	-0.022
Mof_H 	H 	0.3675	0.213	0.1865	0.047
Mof_C 	C 	0.1216	0.009	0.2473	0.073
Mof_H 	H 	0.1215	0.0119	0.3374	0.008
Mof_C 	C 	0.1013	0.9697	0.193	-0.088
Mof_H 	H 	0.0893	0.9458	0.2445	0.066
Mof_C 	C 	0.0996	0.9673	0.0595	-0.031
Mof_H 	H 	0.0853	0.9419	0.0196	0.041
Mof_C 	C 	0.1189	0.0021	0.9843	0.001
Mof_C 	C 	0.1174	0.0025	0.8473	-0.046
Mof_H 	H 	0.1046	0.9771	0.8033	0.055
Mof_C 	C 	0.1332	0.0371	0.7828	-0.056
Mof_H 	H 	0.1313	0.0365	0.6926	0.067
Mof_C 	C 	0.1532	0.0757	0.8425	0.003
Mof_C 	C 	0.17	0.1146	0.778	-0.03
Mof_H 	H 	0.1696	0.1152	0.6876	0.05
Mof_C 	C 	0.1867	0.1515	0.8424	-0.087
Mof_H 	H 	0.1962	0.1785	0.7993	0.068
Mof_C 	C 	0.1891	0.1479	0.9766	0.068
Mof_H 	H 	0.2009	0.1731	0.0232	0.013
Mof_C 	C 	0.1571	0.0759	0.9771	0.033
Mof_C 	C 	0.1386	0.0384	0.049	0.022
Mof_N 	N 	0.1404	0.0415	0.1801	-0.254
Mof_N 	N 	0.176	0.1112	0.0405	-0.247
Mof_O 	O 	0.95011	0.18259	0.5534	-0.528
Mof_O 	O 	0.93484	0.25386	0.4831	-0.61
Mof_O 	O 	0.02981	0.18124	0.4137	-0.163
Mof_O 	O 	0.10115	0.11848	0.3624	-0.392
Mof_O 	O 	0.134	0.1708	0.2365	-0.447
Mof_O 	O 	0.23427	0.16966	0.2267	-0.531
Mof_O 	O 	0.30549	0.14821	0.2791	-0.576
Mof_Eu	Eu	0.31669	0.39184	0.78555	2.359
Mof_C 	C 	0.3985	0.3419	0.8117	0.243
Mof_C 	C 	0.4334	0.3078	0.8391	0.066
Mof_C 	C 	0.4369	0.2639	0.7988	-0.085
Mof_H 	H 	0.4153	0.2478	0.7481	0.076
Mof_C 	C 	0.4788	0.2467	0.8465	0.01
Mof_H 	H 	0.4914	0.2171	0.8325	0.027
Mof_C 	C 	0.4972	0.2812	0.9165	-0.04
Mof_C 	C 	0.5405	0.2826	0.9902	0.471
Mof_C 	C 	0.2237	0.3241	0.732	0.471
Mof_C 	C 	0.2032	0.2828	0.6752	-0.034
Mof_C 	C 	0.1586	0.2705	0.6582	-0.022
Mof_H 	H 	0.1325	0.287	0.6865	0.048
Mof_C 	C 	0.3784	0.491	0.7473	0.074
Mof_H 	H 	0.3785	0.4881	0.8374	0.008
Mof_C 	C 	0.3987	0.5303	0.693	-0.09
Mof_H 	H 	0.4107	0.5542	0.7445	0.067
Mof_C 	C 	0.4004	0.5327	0.5595	-0.028
Mof_H 	H 	0.4147	0.5581	0.5196	0.04
Mof_C 	C 	0.3811	0.4979	0.4843	-0.002
Mof_C 	C 	0.3826	0.4975	0.3473	-0.043
Mof_H 	H 	0.3954	0.5229	0.3033	0.054
Mof_C 	C 	0.3668	0.4629	0.2828	-0.059
Mof_H 	H 	0.3687	0.4635	0.1926	0.068
Mof_C 	C 	0.3468	0.4243	0.3425	0.005
Mof_C 	C 	0.33	0.3854	0.278	-0.031
Mof_H 	H 	0.3304	0.3848	0.1876	0.051
Mof_C 	C 	0.3133	0.3485	0.3424	-0.085
Mof_H 	H 	0.3038	0.3215	0.2993	0.068
Mof_C 	C 	0.3109	0.3521	0.4766	0.067
Mof_H 	H 	0.2991	0.3269	0.5232	0.014
Mof_C 	C 	0.3429	0.4241	0.4771	0.03
Mof_C 	C 	0.3614	0.4616	0.549	0.025
Mof_N 	N 	0.3596	0.4585	0.6801	-0.255
Mof_N 	N 	0.324	0.3888	0.5405	-0.246
Mof_O 	O 	0.54989	0.31741	0.0534	-0.53
Mof_O 	O 	0.56516	0.24614	0.9831	-0.607
Mof_O 	O 	0.47019	0.31876	0.9137	-0.163
Mof_O 	O 	0.39885	0.38152	0.8624	-0.392
Mof_O 	O 	0.366	0.3292	0.7365	-0.447
Mof_O 	O 	0.26573	0.33034	0.7267	-0.531
Mof_O 	O 	0.19451	0.35179	0.7791	-0.575
Mof_Eu	Eu	0.81669	0.89184	0.28555	2.359
Mof_C 	C 	0.8985	0.8419	0.3117	0.243
Mof_C 	C 	0.9334	0.8078	0.3391	0.065
Mof_C 	C 	0.9369	0.7639	0.2988	-0.085
Mof_H 	H 	0.9153	0.7478	0.2481	0.076
Mof_C 	C 	0.9788	0.7467	0.3465	0.01
Mof_H 	H 	0.9914	0.7171	0.3325	0.026
Mof_C 	C 	0.9972	0.7812	0.4165	-0.04
Mof_C 	C 	0.0405	0.7826	0.4902	0.47
Mof_C 	C 	0.7237	0.8241	0.232	0.472
Mof_C 	C 	0.7032	0.7828	0.1752	-0.034
Mof_C 	C 	0.6586	0.7705	0.1582	-0.022
Mof_H 	H 	0.6325	0.787	0.1865	0.047
Mof_C 	C 	0.8784	0.991	0.2473	0.073
Mof_H 	H 	0.8785	0.9881	0.3374	0.008
Mof_C 	C 	0.8987	0.0303	0.193	-0.088
Mof_H 	H 	0.9107	0.0542	0.2445	0.066
Mof_C 	C 	0.9004	0.0327	0.0595	-0.031
Mof_H 	H 	0.9147	0.0581	0.0196	0.041
Mof_C 	C 	0.8811	0.9979	0.9843	0.001
Mof_C 	C 	0.8826	0.9975	0.8473	-0.046
Mof_H 	H 	0.8954	0.0229	0.8033	0.055
Mof_C 	C 	0.8668	0.9629	0.7828	-0.056
Mof_H 	H 	0.8687	0.9635	0.6926	0.067
Mof_C 	C 	0.8468	0.9243	0.8425	0.003
Mof_C 	C 	0.83	0.8854	0.778	-0.03
Mof_H 	H 	0.8304	0.8848	0.6876	0.05
Mof_C 	C 	0.8133	0.8485	0.8424	-0.087
Mof_H 	H 	0.8038	0.8215	0.7993	0.068
Mof_C 	C 	0.8109	0.8521	0.9766	0.068
Mof_H 	H 	0.7991	0.8269	0.0232	0.013
Mof_C 	C 	0.8429	0.9241	0.9771	0.033
Mof_C 	C 	0.8614	0.9616	0.049	0.022
Mof_N 	N 	0.8596	0.9585	0.1801	-0.254
Mof_N 	N 	0.824	0.8888	0.0405	-0.247
Mof_O 	O 	0.04989	0.81741	0.5534	-0.528
Mof_O 	O 	0.06516	0.74614	0.4831	-0.61
Mof_O 	O 	0.97019	0.81876	0.4137	-0.163
Mof_O 	O 	0.89885	0.88152	0.3624	-0.392
Mof_O 	O 	0.866	0.8292	0.2365	-0.447
Mof_O 	O 	0.76573	0.83034	0.2267	-0.531
Mof_O 	O 	0.69451	0.85179	0.2791	-0.576
Mof_Eu	Eu	0.10816	0.68331	0.53555	2.36
Mof_C 	C 	0.1581	0.6015	0.5617	0.243
Mof_C 	C 	0.1922	0.5666	0.5891	0.065
Mof_C 	C 	0.2361	0.5631	0.5488	-0.085
Mof_H 	H 	0.2522	0.5847	0.4981	0.076
Mof_C 	C 	0.2533	0.5212	0.5965	0.009
Mof_H 	H 	0.2829	0.5086	0.5825	0.026
Mof_C 	C 	0.2188	0.5028	0.6665	-0.04
Mof_C 	C 	0.2174	0.4595	0.7402	0.469
Mof_C 	C 	0.1759	0.7763	0.482	0.472
Mof_C 	C 	0.2172	0.7968	0.4252	-0.034
Mof_C 	C 	0.2295	0.8414	0.4082	-0.021
Mof_H 	H 	0.213	0.8675	0.4365	0.048
Mof_C 	C 	0.009	0.6216	0.4973	0.073
Mof_H 	H 	0.0119	0.6215	0.5874	0.008
Mof_C 	C 	0.9697	0.6013	0.443	-0.087
Mof_H 	H 	0.9458	0.5893	0.4945	0.066
Mof_C 	C 	0.9673	0.5996	0.3095	-0.032
Mof_H 	H 	0.9419	0.5853	0.2696	0.042
Mof_C 	C 	0.0021	0.6189	0.2343	0.004
Mof_C 	C 	0.0025	0.6174	0.0973	-0.056
Mof_H 	H 	0.9771	0.6046	0.0533	0.06
Mof_C 	C 	0.0371	0.6332	0.0328	-0.039
Mof_H 	H 	0.0365	0.6313	0.9426	0.058
Mof_C 	C 	0.0757	0.6532	0.0925	-0.006
Mof_C 	C 	0.1146	0.67	0.028	-0.017
Mof_H 	H 	0.1152	0.6696	0.9376	0.044
Mof_C 	C 	0.1515	0.6867	0.0924	-0.094
Mof_H 	H 	0.1785	0.6962	0.0493	0.071
Mof_C 	C 	0.1479	0.6891	0.2266	0.071
Mof_H 	H 	0.1731	0.7009	0.2732	0.013
Mof_C 	C 	0.0759	0.6571	0.2271	0.035
Mof_C 	C 	0.0384	0.6386	0.299	0.021
Mof_N 	N 	0.0415	0.6404	0.4301	-0.254
Mof_N 	N 	0.1112	0.676	0.2905	-0.248
Mof_O 	O 	0.18259	0.45011	0.8034	-0.528
Mof_O 	O 	0.25386	0.43484	0.7331	-0.61
Mof_O 	O 	0.18124	0.52981	0.6637	-0.164
Mof_O 	O 	0.11848	0.60115	0.6124	-0.392
Mof_O 	O 	0.1708	0.634	0.4865	-0.447
Mof_O 	O 	0.16966	0.73427	0.4767	-0.531
Mof_O 	O 	0.14821	0.80549	0.5291	-0.576
Mof_Eu	Eu	0.60816	0.18331	0.03555	2.347
Mof_C 	C 	0.6581	0.1015	0.0617	0.237
Mof_C 	C 	0.6922	0.0666	0.0891	0.069
Mof_C 	C 	0.7361	0.0631	0.0488	-0.093
Mof_H 	H 	0.7522	0.0847	0.9981	0.08
Mof_C 	C 	0.7533	0.0212	0.0965	0.013
Mof_H 	H 	0.7829	0.0086	0.0825	0.025
Mof_C 	C 	0.7188	0.0028	0.1665	-0.041
Mof_C 	C 	0.7174	0.9595	0.2402	0.47
Mof_C 	C 	0.6759	0.2763	0.982	0.473
Mof_C 	C 	0.7172	0.2968	0.9252	-0.034
Mof_C 	C 	0.7295	0.3414	0.9082	-0.021
Mof_H 	H 	0.713	0.3675	0.9365	0.047
Mof_C 	C 	0.509	0.1216	0.9973	0.086
Mof_H 	H 	0.5119	0.1215	0.0874	0.001
Mof_C 	C 	0.4697	0.1013	0.943	-0.095
Mof_H 	H 	0.4458	0.0893	0.9945	0.07
Mof_C 	C 	0.4673	0.0996	0.8095	-0.025
Mof_H 	H 	0.4419	0.0853	0.7696	0.039
Mof_C 	C 	0.5021	0.1189	0.7343	-0.004
Mof_C 	C 	0.5025	0.1174	0.5973	-0.042
Mof_H 	H 	0.4771	0.1046	0.5533	0.053
Mof_C 	C 	0.5371	0.1332	0.5328	-0.059
Mof_H 	H 	0.5365	0.1313	0.4426	0.068
Mof_C 	C 	0.5757	0.1532	0.5925	0.006
Mof_C 	C 	0.6146	0.17	0.528	-0.031
Mof_H 	H 	0.6152	0.1696	0.4376	0.05
Mof_C 	C 	0.6515	0.1867	0.5924	-0.085
Mof_H 	H 	0.6785	0.1962	0.5493	0.068
Mof_C 	C 	0.6479	0.1891	0.7266	0.067
Mof_H 	H 	0.6731	0.2009	0.7732	0.014
Mof_C 	C 	0.5759	0.1571	0.7271	0.03
Mof_C 	C 	0.5384	0.1386	0.799	0.026
Mof_N 	N 	0.5415	0.1404	0.9301	-0.256
Mof_N 	N 	0.6112	0.176	0.7905	-0.245
Mof_O 	O 	0.68259	0.95011	0.3034	-0.528
Mof_O 	O 	0.75386	0.93484	0.2331	-0.61
Mof_O 	O 	0.68124	0.02981	0.1637	-0.164
Mof_O 	O 	0.61848	0.10115	0.1124	-0.391
Mof_O 	O 	0.6708	0.134	0.9865	-0.441
Mof_O 	O 	0.66966	0.23427	0.9767	-0.529
Mof_O 	O 	0.64821	0.30549	0.0291	-0.577
Mof_Eu	Eu	0.89184	0.31669	0.53555	2.36
Mof_C 	C 	0.8419	0.3985	0.5617	0.243
Mof_C 	C 	0.8078	0.4334	0.5891	0.065
Mof_C 	C 	0.7639	0.4369	0.5488	-0.085
Mof_H 	H 	0.7478	0.4153	0.4981	0.076
Mof_C 	C 	0.7467	0.4788	0.5965	0.009
Mof_H 	H 	0.7171	0.4914	0.5825	0.026
Mof_C 	C 	0.7812	0.4972	0.6665	-0.04
Mof_C 	C 	0.7826	0.5405	0.7402	0.469
Mof_C 	C 	0.8241	0.2237	0.482	0.472
Mof_C 	C 	0.7828	0.2032	0.4252	-0.034
Mof_C 	C 	0.7705	0.1586	0.4082	-0.021
Mof_H 	H 	0.787	0.1325	0.4365	0.048
Mof_C 	C 	0.991	0.3784	0.4973	0.073
Mof_H 	H 	0.9881	0.3785	0.5874	0.008
Mof_C 	C 	0.0303	0.3987	0.443	-0.087
Mof_H 	H 	0.0542	0.4107	0.4945	0.066
Mof_C 	C 	0.0327	0.4004	0.3095	-0.032
Mof_H 	H 	0.0581	0.4147	0.2696	0.042
Mof_C 	C 	0.9979	0.3811	0.2343	0.004
Mof_C 	C 	0.9975	0.3826	0.0973	-0.056
Mof_H 	H 	0.0229	0.3954	0.0533	0.06
Mof_C 	C 	0.9629	0.3668	0.0328	-0.039
Mof_H 	H 	0.9635	0.3687	0.9426	0.058
Mof_C 	C 	0.9243	0.3468	0.0925	-0.006
Mof_C 	C 	0.8854	0.33	0.028	-0.017
Mof_H 	H 	0.8848	0.3304	0.9376	0.044
Mof_C 	C 	0.8485	0.3133	0.0924	-0.094
Mof_H 	H 	0.8215	0.3038	0.0493	0.071
Mof_C 	C 	0.8521	0.3109	0.2266	0.071
Mof_H 	H 	0.8269	0.2991	0.2732	0.013
Mof_C 	C 	0.9241	0.3429	0.2271	0.035
Mof_C 	C 	0.9616	0.3614	0.299	0.021
Mof_N 	N 	0.9585	0.3596	0.4301	-0.254
Mof_N 	N 	0.8888	0.324	0.2905	-0.248
Mof_O 	O 	0.81741	0.54989	0.8034	-0.528
Mof_O 	O 	0.74614	0.56516	0.7331	-0.61
Mof_O 	O 	0.81876	0.47019	0.6637	-0.164
Mof_O 	O 	0.88152	0.39885	0.6124	-0.392
Mof_O 	O 	0.8292	0.366	0.4865	-0.447
Mof_O 	O 	0.83034	0.26573	0.4767	-0.531
Mof_O 	O 	0.85179	0.19451	0.5291	-0.576
Mof_Eu	Eu	0.39184	0.81669	0.03555	2.347
Mof_C 	C 	0.3419	0.8985	0.0617	0.237
Mof_C 	C 	0.3078	0.9334	0.0891	0.069
Mof_C 	C 	0.2639	0.9369	0.0488	-0.093
Mof_H 	H 	0.2478	0.9153	0.9981	0.08
Mof_C 	C 	0.2467	0.9788	0.0965	0.013
Mof_H 	H 	0.2171	0.9914	0.0825	0.025
Mof_C 	C 	0.2812	0.9972	0.1665	-0.041
Mof_C 	C 	0.2826	0.0405	0.2402	0.47
Mof_C 	C 	0.3241	0.7237	0.982	0.473
Mof_C 	C 	0.2828	0.7032	0.9252	-0.034
Mof_C 	C 	0.2705	0.6586	0.9082	-0.021
Mof_H 	H 	0.287	0.6325	0.9365	0.047
Mof_C 	C 	0.491	0.8784	0.9973	0.086
Mof_H 	H 	0.4881	0.8785	0.0874	0.001
Mof_C 	C 	0.5303	0.8987	0.943	-0.095
Mof_H 	H 	0.5542	0.9107	0.9945	0.07
Mof_C 	C 	0.5327	0.9004	0.8095	-0.025
Mof_H 	H 	0.5581	0.9147	0.7696	0.039
Mof_C 	C 	0.4979	0.8811	0.7343	-0.004
Mof_C 	C 	0.4975	0.8826	0.5973	-0.042
Mof_H 	H 	0.5229	0.8954	0.5533	0.053
Mof_C 	C 	0.4629	0.8668	0.5328	-0.059
Mof_H 	H 	0.4635	0.8687	0.4426	0.068
Mof_C 	C 	0.4243	0.8468	0.5925	0.006
Mof_C 	C 	0.3854	0.83	0.528	-0.031
Mof_H 	H 	0.3848	0.8304	0.4376	0.05
Mof_C 	C 	0.3485	0.8133	0.5924	-0.085
Mof_H 	H 	0.3215	0.8038	0.5493	0.068
Mof_C 	C 	0.3521	0.8109	0.7266	0.067
Mof_H 	H 	0.3269	0.7991	0.7732	0.014
Mof_C 	C 	0.4241	0.8429	0.7271	0.03
Mof_C 	C 	0.4616	0.8614	0.799	0.026
Mof_N 	N 	0.4585	0.8596	0.9301	-0.256
Mof_N 	N 	0.3888	0.824	0.7905	-0.245
Mof_O 	O 	0.31741	0.04989	0.3034	-0.528
Mof_O 	O 	0.24614	0.06516	0.2331	-0.61
Mof_O 	O 	0.31876	0.97019	0.1637	-0.164
Mof_O 	O 	0.38152	0.89885	0.1124	-0.391
Mof_O 	O 	0.3292	0.866	0.9865	-0.441
Mof_O 	O 	0.33034	0.76573	0.9767	-0.529
Mof_O 	O 	0.35179	0.69451	0.0291	-0.577
Mof_Eu	Eu	0.81669	0.60816	0.96445	2.347
Mof_C 	C 	0.8985	0.6581	0.9383	0.237
Mof_C 	C 	0.9334	0.6922	0.9109	0.069
Mof_C 	C 	0.9369	0.7361	0.9512	-0.093
Mof_H 	H 	0.9153	0.7522	0.0019	0.08
Mof_C 	C 	0.9788	0.7533	0.9035	0.013
Mof_H 	H 	0.9914	0.7829	0.9175	0.025
Mof_C 	C 	0.9972	0.7188	0.8335	-0.041
Mof_C 	C 	0.0405	0.7174	0.7598	0.47
Mof_C 	C 	0.7237	0.6759	0.018	0.473
Mof_C 	C 	0.7032	0.7172	0.0748	-0.034
Mof_C 	C 	0.6586	0.7295	0.0918	-0.021
Mof_H 	H 	0.6325	0.713	0.0635	0.047
Mof_C 	C 	0.8784	0.509	0.0027	0.086
Mof_H 	H 	0.8785	0.5119	0.9126	0.001
Mof_C 	C 	0.8987	0.4697	0.057	-0.095
Mof_H 	H 	0.9107	0.4458	0.0055	0.07
Mof_C 	C 	0.9004	0.4673	0.1905	-0.025
Mof_H 	H 	0.9147	0.4419	0.2304	0.039
Mof_C 	C 	0.8811	0.5021	0.2657	-0.004
Mof_C 	C 	0.8826	0.5025	0.4027	-0.042
Mof_H 	H 	0.8954	0.4771	0.4467	0.053
Mof_C 	C 	0.8668	0.5371	0.4672	-0.059
Mof_H 	H 	0.8687	0.5365	0.5574	0.068
Mof_C 	C 	0.8468	0.5757	0.4075	0.006
Mof_C 	C 	0.83	0.6146	0.472	-0.031
Mof_H 	H 	0.8304	0.6152	0.5624	0.05
Mof_C 	C 	0.8133	0.6515	0.4076	-0.085
Mof_H 	H 	0.8038	0.6785	0.4507	0.068
Mof_C 	C 	0.8109	0.6479	0.2734	0.067
Mof_H 	H 	0.7991	0.6731	0.2268	0.014
Mof_C 	C 	0.8429	0.5759	0.2729	0.03
Mof_C 	C 	0.8614	0.5384	0.201	0.026
Mof_N 	N 	0.8596	0.5415	0.0699	-0.256
Mof_N 	N 	0.824	0.6112	0.2095	-0.245
Mof_O 	O 	0.04989	0.68259	0.6966	-0.528
Mof_O 	O 	0.06516	0.75386	0.7669	-0.61
Mof_O 	O 	0.97019	0.68124	0.8363	-0.164
Mof_O 	O 	0.89885	0.61848	0.8876	-0.391
Mof_O 	O 	0.866	0.6708	0.0135	-0.441
Mof_O 	O 	0.76573	0.66966	0.0233	-0.529
Mof_O 	O 	0.69451	0.64821	0.9709	-0.577
Mof_Eu	Eu	0.31669	0.10816	0.46445	2.36
Mof_C 	C 	0.3985	0.1581	0.4383	0.243
Mof_C 	C 	0.4334	0.1922	0.4109	0.065
Mof_C 	C 	0.4369	0.2361	0.4512	-0.085
Mof_H 	H 	0.4153	0.2522	0.5019	0.076
Mof_C 	C 	0.4788	0.2533	0.4035	0.009
Mof_H 	H 	0.4914	0.2829	0.4175	0.026
Mof_C 	C 	0.4972	0.2188	0.3335	-0.04
Mof_C 	C 	0.5405	0.2174	0.2598	0.469
Mof_C 	C 	0.2237	0.1759	0.518	0.472
Mof_C 	C 	0.2032	0.2172	0.5748	-0.034
Mof_C 	C 	0.1586	0.2295	0.5918	-0.021
Mof_H 	H 	0.1325	0.213	0.5635	0.048
Mof_C 	C 	0.3784	0.009	0.5027	0.073
Mof_H 	H 	0.3785	0.0119	0.4126	0.008
Mof_C 	C 	0.3987	0.9697	0.557	-0.087
Mof_H 	H 	0.4107	0.9458	0.5055	0.066
Mof_C 	C 	0.4004	0.9673	0.6905	-0.032
Mof_H 	H 	0.4147	0.9419	0.7304	0.042
Mof_C 	C 	0.3811	0.0021	0.7657	0.004
Mof_C 	C 	0.3826	0.0025	0.9027	-0.056
Mof_H 	H 	0.3954	0.9771	0.9467	0.06
Mof_C 	C 	0.3668	0.0371	0.9672	-0.039
Mof_H 	H 	0.3687	0.0365	0.0574	0.058
Mof_C 	C 	0.3468	0.0757	0.9075	-0.006
Mof_C 	C 	0.33	0.1146	0.972	-0.017
Mof_H 	H 	0.3304	0.1152	0.0624	0.044
Mof_C 	C 	0.3133	0.1515	0.9076	-0.094
Mof_H 	H 	0.3038	0.1785	0.9507	0.071
Mof_C 	C 	0.3109	0.1479	0.7734	0.071
Mof_H 	H 	0.2991	0.1731	0.7268	0.013
Mof_C 	C 	0.3429	0.0759	0.7729	0.035
Mof_C 	C 	0.3614	0.0384	0.701	0.021
Mof_N 	N 	0.3596	0.0415	0.5699	-0.254
Mof_N 	N 	0.324	0.1112	0.7095	-0.248
Mof_O 	O 	0.54989	0.18259	0.1966	-0.528
Mof_O 	O 	0.56516	0.25386	0.2669	-0.61
Mof_O 	O 	0.47019	0.18124	0.3363	-0.164
Mof_O 	O 	0.39885	0.11848	0.3876	-0.392
Mof_O 	O 	0.366	0.1708	0.5135	-0.447
Mof_O 	O 	0.26573	0.16966	0.5233	-0.531
Mof_O 	O 	0.19451	0.14821	0.4709	-0.576
Mof_Eu	Eu	0.18331	0.39184	0.96445	2.347
Mof_C 	C 	0.1015	0.3419	0.9383	0.237
Mof_C 	C 	0.0666	0.3078	0.9109	0.069
Mof_C 	C 	0.0631	0.2639	0.9512	-0.093
Mof_H 	H 	0.0847	0.2478	0.0019	0.08
Mof_C 	C 	0.0212	0.2467	0.9035	0.013
Mof_H 	H 	0.0086	0.2171	0.9175	0.025
Mof_C 	C 	0.0028	0.2812	0.8335	-0.041
Mof_C 	C 	0.9595	0.2826	0.7598	0.47
Mof_C 	C 	0.2763	0.3241	0.018	0.473
Mof_C 	C 	0.2968	0.2828	0.0748	-0.034
Mof_C 	C 	0.3414	0.2705	0.0918	-0.021
Mof_H 	H 	0.3675	0.287	0.0635	0.047
Mof_C 	C 	0.1216	0.491	0.0027	0.086
Mof_H 	H 	0.1215	0.4881	0.9126	0.001
Mof_C 	C 	0.1013	0.5303	0.057	-0.095
Mof_H 	H 	0.0893	0.5542	0.0055	0.07
Mof_C 	C 	0.0996	0.5327	0.1905	-0.025
Mof_H 	H 	0.0853	0.5581	0.2304	0.039
Mof_C 	C 	0.1189	0.4979	0.2657	-0.004
Mof_C 	C 	0.1174	0.4975	0.4027	-0.042
Mof_H 	H 	0.1046	0.5229	0.4467	0.053
Mof_C 	C 	0.1332	0.4629	0.4672	-0.059
Mof_H 	H 	0.1313	0.4635	0.5574	0.068
Mof_C 	C 	0.1532	0.4243	0.4075	0.006
Mof_C 	C 	0.17	0.3854	0.472	-0.031
Mof_H 	H 	0.1696	0.3848	0.5624	0.05
Mof_C 	C 	0.1867	0.3485	0.4076	-0.085
Mof_H 	H 	0.1962	0.3215	0.4507	0.068
Mof_C 	C 	0.1891	0.3521	0.2734	0.067
Mof_H 	H 	0.2009	0.3269	0.2268	0.014
Mof_C 	C 	0.1571	0.4241	0.2729	0.03
Mof_C 	C 	0.1386	0.4616	0.201	0.026
Mof_N 	N 	0.1404	0.4585	0.0699	-0.256
Mof_N 	N 	0.176	0.3888	0.2095	-0.245
Mof_O 	O 	0.95011	0.31741	0.6966	-0.528
Mof_O 	O 	0.93484	0.24614	0.7669	-0.61
Mof_O 	O 	0.02981	0.31876	0.8363	-0.164
Mof_O 	O 	0.10115	0.38152	0.8876	-0.391
Mof_O 	O 	0.134	0.3292	0.0135	-0.441
Mof_O 	O 	0.23427	0.33034	0.0233	-0.529
Mof_O 	O 	0.30549	0.35179	0.9709	-0.577
Mof_Eu	Eu	0.68331	0.89184	0.46445	2.36
Mof_C 	C 	0.6015	0.8419	0.4383	0.243
Mof_C 	C 	0.5666	0.8078	0.4109	0.065
Mof_C 	C 	0.5631	0.7639	0.4512	-0.085
Mof_H 	H 	0.5847	0.7478	0.5019	0.076
Mof_C 	C 	0.5212	0.7467	0.4035	0.009
Mof_H 	H 	0.5086	0.7171	0.4175	0.026
Mof_C 	C 	0.5028	0.7812	0.3335	-0.04
Mof_C 	C 	0.4595	0.7826	0.2598	0.469
Mof_C 	C 	0.7763	0.8241	0.518	0.472
Mof_C 	C 	0.7968	0.7828	0.5748	-0.034
Mof_C 	C 	0.8414	0.7705	0.5918	-0.021
Mof_H 	H 	0.8675	0.787	0.5635	0.048
Mof_C 	C 	0.6216	0.991	0.5027	0.073
Mof_H 	H 	0.6215	0.9881	0.4126	0.008
Mof_C 	C 	0.6013	0.0303	0.557	-0.087
Mof_H 	H 	0.5893	0.0542	0.5055	0.066
Mof_C 	C 	0.5996	0.0327	0.6905	-0.032
Mof_H 	H 	0.5853	0.0581	0.7304	0.042
Mof_C 	C 	0.6189	0.9979	0.7657	0.004
Mof_C 	C 	0.6174	0.9975	0.9027	-0.056
Mof_H 	H 	0.6046	0.0229	0.9467	0.06
Mof_C 	C 	0.6332	0.9629	0.9672	-0.039
Mof_H 	H 	0.6313	0.9635	0.0574	0.058
Mof_C 	C 	0.6532	0.9243	0.9075	-0.006
Mof_C 	C 	0.67	0.8854	0.972	-0.017
Mof_H 	H 	0.6696	0.8848	0.0624	0.044
Mof_C 	C 	0.6867	0.8485	0.9076	-0.094
Mof_H 	H 	0.6962	0.8215	0.9507	0.071
Mof_C 	C 	0.6891	0.8521	0.7734	0.071
Mof_H 	H 	0.7009	0.8269	0.7268	0.013
Mof_C 	C 	0.6571	0.9241	0.7729	0.035
Mof_C 	C 	0.6386	0.9616	0.701	0.021
Mof_N 	N 	0.6404	0.9585	0.5699	-0.254
Mof_N 	N 	0.676	0.8888	0.7095	-0.248
Mof_O 	O 	0.45011	0.81741	0.1966	-0.528
Mof_O 	O 	0.43484	0.74614	0.2669	-0.61
Mof_O 	O 	0.52981	0.81876	0.3363	-0.164
Mof_O 	O 	0.60115	0.88152	0.3876	-0.392
Mof_O 	O 	0.634	0.8292	0.5135	-0.447
Mof_O 	O 	0.73427	0.83034	0.5233	-0.531
Mof_O 	O 	0.80549	0.85179	0.4709	-0.576
Mof_O 	O 	0.25	0.7692	0.375	-0.144
Mof_O 	O 	0.75	0.2692	0.875	-0.144
Mof_O 	O 	0.75	0.2308	0.375	-0.144
Mof_O 	O 	0.25	0.7308	0.875	-0.144
Mof_O 	O 	0.7692	0.75	0.625	-0.144
Mof_O 	O 	0.2308	0.25	0.625	-0.144
Mof_O 	O 	0.7308	0.75	0.125	-0.144
Mof_O 	O 	0.2692	0.25	0.125	-0.144
_end
