# CIF file generated by openbabel 3.1.0, see https://openbabel.org
data_I
_chemical_name_common 'image0'
_cell_length_a 12.877
_cell_length_b 12.17
_cell_length_c 12.159
_cell_angle_alpha 90
_cell_angle_beta 93.99
_cell_angle_gamma 90
_space_group_name_H-M_alt 'P 1'
_space_group_name_Hall 'P 1'
loop_
    _symmetry_equiv_pos_as_xyz
    x,y,z
loop_
    _atom_site_label
    _atom_site_type_symbol
    _atom_site_fract_x
    _atom_site_fract_y
    _atom_site_fract_z
    _atom_site_occupancy
    Fe1      Fe       0.24894    0.04067    0.20273    1.000
    P1       P        0.20235    0.77535    0.17633    1.000
    H1       H        0.20200    0.72100    0.07500    1.000
    P2       P        0.82489    0.97889    0.05590    1.000
    H2       H        0.86500    0.07400    0.02500    1.000
    F1       F        0.09380    0.02830    0.20200    1.000
    O1       O        0.26470    0.88050    0.16600    1.000
    O2       O        0.77380    0.91810    0.95700    1.000
    O3       O        0.25300    0.70120    0.26500    1.000
    O4       O        0.74400    0.00590    0.13730    1.000
    O5       O        0.08770    0.79670    0.18880    1.000
    O6       O        0.91760    0.91330    0.10560    1.000
    Fe2      Fe       0.74894    0.54067    0.20273    1.000
    P3       P        0.70235    0.27535    0.17633    1.000
    H3       H        0.70200    0.22100    0.07500    1.000
    P4       P        0.32489    0.47889    0.05590    1.000
    H4       H        0.36500    0.57400    0.02500    1.000
    F2       F        0.59380    0.52830    0.20200    1.000
    O7       O        0.76470    0.38050    0.16600    1.000
    O8       O        0.27380    0.41810    0.95700    1.000
    O9       O        0.75300    0.20120    0.26500    1.000
    O10      O        0.24400    0.50590    0.13730    1.000
    O11      O        0.58770    0.29670    0.18880    1.000
    O12      O        0.41760    0.41330    0.10560    1.000
    Fe3      Fe       0.75106    0.04067    0.29727    1.000
    P5       P        0.79765    0.77535    0.32367    1.000
    H5       H        0.79800    0.72100    0.42500    1.000
    P6       P        0.17511    0.97889    0.44410    1.000
    H6       H        0.13500    0.07400    0.47500    1.000
    F3       F        0.90620    0.02830    0.29800    1.000
    O13      O        0.73530    0.88050    0.33400    1.000
    O14      O        0.22620    0.91810    0.54300    1.000
    O15      O        0.74700    0.70120    0.23500    1.000
    O16      O        0.25600    0.00590    0.36270    1.000
    O17      O        0.91230    0.79670    0.31120    1.000
    O18      O        0.08240    0.91330    0.39440    1.000
    Fe4      Fe       0.25106    0.54067    0.29727    1.000
    P7       P        0.29765    0.27535    0.32367    1.000
    H7       H        0.29800    0.22100    0.42500    1.000
    P8       P        0.67511    0.47889    0.44410    1.000
    H8       H        0.63500    0.57400    0.47500    1.000
    F4       F        0.40620    0.52830    0.29800    1.000
    O19      O        0.23530    0.38050    0.33400    1.000
    O20      O        0.72620    0.41810    0.54300    1.000
    O21      O        0.24700    0.20120    0.23500    1.000
    O22      O        0.75600    0.50590    0.36270    1.000
    O23      O        0.41230    0.29670    0.31120    1.000
    O24      O        0.58240    0.41330    0.39440    1.000
    Fe5      Fe       0.75106    0.95933    0.79727    1.000
    P9       P        0.79765    0.22465    0.82367    1.000
    H9       H        0.79800    0.27900    0.92500    1.000
    P10      P        0.17511    0.02111    0.94410    1.000
    H10      H        0.13500    0.92600    0.97500    1.000
    F5       F        0.90620    0.97170    0.79800    1.000
    O25      O        0.73530    0.11950    0.83400    1.000
    O26      O        0.22620    0.08190    0.04300    1.000
    O27      O        0.74700    0.29880    0.73500    1.000
    O28      O        0.25600    0.99410    0.86270    1.000
    O29      O        0.91230    0.20330    0.81120    1.000
    O30      O        0.08240    0.08670    0.89440    1.000
    Fe6      Fe       0.25106    0.45933    0.79727    1.000
    P11      P        0.29765    0.72465    0.82367    1.000
    H11      H        0.29800    0.77900    0.92500    1.000
    P12      P        0.67511    0.52111    0.94410    1.000
    H12      H        0.63500    0.42600    0.97500    1.000
    F6       F        0.40620    0.47170    0.79800    1.000
    O31      O        0.23530    0.61950    0.83400    1.000
    O32      O        0.72620    0.58190    0.04300    1.000
    O33      O        0.24700    0.79880    0.73500    1.000
    O34      O        0.75600    0.49410    0.86270    1.000
    O35      O        0.41230    0.70330    0.81120    1.000
    O36      O        0.58240    0.58670    0.89440    1.000
    Fe7      Fe       0.24894    0.95933    0.70273    1.000
    P13      P        0.20235    0.22465    0.67633    1.000
    H13      H        0.20200    0.27900    0.57500    1.000
    P14      P        0.82489    0.02111    0.55590    1.000
    H14      H        0.86500    0.92600    0.52500    1.000
    F7       F        0.09380    0.97170    0.70200    1.000
    O37      O        0.26470    0.11950    0.66600    1.000
    O38      O        0.77380    0.08190    0.45700    1.000
    O39      O        0.25300    0.29880    0.76500    1.000
    O40      O        0.74400    0.99410    0.63730    1.000
    O41      O        0.08770    0.20330    0.68880    1.000
    O42      O        0.91760    0.08670    0.60560    1.000
    Fe8      Fe       0.74894    0.45933    0.70273    1.000
    P15      P        0.70235    0.72465    0.67633    1.000
    H15      H        0.70200    0.77900    0.57500    1.000
    P16      P        0.32489    0.52111    0.55590    1.000
    H16      H        0.36500    0.42600    0.52500    1.000
    F8       F        0.59380    0.47170    0.70200    1.000
    O43      O        0.76470    0.61950    0.66600    1.000
    O44      O        0.27380    0.58190    0.45700    1.000
    O45      O        0.75300    0.79880    0.76500    1.000
    O46      O        0.24400    0.49410    0.63730    1.000
    O47      O        0.58770    0.70330    0.68880    1.000
    O48      O        0.41760    0.58670    0.60560    1.000
    Fe9      Fe       0.00000    0.91157    0.25000    1.000
    Fe10     Fe       0.50000    0.41157    0.25000    1.000
    Fe11     Fe       0.00000    0.08843    0.75000    1.000
    Fe12     Fe       0.50000    0.58843    0.75000    1.000
