data_functionalizedCrystal
_audit_creation_method	'EQeq! by Chris Wilmer'
_symmetry_space_group_name_H-M	'P1'
_symmetry_Int_Tables_number	1
_symmetry_cell_setting	triclinic
loop_
_symmetry_equiv_pos_as_xyz
  x,y,z
_cell_length_a	18.4347
_cell_length_b	18.4347
_cell_length_c	23.832
_cell_angle_alpha	90
_cell_angle_beta	90
_cell_angle_gamma	120
loop_
_atom_site_label
_atom_site_type_symbol
_atom_site_fract_x
_atom_site_fract_y
_atom_site_fract_z
_atom_site_charge
Mof_C 	C 	0.4492	0.0905	0.5426	0.358
Mof_C 	C 	0.422	0.1461	0.5699	-0.093
Mof_C 	C 	0.3786	0.1259	0.61974	0.017
Mof_H 	H 	0.3638	0.075	0.6369	0.052
Mof_O 	O 	0.4809	0.11054	0.49455	-0.403
Mof_O 	O 	0.4379	0.0282	0.57159	-0.399
Mof_C 	C 	0.9095	0.3587	0.5426	0.358
Mof_C 	C 	0.8539	0.2759	0.5699	-0.093
Mof_C 	C 	0.8741	0.2527	0.61974	0.017
Mof_H 	H 	0.925	0.2888	0.6369	0.052
Mof_O 	O 	0.88946	0.37036	0.49455	-0.403
Mof_O 	O 	0.9718	0.4097	0.57159	-0.399
Mof_C 	C 	0.6413	0.5508	0.5426	0.358
Mof_C 	C 	0.7241	0.578	0.5699	-0.094
Mof_C 	C 	0.7473	0.6214	0.61974	0.016
Mof_H 	H 	0.7112	0.6362	0.6369	0.051
Mof_O 	O 	0.62964	0.5191	0.49455	-0.404
Mof_O 	O 	0.5903	0.5621	0.57159	-0.399
Mof_C 	C 	0.5508	0.9095	0.0426	0.358
Mof_C 	C 	0.578	0.8539	0.0699	-0.094
Mof_C 	C 	0.6214	0.8741	0.11974	0.016
Mof_H 	H 	0.6362	0.925	0.1369	0.051
Mof_O 	O 	0.5191	0.88946	0.99455	-0.404
Mof_O 	O 	0.5621	0.9718	0.07159	-0.4
Mof_C 	C 	0.0905	0.6413	0.0426	0.358
Mof_C 	C 	0.1461	0.7241	0.0699	-0.094
Mof_C 	C 	0.1259	0.7473	0.11974	0.017
Mof_H 	H 	0.075	0.7112	0.1369	0.051
Mof_O 	O 	0.11054	0.62964	0.99455	-0.405
Mof_O 	O 	0.0282	0.5903	0.07159	-0.4
Mof_C 	C 	0.3587	0.4492	0.0426	0.358
Mof_C 	C 	0.2759	0.422	0.0699	-0.094
Mof_C 	C 	0.2527	0.3786	0.11974	0.016
Mof_H 	H 	0.2888	0.3638	0.1369	0.051
Mof_O 	O 	0.37036	0.4809	0.99455	-0.404
Mof_O 	O 	0.4097	0.4379	0.07159	-0.4
Mof_C 	C 	0.0905	0.4492	0.4574	0.357
Mof_C 	C 	0.1461	0.422	0.4301	-0.094
Mof_C 	C 	0.1259	0.3786	0.38026	0.016
Mof_H 	H 	0.075	0.3638	0.3631	0.051
Mof_O 	O 	0.11054	0.4809	0.50545	-0.404
Mof_O 	O 	0.0282	0.4379	0.42841	-0.4
Mof_C 	C 	0.3587	0.9095	0.4574	0.357
Mof_C 	C 	0.2759	0.8539	0.4301	-0.094
Mof_C 	C 	0.2527	0.8741	0.38026	0.016
Mof_H 	H 	0.2888	0.925	0.3631	0.051
Mof_O 	O 	0.37036	0.88946	0.50545	-0.404
Mof_O 	O 	0.4097	0.9718	0.42841	-0.4
Mof_C 	C 	0.5508	0.6413	0.4574	0.357
Mof_C 	C 	0.578	0.7241	0.4301	-0.094
Mof_C 	C 	0.6214	0.7473	0.38026	0.016
Mof_H 	H 	0.6362	0.7112	0.3631	0.051
Mof_O 	O 	0.5191	0.62964	0.50545	-0.404
Mof_O 	O 	0.5621	0.5903	0.42841	-0.399
Mof_C 	C 	0.9095	0.5508	0.9574	0.358
Mof_C 	C 	0.8539	0.578	0.9301	-0.094
Mof_C 	C 	0.8741	0.6214	0.88026	0.016
Mof_H 	H 	0.925	0.6362	0.8631	0.051
Mof_O 	O 	0.88946	0.5191	0.00545	-0.404
Mof_O 	O 	0.9718	0.5621	0.92841	-0.4
Mof_C 	C 	0.6413	0.0905	0.9574	0.358
Mof_C 	C 	0.7241	0.1461	0.9301	-0.094
Mof_C 	C 	0.7473	0.1259	0.88026	0.017
Mof_H 	H 	0.7112	0.075	0.8631	0.051
Mof_O 	O 	0.62964	0.11054	0.00545	-0.405
Mof_O 	O 	0.5903	0.0282	0.92841	-0.4
Mof_C 	C 	0.4492	0.3587	0.9574	0.358
Mof_C 	C 	0.422	0.2759	0.9301	-0.094
Mof_C 	C 	0.3786	0.2527	0.88026	0.016
Mof_H 	H 	0.3638	0.2888	0.8631	0.051
Mof_O 	O 	0.4809	0.37036	0.00545	-0.404
Mof_O 	O 	0.4379	0.4097	0.92841	-0.4
Mof_C 	C 	0.5508	0.9095	0.4574	0.357
Mof_C 	C 	0.578	0.8539	0.4301	-0.094
Mof_C 	C 	0.6214	0.8741	0.38026	0.016
Mof_H 	H 	0.6362	0.925	0.3631	0.051
Mof_O 	O 	0.5191	0.88946	0.50545	-0.404
Mof_O 	O 	0.5621	0.9718	0.42841	-0.4
Mof_C 	C 	0.0905	0.6413	0.4574	0.357
Mof_C 	C 	0.1461	0.7241	0.4301	-0.094
Mof_C 	C 	0.1259	0.7473	0.38026	0.016
Mof_H 	H 	0.075	0.7112	0.3631	0.051
Mof_O 	O 	0.11054	0.62964	0.50545	-0.404
Mof_O 	O 	0.0282	0.5903	0.42841	-0.4
Mof_C 	C 	0.3587	0.4492	0.4574	0.357
Mof_C 	C 	0.2759	0.422	0.4301	-0.094
Mof_C 	C 	0.2527	0.3786	0.38026	0.016
Mof_H 	H 	0.2888	0.3638	0.3631	0.051
Mof_O 	O 	0.37036	0.4809	0.50545	-0.404
Mof_O 	O 	0.4097	0.4379	0.42841	-0.399
Mof_C 	C 	0.4492	0.0905	0.9574	0.358
Mof_C 	C 	0.422	0.1461	0.9301	-0.094
Mof_C 	C 	0.3786	0.1259	0.88026	0.016
Mof_H 	H 	0.3638	0.075	0.8631	0.051
Mof_O 	O 	0.4809	0.11054	0.00545	-0.404
Mof_O 	O 	0.4379	0.0282	0.92841	-0.4
Mof_C 	C 	0.9095	0.3587	0.9574	0.358
Mof_C 	C 	0.8539	0.2759	0.9301	-0.094
Mof_C 	C 	0.8741	0.2527	0.88026	0.017
Mof_H 	H 	0.925	0.2888	0.8631	0.051
Mof_O 	O 	0.88946	0.37036	0.00545	-0.405
Mof_O 	O 	0.9718	0.4097	0.92841	-0.4
Mof_C 	C 	0.6413	0.5508	0.9574	0.358
Mof_C 	C 	0.7241	0.578	0.9301	-0.094
Mof_C 	C 	0.7473	0.6214	0.88026	0.016
Mof_H 	H 	0.7112	0.6362	0.8631	0.051
Mof_O 	O 	0.62964	0.5191	0.00545	-0.404
Mof_O 	O 	0.5903	0.5621	0.92841	-0.399
Mof_C 	C 	0.9095	0.5508	0.5426	0.357
Mof_C 	C 	0.8539	0.578	0.5699	-0.094
Mof_C 	C 	0.8741	0.6214	0.61974	0.016
Mof_H 	H 	0.925	0.6362	0.6369	0.051
Mof_O 	O 	0.88946	0.5191	0.49455	-0.404
Mof_O 	O 	0.9718	0.5621	0.57159	-0.4
Mof_C 	C 	0.6413	0.0905	0.5426	0.357
Mof_C 	C 	0.7241	0.1461	0.5699	-0.094
Mof_C 	C 	0.7473	0.1259	0.61974	0.016
Mof_H 	H 	0.7112	0.075	0.6369	0.051
Mof_O 	O 	0.62964	0.11054	0.49455	-0.404
Mof_O 	O 	0.5903	0.0282	0.57159	-0.4
Mof_C 	C 	0.4492	0.3587	0.5426	0.357
Mof_C 	C 	0.422	0.2759	0.5699	-0.094
Mof_C 	C 	0.3786	0.2527	0.61974	0.016
Mof_H 	H 	0.3638	0.2888	0.6369	0.051
Mof_O 	O 	0.4809	0.37036	0.49455	-0.404
Mof_O 	O 	0.4379	0.4097	0.57159	-0.399
Mof_C 	C 	0.0905	0.4492	0.0426	0.358
Mof_C 	C 	0.1461	0.422	0.0699	-0.094
Mof_C 	C 	0.1259	0.3786	0.11974	0.016
Mof_H 	H 	0.075	0.3638	0.1369	0.051
Mof_O 	O 	0.11054	0.4809	0.99455	-0.404
Mof_O 	O 	0.0282	0.4379	0.07159	-0.399
Mof_C 	C 	0.3587	0.9095	0.0426	0.358
Mof_C 	C 	0.2759	0.8539	0.0699	-0.094
Mof_C 	C 	0.2527	0.8741	0.11974	0.017
Mof_H 	H 	0.2888	0.925	0.1369	0.051
Mof_O 	O 	0.37036	0.88946	0.99455	-0.405
Mof_O 	O 	0.4097	0.9718	0.07159	-0.4
Mof_C 	C 	0.5508	0.6413	0.0426	0.358
Mof_C 	C 	0.578	0.7241	0.0699	-0.094
Mof_C 	C 	0.6214	0.7473	0.11974	0.016
Mof_H 	H 	0.6362	0.7112	0.1369	0.051
Mof_O 	O 	0.5191	0.62964	0.99455	-0.404
Mof_O 	O 	0.5621	0.5903	0.07159	-0.399
Mof_C 	C 	0.4426	0.2213	0.5456	0.04
Mof_H 	H 	0.4713	0.23565	0.5116	0.053
Mof_C 	C 	0.3569	0.17845	0.6442	-0.059
Mof_C 	C 	0.3095	0.15475	0.6997	0.166
Mof_C 	C 	0.2256	0.1128	0.7008	-0.384
Mof_H 	H 	0.1975	0.09875	0.6667	0.227
Mof_H 	H 	0.4676	0.2338	0.7813	0.147
Mof_C 	C 	0.7787	0.2213	0.5456	0.04
Mof_H 	H 	0.76435	0.23565	0.5116	0.053
Mof_C 	C 	0.82155	0.17845	0.6442	-0.059
Mof_C 	C 	0.84525	0.15475	0.6997	0.166
Mof_C 	C 	0.8872	0.1128	0.7008	-0.384
Mof_H 	H 	0.90125	0.09875	0.6667	0.227
Mof_H 	H 	0.7662	0.2338	0.7813	0.147
Mof_C 	C 	0.7787	0.5574	0.5456	0.04
Mof_H 	H 	0.76435	0.5287	0.5116	0.053
Mof_C 	C 	0.82155	0.6431	0.6442	-0.059
Mof_C 	C 	0.84525	0.6905	0.6997	0.166
Mof_C 	C 	0.8872	0.7744	0.7008	-0.384
Mof_H 	H 	0.90125	0.8025	0.6667	0.227
Mof_H 	H 	0.7662	0.5324	0.7813	0.147
Mof_C 	C 	0.5574	0.7787	0.0456	0.04
Mof_H 	H 	0.5287	0.76435	0.0116	0.053
Mof_C 	C 	0.6431	0.82155	0.1442	-0.059
Mof_C 	C 	0.6905	0.84525	0.1997	0.166
Mof_C 	C 	0.7744	0.8872	0.2008	-0.384
Mof_H 	H 	0.8025	0.90125	0.1667	0.227
Mof_H 	H 	0.5324	0.7662	0.2813	0.147
Mof_C 	C 	0.2213	0.7787	0.0456	0.04
Mof_H 	H 	0.23565	0.76435	0.0116	0.053
Mof_C 	C 	0.17845	0.82155	0.1442	-0.059
Mof_C 	C 	0.15475	0.84525	0.1997	0.166
Mof_C 	C 	0.1128	0.8872	0.2008	-0.384
Mof_H 	H 	0.09875	0.90125	0.1667	0.227
Mof_H 	H 	0.2338	0.7662	0.2813	0.147
Mof_C 	C 	0.2213	0.4426	0.0456	0.04
Mof_H 	H 	0.23565	0.4713	0.0116	0.053
Mof_C 	C 	0.17845	0.3569	0.1442	-0.059
Mof_C 	C 	0.15475	0.3095	0.1997	0.166
Mof_C 	C 	0.1128	0.2256	0.2008	-0.384
Mof_H 	H 	0.09875	0.1975	0.1667	0.227
Mof_H 	H 	0.2338	0.4676	0.2813	0.147
Mof_C 	C 	0.2213	0.4426	0.4544	0.04
Mof_H 	H 	0.23565	0.4713	0.4884	0.053
Mof_C 	C 	0.17845	0.3569	0.3558	-0.059
Mof_C 	C 	0.15475	0.3095	0.3003	0.166
Mof_C 	C 	0.1128	0.2256	0.2992	-0.384
Mof_H 	H 	0.09875	0.1975	0.3333	0.227
Mof_H 	H 	0.2338	0.4676	0.2187	0.147
Mof_C 	C 	0.2213	0.7787	0.4544	0.04
Mof_H 	H 	0.23565	0.76435	0.4884	0.053
Mof_C 	C 	0.17845	0.82155	0.3558	-0.059
Mof_C 	C 	0.15475	0.84525	0.3003	0.166
Mof_C 	C 	0.1128	0.8872	0.2992	-0.384
Mof_H 	H 	0.09875	0.90125	0.3333	0.227
Mof_H 	H 	0.2338	0.7662	0.2187	0.147
Mof_C 	C 	0.5574	0.7787	0.4544	0.04
Mof_H 	H 	0.5287	0.76435	0.4884	0.053
Mof_C 	C 	0.6431	0.82155	0.3558	-0.059
Mof_C 	C 	0.6905	0.84525	0.3003	0.166
Mof_C 	C 	0.7744	0.8872	0.2992	-0.384
Mof_H 	H 	0.8025	0.90125	0.3333	0.227
Mof_H 	H 	0.5324	0.7662	0.2187	0.147
Mof_C 	C 	0.7787	0.5574	0.9544	0.04
Mof_H 	H 	0.76435	0.5287	0.9884	0.053
Mof_C 	C 	0.82155	0.6431	0.8558	-0.059
Mof_C 	C 	0.84525	0.6905	0.8003	0.166
Mof_C 	C 	0.8872	0.7744	0.7992	-0.384
Mof_H 	H 	0.90125	0.8025	0.8333	0.227
Mof_H 	H 	0.7662	0.5324	0.7187	0.147
Mof_C 	C 	0.7787	0.2213	0.9544	0.04
Mof_H 	H 	0.76435	0.23565	0.9884	0.053
Mof_C 	C 	0.82155	0.17845	0.8558	-0.059
Mof_C 	C 	0.84525	0.15475	0.8003	0.166
Mof_C 	C 	0.8872	0.1128	0.7992	-0.384
Mof_H 	H 	0.90125	0.09875	0.8333	0.227
Mof_H 	H 	0.7662	0.2338	0.7187	0.147
Mof_C 	C 	0.4426	0.2213	0.9544	0.04
Mof_H 	H 	0.4713	0.23565	0.9884	0.053
Mof_C 	C 	0.3569	0.17845	0.8558	-0.059
Mof_C 	C 	0.3095	0.15475	0.8003	0.166
Mof_C 	C 	0.2256	0.1128	0.7992	-0.384
Mof_H 	H 	0.1975	0.09875	0.8333	0.227
Mof_H 	H 	0.4676	0.2338	0.7187	0.147
Mof_C 	C 	0.3539	0.17695	0.75	-0.031
Mof_C 	C 	0.1773	0.08865	0.75	0.634
Mof_N 	N 	0.4407	0.22035	0.75	-0.273
Mof_C 	C 	0.82305	0.17695	0.75	-0.031
Mof_C 	C 	0.91135	0.08865	0.75	0.634
Mof_N 	N 	0.77965	0.22035	0.75	-0.273
Mof_C 	C 	0.82305	0.6461	0.75	-0.031
Mof_C 	C 	0.91135	0.8227	0.75	0.634
Mof_N 	N 	0.77965	0.5593	0.75	-0.273
Mof_C 	C 	0.6461	0.82305	0.25	-0.031
Mof_C 	C 	0.8227	0.91135	0.25	0.634
Mof_N 	N 	0.5593	0.77965	0.25	-0.273
Mof_C 	C 	0.17695	0.82305	0.25	-0.031
Mof_C 	C 	0.08865	0.91135	0.25	0.634
Mof_N 	N 	0.22035	0.77965	0.25	-0.273
Mof_C 	C 	0.17695	0.3539	0.25	-0.031
Mof_C 	C 	0.08865	0.1773	0.25	0.634
Mof_N 	N 	0.22035	0.4407	0.25	-0.273
Mof_Cu	Cu	0.52406	0.04813	0.45448	0.907
Mof_Cu	Cu	0.95187	0.47593	0.45448	0.907
Mof_Cu	Cu	0.52406	0.47594	0.45448	0.908
Mof_Cu	Cu	0.47594	0.95187	0.95448	0.907
Mof_Cu	Cu	0.04813	0.52407	0.95448	0.907
Mof_Cu	Cu	0.47593	0.52406	0.95448	0.908
Mof_Cu	Cu	0.04813	0.52406	0.54552	0.907
Mof_Cu	Cu	0.47593	0.95187	0.54552	0.907
Mof_Cu	Cu	0.47594	0.52407	0.54552	0.908
Mof_Cu	Cu	0.95187	0.47594	0.04552	0.907
Mof_Cu	Cu	0.52406	0.04813	0.04552	0.907
Mof_Cu	Cu	0.52406	0.47593	0.04552	0.908
Mof_F 	F 	0.1019	0.006	0.75	-0.317
Mof_F 	F 	0.994	0.0959	0.75	-0.317
Mof_F 	F 	0.9041	0.8981	0.75	-0.317
Mof_F 	F 	0.8981	0.994	0.25	-0.317
Mof_F 	F 	0.006	0.9041	0.25	-0.317
Mof_F 	F 	0.0959	0.1019	0.25	-0.317
Mof_F 	F 	0.006	0.1019	0.25	-0.317
Mof_F 	F 	0.0959	0.994	0.25	-0.317
Mof_F 	F 	0.8981	0.9041	0.25	-0.317
Mof_F 	F 	0.994	0.8981	0.75	-0.317
Mof_F 	F 	0.9041	0.006	0.75	-0.317
Mof_F 	F 	0.1019	0.0959	0.75	-0.317
_end
