# CIF file generated by openbabel 3.1.0, see https://openbabel.org
data_I
_chemical_name_common 'WOHZAU01_clean_h'
_cell_length_a 9.0757
_cell_length_b 9.0757
_cell_length_c 15.922
_cell_angle_alpha 88.4586
_cell_angle_beta 88.4586
_cell_angle_gamma 84.8901
_space_group_name_H-M_alt 'P 1'
_space_group_name_Hall 'P 1'
loop_
    _symmetry_equiv_pos_as_xyz
    x,y,z
loop_
    _atom_site_label
    _atom_site_type_symbol
    _atom_site_fract_x
    _atom_site_fract_y
    _atom_site_fract_z
    _atom_site_occupancy
    Er1      Er       0.22202    0.02240    0.48921    1.000
    Er2      Er       0.97760    0.77798    0.01079    1.000
    Er3      Er       0.77798    0.97760    0.51079    1.000
    Er4      Er       0.02240    0.22202    0.98921    1.000
    C1       C        0.47250    0.90990    0.62960    1.000
    C2       C        0.22750    0.00390    0.90860    1.000
    C3       C        0.74260    0.77420    0.90240    1.000
    C4       C        0.46700    0.85460    0.72150    1.000
    C5       C        0.35010    0.95490    0.77000    1.000
    C6       C        0.33360    0.90100    0.86110    1.000
    C7       C        0.48440    0.88380    0.90650    1.000
    C8       C        0.59840    0.78560    0.85560    1.000
    C9       C        0.61680    0.84600    0.76450    1.000
    C10      C        0.09010    0.52750    0.87040    1.000
    C11      C        0.99610    0.77250    0.59140    1.000
    C12      C        0.22580    0.25740    0.59760    1.000
    C13      C        0.14540    0.53300    0.77850    1.000
    C14      C        0.04510    0.64990    0.73000    1.000
    C15      C        0.09900    0.66640    0.63890    1.000
    C16      C        0.11620    0.51560    0.59350    1.000
    C17      C        0.21440    0.40160    0.64440    1.000
    C18      C        0.15400    0.38320    0.73550    1.000
    C19      C        0.52750    0.09010    0.37040    1.000
    C20      C        0.77250    0.99610    0.09140    1.000
    C21      C        0.25740    0.22580    0.09760    1.000
    C22      C        0.53300    0.14540    0.27850    1.000
    C23      C        0.64990    0.04510    0.23000    1.000
    C24      C        0.66640    0.09900    0.13890    1.000
    C25      C        0.51560    0.11620    0.09350    1.000
    C26      C        0.40160    0.21440    0.14440    1.000
    C27      C        0.38320    0.15400    0.23550    1.000
    C28      C        0.90990    0.47250    0.12960    1.000
    C29      C        0.00390    0.22750    0.40860    1.000
    C30      C        0.77420    0.74260    0.40240    1.000
    C31      C        0.85460    0.46700    0.22150    1.000
    C32      C        0.95490    0.35010    0.27000    1.000
    C33      C        0.90100    0.33360    0.36110    1.000
    C34      C        0.88380    0.48440    0.40650    1.000
    C35      C        0.78560    0.59840    0.35560    1.000
    C36      C        0.84600    0.61680    0.26450    1.000
    O1       O        0.36070    0.90570    0.58790    1.000
    O2       O        0.58970    0.95890    0.60030    1.000
    O3       O        0.24320    0.14100    0.91170    1.000
    O4       O        0.11570    0.95610    0.95000    1.000
    O5       O        0.82450    0.87630    0.89920    1.000
    O6       O        0.77550    0.66270    0.95120    1.000
    O7       O        0.09430    0.63930    0.91210    1.000
    O8       O        0.04110    0.41030    0.89970    1.000
    O9       O        0.85900    0.75680    0.58830    1.000
    O10      O        0.04390    0.88430    0.55000    1.000
    O11      O        0.12370    0.17550    0.60080    1.000
    O12      O        0.33730    0.22450    0.54880    1.000
    O13      O        0.63930    0.09430    0.41210    1.000
    O14      O        0.41030    0.04110    0.39970    1.000
    O15      O        0.75680    0.85900    0.08830    1.000
    O16      O        0.88430    0.04390    0.05000    1.000
    O17      O        0.17550    0.12370    0.10080    1.000
    O18      O        0.22450    0.33730    0.04880    1.000
    O19      O        0.90570    0.36070    0.08790    1.000
    O20      O        0.95890    0.58970    0.10030    1.000
    O21      O        0.14100    0.24320    0.41170    1.000
    O22      O        0.95610    0.11570    0.45000    1.000
    O23      O        0.87630    0.82450    0.39920    1.000
    O24      O        0.66270    0.77550    0.45120    1.000
    H1       H        0.28927    0.05430    0.73679    1.000
    H2       H        0.49639    0.94086    0.96855    1.000
    H3       H        0.71852    0.88170    0.72856    1.000
    H4       H        0.94570    0.71073    0.76321    1.000
    H5       H        0.05914    0.50361    0.53145    1.000
    H6       H        0.11830    0.28148    0.77144    1.000
    H7       H        0.71073    0.94570    0.26321    1.000
    H8       H        0.50361    0.05914    0.03145    1.000
    H9       H        0.28148    0.11830    0.27144    1.000
    H10      H        0.05430    0.28927    0.23679    1.000
    H11      H        0.94086    0.49639    0.46855    1.000
    H12      H        0.88170    0.71852    0.22856    1.000
