data_functionalizedCrystal
_audit_creation_method	'EQeq! by Chris Wilmer'
_symmetry_space_group_name_H-M	'P1'
_symmetry_Int_Tables_number	1
_symmetry_cell_setting	triclinic
loop_
_symmetry_equiv_pos_as_xyz
  x,y,z
_cell_length_a	24.719
_cell_length_b	24.719
_cell_length_c	24.719
_cell_angle_alpha	90
_cell_angle_beta	90
_cell_angle_gamma	90
loop_
_atom_site_label
_atom_site_type_symbol
_atom_site_fract_x
_atom_site_fract_y
_atom_site_fract_z
_atom_site_charge
Mof_N 	N 	0.4793	0.3136	0.5891	-0.22
Mof_C 	C 	0.4682	0.3424	0.6327	0.026
Mof_N 	N 	0.4793	0.8136	0.0891	-0.22
Mof_C 	C 	0.4682	0.8424	0.1327	0.026
Mof_N 	N 	0.9793	0.3136	0.0891	-0.22
Mof_C 	C 	0.9682	0.3424	0.1327	0.024
Mof_N 	N 	0.9793	0.8136	0.5891	-0.22
Mof_C 	C 	0.9682	0.8424	0.6327	0.025
Mof_N 	N 	0.7707	0.4364	0.0891	-0.22
Mof_C 	C 	0.7818	0.4076	0.1327	0.026
Mof_N 	N 	0.7707	0.9364	0.5891	-0.22
Mof_C 	C 	0.7818	0.9076	0.6327	0.026
Mof_N 	N 	0.2707	0.4364	0.5891	-0.22
Mof_C 	C 	0.2818	0.4076	0.6327	0.026
Mof_N 	N 	0.2707	0.9364	0.0891	-0.22
Mof_C 	C 	0.2818	0.9076	0.1327	0.026
Mof_N 	N 	0.2707	0.8136	0.6609	-0.22
Mof_C 	C 	0.2818	0.8424	0.6173	0.026
Mof_N 	N 	0.2707	0.3136	0.1609	-0.22
Mof_C 	C 	0.2818	0.3424	0.1173	0.026
Mof_N 	N 	0.7707	0.8136	0.1609	-0.22
Mof_C 	C 	0.7818	0.8424	0.1173	0.026
Mof_N 	N 	0.7707	0.3136	0.6609	-0.22
Mof_C 	C 	0.7818	0.3424	0.6173	0.026
Mof_N 	N 	0.9793	0.9364	0.1609	-0.221
Mof_C 	C 	0.9682	0.9076	0.1173	0.024
Mof_N 	N 	0.9793	0.4364	0.6609	-0.22
Mof_C 	C 	0.9682	0.4076	0.6173	0.025
Mof_N 	N 	0.4793	0.9364	0.6609	-0.22
Mof_C 	C 	0.4682	0.9076	0.6173	0.026
Mof_N 	N 	0.4793	0.4364	0.1609	-0.22
Mof_C 	C 	0.4682	0.4076	0.1173	0.026
Mof_N 	N 	0.5891	0.4793	0.3136	-0.22
Mof_C 	C 	0.6327	0.4682	0.3424	0.026
Mof_N 	N 	0.5891	0.9793	0.8136	-0.22
Mof_C 	C 	0.6327	0.9682	0.8424	0.025
Mof_N 	N 	0.0891	0.4793	0.8136	-0.22
Mof_C 	C 	0.1327	0.4682	0.8424	0.026
Mof_N 	N 	0.0891	0.9793	0.3136	-0.22
Mof_C 	C 	0.1327	0.9682	0.3424	0.024
Mof_N 	N 	0.0891	0.7707	0.4364	-0.22
Mof_C 	C 	0.1327	0.7818	0.4076	0.026
Mof_N 	N 	0.0891	0.2707	0.9364	-0.22
Mof_C 	C 	0.1327	0.2818	0.9076	0.026
Mof_N 	N 	0.5891	0.7707	0.9364	-0.22
Mof_C 	C 	0.6327	0.7818	0.9076	0.026
Mof_N 	N 	0.5891	0.2707	0.4364	-0.22
Mof_C 	C 	0.6327	0.2818	0.4076	0.026
Mof_N 	N 	0.6609	0.2707	0.8136	-0.22
Mof_C 	C 	0.6173	0.2818	0.8424	0.026
Mof_N 	N 	0.6609	0.7707	0.3136	-0.22
Mof_C 	C 	0.6173	0.7818	0.3424	0.026
Mof_N 	N 	0.1609	0.2707	0.3136	-0.22
Mof_C 	C 	0.1173	0.2818	0.3424	0.026
Mof_N 	N 	0.1609	0.7707	0.8136	-0.22
Mof_C 	C 	0.1173	0.7818	0.8424	0.026
Mof_N 	N 	0.1609	0.9793	0.9364	-0.221
Mof_C 	C 	0.1173	0.9682	0.9076	0.024
Mof_N 	N 	0.1609	0.4793	0.4364	-0.22
Mof_C 	C 	0.1173	0.4682	0.4076	0.026
Mof_N 	N 	0.6609	0.9793	0.4364	-0.22
Mof_C 	C 	0.6173	0.9682	0.4076	0.025
Mof_N 	N 	0.6609	0.4793	0.9364	-0.22
Mof_C 	C 	0.6173	0.4682	0.9076	0.026
Mof_N 	N 	0.3136	0.5891	0.4793	-0.22
Mof_C 	C 	0.3424	0.6327	0.4682	0.026
Mof_N 	N 	0.3136	0.0891	0.9793	-0.22
Mof_C 	C 	0.3424	0.1327	0.9682	0.024
Mof_N 	N 	0.8136	0.5891	0.9793	-0.221
Mof_C 	C 	0.8424	0.6327	0.9682	0.024
Mof_N 	N 	0.8136	0.0891	0.4793	-0.221
Mof_C 	C 	0.8424	0.1327	0.4682	0.025
Mof_N 	N 	0.4364	0.0891	0.7707	-0.221
Mof_C 	C 	0.4076	0.1327	0.7818	0.025
Mof_N 	N 	0.4364	0.5891	0.2707	-0.221
Mof_C 	C 	0.4076	0.6327	0.2818	0.025
Mof_N 	N 	0.9364	0.0891	0.2707	-0.221
Mof_C 	C 	0.9076	0.1327	0.2818	0.025
Mof_N 	N 	0.9364	0.5891	0.7707	-0.221
Mof_C 	C 	0.9076	0.6327	0.7818	0.025
Mof_N 	N 	0.8136	0.6609	0.2707	-0.221
Mof_C 	C 	0.8424	0.6173	0.2818	0.025
Mof_N 	N 	0.8136	0.1609	0.7707	-0.221
Mof_C 	C 	0.8424	0.1173	0.7818	0.025
Mof_N 	N 	0.3136	0.6609	0.7707	-0.221
Mof_C 	C 	0.3424	0.6173	0.7818	0.025
Mof_N 	N 	0.3136	0.1609	0.2707	-0.221
Mof_C 	C 	0.3424	0.1173	0.2818	0.025
Mof_N 	N 	0.9364	0.1609	0.9793	-0.222
Mof_C 	C 	0.9076	0.1173	0.9682	0.023
Mof_N 	N 	0.9364	0.6609	0.4793	-0.221
Mof_C 	C 	0.9076	0.6173	0.4682	0.025
Mof_N 	N 	0.4364	0.1609	0.4793	-0.221
Mof_C 	C 	0.4076	0.1173	0.4682	0.025
Mof_N 	N 	0.4364	0.6609	0.9793	-0.221
Mof_C 	C 	0.4076	0.6173	0.9682	0.024
Mof_N 	N 	0.0636	0.7293	0.4109	-0.22
Mof_C 	C 	0.0924	0.7182	0.3673	0.025
Mof_N 	N 	0.0636	0.2293	0.9109	-0.221
Mof_C 	C 	0.0924	0.2182	0.8673	0.025
Mof_N 	N 	0.5636	0.7293	0.9109	-0.221
Mof_C 	C 	0.5924	0.7182	0.8673	0.025
Mof_N 	N 	0.5636	0.2293	0.4109	-0.221
Mof_C 	C 	0.5924	0.2182	0.3673	0.025
Mof_N 	N 	0.1864	0.0207	0.9109	-0.22
Mof_C 	C 	0.1576	0.0318	0.8673	0.026
Mof_N 	N 	0.1864	0.5207	0.4109	-0.221
Mof_C 	C 	0.1576	0.5318	0.3673	0.025
Mof_N 	N 	0.6864	0.0207	0.4109	-0.22
Mof_C 	C 	0.6576	0.0318	0.3673	0.026
Mof_N 	N 	0.6864	0.5207	0.9109	-0.221
Mof_C 	C 	0.6576	0.5318	0.8673	0.025
Mof_N 	N 	0.5636	0.5207	0.3391	-0.221
Mof_C 	C 	0.5924	0.5318	0.3827	0.025
Mof_N 	N 	0.5636	0.0207	0.8391	-0.22
Mof_C 	C 	0.5924	0.0318	0.8827	0.025
Mof_N 	N 	0.0636	0.5207	0.8391	-0.221
Mof_C 	C 	0.0924	0.5318	0.8827	0.025
Mof_N 	N 	0.0636	0.0207	0.3391	-0.219
Mof_C 	C 	0.0924	0.0318	0.3827	0.026
Mof_N 	N 	0.6864	0.2293	0.8391	-0.221
Mof_C 	C 	0.6576	0.2182	0.8827	0.025
Mof_N 	N 	0.6864	0.7293	0.3391	-0.221
Mof_C 	C 	0.6576	0.7182	0.3827	0.025
Mof_N 	N 	0.1864	0.2293	0.3391	-0.221
Mof_C 	C 	0.1576	0.2182	0.3827	0.025
Mof_N 	N 	0.1864	0.7293	0.8391	-0.221
Mof_C 	C 	0.1576	0.7182	0.8827	0.025
Mof_N 	N 	0.2293	0.8391	0.6864	-0.221
Mof_C 	C 	0.2182	0.8827	0.6576	0.025
Mof_N 	N 	0.2293	0.3391	0.1864	-0.221
Mof_C 	C 	0.2182	0.3827	0.1576	0.025
Mof_N 	N 	0.7293	0.8391	0.1864	-0.221
Mof_C 	C 	0.7182	0.8827	0.1576	0.025
Mof_N 	N 	0.7293	0.3391	0.6864	-0.221
Mof_C 	C 	0.7182	0.3827	0.6576	0.025
Mof_N 	N 	0.5207	0.3391	0.5636	-0.221
Mof_C 	C 	0.5318	0.3827	0.5924	0.025
Mof_N 	N 	0.5207	0.8391	0.0636	-0.221
Mof_C 	C 	0.5318	0.8827	0.0924	0.025
Mof_N 	N 	0.0207	0.3391	0.0636	-0.219
Mof_C 	C 	0.0318	0.3827	0.0924	0.026
Mof_N 	N 	0.0207	0.8391	0.5636	-0.22
Mof_C 	C 	0.0318	0.8827	0.5924	0.025
Mof_N 	N 	0.0207	0.9109	0.1864	-0.22
Mof_C 	C 	0.0318	0.8673	0.1576	0.026
Mof_N 	N 	0.0207	0.4109	0.6864	-0.22
Mof_C 	C 	0.0318	0.3673	0.6576	0.026
Mof_N 	N 	0.5207	0.9109	0.6864	-0.221
Mof_C 	C 	0.5318	0.8673	0.6576	0.025
Mof_N 	N 	0.5207	0.4109	0.1864	-0.221
Mof_C 	C 	0.5318	0.3673	0.1576	0.025
Mof_N 	N 	0.7293	0.4109	0.0636	-0.22
Mof_C 	C 	0.7182	0.3673	0.0924	0.025
Mof_N 	N 	0.7293	0.9109	0.5636	-0.221
Mof_C 	C 	0.7182	0.8673	0.5924	0.025
Mof_N 	N 	0.2293	0.4109	0.5636	-0.221
Mof_C 	C 	0.2182	0.3673	0.5924	0.025
Mof_N 	N 	0.2293	0.9109	0.0636	-0.221
Mof_C 	C 	0.2182	0.8673	0.0924	0.025
Mof_N 	N 	0.3391	0.5636	0.5207	-0.221
Mof_C 	C 	0.3827	0.5924	0.5318	0.025
Mof_N 	N 	0.3391	0.0636	0.0207	-0.219
Mof_C 	C 	0.3827	0.0924	0.0318	0.026
Mof_N 	N 	0.8391	0.5636	0.0207	-0.22
Mof_C 	C 	0.8827	0.5924	0.0318	0.025
Mof_N 	N 	0.8391	0.0636	0.5207	-0.221
Mof_C 	C 	0.8827	0.0924	0.5318	0.025
Mof_N 	N 	0.8391	0.6864	0.2293	-0.221
Mof_C 	C 	0.8827	0.6576	0.2182	0.025
Mof_N 	N 	0.8391	0.1864	0.7293	-0.221
Mof_C 	C 	0.8827	0.1576	0.7182	0.025
Mof_N 	N 	0.3391	0.6864	0.7293	-0.221
Mof_C 	C 	0.3827	0.6576	0.7182	0.025
Mof_N 	N 	0.3391	0.1864	0.2293	-0.221
Mof_C 	C 	0.3827	0.1576	0.2182	0.025
Mof_N 	N 	0.4109	0.0636	0.7293	-0.22
Mof_C 	C 	0.3673	0.0924	0.7182	0.025
Mof_N 	N 	0.4109	0.5636	0.2293	-0.221
Mof_C 	C 	0.3673	0.5924	0.2182	0.025
Mof_N 	N 	0.9109	0.0636	0.2293	-0.221
Mof_C 	C 	0.8673	0.0924	0.2182	0.025
Mof_N 	N 	0.9109	0.5636	0.7293	-0.221
Mof_C 	C 	0.8673	0.5924	0.7182	0.025
Mof_N 	N 	0.9109	0.1864	0.0207	-0.22
Mof_C 	C 	0.8673	0.1576	0.0318	0.026
Mof_N 	N 	0.9109	0.6864	0.5207	-0.221
Mof_C 	C 	0.8673	0.6576	0.5318	0.025
Mof_N 	N 	0.4109	0.1864	0.5207	-0.221
Mof_C 	C 	0.3673	0.1576	0.5318	0.025
Mof_N 	N 	0.4109	0.6864	0.0207	-0.22
Mof_C 	C 	0.3673	0.6576	0.0318	0.026
Mof_N 	N 	0.5207	0.6864	0.4109	-0.221
Mof_C 	C 	0.5318	0.6576	0.3673	0.025
Mof_N 	N 	0.5207	0.1864	0.9109	-0.221
Mof_C 	C 	0.5318	0.1576	0.8673	0.025
Mof_N 	N 	0.0207	0.6864	0.9109	-0.22
Mof_C 	C 	0.0318	0.6576	0.8673	0.025
Mof_N 	N 	0.0207	0.1864	0.4109	-0.22
Mof_C 	C 	0.0318	0.1576	0.3673	0.026
Mof_N 	N 	0.2293	0.5636	0.9109	-0.221
Mof_C 	C 	0.2182	0.5924	0.8673	0.025
Mof_N 	N 	0.2293	0.0636	0.4109	-0.22
Mof_C 	C 	0.2182	0.0924	0.3673	0.026
Mof_N 	N 	0.7293	0.5636	0.4109	-0.221
Mof_C 	C 	0.7182	0.5924	0.3673	0.025
Mof_N 	N 	0.7293	0.0636	0.9109	-0.221
Mof_C 	C 	0.7182	0.0924	0.8673	0.025
Mof_N 	N 	0.7293	0.1864	0.3391	-0.221
Mof_C 	C 	0.7182	0.1576	0.3827	0.025
Mof_N 	N 	0.7293	0.6864	0.8391	-0.221
Mof_C 	C 	0.7182	0.6576	0.8827	0.025
Mof_N 	N 	0.2293	0.1864	0.8391	-0.221
Mof_C 	C 	0.2182	0.1576	0.8827	0.025
Mof_N 	N 	0.2293	0.6864	0.3391	-0.221
Mof_C 	C 	0.2182	0.6576	0.3827	0.025
Mof_N 	N 	0.0207	0.0636	0.8391	-0.22
Mof_C 	C 	0.0318	0.0924	0.8827	0.025
Mof_N 	N 	0.0207	0.5636	0.3391	-0.22
Mof_C 	C 	0.0318	0.5924	0.3827	0.026
Mof_N 	N 	0.5207	0.0636	0.3391	-0.22
Mof_C 	C 	0.5318	0.0924	0.3827	0.025
Mof_N 	N 	0.5207	0.5636	0.8391	-0.221
Mof_C 	C 	0.5318	0.5924	0.8827	0.025
Mof_N 	N 	0.4109	0.5207	0.6864	-0.221
Mof_C 	C 	0.3673	0.5318	0.6576	0.025
Mof_N 	N 	0.4109	0.0207	0.1864	-0.22
Mof_C 	C 	0.3673	0.0318	0.1576	0.026
Mof_N 	N 	0.9109	0.5207	0.1864	-0.221
Mof_C 	C 	0.8673	0.5318	0.1576	0.025
Mof_N 	N 	0.9109	0.0207	0.6864	-0.22
Mof_C 	C 	0.8673	0.0318	0.6576	0.025
Mof_N 	N 	0.9109	0.2293	0.5636	-0.221
Mof_C 	C 	0.8673	0.2182	0.5924	0.025
Mof_N 	N 	0.9109	0.7293	0.0636	-0.221
Mof_C 	C 	0.8673	0.7182	0.0924	0.025
Mof_N 	N 	0.4109	0.2293	0.0636	-0.22
Mof_C 	C 	0.3673	0.2182	0.0924	0.026
Mof_N 	N 	0.4109	0.7293	0.5636	-0.221
Mof_C 	C 	0.3673	0.7182	0.5924	0.025
Mof_N 	N 	0.3391	0.7293	0.1864	-0.221
Mof_C 	C 	0.3827	0.7182	0.1576	0.025
Mof_N 	N 	0.3391	0.2293	0.6864	-0.221
Mof_C 	C 	0.3827	0.2182	0.6576	0.025
Mof_N 	N 	0.8391	0.7293	0.6864	-0.221
Mof_C 	C 	0.8827	0.7182	0.6576	0.025
Mof_N 	N 	0.8391	0.2293	0.1864	-0.221
Mof_C 	C 	0.8827	0.2182	0.1576	0.025
Mof_N 	N 	0.8391	0.0207	0.0636	-0.22
Mof_C 	C 	0.8827	0.0318	0.0924	0.025
Mof_N 	N 	0.8391	0.5207	0.5636	-0.221
Mof_C 	C 	0.8827	0.5318	0.5924	0.025
Mof_N 	N 	0.3391	0.0207	0.5636	-0.22
Mof_C 	C 	0.3827	0.0318	0.5924	0.026
Mof_N 	N 	0.3391	0.5207	0.0636	-0.22
Mof_C 	C 	0.3827	0.5318	0.0924	0.025
Mof_N 	N 	0.6864	0.4109	0.5207	-0.221
Mof_C 	C 	0.6576	0.3673	0.5318	0.025
Mof_N 	N 	0.6864	0.9109	0.0207	-0.22
Mof_C 	C 	0.6576	0.8673	0.0318	0.025
Mof_N 	N 	0.1864	0.4109	0.0207	-0.22
Mof_C 	C 	0.1576	0.3673	0.0318	0.026
Mof_N 	N 	0.1864	0.9109	0.5207	-0.221
Mof_C 	C 	0.1576	0.8673	0.5318	0.025
Mof_N 	N 	0.5636	0.9109	0.2293	-0.221
Mof_C 	C 	0.5924	0.8673	0.2182	0.025
Mof_N 	N 	0.5636	0.4109	0.7293	-0.221
Mof_C 	C 	0.5924	0.3673	0.7182	0.025
Mof_N 	N 	0.0636	0.9109	0.7293	-0.221
Mof_C 	C 	0.0924	0.8673	0.7182	0.025
Mof_N 	N 	0.0636	0.4109	0.2293	-0.22
Mof_C 	C 	0.0924	0.3673	0.2182	0.026
Mof_N 	N 	0.1864	0.3391	0.7293	-0.221
Mof_C 	C 	0.1576	0.3827	0.7182	0.025
Mof_N 	N 	0.1864	0.8391	0.2293	-0.221
Mof_C 	C 	0.1576	0.8827	0.2182	0.025
Mof_N 	N 	0.6864	0.3391	0.2293	-0.221
Mof_C 	C 	0.6576	0.3827	0.2182	0.025
Mof_N 	N 	0.6864	0.8391	0.7293	-0.221
Mof_C 	C 	0.6576	0.8827	0.7182	0.025
Mof_N 	N 	0.0636	0.8391	0.0207	-0.22
Mof_C 	C 	0.0924	0.8827	0.0318	0.025
Mof_N 	N 	0.0636	0.3391	0.5207	-0.22
Mof_C 	C 	0.0924	0.3827	0.5318	0.025
Mof_N 	N 	0.5636	0.8391	0.5207	-0.221
Mof_C 	C 	0.5924	0.8827	0.5318	0.025
Mof_N 	N 	0.5636	0.3391	0.0207	-0.22
Mof_C 	C 	0.5924	0.3827	0.0318	0.026
Mof_N 	N 	0.9364	0.2707	0.5891	-0.221
Mof_C 	C 	0.9076	0.2818	0.6327	0.025
Mof_N 	N 	0.9364	0.7707	0.0891	-0.221
Mof_C 	C 	0.9076	0.7818	0.1327	0.025
Mof_N 	N 	0.4364	0.2707	0.0891	-0.22
Mof_C 	C 	0.4076	0.2818	0.1327	0.025
Mof_N 	N 	0.4364	0.7707	0.5891	-0.221
Mof_C 	C 	0.4076	0.7818	0.6327	0.025
Mof_N 	N 	0.8136	0.9793	0.0891	-0.221
Mof_C 	C 	0.8424	0.9682	0.1327	0.024
Mof_N 	N 	0.8136	0.4793	0.5891	-0.221
Mof_C 	C 	0.8424	0.4682	0.6327	0.025
Mof_N 	N 	0.3136	0.9793	0.5891	-0.221
Mof_C 	C 	0.3424	0.9682	0.6327	0.024
Mof_N 	N 	0.3136	0.4793	0.0891	-0.22
Mof_C 	C 	0.3424	0.4682	0.1327	0.025
Mof_N 	N 	0.4364	0.4793	0.6609	-0.221
Mof_C 	C 	0.4076	0.4682	0.6173	0.025
Mof_N 	N 	0.4364	0.9793	0.1609	-0.221
Mof_C 	C 	0.4076	0.9682	0.1173	0.023
Mof_N 	N 	0.9364	0.4793	0.1609	-0.221
Mof_C 	C 	0.9076	0.4682	0.1173	0.025
Mof_N 	N 	0.9364	0.9793	0.6609	-0.221
Mof_C 	C 	0.9076	0.9682	0.6173	0.024
Mof_N 	N 	0.3136	0.7707	0.1609	-0.221
Mof_C 	C 	0.3424	0.7818	0.1173	0.025
Mof_N 	N 	0.3136	0.2707	0.6609	-0.221
Mof_C 	C 	0.3424	0.2818	0.6173	0.025
Mof_N 	N 	0.8136	0.7707	0.6609	-0.221
Mof_C 	C 	0.8424	0.7818	0.6173	0.025
Mof_N 	N 	0.8136	0.2707	0.1609	-0.221
Mof_C 	C 	0.8424	0.2818	0.1173	0.025
Mof_N 	N 	0.7707	0.1609	0.3136	-0.221
Mof_C 	C 	0.7818	0.1173	0.3424	0.025
Mof_N 	N 	0.7707	0.6609	0.8136	-0.221
Mof_C 	C 	0.7818	0.6173	0.8424	0.025
Mof_N 	N 	0.2707	0.1609	0.8136	-0.221
Mof_C 	C 	0.2818	0.1173	0.8424	0.025
Mof_N 	N 	0.2707	0.6609	0.3136	-0.221
Mof_C 	C 	0.2818	0.6173	0.3424	0.025
Mof_N 	N 	0.4793	0.6609	0.4364	-0.221
Mof_C 	C 	0.4682	0.6173	0.4076	0.025
Mof_N 	N 	0.4793	0.1609	0.9364	-0.221
Mof_C 	C 	0.4682	0.1173	0.9076	0.025
Mof_N 	N 	0.9793	0.6609	0.9364	-0.221
Mof_C 	C 	0.9682	0.6173	0.9076	0.024
Mof_N 	N 	0.9793	0.1609	0.4364	-0.221
Mof_C 	C 	0.9682	0.1173	0.4076	0.023
Mof_N 	N 	0.9793	0.0891	0.8136	-0.221
Mof_C 	C 	0.9682	0.1327	0.8424	0.024
Mof_N 	N 	0.9793	0.5891	0.3136	-0.221
Mof_C 	C 	0.9682	0.6327	0.3424	0.024
Mof_N 	N 	0.4793	0.0891	0.3136	-0.22
Mof_C 	C 	0.4682	0.1327	0.3424	0.025
Mof_N 	N 	0.4793	0.5891	0.8136	-0.221
Mof_C 	C 	0.4682	0.6327	0.8424	0.025
Mof_N 	N 	0.2707	0.5891	0.9364	-0.221
Mof_C 	C 	0.2818	0.6327	0.9076	0.025
Mof_N 	N 	0.2707	0.0891	0.4364	-0.22
Mof_C 	C 	0.2818	0.1327	0.4076	0.025
Mof_N 	N 	0.7707	0.5891	0.4364	-0.221
Mof_C 	C 	0.7818	0.6327	0.4076	0.025
Mof_N 	N 	0.7707	0.0891	0.9364	-0.221
Mof_C 	C 	0.7818	0.1327	0.9076	0.025
Mof_N 	N 	0.6609	0.4364	0.4793	-0.221
Mof_C 	C 	0.6173	0.4076	0.4682	0.025
Mof_N 	N 	0.6609	0.9364	0.9793	-0.221
Mof_C 	C 	0.6173	0.9076	0.9682	0.024
Mof_N 	N 	0.1609	0.4364	0.9793	-0.221
Mof_C 	C 	0.1173	0.4076	0.9682	0.023
Mof_N 	N 	0.1609	0.9364	0.4793	-0.221
Mof_C 	C 	0.1173	0.9076	0.4682	0.025
Mof_N 	N 	0.1609	0.3136	0.7707	-0.221
Mof_C 	C 	0.1173	0.3424	0.7818	0.025
Mof_N 	N 	0.1609	0.8136	0.2707	-0.221
Mof_C 	C 	0.1173	0.8424	0.2818	0.025
Mof_N 	N 	0.6609	0.3136	0.2707	-0.221
Mof_C 	C 	0.6173	0.3424	0.2818	0.025
Mof_N 	N 	0.6609	0.8136	0.7707	-0.221
Mof_C 	C 	0.6173	0.8424	0.7818	0.025
Mof_N 	N 	0.5891	0.9364	0.2707	-0.221
Mof_C 	C 	0.6327	0.9076	0.2818	0.025
Mof_N 	N 	0.5891	0.4364	0.7707	-0.221
Mof_C 	C 	0.6327	0.4076	0.7818	0.025
Mof_N 	N 	0.0891	0.9364	0.7707	-0.221
Mof_C 	C 	0.1327	0.9076	0.7818	0.025
Mof_N 	N 	0.0891	0.4364	0.2707	-0.22
Mof_C 	C 	0.1327	0.4076	0.2818	0.025
Mof_N 	N 	0.0891	0.8136	0.9793	-0.221
Mof_C 	C 	0.1327	0.8424	0.9682	0.024
Mof_N 	N 	0.0891	0.3136	0.4793	-0.22
Mof_C 	C 	0.1327	0.3424	0.4682	0.025
Mof_N 	N 	0.5891	0.8136	0.4793	-0.221
Mof_C 	C 	0.6327	0.8424	0.4682	0.025
Mof_N 	N 	0.5891	0.3136	0.9793	-0.221
Mof_C 	C 	0.6327	0.3424	0.9682	0.024
Mof_Cu	Cu	0.5	0.4435	0.6935	0.841
Mof_N 	N 	0.5	0.3864	0.6364	-0.244
Mof_Cu	Cu	0.5	0.9435	0.1935	0.84
Mof_N 	N 	0.5	0.8864	0.1364	-0.244
Mof_Cu	Cu	2.39682e-33	0.4435	0.1935	0.841
Mof_N 	N 	5.11418e-34	0.3864	0.1364	-0.242
Mof_Cu	Cu	1.59707e-32	0.9435	0.6935	0.84
Mof_N 	N 	9.07137e-33	0.8864	0.6364	-0.243
Mof_Cu	Cu	0.75	0.3065	0.1935	0.841
Mof_N 	N 	0.75	0.3636	0.1364	-0.244
Mof_Cu	Cu	0.75	0.8065	0.6935	0.841
Mof_N 	N 	0.75	0.8636	0.6364	-0.244
Mof_Cu	Cu	0.25	0.3065	0.6935	0.841
Mof_N 	N 	0.25	0.3636	0.6364	-0.244
Mof_Cu	Cu	0.25	0.8065	0.1935	0.841
Mof_N 	N 	0.25	0.8636	0.1364	-0.244
Mof_Cu	Cu	0.25	0.9435	0.5565	0.84
Mof_N 	N 	0.25	0.8864	0.6136	-0.244
Mof_Cu	Cu	0.25	0.4435	0.0565	0.841
Mof_N 	N 	0.25	0.3864	0.1136	-0.244
Mof_Cu	Cu	0.75	0.9435	0.0565	0.84
Mof_N 	N 	0.75	0.8864	0.1136	-0.244
Mof_Cu	Cu	0.75	0.4435	0.5565	0.841
Mof_N 	N 	0.75	0.3864	0.6136	-0.244
Mof_Cu	Cu	5.22578e-33	0.8065	0.0565	0.841
Mof_N 	N 	-1.24538e-33	0.8636	0.1136	-0.243
Mof_Cu	Cu	-4.59871e-33	0.3065	0.5565	0.841
Mof_N 	N 	2.30063e-33	0.3636	0.6136	-0.243
Mof_Cu	Cu	0.5	0.8065	0.5565	0.841
Mof_N 	N 	0.5	0.8636	0.6136	-0.244
Mof_Cu	Cu	0.5	0.3065	0.0565	0.841
Mof_N 	N 	0.5	0.3636	0.1136	-0.244
Mof_Cu	Cu	0.6935	0.5	0.4435	0.841
Mof_N 	N 	0.6364	0.5	0.3864	-0.244
Mof_Cu	Cu	0.6935	0	0.9435	0.84
Mof_N 	N 	0.6364	0	0.8864	-0.243
Mof_Cu	Cu	0.1935	0.5	0.9435	0.84
Mof_N 	N 	0.1364	0.5	0.8864	-0.244
Mof_Cu	Cu	0.1935	3.34263e-33	0.4435	0.841
Mof_N 	N 	0.1364	0	0.3864	-0.242
Mof_Cu	Cu	0.1935	0.75	0.3065	0.841
Mof_N 	N 	0.1364	0.75	0.3636	-0.244
Mof_Cu	Cu	0.1935	0.25	0.8065	0.841
Mof_N 	N 	0.1364	0.25	0.8636	-0.244
Mof_Cu	Cu	0.6935	0.75	0.8065	0.841
Mof_N 	N 	0.6364	0.75	0.8636	-0.244
Mof_Cu	Cu	0.6935	0.25	0.3065	0.841
Mof_N 	N 	0.6364	0.25	0.3636	-0.244
Mof_Cu	Cu	0.5565	0.25	0.9435	0.84
Mof_N 	N 	0.6136	0.25	0.8864	-0.244
Mof_Cu	Cu	0.5565	0.75	0.4435	0.841
Mof_N 	N 	0.6136	0.75	0.3864	-0.244
Mof_Cu	Cu	0.0565	0.25	0.4435	0.841
Mof_N 	N 	0.1136	0.25	0.3864	-0.244
Mof_Cu	Cu	0.0565	0.75	0.9435	0.84
Mof_N 	N 	0.1136	0.75	0.8864	-0.244
Mof_Cu	Cu	0.0565	6.68525e-33	0.8065	0.841
Mof_N 	N 	0.1136	0	0.8636	-0.243
Mof_Cu	Cu	0.0565	0.5	0.3065	0.841
Mof_N 	N 	0.1136	0.5	0.3636	-0.244
Mof_Cu	Cu	0.5565	0	0.3065	0.841
Mof_N 	N 	0.6136	0	0.3636	-0.243
Mof_Cu	Cu	0.5565	0.5	0.8065	0.841
Mof_N 	N 	0.6136	0.5	0.8636	-0.244
Mof_Cu	Cu	0.4435	0.6935	0.5	0.841
Mof_N 	N 	0.3864	0.6364	0.5	-0.244
Mof_Cu	Cu	0.4435	0.1935	-0	0.841
Mof_N 	N 	0.3864	0.1364	-0	-0.242
Mof_Cu	Cu	0.9435	0.6935	-0	0.84
Mof_N 	N 	0.8864	0.6364	-0	-0.243
Mof_Cu	Cu	0.9435	0.1935	0.5	0.84
Mof_N 	N 	0.8864	0.1364	0.5	-0.244
Mof_Cu	Cu	0.3065	0.1935	0.75	0.841
Mof_N 	N 	0.3636	0.1364	0.75	-0.244
Mof_Cu	Cu	0.3065	0.6935	0.25	0.841
Mof_N 	N 	0.3636	0.6364	0.25	-0.244
Mof_Cu	Cu	0.8065	0.1935	0.25	0.841
Mof_N 	N 	0.8636	0.1364	0.25	-0.244
Mof_Cu	Cu	0.8065	0.6935	0.75	0.841
Mof_N 	N 	0.8636	0.6364	0.75	-0.244
Mof_Cu	Cu	0.9435	0.5565	0.25	0.84
Mof_N 	N 	0.8864	0.6136	0.25	-0.244
Mof_Cu	Cu	0.9435	0.0565	0.75	0.84
Mof_N 	N 	0.8864	0.1136	0.75	-0.244
Mof_Cu	Cu	0.4435	0.5565	0.75	0.841
Mof_N 	N 	0.3864	0.6136	0.75	-0.244
Mof_Cu	Cu	0.4435	0.0565	0.25	0.841
Mof_N 	N 	0.3864	0.1136	0.25	-0.244
Mof_Cu	Cu	0.8065	0.0565	-0	0.841
Mof_N 	N 	0.8636	0.1136	-0	-0.243
Mof_Cu	Cu	0.8065	0.5565	0.5	0.841
Mof_N 	N 	0.8636	0.6136	0.5	-0.244
Mof_Cu	Cu	0.3065	0.0565	0.5	0.841
Mof_N 	N 	0.3636	0.1136	0.5	-0.244
Mof_Cu	Cu	0.3065	0.5565	-0	0.841
Mof_N 	N 	0.3636	0.6136	-0	-0.243
Mof_Cu	Cu	0.5	0.5565	0.3065	0.841
Mof_N 	N 	0.5	0.6136	0.3636	-0.244
Mof_Cu	Cu	0.5	0.0565	0.8065	0.841
Mof_N 	N 	0.5	0.1136	0.8636	-0.244
Mof_Cu	Cu	9.70914e-33	0.5565	0.8065	0.841
Mof_N 	N 	3.23798e-33	0.6136	0.8636	-0.243
Mof_Cu	Cu	1.14919e-33	0.0565	0.3065	0.842
Mof_N 	N 	1.36328e-33	0.1136	0.3636	-0.242
Mof_Cu	Cu	0.25	0.6935	0.8065	0.841
Mof_N 	N 	0.25	0.6364	0.8636	-0.244
Mof_Cu	Cu	0.25	0.1935	0.3065	0.841
Mof_N 	N 	0.25	0.1364	0.3636	-0.244
Mof_Cu	Cu	0.75	0.6935	0.3065	0.841
Mof_N 	N 	0.75	0.6364	0.3636	-0.244
Mof_Cu	Cu	0.75	0.1935	0.8065	0.841
Mof_N 	N 	0.75	0.1364	0.8636	-0.244
Mof_Cu	Cu	0.75	0.0565	0.4435	0.841
Mof_N 	N 	0.75	0.1136	0.3864	-0.244
Mof_Cu	Cu	0.75	0.5565	0.9435	0.84
Mof_N 	N 	0.75	0.6136	0.8864	-0.244
Mof_Cu	Cu	0.25	0.0565	0.9435	0.84
Mof_N 	N 	0.25	0.1136	0.8864	-0.244
Mof_Cu	Cu	0.25	0.5565	0.4435	0.841
Mof_N 	N 	0.25	0.6136	0.3864	-0.244
Mof_Cu	Cu	3.53756e-33	0.1935	0.9435	0.84
Mof_N 	N 	1.00087e-32	0.1364	0.8864	-0.243
Mof_Cu	Cu	1.8376e-32	0.6935	0.4435	0.841
Mof_N 	N 	8.13402e-33	0.6364	0.3864	-0.243
Mof_Cu	Cu	0.5	0.1935	0.4435	0.841
Mof_N 	N 	0.5	0.1364	0.3864	-0.244
Mof_Cu	Cu	0.5	0.6935	0.9435	0.84
Mof_N 	N 	0.5	0.6364	0.8864	-0.244
Mof_Cu	Cu	0.3065	0.5	0.5565	0.841
Mof_N 	N 	0.3636	0.5	0.6136	-0.244
Mof_Cu	Cu	0.3065	4.17828e-34	0.0565	0.842
Mof_N 	N 	0.3636	0	0.1136	-0.242
Mof_Cu	Cu	0.8065	0.5	0.0565	0.841
Mof_N 	N 	0.8636	0.5	0.1136	-0.244
Mof_Cu	Cu	0.8065	0	0.5565	0.841
Mof_N 	N 	0.8636	6.68525e-33	0.6136	-0.243
Mof_Cu	Cu	0.8065	0.25	0.6935	0.841
Mof_N 	N 	0.8636	0.25	0.6364	-0.244
Mof_Cu	Cu	0.8065	0.75	0.1935	0.841
Mof_N 	N 	0.8636	0.75	0.1364	-0.244
Mof_Cu	Cu	0.3065	0.25	0.1935	0.841
Mof_N 	N 	0.3636	0.25	0.1364	-0.244
Mof_Cu	Cu	0.3065	0.75	0.6935	0.841
Mof_N 	N 	0.3636	0.75	0.6364	-0.244
Mof_Cu	Cu	0.4435	0.75	0.0565	0.841
Mof_N 	N 	0.3864	0.75	0.1136	-0.244
Mof_Cu	Cu	0.4435	0.25	0.5565	0.841
Mof_N 	N 	0.3864	0.25	0.6136	-0.244
Mof_Cu	Cu	0.9435	0.75	0.5565	0.84
Mof_N 	N 	0.8864	0.75	0.6136	-0.244
Mof_Cu	Cu	0.9435	0.25	0.0565	0.84
Mof_N 	N 	0.8864	0.25	0.1136	-0.244
Mof_Cu	Cu	0.9435	0	0.1935	0.84
Mof_N 	N 	0.8864	1.67131e-33	0.1364	-0.243
Mof_Cu	Cu	0.9435	0.5	0.6935	0.84
Mof_N 	N 	0.8864	0.5	0.6364	-0.244
Mof_Cu	Cu	0.4435	6.68525e-33	0.6935	0.841
Mof_N 	N 	0.3864	6.68525e-33	0.6364	-0.243
Mof_Cu	Cu	0.4435	0.5	0.1935	0.841
Mof_N 	N 	0.3864	0.5	0.1364	-0.244
Mof_Cu	Cu	0.5565	0.3065	0.5	0.841
Mof_N 	N 	0.6136	0.3636	0.5	-0.244
Mof_Cu	Cu	0.5565	0.8065	-0	0.841
Mof_N 	N 	0.6136	0.8636	-0	-0.243
Mof_Cu	Cu	0.0565	0.3065	-0	0.842
Mof_N 	N 	0.1136	0.3636	-0	-0.242
Mof_Cu	Cu	0.0565	0.8065	0.5	0.841
Mof_N 	N 	0.1136	0.8636	0.5	-0.244
Mof_Cu	Cu	0.6935	0.8065	0.25	0.841
Mof_N 	N 	0.6364	0.8636	0.25	-0.244
Mof_Cu	Cu	0.6935	0.3065	0.75	0.841
Mof_N 	N 	0.6364	0.3636	0.75	-0.244
Mof_Cu	Cu	0.1935	0.8065	0.75	0.841
Mof_N 	N 	0.1364	0.8636	0.75	-0.244
Mof_Cu	Cu	0.1935	0.3065	0.25	0.841
Mof_N 	N 	0.1364	0.3636	0.25	-0.244
Mof_Cu	Cu	0.0565	0.4435	0.75	0.841
Mof_N 	N 	0.1136	0.3864	0.75	-0.244
Mof_Cu	Cu	0.0565	0.9435	0.25	0.84
Mof_N 	N 	0.1136	0.8864	0.25	-0.244
Mof_Cu	Cu	0.5565	0.4435	0.25	0.841
Mof_N 	N 	0.6136	0.3864	0.25	-0.244
Mof_Cu	Cu	0.5565	0.9435	0.75	0.84
Mof_N 	N 	0.6136	0.8864	0.75	-0.244
Mof_Cu	Cu	0.1935	0.9435	-0	0.84
Mof_N 	N 	0.1364	0.8864	-0	-0.243
Mof_Cu	Cu	0.1935	0.4435	0.5	0.841
Mof_N 	N 	0.1364	0.3864	0.5	-0.244
Mof_Cu	Cu	0.6935	0.9435	0.5	0.84
Mof_N 	N 	0.6364	0.8864	0.5	-0.244
Mof_Cu	Cu	0.6935	0.4435	-0	0.841
Mof_N 	N 	0.6364	0.3864	-0	-0.243
Mof_O 	O 	0.5	0.5	0.75	-0.619
Mof_O 	O 	0.5	0	0.25	-0.618
Mof_O 	O 	0.75	0.25	0.25	-0.619
Mof_O 	O 	0.75	0.75	0.75	-0.619
Mof_O 	O 	0.25	0	0.5	-0.618
Mof_O 	O 	0.25	0.5	-0	-0.618
Mof_O 	O 	-0	0.75	-0	-0.617
Mof_O 	O 	8.55995e-33	0.25	0.5	-0.618
Mof_O 	O 	0.75	0.5	0.5	-0.619
Mof_O 	O 	0.25	0.75	0.25	-0.619
Mof_O 	O 	0.5	0.25	-0	-0.618
Mof_O 	O 	2.81205e-33	0	0.75	-0.617
Mof_O 	O 	0.5	0.75	0.5	-0.619
Mof_O 	O 	0.25	0.25	0.75	-0.619
Mof_O 	O 	4.27998e-33	0.5	0.25	-0.618
Mof_O 	O 	0.75	0	-0	-0.617
Mof_O 	O 	0.5	0.5	0.25	-0.619
Mof_O 	O 	0.5	0	0.75	-0.618
Mof_O 	O 	0.25	0.75	0.75	-0.619
Mof_O 	O 	0.25	0.25	0.25	-0.619
Mof_O 	O 	0.75	0	0.5	-0.618
Mof_O 	O 	0.75	0.5	-0	-0.618
Mof_O 	O 	-0	0.25	-0	-0.616
Mof_O 	O 	8.55995e-33	0.75	0.5	-0.618
Mof_O 	O 	0.25	0.5	0.5	-0.619
Mof_O 	O 	0.75	0.25	0.75	-0.619
Mof_O 	O 	0.5	0.75	-0	-0.618
Mof_O 	O 	9.3735e-34	0	0.25	-0.616
Mof_O 	O 	0.5	0.25	0.5	-0.619
Mof_O 	O 	0.75	0.75	0.25	-0.619
Mof_O 	O 	9.4973e-33	0.5	0.75	-0.618
Mof_O 	O 	0.25	0	-0	-0.616
_end
