# CIF file generated by openbabel 3.1.0, see https://openbabel.org
data_I
_chemical_name_common 'LIXDAZ_clean'
_cell_length_a 9.1754
_cell_length_b 15.5258
_cell_length_c 16.3
_cell_angle_alpha 111.89
_cell_angle_beta 90
_cell_angle_gamma 107.187
_space_group_name_H-M_alt 'P 1'
_space_group_name_Hall 'P 1'
loop_
    _symmetry_equiv_pos_as_xyz
    x,y,z
loop_
    _atom_site_label
    _atom_site_type_symbol
    _atom_site_fract_x
    _atom_site_fract_y
    _atom_site_fract_z
    _atom_site_occupancy
    Tb1      Tb       0.16670    0.00516    0.59193    1.000
    Tb2      Tb       0.16154    0.99484    0.90807    1.000
    Tb3      Tb       0.83846    0.00516    0.09193    1.000
    Tb4      Tb       0.83330    0.99484    0.40807    1.000
    H1       H        0.83950    0.75820    0.28340    1.000
    H2       H        0.08130    0.24180    0.21660    1.000
    H3       H        0.77760    0.23260    0.47220    1.000
    H4       H        0.50320    0.72240    0.86370    1.000
    H5       H        0.61920    0.38740    0.05460    1.000
    H6       H        0.83190    0.28120    0.10140    1.000
    H7       H        0.15560    0.54160    0.65670    1.000
    H8       H        0.44930    0.28120    0.60140    1.000
    H9       H        0.84110    0.59440    0.68710    1.000
    H10      H        0.16810    0.71880    0.89860    1.000
    H11      H        0.22240    0.76740    0.52780    1.000
    H12      H        0.15720    0.69820    0.74130    1.000
    H13      H        0.75330    0.59440    0.18710    1.000
    H14      H        0.87130    0.44280    0.72770    1.000
    H15      H        0.84440    0.45840    0.34330    1.000
    H16      H        0.49680    0.27760    0.13630    1.000
    H17      H        0.38080    0.61260    0.94540    1.000
    H18      H        0.45500    0.23260    0.97220    1.000
    H19      H        0.38600    0.54160    0.15670    1.000
    H20      H        0.42850    0.55720    0.77230    1.000
    H21      H        0.21920    0.72240    0.36370    1.000
    H22      H        0.23180    0.61260    0.44540    1.000
    H23      H        0.45900    0.30180    0.75870    1.000
    H24      H        0.54100    0.69820    0.24130    1.000
    H25      H        0.91870    0.75820    0.78340    1.000
    H26      H        0.09490    0.53640    0.09540    1.000
    H27      H        0.78080    0.27760    0.63630    1.000
    H28      H        0.24670    0.40560    0.81290    1.000
    H29      H        0.16050    0.24180    0.71660    1.000
    H30      H        0.44150    0.53640    0.59540    1.000
    H31      H        0.90510    0.46360    0.90460    1.000
    H32      H        0.84280    0.30180    0.25870    1.000
    H33      H        0.55070    0.71880    0.39860    1.000
    H34      H        0.76820    0.38740    0.55460    1.000
    H35      H        0.12870    0.55720    0.27230    1.000
    H36      H        0.57150    0.44280    0.22770    1.000
    H37      H        0.54500    0.76740    0.02780    1.000
    H38      H        0.55850    0.46360    0.40460    1.000
    H39      H        0.15890    0.40560    0.31290    1.000
    H40      H        0.61400    0.45840    0.84330    1.000
    C1       C        0.19050    0.75020    0.64310    1.000
    C2       C        0.19580    0.56260    0.54290    1.000
    C3       C        0.58570    0.37020    0.99510    1.000
    C4       C        0.51000    0.68080    0.18140    1.000
    C5       C        0.52700    0.59800    0.77440    1.000
    C6       C        0.71840    0.75700    0.83320    1.000
    C7       C        0.73100    0.73140    0.47900    1.000
    C8       C        0.12410    0.69660    0.32910    1.000
    C9       C        0.17140    0.58760    0.63130    1.000
    C10      C        0.08930    0.86080    0.39950    1.000
    C11      C        0.95470    0.41660    0.11130    1.000
    C12      C        0.15830    0.42060    0.02110    1.000
    C13      C        0.87590    0.30340    0.67090    1.000
    C14      C        0.78880    0.27720    0.44540    1.000
    C15      C        0.82920    0.31920    0.31860    1.000
    C16      C        0.03860    0.75700    0.33320    1.000
    C17      C        0.04530    0.58340    0.88870    1.000
    C18      C        0.28160    0.24300    0.16680    1.000
    C19      C        0.91070    0.13920    0.60050    1.000
    C20      C        0.57250    0.69660    0.82910    1.000
    C21      C        0.22850    0.13920    0.10050    1.000
    C22      C        0.07100    0.59800    0.27440    1.000
    C23      C        0.26230    0.42060    0.52110    1.000
    C24      C        0.40180    0.31620    0.58150    1.000
    C25      C        0.36990    0.43780    0.27640    1.000
    C26      C        0.60420    0.53060    0.42150    1.000
    C27      C        0.77420    0.62020    0.72410    1.000
    C28      C        0.80950    0.24980    0.35690    1.000
    C29      C        0.84170    0.57940    0.97890    1.000
    C30      C        0.91440    0.31620    0.08150    1.000
    C31      C        0.77150    0.86080    0.89950    1.000
    C32      C        0.03540    0.84000    0.00540    1.000
    C33      C        0.49000    0.31920    0.81860    1.000
    C34      C        0.59820    0.68380    0.41850    1.000
    C35      C        0.19540    0.16000    0.49460    1.000
    C36      C        0.08560    0.68380    0.91850    1.000
    C37      C        0.80460    0.84000    0.50540    1.000
    C38      C        0.42750    0.30340    0.17090    1.000
    C39      C        0.78450    0.37020    0.49510    1.000
    C40      C        0.63010    0.56220    0.72360    1.000
    C41      C        0.33310    0.14940    0.80390    1.000
    C42      C        0.36680    0.56260    0.04290    1.000
    C43      C        0.17080    0.68080    0.68140    1.000
    C44      C        0.66690    0.85060    0.19610    1.000
    C45      C        0.92900    0.40200    0.72560    1.000
    C46      C        0.80420    0.43740    0.45710    1.000
    C47      C        0.81630    0.14940    0.30390    1.000
    C48      C        0.21120    0.72280    0.55460    1.000
    C49      C        0.63320    0.43740    0.95710    1.000
    C50      C        0.92640    0.53060    0.92150    1.000
    C51      C        0.93210    0.56220    0.22360    1.000
    C52      C        0.58380    0.41240    0.86870    1.000
    C53      C        0.53810    0.58340    0.38870    1.000
    C54      C        0.44030    0.24980    0.85690    1.000
    C55      C        0.99960    0.26860    0.02100    1.000
    C56      C        0.19710    0.32020    0.49020    1.000
    C57      C        0.06790    0.43780    0.77640    1.000
    C58      C        0.73770    0.57940    0.47890    1.000
    C59      C        0.10110    0.28180    0.71920    1.000
    C60      C        0.15400    0.37980    0.77590    1.000
    C61      C        0.00040    0.73140    0.97900    1.000
    C62      C        0.89890    0.71820    0.28080    1.000
    C63      C        0.82860    0.41240    0.36870    1.000
    C64      C        0.46190    0.41660    0.61130    1.000
    C65      C        0.87690    0.67980    0.00980    1.000
    C66      C        0.80290    0.67980    0.50980    1.000
    C67      C        0.18070    0.28180    0.21920    1.000
    C68      C        0.55970    0.75020    0.14310    1.000
    C69      C        0.84600    0.62020    0.22410    1.000
    C70      C        0.26900    0.26860    0.52100    1.000
    C71      C        0.41620    0.58760    0.13130    1.000
    C72      C        0.12310    0.32020    0.99020    1.000
    C73      C        0.81930    0.71820    0.78080    1.000
    C74      C        0.41430    0.62980    0.00490    1.000
    C75      C        0.51160    0.72280    0.05460    1.000
    C76      C        0.96140    0.24300    0.66680    1.000
    C77      C        0.96460    0.16000    0.99460    1.000
    C78      C        0.07360    0.46940    0.07850    1.000
    C79      C        0.22580    0.37980    0.27590    1.000
    C80      C        0.21550    0.62980    0.50490    1.000
    C81      C        0.48840    0.27720    0.94540    1.000
    C82      C        0.39580    0.46940    0.57850    1.000
    C83      C        0.18370    0.85060    0.69610    1.000
    C84      C        0.47300    0.40200    0.22560    1.000
    O1       O        0.72160    0.53040    0.01140    1.000
    O2       O        0.09760    0.08440    0.10180    1.000
    O3       O        0.27840    0.46960    0.98860    1.000
    O4       O        0.15460    0.87020    0.77460    1.000
    O5       O        0.86730    0.46180    0.17130    1.000
    O6       O        0.31310    0.11180    0.04310    1.000
    O7       O        0.71560    0.87020    0.27460    1.000
    O8       O        0.80880    0.53040    0.51140    1.000
    O9       O        0.40550    0.53820    0.32870    1.000
    O10      O        0.14030    0.88320    0.97350    1.000
    O11      O        0.13270    0.53820    0.82870    1.000
    O12      O        0.28440    0.12980    0.72540    1.000
    O13      O        0.30160    0.09000    0.84070    1.000
    O14      O        0.20130    0.88820    0.45690    1.000
    O15      O        0.74290    0.88320    0.47350    1.000
    O16      O        0.25710    0.11680    0.52650    1.000
    O17      O        0.68690    0.88820    0.95690    1.000
    O18      O        0.59450    0.46180    0.67130    1.000
    O19      O        0.84540    0.12980    0.22540    1.000
    O20      O        0.01320    0.91560    0.39820    1.000
    O21      O        0.05080    0.12120    0.94180    1.000
    O22      O        0.78840    0.09000    0.34070    1.000
    O23      O        0.21160    0.91000    0.65930    1.000
    O24      O        0.92960    0.87880    0.55820    1.000
    O25      O        0.19120    0.46960    0.48860    1.000
    O26      O        0.98680    0.08440    0.60180    1.000
    O27      O        0.90240    0.91560    0.89820    1.000
    O28      O        0.94920    0.87880    0.05820    1.000
    O29      O        0.69840    0.91000    0.15930    1.000
    O30      O        0.85970    0.11680    0.02650    1.000
    O31      O        0.79870    0.11180    0.54310    1.000
    O32      O        0.07040    0.12120    0.44180    1.000
