# CIF file generated by openbabel 3.1.0, see https://openbabel.org
data_I
_chemical_name_common 'image0'
_cell_length_a 29.511
_cell_length_b 12.05
_cell_length_c 13.908
_cell_angle_alpha 90
_cell_angle_beta 111.457
_cell_angle_gamma 90
_space_group_name_H-M_alt 'P 1'
_space_group_name_Hall 'P 1'
loop_
    _symmetry_equiv_pos_as_xyz
    x,y,z
loop_
    _atom_site_label
    _atom_site_type_symbol
    _atom_site_fract_x
    _atom_site_fract_y
    _atom_site_fract_z
    _atom_site_occupancy
    Zn1      Zn       0.15151    0.95255    0.75428    1.000
    Zn2      Zn       0.84438    0.03743    0.82833    1.000
    C1       C        0.36480    0.67030    0.01950    1.000
    H1       H        0.38250    0.61240    0.06030    1.000
    C2       C        0.31970    0.76280    0.89230    1.000
    H2       H        0.29970    0.78190    0.82540    1.000
    C3       C        0.32960    0.83090    0.97440    1.000
    H3       H        0.31870    0.90330    0.97510    1.000
    C4       C        0.37940    0.80510    0.16580    1.000
    H4       H        0.40460    0.75310    0.20420    1.000
    H5       H        0.39440    0.87750    0.17020    1.000
    C5       C        0.34270    0.81070    0.21350    1.000
    H6       H        0.32960    0.73680    0.21310    1.000
    H7       H        0.35870    0.83270    0.28510    1.000
    C6       C        0.31550    0.99520    0.18750    1.000
    H8       H        0.34080    0.01590    0.16180    1.000
    H9       H        0.32790    0.00680    0.26160    1.000
    C7       C        0.27140    0.06470    0.13730    1.000
    H10      H        0.24540    0.03890    0.15880    1.000
    H11      H        0.27860    0.14100    0.16020    1.000
    C8       C        0.21880    0.99860    0.96280    1.000
    H12      H        0.20110    0.94880    0.98640    1.000
    C9       C        0.24610    0.09150    0.86340    1.000
    H13      H        0.25030    0.11770    0.80430    1.000
    C10      C        0.27370    0.12150    0.96330    1.000
    H14      H        0.29930    0.17170    0.98520    1.000
    C11      C        0.11730    0.11060    0.60760    1.000
    C12      C        0.08380    0.19180    0.53410    1.000
    C13      C        0.05450    0.25850    0.56500    1.000
    H15      H        0.05300    0.24740    0.63000    1.000
    C14      C        0.02600    0.34420    0.50150    1.000
    C15      C        0.02900    0.35740    0.40440    1.000
    H16      H        0.01250    0.41550    0.36190    1.000
    C16      C        0.05650    0.28490    0.37070    1.000
    H17      H        0.05730    0.29390    0.30490    1.000
    C17      C        0.08280    0.19920    0.43280    1.000
    C18      C        0.10760    0.11220    0.38600    1.000
    C19      C        0.99650    0.41930    0.54470    1.000
    C20      C        0.96230    0.35060    0.58390    1.000
    C21      C        0.95510    0.37790    0.67500    1.000
    H18      H        0.97190    0.43690    0.71570    1.000
    C22      C        0.92240    0.31500    0.70370    1.000
    H19      H        0.91750    0.33250    0.76430    1.000
    C23      C        0.89710    0.22770    0.64430    1.000
    C24      C        0.90350    0.20350    0.55410    1.000
    C25      C        0.93770    0.26330    0.52430    1.000
    H20      H        0.94340    0.24340    0.46510    1.000
    C26      C        0.86460    0.16670    0.68680    1.000
    C27      C        0.87240    0.11430    0.48040    1.000
    C28      C        0.96310    0.49890    0.45990    1.000
    C29      C        0.03270    0.49350    0.62820    1.000
    C30      C        0.77480    0.96040    0.63050    1.000
    H21      H        0.79150    0.99870    0.59580    1.000
    C31      C        0.75250    0.89430    0.74900    1.000
    H22      H        0.75090    0.88120    0.81360    1.000
    C32      C        0.72490    0.84600    0.66330    1.000
    H23      H        0.70140    0.79220    0.65650    1.000
    C33      C        0.71570    0.86610    0.47220    1.000
    H24      H        0.70610    0.78880    0.46050    1.000
    H25      H        0.74000    0.88010    0.44180    1.000
    C34      C        0.67160    0.94020    0.42110    1.000
    H26      H        0.65690    0.92440    0.34770    1.000
    H27      H        0.64740    0.92870    0.45210    1.000
    C35      C        0.65480    0.12790    0.38340    1.000
    C36      C        0.61910    0.18880    0.42080    1.000
    C37      C        0.64610    0.33040    0.56290    1.000
    H28      H        0.62630    0.38440    0.52000    1.000
    C38      C        0.68870    0.23950    0.69820    1.000
    H29      H        0.70440    0.22010    0.76720    1.000
    C39      C        0.68700    0.17630    0.61630    1.000
    H30      H        0.70080    0.10680    0.61720    1.000
    N1       N        0.34220    0.66430    0.91800    1.000
    N2       N        0.35890    0.77030    0.05630    1.000
    N3       N        0.25480    0.06060    0.02360    1.000
    N4       N        0.21110    0.01600    0.86520    1.000
    N5       N        0.78350    0.96610    0.73010    1.000
    N6       N        0.73720    0.88910    0.58660    1.000
    N7       N        0.65950    0.23980    0.53000    1.000
    N8       N        0.66400    0.33610    0.66390    1.000
    O1       O        0.30328    0.88490    0.16560    1.000
    O2       O        0.10197    0.05510    0.66930    1.000
    O3       O        0.16058    0.10430    0.61250    1.000
    O4       O        0.10110    0.01510    0.39660    1.000
    O5       O        0.12990    0.15630    0.33450    1.000
    O6       O        0.88860    0.07650    0.41330    1.000
    O7       O        0.83540    0.08370    0.49050    1.000
    O8       O        0.82482    0.20500    0.67930    1.000
    O9       O        0.88150    0.07780    0.73820    1.000
    O10      O        0.68870    0.04560    0.43700    1.000
    F1       F        0.01253    0.57990    0.65690    1.000
    F2       F        0.05492    0.43570    0.71430    1.000
    F3       F        0.06550    0.53530    0.59700    1.000
    F4       F        0.98848    0.57580    0.43100    1.000
    F5       F        0.93130    0.55360    0.49440    1.000
    F6       F        0.93458    0.44540    0.37580    1.000
    C40      C        0.66620    0.22680    0.41670    1.000
    Zn3      Zn       0.65151    0.45255    0.75428    1.000
    Zn4      Zn       0.34438    0.53743    0.82833    1.000
    C41      C        0.86480    0.17030    0.01950    1.000
    H31      H        0.88250    0.11240    0.06030    1.000
    C42      C        0.81970    0.26280    0.89230    1.000
    H32      H        0.79970    0.28190    0.82540    1.000
    C43      C        0.82960    0.33090    0.97440    1.000
    H33      H        0.81870    0.40330    0.97510    1.000
    C44      C        0.87940    0.30510    0.16580    1.000
    H34      H        0.90460    0.25310    0.20420    1.000
    H35      H        0.89440    0.37750    0.17020    1.000
    C45      C        0.84270    0.31070    0.21350    1.000
    H36      H        0.82960    0.23680    0.21310    1.000
    H37      H        0.85870    0.33270    0.28510    1.000
    C46      C        0.81550    0.49520    0.18750    1.000
    H38      H        0.84080    0.51590    0.16180    1.000
    H39      H        0.82790    0.50680    0.26160    1.000
    C47      C        0.77140    0.56470    0.13730    1.000
    H40      H        0.74540    0.53890    0.15880    1.000
    H41      H        0.77860    0.64100    0.16020    1.000
    C48      C        0.71880    0.49860    0.96280    1.000
    H42      H        0.70110    0.44880    0.98640    1.000
    C49      C        0.74610    0.59150    0.86340    1.000
    H43      H        0.75030    0.61770    0.80430    1.000
    C50      C        0.77370    0.62150    0.96330    1.000
    H44      H        0.79930    0.67170    0.98520    1.000
    C51      C        0.61730    0.61060    0.60760    1.000
    C52      C        0.58380    0.69180    0.53410    1.000
    C53      C        0.55450    0.75850    0.56500    1.000
    H45      H        0.55300    0.74740    0.63000    1.000
    C54      C        0.52600    0.84420    0.50150    1.000
    C55      C        0.52900    0.85740    0.40440    1.000
    H46      H        0.51250    0.91550    0.36190    1.000
    C56      C        0.55650    0.78490    0.37070    1.000
    H47      H        0.55730    0.79390    0.30490    1.000
    C57      C        0.58280    0.69920    0.43280    1.000
    C58      C        0.60760    0.61220    0.38600    1.000
    C59      C        0.49650    0.91930    0.54470    1.000
    C60      C        0.46230    0.85060    0.58390    1.000
    C61      C        0.45510    0.87790    0.67500    1.000
    H48      H        0.47190    0.93690    0.71570    1.000
    C62      C        0.42240    0.81500    0.70370    1.000
    H49      H        0.41750    0.83250    0.76430    1.000
    C63      C        0.39710    0.72770    0.64430    1.000
    C64      C        0.40350    0.70350    0.55410    1.000
    C65      C        0.43770    0.76330    0.52430    1.000
    H50      H        0.44340    0.74340    0.46510    1.000
    C66      C        0.36460    0.66670    0.68680    1.000
    C67      C        0.37240    0.61430    0.48040    1.000
    C68      C        0.46310    0.99890    0.45990    1.000
    C69      C        0.53270    0.99350    0.62820    1.000
    C70      C        0.27480    0.46040    0.63050    1.000
    H51      H        0.29150    0.49870    0.59580    1.000
    C71      C        0.25250    0.39430    0.74900    1.000
    H52      H        0.25090    0.38120    0.81360    1.000
    C72      C        0.22490    0.34600    0.66330    1.000
    H53      H        0.20140    0.29220    0.65650    1.000
    C73      C        0.21570    0.36610    0.47220    1.000
    H54      H        0.20610    0.28880    0.46050    1.000
    H55      H        0.24000    0.38010    0.44180    1.000
    C74      C        0.17160    0.44020    0.42110    1.000
    H56      H        0.15690    0.42440    0.34770    1.000
    H57      H        0.14740    0.42870    0.45210    1.000
    C75      C        0.15480    0.62790    0.38340    1.000
    C76      C        0.11910    0.68880    0.42080    1.000
    C77      C        0.14610    0.83040    0.56290    1.000
    H58      H        0.12630    0.88440    0.52000    1.000
    C78      C        0.18870    0.73950    0.69820    1.000
    H59      H        0.20440    0.72010    0.76720    1.000
    C79      C        0.18700    0.67630    0.61630    1.000
    H60      H        0.20080    0.60680    0.61720    1.000
    N9       N        0.84220    0.16430    0.91800    1.000
    N10      N        0.85890    0.27030    0.05630    1.000
    N11      N        0.75480    0.56060    0.02360    1.000
    N12      N        0.71110    0.51600    0.86520    1.000
    N13      N        0.28350    0.46610    0.73010    1.000
    N14      N        0.23720    0.38910    0.58660    1.000
    N15      N        0.15950    0.73980    0.53000    1.000
    N16      N        0.16400    0.83610    0.66390    1.000
    O11      O        0.80328    0.38490    0.16560    1.000
    O12      O        0.60197    0.55510    0.66930    1.000
    O13      O        0.66058    0.60430    0.61250    1.000
    O14      O        0.60110    0.51510    0.39660    1.000
    O15      O        0.62990    0.65630    0.33450    1.000
    O16      O        0.38860    0.57650    0.41330    1.000
    O17      O        0.33540    0.58370    0.49050    1.000
    O18      O        0.32482    0.70500    0.67930    1.000
    O19      O        0.38150    0.57780    0.73820    1.000
    O20      O        0.18870    0.54560    0.43700    1.000
    F7       F        0.51253    0.07990    0.65690    1.000
    F8       F        0.55492    0.93570    0.71430    1.000
    F9       F        0.56550    0.03530    0.59700    1.000
    F10      F        0.48848    0.07580    0.43100    1.000
    F11      F        0.43130    0.05360    0.49440    1.000
    F12      F        0.43458    0.94540    0.37580    1.000
    C80      C        0.16620    0.72680    0.41670    1.000
    Zn5      Zn       0.15151    0.04745    0.25428    1.000
    Zn6      Zn       0.84438    0.96257    0.32833    1.000
    C81      C        0.36480    0.32970    0.51950    1.000
    H61      H        0.38250    0.38760    0.56030    1.000
    C82      C        0.31970    0.23720    0.39230    1.000
    H62      H        0.29970    0.21810    0.32540    1.000
    C83      C        0.32960    0.16910    0.47440    1.000
    H63      H        0.31870    0.09670    0.47510    1.000
    C84      C        0.37940    0.19490    0.66580    1.000
    H64      H        0.40460    0.24690    0.70420    1.000
    H65      H        0.39440    0.12250    0.67020    1.000
    C85      C        0.34270    0.18930    0.71350    1.000
    H66      H        0.32960    0.26320    0.71310    1.000
    H67      H        0.35870    0.16730    0.78510    1.000
    C86      C        0.31550    0.00480    0.68750    1.000
    H68      H        0.34080    0.98410    0.66180    1.000
    H69      H        0.32790    0.99320    0.76160    1.000
    C87      C        0.27140    0.93530    0.63730    1.000
    H70      H        0.24540    0.96110    0.65880    1.000
    H71      H        0.27860    0.85900    0.66020    1.000
    C88      C        0.21880    0.00140    0.46280    1.000
    H72      H        0.20110    0.05120    0.48640    1.000
    C89      C        0.24610    0.90850    0.36340    1.000
    H73      H        0.25030    0.88230    0.30430    1.000
    C90      C        0.27370    0.87850    0.46330    1.000
    H74      H        0.29930    0.82830    0.48520    1.000
    C91      C        0.11730    0.88940    0.10760    1.000
    C92      C        0.08380    0.80820    0.03410    1.000
    C93      C        0.05450    0.74150    0.06500    1.000
    H75      H        0.05300    0.75260    0.13000    1.000
    C94      C        0.02600    0.65580    0.00150    1.000
    C95      C        0.02900    0.64260    0.90440    1.000
    H76      H        0.01250    0.58450    0.86190    1.000
    C96      C        0.05650    0.71510    0.87070    1.000
    H77      H        0.05730    0.70610    0.80490    1.000
    C97      C        0.08280    0.80080    0.93280    1.000
    C98      C        0.10760    0.88780    0.88600    1.000
    C99      C        0.99650    0.58070    0.04470    1.000
    C100     C        0.96230    0.64940    0.08390    1.000
    C101     C        0.95510    0.62210    0.17500    1.000
    H78      H        0.97190    0.56310    0.21570    1.000
    C102     C        0.92240    0.68500    0.20370    1.000
    H79      H        0.91750    0.66750    0.26430    1.000
    C103     C        0.89710    0.77230    0.14430    1.000
    C104     C        0.90350    0.79650    0.05410    1.000
    C105     C        0.93770    0.73670    0.02430    1.000
    H80      H        0.94340    0.75660    0.96510    1.000
    C106     C        0.86460    0.83330    0.18680    1.000
    C107     C        0.87240    0.88570    0.98040    1.000
    C108     C        0.96310    0.50110    0.95990    1.000
    C109     C        0.03270    0.50650    0.12820    1.000
    C110     C        0.77480    0.03960    0.13050    1.000
    H81      H        0.79150    0.00130    0.09580    1.000
    C111     C        0.75250    0.10570    0.24900    1.000
    H82      H        0.75090    0.11880    0.31360    1.000
    C112     C        0.72490    0.15400    0.16330    1.000
    H83      H        0.70140    0.20780    0.15650    1.000
    C113     C        0.71570    0.13390    0.97220    1.000
    H84      H        0.70610    0.21120    0.96050    1.000
    H85      H        0.74000    0.11990    0.94180    1.000
    C114     C        0.67160    0.05980    0.92110    1.000
    H86      H        0.65690    0.07560    0.84770    1.000
    H87      H        0.64740    0.07130    0.95210    1.000
    C115     C        0.65480    0.87210    0.88340    1.000
    C116     C        0.61910    0.81120    0.92080    1.000
    C117     C        0.64610    0.66960    0.06290    1.000
    H88      H        0.62630    0.61560    0.02000    1.000
    C118     C        0.68870    0.76050    0.19820    1.000
    H89      H        0.70440    0.77990    0.26720    1.000
    C119     C        0.68700    0.82370    0.11630    1.000
    H90      H        0.70080    0.89320    0.11720    1.000
    N17      N        0.34220    0.33570    0.41800    1.000
    N18      N        0.35890    0.22970    0.55630    1.000
    N19      N        0.25480    0.93940    0.52360    1.000
    N20      N        0.21110    0.98400    0.36520    1.000
    N21      N        0.78350    0.03390    0.23010    1.000
    N22      N        0.73720    0.11090    0.08660    1.000
    N23      N        0.65950    0.76020    0.03000    1.000
    N24      N        0.66400    0.66390    0.16390    1.000
    O21      O        0.30328    0.11510    0.66560    1.000
    O22      O        0.10197    0.94490    0.16930    1.000
    O23      O        0.16058    0.89570    0.11250    1.000
    O24      O        0.10110    0.98490    0.89660    1.000
    O25      O        0.12990    0.84370    0.83450    1.000
    O26      O        0.88860    0.92350    0.91330    1.000
    O27      O        0.83540    0.91630    0.99050    1.000
    O28      O        0.82482    0.79500    0.17930    1.000
    O29      O        0.88150    0.92220    0.23820    1.000
    O30      O        0.68870    0.95440    0.93700    1.000
    F13      F        0.01253    0.42010    0.15690    1.000
    F14      F        0.05492    0.56430    0.21430    1.000
    F15      F        0.06550    0.46470    0.09700    1.000
    F16      F        0.98848    0.42420    0.93100    1.000
    F17      F        0.93130    0.44640    0.99440    1.000
    F18      F        0.93458    0.55460    0.87580    1.000
    C120     C        0.66620    0.77320    0.91670    1.000
    Zn7      Zn       0.65151    0.54745    0.25428    1.000
    Zn8      Zn       0.34438    0.46257    0.32833    1.000
    C121     C        0.86480    0.82970    0.51950    1.000
    H91      H        0.88250    0.88760    0.56030    1.000
    C122     C        0.81970    0.73720    0.39230    1.000
    H92      H        0.79970    0.71810    0.32540    1.000
    C123     C        0.82960    0.66910    0.47440    1.000
    H93      H        0.81870    0.59670    0.47510    1.000
    C124     C        0.87940    0.69490    0.66580    1.000
    H94      H        0.90460    0.74690    0.70420    1.000
    H95      H        0.89440    0.62250    0.67020    1.000
    C125     C        0.84270    0.68930    0.71350    1.000
    H96      H        0.82960    0.76320    0.71310    1.000
    H97      H        0.85870    0.66730    0.78510    1.000
    C126     C        0.81550    0.50480    0.68750    1.000
    H98      H        0.84080    0.48410    0.66180    1.000
    H99      H        0.82790    0.49320    0.76160    1.000
    C127     C        0.77140    0.43530    0.63730    1.000
    H100     H        0.74540    0.46110    0.65880    1.000
    H101     H        0.77860    0.35900    0.66020    1.000
    C128     C        0.71880    0.50140    0.46280    1.000
    H102     H        0.70110    0.55120    0.48640    1.000
    C129     C        0.74610    0.40850    0.36340    1.000
    H103     H        0.75030    0.38230    0.30430    1.000
    C130     C        0.77370    0.37850    0.46330    1.000
    H104     H        0.79930    0.32830    0.48520    1.000
    C131     C        0.61730    0.38940    0.10760    1.000
    C132     C        0.58380    0.30820    0.03410    1.000
    C133     C        0.55450    0.24150    0.06500    1.000
    H105     H        0.55300    0.25260    0.13000    1.000
    C134     C        0.52600    0.15580    0.00150    1.000
    C135     C        0.52900    0.14260    0.90440    1.000
    H106     H        0.51250    0.08450    0.86190    1.000
    C136     C        0.55650    0.21510    0.87070    1.000
    H107     H        0.55730    0.20610    0.80490    1.000
    C137     C        0.58280    0.30080    0.93280    1.000
    C138     C        0.60760    0.38780    0.88600    1.000
    C139     C        0.49650    0.08070    0.04470    1.000
    C140     C        0.46230    0.14940    0.08390    1.000
    C141     C        0.45510    0.12210    0.17500    1.000
    H108     H        0.47190    0.06310    0.21570    1.000
    C142     C        0.42240    0.18500    0.20370    1.000
    H109     H        0.41750    0.16750    0.26430    1.000
    C143     C        0.39710    0.27230    0.14430    1.000
    C144     C        0.40350    0.29650    0.05410    1.000
    C145     C        0.43770    0.23670    0.02430    1.000
    H110     H        0.44340    0.25660    0.96510    1.000
    C146     C        0.36460    0.33330    0.18680    1.000
    C147     C        0.37240    0.38570    0.98040    1.000
    C148     C        0.46310    0.00110    0.95990    1.000
    C149     C        0.53270    0.00650    0.12820    1.000
    C150     C        0.27480    0.53960    0.13050    1.000
    H111     H        0.29150    0.50130    0.09580    1.000
    C151     C        0.25250    0.60570    0.24900    1.000
    H112     H        0.25090    0.61880    0.31360    1.000
    C152     C        0.22490    0.65400    0.16330    1.000
    H113     H        0.20140    0.70780    0.15650    1.000
    C153     C        0.21570    0.63390    0.97220    1.000
    H114     H        0.20610    0.71120    0.96050    1.000
    H115     H        0.24000    0.61990    0.94180    1.000
    C154     C        0.17160    0.55980    0.92110    1.000
    H116     H        0.15690    0.57560    0.84770    1.000
    H117     H        0.14740    0.57130    0.95210    1.000
    C155     C        0.15480    0.37210    0.88340    1.000
    C156     C        0.11910    0.31120    0.92080    1.000
    C157     C        0.14610    0.16960    0.06290    1.000
    H118     H        0.12630    0.11560    0.02000    1.000
    C158     C        0.18870    0.26050    0.19820    1.000
    H119     H        0.20440    0.27990    0.26720    1.000
    C159     C        0.18700    0.32370    0.11630    1.000
    H120     H        0.20080    0.39320    0.11720    1.000
    N25      N        0.84220    0.83570    0.41800    1.000
    N26      N        0.85890    0.72970    0.55630    1.000
    N27      N        0.75480    0.43940    0.52360    1.000
    N28      N        0.71110    0.48400    0.36520    1.000
    N29      N        0.28350    0.53390    0.23010    1.000
    N30      N        0.23720    0.61090    0.08660    1.000
    N31      N        0.15950    0.26020    0.03000    1.000
    N32      N        0.16400    0.16390    0.16390    1.000
    O31      O        0.80328    0.61510    0.66560    1.000
    O32      O        0.60197    0.44490    0.16930    1.000
    O33      O        0.66058    0.39570    0.11250    1.000
    O34      O        0.60110    0.48490    0.89660    1.000
    O35      O        0.62990    0.34370    0.83450    1.000
    O36      O        0.38860    0.42350    0.91330    1.000
    O37      O        0.33540    0.41630    0.99050    1.000
    O38      O        0.32482    0.29500    0.17930    1.000
    O39      O        0.38150    0.42220    0.23820    1.000
    O40      O        0.18870    0.45440    0.93700    1.000
    F19      F        0.51253    0.92010    0.15690    1.000
    F20      F        0.55492    0.06430    0.21430    1.000
    F21      F        0.56550    0.96470    0.09700    1.000
    F22      F        0.48848    0.92420    0.93100    1.000
    F23      F        0.43130    0.94640    0.99440    1.000
    F24      F        0.43458    0.05460    0.87580    1.000
    C160     C        0.16620    0.27320    0.91670    1.000
