data_functionalizedCrystal
_audit_creation_method	'EQeq! by Chris Wilmer'
_symmetry_space_group_name_H-M	'P1'
_symmetry_Int_Tables_number	1
_symmetry_cell_setting	triclinic
loop_
_symmetry_equiv_pos_as_xyz
  x,y,z
_cell_length_a	7.509
_cell_length_b	11.881
_cell_length_c	20.942
_cell_angle_alpha	96.623
_cell_angle_beta	92.474
_cell_angle_gamma	102.015
loop_
_atom_site_label
_atom_site_type_symbol
_atom_site_fract_x
_atom_site_fract_y
_atom_site_fract_z
_atom_site_charge
Mof_Cd	Cd	0.65169	0.85364	0.09578	0.481
Mof_Cd	Cd	0.7488	0.0198	0.47812	0.452
Mof_Cd	Cd	0.39373	0.17181	0.08465	0.482
Mof_Cd	Cd	0.34831	0.14636	0.90422	0.482
Mof_Cd	Cd	0.2512	0.9802	0.52188	0.47
Mof_Cd	Cd	0.60627	0.82819	0.91535	0.493
Mof_Cd	Cd	-0	0	-0	0.463
Mof_H 	H 	0.0546	0.7938	0.1421	0.021
Mof_H 	H 	0.5993	0.5615	0.128	0.036
Mof_H 	H 	0.8404	0.4692	0.163	0.046
Mof_H 	H 	0.2248	0.5484	0.1586	0.099
Mof_H 	H 	0.2853	0.6836	0.1656	0.109
Mof_H 	H 	0.9882	0.6594	0.2727	0.099
Mof_H 	H 	0.1384	0.7716	0.2714	0.099
Mof_H 	H 	0.9685	0.5724	0.3905	0.053
Mof_H 	H 	0.0303	0.6847	0.496	0.033
Mof_H 	H 	0.2677	0.8821	0.3753	0.024
Mof_H 	H 	0.0685	0.4648	0.2616	0.085
Mof_H 	H 	0.211	0.5058	0.3208	0.094
Mof_H 	H 	0.5267	0.4386	0.3124	0.047
Mof_H 	H 	0.1746	0.3511	0.1608	0.014
Mof_H 	H 	0.636	0.3034	0.2344	0.038
Mof_H 	H 	0.6269	0.8916	0.3256	0.025
Mof_H 	H 	0.6444	0.7228	0.474	0.053
Mof_H 	H 	0.4731	0.5864	0.3873	0.044
Mof_H 	H 	0.4683	0.7456	0.2416	0.102
Mof_H 	H 	0.5123	0.6247	0.2484	0.092
Mof_H 	H 	0.9365	0.0596	0.2695	0.073
Mof_H 	H 	0.5511	0.0704	0.2977	0.047
Mof_H 	H 	0.2949	0.4813	0.0202	0.048
Mof_H 	H 	0.661	0.012	0.019	0.21
Mof_H 	H 	0.9454	0.2062	0.8579	0.033
Mof_H 	H 	0.4007	0.4385	0.872	0.035
Mof_H 	H 	0.1596	0.5308	0.837	0.049
Mof_H 	H 	0.7752	0.4516	0.8414	0.1
Mof_H 	H 	0.7147	0.3164	0.8344	0.108
Mof_H 	H 	0.0118	0.3406	0.7273	0.083
Mof_H 	H 	0.8616	0.2284	0.7286	0.09
Mof_H 	H 	0.0315	0.4276	0.6095	0.037
Mof_H 	H 	0.9697	0.3153	0.504	0.04
Mof_H 	H 	0.7323	0.1179	0.6247	0.017
Mof_H 	H 	0.9315	0.5352	0.7384	0.088
Mof_H 	H 	0.789	0.4942	0.6792	0.095
Mof_H 	H 	0.4733	0.5614	0.6876	0.046
Mof_H 	H 	0.8254	0.6489	0.8392	0.016
Mof_H 	H 	0.364	0.6966	0.7656	0.037
Mof_H 	H 	0.3731	0.1084	0.6744	0.017
Mof_H 	H 	0.3556	0.2772	0.526	0.051
Mof_H 	H 	0.5269	0.4136	0.6127	0.044
Mof_H 	H 	0.5317	0.2544	0.7584	0.099
Mof_H 	H 	0.4877	0.3753	0.7516	0.091
Mof_H 	H 	0.0635	0.9404	0.7305	0.056
Mof_H 	H 	0.4489	0.9296	0.7023	0.062
Mof_H 	H 	0.7051	0.5187	0.9798	0.063
Mof_H 	H 	0.339	0.988	0.981	0.24
Mof_C 	C 	0.97	0.7246	0.14286	0.096
Mof_C 	C 	0.7219	0.5978	0.1354	0.012
Mof_C 	C 	0.8545	0.5456	0.1545	-0.011
Mof_C 	C 	0.2001	0.6199	0.17998	-0.177
Mof_C 	C 	0.2388	0.6232	0.25423	0.139
Mof_C 	C 	0.1133	0.6967	0.2872	-0.167
Mof_C 	C 	0.0367	0.6479	0.4	-0.035
Mof_C 	C 	0.0704	0.7107	0.4578	0.04
Mof_C 	C 	0.2009	0.8187	0.3922	0.096
Mof_C 	C 	0.1956	0.4997	0.2742	-0.16
Mof_C 	C 	0.4692	0.4051	0.2725	-0.011
Mof_C 	C 	0.2765	0.3561	0.1887	0.087
Mof_C 	C 	0.529	0.3302	0.2293	0.016
Mof_C 	C 	0.6099	0.8329	0.352	0.089
Mof_C 	C 	0.6183	0.7399	0.4329	0.018
Mof_C 	C 	0.525	0.664	0.3853	-0.005
Mof_C 	C 	0.4442	0.6804	0.26629	-0.164
Mof_C 	C 	0.438	0.1314	0.4092	0.312
Mof_C 	C 	0.3314	0.0928	0.34478	-0.055
Mof_C 	C 	0.1422	0.0833	0.33708	-0.034
Mof_C 	C 	0.0604	0.0605	0.2752	-0.039
Mof_C 	C 	0.1551	0.039	0.22112	-0.032
Mof_C 	C 	0.3416	0.0365	0.22932	-0.08
Mof_C 	C 	0.4266	0.0672	0.29177	0.004
Mof_C 	C 	0.4498	0.9919	0.17712	0.348
Mof_C 	C 	0.0473	0.0156	0.1567	0.283
Mof_C 	C 	0.0237	0.0857	0.3934	0.284
Mof_C 	C 	0.3115	0.6949	0.0058	0.315
Mof_C 	C 	0.1453	0.5968	0.00378	-0.067
Mof_C 	C 	0.9663	0.6092	0.99112	-0.022
Mof_C 	C 	0.1757	0.4891	0.0121	0.006
Mof_C 	C 	0.9174	0.7237	0.9859	0.335
Mof_C 	C 	0.03	0.2754	0.85714	0.07
Mof_C 	C 	0.2781	0.4022	0.8646	0.02
Mof_C 	C 	0.1455	0.4544	0.8455	-0.021
Mof_C 	C 	0.7999	0.3801	0.82002	-0.175
Mof_C 	C 	0.7612	0.3768	0.74577	0.133
Mof_C 	C 	0.8867	0.3033	0.7128	-0.142
Mof_C 	C 	0.9633	0.3521	0.6	-0.009
Mof_C 	C 	0.9296	0.2893	0.5422	0.027
Mof_C 	C 	0.7991	0.1813	0.6078	0.097
Mof_C 	C 	0.8044	0.5003	0.7258	-0.158
Mof_C 	C 	0.5308	0.5949	0.7275	-0.011
Mof_C 	C 	0.7235	0.6439	0.8113	0.087
Mof_C 	C 	0.471	0.6698	0.7707	0.015
Mof_C 	C 	0.3901	0.1671	0.648	0.087
Mof_C 	C 	0.3817	0.2601	0.5671	0.017
Mof_C 	C 	0.475	0.336	0.6147	-0.006
Mof_C 	C 	0.5558	0.3196	0.73371	-0.16
Mof_C 	C 	0.562	0.8686	0.5908	0.304
Mof_C 	C 	0.6686	0.9072	0.65522	-0.032
Mof_C 	C 	0.8578	0.9167	0.66292	-0.054
Mof_C 	C 	0.9396	0.9395	0.7248	0.009
Mof_C 	C 	0.8449	0.961	0.77888	-0.066
Mof_C 	C 	0.6584	0.9635	0.77068	-0.03
Mof_C 	C 	0.5734	0.9328	0.70823	-0.024
Mof_C 	C 	0.5502	0.0081	0.82288	0.287
Mof_C 	C 	0.9527	0.9844	0.8433	0.337
Mof_C 	C 	0.9763	0.9143	0.6066	0.303
Mof_C 	C 	0.6885	0.3051	0.9942	0.333
Mof_C 	C 	0.8547	0.4032	0.99622	-0.014
Mof_C 	C 	0.0337	0.3908	0.00888	-0.073
Mof_C 	C 	0.8243	0.5109	0.9879	-0.026
Mof_C 	C 	0.0826	0.2763	0.0141	0.302
Mof_N 	N 	0.7917	0.7117	0.12832	-0.139
Mof_N 	N 	0.0143	0.6274	0.15871	-0.102
Mof_N 	N 	0.3078	0.4222	0.24647	-0.1
Mof_N 	N 	0.4048	0.3003	0.17647	-0.137
Mof_N 	N 	0.6704	0.8469	0.41279	-0.129
Mof_N 	N 	0.5199	0.7225	0.33242	-0.094
Mof_N 	N 	0.1712	0.8177	0.45321	-0.139
Mof_N 	N 	0.1236	0.7174	0.35695	-0.092
Mof_N 	N 	0.2083	0.2883	0.87168	-0.134
Mof_N 	N 	0.9857	0.3726	0.84129	-0.088
Mof_N 	N 	0.6922	0.5778	0.75353	-0.1
Mof_N 	N 	0.5952	0.6997	0.82353	-0.138
Mof_N 	N 	0.3296	0.1531	0.58721	-0.137
Mof_N 	N 	0.4801	0.2775	0.66758	-0.095
Mof_N 	N 	0.8288	0.1823	0.54679	-0.138
Mof_N 	N 	0.8764	0.2826	0.64305	-0.099
Mof_O 	O 	0.0822	0.0725	0.4474	-0.288
Mof_O 	O 	0.8601	0.0956	0.38153	-0.258
Mof_O 	O 	0.4957	0.237	0.42244	-0.243
Mof_O 	O 	0.4682	0.0531	0.44219	-0.291
Mof_O 	O 	0.8802	0.9794	0.15708	-0.259
Mof_O 	O 	0.1315	0.0346	0.10693	-0.293
Mof_O 	O 	0.468	0.8895	0.17855	-0.286
Mof_O 	O 	0.5244	0.0528	0.13706	-0.306
Mof_O 	O 	0.4062	0.7182	0.05728	-0.29
Mof_O 	O 	0.3452	0.7388	0.95417	-0.266
Mof_O 	O 	0.7602	0.7173	0.96157	-0.294
Mof_O 	O 	0.0294	0.8148	0.00632	-0.293
Mof_O 	O 	0.6955	0.9474	0.01155	-0.391
Mof_O 	O 	0.9178	0.9275	0.5526	-0.282
Mof_O 	O 	0.1399	0.9044	0.61847	-0.265
Mof_O 	O 	0.5043	0.763	0.57756	-0.241
Mof_O 	O 	0.5318	0.9469	0.55781	-0.278
Mof_O 	O 	0.1198	0.0206	0.84292	-0.299
Mof_O 	O 	0.8685	0.9654	0.89307	-0.291
Mof_O 	O 	0.532	0.1105	0.82145	-0.275
Mof_O 	O 	0.4756	0.9472	0.86294	-0.273
Mof_O 	O 	0.5938	0.2818	0.94272	-0.291
Mof_O 	O 	0.6548	0.2612	0.04583	-0.287
Mof_O 	O 	0.2398	0.2827	0.03843	-0.294
Mof_O 	O 	0.9706	0.1852	0.99368	-0.257
Mof_O 	O 	0.3045	0.0526	0.98845	-0.407
_end
