# CIF file generated by openbabel 3.1.0, see https://openbabel.org
data_I
_chemical_name_common 'image0'
_cell_length_a 32.035
_cell_length_b 14.308
_cell_length_c 8.852
_cell_angle_alpha 90
_cell_angle_beta 104.65
_cell_angle_gamma 90
_space_group_name_H-M_alt 'P 1'
_space_group_name_Hall 'P 1'
loop_
    _symmetry_equiv_pos_as_xyz
    x,y,z
loop_
    _atom_site_label
    _atom_site_type_symbol
    _atom_site_fract_x
    _atom_site_fract_y
    _atom_site_fract_z
    _atom_site_occupancy
    P1       P        0.95700    0.61940    0.90730    1.000
    P2       P        0.81130    0.46490    0.98310    1.000
    P3       P        0.81920    0.78310    0.99490    1.000
    Al1      Al       0.77140    0.62780    0.14540    1.000
    Al2      Al       0.85450    0.61890    0.82330    1.000
    O1       O        0.96430    0.52920    0.82100    1.000
    O2       O        0.98010    0.70140    0.85300    1.000
    O3       O        0.90960    0.64000    0.86800    1.000
    O4       O        0.97130    0.60900    0.08700    1.000
    O5       O        0.77960    0.52900    0.03400    1.000
    O6       O        0.78640    0.40320    0.84900    1.000
    O7       O        0.84500    0.52200    0.93000    1.000
    O8       O        0.83410    0.40240    0.11800    1.000
    O9       O        0.78170    0.84620    0.90900    1.000
    O10      O        0.80310    0.72000    0.11400    1.000
    O11      O        0.82890    0.72000    0.86400    1.000
    O12      O        0.85820    0.83500    0.07900    1.000
    P4       P        0.45700    0.11940    0.90730    1.000
    P5       P        0.31130    0.96490    0.98310    1.000
    P6       P        0.31920    0.28310    0.99490    1.000
    Al3      Al       0.27140    0.12780    0.14540    1.000
    Al4      Al       0.35450    0.11890    0.82330    1.000
    O13      O        0.46430    0.02920    0.82100    1.000
    O14      O        0.48010    0.20140    0.85300    1.000
    O15      O        0.40960    0.14000    0.86800    1.000
    O16      O        0.47130    0.10900    0.08700    1.000
    O17      O        0.27960    0.02900    0.03400    1.000
    O18      O        0.28640    0.90320    0.84900    1.000
    O19      O        0.34500    0.02200    0.93000    1.000
    O20      O        0.33410    0.90240    0.11800    1.000
    O21      O        0.28170    0.34620    0.90900    1.000
    O22      O        0.30310    0.22000    0.11400    1.000
    O23      O        0.32890    0.22000    0.86400    1.000
    O24      O        0.35820    0.33500    0.07900    1.000
    P7       P        0.04300    0.61940    0.59270    1.000
    P8       P        0.18870    0.46490    0.51690    1.000
    P9       P        0.18080    0.78310    0.50510    1.000
    Al5      Al       0.22860    0.62780    0.35460    1.000
    Al6      Al       0.14550    0.61890    0.67670    1.000
    O25      O        0.03570    0.52920    0.67900    1.000
    O26      O        0.01990    0.70140    0.64700    1.000
    O27      O        0.09040    0.64000    0.63200    1.000
    O28      O        0.02870    0.60900    0.41300    1.000
    O29      O        0.22040    0.52900    0.46600    1.000
    O30      O        0.21360    0.40320    0.65100    1.000
    O31      O        0.15500    0.52200    0.57000    1.000
    O32      O        0.16590    0.40240    0.38200    1.000
    O33      O        0.21830    0.84620    0.59100    1.000
    O34      O        0.19690    0.72000    0.38600    1.000
    O35      O        0.17110    0.72000    0.63600    1.000
    O36      O        0.14180    0.83500    0.42100    1.000
    P10      P        0.54300    0.11940    0.59270    1.000
    P11      P        0.68870    0.96490    0.51690    1.000
    P12      P        0.68080    0.28310    0.50510    1.000
    Al7      Al       0.72860    0.12780    0.35460    1.000
    Al8      Al       0.64550    0.11890    0.67670    1.000
    O37      O        0.53570    0.02920    0.67900    1.000
    O38      O        0.51990    0.20140    0.64700    1.000
    O39      O        0.59040    0.14000    0.63200    1.000
    O40      O        0.52870    0.10900    0.41300    1.000
    O41      O        0.72040    0.02900    0.46600    1.000
    O42      O        0.71360    0.90320    0.65100    1.000
    O43      O        0.65500    0.02200    0.57000    1.000
    O44      O        0.66590    0.90240    0.38200    1.000
    O45      O        0.71830    0.34620    0.59100    1.000
    O46      O        0.69690    0.22000    0.38600    1.000
    O47      O        0.67110    0.22000    0.63600    1.000
    O48      O        0.64180    0.33500    0.42100    1.000
    P13      P        0.04300    0.38060    0.09270    1.000
    P14      P        0.18870    0.53510    0.01690    1.000
    P15      P        0.18080    0.21690    0.00510    1.000
    Al9      Al       0.22860    0.37220    0.85460    1.000
    Al10     Al       0.14550    0.38110    0.17670    1.000
    O49      O        0.03570    0.47080    0.17900    1.000
    O50      O        0.01990    0.29860    0.14700    1.000
    O51      O        0.09040    0.36000    0.13200    1.000
    O52      O        0.02870    0.39100    0.91300    1.000
    O53      O        0.22040    0.47100    0.96600    1.000
    O54      O        0.21360    0.59680    0.15100    1.000
    O55      O        0.15500    0.47800    0.07000    1.000
    O56      O        0.16590    0.59760    0.88200    1.000
    O57      O        0.21830    0.15380    0.09100    1.000
    O58      O        0.19690    0.28000    0.88600    1.000
    O59      O        0.17110    0.28000    0.13600    1.000
    O60      O        0.14180    0.16500    0.92100    1.000
    P16      P        0.54300    0.88060    0.09270    1.000
    P17      P        0.68870    0.03510    0.01690    1.000
    P18      P        0.68080    0.71690    0.00510    1.000
    Al11     Al       0.72860    0.87220    0.85460    1.000
    Al12     Al       0.64550    0.88110    0.17670    1.000
    O61      O        0.53570    0.97080    0.17900    1.000
    O62      O        0.51990    0.79860    0.14700    1.000
    O63      O        0.59040    0.86000    0.13200    1.000
    O64      O        0.52870    0.89100    0.91300    1.000
    O65      O        0.72040    0.97100    0.96600    1.000
    O66      O        0.71360    0.09680    0.15100    1.000
    O67      O        0.65500    0.97800    0.07000    1.000
    O68      O        0.66590    0.09760    0.88200    1.000
    O69      O        0.71830    0.65380    0.09100    1.000
    O70      O        0.69690    0.78000    0.88600    1.000
    O71      O        0.67110    0.78000    0.13600    1.000
    O72      O        0.64180    0.66500    0.92100    1.000
    P19      P        0.95700    0.38060    0.40730    1.000
    P20      P        0.81130    0.53510    0.48310    1.000
    P21      P        0.81920    0.21690    0.49490    1.000
    Al13     Al       0.77140    0.37220    0.64540    1.000
    Al14     Al       0.85450    0.38110    0.32330    1.000
    O73      O        0.96430    0.47080    0.32100    1.000
    O74      O        0.98010    0.29860    0.35300    1.000
    O75      O        0.90960    0.36000    0.36800    1.000
    O76      O        0.97130    0.39100    0.58700    1.000
    O77      O        0.77960    0.47100    0.53400    1.000
    O78      O        0.78640    0.59680    0.34900    1.000
    O79      O        0.84500    0.47800    0.43000    1.000
    O80      O        0.83410    0.59760    0.61800    1.000
    O81      O        0.78170    0.15380    0.40900    1.000
    O82      O        0.80310    0.28000    0.61400    1.000
    O83      O        0.82890    0.28000    0.36400    1.000
    O84      O        0.85820    0.16500    0.57900    1.000
    P22      P        0.45700    0.88060    0.40730    1.000
    P23      P        0.31130    0.03510    0.48310    1.000
    P24      P        0.31920    0.71690    0.49490    1.000
    Al15     Al       0.27140    0.87220    0.64540    1.000
    Al16     Al       0.35450    0.88110    0.32330    1.000
    O85      O        0.46430    0.97080    0.32100    1.000
    O86      O        0.48010    0.79860    0.35300    1.000
    O87      O        0.40960    0.86000    0.36800    1.000
    O88      O        0.47130    0.89100    0.58700    1.000
    O89      O        0.27960    0.97100    0.53400    1.000
    O90      O        0.28640    0.09680    0.34900    1.000
    O91      O        0.34500    0.97800    0.43000    1.000
    O92      O        0.33410    0.09760    0.61800    1.000
    O93      O        0.28170    0.65380    0.40900    1.000
    O94      O        0.30310    0.78000    0.61400    1.000
    O95      O        0.32890    0.78000    0.36400    1.000
    O96      O        0.35820    0.66500    0.57900    1.000
    Al17     Al       0.00000    0.46030    0.75000    1.000
    Al18     Al       0.50000    0.96030    0.75000    1.000
    Al19     Al       0.00000    0.53970    0.25000    1.000
    Al20     Al       0.50000    0.03970    0.25000    1.000
