# CIF file generated by openbabel 3.1.0, see https://openbabel.org
data_I
_chemical_name_common 'image0'
_cell_length_a 13.7883
_cell_length_b 13.7883
_cell_length_c 9.345
_cell_angle_alpha 90
_cell_angle_beta 90
_cell_angle_gamma 120
_space_group_name_H-M_alt 'P 1'
_space_group_name_Hall 'P 1'
loop_
    _symmetry_equiv_pos_as_xyz
    x,y,z
loop_
    _atom_site_label
    _atom_site_type_symbol
    _atom_site_fract_x
    _atom_site_fract_y
    _atom_site_fract_z
    _atom_site_occupancy
    O1       O        0.92930    0.07550    0.62880    1.000
    O2       O        0.83140    0.38510    0.08570    1.000
    O3       O        0.71280    0.14460    0.99820    1.000
    O4       O        0.99950    0.43290    0.84440    1.000
    O5       O        0.75990    0.31260    0.76060    1.000
    O6       O        0.02790    0.14050    0.87210    1.000
    O7       O        0.87630    0.18110    0.79150    1.000
    In1      In       0.85380    0.29300    0.92422    1.000
    P1       P        0.87616    0.50638    0.11850    1.000
    P2       P        0.97197    0.16373    0.74659    1.000
    H1       H        0.82100    0.51600    0.23500    1.000
    H2       H        0.06200    0.26800    0.70600    1.000
    O8       O        0.92450    0.85380    0.62880    1.000
    O9       O        0.61490    0.44630    0.08570    1.000
    O10      O        0.85540    0.56820    0.99820    1.000
    O11      O        0.56710    0.56660    0.84440    1.000
    O12      O        0.68740    0.44730    0.76060    1.000
    O13      O        0.85950    0.88740    0.87210    1.000
    O14      O        0.81890    0.69520    0.79150    1.000
    In2      In       0.70700    0.56080    0.92422    1.000
    P3       P        0.49362    0.36978    0.11850    1.000
    P4       P        0.83627    0.80824    0.74659    1.000
    H3       H        0.48400    0.30500    0.23500    1.000
    H4       H        0.73200    0.79400    0.70600    1.000
    O15      O        0.14620    0.07070    0.62880    1.000
    O16      O        0.55370    0.16860    0.08570    1.000
    O17      O        0.43180    0.28720    0.99820    1.000
    O18      O        0.43340    0.00050    0.84440    1.000
    O19      O        0.55270    0.24010    0.76060    1.000
    O20      O        0.11260    0.97210    0.87210    1.000
    O21      O        0.30480    0.12370    0.79150    1.000
    In3      In       0.43920    0.14620    0.92422    1.000
    P5       P        0.63022    0.12384    0.11850    1.000
    P6       P        0.19176    0.02803    0.74659    1.000
    H5       H        0.69500    0.17900    0.23500    1.000
    H6       H        0.20600    0.93800    0.70600    1.000
    O22      O        0.07070    0.92450    0.37120    1.000
    O23      O        0.16860    0.61490    0.91430    1.000
    O24      O        0.28720    0.85540    0.00180    1.000
    O25      O        0.00050    0.56710    0.15560    1.000
    O26      O        0.24010    0.68740    0.23940    1.000
    O27      O        0.97210    0.85950    0.12790    1.000
    O28      O        0.12370    0.81890    0.20850    1.000
    In4      In       0.14620    0.70700    0.07578    1.000
    P7       P        0.12384    0.49362    0.88150    1.000
    P8       P        0.02803    0.83627    0.25341    1.000
    H7       H        0.17900    0.48400    0.76500    1.000
    H8       H        0.93800    0.73200    0.29400    1.000
    O29      O        0.07550    0.14620    0.37120    1.000
    O30      O        0.38510    0.55370    0.91430    1.000
    O31      O        0.14460    0.43180    0.00180    1.000
    O32      O        0.43290    0.43340    0.15560    1.000
    O33      O        0.31260    0.55270    0.23940    1.000
    O34      O        0.14050    0.11260    0.12790    1.000
    O35      O        0.18110    0.30480    0.20850    1.000
    In5      In       0.29300    0.43920    0.07578    1.000
    P9       P        0.50638    0.63022    0.88150    1.000
    P10      P        0.16373    0.19176    0.25341    1.000
    H9       H        0.51600    0.69500    0.76500    1.000
    H10      H        0.26800    0.20600    0.29400    1.000
    O36      O        0.85380    0.92930    0.37120    1.000
    O37      O        0.44630    0.83140    0.91430    1.000
    O38      O        0.56820    0.71280    0.00180    1.000
    O39      O        0.56660    0.99950    0.15560    1.000
    O40      O        0.44730    0.75990    0.23940    1.000
    O41      O        0.88740    0.02790    0.12790    1.000
    O42      O        0.69520    0.87630    0.20850    1.000
    In6      In       0.56080    0.85380    0.07578    1.000
    P11      P        0.36978    0.87616    0.88150    1.000
    P12      P        0.80824    0.97197    0.25341    1.000
    H11      H        0.30500    0.82100    0.76500    1.000
    H12      H        0.79400    0.06200    0.29400    1.000
    In7      In       0.00000    0.00000    0.50000    1.000
    In8      In       0.00000    0.00000    0.00000    1.000
    P13      P        0.66667    0.33333    0.72000    1.000
    H13      H        0.66667    0.33333    0.57200    1.000
    P14      P        0.33333    0.66667    0.28000    1.000
    H14      H        0.33333    0.66667    0.42800    1.000
