data_functionalizedCrystal
_audit_creation_method	'EQeq! by Chris Wilmer'
_symmetry_space_group_name_H-M	'P1'
_symmetry_Int_Tables_number	1
_symmetry_cell_setting	triclinic
loop_
_symmetry_equiv_pos_as_xyz
  x,y,z
_cell_length_a	7.718
_cell_length_b	25.2869
_cell_length_c	25.2869
_cell_angle_alpha	61.022
_cell_angle_beta	84.1607
_cell_angle_gamma	95.8393
loop_
_atom_site_label
_atom_site_type_symbol
_atom_site_fract_x
_atom_site_fract_y
_atom_site_fract_z
_atom_site_charge
Mof_Cu	Cu	0.74673	0.74746	0.00582	0.908
Mof_Cu	Cu	0.25107	0.50083	0.25653	0.909
Mof_Cu	Cu	0.75255	0.00582	0.24672	0.908
Mof_Cu	Cu	0.5076	0.25653	0.24264	0.909
Mof_Cu	Cu	0.99927	0.24672	0.74746	0.907
Mof_Cu	Cu	0.75024	0.24264	0.50083	0.909
Mof_Cu	Cu	0.25327	0.25254	0.99418	0.909
Mof_Cu	Cu	0.74893	0.49917	0.74347	0.91
Mof_Cu	Cu	0.24745	0.99418	0.75328	0.909
Mof_Cu	Cu	0.4924	0.74347	0.75736	0.91
Mof_Cu	Cu	0.00073	0.75328	0.25254	0.908
Mof_Cu	Cu	0.24976	0.75736	0.49917	0.91
Mof_H 	H 	0.9852	0.6776	0.0829	0.026
Mof_H 	H 	0.4786	0.6301	0.0903	0.017
Mof_H 	H 	0.7291	0.5087	0.2044	0.039
Mof_H 	H 	0.5129	0.3145	0.4251	0.025
Mof_H 	H 	0.0101	0.3623	0.4267	0.012
Mof_H 	H 	0.7658	0.4873	0.3135	0.039
Mof_H 	H 	0.22	0.7942	0.0138	0.038
Mof_H 	H 	0.852	0.7885	0.1353	0.014
Mof_H 	H 	0.3093	0.7468	0.1833	0.026
Mof_H 	H 	0.1776	0.7443	0.8301	0.025
Mof_H 	H 	0.6415	0.7076	0.875	0.021
Mof_H 	H 	0.2736	0.7	0.9976	0.037
Mof_H 	H 	0.0681	0.0829	0.2395	0.029
Mof_H 	H 	0.5689	0.0903	0.2796	0.018
Mof_H 	H 	0.9335	0.2044	0.2869	0.039
Mof_H 	H 	0.938	0.4251	0.2604	0.027
Mof_H 	H 	0.4368	0.4267	0.211	0.013
Mof_H 	H 	0.0793	0.3135	0.1992	0.039
Mof_H 	H 	0.2338	0.0138	0.192	0.038
Mof_H 	H 	0.9873	0.1353	0.0762	0.011
Mof_H 	H 	0.4926	0.1833	0.0699	0.026
Mof_H 	H 	0.0077	0.8301	0.4256	0.025
Mof_H 	H 	0.5165	0.875	0.4174	0.021
Mof_H 	H 	0.2712	0.9976	0.3024	0.037
Mof_H 	H 	0.3076	0.2395	0.6776	0.025
Mof_H 	H 	0.8485	0.2796	0.6301	0.018
Mof_H 	H 	0.2204	0.2869	0.5087	0.038
Mof_H 	H 	0.1984	0.2604	0.3145	0.025
Mof_H 	H 	0.6478	0.211	0.3623	0.013
Mof_H 	H 	0.2785	0.1992	0.4873	0.039
Mof_H 	H 	0.4258	0.192	0.7942	0.038
Mof_H 	H 	0.0635	0.0762	0.7885	0.016
Mof_H 	H 	0.5625	0.0699	0.7468	0.026
Mof_H 	H 	0.4333	0.4256	0.7443	0.025
Mof_H 	H 	0.9339	0.4174	0.7076	0.02
Mof_H 	H 	0.5736	0.3024	0.7	0.037
Mof_H 	H 	0.0148	0.3224	0.9171	0.026
Mof_H 	H 	0.5214	0.3699	0.9097	0.017
Mof_H 	H 	0.2709	0.4913	0.7956	0.039
Mof_H 	H 	0.4871	0.6855	0.5749	0.025
Mof_H 	H 	0.9899	0.6377	0.5733	0.012
Mof_H 	H 	0.2342	0.5127	0.6865	0.039
Mof_H 	H 	0.78	0.2058	0.9862	0.038
Mof_H 	H 	0.148	0.2115	0.8647	0.014
Mof_H 	H 	0.6907	0.2532	0.8167	0.026
Mof_H 	H 	0.8224	0.2557	0.1699	0.025
Mof_H 	H 	0.3585	0.2924	0.125	0.021
Mof_H 	H 	0.7264	0.3	0.0024	0.037
Mof_H 	H 	0.9319	0.9171	0.7605	0.029
Mof_H 	H 	0.4311	0.9097	0.7204	0.018
Mof_H 	H 	0.0665	0.7956	0.7131	0.039
Mof_H 	H 	0.062	0.5749	0.7396	0.027
Mof_H 	H 	0.5632	0.5733	0.789	0.013
Mof_H 	H 	0.9207	0.6865	0.8008	0.039
Mof_H 	H 	0.7662	0.9862	0.808	0.038
Mof_H 	H 	0.0127	0.8647	0.9238	0.011
Mof_H 	H 	0.5074	0.8167	0.9301	0.026
Mof_H 	H 	0.9923	0.1699	0.5744	0.025
Mof_H 	H 	0.4835	0.125	0.5826	0.021
Mof_H 	H 	0.7288	0.0024	0.6976	0.037
Mof_H 	H 	0.6924	0.7605	0.3224	0.025
Mof_H 	H 	0.1515	0.7204	0.3699	0.018
Mof_H 	H 	0.7796	0.7131	0.4913	0.038
Mof_H 	H 	0.8016	0.7396	0.6855	0.025
Mof_H 	H 	0.3522	0.789	0.6377	0.013
Mof_H 	H 	0.7215	0.8008	0.5127	0.039
Mof_H 	H 	0.5742	0.808	0.2058	0.038
Mof_H 	H 	0.9365	0.9238	0.2115	0.016
Mof_H 	H 	0.4375	0.9301	0.2532	0.026
Mof_H 	H 	0.5667	0.5744	0.2557	0.025
Mof_H 	H 	0.0661	0.5826	0.2924	0.02
Mof_H 	H 	0.4264	0.6976	0.3	0.037
Mof_C 	C 	0.05625	0.57939	0.17354	0.34
Mof_C 	C 	0.88366	0.59198	0.1492	-0.112
Mof_C 	C 	0.87964	0.64804	0.10092	0.084
Mof_C 	C 	0.5849	0.6194	0.1054	0.107
Mof_C 	C 	0.72812	0.54922	0.17256	0.076
Mof_C 	C 	0.44	0.4164	0.3395	0.347
Mof_C 	C 	0.6108	0.4035	0.3635	-0.115
Mof_C 	C 	0.6164	0.345	0.4094	0.085
Mof_C 	C 	0.906	0.3736	0.4101	0.115
Mof_C 	C 	0.7659	0.4461	0.344	0.078
Mof_C 	C 	0.4769	0.7548	0.0836	0.353
Mof_C 	C 	0.2933	0.7667	0.0958	-0.118
Mof_C 	C 	0.1795	0.7857	0.0545	0.08
Mof_C 	C 	0.968	0.7833	0.1244	0.116
Mof_C 	C 	0.2337	0.7584	0.1535	0.082
Mof_C 	C 	0.0145	0.7378	0.9286	0.337
Mof_C 	C 	0.1974	0.7257	0.9159	-0.116
Mof_C 	C 	0.2557	0.7336	0.859	0.084
Mof_C 	C 	0.5241	0.7114	0.8863	0.105
Mof_C 	C 	0.3128	0.7079	0.9572	0.08
Mof_C 	C 	0.22979	0.17354	0.24707	0.341
Mof_C 	C 	0.03286	0.1492	0.25882	-0.108
Mof_C 	C 	0.98056	0.10092	0.25104	0.077
Mof_C 	C 	0.6903	0.1054	0.2752	0.107
Mof_C 	C 	0.90068	0.17256	0.27822	0.072
Mof_C 	C 	0.7795	0.3395	0.2441	0.347
Mof_C 	C 	0.9743	0.3635	0.233	-0.113
Mof_C 	C 	0.0258	0.4094	0.2456	0.082
Mof_C 	C 	0.3161	0.4101	0.2163	0.113
Mof_C 	C 	0.1099	0.344	0.2099	0.077
Mof_C 	C 	0.5605	0.0836	0.1616	0.353
Mof_C 	C 	0.3891	0.0958	0.1375	-0.118
Mof_C 	C 	0.234	0.0545	0.1598	0.081
Mof_C 	C 	0.0924	0.1244	0.0923	0.117
Mof_C 	C 	0.3872	0.1535	0.0881	0.082
Mof_C 	C 	0.9431	0.9286	0.3336	0.346
Mof_C 	C 	0.1133	0.9159	0.3584	-0.119
Mof_C 	C 	0.1147	0.859	0.4074	0.086
Mof_C 	C 	0.4104	0.8863	0.4023	0.105
Mof_C 	C 	0.27	0.9572	0.3349	0.082
Mof_C 	C 	0.47686	0.24707	0.57939	0.343
Mof_C 	C 	0.29168	0.25882	0.59198	-0.114
Mof_C 	C 	0.2316	0.25104	0.64804	0.086
Mof_C 	C 	0.9655	0.2752	0.6194	0.105
Mof_C 	C 	0.1789	0.27822	0.54922	0.077
Mof_C 	C 	0.0236	0.2441	0.4164	0.347
Mof_C 	C 	0.2073	0.233	0.4035	-0.115
Mof_C 	C 	0.2714	0.2456	0.345	0.085
Mof_C 	C 	0.5324	0.2163	0.3736	0.114
Mof_C 	C 	0.3198	0.2099	0.4461	0.078
Mof_C 	C 	0.7221	0.1616	0.7548	0.353
Mof_C 	C 	0.5266	0.1375	0.7667	-0.117
Mof_C 	C 	0.3938	0.1598	0.7857	0.081
Mof_C 	C 	0.1847	0.0923	0.7833	0.111
Mof_C 	C 	0.4753	0.0881	0.7584	0.082
Mof_C 	C 	0.2767	0.3336	0.7378	0.345
Mof_C 	C 	0.4717	0.3584	0.7257	-0.118
Mof_C 	C 	0.5221	0.4074	0.7336	0.086
Mof_C 	C 	0.8127	0.4023	0.7114	0.105
Mof_C 	C 	0.6049	0.3349	0.7079	0.081
Mof_C 	C 	0.94375	0.42061	0.82646	0.34
Mof_C 	C 	0.11634	0.40802	0.8508	-0.112
Mof_C 	C 	0.12036	0.35196	0.89908	0.084
Mof_C 	C 	0.4151	0.3806	0.8946	0.107
Mof_C 	C 	0.27188	0.45078	0.82744	0.076
Mof_C 	C 	0.56	0.5836	0.6605	0.347
Mof_C 	C 	0.3892	0.5965	0.6365	-0.115
Mof_C 	C 	0.3836	0.655	0.5906	0.085
Mof_C 	C 	0.094	0.6264	0.5899	0.115
Mof_C 	C 	0.2341	0.5539	0.656	0.078
Mof_C 	C 	0.5231	0.2452	0.9164	0.353
Mof_C 	C 	0.7067	0.2333	0.9042	-0.118
Mof_C 	C 	0.8205	0.2143	0.9455	0.08
Mof_C 	C 	0.032	0.2167	0.8756	0.116
Mof_C 	C 	0.7663	0.2416	0.8465	0.082
Mof_C 	C 	0.9855	0.2622	0.0714	0.337
Mof_C 	C 	0.8026	0.2743	0.0841	-0.116
Mof_C 	C 	0.7443	0.2664	0.141	0.084
Mof_C 	C 	0.4759	0.2886	0.1137	0.105
Mof_C 	C 	0.6872	0.2921	0.0428	0.08
Mof_C 	C 	0.77021	0.82646	0.75293	0.341
Mof_C 	C 	0.96714	0.8508	0.74118	-0.108
Mof_C 	C 	0.01944	0.89908	0.74896	0.077
Mof_C 	C 	0.3097	0.8946	0.7248	0.107
Mof_C 	C 	0.09932	0.82744	0.72178	0.072
Mof_C 	C 	0.2205	0.6605	0.7559	0.347
Mof_C 	C 	0.0257	0.6365	0.767	-0.113
Mof_C 	C 	0.9742	0.5906	0.7544	0.082
Mof_C 	C 	0.6839	0.5899	0.7837	0.113
Mof_C 	C 	0.8901	0.656	0.7901	0.077
Mof_C 	C 	0.4395	0.9164	0.8384	0.353
Mof_C 	C 	0.6109	0.9042	0.8625	-0.118
Mof_C 	C 	0.766	0.9455	0.8402	0.081
Mof_C 	C 	0.9076	0.8756	0.9077	0.117
Mof_C 	C 	0.6128	0.8465	0.9119	0.082
Mof_C 	C 	0.0569	0.0714	0.6664	0.346
Mof_C 	C 	0.8867	0.0841	0.6416	-0.119
Mof_C 	C 	0.8853	0.141	0.5926	0.086
Mof_C 	C 	0.5896	0.1137	0.5977	0.105
Mof_C 	C 	0.73	0.0428	0.6651	0.082
Mof_C 	C 	0.52314	0.75293	0.42061	0.343
Mof_C 	C 	0.70832	0.74118	0.40802	-0.114
Mof_C 	C 	0.7684	0.74896	0.35196	0.086
Mof_C 	C 	0.0345	0.7248	0.3806	0.105
Mof_C 	C 	0.8211	0.72178	0.45078	0.077
Mof_C 	C 	0.9764	0.7559	0.5836	0.347
Mof_C 	C 	0.7927	0.767	0.5965	-0.115
Mof_C 	C 	0.7286	0.7544	0.655	0.085
Mof_C 	C 	0.4676	0.7837	0.6264	0.114
Mof_C 	C 	0.6802	0.7901	0.5539	0.078
Mof_C 	C 	0.2779	0.8384	0.2452	0.353
Mof_C 	C 	0.4734	0.8625	0.2333	-0.117
Mof_C 	C 	0.6062	0.8402	0.2143	0.081
Mof_C 	C 	0.8153	0.9077	0.2167	0.111
Mof_C 	C 	0.5247	0.9119	0.2416	0.082
Mof_C 	C 	0.7233	0.6664	0.2622	0.345
Mof_C 	C 	0.5283	0.6416	0.2743	-0.118
Mof_C 	C 	0.4779	0.5926	0.2664	0.086
Mof_C 	C 	0.1873	0.5977	0.2886	0.105
Mof_C 	C 	0.3951	0.6651	0.2921	0.081
Mof_N 	N 	0.73108	0.66301	0.07767	-0.218
Mof_N 	N 	0.57471	0.56335	0.15132	-0.148
Mof_N 	N 	0.76483	0.32978	0.43279	-0.219
Mof_N 	N 	0.91727	0.43134	0.36653	-0.145
Mof_N 	N 	0.06903	0.76673	0.16744	-0.221
Mof_N 	N 	0.0121	0.7935	0.068	-0.15
Mof_N 	N 	0.41991	0.72655	0.84292	-0.218
Mof_N 	N 	0.4797	0.7013	0.9425	-0.146
Mof_N 	N 	0.80875	0.07767	0.25932	-0.217
Mof_N 	N 	0.72603	0.15132	0.28533	-0.148
Mof_N 	N 	0.19762	0.43279	0.23743	-0.219
Mof_N 	N 	0.2838	0.36653	0.20213	-0.146
Mof_N 	N 	0.23647	0.16744	0.06583	-0.22
Mof_N 	N 	0.0801	0.068	0.1385	-0.148
Mof_N 	N 	0.26283	0.84292	0.43053	-0.219
Mof_N 	N 	0.4222	0.9425	0.3562	-0.146
Mof_N 	N 	0.06807	0.25932	0.66301	-0.217
Mof_N 	N 	0.01136	0.28533	0.56335	-0.148
Mof_N 	N 	0.43505	0.23743	0.32978	-0.219
Mof_N 	N 	0.48593	0.20213	0.43134	-0.146
Mof_N 	N 	0.3023	0.06583	0.76673	-0.219
Mof_N 	N 	0.2186	0.1385	0.7935	-0.148
Mof_N 	N 	0.69336	0.43053	0.72655	-0.219
Mof_N 	N 	0.7784	0.3562	0.7013	-0.146
Mof_N 	N 	0.26892	0.33699	0.92233	-0.218
Mof_N 	N 	0.42529	0.43665	0.84868	-0.148
Mof_N 	N 	0.23517	0.67022	0.56721	-0.219
Mof_N 	N 	0.08273	0.56866	0.63347	-0.145
Mof_N 	N 	0.93097	0.23327	0.83256	-0.221
Mof_N 	N 	0.9879	0.2065	0.932	-0.15
Mof_N 	N 	0.58009	0.27345	0.15708	-0.218
Mof_N 	N 	0.5203	0.2987	0.0575	-0.146
Mof_N 	N 	0.19125	0.92233	0.74068	-0.217
Mof_N 	N 	0.27397	0.84868	0.71467	-0.148
Mof_N 	N 	0.80238	0.56721	0.76257	-0.219
Mof_N 	N 	0.7162	0.63347	0.79787	-0.146
Mof_N 	N 	0.76353	0.83256	0.93417	-0.22
Mof_N 	N 	0.9199	0.932	0.8615	-0.148
Mof_N 	N 	0.73717	0.15708	0.56947	-0.219
Mof_N 	N 	0.5778	0.0575	0.6438	-0.146
Mof_N 	N 	0.93193	0.74068	0.33699	-0.217
Mof_N 	N 	0.98864	0.71467	0.43665	-0.148
Mof_N 	N 	0.56495	0.76257	0.67022	-0.219
Mof_N 	N 	0.51407	0.79787	0.56866	-0.146
Mof_N 	N 	0.6977	0.93417	0.23327	-0.219
Mof_N 	N 	0.7814	0.8615	0.2065	-0.148
Mof_N 	N 	0.30664	0.56947	0.27345	-0.219
Mof_N 	N 	0.2216	0.6438	0.2987	-0.146
Mof_O 	O 	0.03932	0.52891	0.22545	-0.387
Mof_O 	O 	0.19044	0.61605	0.14393	-0.285
Mof_O 	O 	0.45597	0.47028	0.29177	-0.388
Mof_O 	O 	0.3068	0.378	0.3659	-0.282
Mof_O 	O 	0.50923	0.75357	0.03398	-0.393
Mof_O 	O 	0.57534	0.74707	0.12075	-0.285
Mof_O 	O 	0.98384	0.7411	0.97738	-0.383
Mof_O 	O 	0.91158	0.74261	0.89297	-0.277
Mof_O 	O 	0.26477	0.22545	0.24564	-0.386
Mof_O 	O 	0.33437	0.14393	0.24002	-0.285
Mof_O 	O 	0.74774	0.29177	0.23795	-0.388
Mof_O 	O 	0.6727	0.3659	0.2561	-0.282
Mof_O 	O 	0.54321	0.03398	0.21245	-0.393
Mof_O 	O 	0.69609	0.12075	0.13218	-0.285
Mof_O 	O 	0.96122	0.97738	0.28152	-0.389
Mof_O 	O 	0.80455	0.89297	0.36442	-0.281
Mof_O 	O 	0.51041	0.24564	0.52891	-0.387
Mof_O 	O 	0.57439	0.24002	0.61605	-0.286
Mof_O 	O 	0.98569	0.23795	0.47028	-0.388
Mof_O 	O 	0.9288	0.2561	0.378	-0.282
Mof_O 	O 	0.75566	0.21245	0.75357	-0.393
Mof_O 	O 	0.82827	0.13218	0.74707	-0.285
Mof_O 	O 	0.24274	0.28152	0.7411	-0.388
Mof_O 	O 	0.16897	0.36442	0.74261	-0.28
Mof_O 	O 	0.96068	0.47109	0.77455	-0.387
Mof_O 	O 	0.80956	0.38395	0.85607	-0.285
Mof_O 	O 	0.54403	0.52972	0.70823	-0.388
Mof_O 	O 	0.6932	0.622	0.6341	-0.282
Mof_O 	O 	0.49077	0.24643	0.96602	-0.393
Mof_O 	O 	0.42466	0.25293	0.87925	-0.285
Mof_O 	O 	0.01616	0.2589	0.02262	-0.383
Mof_O 	O 	0.08842	0.25739	0.10703	-0.277
Mof_O 	O 	0.73523	0.77455	0.75436	-0.386
Mof_O 	O 	0.66563	0.85607	0.75998	-0.285
Mof_O 	O 	0.25226	0.70823	0.76205	-0.388
Mof_O 	O 	0.3273	0.6341	0.7439	-0.282
Mof_O 	O 	0.45679	0.96602	0.78755	-0.393
Mof_O 	O 	0.30391	0.87925	0.86782	-0.285
Mof_O 	O 	0.03878	0.02262	0.71848	-0.389
Mof_O 	O 	0.19545	0.10703	0.63558	-0.281
Mof_O 	O 	0.48959	0.75436	0.47109	-0.387
Mof_O 	O 	0.42561	0.75998	0.38395	-0.286
Mof_O 	O 	0.01431	0.76205	0.52972	-0.388
Mof_O 	O 	0.0712	0.7439	0.622	-0.282
Mof_O 	O 	0.24434	0.78755	0.24643	-0.393
Mof_O 	O 	0.17173	0.86782	0.25293	-0.285
Mof_O 	O 	0.75726	0.71848	0.2589	-0.388
Mof_O 	O 	0.83103	0.63558	0.25739	-0.28
_end
