data_functionalizedCrystal
_audit_creation_method	'EQeq! by Chris Wilmer'
_symmetry_space_group_name_H-M	'P1'
_symmetry_Int_Tables_number	1
_symmetry_cell_setting	triclinic
loop_
_symmetry_equiv_pos_as_xyz
  x,y,z
_cell_length_a	9.659
_cell_length_b	11.718
_cell_length_c	12.281
_cell_angle_alpha	90
_cell_angle_beta	99.2
_cell_angle_gamma	90
loop_
_atom_site_label
_atom_site_type_symbol
_atom_site_fract_x
_atom_site_fract_y
_atom_site_fract_z
_atom_site_charge
Mof_Gd	Gd	0.78595	0.4852	0.66865	1.765
Mof_Gd	Gd	0.71405	0.9852	0.83135	1.746
Mof_Gd	Gd	0.21405	0.5148	0.33135	1.764
Mof_Gd	Gd	0.28595	0.0148	0.16865	1.745
Mof_C 	C 	0.8014	0.2108	0.7062	0.254
Mof_C 	C 	0.7006	0.2546	0.7832	0.274
Mof_C 	C 	0.0629	0.4995	0.5475	0.278
Mof_C 	C 	0.4947	0.434	0.5001	0.273
Mof_C 	C 	0.6986	0.7108	0.7938	0.254
Mof_C 	C 	0.7994	0.7546	0.7168	0.275
Mof_C 	C 	0.4371	0.9995	0.9525	0.264
Mof_C 	C 	0.0053	0.934	0.9999	0.26
Mof_C 	C 	0.1986	0.7892	0.2938	0.254
Mof_C 	C 	0.2994	0.7454	0.2168	0.274
Mof_C 	C 	0.9371	0.5005	0.4525	0.278
Mof_C 	C 	0.5053	0.566	0.4999	0.273
Mof_C 	C 	0.3014	0.2892	0.2062	0.254
Mof_C 	C 	0.2006	0.2454	0.2832	0.275
Mof_C 	C 	0.5629	0.0005	0.0475	0.264
Mof_C 	C 	0.9947	0.066	0.0001	0.26
Mof_O 	O 	0.8603	0.2857	0.6561	-0.346
Mof_O 	O 	0.8173	0.1053	0.701	-0.344
Mof_O 	O 	0.6916	0.3605	0.794	-0.367
Mof_O 	O 	0.6345	0.1809	0.8277	-0.358
Mof_O 	O 	0.0334	0.4875	0.6429	-0.356
Mof_O 	O 	0.1814	0.5118	0.5225	-0.362
Mof_O 	O 	0.5845	0.382	0.5663	-0.352
Mof_O 	O 	0.398	0.39	0.4342	-0.347
Mof_O 	O 	0.6397	0.7857	0.8439	-0.347
Mof_O 	O 	0.6827	0.6053	0.799	-0.35
Mof_O 	O 	0.8084	0.8605	0.706	-0.367
Mof_O 	O 	0.8655	0.6809	0.6723	-0.364
Mof_O 	O 	0.4666	0.9875	0.8571	-0.353
Mof_O 	O 	0.3186	0.0118	0.9775	-0.344
Mof_O 	O 	0.9155	0.882	0.9337	-0.352
Mof_O 	O 	0.102	0.89	0.0658	-0.333
Mof_O 	O 	0.1397	0.7143	0.3439	-0.346
Mof_O 	O 	0.1827	0.8947	0.299	-0.344
Mof_O 	O 	0.3084	0.6395	0.206	-0.367
Mof_O 	O 	0.3655	0.8191	0.1723	-0.358
Mof_O 	O 	0.9666	0.5125	0.3571	-0.356
Mof_O 	O 	0.8186	0.4882	0.4775	-0.362
Mof_O 	O 	0.4155	0.618	0.4337	-0.352
Mof_O 	O 	0.602	0.61	0.5658	-0.347
Mof_O 	O 	0.3603	0.2143	0.1561	-0.347
Mof_O 	O 	0.3173	0.3947	0.201	-0.35
Mof_O 	O 	0.1916	0.1395	0.294	-0.367
Mof_O 	O 	0.1345	0.3191	0.3277	-0.364
Mof_O 	O 	0.5334	0.0125	0.1429	-0.353
Mof_O 	O 	0.6814	0.9882	0.0225	-0.344
Mof_O 	O 	0.0845	0.118	0.0663	-0.352
Mof_O 	O 	0.898	0.11	0.9342	-0.333
_end
