data_functionalizedCrystal
_audit_creation_method	'EQeq! by Chris Wilmer'
_symmetry_space_group_name_H-M	'P1'
_symmetry_Int_Tables_number	1
_symmetry_cell_setting	triclinic
loop_
_symmetry_equiv_pos_as_xyz
  x,y,z
_cell_length_a	8.5679
_cell_length_b	10.1868
_cell_length_c	10.8724
_cell_angle_alpha	66.791
_cell_angle_beta	69.316
_cell_angle_gamma	78.246
loop_
_atom_site_label
_atom_site_type_symbol
_atom_site_fract_x
_atom_site_fract_y
_atom_site_fract_z
_atom_site_charge
Mof_Yb	Yb	0.34563	0.56698	0.84361	1.571
Mof_Yb	Yb	0.65437	0.43302	0.15639	1.571
Mof_H 	H 	0.7948	0.3731	0.5146	0.052
Mof_H 	H 	0.9333	0.6594	0.6169	0.049
Mof_H 	H 	0.2859	0.1765	0.0165	0.012
Mof_H 	H 	0.7592	0.0311	0.9986	0.043
Mof_H 	H 	0.8535	0.8772	0.7286	0.05
Mof_H 	H 	0.2864	0.9538	0.4183	0.062
Mof_H 	H 	0.2052	0.6269	0.4854	0.053
Mof_H 	H 	0.0667	0.3406	0.3831	0.05
Mof_H 	H 	0.7141	0.8235	0.9835	0.013
Mof_H 	H 	0.2408	0.9689	0.0014	0.044
Mof_H 	H 	0.1465	0.1228	0.2714	0.05
Mof_H 	H 	0.7136	0.0462	0.5817	0.062
Mof_C 	C 	0.6608	0.5396	0.6673	0.306
Mof_C 	C 	0.8361	0.5182	0.5818	-0.061
Mof_C 	C 	0.8772	0.4238	0.5093	-0.031
Mof_C 	C 	0.9602	0.5947	0.5702	-0.032
Mof_C 	C 	0.5558	0.26	0.0181	0.457
Mof_C 	C 	0.5273	0.1265	0.0074	-0.125
Mof_C 	C 	0.3729	0.1058	0.0095	0.006
Mof_C 	C 	0.6544	0.0191	0.9988	-0.009
Mof_C 	C 	0.1718	0.7793	0.6857	0.312
Mof_C 	C 	0.0832	0.896	0.589	-0.056
Mof_C 	C 	0.9128	0.9264	0.6362	-0.024
Mof_C 	C 	0.1712	0.9718	0.4512	-0.025
Mof_C 	C 	0.3392	0.4604	0.3327	0.306
Mof_C 	C 	0.1639	0.4818	0.4182	-0.061
Mof_C 	C 	0.1228	0.5762	0.4907	-0.031
Mof_C 	C 	0.0398	0.4053	0.4298	-0.032
Mof_C 	C 	0.4442	0.74	0.9819	0.457
Mof_C 	C 	0.4727	0.8735	0.9926	-0.125
Mof_C 	C 	0.6271	0.8942	0.9905	0.006
Mof_C 	C 	0.3456	0.9809	0.0012	-0.009
Mof_C 	C 	0.8282	0.2207	0.3143	0.312
Mof_C 	C 	0.9168	0.104	0.411	-0.056
Mof_C 	C 	0.0872	0.0736	0.3638	-0.024
Mof_C 	C 	0.8288	0.0282	0.5488	-0.025
Mof_O 	O 	0.6298	0.6179	0.7417	-0.381
Mof_O 	O 	0.5456	0.4815	0.6672	-0.384
Mof_O 	O 	0.4703	0.3729	0.9719	-0.519
Mof_O 	O 	0.6585	0.2525	0.0785	-0.462
Mof_O 	O 	0.3265	0.7514	0.6357	-0.39
Mof_O 	O 	0.0927	0.7138	0.8092	-0.423
Mof_O 	O 	0.3702	0.3821	0.2583	-0.381
Mof_O 	O 	0.4544	0.5185	0.3328	-0.384
Mof_O 	O 	0.5297	0.6271	0.0281	-0.519
Mof_O 	O 	0.3415	0.7475	0.9215	-0.462
Mof_O 	O 	0.6735	0.2486	0.3643	-0.39
Mof_O 	O 	0.9073	0.2862	0.1908	-0.423
_end
