data_functionalizedCrystal
_audit_creation_method	'EQeq! by Chris Wilmer'
_symmetry_space_group_name_H-M	'P1'
_symmetry_Int_Tables_number	1
_symmetry_cell_setting	triclinic
loop_
_symmetry_equiv_pos_as_xyz
  x,y,z
_cell_length_a	9.4218
_cell_length_b	9.4218
_cell_length_c	15.6578
_cell_angle_alpha	90
_cell_angle_beta	90
_cell_angle_gamma	120
loop_
_atom_site_label
_atom_site_type_symbol
_atom_site_fract_x
_atom_site_fract_y
_atom_site_fract_z
_atom_site_charge
Mof_H 	H 	0.536	0.8824	0.0582	0.081
Mof_H 	H 	0.1176	0.6536	0.0582	0.081
Mof_H 	H 	0.3464	0.464	0.0582	0.081
Mof_H 	H 	0.464	0.1176	0.5582	0.08
Mof_H 	H 	0.8824	0.3464	0.5582	0.08
Mof_H 	H 	0.6536	0.536	0.5582	0.079
Mof_H 	H 	0.1176	0.464	0.0582	0.08
Mof_H 	H 	0.3464	0.8824	0.0582	0.08
Mof_H 	H 	0.536	0.6536	0.0582	0.08
Mof_H 	H 	0.8824	0.536	0.5582	0.079
Mof_H 	H 	0.6536	0.1176	0.5582	0.079
Mof_H 	H 	0.464	0.3464	0.5582	0.079
Mof_Cu	Cu	0.5488	0.0976	0.2005	0.872
Mof_Cl	Cl	0.5255	0.051	0.3496	-0.572
Mof_N 	N 	0.4215	0.843	0.1572	-0.142
Mof_C 	C 	0.41715	0.8343	0.0611	-0.068
Mof_Cu	Cu	0.9024	0.4512	0.2005	0.872
Mof_Cl	Cl	0.949	0.4745	0.3496	-0.572
Mof_N 	N 	0.157	0.5785	0.1572	-0.142
Mof_C 	C 	0.1657	0.58285	0.0611	-0.068
Mof_Cu	Cu	0.5488	0.4512	0.2005	0.872
Mof_Cl	Cl	0.5255	0.4745	0.3496	-0.572
Mof_N 	N 	0.4215	0.5785	0.1572	-0.142
Mof_C 	C 	0.41715	0.58285	0.0611	-0.068
Mof_Cu	Cu	0.4512	0.9024	0.7005	0.872
Mof_Cl	Cl	0.4745	0.949	0.8496	-0.575
Mof_N 	N 	0.5785	0.157	0.6572	-0.142
Mof_C 	C 	0.58285	0.1657	0.5611	-0.068
Mof_Cu	Cu	0.0976	0.5488	0.7005	0.872
Mof_Cl	Cl	0.051	0.5255	0.8496	-0.575
Mof_N 	N 	0.843	0.4215	0.6572	-0.142
Mof_C 	C 	0.8343	0.41715	0.5611	-0.068
Mof_Cu	Cu	0.4512	0.5488	0.7005	0.872
Mof_Cl	Cl	0.4745	0.5255	0.8496	-0.575
Mof_N 	N 	0.5785	0.4215	0.6572	-0.142
Mof_C 	C 	0.58285	0.41715	0.5611	-0.068
Mof_Cu	Cu	0.66667	0.33333	0.3902	0.877
Mof_Cu	Cu	0.33333	0.66667	0.8902	0.875
Mof_Cl	Cl	0.3828	0.1914	0.1427	-0.583
Mof_Cl	Cl	0.8086	0.1914	0.1427	-0.583
Mof_Cl	Cl	0.8086	0.6172	0.1427	-0.583
Mof_Cl	Cl	0.6172	0.8086	0.6427	-0.584
Mof_Cl	Cl	0.1914	0.8086	0.6427	-0.584
Mof_Cl	Cl	0.1914	0.3828	0.6427	-0.584
Mof_C 	C 	0.2509	0.7491	0.1874	-0.056
Mof_H 	H 	0.19315	0.80685	0.1737	0.069
Mof_H 	H 	0.25645	0.74355	0.2485	0.076
Mof_C 	C 	0.2509	0.5018	0.1874	-0.056
Mof_H 	H 	0.19315	0.3863	0.1737	0.069
Mof_H 	H 	0.25645	0.5129	0.2485	0.076
Mof_C 	C 	0.4982	0.7491	0.1874	-0.056
Mof_H 	H 	0.6137	0.80685	0.1737	0.069
Mof_H 	H 	0.4871	0.74355	0.2485	0.076
Mof_C 	C 	0.7491	0.2509	0.6874	-0.055
Mof_H 	H 	0.80685	0.19315	0.6737	0.068
Mof_H 	H 	0.74355	0.25645	0.7485	0.075
Mof_C 	C 	0.7491	0.4982	0.6874	-0.055
Mof_H 	H 	0.80685	0.6137	0.6737	0.068
Mof_H 	H 	0.74355	0.4871	0.7485	0.075
Mof_C 	C 	0.5018	0.2509	0.6874	-0.055
Mof_H 	H 	0.3863	0.19315	0.6737	0.068
Mof_H 	H 	0.5129	0.25645	0.7485	0.075
Mof_N 	N 	0.33333	0.66667	0.028	-0.135
Mof_N 	N 	0.66667	0.33333	0.528	-0.137
_end
