data_functionalizedCrystal
_audit_creation_method	'EQeq! by Chris Wilmer'
_symmetry_space_group_name_H-M	'P1'
_symmetry_Int_Tables_number	1
_symmetry_cell_setting	triclinic
loop_
_symmetry_equiv_pos_as_xyz
  x,y,z
_cell_length_a	8.0234
_cell_length_b	30.2439
_cell_length_c	15.328
_cell_angle_alpha	90
_cell_angle_beta	90
_cell_angle_gamma	90
loop_
_atom_site_label
_atom_site_type_symbol
_atom_site_fract_x
_atom_site_fract_y
_atom_site_fract_z
_atom_site_charge
Mof_Sm	Sm	0.43608	0.90701	0.7043	2.311
Mof_O 	O 	0.6573	0.86874	0.81759	-0.597
Mof_O 	O 	0.3913	0.04198	0.38552	-0.472
Mof_O 	O 	0.2543	0.95998	0.65063	-0.601
Mof_O 	O 	0.4882	0.8305	0.73235	-0.536
Mof_O 	O 	0.2364	0.09708	0.33781	-0.615
Mof_O 	O 	0.0013	0.96958	0.70828	-0.558
Mof_N 	N 	0.9254	0.08242	0.5601	-0.155
Mof_C 	C 	0.5963	0.83219	0.7916	0.429
Mof_C 	C 	0.1602	0.06078	0.4721	-0.191
Mof_C 	C 	0.0242	0.0879	0.4904	0.108
Mof_H 	H 	0.0002	0.1115	0.4514	-0.011
Mof_C 	C 	0.1191	0.97985	0.6584	0.555
Mof_C 	C 	0.2661	0.06641	0.3927	0.39
Mof_C 	C 	0.9585	0.04793	0.6123	0.128
Mof_H 	H 	0.8861	0.0427	0.6602	0.008
Mof_C 	C 	0.6482	0.78958	0.8328	-0.192
Mof_C 	C 	0.0925	0.01942	0.6003	-0.222
Mof_C 	C 	0.7424	0.78794	0.9089	0.128
Mof_H 	H 	0.7765	0.815	0.9347	-0.03
Mof_C 	C 	0.1959	0.02656	0.5298	0.134
Mof_H 	H 	0.2906	0.0083	0.5207	0.008
Mof_Sm	Sm	0.06392	0.09299	0.2043	2.293
Mof_O 	O 	0.8427	0.13126	0.31759	-0.599
Mof_O 	O 	0.1087	0.95802	0.88552	-0.468
Mof_O 	O 	0.2457	0.04002	0.15063	-0.603
Mof_O 	O 	0.0118	0.1695	0.23235	-0.545
Mof_O 	O 	0.2636	0.90292	0.83781	-0.614
Mof_O 	O 	0.4987	0.03042	0.20828	-0.563
Mof_N 	N 	0.5746	0.91758	0.0601	-0.156
Mof_C 	C 	0.9037	0.16781	0.2916	0.441
Mof_C 	C 	0.3398	0.93922	0.9721	-0.187
Mof_C 	C 	0.4758	0.9121	0.9904	0.109
Mof_H 	H 	0.4998	0.8885	0.9514	-0.009
Mof_C 	C 	0.3809	0.02015	0.1584	0.554
Mof_C 	C 	0.2339	0.93359	0.8927	0.39
Mof_C 	C 	0.5415	0.95207	0.1123	0.126
Mof_H 	H 	0.6139	0.9573	0.1602	0.009
Mof_C 	C 	0.8518	0.21042	0.3328	-0.195
Mof_C 	C 	0.4075	0.98058	0.1003	-0.22
Mof_C 	C 	0.7576	0.21206	0.4089	0.131
Mof_H 	H 	0.7235	0.185	0.4347	-0.03
Mof_C 	C 	0.3041	0.97344	0.0298	0.131
Mof_H 	H 	0.2094	0.9917	0.0207	0.008
Mof_Sm	Sm	0.56392	0.40701	0.2957	2.31
Mof_O 	O 	0.3427	0.36874	0.18241	-0.598
Mof_O 	O 	0.6087	0.54198	0.61448	-0.473
Mof_O 	O 	0.7457	0.45998	0.34937	-0.602
Mof_O 	O 	0.5118	0.3305	0.26765	-0.537
Mof_O 	O 	0.7636	0.59708	0.66219	-0.616
Mof_O 	O 	0.9987	0.46958	0.29172	-0.559
Mof_N 	N 	0.0746	0.58242	0.4399	-0.155
Mof_C 	C 	0.4037	0.33219	0.2084	0.429
Mof_C 	C 	0.8398	0.56078	0.5279	-0.19
Mof_C 	C 	0.9758	0.5879	0.5096	0.108
Mof_H 	H 	0.9998	0.6115	0.5486	-0.011
Mof_C 	C 	0.8809	0.47985	0.3416	0.554
Mof_C 	C 	0.7339	0.56641	0.6073	0.39
Mof_C 	C 	0.0415	0.54793	0.3877	0.126
Mof_H 	H 	0.1139	0.5427	0.3398	0.008
Mof_C 	C 	0.3518	0.28958	0.1672	-0.192
Mof_C 	C 	0.9075	0.51942	0.3997	-0.221
Mof_C 	C 	0.2576	0.28794	0.0911	0.128
Mof_H 	H 	0.2235	0.315	0.0653	-0.03
Mof_C 	C 	0.8041	0.52656	0.4702	0.134
Mof_H 	H 	0.7094	0.5083	0.4793	0.009
Mof_Sm	Sm	0.93608	0.59299	0.7957	2.294
Mof_O 	O 	0.1573	0.63126	0.68241	-0.599
Mof_O 	O 	0.8913	0.45802	0.11448	-0.468
Mof_O 	O 	0.7543	0.54002	0.84937	-0.603
Mof_O 	O 	0.9882	0.6695	0.76765	-0.545
Mof_O 	O 	0.7364	0.40292	0.16219	-0.614
Mof_O 	O 	0.5013	0.53042	0.79172	-0.563
Mof_N 	N 	0.4254	0.41758	0.9399	-0.156
Mof_C 	C 	0.0963	0.66781	0.7084	0.441
Mof_C 	C 	0.6602	0.43922	0.0279	-0.187
Mof_C 	C 	0.5242	0.4121	0.0096	0.109
Mof_H 	H 	0.5002	0.3885	0.0486	-0.009
Mof_C 	C 	0.6191	0.52015	0.8416	0.554
Mof_C 	C 	0.7661	0.43359	0.1073	0.39
Mof_C 	C 	0.4585	0.45207	0.8877	0.126
Mof_H 	H 	0.3861	0.4573	0.8398	0.009
Mof_C 	C 	0.1482	0.71042	0.6672	-0.195
Mof_C 	C 	0.5925	0.48058	0.8997	-0.22
Mof_C 	C 	0.2424	0.71206	0.5911	0.131
Mof_H 	H 	0.2765	0.685	0.5653	-0.03
Mof_C 	C 	0.6959	0.47344	0.9702	0.131
Mof_H 	H 	0.7906	0.4917	0.9793	0.008
Mof_Sm	Sm	0.56392	0.09299	0.2957	2.31
Mof_O 	O 	0.3427	0.13126	0.18241	-0.598
Mof_O 	O 	0.6087	0.95802	0.61448	-0.473
Mof_O 	O 	0.7457	0.04002	0.34937	-0.602
Mof_O 	O 	0.5118	0.1695	0.26765	-0.537
Mof_O 	O 	0.7636	0.90292	0.66219	-0.616
Mof_O 	O 	0.9987	0.03042	0.29172	-0.558
Mof_N 	N 	0.0746	0.91758	0.4399	-0.155
Mof_C 	C 	0.4037	0.16781	0.2084	0.429
Mof_C 	C 	0.8398	0.93922	0.5279	-0.191
Mof_C 	C 	0.9758	0.9121	0.5096	0.108
Mof_H 	H 	0.9998	0.8885	0.5486	-0.011
Mof_C 	C 	0.8809	0.02015	0.3416	0.555
Mof_C 	C 	0.7339	0.93359	0.6073	0.39
Mof_C 	C 	0.0415	0.95207	0.3877	0.128
Mof_H 	H 	0.1139	0.9573	0.3398	0.008
Mof_C 	C 	0.3518	0.21042	0.1672	-0.192
Mof_C 	C 	0.9075	0.98058	0.3997	-0.222
Mof_C 	C 	0.2576	0.21206	0.0911	0.128
Mof_H 	H 	0.2235	0.185	0.0653	-0.03
Mof_C 	C 	0.8041	0.97344	0.4702	0.134
Mof_H 	H 	0.7094	0.9917	0.4793	0.008
Mof_Sm	Sm	0.93608	0.90701	0.7957	2.293
Mof_O 	O 	0.1573	0.86874	0.68241	-0.599
Mof_O 	O 	0.8913	0.04198	0.11448	-0.468
Mof_O 	O 	0.7543	0.95998	0.84937	-0.603
Mof_O 	O 	0.9882	0.8305	0.76765	-0.545
Mof_O 	O 	0.7364	0.09708	0.16219	-0.614
Mof_O 	O 	0.5013	0.96958	0.79172	-0.563
Mof_N 	N 	0.4254	0.08242	0.9399	-0.156
Mof_C 	C 	0.0963	0.83219	0.7084	0.441
Mof_C 	C 	0.6602	0.06078	0.0279	-0.187
Mof_C 	C 	0.5242	0.0879	0.0096	0.109
Mof_H 	H 	0.5002	0.1115	0.0486	-0.009
Mof_C 	C 	0.6191	0.97985	0.8416	0.554
Mof_C 	C 	0.7661	0.06641	0.1073	0.39
Mof_C 	C 	0.4585	0.04793	0.8877	0.126
Mof_H 	H 	0.3861	0.0427	0.8398	0.009
Mof_C 	C 	0.1482	0.78958	0.6672	-0.195
Mof_C 	C 	0.5925	0.01942	0.8997	-0.22
Mof_C 	C 	0.2424	0.78794	0.5911	0.131
Mof_H 	H 	0.2765	0.815	0.5653	-0.03
Mof_C 	C 	0.6959	0.02656	0.9702	0.131
Mof_H 	H 	0.7906	0.0083	0.9793	0.008
Mof_Sm	Sm	0.43608	0.59299	0.7043	2.31
Mof_O 	O 	0.6573	0.63126	0.81759	-0.598
Mof_O 	O 	0.3913	0.45802	0.38552	-0.473
Mof_O 	O 	0.2543	0.54002	0.65063	-0.602
Mof_O 	O 	0.4882	0.6695	0.73235	-0.537
Mof_O 	O 	0.2364	0.40292	0.33781	-0.616
Mof_O 	O 	0.0013	0.53042	0.70828	-0.559
Mof_N 	N 	0.9254	0.41758	0.5601	-0.155
Mof_C 	C 	0.5963	0.66781	0.7916	0.429
Mof_C 	C 	0.1602	0.43922	0.4721	-0.19
Mof_C 	C 	0.0242	0.4121	0.4904	0.108
Mof_H 	H 	0.0002	0.3885	0.4514	-0.011
Mof_C 	C 	0.1191	0.52015	0.6584	0.554
Mof_C 	C 	0.2661	0.43359	0.3927	0.39
Mof_C 	C 	0.9585	0.45207	0.6123	0.126
Mof_H 	H 	0.8861	0.4573	0.6602	0.008
Mof_C 	C 	0.6482	0.71042	0.8328	-0.192
Mof_C 	C 	0.0925	0.48058	0.6003	-0.221
Mof_C 	C 	0.7424	0.71206	0.9089	0.128
Mof_H 	H 	0.7765	0.685	0.9347	-0.03
Mof_C 	C 	0.1959	0.47344	0.5298	0.134
Mof_H 	H 	0.2906	0.4917	0.5207	0.009
Mof_Sm	Sm	0.06392	0.40701	0.2043	2.294
Mof_O 	O 	0.8427	0.36874	0.31759	-0.599
Mof_O 	O 	0.1087	0.54198	0.88552	-0.468
Mof_O 	O 	0.2457	0.45998	0.15063	-0.603
Mof_O 	O 	0.0118	0.3305	0.23235	-0.545
Mof_O 	O 	0.2636	0.59708	0.83781	-0.614
Mof_O 	O 	0.4987	0.46958	0.20828	-0.563
Mof_N 	N 	0.5746	0.58242	0.0601	-0.156
Mof_C 	C 	0.9037	0.33219	0.2916	0.441
Mof_C 	C 	0.3398	0.56078	0.9721	-0.187
Mof_C 	C 	0.4758	0.5879	0.9904	0.109
Mof_H 	H 	0.4998	0.6115	0.9514	-0.009
Mof_C 	C 	0.3809	0.47985	0.1584	0.554
Mof_C 	C 	0.2339	0.56641	0.8927	0.39
Mof_C 	C 	0.5415	0.54793	0.1123	0.126
Mof_H 	H 	0.6139	0.5427	0.1602	0.009
Mof_C 	C 	0.8518	0.28958	0.3328	-0.195
Mof_C 	C 	0.4075	0.51942	0.1003	-0.22
Mof_C 	C 	0.7576	0.28794	0.4089	0.131
Mof_H 	H 	0.7235	0.315	0.4347	-0.03
Mof_C 	C 	0.3041	0.52656	0.0298	0.131
Mof_H 	H 	0.2094	0.5083	0.0207	0.008
Mof_N 	N 	0.7875	0.75	0.9478	-0.158
Mof_C 	C 	0.5986	0.75	0.7945	0.12
Mof_H 	H 	0.5322	0.75	0.7432	0.016
Mof_N 	N 	0.7125	0.25	0.4478	-0.157
Mof_C 	C 	0.9014	0.25	0.2945	0.125
Mof_H 	H 	0.9678	0.25	0.2432	0.019
Mof_N 	N 	0.2125	0.25	0.0522	-0.158
Mof_C 	C 	0.4014	0.25	0.2055	0.12
Mof_H 	H 	0.4678	0.25	0.2568	0.016
Mof_N 	N 	0.2875	0.75	0.5522	-0.157
Mof_C 	C 	0.0986	0.75	0.7055	0.125
Mof_H 	H 	0.0322	0.75	0.7568	0.019
_end
