# CIF file generated by openbabel 3.1.0, see https://openbabel.org
data_I
_chemical_name_common 'image0'
_cell_length_a 19.612
_cell_length_b 20.64
_cell_length_c 21.567
_cell_angle_alpha 115.922
_cell_angle_beta 98.944
_cell_angle_gamma 100.421
_space_group_name_H-M_alt 'P 1'
_space_group_name_Hall 'P 1'
loop_
    _symmetry_equiv_pos_as_xyz
    x,y,z
loop_
    _atom_site_label
    _atom_site_type_symbol
    _atom_site_fract_x
    _atom_site_fract_y
    _atom_site_fract_z
    _atom_site_occupancy
    C1       C        0.67850    0.28641    0.17239    1.000
    C2       C        0.67183    0.36059    0.22258    1.000
    C3       C        0.60432    0.37100    0.22630    1.000
    H1       H        0.56340    0.33060    0.19930    1.000
    C4       C        0.59758    0.44070    0.26960    1.000
    H2       H        0.55210    0.44650    0.27270    1.000
    C5       C        0.65733    0.50237    0.30878    1.000
    C6       C        0.72426    0.49072    0.30599    1.000
    H3       H        0.76510    0.53110    0.33310    1.000
    C7       C        0.73208    0.42107    0.26420    1.000
    H4       H        0.77780    0.41460    0.26390    1.000
    C8       C        0.64936    0.57864    0.34980    1.000
    C9       C        0.59780    0.59103    0.38910    1.000
    H5       H        0.56960    0.55150    0.39190    1.000
    C10      C        0.69020    0.63878    0.34726    1.000
    H6       H        0.72480    0.63160    0.32190    1.000
    C11      C        0.61503    0.10040    0.20089    1.000
    C12      C        0.61891    0.05400    0.23731    1.000
    C13      C        0.60940    0.97703    0.19917    1.000
    H7       H        0.60290    0.95380    0.14990    1.000
    C14      C        0.60969    0.93550    0.23434    1.000
    H8       H        0.60270    0.88410    0.20780    1.000
    C15      C        0.62003    0.96700    0.30845    1.000
    C16      C        0.62861    0.04520    0.34615    1.000
    H9       H        0.63450    0.06830    0.39530    1.000
    C17      C        0.62842    0.08750    0.31175    1.000
    H10      H        0.63460    0.13890    0.33790    1.000
    C18      C        0.62060    0.92200    0.34500    1.000
    C19      C        0.58590    0.84600    0.31060    1.000
    H11      H        0.56260    0.82240    0.26210    1.000
    C20      C        0.58470    0.80420    0.34600    1.000
    H12      H        0.55980    0.75350    0.32130    1.000
    C21      C        0.65560    0.95400    0.41650    1.000
    H13      H        0.68010    0.00480    0.44180    1.000
    C22      C        0.64884    0.07330    0.97359    1.000
    C23      C        0.64188    0.02697    0.89521    1.000
    C24      C        0.57593    0.99879    0.84651    1.000
    H14      H        0.53540    0.00820    0.86200    1.000
    C25      C        0.56978    0.95658    0.77461    1.000
    H15      H        0.52490    0.93760    0.74200    1.000
    C26      C        0.63012    0.94196    0.75007    1.000
    C27      C        0.69594    0.97100    0.80041    1.000
    H16      H        0.73680    0.96210    0.78520    1.000
    C28      C        0.70234    0.01232    0.87157    1.000
    H17      H        0.74710    0.03070    0.90440    1.000
    C29      C        0.62333    0.89982    0.67211    1.000
    C30      C        0.57610    0.90683    0.62191    1.000
    H18      H        0.54510    0.93610    0.63700    1.000
    C31      C        0.57380    0.87220    0.55130    1.000
    H19      H        0.54260    0.87940    0.51940    1.000
    C32      C        0.61770    0.82609    0.52650    1.000
    C33      C        0.66440    0.81659    0.57542    1.000
    H20      H        0.69410    0.78580    0.55980    1.000
    C34      C        0.66680    0.85243    0.64650    1.000
    H21      H        0.69800    0.84520    0.67850    1.000
    C35      C        0.61980    0.83650    0.41750    1.000
    C36      C        0.65440    0.91010    0.45120    1.000
    H22      H        0.67840    0.93290    0.49940    1.000
    C37      C        0.68090    0.70860    0.38107    1.000
    H23      H        0.70870    0.74790    0.37770    1.000
    C38      C        0.58920    0.66190    0.42360    1.000
    H24      H        0.55510    0.66980    0.44950    1.000
    C39      C        0.43710    0.07527    0.01469    1.000
    H25      H        0.45340    0.04720    0.97580    1.000
    C40      C        0.46082    0.16064    0.13517    1.000
    H26      H        0.49350    0.19080    0.17980    1.000
    C41      C        0.39140    0.15940    0.12840    1.000
    H27      H        0.37670    0.18930    0.16770    1.000
    C42      C        0.34127    0.11310    0.06220    1.000
    C43      C        0.36515    0.07072    0.00510    1.000
    H28      H        0.33290    0.03920    0.96040    1.000
    C44      C        0.16620    0.13530    0.08690    1.000
    C45      C        0.63080    0.72170    0.42018    1.000
    C46      C        0.04520    0.09470    0.01690    1.000
    H29      H        0.01040    0.06010    0.97480    1.000
    C47      C        0.11560    0.08620    0.02630    1.000
    H30      H        0.12660    0.04690    0.99070    1.000
    C48      C        0.07710    0.19120    0.12770    1.000
    H31      H        0.06440    0.22680    0.16520    1.000
    C49      C        0.14510    0.18460    0.13970    1.000
    H32      H        0.17710    0.21450    0.18480    1.000
    N1       N        0.48480    0.11968    0.07940    1.000
    N2       N        0.26440    0.10774    0.04831    1.000
    N3       N        0.24204    0.13570    0.10070    1.000
    N4       N        0.02750    0.14921    0.06484    1.000
    N5       N        0.61740    0.79324    0.45268    1.000
    O1       O        0.62091    0.23712    0.13162    1.000
    O2       O        0.74063    0.27883    0.17156    1.000
    O3       O        0.61709    0.06879    0.13482    1.000
    O4       O        0.71076    0.09930    0.01619    1.000
    O5       O        0.59171    0.08276    0.99123    1.000
    O6       O        0.60778    0.16385    0.23185    1.000
    Zn1      Zn       0.76475    0.20250    0.09087    1.000
    Zn2      Zn       0.59183    0.12918    0.09238    1.000
    C50      C        0.84987    0.11944    0.14100    1.000
    C51      C        0.85138    0.07372    0.17857    1.000
    C52      C        0.90360    0.03670    0.17750    1.000
    H33      H        0.93770    0.03990    0.15270    1.000
    C53      C        0.90560    0.99490    0.21280    1.000
    H34      H        0.94160    0.97100    0.21170    1.000
    C54      C        0.85603    0.98741    0.24968    1.000
    C55      C        0.85761    0.94154    0.28549    1.000
    C56      C        0.91370    0.91290    0.29330    1.000
    H35      H        0.95170    0.92270    0.27480    1.000
    C57      C        0.80180    0.92470    0.31500    1.000
    H36      H        0.76240    0.94320    0.31140    1.000
    C58      C        0.91380    0.29550    0.12490    1.000
    C59      C        0.90564    0.37170    0.16490    1.000
    C60      C        0.95410    0.42230    0.22860    1.000
    H37      H        0.99180    0.40840    0.24670    1.000
    C61      C        0.94770    0.49507    0.26730    1.000
    H38      H        0.98110    0.52870    0.31080    1.000
    C62      C        0.84480    0.46542    0.17710    1.000
    H39      H        0.80710    0.47910    0.15870    1.000
    C63      C        0.85140    0.39289    0.13892    1.000
    H40      H        0.81830    0.35900    0.09540    1.000
    C64      C        0.88607    0.59374    0.28320    1.000
    C65      C        0.91087    0.63549    0.35649    1.000
    H41      H        0.93310    0.61500    0.38190    1.000
    C66      C        0.90450    0.11390    0.91670    1.000
    C67      C        0.89590    0.06880    0.83860    1.000
    C68      C        0.88597    0.99190    0.80729    1.000
    H42      H        0.88270    0.96820    0.83520    1.000
    C69      C        0.88089    0.95005    0.73598    1.000
    H43      H        0.87480    0.89870    0.71680    1.000
    C70      C        0.88453    0.98206    0.69226    1.000
    C71      C        0.89320    0.05950    0.72330    1.000
    H44      H        0.89450    0.08280    0.69500    1.000
    C72      C        0.90000    0.10200    0.79600    1.000
    H45      H        0.90740    0.15360    0.81590    1.000
    C73      C        0.88044    0.93817    0.61614    1.000
    C74      C        0.84865    0.86026    0.57781    1.000
    H46      H        0.83050    0.83570    0.60160    1.000
    C75      C        0.84345    0.81896    0.50593    1.000
    H47      H        0.82120    0.76760    0.48200    1.000
    C76      C        0.87106    0.85339    0.46928    1.000
    C77      C        0.90310    0.93009    0.50575    1.000
    H48      H        0.92250    0.95380    0.48190    1.000
    C78      C        0.90640    0.97150    0.57680    1.000
    H49      H        0.92650    0.02320    0.59960    1.000
    C79      C        0.86080    0.85579    0.35601    1.000
    C80      C        0.91660    0.86960    0.32780    1.000
    H50      H        0.95550    0.85040    0.33170    1.000
    C81      C        0.80390    0.88240    0.34820    1.000
    H51      H        0.76560    0.87160    0.36600    1.000
    C82      C        0.87130    0.73944    0.35839    1.000
    C83      C        0.90375    0.70741    0.39380    1.000
    H52      H        0.92120    0.73390    0.44330    1.000
    C84      C        0.85260    0.62765    0.24796    1.000
    H53      H        0.83450    0.60140    0.19850    1.000
    C85      C        0.84610    0.69833    0.28493    1.000
    H54      H        0.82410    0.71940    0.25990    1.000
    C86      C        0.80183    0.06770    0.21480    1.000
    H55      H        0.76650    0.09250    0.21620    1.000
    C87      C        0.89370    0.51689    0.24191    1.000
    C88      C        0.80350    0.02490    0.24980    1.000
    H56      H        0.76870    0.02120    0.27390    1.000
    N6       N        0.86406    0.81342    0.39400    1.000
    O7       O        0.80912    0.16155    0.15241    1.000
    O8       O        0.85997    0.24244    0.07711    1.000
    O9       O        0.97289    0.28247    0.13449    1.000
    O10      O        0.88535    0.08020    0.95058    1.000
    O11      O        0.89068    0.11106    0.10019    1.000
    O12      O        0.93198    0.18225    0.94797    1.000
    Zn3      Zn       0.92633    0.16493    0.05037    1.000
    C89      C        0.32150    0.71359    0.82761    1.000
    C90      C        0.32817    0.63941    0.77742    1.000
    C91      C        0.39568    0.62900    0.77370    1.000
    H57      H        0.43660    0.66940    0.80070    1.000
    C92      C        0.40242    0.55930    0.73040    1.000
    H58      H        0.44790    0.55350    0.72730    1.000
    C93      C        0.34267    0.49763    0.69122    1.000
    C94      C        0.27574    0.50928    0.69401    1.000
    H59      H        0.23490    0.46890    0.66690    1.000
    C95      C        0.26792    0.57893    0.73580    1.000
    H60      H        0.22220    0.58540    0.73610    1.000
    C96      C        0.35064    0.42136    0.65020    1.000
    C97      C        0.40220    0.40897    0.61090    1.000
    H61      H        0.43040    0.44850    0.60810    1.000
    C98      C        0.30980    0.36122    0.65274    1.000
    H62      H        0.27520    0.36840    0.67810    1.000
    C99      C        0.38497    0.89960    0.79911    1.000
    C100     C        0.38109    0.94600    0.76269    1.000
    C101     C        0.39060    0.02297    0.80083    1.000
    H63      H        0.39710    0.04620    0.85010    1.000
    C102     C        0.39031    0.06450    0.76566    1.000
    H64      H        0.39730    0.11590    0.79220    1.000
    C103     C        0.37997    0.03300    0.69155    1.000
    C104     C        0.37139    0.95480    0.65385    1.000
    H65      H        0.36550    0.93170    0.60470    1.000
    C105     C        0.37158    0.91250    0.68825    1.000
    H66      H        0.36540    0.86110    0.66210    1.000
    C106     C        0.37940    0.07800    0.65500    1.000
    C107     C        0.41410    0.15400    0.68940    1.000
    H67      H        0.43740    0.17760    0.73790    1.000
    C108     C        0.41530    0.19580    0.65400    1.000
    H68      H        0.44020    0.24650    0.67870    1.000
    C109     C        0.34440    0.04600    0.58350    1.000
    H69      H        0.31990    0.99520    0.55820    1.000
    C110     C        0.35116    0.92670    0.02641    1.000
    C111     C        0.35812    0.97303    0.10479    1.000
    C112     C        0.42407    0.00121    0.15349    1.000
    H70      H        0.46460    0.99180    0.13800    1.000
    C113     C        0.43022    0.04342    0.22539    1.000
    H71      H        0.47510    0.06240    0.25800    1.000
    C114     C        0.36988    0.05804    0.24993    1.000
    C115     C        0.30406    0.02900    0.19959    1.000
    H72      H        0.26320    0.03790    0.21480    1.000
    C116     C        0.29766    0.98768    0.12843    1.000
    H73      H        0.25290    0.96930    0.09560    1.000
    C117     C        0.37667    0.10018    0.32789    1.000
    C118     C        0.42390    0.09317    0.37809    1.000
    H74      H        0.45490    0.06390    0.36300    1.000
    C119     C        0.42620    0.12780    0.44870    1.000
    H75      H        0.45740    0.12060    0.48060    1.000
    C120     C        0.38230    0.17391    0.47350    1.000
    C121     C        0.33560    0.18341    0.42458    1.000
    H76      H        0.30590    0.21420    0.44020    1.000
    C122     C        0.33320    0.14757    0.35350    1.000
    H77      H        0.30200    0.15480    0.32150    1.000
    C123     C        0.38020    0.16350    0.58250    1.000
    C124     C        0.34560    0.08990    0.54880    1.000
    H78      H        0.32160    0.06710    0.50060    1.000
    C125     C        0.31910    0.29140    0.61893    1.000
    H79      H        0.29130    0.25210    0.62230    1.000
    C126     C        0.41080    0.33810    0.57640    1.000
    H80      H        0.44490    0.33020    0.55050    1.000
    C127     C        0.56290    0.92473    0.98531    1.000
    H81      H        0.54660    0.95280    0.02420    1.000
    C128     C        0.53918    0.83936    0.86483    1.000
    H82      H        0.50650    0.80920    0.82020    1.000
    C129     C        0.60860    0.84060    0.87160    1.000
    H83      H        0.62330    0.81070    0.83230    1.000
    C130     C        0.65873    0.88690    0.93780    1.000
    C131     C        0.63485    0.92928    0.99490    1.000
    H84      H        0.66710    0.96080    0.03960    1.000
    C132     C        0.83380    0.86470    0.91310    1.000
    C133     C        0.36920    0.27830    0.57982    1.000
    C134     C        0.95480    0.90530    0.98310    1.000
    H85      H        0.98960    0.93990    0.02520    1.000
    C135     C        0.88440    0.91380    0.97370    1.000
    H86      H        0.87340    0.95310    0.00930    1.000
    C136     C        0.92290    0.80880    0.87230    1.000
    H87      H        0.93560    0.77320    0.83480    1.000
    C137     C        0.85490    0.81540    0.86030    1.000
    H88      H        0.82290    0.78550    0.81520    1.000
    N7       N        0.51520    0.88032    0.92060    1.000
    N8       N        0.73560    0.89226    0.95169    1.000
    N9       N        0.75796    0.86430    0.89930    1.000
    N10      N        0.97250    0.85079    0.93516    1.000
    N11      N        0.38260    0.20676    0.54732    1.000
    O13      O        0.37909    0.76288    0.86838    1.000
    O14      O        0.25937    0.72117    0.82844    1.000
    O15      O        0.38291    0.93121    0.86518    1.000
    O16      O        0.28924    0.90070    0.98381    1.000
    O17      O        0.40829    0.91724    0.00877    1.000
    O18      O        0.39222    0.83615    0.76815    1.000
    Zn4      Zn       0.23525    0.79750    0.90913    1.000
    Zn5      Zn       0.40817    0.87082    0.90762    1.000
    C138     C        0.15013    0.88056    0.85900    1.000
    C139     C        0.14862    0.92628    0.82143    1.000
    C140     C        0.09640    0.96330    0.82250    1.000
    H89      H        0.06230    0.96010    0.84730    1.000
    C141     C        0.09440    0.00510    0.78720    1.000
    H90      H        0.05840    0.02900    0.78830    1.000
    C142     C        0.14397    0.01259    0.75032    1.000
    C143     C        0.14239    0.05846    0.71451    1.000
    C144     C        0.08630    0.08710    0.70670    1.000
    H91      H        0.04830    0.07730    0.72520    1.000
    C145     C        0.19820    0.07530    0.68500    1.000
    H92      H        0.23760    0.05680    0.68860    1.000
    C146     C        0.08620    0.70450    0.87510    1.000
    C147     C        0.09436    0.62830    0.83510    1.000
    C148     C        0.04590    0.57770    0.77140    1.000
    H93      H        0.00820    0.59160    0.75330    1.000
    C149     C        0.05230    0.50493    0.73270    1.000
    H94      H        0.01890    0.47130    0.68920    1.000
    C150     C        0.15520    0.53458    0.82290    1.000
    H95      H        0.19290    0.52090    0.84130    1.000
    C151     C        0.14860    0.60711    0.86108    1.000
    H96      H        0.18170    0.64100    0.90460    1.000
    C152     C        0.11393    0.40626    0.71680    1.000
    C153     C        0.08913    0.36451    0.64351    1.000
    H97      H        0.06690    0.38500    0.61810    1.000
    C154     C        0.09550    0.88610    0.08330    1.000
    C155     C        0.10410    0.93120    0.16140    1.000
    C156     C        0.11403    0.00810    0.19271    1.000
    H98      H        0.11730    0.03180    0.16480    1.000
    C157     C        0.11911    0.04995    0.26402    1.000
    H99      H        0.12520    0.10130    0.28320    1.000
    C158     C        0.11547    0.01794    0.30774    1.000
    C159     C        0.10680    0.94050    0.27670    1.000
    H100     H        0.10550    0.91720    0.30500    1.000
    C160     C        0.10000    0.89800    0.20400    1.000
    H101     H        0.09260    0.84640    0.18410    1.000
    C161     C        0.11956    0.06183    0.38386    1.000
    C162     C        0.15135    0.13974    0.42219    1.000
    H102     H        0.16950    0.16430    0.39840    1.000
    C163     C        0.15655    0.18104    0.49407    1.000
    H103     H        0.17880    0.23240    0.51800    1.000
    C164     C        0.12894    0.14661    0.53072    1.000
    C165     C        0.09690    0.06991    0.49425    1.000
    H104     H        0.07750    0.04620    0.51810    1.000
    C166     C        0.09360    0.02850    0.42320    1.000
    H105     H        0.07350    0.97680    0.40040    1.000
    C167     C        0.13920    0.14421    0.64399    1.000
    C168     C        0.08340    0.13040    0.67220    1.000
    H106     H        0.04450    0.14960    0.66830    1.000
    C169     C        0.19610    0.11760    0.65180    1.000
    H107     H        0.23440    0.12840    0.63400    1.000
    C170     C        0.12870    0.26056    0.64161    1.000
    C171     C        0.09625    0.29259    0.60620    1.000
    H108     H        0.07880    0.26610    0.55670    1.000
    C172     C        0.14740    0.37235    0.75204    1.000
    H109     H        0.16550    0.39860    0.80150    1.000
    C173     C        0.15390    0.30167    0.71507    1.000
    H110     H        0.17590    0.28060    0.74010    1.000
    C174     C        0.19817    0.93230    0.78520    1.000
    H111     H        0.23350    0.90750    0.78380    1.000
    C175     C        0.10630    0.48311    0.75809    1.000
    C176     C        0.19650    0.97510    0.75020    1.000
    H112     H        0.23130    0.97880    0.72610    1.000
    N12      N        0.13594    0.18658    0.60600    1.000
    O19      O        0.19088    0.83845    0.84759    1.000
    O20      O        0.14003    0.75756    0.92289    1.000
    O21      O        0.02711    0.71753    0.86551    1.000
    O22      O        0.11465    0.91980    0.04942    1.000
    O23      O        0.10932    0.88894    0.89981    1.000
    O24      O        0.06802    0.81775    0.05203    1.000
    Zn6      Zn       0.07367    0.83507    0.94963    1.000
