# CIF file generated by openbabel 3.1.0, see https://openbabel.org
data_I
_chemical_name_common 'image0'
_cell_length_a 5.1161
_cell_length_b 10.8239
_cell_length_c 15.2598
_cell_angle_alpha 82.99
_cell_angle_beta 85.885
_cell_angle_gamma 83.05
_space_group_name_H-M_alt 'P 1'
_space_group_name_Hall 'P 1'
loop_
    _symmetry_equiv_pos_as_xyz
    x,y,z
loop_
    _atom_site_label
    _atom_site_type_symbol
    _atom_site_fract_x
    _atom_site_fract_y
    _atom_site_fract_z
    _atom_site_occupancy
    C1       C        0.98340    0.62876    0.48889    1.000
    H1       H        0.97080    0.71770    0.48130    1.000
    C2       C        0.08230    0.56412    0.56694    1.000
    C3       C        0.09730    0.43225    0.57818    1.000
    C4       C        0.18580    0.35482    0.66115    1.000
    C5       C        0.41090    0.26833    0.65918    1.000
    H2       H        0.50250    0.25400    0.60430    1.000
    C6       C        0.50170    0.20282    0.73773    1.000
    H3       H        0.65860    0.14620    0.73640    1.000
    C7       C        0.36350    0.22007    0.81785    1.000
    C8       C        0.13200    0.30211    0.81946    1.000
    H4       H        0.03250    0.31130    0.87370    1.000
    C9       C        0.04630    0.37062    0.74161    1.000
    H5       H        0.89150    0.42860    0.74330    1.000
    C10      C        0.46740    0.15452    0.90324    1.000
    C11      C        0.16840    0.63697    0.63547    1.000
    C12      C        0.39790    0.59565    0.67927    1.000
    H6       H        0.51000    0.52510    0.66210    1.000
    C13      C        0.46350    0.65680    0.74765    1.000
    H7       H        0.61960    0.62770    0.77760    1.000
    C14      C        0.30080    0.76137    0.77277    1.000
    C15      C        0.07790    0.80704    0.72628    1.000
    H8       H        0.97050    0.88010    0.74160    1.000
    C16      C        0.01300    0.74548    0.65744    1.000
    H9       H        0.86250    0.77730    0.62520    1.000
    C17      C        0.35480    0.82222    0.85110    1.000
    O1       O        0.30340    0.14723    0.97079    1.000
    O2       O        0.70470    0.11340    0.90431    1.000
    O3       O        0.19780    0.90318    0.88093    1.000
    O4       O        0.58100    0.77941    0.88467    1.000
    H10      H        0.60040    0.81700    0.92840    1.000
    C18      C        0.01660    0.37124    0.51111    1.000
    H11      H        0.02920    0.28230    0.51870    1.000
    C19      C        0.91770    0.43588    0.43306    1.000
    C20      C        0.90270    0.56775    0.42182    1.000
    C21      C        0.81420    0.64518    0.33885    1.000
    C22      C        0.58910    0.73167    0.34082    1.000
    H12      H        0.49750    0.74600    0.39570    1.000
    C23      C        0.49830    0.79718    0.26227    1.000
    H13      H        0.34140    0.85380    0.26360    1.000
    C24      C        0.63650    0.77993    0.18215    1.000
    C25      C        0.86800    0.69789    0.18054    1.000
    H14      H        0.96750    0.68870    0.12630    1.000
    C26      C        0.95370    0.62938    0.25839    1.000
    H15      H        0.10850    0.57140    0.25670    1.000
    C27      C        0.53260    0.84548    0.09676    1.000
    C28      C        0.83160    0.36303    0.36453    1.000
    C29      C        0.60210    0.40435    0.32073    1.000
    H16      H        0.49000    0.47490    0.33790    1.000
    C30      C        0.53650    0.34320    0.25235    1.000
    H17      H        0.38040    0.37230    0.22240    1.000
    C31      C        0.69920    0.23863    0.22723    1.000
    C32      C        0.92210    0.19296    0.27372    1.000
    H18      H        0.02950    0.11990    0.25840    1.000
    C33      C        0.98700    0.25452    0.34256    1.000
    H19      H        0.13750    0.22270    0.37480    1.000
    C34      C        0.64520    0.17778    0.14890    1.000
    O5       O        0.69660    0.85277    0.02921    1.000
    O6       O        0.29530    0.88660    0.09569    1.000
    O7       O        0.80220    0.09682    0.11907    1.000
    O8       O        0.41900    0.22059    0.11533    1.000
    H20      H        0.39960    0.18300    0.07160    1.000
    Ca1      Ca       0.00000    0.00000    0.00000    1.000
