data_functionalizedCrystal
_audit_creation_method	'EQeq! by Chris Wilmer'
_symmetry_space_group_name_H-M	'P1'
_symmetry_Int_Tables_number	1
_symmetry_cell_setting	triclinic
loop_
_symmetry_equiv_pos_as_xyz
  x,y,z
_cell_length_a	8.589
_cell_length_b	14.02
_cell_length_c	16.606
_cell_angle_alpha	90
_cell_angle_beta	97.19
_cell_angle_gamma	90
loop_
_atom_site_label
_atom_site_type_symbol
_atom_site_fract_x
_atom_site_fract_y
_atom_site_fract_z
_atom_site_charge
Mof_Zn	Zn	0.17309	0.22906	0.65468	1.238
Mof_Zn	Zn	0.66617	0.40087	0.48445	1.231
Mof_Zn	Zn	0.53676	0.13505	0.44625	1.231
Mof_P 	P 	0.8372	0.22568	0.55754	0.452
Mof_H 	H 	0.762	0.2174	0.625	-0.054
Mof_P 	P 	0.3281	0.37392	0.54406	0.461
Mof_H 	H 	0.274	0.308	0.491	-0.051
Mof_P 	P 	0.527	0.29592	0.31777	0.418
Mof_H 	H 	0.412	0.349	0.267	-0.028
Mof_P 	P 	0.6616	0.9375	0.4123	0.213
Mof_O 	O 	0.746	0.1676	0.4911	-0.467
Mof_O 	O 	0.8436	0.3308	0.5378	-0.444
Mof_O 	O 	0.0009	0.1852	0.5793	-0.435
Mof_O 	O 	0.2696	0.348	0.6238	-0.418
Mof_O 	O 	0.2615	0.4683	0.5121	-0.443
Mof_O 	O 	0.5044	0.3694	0.5505	-0.485
Mof_O 	O 	0.6288	0.3681	0.3693	-0.441
Mof_O 	O 	0.621	0.24	0.2616	-0.432
Mof_O 	O 	0.4379	0.2299	0.3697	-0.433
Mof_O 	O 	0.5492	0.0182	0.3847	-0.454
Mof_O 	O 	0.6164	0.8773	0.4795	-0.484
Mof_O 	O 	0.6797	0.8758	0.3361	-0.425
Mof_P 	P 	0.5653	0.9167	0.3917	0.253
Mof_Zn	Zn	0.32691	0.72906	0.84532	1.237
Mof_Zn	Zn	0.83383	0.90087	0.01555	1.225
Mof_Zn	Zn	0.96324	0.63505	0.05375	1.228
Mof_P 	P 	0.6628	0.72568	0.94246	0.453
Mof_H 	H 	0.738	0.7174	0.875	-0.053
Mof_P 	P 	0.1719	0.87392	0.95594	0.459
Mof_H 	H 	0.226	0.808	0.009	-0.052
Mof_P 	P 	0.973	0.79592	0.18223	0.409
Mof_H 	H 	0.088	0.849	0.233	-0.025
Mof_P 	P 	0.8384	0.4375	0.0877	0.217
Mof_O 	O 	0.754	0.6676	0.0089	-0.472
Mof_O 	O 	0.6564	0.8308	0.9622	-0.441
Mof_O 	O 	0.4991	0.6852	0.9207	-0.431
Mof_O 	O 	0.2304	0.848	0.8762	-0.417
Mof_O 	O 	0.2385	0.9683	0.9879	-0.439
Mof_O 	O 	0.9956	0.8694	0.9495	-0.479
Mof_O 	O 	0.8712	0.8681	0.1307	-0.445
Mof_O 	O 	0.879	0.74	0.2384	-0.432
Mof_O 	O 	0.0621	0.7299	0.1303	-0.428
Mof_O 	O 	0.9508	0.5182	0.1153	-0.458
Mof_O 	O 	0.8836	0.3773	0.0205	-0.484
Mof_O 	O 	0.8203	0.3758	0.1639	-0.424
Mof_P 	P 	0.9347	0.4167	0.1083	0.251
Mof_Zn	Zn	0.82691	0.77094	0.34532	1.237
Mof_Zn	Zn	0.33383	0.59913	0.51555	1.23
Mof_Zn	Zn	0.46324	0.86495	0.55375	1.23
Mof_P 	P 	0.1628	0.77432	0.44246	0.451
Mof_H 	H 	0.238	0.7826	0.375	-0.054
Mof_P 	P 	0.6719	0.62608	0.45594	0.461
Mof_H 	H 	0.726	0.692	0.509	-0.051
Mof_P 	P 	0.473	0.70408	0.68223	0.418
Mof_H 	H 	0.588	0.651	0.733	-0.028
Mof_P 	P 	0.3384	0.0625	0.5877	0.213
Mof_O 	O 	0.254	0.8324	0.5089	-0.467
Mof_O 	O 	0.1564	0.6692	0.4622	-0.444
Mof_O 	O 	0.9991	0.8148	0.4207	-0.435
Mof_O 	O 	0.7304	0.652	0.3762	-0.418
Mof_O 	O 	0.7385	0.5317	0.4879	-0.443
Mof_O 	O 	0.4956	0.6306	0.4495	-0.485
Mof_O 	O 	0.3712	0.6319	0.6307	-0.441
Mof_O 	O 	0.379	0.76	0.7384	-0.432
Mof_O 	O 	0.5621	0.7701	0.6303	-0.433
Mof_O 	O 	0.4508	0.9818	0.6153	-0.454
Mof_O 	O 	0.3836	0.1227	0.5205	-0.484
Mof_O 	O 	0.3203	0.1242	0.6639	-0.425
Mof_P 	P 	0.4347	0.0833	0.6083	0.253
Mof_Zn	Zn	0.67309	0.27094	0.15468	1.237
Mof_Zn	Zn	0.16617	0.09913	0.98445	1.225
Mof_Zn	Zn	0.03676	0.36495	0.94625	1.228
Mof_P 	P 	0.3372	0.27432	0.05754	0.453
Mof_H 	H 	0.262	0.2826	0.125	-0.053
Mof_P 	P 	0.8281	0.12608	0.04406	0.459
Mof_H 	H 	0.774	0.192	0.991	-0.052
Mof_P 	P 	0.027	0.20408	0.81777	0.409
Mof_H 	H 	0.912	0.151	0.767	-0.025
Mof_P 	P 	0.1616	0.5625	0.9123	0.217
Mof_O 	O 	0.246	0.3324	0.9911	-0.472
Mof_O 	O 	0.3436	0.1692	0.0378	-0.441
Mof_O 	O 	0.5009	0.3148	0.0793	-0.431
Mof_O 	O 	0.7696	0.152	0.1238	-0.417
Mof_O 	O 	0.7615	0.0317	0.0121	-0.439
Mof_O 	O 	0.0044	0.1306	0.0505	-0.479
Mof_O 	O 	0.1288	0.1319	0.8693	-0.445
Mof_O 	O 	0.121	0.26	0.7616	-0.432
Mof_O 	O 	0.9379	0.2701	0.8697	-0.428
Mof_O 	O 	0.0492	0.4818	0.8847	-0.458
Mof_O 	O 	0.1164	0.6227	0.9795	-0.484
Mof_O 	O 	0.1797	0.6242	0.8361	-0.424
Mof_P 	P 	0.0653	0.5833	0.8917	0.251
_end
