data_functionalizedCrystal
_audit_creation_method	'EQeq! by Chris Wilmer'
_symmetry_space_group_name_H-M	'P1'
_symmetry_Int_Tables_number	1
_symmetry_cell_setting	triclinic
loop_
_symmetry_equiv_pos_as_xyz
  x,y,z
_cell_length_a	41.5112
_cell_length_b	41.4556
_cell_length_c	31.1677
_cell_angle_alpha	90
_cell_angle_beta	109.408
_cell_angle_gamma	90
loop_
_atom_site_label
_atom_site_type_symbol
_atom_site_fract_x
_atom_site_fract_y
_atom_site_fract_z
_atom_site_charge
Mof_Cu	Cu	0.98836	0.98185	0.52629	0.906
Mof_Cu	Cu	0.73847	0.26819	0.02631	0.906
Mof_Cu	Cu	0.64982	0.85682	0.02637	0.906
Mof_Cu	Cu	0.60028	0.89317	0.97376	0.909
Mof_C 	C 	0.00677	0.81251	0.27559	-0.048
Mof_C 	C 	0.00059	0.83898	0.2991	0.14
Mof_C 	C 	0.01227	0.83906	0.34638	-0.082
Mof_C 	C 	0.03014	0.81266	0.37016	0.005
Mof_H 	H 	0.038	0.8127	0.4021	0.033
Mof_C 	C 	0.03632	0.78618	0.34666	-0.083
Mof_C 	C 	0.02463	0.7861	0.29937	0.138
Mof_C 	C 	0.001	0.9514	0.4523	0.362
Mof_C 	C 	0.05272	0.75626	0.373	0.119
Mof_C 	C 	0.03951	0.72566	0.35962	-0.147
Mof_H 	H 	0.0201	0.7231	0.3336	0.11
Mof_C 	C 	0.05499	0.69879	0.3847	0.071
Mof_H 	H 	0.0461	0.6781	0.3757	0.031
Mof_C 	C 	0.08369	0.70251	0.4232	-0.123
Mof_C 	C 	0.09691	0.73311	0.43659	0.069
Mof_H 	H 	0.1163	0.7356	0.4626	0.027
Mof_C 	C 	0.08142	0.75999	0.4115	-0.149
Mof_H 	H 	0.0904	0.7807	0.4206	0.088
Mof_C 	C 	0.099	0.6733	0.4513	0.365
Mof_C 	C 	0.00874	0.86837	0.373	0.12
Mof_C 	C 	0.01542	0.8989	0.35952	-0.148
Mof_H 	H 	0.0217	0.9013	0.3334	0.117
Mof_C 	C 	0.01283	0.92584	0.3847	0.069
Mof_H 	H 	0.0173	0.9465	0.3756	0.034
Mof_C 	C 	0.00356	0.92225	0.4234	-0.115
Mof_C 	C 	0.99688	0.89172	0.43689	0.063
Mof_H 	H 	0.9906	0.8893	0.4631	0.029
Mof_C 	C 	0.99947	0.86478	0.4117	-0.148
Mof_H 	H 	0.995	0.8441	0.4208	0.088
Mof_C 	C 	0.6505	0.9227	0.0481	0.376
Mof_C 	C 	0.73695	0.08919	0.153	-0.092
Mof_C 	C 	0.72	0.06228	0.12957	0.012
Mof_H 	H 	0.712	0.0622	0.0976	0.03
Mof_C 	C 	0.71494	0.03549	0.1534	-0.09
Mof_C 	C 	0.72682	0.03562	0.2007	0.154
Mof_C 	C 	0.74377	0.06253	0.22414	-0.058
Mof_C 	C 	0.74884	0.08932	0.2003	0.151
Mof_C 	C 	0.749	0.201	0.0478	0.379
Mof_C 	C 	0.74077	0.11898	0.12658	0.121
Mof_C 	C 	0.75006	0.11529	0.0879	-0.153
Mof_H 	H 	0.7543	0.0946	0.0787	0.09
Mof_C 	C 	0.75311	0.14221	0.06297	0.073
Mof_H 	H 	0.7594	0.1397	0.0368	0.025
Mof_C 	C 	0.74688	0.17282	0.0767	-0.133
Mof_C 	C 	0.73759	0.1765	0.1153	0.075
Mof_H 	H 	0.7334	0.1972	0.1246	0.029
Mof_C 	C 	0.73454	0.14958	0.14028	-0.149
Mof_H 	H 	0.7283	0.1521	0.1664	0.1
Mof_C 	C 	0.661	0.1112	0.4513	0.346
Mof_C 	C 	0.69766	0.00627	0.1265	0.119
Mof_C 	C 	0.66906	0.00994	0.0879	-0.147
Mof_H 	H 	0.6601	0.0306	0.0787	0.088
Mof_C 	C 	0.65363	0.98302	0.06286	0.065
Mof_H 	H 	0.6343	0.9855	0.0367	0.03
Mof_C 	C 	0.66681	0.95243	0.0764	-0.115
Mof_C 	C 	0.69542	0.94877	0.1151	0.066
Mof_H 	H 	0.7043	0.9281	0.1243	0.035
Mof_C 	C 	0.71085	0.97569	0.14009	-0.138
Mof_H 	H 	0.7302	0.9732	0.1662	0.101
Mof_C 	C 	0.4114	0.138	0.9509	0.387
Mof_C 	C 	0.75645	0.0629	0.2758	-0.058
Mof_C 	C 	0.73564	0.0741	0.29952	0.153
Mof_C 	C 	0.74734	0.07371	0.3468	-0.09
Mof_C 	C 	0.77985	0.06213	0.37036	0.01
Mof_H 	H 	0.7878	0.0619	0.4023	0.032
Mof_C 	C 	0.80065	0.05093	0.34664	-0.088
Mof_C 	C 	0.78895	0.05131	0.29936	0.151
Mof_C 	C 	0.9397	0.0131	0.4518	0.345
Mof_C 	C 	0.8372	0.04085	0.37285	0.111
Mof_C 	C 	0.84296	0.02189	0.4115	-0.14
Mof_H 	H 	0.8245	0.0153	0.4204	0.086
Mof_C 	C 	0.87603	0.01274	0.43683	0.056
Mof_H 	H 	0.8799	0.9999	0.4629	0.032
Mof_C 	C 	0.90334	0.02255	0.42357	-0.105
Mof_C 	C 	0.89758	0.04151	0.385	0.054
Mof_H 	H 	0.916	0.0481	0.376	0.036
Mof_C 	C 	0.86451	0.05066	0.3596	-0.131
Mof_H 	H 	0.8606	0.0635	0.3335	0.09
Mof_C 	C 	0.6891	0.2367	0.9517	0.362
Mof_C 	C 	0.58721	0.20941	0.8736	0.121
Mof_C 	C 	0.59328	0.22838	0.9123	-0.15
Mof_H 	H 	0.575	0.2351	0.9215	0.091
Mof_C 	C 	0.62645	0.23749	0.93725	0.071
Mof_H 	H 	0.6306	0.2503	0.9634	0.027
Mof_C 	C 	0.65354	0.22762	0.9236	-0.126
Mof_C 	C 	0.64747	0.20865	0.8849	0.073
Mof_H 	H 	0.6658	0.202	0.8757	0.029
Mof_C 	C 	0.61431	0.19954	0.85994	-0.148
Mof_H 	H 	0.6102	0.1867	0.8338	0.107
Mof_O 	O 	0.6652	0.89666	0.06	-0.414
Mof_C 	C 	0.50642	0.18777	0.77574	-0.052
Mof_C 	C 	0.48597	0.1755	0.7993	0.146
Mof_C 	C 	0.49776	0.17534	0.8466	-0.086
Mof_C 	C 	0.53	0.18744	0.87031	0.008
Mof_H 	H 	0.538	0.1873	0.9023	0.033
Mof_C 	C 	0.55045	0.19971	0.8468	-0.083
Mof_C 	C 	0.53866	0.19987	0.7995	0.145
Mof_O 	O 	0.62355	0.92765	0.015	-0.407
Mof_C 	C 	0.7245	0.08424	0.37301	0.115
Mof_C 	C 	0.73787	0.1031	0.4117	-0.141
Mof_H 	H 	0.7608	0.1098	0.4209	0.087
Mof_C 	C 	0.71733	0.11211	0.437	0.06
Mof_H 	H 	0.7264	0.1249	0.4632	0.031
Mof_C 	C 	0.68342	0.10226	0.42351	-0.108
Mof_C 	C 	0.67004	0.0834	0.3848	0.06
Mof_H 	H 	0.6471	0.0767	0.3756	0.037
Mof_C 	C 	0.69059	0.07439	0.35952	-0.128
Mof_H 	H 	0.6815	0.0616	0.3333	0.094
Mof_O 	O 	0.08434	0.64652	0.44	-0.403
Mof_C 	C 	0.47434	0.16571	0.87302	0.125
Mof_C 	C 	0.44046	0.17566	0.85974	-0.152
Mof_H 	H 	0.4314	0.1886	0.8337	0.108
Mof_C 	C 	0.41995	0.16654	0.885	0.081
Mof_H 	H 	0.397	0.1733	0.876	0.027
Mof_C 	C 	0.43331	0.14746	0.92351	-0.137
Mof_C 	C 	0.46719	0.13751	0.93679	0.079
Mof_H 	H 	0.4762	0.1246	0.9628	0.024
Mof_C 	C 	0.4877	0.14663	0.9116	-0.155
Mof_H 	H 	0.5106	0.1399	0.9205	0.091
Mof_O 	O 	0.12655	0.67762	0.484	-0.4
Mof_O 	O 	0.63082	0.09977	0.4394	-0.396
Mof_O 	O 	0.67389	0.13044	0.4846	-0.394
Mof_O 	O 	0.42361	0.11946	0.984	-0.409
Mof_O 	O 	0.38205	0.15003	0.9401	-0.41
Mof_O 	O 	0.69334	0.25559	0.9843	-0.404
Mof_O 	O 	0.7134	0.2246	0.9397	-0.397
Mof_O 	O 	0.74013	0.22818	0.0604	-0.4
Mof_O 	O 	0.75948	0.19747	0.0157	-0.417
Mof_O 	O 	0.94355	0.99453	0.485	-0.4
Mof_O 	O 	0.96394	0.02511	0.4394	-0.394
Mof_O 	O 	0.99036	0.94726	0.4843	-0.41
Mof_O 	O 	0.01014	0.97834	0.43931	-0.394
Mof_O 	O 	0.8091	0.0381	0.2762	-0.24
Mof_O 	O 	0.7674	0.1156	0.2252	-0.247
Mof_O 	O 	0.7035	0.0857	0.2753	-0.241
Mof_O 	O 	0.7194	0.0096	0.2242	-0.239
Mof_O 	O 	0.9829	0.866	0.2762	-0.184
Mof_O 	O 	0.0266	0.7583	0.2748	-0.195
Mof_O 	O 	0.56	0.2106	0.7757	-0.198
Mof_O 	O 	0.0469	0.3356	0.2241	-0.204
Mof_O 	O 	0.076	0.4153	0.242	-0.17
Mof_O 	O 	0.0368	0.4828	0.2314	-0.161
Mof_O 	O 	0.5593	0.2894	0.7051	-0.176
Mof_O 	O 	0.549	0.3736	0.7553	-0.163
Mof_O 	O 	0.0932	0.7333	0.2559	-0.142
Mof_O 	O 	0.9384	0.9152	0.239	-0.142
Mof_O 	O 	0.8484	0.0086	0.2359	-0.155
Mof_O 	O 	0.8753	0.1031	0.2516	-0.185
Mof_O 	O 	0.7146	0.184	0.2447	-0.179
Mof_O 	O 	0.6503	0.1182	0.2819	-0.165
Mof_O 	O 	0.6347	0.021	0.2617	-0.177
Mof_O 	O 	0.6954	0.9494	0.2406	-0.171
Mof_O 	O 	0.7836	0.9356	0.2431	-0.196
Mof_C 	C 	0.8089	0.0049	0.2792	0.096
Mof_C 	C 	0.8013	0.117	0.2275	0.119
Mof_C 	C 	0.7025	0.1191	0.2738	0.098
Mof_C 	C 	0.6866	0.0097	0.228	0.083
Mof_C 	C 	0.9488	0.8619	0.2747	0.067
Mof_C 	C 	0.0604	0.7576	0.2754	0.114
Mof_C 	C 	0.5593	0.244	0.7648	0.078
Mof_C 	C 	0.0486	0.3691	0.2204	0.083
Mof_C 	C 	0.0802	0.3794	0.2509	0.068
Mof_C 	C 	0.0438	0.4273	0.2482	0.062
Mof_C 	C 	0.0334	0.4504	0.2086	0.071
Mof_C 	C 	0.9993	0.4777	0.2258	0.063
Mof_C 	C 	0.5554	0.2553	0.7197	0.064
Mof_C 	C 	0.556	0.3172	0.7336	0.081
Mof_C 	C 	0.5342	0.347	0.7203	0.059
Mof_C 	C 	0.5173	0.3935	0.7472	0.063
Mof_C 	C 	0.0949	0.7648	0.2813	0.039
Mof_C 	C 	0.9317	0.8916	0.267	0.084
Mof_C 	C 	0.8236	0.9891	0.2506	0.037
Mof_C 	C 	0.8723	0.0394	0.2519	0.048
Mof_C 	C 	0.8921	0.0702	0.2645	0.065
Mof_C 	C 	0.8572	0.1323	0.2597	0.092
Mof_C 	C 	0.8208	0.1447	0.2428	-0.047
Mof_C 	C 	0.6766	0.1709	0.2419	0.06
Mof_C 	C 	0.6701	0.1329	0.2565	0.052
Mof_C 	C 	0.6267	0.0873	0.2735	0.07
Mof_C 	C 	0.6429	0.0536	0.2839	0.039
Mof_C 	C 	0.6532	0.991	0.262	0.076
Mof_C 	C 	0.678	0.9791	0.2408	0.053
Mof_C 	C 	0.7266	0.9286	0.2507	0.046
Mof_C 	C 	0.7557	0.9285	0.2579	0.068
Mof_C 	C 	0.804	0.9596	0.2294	0.078
Mof_C 	C 	0.7587	0.1435	0.2494	0.07
Mof_C 	C 	0.7253	0.1561	0.2345	0.067
Mof_C 	C 	0.6763	0.0608	0.259	0.082
Mof_C 	C 	0.6699	0.0301	0.2753	0.016
Mof_C 	C 	0.7659	0.9659	0.24	0.024
Mof_C 	C 	0.7376	0.9808	0.2499	0.088
Mof_C 	C 	0.8329	0.0581	0.2607	0.086
Mof_C 	C 	0.8532	0.0872	0.2728	0.018
Mof_Cu	Cu	0.48836	0.48185	0.52629	0.907
Mof_Cu	Cu	0.23847	0.76819	0.02631	0.907
Mof_Cu	Cu	0.14982	0.35682	0.02637	0.907
Mof_Cu	Cu	0.10028	0.39317	0.97376	0.91
Mof_C 	C 	0.50677	0.31251	0.27559	-0.047
Mof_C 	C 	0.50059	0.33898	0.2991	0.141
Mof_C 	C 	0.51227	0.33906	0.34638	-0.081
Mof_C 	C 	0.53014	0.31266	0.37016	0.006
Mof_H 	H 	0.538	0.3127	0.4021	0.034
Mof_C 	C 	0.53632	0.28618	0.34666	-0.082
Mof_C 	C 	0.52463	0.2861	0.29937	0.139
Mof_C 	C 	0.501	0.4514	0.4523	0.363
Mof_C 	C 	0.55272	0.25626	0.373	0.12
Mof_C 	C 	0.53951	0.22566	0.35962	-0.146
Mof_H 	H 	0.5201	0.2231	0.3336	0.111
Mof_C 	C 	0.55499	0.19879	0.3847	0.072
Mof_H 	H 	0.5461	0.1781	0.3757	0.032
Mof_C 	C 	0.58369	0.20251	0.4232	-0.122
Mof_C 	C 	0.59691	0.23311	0.43659	0.07
Mof_H 	H 	0.6163	0.2356	0.4626	0.028
Mof_C 	C 	0.58142	0.25999	0.4115	-0.148
Mof_H 	H 	0.5904	0.2807	0.4206	0.089
Mof_C 	C 	0.599	0.1733	0.4513	0.366
Mof_C 	C 	0.50874	0.36837	0.373	0.121
Mof_C 	C 	0.51542	0.3989	0.35952	-0.147
Mof_H 	H 	0.5217	0.4013	0.3334	0.118
Mof_C 	C 	0.51283	0.42584	0.3847	0.07
Mof_H 	H 	0.5173	0.4465	0.3756	0.035
Mof_C 	C 	0.50356	0.42225	0.4234	-0.114
Mof_C 	C 	0.49688	0.39172	0.43689	0.064
Mof_H 	H 	0.4906	0.3893	0.4631	0.029
Mof_C 	C 	0.49947	0.36478	0.4117	-0.147
Mof_H 	H 	0.495	0.3441	0.4208	0.089
Mof_C 	C 	0.1505	0.4227	0.0481	0.377
Mof_C 	C 	0.23695	0.58919	0.153	-0.091
Mof_C 	C 	0.22	0.56228	0.12957	0.013
Mof_H 	H 	0.212	0.5622	0.0976	0.031
Mof_C 	C 	0.21494	0.53549	0.1534	-0.089
Mof_C 	C 	0.22682	0.53562	0.2007	0.155
Mof_C 	C 	0.24377	0.56253	0.22414	-0.057
Mof_C 	C 	0.24884	0.58932	0.2003	0.152
Mof_C 	C 	0.249	0.701	0.0478	0.38
Mof_C 	C 	0.24077	0.61898	0.12658	0.122
Mof_C 	C 	0.25006	0.61529	0.0879	-0.152
Mof_H 	H 	0.2543	0.5946	0.0787	0.091
Mof_C 	C 	0.25311	0.64221	0.06297	0.074
Mof_H 	H 	0.2594	0.6397	0.0368	0.026
Mof_C 	C 	0.24688	0.67282	0.0767	-0.132
Mof_C 	C 	0.23759	0.6765	0.1153	0.076
Mof_H 	H 	0.2334	0.6972	0.1246	0.03
Mof_C 	C 	0.23454	0.64958	0.14028	-0.148
Mof_H 	H 	0.2283	0.6521	0.1664	0.101
Mof_C 	C 	0.161	0.6112	0.4513	0.347
Mof_C 	C 	0.19766	0.50627	0.1265	0.12
Mof_C 	C 	0.16906	0.50994	0.0879	-0.146
Mof_H 	H 	0.1601	0.5306	0.0787	0.089
Mof_C 	C 	0.15363	0.48302	0.06286	0.065
Mof_H 	H 	0.1343	0.4855	0.0367	0.03
Mof_C 	C 	0.16681	0.45243	0.0764	-0.115
Mof_C 	C 	0.19542	0.44877	0.1151	0.066
Mof_H 	H 	0.2043	0.4281	0.1243	0.035
Mof_C 	C 	0.21085	0.47569	0.14009	-0.138
Mof_H 	H 	0.2302	0.4732	0.1662	0.101
Mof_C 	C 	0.9114	0.638	0.9509	0.387
Mof_C 	C 	0.25645	0.5629	0.2758	-0.058
Mof_C 	C 	0.23564	0.5741	0.29952	0.153
Mof_C 	C 	0.24734	0.57371	0.3468	-0.09
Mof_C 	C 	0.27985	0.56213	0.37036	0.01
Mof_H 	H 	0.2878	0.5619	0.4023	0.032
Mof_C 	C 	0.30065	0.55093	0.34664	-0.088
Mof_C 	C 	0.28895	0.55131	0.29936	0.151
Mof_C 	C 	0.4397	0.5131	0.4518	0.345
Mof_C 	C 	0.3372	0.54085	0.37285	0.111
Mof_C 	C 	0.34296	0.52189	0.4115	-0.14
Mof_H 	H 	0.3245	0.5153	0.4204	0.086
Mof_C 	C 	0.37603	0.51274	0.43683	0.056
Mof_H 	H 	0.3799	0.4999	0.4629	0.032
Mof_C 	C 	0.40334	0.52255	0.42357	-0.105
Mof_C 	C 	0.39758	0.54151	0.385	0.054
Mof_H 	H 	0.416	0.5481	0.376	0.036
Mof_C 	C 	0.36451	0.55066	0.3596	-0.131
Mof_H 	H 	0.3606	0.5635	0.3335	0.09
Mof_C 	C 	0.1891	0.7367	0.9517	0.362
Mof_C 	C 	0.08721	0.70941	0.8736	0.121
Mof_C 	C 	0.09328	0.72838	0.9123	-0.15
Mof_H 	H 	0.075	0.7351	0.9215	0.091
Mof_C 	C 	0.12645	0.73749	0.93725	0.071
Mof_H 	H 	0.1306	0.7503	0.9634	0.027
Mof_C 	C 	0.15354	0.72762	0.9236	-0.126
Mof_C 	C 	0.14747	0.70865	0.8849	0.073
Mof_H 	H 	0.1658	0.702	0.8757	0.029
Mof_C 	C 	0.11431	0.69954	0.85994	-0.148
Mof_H 	H 	0.1102	0.6867	0.8338	0.107
Mof_O 	O 	0.1652	0.39666	0.06	-0.414
Mof_C 	C 	0.00642	0.68777	0.77574	-0.052
Mof_C 	C 	0.98597	0.6755	0.7993	0.146
Mof_C 	C 	0.99776	0.67534	0.8466	-0.086
Mof_C 	C 	0.03	0.68744	0.87031	0.008
Mof_H 	H 	0.038	0.6873	0.9023	0.033
Mof_C 	C 	0.05045	0.69971	0.8468	-0.083
Mof_C 	C 	0.03866	0.69987	0.7995	0.145
Mof_O 	O 	0.12355	0.42765	0.015	-0.407
Mof_C 	C 	0.2245	0.58424	0.37301	0.115
Mof_C 	C 	0.23787	0.6031	0.4117	-0.141
Mof_H 	H 	0.2608	0.6098	0.4209	0.087
Mof_C 	C 	0.21733	0.61211	0.437	0.06
Mof_H 	H 	0.2264	0.6249	0.4632	0.031
Mof_C 	C 	0.18342	0.60226	0.42351	-0.108
Mof_C 	C 	0.17004	0.5834	0.3848	0.06
Mof_H 	H 	0.1471	0.5767	0.3756	0.037
Mof_C 	C 	0.19059	0.57439	0.35952	-0.128
Mof_H 	H 	0.1815	0.5616	0.3333	0.094
Mof_O 	O 	0.58434	0.14652	0.44	-0.403
Mof_C 	C 	0.97434	0.66571	0.87302	0.124
Mof_C 	C 	0.94046	0.67566	0.85974	-0.152
Mof_H 	H 	0.9314	0.6886	0.8337	0.108
Mof_C 	C 	0.91995	0.66654	0.885	0.081
Mof_H 	H 	0.897	0.6733	0.876	0.027
Mof_C 	C 	0.93331	0.64746	0.92351	-0.137
Mof_C 	C 	0.96719	0.63751	0.93679	0.079
Mof_H 	H 	0.9762	0.6246	0.9628	0.025
Mof_C 	C 	0.9877	0.64663	0.9116	-0.155
Mof_H 	H 	0.0106	0.6399	0.9205	0.091
Mof_O 	O 	0.62655	0.17762	0.484	-0.4
Mof_O 	O 	0.13082	0.59977	0.4394	-0.396
Mof_O 	O 	0.17389	0.63044	0.4846	-0.394
Mof_O 	O 	0.92361	0.61946	0.984	-0.409
Mof_O 	O 	0.88205	0.65003	0.9401	-0.409
Mof_O 	O 	0.19334	0.75559	0.9843	-0.404
Mof_O 	O 	0.2134	0.7246	0.9397	-0.397
Mof_O 	O 	0.24013	0.72818	0.0604	-0.4
Mof_O 	O 	0.25948	0.69747	0.0157	-0.417
Mof_O 	O 	0.44355	0.49453	0.485	-0.4
Mof_O 	O 	0.46394	0.52511	0.4394	-0.395
Mof_O 	O 	0.49036	0.44726	0.4843	-0.41
Mof_O 	O 	0.51014	0.47834	0.43931	-0.394
Mof_O 	O 	0.3091	0.5381	0.2762	-0.24
Mof_O 	O 	0.2674	0.6156	0.2252	-0.247
Mof_O 	O 	0.2035	0.5857	0.2753	-0.241
Mof_O 	O 	0.2194	0.5096	0.2242	-0.239
Mof_O 	O 	0.4829	0.366	0.2762	-0.184
Mof_O 	O 	0.5266	0.2583	0.2748	-0.195
Mof_O 	O 	0.06	0.7106	0.7757	-0.198
Mof_O 	O 	0.5469	0.8356	0.2241	-0.204
Mof_O 	O 	0.576	0.9153	0.242	-0.17
Mof_O 	O 	0.5368	0.9828	0.2314	-0.161
Mof_O 	O 	0.0593	0.7894	0.7051	-0.176
Mof_O 	O 	0.049	0.8736	0.7553	-0.163
Mof_O 	O 	0.5932	0.2333	0.2559	-0.142
Mof_O 	O 	0.4384	0.4152	0.239	-0.142
Mof_O 	O 	0.3484	0.5086	0.2359	-0.155
Mof_O 	O 	0.3753	0.6031	0.2516	-0.185
Mof_O 	O 	0.2146	0.684	0.2447	-0.179
Mof_O 	O 	0.1503	0.6182	0.2819	-0.165
Mof_O 	O 	0.1347	0.521	0.2617	-0.177
Mof_O 	O 	0.1954	0.4494	0.2406	-0.171
Mof_O 	O 	0.2836	0.4356	0.2431	-0.196
Mof_C 	C 	0.3089	0.5049	0.2792	0.096
Mof_C 	C 	0.3013	0.617	0.2275	0.119
Mof_C 	C 	0.2025	0.6191	0.2738	0.098
Mof_C 	C 	0.1866	0.5097	0.228	0.083
Mof_C 	C 	0.4488	0.3619	0.2747	0.067
Mof_C 	C 	0.5604	0.2576	0.2754	0.114
Mof_C 	C 	0.0593	0.744	0.7648	0.078
Mof_C 	C 	0.5486	0.8691	0.2204	0.083
Mof_C 	C 	0.5802	0.8794	0.2509	0.068
Mof_C 	C 	0.5438	0.9273	0.2482	0.062
Mof_C 	C 	0.5334	0.9504	0.2086	0.071
Mof_C 	C 	0.4993	0.9777	0.2258	0.064
Mof_C 	C 	0.0554	0.7553	0.7197	0.064
Mof_C 	C 	0.056	0.8172	0.7336	0.081
Mof_C 	C 	0.0342	0.847	0.7203	0.059
Mof_C 	C 	0.0173	0.8935	0.7472	0.063
Mof_C 	C 	0.5949	0.2648	0.2813	0.039
Mof_C 	C 	0.4317	0.3916	0.267	0.084
Mof_C 	C 	0.3236	0.4891	0.2506	0.037
Mof_C 	C 	0.3723	0.5394	0.2519	0.048
Mof_C 	C 	0.3921	0.5702	0.2645	0.065
Mof_C 	C 	0.3572	0.6323	0.2597	0.092
Mof_C 	C 	0.3208	0.6447	0.2428	-0.047
Mof_C 	C 	0.1766	0.6709	0.2419	0.06
Mof_C 	C 	0.1701	0.6329	0.2565	0.052
Mof_C 	C 	0.1267	0.5873	0.2735	0.07
Mof_C 	C 	0.1429	0.5536	0.2839	0.039
Mof_C 	C 	0.1532	0.491	0.262	0.076
Mof_C 	C 	0.178	0.4791	0.2408	0.053
Mof_C 	C 	0.2266	0.4286	0.2507	0.046
Mof_C 	C 	0.2557	0.4285	0.2579	0.068
Mof_C 	C 	0.304	0.4596	0.2294	0.078
Mof_C 	C 	0.2587	0.6435	0.2494	0.07
Mof_C 	C 	0.2253	0.6561	0.2345	0.067
Mof_C 	C 	0.1763	0.5608	0.259	0.082
Mof_C 	C 	0.1699	0.5301	0.2753	0.016
Mof_C 	C 	0.2659	0.4659	0.24	0.024
Mof_C 	C 	0.2376	0.4808	0.2499	0.088
Mof_C 	C 	0.3329	0.5581	0.2607	0.086
Mof_C 	C 	0.3532	0.5872	0.2728	0.018
Mof_Cu	Cu	0.01164	0.98185	0.97371	0.907
Mof_Cu	Cu	0.26153	0.26819	0.47369	0.907
Mof_Cu	Cu	0.35018	0.85682	0.47363	0.907
Mof_Cu	Cu	0.39972	0.89317	0.52624	0.91
Mof_C 	C 	0.99323	0.81251	0.22441	-0.047
Mof_C 	C 	0.99941	0.83898	0.2009	0.141
Mof_C 	C 	0.98773	0.83906	0.15362	-0.081
Mof_C 	C 	0.96986	0.81266	0.12984	0.006
Mof_H 	H 	0.962	0.8127	0.0979	0.034
Mof_C 	C 	0.96368	0.78618	0.15334	-0.082
Mof_C 	C 	0.97537	0.7861	0.20063	0.139
Mof_C 	C 	0.999	0.9514	0.0477	0.363
Mof_C 	C 	0.94728	0.75626	0.127	0.12
Mof_C 	C 	0.96049	0.72566	0.14038	-0.146
Mof_H 	H 	0.9799	0.7231	0.1664	0.111
Mof_C 	C 	0.94501	0.69879	0.1153	0.072
Mof_H 	H 	0.9539	0.6781	0.1243	0.032
Mof_C 	C 	0.91631	0.70251	0.0768	-0.122
Mof_C 	C 	0.90309	0.73311	0.06341	0.07
Mof_H 	H 	0.8837	0.7356	0.0374	0.028
Mof_C 	C 	0.91858	0.75999	0.0885	-0.148
Mof_H 	H 	0.9096	0.7807	0.0794	0.089
Mof_C 	C 	0.901	0.6733	0.0487	0.366
Mof_C 	C 	0.99126	0.86837	0.127	0.121
Mof_C 	C 	0.98458	0.8989	0.14048	-0.147
Mof_H 	H 	0.9783	0.9013	0.1666	0.118
Mof_C 	C 	0.98717	0.92584	0.1153	0.07
Mof_H 	H 	0.9827	0.9465	0.1244	0.035
Mof_C 	C 	0.99644	0.92225	0.0766	-0.114
Mof_C 	C 	0.00312	0.89172	0.06311	0.064
Mof_H 	H 	0.0094	0.8893	0.0369	0.03
Mof_C 	C 	0.00053	0.86478	0.0883	-0.147
Mof_H 	H 	0.005	0.8441	0.0792	0.089
Mof_C 	C 	0.3495	0.9227	0.4519	0.377
Mof_C 	C 	0.26305	0.08919	0.347	-0.091
Mof_C 	C 	0.28	0.06228	0.37043	0.013
Mof_H 	H 	0.288	0.0622	0.4024	0.031
Mof_C 	C 	0.28506	0.03549	0.3466	-0.089
Mof_C 	C 	0.27318	0.03562	0.2993	0.155
Mof_C 	C 	0.25623	0.06253	0.27586	-0.057
Mof_C 	C 	0.25116	0.08932	0.2997	0.152
Mof_C 	C 	0.251	0.201	0.4522	0.38
Mof_C 	C 	0.25923	0.11898	0.37342	0.122
Mof_C 	C 	0.24994	0.11529	0.4121	-0.152
Mof_H 	H 	0.2457	0.0946	0.4213	0.091
Mof_C 	C 	0.24689	0.14221	0.43703	0.074
Mof_H 	H 	0.2406	0.1397	0.4632	0.026
Mof_C 	C 	0.25312	0.17282	0.4233	-0.132
Mof_C 	C 	0.26241	0.1765	0.3847	0.076
Mof_H 	H 	0.2666	0.1972	0.3754	0.03
Mof_C 	C 	0.26546	0.14958	0.35972	-0.148
Mof_H 	H 	0.2717	0.1521	0.3336	0.101
Mof_C 	C 	0.339	0.1112	0.0487	0.347
Mof_C 	C 	0.30234	0.00627	0.3735	0.12
Mof_C 	C 	0.33094	0.00994	0.4121	-0.146
Mof_H 	H 	0.3399	0.0306	0.4213	0.089
Mof_C 	C 	0.34637	0.98302	0.43714	0.065
Mof_H 	H 	0.3657	0.9855	0.4633	0.03
Mof_C 	C 	0.33319	0.95243	0.4236	-0.115
Mof_C 	C 	0.30458	0.94877	0.3849	0.066
Mof_H 	H 	0.2957	0.9281	0.3757	0.035
Mof_C 	C 	0.28915	0.97569	0.35991	-0.138
Mof_H 	H 	0.2698	0.9732	0.3338	0.101
Mof_C 	C 	0.5886	0.138	0.5491	0.387
Mof_C 	C 	0.24355	0.0629	0.2242	-0.058
Mof_C 	C 	0.26436	0.0741	0.20048	0.153
Mof_C 	C 	0.25266	0.07371	0.1532	-0.09
Mof_C 	C 	0.22015	0.06213	0.12964	0.01
Mof_H 	H 	0.2122	0.0619	0.0977	0.032
Mof_C 	C 	0.19935	0.05093	0.15336	-0.088
Mof_C 	C 	0.21105	0.05131	0.20064	0.151
Mof_C 	C 	0.0603	0.0131	0.0482	0.345
Mof_C 	C 	0.1628	0.04085	0.12715	0.11
Mof_C 	C 	0.15704	0.02189	0.0885	-0.139
Mof_H 	H 	0.1755	0.0153	0.0796	0.086
Mof_C 	C 	0.12397	0.01274	0.06317	0.056
Mof_H 	H 	0.1201	0.9999	0.0371	0.032
Mof_C 	C 	0.09666	0.02255	0.07643	-0.105
Mof_C 	C 	0.10242	0.04151	0.115	0.054
Mof_H 	H 	0.084	0.0481	0.124	0.036
Mof_C 	C 	0.13549	0.05066	0.1404	-0.131
Mof_H 	H 	0.1394	0.0635	0.1665	0.09
Mof_C 	C 	0.3109	0.2367	0.5483	0.362
Mof_C 	C 	0.41279	0.20941	0.6264	0.121
Mof_C 	C 	0.40672	0.22838	0.5877	-0.15
Mof_H 	H 	0.425	0.2351	0.5785	0.091
Mof_C 	C 	0.37355	0.23749	0.56275	0.071
Mof_H 	H 	0.3694	0.2503	0.5366	0.027
Mof_C 	C 	0.34646	0.22762	0.5764	-0.126
Mof_C 	C 	0.35253	0.20865	0.6151	0.073
Mof_H 	H 	0.3342	0.202	0.6243	0.029
Mof_C 	C 	0.38569	0.19954	0.64006	-0.148
Mof_H 	H 	0.3898	0.1867	0.6662	0.107
Mof_O 	O 	0.3348	0.89666	0.44	-0.414
Mof_C 	C 	0.49358	0.18777	0.72426	-0.052
Mof_C 	C 	0.51403	0.1755	0.7007	0.146
Mof_C 	C 	0.50224	0.17534	0.6534	-0.086
Mof_C 	C 	0.47	0.18744	0.62969	0.008
Mof_H 	H 	0.462	0.1873	0.5977	0.033
Mof_C 	C 	0.44955	0.19971	0.6532	-0.083
Mof_C 	C 	0.46134	0.19987	0.7005	0.145
Mof_O 	O 	0.37645	0.92765	0.485	-0.407
Mof_C 	C 	0.2755	0.08424	0.12699	0.115
Mof_C 	C 	0.26213	0.1031	0.0883	-0.141
Mof_H 	H 	0.2392	0.1098	0.0791	0.087
Mof_C 	C 	0.28267	0.11211	0.063	0.06
Mof_H 	H 	0.2736	0.1249	0.0368	0.031
Mof_C 	C 	0.31658	0.10226	0.07649	-0.108
Mof_C 	C 	0.32996	0.0834	0.1152	0.06
Mof_H 	H 	0.3529	0.0767	0.1244	0.037
Mof_C 	C 	0.30941	0.07439	0.14048	-0.128
Mof_H 	H 	0.3185	0.0616	0.1667	0.094
Mof_O 	O 	0.91566	0.64652	0.06	-0.403
Mof_C 	C 	0.52566	0.16571	0.62698	0.125
Mof_C 	C 	0.55954	0.17566	0.64026	-0.152
Mof_H 	H 	0.5686	0.1886	0.6663	0.108
Mof_C 	C 	0.58005	0.16654	0.615	0.081
Mof_H 	H 	0.603	0.1733	0.624	0.027
Mof_C 	C 	0.56669	0.14746	0.57649	-0.137
Mof_C 	C 	0.53281	0.13751	0.56321	0.079
Mof_H 	H 	0.5238	0.1246	0.5372	0.024
Mof_C 	C 	0.5123	0.14663	0.5884	-0.155
Mof_H 	H 	0.4894	0.1399	0.5795	0.091
Mof_O 	O 	0.87345	0.67762	0.016	-0.4
Mof_O 	O 	0.36918	0.09977	0.0606	-0.396
Mof_O 	O 	0.32611	0.13044	0.0154	-0.394
Mof_O 	O 	0.57639	0.11946	0.516	-0.409
Mof_O 	O 	0.61795	0.15003	0.5599	-0.41
Mof_O 	O 	0.30666	0.25559	0.5157	-0.404
Mof_O 	O 	0.2866	0.2246	0.5603	-0.397
Mof_O 	O 	0.25987	0.22818	0.4396	-0.4
Mof_O 	O 	0.24052	0.19747	0.4843	-0.417
Mof_O 	O 	0.05645	0.99453	0.015	-0.4
Mof_O 	O 	0.03606	0.02511	0.0606	-0.394
Mof_O 	O 	0.00964	0.94726	0.0157	-0.41
Mof_O 	O 	0.98986	0.97834	0.06069	-0.394
Mof_O 	O 	0.1909	0.0381	0.2238	-0.24
Mof_O 	O 	0.2326	0.1156	0.2748	-0.247
Mof_O 	O 	0.2965	0.0857	0.2247	-0.241
Mof_O 	O 	0.2806	0.0096	0.2758	-0.239
Mof_O 	O 	0.0171	0.866	0.2238	-0.184
Mof_O 	O 	0.9734	0.7583	0.2252	-0.195
Mof_O 	O 	0.44	0.2106	0.7243	-0.198
Mof_O 	O 	0.9531	0.3356	0.2759	-0.203
Mof_O 	O 	0.924	0.4153	0.258	-0.17
Mof_O 	O 	0.9632	0.4828	0.2686	-0.161
Mof_O 	O 	0.4407	0.2894	0.7949	-0.176
Mof_O 	O 	0.451	0.3736	0.7447	-0.163
Mof_O 	O 	0.9068	0.7333	0.2441	-0.142
Mof_O 	O 	0.0616	0.9152	0.261	-0.142
Mof_O 	O 	0.1516	0.0086	0.2641	-0.155
Mof_O 	O 	0.1247	0.1031	0.2484	-0.185
Mof_O 	O 	0.2854	0.184	0.2553	-0.179
Mof_O 	O 	0.3497	0.1182	0.2181	-0.165
Mof_O 	O 	0.3653	0.021	0.2383	-0.177
Mof_O 	O 	0.3046	0.9494	0.2594	-0.171
Mof_O 	O 	0.2164	0.9356	0.2569	-0.196
Mof_C 	C 	0.1911	0.0049	0.2208	0.096
Mof_C 	C 	0.1987	0.117	0.2725	0.119
Mof_C 	C 	0.2975	0.1191	0.2262	0.098
Mof_C 	C 	0.3134	0.0097	0.272	0.083
Mof_C 	C 	0.0512	0.8619	0.2253	0.067
Mof_C 	C 	0.9396	0.7576	0.2246	0.114
Mof_C 	C 	0.4407	0.244	0.7352	0.078
Mof_C 	C 	0.9514	0.3691	0.2796	0.083
Mof_C 	C 	0.9198	0.3794	0.2491	0.068
Mof_C 	C 	0.9562	0.4273	0.2518	0.062
Mof_C 	C 	0.9666	0.4504	0.2914	0.071
Mof_C 	C 	0.0007	0.4777	0.2742	0.064
Mof_C 	C 	0.4446	0.2553	0.7803	0.064
Mof_C 	C 	0.444	0.3172	0.7664	0.081
Mof_C 	C 	0.4658	0.347	0.7797	0.059
Mof_C 	C 	0.4827	0.3935	0.7528	0.063
Mof_C 	C 	0.9051	0.7648	0.2187	0.039
Mof_C 	C 	0.0683	0.8916	0.233	0.084
Mof_C 	C 	0.1764	0.9891	0.2494	0.037
Mof_C 	C 	0.1277	0.0394	0.2481	0.048
Mof_C 	C 	0.1079	0.0702	0.2355	0.065
Mof_C 	C 	0.1428	0.1323	0.2403	0.092
Mof_C 	C 	0.1792	0.1447	0.2572	-0.047
Mof_C 	C 	0.3234	0.1709	0.2581	0.06
Mof_C 	C 	0.3299	0.1329	0.2435	0.052
Mof_C 	C 	0.3733	0.0873	0.2265	0.07
Mof_C 	C 	0.3571	0.0536	0.2161	0.039
Mof_C 	C 	0.3468	0.991	0.238	0.076
Mof_C 	C 	0.322	0.9791	0.2592	0.053
Mof_C 	C 	0.2734	0.9286	0.2493	0.046
Mof_C 	C 	0.2443	0.9285	0.2421	0.068
Mof_C 	C 	0.196	0.9596	0.2706	0.078
Mof_C 	C 	0.2413	0.1435	0.2506	0.07
Mof_C 	C 	0.2747	0.1561	0.2655	0.067
Mof_C 	C 	0.3237	0.0608	0.241	0.082
Mof_C 	C 	0.3301	0.0301	0.2247	0.016
Mof_C 	C 	0.2341	0.9659	0.26	0.024
Mof_C 	C 	0.2624	0.9808	0.2501	0.088
Mof_C 	C 	0.1671	0.0581	0.2393	0.086
Mof_C 	C 	0.1468	0.0872	0.2272	0.018
Mof_Cu	Cu	0.51164	0.48185	0.97371	0.907
Mof_Cu	Cu	0.76153	0.76819	0.47369	0.907
Mof_Cu	Cu	0.85018	0.35682	0.47363	0.907
Mof_Cu	Cu	0.89972	0.39317	0.52624	0.91
Mof_C 	C 	0.49323	0.31251	0.22441	-0.047
Mof_C 	C 	0.49941	0.33898	0.2009	0.141
Mof_C 	C 	0.48773	0.33906	0.15362	-0.081
Mof_C 	C 	0.46986	0.31266	0.12984	0.006
Mof_H 	H 	0.462	0.3127	0.0979	0.034
Mof_C 	C 	0.46368	0.28618	0.15334	-0.082
Mof_C 	C 	0.47537	0.2861	0.20063	0.139
Mof_C 	C 	0.499	0.4514	0.0477	0.363
Mof_C 	C 	0.44728	0.25626	0.127	0.12
Mof_C 	C 	0.46049	0.22566	0.14038	-0.146
Mof_H 	H 	0.4799	0.2231	0.1664	0.111
Mof_C 	C 	0.44501	0.19879	0.1153	0.072
Mof_H 	H 	0.4539	0.1781	0.1243	0.032
Mof_C 	C 	0.41631	0.20251	0.0768	-0.122
Mof_C 	C 	0.40309	0.23311	0.06341	0.07
Mof_H 	H 	0.3837	0.2356	0.0374	0.028
Mof_C 	C 	0.41858	0.25999	0.0885	-0.148
Mof_H 	H 	0.4096	0.2807	0.0794	0.089
Mof_C 	C 	0.401	0.1733	0.0487	0.366
Mof_C 	C 	0.49126	0.36837	0.127	0.121
Mof_C 	C 	0.48458	0.3989	0.14048	-0.147
Mof_H 	H 	0.4783	0.4013	0.1666	0.118
Mof_C 	C 	0.48717	0.42584	0.1153	0.07
Mof_H 	H 	0.4827	0.4465	0.1244	0.035
Mof_C 	C 	0.49644	0.42225	0.0766	-0.114
Mof_C 	C 	0.50312	0.39172	0.06311	0.064
Mof_H 	H 	0.5094	0.3893	0.0369	0.03
Mof_C 	C 	0.50053	0.36478	0.0883	-0.147
Mof_H 	H 	0.505	0.3441	0.0792	0.089
Mof_C 	C 	0.8495	0.4227	0.4519	0.377
Mof_C 	C 	0.76305	0.58919	0.347	-0.091
Mof_C 	C 	0.78	0.56228	0.37043	0.013
Mof_H 	H 	0.788	0.5622	0.4024	0.031
Mof_C 	C 	0.78506	0.53549	0.3466	-0.089
Mof_C 	C 	0.77318	0.53562	0.2993	0.155
Mof_C 	C 	0.75623	0.56253	0.27586	-0.057
Mof_C 	C 	0.75116	0.58932	0.2997	0.152
Mof_C 	C 	0.751	0.701	0.4522	0.38
Mof_C 	C 	0.75923	0.61898	0.37342	0.122
Mof_C 	C 	0.74994	0.61529	0.4121	-0.152
Mof_H 	H 	0.7457	0.5946	0.4213	0.091
Mof_C 	C 	0.74689	0.64221	0.43703	0.074
Mof_H 	H 	0.7406	0.6397	0.4632	0.026
Mof_C 	C 	0.75312	0.67282	0.4233	-0.132
Mof_C 	C 	0.76241	0.6765	0.3847	0.076
Mof_H 	H 	0.7666	0.6972	0.3754	0.03
Mof_C 	C 	0.76546	0.64958	0.35972	-0.148
Mof_H 	H 	0.7717	0.6521	0.3336	0.101
Mof_C 	C 	0.839	0.6112	0.0487	0.347
Mof_C 	C 	0.80234	0.50627	0.3735	0.12
Mof_C 	C 	0.83094	0.50994	0.4121	-0.146
Mof_H 	H 	0.8399	0.5306	0.4213	0.089
Mof_C 	C 	0.84637	0.48302	0.43714	0.065
Mof_H 	H 	0.8657	0.4855	0.4633	0.03
Mof_C 	C 	0.83319	0.45243	0.4236	-0.115
Mof_C 	C 	0.80458	0.44877	0.3849	0.066
Mof_H 	H 	0.7957	0.4281	0.3757	0.035
Mof_C 	C 	0.78915	0.47569	0.35991	-0.138
Mof_H 	H 	0.7698	0.4732	0.3338	0.101
Mof_C 	C 	0.0886	0.638	0.5491	0.387
Mof_C 	C 	0.74355	0.5629	0.2242	-0.058
Mof_C 	C 	0.76436	0.5741	0.20048	0.153
Mof_C 	C 	0.75266	0.57371	0.1532	-0.09
Mof_C 	C 	0.72015	0.56213	0.12964	0.01
Mof_H 	H 	0.7122	0.5619	0.0977	0.032
Mof_C 	C 	0.69935	0.55093	0.15336	-0.088
Mof_C 	C 	0.71105	0.55131	0.20064	0.151
Mof_C 	C 	0.5603	0.5131	0.0482	0.345
Mof_C 	C 	0.6628	0.54085	0.12715	0.111
Mof_C 	C 	0.65704	0.52189	0.0885	-0.14
Mof_H 	H 	0.6755	0.5153	0.0796	0.086
Mof_C 	C 	0.62397	0.51274	0.06317	0.056
Mof_H 	H 	0.6201	0.4999	0.0371	0.032
Mof_C 	C 	0.59666	0.52255	0.07643	-0.105
Mof_C 	C 	0.60242	0.54151	0.115	0.054
Mof_H 	H 	0.584	0.5481	0.124	0.036
Mof_C 	C 	0.63549	0.55066	0.1404	-0.131
Mof_H 	H 	0.6394	0.5635	0.1665	0.09
Mof_C 	C 	0.8109	0.7367	0.5483	0.362
Mof_C 	C 	0.91279	0.70941	0.6264	0.121
Mof_C 	C 	0.90672	0.72838	0.5877	-0.15
Mof_H 	H 	0.925	0.7351	0.5785	0.091
Mof_C 	C 	0.87355	0.73749	0.56275	0.071
Mof_H 	H 	0.8694	0.7503	0.5366	0.027
Mof_C 	C 	0.84646	0.72762	0.5764	-0.126
Mof_C 	C 	0.85253	0.70865	0.6151	0.073
Mof_H 	H 	0.8342	0.702	0.6243	0.029
Mof_C 	C 	0.88569	0.69954	0.64006	-0.148
Mof_H 	H 	0.8898	0.6867	0.6662	0.107
Mof_O 	O 	0.8348	0.39666	0.44	-0.414
Mof_C 	C 	0.99358	0.68777	0.72426	-0.051
Mof_C 	C 	0.01403	0.6755	0.7007	0.146
Mof_C 	C 	0.00224	0.67534	0.6534	-0.086
Mof_C 	C 	0.97	0.68744	0.62969	0.008
Mof_H 	H 	0.962	0.6873	0.5977	0.033
Mof_C 	C 	0.94955	0.69971	0.6532	-0.083
Mof_C 	C 	0.96134	0.69987	0.7005	0.145
Mof_O 	O 	0.87645	0.42765	0.485	-0.407
Mof_C 	C 	0.7755	0.58424	0.12699	0.115
Mof_C 	C 	0.76213	0.6031	0.0883	-0.141
Mof_H 	H 	0.7392	0.6098	0.0791	0.087
Mof_C 	C 	0.78267	0.61211	0.063	0.06
Mof_H 	H 	0.7736	0.6249	0.0368	0.031
Mof_C 	C 	0.81658	0.60226	0.07649	-0.108
Mof_C 	C 	0.82996	0.5834	0.1152	0.06
Mof_H 	H 	0.8529	0.5767	0.1244	0.037
Mof_C 	C 	0.80941	0.57439	0.14048	-0.128
Mof_H 	H 	0.8185	0.5616	0.1667	0.094
Mof_O 	O 	0.41566	0.14652	0.06	-0.403
Mof_C 	C 	0.02566	0.66571	0.62698	0.125
Mof_C 	C 	0.05954	0.67566	0.64026	-0.152
Mof_H 	H 	0.0686	0.6886	0.6663	0.108
Mof_C 	C 	0.08005	0.66654	0.615	0.081
Mof_H 	H 	0.103	0.6733	0.624	0.027
Mof_C 	C 	0.06669	0.64746	0.57649	-0.137
Mof_C 	C 	0.03281	0.63751	0.56321	0.079
Mof_H 	H 	0.0238	0.6246	0.5372	0.024
Mof_C 	C 	0.0123	0.64663	0.5884	-0.155
Mof_H 	H 	0.9894	0.6399	0.5795	0.091
Mof_O 	O 	0.37345	0.17762	0.016	-0.4
Mof_O 	O 	0.86918	0.59977	0.0606	-0.396
Mof_O 	O 	0.82611	0.63044	0.0154	-0.394
Mof_O 	O 	0.07639	0.61946	0.516	-0.409
Mof_O 	O 	0.11795	0.65003	0.5599	-0.41
Mof_O 	O 	0.80666	0.75559	0.5157	-0.404
Mof_O 	O 	0.7866	0.7246	0.5603	-0.397
Mof_O 	O 	0.75987	0.72818	0.4396	-0.4
Mof_O 	O 	0.74052	0.69747	0.4843	-0.417
Mof_O 	O 	0.55645	0.49453	0.015	-0.4
Mof_O 	O 	0.53606	0.52511	0.0606	-0.394
Mof_O 	O 	0.50964	0.44726	0.0157	-0.41
Mof_O 	O 	0.48986	0.47834	0.06069	-0.394
Mof_O 	O 	0.6909	0.5381	0.2238	-0.24
Mof_O 	O 	0.7326	0.6156	0.2748	-0.247
Mof_O 	O 	0.7965	0.5857	0.2247	-0.241
Mof_O 	O 	0.7806	0.5096	0.2758	-0.239
Mof_O 	O 	0.5171	0.366	0.2238	-0.184
Mof_O 	O 	0.4734	0.2583	0.2252	-0.195
Mof_O 	O 	0.94	0.7106	0.7243	-0.198
Mof_O 	O 	0.4531	0.8356	0.2759	-0.204
Mof_O 	O 	0.424	0.9153	0.258	-0.17
Mof_O 	O 	0.4632	0.9828	0.2686	-0.161
Mof_O 	O 	0.9407	0.7894	0.7949	-0.176
Mof_O 	O 	0.951	0.8736	0.7447	-0.163
Mof_O 	O 	0.4068	0.2333	0.2441	-0.142
Mof_O 	O 	0.5616	0.4152	0.261	-0.142
Mof_O 	O 	0.6516	0.5086	0.2641	-0.155
Mof_O 	O 	0.6247	0.6031	0.2484	-0.185
Mof_O 	O 	0.7854	0.684	0.2553	-0.179
Mof_O 	O 	0.8497	0.6182	0.2181	-0.165
Mof_O 	O 	0.8653	0.521	0.2383	-0.177
Mof_O 	O 	0.8046	0.4494	0.2594	-0.171
Mof_O 	O 	0.7164	0.4356	0.2569	-0.196
Mof_C 	C 	0.6911	0.5049	0.2208	0.096
Mof_C 	C 	0.6987	0.617	0.2725	0.119
Mof_C 	C 	0.7975	0.6191	0.2262	0.098
Mof_C 	C 	0.8134	0.5097	0.272	0.083
Mof_C 	C 	0.5512	0.3619	0.2253	0.067
Mof_C 	C 	0.4396	0.2576	0.2246	0.114
Mof_C 	C 	0.9407	0.744	0.7352	0.078
Mof_C 	C 	0.4514	0.8691	0.2796	0.083
Mof_C 	C 	0.4198	0.8794	0.2491	0.068
Mof_C 	C 	0.4562	0.9273	0.2518	0.062
Mof_C 	C 	0.4666	0.9504	0.2914	0.071
Mof_C 	C 	0.5007	0.9777	0.2742	0.064
Mof_C 	C 	0.9446	0.7553	0.7803	0.064
Mof_C 	C 	0.944	0.8172	0.7664	0.081
Mof_C 	C 	0.9658	0.847	0.7797	0.059
Mof_C 	C 	0.9827	0.8935	0.7528	0.063
Mof_C 	C 	0.4051	0.2648	0.2187	0.039
Mof_C 	C 	0.5683	0.3916	0.233	0.084
Mof_C 	C 	0.6764	0.4891	0.2494	0.037
Mof_C 	C 	0.6277	0.5394	0.2481	0.048
Mof_C 	C 	0.6079	0.5702	0.2355	0.065
Mof_C 	C 	0.6428	0.6323	0.2403	0.092
Mof_C 	C 	0.6792	0.6447	0.2572	-0.047
Mof_C 	C 	0.8234	0.6709	0.2581	0.06
Mof_C 	C 	0.8299	0.6329	0.2435	0.052
Mof_C 	C 	0.8733	0.5873	0.2265	0.07
Mof_C 	C 	0.8571	0.5536	0.2161	0.039
Mof_C 	C 	0.8468	0.491	0.238	0.076
Mof_C 	C 	0.822	0.4791	0.2592	0.053
Mof_C 	C 	0.7734	0.4286	0.2493	0.046
Mof_C 	C 	0.7443	0.4285	0.2421	0.068
Mof_C 	C 	0.696	0.4596	0.2706	0.078
Mof_C 	C 	0.7413	0.6435	0.2506	0.07
Mof_C 	C 	0.7747	0.6561	0.2655	0.067
Mof_C 	C 	0.8237	0.5608	0.241	0.082
Mof_C 	C 	0.8301	0.5301	0.2247	0.016
Mof_C 	C 	0.7341	0.4659	0.26	0.024
Mof_C 	C 	0.7624	0.4808	0.2501	0.088
Mof_C 	C 	0.6671	0.5581	0.2393	0.086
Mof_C 	C 	0.6468	0.5872	0.2272	0.018
Mof_Cu	Cu	0.01164	0.01815	0.47371	0.907
Mof_Cu	Cu	0.26153	0.73181	0.97369	0.907
Mof_Cu	Cu	0.35018	0.14318	0.97363	0.907
Mof_Cu	Cu	0.39972	0.10683	0.02624	0.91
Mof_C 	C 	0.99323	0.18749	0.72441	-0.047
Mof_C 	C 	0.99941	0.16102	0.7009	0.141
Mof_C 	C 	0.98773	0.16094	0.65362	-0.081
Mof_C 	C 	0.96986	0.18734	0.62984	0.006
Mof_H 	H 	0.962	0.1873	0.5979	0.034
Mof_C 	C 	0.96368	0.21382	0.65334	-0.082
Mof_C 	C 	0.97537	0.2139	0.70063	0.139
Mof_C 	C 	0.999	0.0486	0.5477	0.363
Mof_C 	C 	0.94728	0.24374	0.627	0.12
Mof_C 	C 	0.96049	0.27434	0.64038	-0.146
Mof_H 	H 	0.9799	0.2769	0.6664	0.111
Mof_C 	C 	0.94501	0.30121	0.6153	0.072
Mof_H 	H 	0.9539	0.3219	0.6243	0.032
Mof_C 	C 	0.91631	0.29749	0.5768	-0.122
Mof_C 	C 	0.90309	0.26689	0.56341	0.07
Mof_H 	H 	0.8837	0.2644	0.5374	0.028
Mof_C 	C 	0.91858	0.24001	0.5885	-0.148
Mof_H 	H 	0.9096	0.2193	0.5794	0.089
Mof_C 	C 	0.901	0.3267	0.5487	0.366
Mof_C 	C 	0.99126	0.13163	0.627	0.121
Mof_C 	C 	0.98458	0.1011	0.64048	-0.147
Mof_H 	H 	0.9783	0.0987	0.6666	0.118
Mof_C 	C 	0.98717	0.07416	0.6153	0.07
Mof_H 	H 	0.9827	0.0535	0.6244	0.035
Mof_C 	C 	0.99644	0.07775	0.5766	-0.114
Mof_C 	C 	0.00312	0.10828	0.56311	0.064
Mof_H 	H 	0.0094	0.1107	0.5369	0.03
Mof_C 	C 	0.00053	0.13522	0.5883	-0.147
Mof_H 	H 	0.005	0.1559	0.5792	0.089
Mof_C 	C 	0.3495	0.0773	0.9519	0.377
Mof_C 	C 	0.26305	0.91081	0.847	-0.091
Mof_C 	C 	0.28	0.93772	0.87043	0.013
Mof_H 	H 	0.288	0.9378	0.9024	0.031
Mof_C 	C 	0.28506	0.96451	0.8466	-0.089
Mof_C 	C 	0.27318	0.96438	0.7993	0.155
Mof_C 	C 	0.25623	0.93747	0.77586	-0.057
Mof_C 	C 	0.25116	0.91068	0.7997	0.152
Mof_C 	C 	0.251	0.799	0.9522	0.38
Mof_C 	C 	0.25923	0.88102	0.87342	0.122
Mof_C 	C 	0.24994	0.88471	0.9121	-0.152
Mof_H 	H 	0.2457	0.9054	0.9213	0.091
Mof_C 	C 	0.24689	0.85779	0.93703	0.074
Mof_H 	H 	0.2406	0.8603	0.9632	0.026
Mof_C 	C 	0.25312	0.82718	0.9233	-0.132
Mof_C 	C 	0.26241	0.8235	0.8847	0.076
Mof_H 	H 	0.2666	0.8028	0.8754	0.03
Mof_C 	C 	0.26546	0.85042	0.85972	-0.148
Mof_H 	H 	0.2717	0.8479	0.8336	0.101
Mof_C 	C 	0.339	0.8888	0.5487	0.347
Mof_C 	C 	0.30234	0.99373	0.8735	0.12
Mof_C 	C 	0.33094	0.99006	0.9121	-0.146
Mof_H 	H 	0.3399	0.9694	0.9213	0.089
Mof_C 	C 	0.34637	0.01698	0.93714	0.065
Mof_H 	H 	0.3657	0.0145	0.9633	0.03
Mof_C 	C 	0.33319	0.04757	0.9236	-0.115
Mof_C 	C 	0.30458	0.05123	0.8849	0.066
Mof_H 	H 	0.2957	0.0719	0.8757	0.035
Mof_C 	C 	0.28915	0.02431	0.85991	-0.138
Mof_H 	H 	0.2698	0.0268	0.8338	0.101
Mof_C 	C 	0.5886	0.862	0.0491	0.387
Mof_C 	C 	0.24355	0.9371	0.7242	-0.058
Mof_C 	C 	0.26436	0.9259	0.70048	0.153
Mof_C 	C 	0.25266	0.92629	0.6532	-0.09
Mof_C 	C 	0.22015	0.93787	0.62964	0.01
Mof_H 	H 	0.2122	0.9381	0.5977	0.032
Mof_C 	C 	0.19935	0.94907	0.65336	-0.088
Mof_C 	C 	0.21105	0.94869	0.70064	0.151
Mof_C 	C 	0.0603	0.9869	0.5482	0.345
Mof_C 	C 	0.1628	0.95915	0.62715	0.111
Mof_C 	C 	0.15704	0.97811	0.5885	-0.14
Mof_H 	H 	0.1755	0.9847	0.5796	0.086
Mof_C 	C 	0.12397	0.98726	0.56317	0.056
Mof_H 	H 	0.1201	0.0001	0.5371	0.032
Mof_C 	C 	0.09666	0.97745	0.57643	-0.105
Mof_C 	C 	0.10242	0.95849	0.615	0.054
Mof_H 	H 	0.084	0.9519	0.624	0.036
Mof_C 	C 	0.13549	0.94934	0.6404	-0.131
Mof_H 	H 	0.1394	0.9365	0.6665	0.09
Mof_C 	C 	0.3109	0.7633	0.0483	0.362
Mof_C 	C 	0.41279	0.79059	0.1264	0.121
Mof_C 	C 	0.40672	0.77162	0.0877	-0.15
Mof_H 	H 	0.425	0.7649	0.0785	0.091
Mof_C 	C 	0.37355	0.76251	0.06275	0.071
Mof_H 	H 	0.3694	0.7497	0.0366	0.027
Mof_C 	C 	0.34646	0.77238	0.0764	-0.126
Mof_C 	C 	0.35253	0.79135	0.1151	0.073
Mof_H 	H 	0.3342	0.798	0.1243	0.029
Mof_C 	C 	0.38569	0.80046	0.14006	-0.148
Mof_H 	H 	0.3898	0.8133	0.1662	0.107
Mof_O 	O 	0.3348	0.10334	0.94	-0.414
Mof_C 	C 	0.49358	0.81223	0.22426	-0.052
Mof_C 	C 	0.51403	0.8245	0.2007	0.146
Mof_C 	C 	0.50224	0.82466	0.1534	-0.086
Mof_C 	C 	0.47	0.81256	0.12969	0.008
Mof_H 	H 	0.462	0.8127	0.0977	0.033
Mof_C 	C 	0.44955	0.80029	0.1532	-0.083
Mof_C 	C 	0.46134	0.80013	0.2005	0.145
Mof_O 	O 	0.37645	0.07235	0.985	-0.407
Mof_C 	C 	0.2755	0.91576	0.62699	0.115
Mof_C 	C 	0.26213	0.8969	0.5883	-0.141
Mof_H 	H 	0.2392	0.8902	0.5791	0.087
Mof_C 	C 	0.28267	0.88789	0.563	0.06
Mof_H 	H 	0.2736	0.8751	0.5368	0.031
Mof_C 	C 	0.31658	0.89774	0.57649	-0.108
Mof_C 	C 	0.32996	0.9166	0.6152	0.06
Mof_H 	H 	0.3529	0.9233	0.6244	0.037
Mof_C 	C 	0.30941	0.92561	0.64048	-0.128
Mof_H 	H 	0.3185	0.9384	0.6667	0.094
Mof_O 	O 	0.91566	0.35348	0.56	-0.403
Mof_C 	C 	0.52566	0.83429	0.12698	0.125
Mof_C 	C 	0.55954	0.82434	0.14026	-0.152
Mof_H 	H 	0.5686	0.8114	0.1663	0.108
Mof_C 	C 	0.58005	0.83346	0.115	0.081
Mof_H 	H 	0.603	0.8267	0.124	0.027
Mof_C 	C 	0.56669	0.85254	0.07649	-0.137
Mof_C 	C 	0.53281	0.86249	0.06321	0.079
Mof_H 	H 	0.5238	0.8754	0.0372	0.024
Mof_C 	C 	0.5123	0.85337	0.0884	-0.155
Mof_H 	H 	0.4894	0.8601	0.0795	0.091
Mof_O 	O 	0.87345	0.32238	0.516	-0.4
Mof_O 	O 	0.36918	0.90023	0.5606	-0.396
Mof_O 	O 	0.32611	0.86956	0.5154	-0.394
Mof_O 	O 	0.57639	0.88054	0.016	-0.409
Mof_O 	O 	0.61795	0.84997	0.0599	-0.41
Mof_O 	O 	0.30666	0.74441	0.0157	-0.404
Mof_O 	O 	0.2866	0.7754	0.0603	-0.397
Mof_O 	O 	0.25987	0.77182	0.9396	-0.4
Mof_O 	O 	0.24052	0.80253	0.9843	-0.417
Mof_O 	O 	0.05645	0.00547	0.515	-0.4
Mof_O 	O 	0.03606	0.97489	0.5606	-0.394
Mof_O 	O 	0.00964	0.05274	0.5157	-0.41
Mof_O 	O 	0.98986	0.02166	0.56069	-0.394
Mof_O 	O 	0.1909	0.9619	0.7238	-0.24
Mof_O 	O 	0.2326	0.8844	0.7748	-0.247
Mof_O 	O 	0.2965	0.9143	0.7247	-0.241
Mof_O 	O 	0.2806	0.9904	0.7758	-0.239
Mof_O 	O 	0.0171	0.134	0.7238	-0.184
Mof_O 	O 	0.9734	0.2417	0.7252	-0.195
Mof_O 	O 	0.44	0.7894	0.2243	-0.198
Mof_O 	O 	0.9531	0.6644	0.7759	-0.204
Mof_O 	O 	0.924	0.5847	0.758	-0.17
Mof_O 	O 	0.9632	0.5172	0.7686	-0.161
Mof_O 	O 	0.4407	0.7106	0.2949	-0.176
Mof_O 	O 	0.451	0.6264	0.2447	-0.163
Mof_O 	O 	0.9068	0.2667	0.7441	-0.142
Mof_O 	O 	0.0616	0.0848	0.761	-0.142
Mof_O 	O 	0.1516	0.9914	0.7641	-0.155
Mof_O 	O 	0.1247	0.8969	0.7484	-0.185
Mof_O 	O 	0.2854	0.816	0.7553	-0.179
Mof_O 	O 	0.3497	0.8818	0.7181	-0.165
Mof_O 	O 	0.3653	0.979	0.7383	-0.177
Mof_O 	O 	0.3046	0.0506	0.7594	-0.171
Mof_O 	O 	0.2164	0.0644	0.7569	-0.196
Mof_C 	C 	0.1911	0.9951	0.7208	0.096
Mof_C 	C 	0.1987	0.883	0.7725	0.119
Mof_C 	C 	0.2975	0.8809	0.7262	0.098
Mof_C 	C 	0.3134	0.9903	0.772	0.083
Mof_C 	C 	0.0512	0.1381	0.7253	0.067
Mof_C 	C 	0.9396	0.2424	0.7246	0.114
Mof_C 	C 	0.4407	0.756	0.2352	0.078
Mof_C 	C 	0.9514	0.6309	0.7796	0.083
Mof_C 	C 	0.9198	0.6206	0.7491	0.068
Mof_C 	C 	0.9562	0.5727	0.7518	0.062
Mof_C 	C 	0.9666	0.5496	0.7914	0.071
Mof_C 	C 	0.0007	0.5223	0.7742	0.063
Mof_C 	C 	0.4446	0.7447	0.2803	0.064
Mof_C 	C 	0.444	0.6828	0.2664	0.081
Mof_C 	C 	0.4658	0.653	0.2797	0.059
Mof_C 	C 	0.4827	0.6065	0.2528	0.063
Mof_C 	C 	0.9051	0.2352	0.7187	0.039
Mof_C 	C 	0.0683	0.1084	0.733	0.084
Mof_C 	C 	0.1764	0.0109	0.7494	0.037
Mof_C 	C 	0.1277	0.9606	0.7481	0.048
Mof_C 	C 	0.1079	0.9298	0.7355	0.065
Mof_C 	C 	0.1428	0.8677	0.7403	0.092
Mof_C 	C 	0.1792	0.8553	0.7572	-0.047
Mof_C 	C 	0.3234	0.8291	0.7581	0.06
Mof_C 	C 	0.3299	0.8671	0.7435	0.052
Mof_C 	C 	0.3733	0.9127	0.7265	0.07
Mof_C 	C 	0.3571	0.9464	0.7161	0.039
Mof_C 	C 	0.3468	0.009	0.738	0.076
Mof_C 	C 	0.322	0.0209	0.7592	0.053
Mof_C 	C 	0.2734	0.0714	0.7493	0.046
Mof_C 	C 	0.2443	0.0715	0.7421	0.068
Mof_C 	C 	0.196	0.0404	0.7706	0.078
Mof_C 	C 	0.2413	0.8565	0.7506	0.07
Mof_C 	C 	0.2747	0.8439	0.7655	0.067
Mof_C 	C 	0.3237	0.9392	0.741	0.082
Mof_C 	C 	0.3301	0.9699	0.7247	0.016
Mof_C 	C 	0.2341	0.0341	0.76	0.024
Mof_C 	C 	0.2624	0.0192	0.7501	0.088
Mof_C 	C 	0.1671	0.9419	0.7393	0.086
Mof_C 	C 	0.1468	0.9128	0.7272	0.018
Mof_Cu	Cu	0.51164	0.51815	0.47371	0.907
Mof_Cu	Cu	0.76153	0.23181	0.97369	0.907
Mof_Cu	Cu	0.85018	0.64318	0.97363	0.907
Mof_Cu	Cu	0.89972	0.60683	0.02624	0.91
Mof_C 	C 	0.49323	0.68749	0.72441	-0.047
Mof_C 	C 	0.49941	0.66102	0.7009	0.141
Mof_C 	C 	0.48773	0.66094	0.65362	-0.081
Mof_C 	C 	0.46986	0.68734	0.62984	0.006
Mof_H 	H 	0.462	0.6873	0.5979	0.034
Mof_C 	C 	0.46368	0.71382	0.65334	-0.082
Mof_C 	C 	0.47537	0.7139	0.70063	0.139
Mof_C 	C 	0.499	0.5486	0.5477	0.363
Mof_C 	C 	0.44728	0.74374	0.627	0.12
Mof_C 	C 	0.46049	0.77434	0.64038	-0.146
Mof_H 	H 	0.4799	0.7769	0.6664	0.111
Mof_C 	C 	0.44501	0.80121	0.6153	0.072
Mof_H 	H 	0.4539	0.8219	0.6243	0.032
Mof_C 	C 	0.41631	0.79749	0.5768	-0.122
Mof_C 	C 	0.40309	0.76689	0.56341	0.07
Mof_H 	H 	0.3837	0.7644	0.5374	0.028
Mof_C 	C 	0.41858	0.74001	0.5885	-0.148
Mof_H 	H 	0.4096	0.7193	0.5794	0.089
Mof_C 	C 	0.401	0.8267	0.5487	0.366
Mof_C 	C 	0.49126	0.63163	0.627	0.121
Mof_C 	C 	0.48458	0.6011	0.64048	-0.147
Mof_H 	H 	0.4783	0.5987	0.6666	0.118
Mof_C 	C 	0.48717	0.57416	0.6153	0.07
Mof_H 	H 	0.4827	0.5535	0.6244	0.035
Mof_C 	C 	0.49644	0.57775	0.5766	-0.114
Mof_C 	C 	0.50312	0.60828	0.56311	0.064
Mof_H 	H 	0.5094	0.6107	0.5369	0.029
Mof_C 	C 	0.50053	0.63522	0.5883	-0.147
Mof_H 	H 	0.505	0.6559	0.5792	0.089
Mof_C 	C 	0.8495	0.5773	0.9519	0.377
Mof_C 	C 	0.76305	0.41081	0.847	-0.091
Mof_C 	C 	0.78	0.43772	0.87043	0.013
Mof_H 	H 	0.788	0.4378	0.9024	0.031
Mof_C 	C 	0.78506	0.46451	0.8466	-0.089
Mof_C 	C 	0.77318	0.46438	0.7993	0.155
Mof_C 	C 	0.75623	0.43747	0.77586	-0.057
Mof_C 	C 	0.75116	0.41068	0.7997	0.152
Mof_C 	C 	0.751	0.299	0.9522	0.38
Mof_C 	C 	0.75923	0.38102	0.87342	0.122
Mof_C 	C 	0.74994	0.38471	0.9121	-0.152
Mof_H 	H 	0.7457	0.4054	0.9213	0.091
Mof_C 	C 	0.74689	0.35779	0.93703	0.074
Mof_H 	H 	0.7406	0.3603	0.9632	0.026
Mof_C 	C 	0.75312	0.32718	0.9233	-0.132
Mof_C 	C 	0.76241	0.3235	0.8847	0.076
Mof_H 	H 	0.7666	0.3028	0.8754	0.03
Mof_C 	C 	0.76546	0.35042	0.85972	-0.148
Mof_H 	H 	0.7717	0.3479	0.8336	0.101
Mof_C 	C 	0.839	0.3888	0.5487	0.347
Mof_C 	C 	0.80234	0.49373	0.8735	0.12
Mof_C 	C 	0.83094	0.49006	0.9121	-0.146
Mof_H 	H 	0.8399	0.4694	0.9213	0.089
Mof_C 	C 	0.84637	0.51698	0.93714	0.065
Mof_H 	H 	0.8657	0.5145	0.9633	0.03
Mof_C 	C 	0.83319	0.54757	0.9236	-0.115
Mof_C 	C 	0.80458	0.55123	0.8849	0.066
Mof_H 	H 	0.7957	0.5719	0.8757	0.035
Mof_C 	C 	0.78915	0.52431	0.85991	-0.138
Mof_H 	H 	0.7698	0.5268	0.8338	0.101
Mof_C 	C 	0.0886	0.362	0.0491	0.387
Mof_C 	C 	0.74355	0.4371	0.7242	-0.058
Mof_C 	C 	0.76436	0.4259	0.70048	0.153
Mof_C 	C 	0.75266	0.42629	0.6532	-0.09
Mof_C 	C 	0.72015	0.43787	0.62964	0.01
Mof_H 	H 	0.7122	0.4381	0.5977	0.032
Mof_C 	C 	0.69935	0.44907	0.65336	-0.088
Mof_C 	C 	0.71105	0.44869	0.70064	0.151
Mof_C 	C 	0.5603	0.4869	0.5482	0.345
Mof_C 	C 	0.6628	0.45915	0.62715	0.111
Mof_C 	C 	0.65704	0.47811	0.5885	-0.14
Mof_H 	H 	0.6755	0.4847	0.5796	0.086
Mof_C 	C 	0.62397	0.48726	0.56317	0.056
Mof_H 	H 	0.6201	0.5001	0.5371	0.032
Mof_C 	C 	0.59666	0.47745	0.57643	-0.105
Mof_C 	C 	0.60242	0.45849	0.615	0.054
Mof_H 	H 	0.584	0.4519	0.624	0.036
Mof_C 	C 	0.63549	0.44934	0.6404	-0.131
Mof_H 	H 	0.6394	0.4365	0.6665	0.09
Mof_C 	C 	0.8109	0.2633	0.0483	0.362
Mof_C 	C 	0.91279	0.29059	0.1264	0.121
Mof_C 	C 	0.90672	0.27162	0.0877	-0.15
Mof_H 	H 	0.925	0.2649	0.0785	0.091
Mof_C 	C 	0.87355	0.26251	0.06275	0.071
Mof_H 	H 	0.8694	0.2497	0.0366	0.027
Mof_C 	C 	0.84646	0.27238	0.0764	-0.126
Mof_C 	C 	0.85253	0.29135	0.1151	0.073
Mof_H 	H 	0.8342	0.298	0.1243	0.029
Mof_C 	C 	0.88569	0.30046	0.14006	-0.148
Mof_H 	H 	0.8898	0.3133	0.1662	0.107
Mof_O 	O 	0.8348	0.60334	0.94	-0.414
Mof_C 	C 	0.99358	0.31223	0.22426	-0.052
Mof_C 	C 	0.01403	0.3245	0.2007	0.146
Mof_C 	C 	0.00224	0.32466	0.1534	-0.086
Mof_C 	C 	0.97	0.31256	0.12969	0.008
Mof_H 	H 	0.962	0.3127	0.0977	0.033
Mof_C 	C 	0.94955	0.30029	0.1532	-0.083
Mof_C 	C 	0.96134	0.30013	0.2005	0.145
Mof_O 	O 	0.87645	0.57235	0.985	-0.407
Mof_C 	C 	0.7755	0.41576	0.62699	0.115
Mof_C 	C 	0.76213	0.3969	0.5883	-0.141
Mof_H 	H 	0.7392	0.3902	0.5791	0.087
Mof_C 	C 	0.78267	0.38789	0.563	0.06
Mof_H 	H 	0.7736	0.3751	0.5368	0.031
Mof_C 	C 	0.81658	0.39774	0.57649	-0.108
Mof_C 	C 	0.82996	0.4166	0.6152	0.06
Mof_H 	H 	0.8529	0.4233	0.6244	0.037
Mof_C 	C 	0.80941	0.42561	0.64048	-0.128
Mof_H 	H 	0.8185	0.4384	0.6667	0.094
Mof_O 	O 	0.41566	0.85348	0.56	-0.403
Mof_C 	C 	0.02566	0.33429	0.12698	0.124
Mof_C 	C 	0.05954	0.32434	0.14026	-0.152
Mof_H 	H 	0.0686	0.3114	0.1663	0.108
Mof_C 	C 	0.08005	0.33346	0.115	0.081
Mof_H 	H 	0.103	0.3267	0.124	0.027
Mof_C 	C 	0.06669	0.35254	0.07649	-0.137
Mof_C 	C 	0.03281	0.36249	0.06321	0.079
Mof_H 	H 	0.0238	0.3754	0.0372	0.025
Mof_C 	C 	0.0123	0.35337	0.0884	-0.155
Mof_H 	H 	0.9894	0.3601	0.0795	0.091
Mof_O 	O 	0.37345	0.82238	0.516	-0.4
Mof_O 	O 	0.86918	0.40023	0.5606	-0.396
Mof_O 	O 	0.82611	0.36956	0.5154	-0.394
Mof_O 	O 	0.07639	0.38054	0.016	-0.409
Mof_O 	O 	0.11795	0.34997	0.0599	-0.409
Mof_O 	O 	0.80666	0.24441	0.0157	-0.404
Mof_O 	O 	0.7866	0.2754	0.0603	-0.397
Mof_O 	O 	0.75987	0.27182	0.9396	-0.4
Mof_O 	O 	0.74052	0.30253	0.9843	-0.417
Mof_O 	O 	0.55645	0.50547	0.515	-0.4
Mof_O 	O 	0.53606	0.47489	0.5606	-0.395
Mof_O 	O 	0.50964	0.55274	0.5157	-0.41
Mof_O 	O 	0.48986	0.52166	0.56069	-0.394
Mof_O 	O 	0.6909	0.4619	0.7238	-0.24
Mof_O 	O 	0.7326	0.3844	0.7748	-0.247
Mof_O 	O 	0.7965	0.4143	0.7247	-0.241
Mof_O 	O 	0.7806	0.4904	0.7758	-0.239
Mof_O 	O 	0.5171	0.634	0.7238	-0.184
Mof_O 	O 	0.4734	0.7417	0.7252	-0.195
Mof_O 	O 	0.94	0.2894	0.2243	-0.198
Mof_O 	O 	0.4531	0.1644	0.7759	-0.204
Mof_O 	O 	0.424	0.0847	0.758	-0.17
Mof_O 	O 	0.4632	0.0172	0.7686	-0.161
Mof_O 	O 	0.9407	0.2106	0.2949	-0.176
Mof_O 	O 	0.951	0.1264	0.2447	-0.163
Mof_O 	O 	0.4068	0.7667	0.7441	-0.142
Mof_O 	O 	0.5616	0.5848	0.761	-0.142
Mof_O 	O 	0.6516	0.4914	0.7641	-0.155
Mof_O 	O 	0.6247	0.3969	0.7484	-0.185
Mof_O 	O 	0.7854	0.316	0.7553	-0.179
Mof_O 	O 	0.8497	0.3818	0.7181	-0.165
Mof_O 	O 	0.8653	0.479	0.7383	-0.177
Mof_O 	O 	0.8046	0.5506	0.7594	-0.171
Mof_O 	O 	0.7164	0.5644	0.7569	-0.196
Mof_C 	C 	0.6911	0.4951	0.7208	0.096
Mof_C 	C 	0.6987	0.383	0.7725	0.119
Mof_C 	C 	0.7975	0.3809	0.7262	0.098
Mof_C 	C 	0.8134	0.4903	0.772	0.083
Mof_C 	C 	0.5512	0.6381	0.7253	0.067
Mof_C 	C 	0.4396	0.7424	0.7246	0.114
Mof_C 	C 	0.9407	0.256	0.2352	0.078
Mof_C 	C 	0.4514	0.1309	0.7796	0.083
Mof_C 	C 	0.4198	0.1206	0.7491	0.068
Mof_C 	C 	0.4562	0.0727	0.7518	0.062
Mof_C 	C 	0.4666	0.0496	0.7914	0.071
Mof_C 	C 	0.5007	0.0223	0.7742	0.064
Mof_C 	C 	0.9446	0.2447	0.2803	0.064
Mof_C 	C 	0.944	0.1828	0.2664	0.081
Mof_C 	C 	0.9658	0.153	0.2797	0.059
Mof_C 	C 	0.9827	0.1065	0.2528	0.063
Mof_C 	C 	0.4051	0.7352	0.7187	0.039
Mof_C 	C 	0.5683	0.6084	0.733	0.084
Mof_C 	C 	0.6764	0.5109	0.7494	0.037
Mof_C 	C 	0.6277	0.4606	0.7481	0.048
Mof_C 	C 	0.6079	0.4298	0.7355	0.065
Mof_C 	C 	0.6428	0.3677	0.7403	0.092
Mof_C 	C 	0.6792	0.3553	0.7572	-0.047
Mof_C 	C 	0.8234	0.3291	0.7581	0.06
Mof_C 	C 	0.8299	0.3671	0.7435	0.052
Mof_C 	C 	0.8733	0.4127	0.7265	0.07
Mof_C 	C 	0.8571	0.4464	0.7161	0.039
Mof_C 	C 	0.8468	0.509	0.738	0.076
Mof_C 	C 	0.822	0.5209	0.7592	0.053
Mof_C 	C 	0.7734	0.5714	0.7493	0.046
Mof_C 	C 	0.7443	0.5715	0.7421	0.068
Mof_C 	C 	0.696	0.5404	0.7706	0.078
Mof_C 	C 	0.7413	0.3565	0.7506	0.07
Mof_C 	C 	0.7747	0.3439	0.7655	0.067
Mof_C 	C 	0.8237	0.4392	0.741	0.082
Mof_C 	C 	0.8301	0.4699	0.7247	0.016
Mof_C 	C 	0.7341	0.5341	0.76	0.024
Mof_C 	C 	0.7624	0.5192	0.7501	0.088
Mof_C 	C 	0.6671	0.4419	0.7393	0.086
Mof_C 	C 	0.6468	0.4128	0.7272	0.018
Mof_Cu	Cu	0.98836	0.01815	0.02629	0.907
Mof_Cu	Cu	0.73847	0.73181	0.52631	0.907
Mof_Cu	Cu	0.64982	0.14318	0.52637	0.907
Mof_Cu	Cu	0.60028	0.10683	0.47376	0.91
Mof_C 	C 	0.00677	0.18749	0.77559	-0.047
Mof_C 	C 	0.00059	0.16102	0.7991	0.141
Mof_C 	C 	0.01227	0.16094	0.84638	-0.081
Mof_C 	C 	0.03014	0.18734	0.87016	0.006
Mof_H 	H 	0.038	0.1873	0.9021	0.034
Mof_C 	C 	0.03632	0.21382	0.84666	-0.082
Mof_C 	C 	0.02463	0.2139	0.79937	0.139
Mof_C 	C 	0.001	0.0486	0.9523	0.363
Mof_C 	C 	0.05272	0.24374	0.873	0.12
Mof_C 	C 	0.03951	0.27434	0.85962	-0.146
Mof_H 	H 	0.0201	0.2769	0.8336	0.111
Mof_C 	C 	0.05499	0.30121	0.8847	0.072
Mof_H 	H 	0.0461	0.3219	0.8757	0.032
Mof_C 	C 	0.08369	0.29749	0.9232	-0.122
Mof_C 	C 	0.09691	0.26689	0.93659	0.07
Mof_H 	H 	0.1163	0.2644	0.9626	0.028
Mof_C 	C 	0.08142	0.24001	0.9115	-0.148
Mof_H 	H 	0.0904	0.2193	0.9206	0.089
Mof_C 	C 	0.099	0.3267	0.9513	0.366
Mof_C 	C 	0.00874	0.13163	0.873	0.121
Mof_C 	C 	0.01542	0.1011	0.85952	-0.147
Mof_H 	H 	0.0217	0.0987	0.8334	0.118
Mof_C 	C 	0.01283	0.07416	0.8847	0.07
Mof_H 	H 	0.0173	0.0535	0.8756	0.035
Mof_C 	C 	0.00356	0.07775	0.9234	-0.114
Mof_C 	C 	0.99688	0.10828	0.93689	0.064
Mof_H 	H 	0.9906	0.1107	0.9631	0.03
Mof_C 	C 	0.99947	0.13522	0.9117	-0.147
Mof_H 	H 	0.995	0.1559	0.9208	0.089
Mof_C 	C 	0.6505	0.0773	0.5481	0.377
Mof_C 	C 	0.73695	0.91081	0.653	-0.091
Mof_C 	C 	0.72	0.93772	0.62957	0.013
Mof_H 	H 	0.712	0.9378	0.5976	0.031
Mof_C 	C 	0.71494	0.96451	0.6534	-0.089
Mof_C 	C 	0.72682	0.96438	0.7007	0.155
Mof_C 	C 	0.74377	0.93747	0.72414	-0.057
Mof_C 	C 	0.74884	0.91068	0.7003	0.152
Mof_C 	C 	0.749	0.799	0.5478	0.38
Mof_C 	C 	0.74077	0.88102	0.62658	0.122
Mof_C 	C 	0.75006	0.88471	0.5879	-0.152
Mof_H 	H 	0.7543	0.9054	0.5787	0.091
Mof_C 	C 	0.75311	0.85779	0.56297	0.074
Mof_H 	H 	0.7594	0.8603	0.5368	0.026
Mof_C 	C 	0.74688	0.82718	0.5767	-0.132
Mof_C 	C 	0.73759	0.8235	0.6153	0.076
Mof_H 	H 	0.7334	0.8028	0.6246	0.03
Mof_C 	C 	0.73454	0.85042	0.64028	-0.148
Mof_H 	H 	0.7283	0.8479	0.6664	0.101
Mof_C 	C 	0.661	0.8888	0.9513	0.347
Mof_C 	C 	0.69766	0.99373	0.6265	0.12
Mof_C 	C 	0.66906	0.99006	0.5879	-0.146
Mof_H 	H 	0.6601	0.9694	0.5787	0.089
Mof_C 	C 	0.65363	0.01698	0.56286	0.065
Mof_H 	H 	0.6343	0.0145	0.5367	0.03
Mof_C 	C 	0.66681	0.04757	0.5764	-0.115
Mof_C 	C 	0.69542	0.05123	0.6151	0.066
Mof_H 	H 	0.7043	0.0719	0.6243	0.035
Mof_C 	C 	0.71085	0.02431	0.64009	-0.138
Mof_H 	H 	0.7302	0.0268	0.6662	0.101
Mof_C 	C 	0.4114	0.862	0.4509	0.387
Mof_C 	C 	0.75645	0.9371	0.7758	-0.058
Mof_C 	C 	0.73564	0.9259	0.79952	0.153
Mof_C 	C 	0.74734	0.92629	0.8468	-0.09
Mof_C 	C 	0.77985	0.93787	0.87036	0.01
Mof_H 	H 	0.7878	0.9381	0.9023	0.032
Mof_C 	C 	0.80065	0.94907	0.84664	-0.088
Mof_C 	C 	0.78895	0.94869	0.79936	0.151
Mof_C 	C 	0.9397	0.9869	0.9518	0.345
Mof_C 	C 	0.8372	0.95915	0.87285	0.11
Mof_C 	C 	0.84296	0.97811	0.9115	-0.139
Mof_H 	H 	0.8245	0.9847	0.9204	0.086
Mof_C 	C 	0.87603	0.98726	0.93683	0.056
Mof_H 	H 	0.8799	0.0001	0.9629	0.032
Mof_C 	C 	0.90334	0.97745	0.92357	-0.105
Mof_C 	C 	0.89758	0.95849	0.885	0.054
Mof_H 	H 	0.916	0.9519	0.876	0.036
Mof_C 	C 	0.86451	0.94934	0.8596	-0.131
Mof_H 	H 	0.8606	0.9365	0.8335	0.09
Mof_C 	C 	0.6891	0.7633	0.4517	0.362
Mof_C 	C 	0.58721	0.79059	0.3736	0.121
Mof_C 	C 	0.59328	0.77162	0.4123	-0.15
Mof_H 	H 	0.575	0.7649	0.4215	0.091
Mof_C 	C 	0.62645	0.76251	0.43725	0.071
Mof_H 	H 	0.6306	0.7497	0.4634	0.027
Mof_C 	C 	0.65354	0.77238	0.4236	-0.126
Mof_C 	C 	0.64747	0.79135	0.3849	0.073
Mof_H 	H 	0.6658	0.798	0.3757	0.029
Mof_C 	C 	0.61431	0.80046	0.35994	-0.148
Mof_H 	H 	0.6102	0.8133	0.3338	0.107
Mof_O 	O 	0.6652	0.10334	0.56	-0.414
Mof_C 	C 	0.50642	0.81223	0.27574	-0.052
Mof_C 	C 	0.48597	0.8245	0.2993	0.146
Mof_C 	C 	0.49776	0.82466	0.3466	-0.086
Mof_C 	C 	0.53	0.81256	0.37031	0.008
Mof_H 	H 	0.538	0.8127	0.4023	0.033
Mof_C 	C 	0.55045	0.80029	0.3468	-0.083
Mof_C 	C 	0.53866	0.80013	0.2995	0.145
Mof_O 	O 	0.62355	0.07235	0.515	-0.407
Mof_C 	C 	0.7245	0.91576	0.87301	0.115
Mof_C 	C 	0.73787	0.8969	0.9117	-0.141
Mof_H 	H 	0.7608	0.8902	0.9209	0.087
Mof_C 	C 	0.71733	0.88789	0.937	0.06
Mof_H 	H 	0.7264	0.8751	0.9632	0.031
Mof_C 	C 	0.68342	0.89774	0.92351	-0.108
Mof_C 	C 	0.67004	0.9166	0.8848	0.06
Mof_H 	H 	0.6471	0.9233	0.8756	0.037
Mof_C 	C 	0.69059	0.92561	0.85952	-0.128
Mof_H 	H 	0.6815	0.9384	0.8333	0.094
Mof_O 	O 	0.08434	0.35348	0.94	-0.403
Mof_C 	C 	0.47434	0.83429	0.37302	0.125
Mof_C 	C 	0.44046	0.82434	0.35974	-0.152
Mof_H 	H 	0.4314	0.8114	0.3337	0.108
Mof_C 	C 	0.41995	0.83346	0.385	0.081
Mof_H 	H 	0.397	0.8267	0.376	0.027
Mof_C 	C 	0.43331	0.85254	0.42351	-0.137
Mof_C 	C 	0.46719	0.86249	0.43679	0.079
Mof_H 	H 	0.4762	0.8754	0.4628	0.024
Mof_C 	C 	0.4877	0.85337	0.4116	-0.155
Mof_H 	H 	0.5106	0.8601	0.4205	0.091
Mof_O 	O 	0.12655	0.32238	0.984	-0.4
Mof_O 	O 	0.63082	0.90023	0.9394	-0.396
Mof_O 	O 	0.67389	0.86956	0.9846	-0.394
Mof_O 	O 	0.42361	0.88054	0.484	-0.409
Mof_O 	O 	0.38205	0.84997	0.4401	-0.41
Mof_O 	O 	0.69334	0.74441	0.4843	-0.404
Mof_O 	O 	0.7134	0.7754	0.4397	-0.397
Mof_O 	O 	0.74013	0.77182	0.5604	-0.4
Mof_O 	O 	0.75948	0.80253	0.5157	-0.417
Mof_O 	O 	0.94355	0.00547	0.985	-0.4
Mof_O 	O 	0.96394	0.97489	0.9394	-0.394
Mof_O 	O 	0.99036	0.05274	0.9843	-0.41
Mof_O 	O 	0.01014	0.02166	0.93931	-0.394
Mof_O 	O 	0.8091	0.9619	0.7762	-0.24
Mof_O 	O 	0.7674	0.8844	0.7252	-0.247
Mof_O 	O 	0.7035	0.9143	0.7753	-0.241
Mof_O 	O 	0.7194	0.9904	0.7242	-0.239
Mof_O 	O 	0.9829	0.134	0.7762	-0.184
Mof_O 	O 	0.0266	0.2417	0.7748	-0.195
Mof_O 	O 	0.56	0.7894	0.2757	-0.198
Mof_O 	O 	0.0469	0.6644	0.7241	-0.203
Mof_O 	O 	0.076	0.5847	0.742	-0.17
Mof_O 	O 	0.0368	0.5172	0.7314	-0.161
Mof_O 	O 	0.5593	0.7106	0.2051	-0.176
Mof_O 	O 	0.549	0.6264	0.2553	-0.163
Mof_O 	O 	0.0932	0.2667	0.7559	-0.142
Mof_O 	O 	0.9384	0.0848	0.739	-0.142
Mof_O 	O 	0.8484	0.9914	0.7359	-0.155
Mof_O 	O 	0.8753	0.8969	0.7516	-0.185
Mof_O 	O 	0.7146	0.816	0.7447	-0.179
Mof_O 	O 	0.6503	0.8818	0.7819	-0.165
Mof_O 	O 	0.6347	0.979	0.7617	-0.177
Mof_O 	O 	0.6954	0.0506	0.7406	-0.171
Mof_O 	O 	0.7836	0.0644	0.7431	-0.196
Mof_C 	C 	0.8089	0.9951	0.7792	0.096
Mof_C 	C 	0.8013	0.883	0.7275	0.119
Mof_C 	C 	0.7025	0.8809	0.7738	0.098
Mof_C 	C 	0.6866	0.9903	0.728	0.083
Mof_C 	C 	0.9488	0.1381	0.7747	0.067
Mof_C 	C 	0.0604	0.2424	0.7754	0.114
Mof_C 	C 	0.5593	0.756	0.2648	0.078
Mof_C 	C 	0.0486	0.6309	0.7204	0.083
Mof_C 	C 	0.0802	0.6206	0.7509	0.068
Mof_C 	C 	0.0438	0.5727	0.7482	0.062
Mof_C 	C 	0.0334	0.5496	0.7086	0.071
Mof_C 	C 	0.9993	0.5223	0.7258	0.064
Mof_C 	C 	0.5554	0.7447	0.2197	0.064
Mof_C 	C 	0.556	0.6828	0.2336	0.081
Mof_C 	C 	0.5342	0.653	0.2203	0.059
Mof_C 	C 	0.5173	0.6065	0.2472	0.063
Mof_C 	C 	0.0949	0.2352	0.7813	0.039
Mof_C 	C 	0.9317	0.1084	0.767	0.084
Mof_C 	C 	0.8236	0.0109	0.7506	0.037
Mof_C 	C 	0.8723	0.9606	0.7519	0.048
Mof_C 	C 	0.8921	0.9298	0.7645	0.065
Mof_C 	C 	0.8572	0.8677	0.7597	0.092
Mof_C 	C 	0.8208	0.8553	0.7428	-0.047
Mof_C 	C 	0.6766	0.8291	0.7419	0.06
Mof_C 	C 	0.6701	0.8671	0.7565	0.052
Mof_C 	C 	0.6267	0.9127	0.7735	0.07
Mof_C 	C 	0.6429	0.9464	0.7839	0.039
Mof_C 	C 	0.6532	0.009	0.762	0.076
Mof_C 	C 	0.678	0.0209	0.7408	0.053
Mof_C 	C 	0.7266	0.0714	0.7507	0.046
Mof_C 	C 	0.7557	0.0715	0.7579	0.068
Mof_C 	C 	0.804	0.0404	0.7294	0.078
Mof_C 	C 	0.7587	0.8565	0.7494	0.07
Mof_C 	C 	0.7253	0.8439	0.7345	0.067
Mof_C 	C 	0.6763	0.9392	0.759	0.082
Mof_C 	C 	0.6699	0.9699	0.7753	0.016
Mof_C 	C 	0.7659	0.0341	0.74	0.024
Mof_C 	C 	0.7376	0.0192	0.7499	0.088
Mof_C 	C 	0.8329	0.9419	0.7607	0.086
Mof_C 	C 	0.8532	0.9128	0.7728	0.018
Mof_Cu	Cu	0.48836	0.51815	0.02629	0.907
Mof_Cu	Cu	0.23847	0.23181	0.52631	0.907
Mof_Cu	Cu	0.14982	0.64318	0.52637	0.907
Mof_Cu	Cu	0.10028	0.60683	0.47376	0.91
Mof_C 	C 	0.50677	0.68749	0.77559	-0.047
Mof_C 	C 	0.50059	0.66102	0.7991	0.141
Mof_C 	C 	0.51227	0.66094	0.84638	-0.081
Mof_C 	C 	0.53014	0.68734	0.87016	0.006
Mof_H 	H 	0.538	0.6873	0.9021	0.034
Mof_C 	C 	0.53632	0.71382	0.84666	-0.082
Mof_C 	C 	0.52463	0.7139	0.79937	0.139
Mof_C 	C 	0.501	0.5486	0.9523	0.363
Mof_C 	C 	0.55272	0.74374	0.873	0.12
Mof_C 	C 	0.53951	0.77434	0.85962	-0.146
Mof_H 	H 	0.5201	0.7769	0.8336	0.111
Mof_C 	C 	0.55499	0.80121	0.8847	0.072
Mof_H 	H 	0.5461	0.8219	0.8757	0.032
Mof_C 	C 	0.58369	0.79749	0.9232	-0.122
Mof_C 	C 	0.59691	0.76689	0.93659	0.07
Mof_H 	H 	0.6163	0.7644	0.9626	0.028
Mof_C 	C 	0.58142	0.74001	0.9115	-0.148
Mof_H 	H 	0.5904	0.7193	0.9206	0.089
Mof_C 	C 	0.599	0.8267	0.9513	0.366
Mof_C 	C 	0.50874	0.63163	0.873	0.121
Mof_C 	C 	0.51542	0.6011	0.85952	-0.147
Mof_H 	H 	0.5217	0.5987	0.8334	0.118
Mof_C 	C 	0.51283	0.57416	0.8847	0.07
Mof_H 	H 	0.5173	0.5535	0.8756	0.035
Mof_C 	C 	0.50356	0.57775	0.9234	-0.114
Mof_C 	C 	0.49688	0.60828	0.93689	0.064
Mof_H 	H 	0.4906	0.6107	0.9631	0.03
Mof_C 	C 	0.49947	0.63522	0.9117	-0.147
Mof_H 	H 	0.495	0.6559	0.9208	0.089
Mof_C 	C 	0.1505	0.5773	0.5481	0.377
Mof_C 	C 	0.23695	0.41081	0.653	-0.091
Mof_C 	C 	0.22	0.43772	0.62957	0.013
Mof_H 	H 	0.212	0.4378	0.5976	0.031
Mof_C 	C 	0.21494	0.46451	0.6534	-0.089
Mof_C 	C 	0.22682	0.46438	0.7007	0.155
Mof_C 	C 	0.24377	0.43747	0.72414	-0.057
Mof_C 	C 	0.24884	0.41068	0.7003	0.152
Mof_C 	C 	0.249	0.299	0.5478	0.38
Mof_C 	C 	0.24077	0.38102	0.62658	0.122
Mof_C 	C 	0.25006	0.38471	0.5879	-0.152
Mof_H 	H 	0.2543	0.4054	0.5787	0.091
Mof_C 	C 	0.25311	0.35779	0.56297	0.074
Mof_H 	H 	0.2594	0.3603	0.5368	0.026
Mof_C 	C 	0.24688	0.32718	0.5767	-0.132
Mof_C 	C 	0.23759	0.3235	0.6153	0.076
Mof_H 	H 	0.2334	0.3028	0.6246	0.03
Mof_C 	C 	0.23454	0.35042	0.64028	-0.148
Mof_H 	H 	0.2283	0.3479	0.6664	0.101
Mof_C 	C 	0.161	0.3888	0.9513	0.347
Mof_C 	C 	0.19766	0.49373	0.6265	0.12
Mof_C 	C 	0.16906	0.49006	0.5879	-0.146
Mof_H 	H 	0.1601	0.4694	0.5787	0.089
Mof_C 	C 	0.15363	0.51698	0.56286	0.065
Mof_H 	H 	0.1343	0.5145	0.5367	0.03
Mof_C 	C 	0.16681	0.54757	0.5764	-0.115
Mof_C 	C 	0.19542	0.55123	0.6151	0.066
Mof_H 	H 	0.2043	0.5719	0.6243	0.035
Mof_C 	C 	0.21085	0.52431	0.64009	-0.138
Mof_H 	H 	0.2302	0.5268	0.6662	0.101
Mof_C 	C 	0.9114	0.362	0.4509	0.387
Mof_C 	C 	0.25645	0.4371	0.7758	-0.058
Mof_C 	C 	0.23564	0.4259	0.79952	0.153
Mof_C 	C 	0.24734	0.42629	0.8468	-0.09
Mof_C 	C 	0.27985	0.43787	0.87036	0.01
Mof_H 	H 	0.2878	0.4381	0.9023	0.032
Mof_C 	C 	0.30065	0.44907	0.84664	-0.088
Mof_C 	C 	0.28895	0.44869	0.79936	0.151
Mof_C 	C 	0.4397	0.4869	0.9518	0.345
Mof_C 	C 	0.3372	0.45915	0.87285	0.111
Mof_C 	C 	0.34296	0.47811	0.9115	-0.14
Mof_H 	H 	0.3245	0.4847	0.9204	0.086
Mof_C 	C 	0.37603	0.48726	0.93683	0.056
Mof_H 	H 	0.3799	0.5001	0.9629	0.032
Mof_C 	C 	0.40334	0.47745	0.92357	-0.105
Mof_C 	C 	0.39758	0.45849	0.885	0.054
Mof_H 	H 	0.416	0.4519	0.876	0.036
Mof_C 	C 	0.36451	0.44934	0.8596	-0.131
Mof_H 	H 	0.3606	0.4365	0.8335	0.09
Mof_C 	C 	0.1891	0.2633	0.4517	0.362
Mof_C 	C 	0.08721	0.29059	0.3736	0.121
Mof_C 	C 	0.09328	0.27162	0.4123	-0.15
Mof_H 	H 	0.075	0.2649	0.4215	0.091
Mof_C 	C 	0.12645	0.26251	0.43725	0.071
Mof_H 	H 	0.1306	0.2497	0.4634	0.027
Mof_C 	C 	0.15354	0.27238	0.4236	-0.126
Mof_C 	C 	0.14747	0.29135	0.3849	0.073
Mof_H 	H 	0.1658	0.298	0.3757	0.029
Mof_C 	C 	0.11431	0.30046	0.35994	-0.148
Mof_H 	H 	0.1102	0.3133	0.3338	0.107
Mof_O 	O 	0.1652	0.60334	0.56	-0.414
Mof_C 	C 	0.00642	0.31223	0.27574	-0.051
Mof_C 	C 	0.98597	0.3245	0.2993	0.146
Mof_C 	C 	0.99776	0.32466	0.3466	-0.086
Mof_C 	C 	0.03	0.31256	0.37031	0.008
Mof_H 	H 	0.038	0.3127	0.4023	0.033
Mof_C 	C 	0.05045	0.30029	0.3468	-0.083
Mof_C 	C 	0.03866	0.30013	0.2995	0.145
Mof_O 	O 	0.12355	0.57235	0.515	-0.407
Mof_C 	C 	0.2245	0.41576	0.87301	0.115
Mof_C 	C 	0.23787	0.3969	0.9117	-0.141
Mof_H 	H 	0.2608	0.3902	0.9209	0.087
Mof_C 	C 	0.21733	0.38789	0.937	0.06
Mof_H 	H 	0.2264	0.3751	0.9632	0.031
Mof_C 	C 	0.18342	0.39774	0.92351	-0.108
Mof_C 	C 	0.17004	0.4166	0.8848	0.06
Mof_H 	H 	0.1471	0.4233	0.8756	0.037
Mof_C 	C 	0.19059	0.42561	0.85952	-0.128
Mof_H 	H 	0.1815	0.4384	0.8333	0.094
Mof_O 	O 	0.58434	0.85348	0.94	-0.403
Mof_C 	C 	0.97434	0.33429	0.37302	0.125
Mof_C 	C 	0.94046	0.32434	0.35974	-0.152
Mof_H 	H 	0.9314	0.3114	0.3337	0.108
Mof_C 	C 	0.91995	0.33346	0.385	0.081
Mof_H 	H 	0.897	0.3267	0.376	0.027
Mof_C 	C 	0.93331	0.35254	0.42351	-0.137
Mof_C 	C 	0.96719	0.36249	0.43679	0.079
Mof_H 	H 	0.9762	0.3754	0.4628	0.024
Mof_C 	C 	0.9877	0.35337	0.4116	-0.155
Mof_H 	H 	0.0106	0.3601	0.4205	0.091
Mof_O 	O 	0.62655	0.82238	0.984	-0.4
Mof_O 	O 	0.13082	0.40023	0.9394	-0.396
Mof_O 	O 	0.17389	0.36956	0.9846	-0.394
Mof_O 	O 	0.92361	0.38054	0.484	-0.409
Mof_O 	O 	0.88205	0.34997	0.4401	-0.41
Mof_O 	O 	0.19334	0.24441	0.4843	-0.404
Mof_O 	O 	0.2134	0.2754	0.4397	-0.397
Mof_O 	O 	0.24013	0.27182	0.5604	-0.4
Mof_O 	O 	0.25948	0.30253	0.5157	-0.417
Mof_O 	O 	0.44355	0.50547	0.985	-0.4
Mof_O 	O 	0.46394	0.47489	0.9394	-0.394
Mof_O 	O 	0.49036	0.55274	0.9843	-0.41
Mof_O 	O 	0.51014	0.52166	0.93931	-0.394
Mof_O 	O 	0.3091	0.4619	0.7762	-0.24
Mof_O 	O 	0.2674	0.3844	0.7252	-0.247
Mof_O 	O 	0.2035	0.4143	0.7753	-0.241
Mof_O 	O 	0.2194	0.4904	0.7242	-0.239
Mof_O 	O 	0.4829	0.634	0.7762	-0.184
Mof_O 	O 	0.5266	0.7417	0.7748	-0.195
Mof_O 	O 	0.06	0.2894	0.2757	-0.198
Mof_O 	O 	0.5469	0.1644	0.7241	-0.204
Mof_O 	O 	0.576	0.0847	0.742	-0.17
Mof_O 	O 	0.5368	0.0172	0.7314	-0.161
Mof_O 	O 	0.0593	0.2106	0.2051	-0.176
Mof_O 	O 	0.049	0.1264	0.2553	-0.163
Mof_O 	O 	0.5932	0.7667	0.7559	-0.142
Mof_O 	O 	0.4384	0.5848	0.739	-0.142
Mof_O 	O 	0.3484	0.4914	0.7359	-0.155
Mof_O 	O 	0.3753	0.3969	0.7516	-0.185
Mof_O 	O 	0.2146	0.316	0.7447	-0.179
Mof_O 	O 	0.1503	0.3818	0.7819	-0.165
Mof_O 	O 	0.1347	0.479	0.7617	-0.177
Mof_O 	O 	0.1954	0.5506	0.7406	-0.171
Mof_O 	O 	0.2836	0.5644	0.7431	-0.196
Mof_C 	C 	0.3089	0.4951	0.7792	0.096
Mof_C 	C 	0.3013	0.383	0.7275	0.119
Mof_C 	C 	0.2025	0.3809	0.7738	0.098
Mof_C 	C 	0.1866	0.4903	0.728	0.083
Mof_C 	C 	0.4488	0.6381	0.7747	0.067
Mof_C 	C 	0.5604	0.7424	0.7754	0.114
Mof_C 	C 	0.0593	0.256	0.2648	0.078
Mof_C 	C 	0.5486	0.1309	0.7204	0.083
Mof_C 	C 	0.5802	0.1206	0.7509	0.068
Mof_C 	C 	0.5438	0.0727	0.7482	0.062
Mof_C 	C 	0.5334	0.0496	0.7086	0.071
Mof_C 	C 	0.4993	0.0223	0.7258	0.064
Mof_C 	C 	0.0554	0.2447	0.2197	0.064
Mof_C 	C 	0.056	0.1828	0.2336	0.081
Mof_C 	C 	0.0342	0.153	0.2203	0.059
Mof_C 	C 	0.0173	0.1065	0.2472	0.063
Mof_C 	C 	0.5949	0.7352	0.7813	0.039
Mof_C 	C 	0.4317	0.6084	0.767	0.084
Mof_C 	C 	0.3236	0.5109	0.7506	0.037
Mof_C 	C 	0.3723	0.4606	0.7519	0.048
Mof_C 	C 	0.3921	0.4298	0.7645	0.065
Mof_C 	C 	0.3572	0.3677	0.7597	0.092
Mof_C 	C 	0.3208	0.3553	0.7428	-0.047
Mof_C 	C 	0.1766	0.3291	0.7419	0.06
Mof_C 	C 	0.1701	0.3671	0.7565	0.052
Mof_C 	C 	0.1267	0.4127	0.7735	0.07
Mof_C 	C 	0.1429	0.4464	0.7839	0.039
Mof_C 	C 	0.1532	0.509	0.762	0.076
Mof_C 	C 	0.178	0.5209	0.7408	0.053
Mof_C 	C 	0.2266	0.5714	0.7507	0.046
Mof_C 	C 	0.2557	0.5715	0.7579	0.068
Mof_C 	C 	0.304	0.5404	0.7294	0.078
Mof_C 	C 	0.2587	0.3565	0.7494	0.07
Mof_C 	C 	0.2253	0.3439	0.7345	0.067
Mof_C 	C 	0.1763	0.4392	0.759	0.082
Mof_C 	C 	0.1699	0.4699	0.7753	0.016
Mof_C 	C 	0.2659	0.5341	0.74	0.024
Mof_C 	C 	0.2376	0.5192	0.7499	0.088
Mof_C 	C 	0.3329	0.4419	0.7607	0.086
Mof_C 	C 	0.3532	0.4128	0.7728	0.018
_end
