# CIF file generated by openbabel 3.1.0, see https://openbabel.org
data_I
_chemical_name_common 'image0'
_cell_length_a 10.1842
_cell_length_b 9.9803
_cell_length_c 10.4375
_cell_angle_alpha 90
_cell_angle_beta 92.312
_cell_angle_gamma 90
_space_group_name_H-M_alt 'P 1'
_space_group_name_Hall 'P 1'
loop_
    _symmetry_equiv_pos_as_xyz
    x,y,z
loop_
    _atom_site_label
    _atom_site_type_symbol
    _atom_site_fract_x
    _atom_site_fract_y
    _atom_site_fract_z
    _atom_site_occupancy
    Zn1      Zn       0.87228    0.28857    0.12108    1.000
    Zn2      Zn       0.58306    0.23746    0.39869    1.000
    Zn3      Zn       0.36264    0.46405    0.10714    1.000
    Zn4      Zn       0.07918    0.57307    0.37521    1.000
    P1       P        0.06746    0.53283    0.07053    1.000
    P2       P        0.88373    0.32379    0.43132    1.000
    P3       P        0.38551    0.49048    0.41235    1.000
    P4       P        0.57183    0.21628    0.09412    1.000
    O1       O        0.93620    0.45740    0.06190    1.000
    O2       O        0.90800    0.25730    0.30200    1.000
    O3       O        0.68450    0.31360    0.06300    1.000
    O4       O        0.06910    0.62430    0.95450    1.000
    O5       O        0.59670    0.15840    0.22850    1.000
    O6       O        0.43020    0.34520    0.42420    1.000
    O7       O        0.46740    0.57940    0.50370    1.000
    O8       O        0.73710    0.33150    0.45720    1.000
    O9       O        0.44070    0.29080    0.08320    1.000
    O10      O        0.56160    0.10090    0.99850    1.000
    O11      O        0.39820    0.54300    0.27550    1.000
    O12      O        0.17910    0.42990    0.07000    1.000
    O13      O        0.93470    0.46850    0.43510    1.000
    O14      O        0.95650    0.24240    0.53670    1.000
    O15      O        0.23920    0.49250    0.44810    1.000
    O16      O        0.07660    0.61810    0.19380    1.000
    Zn5      Zn       0.12772    0.78857    0.87892    1.000
    Zn6      Zn       0.41694    0.73746    0.60131    1.000
    Zn7      Zn       0.63736    0.96405    0.89286    1.000
    Zn8      Zn       0.92082    0.07307    0.62479    1.000
    P5       P        0.93254    0.03283    0.92947    1.000
    P6       P        0.11627    0.82379    0.56868    1.000
    P7       P        0.61449    0.99048    0.58765    1.000
    P8       P        0.42817    0.71628    0.90588    1.000
    O17      O        0.06380    0.95740    0.93810    1.000
    O18      O        0.09200    0.75730    0.69800    1.000
    O19      O        0.31550    0.81360    0.93700    1.000
    O20      O        0.93090    0.12430    0.04550    1.000
    O21      O        0.40330    0.65840    0.77150    1.000
    O22      O        0.56980    0.84520    0.57580    1.000
    O23      O        0.53260    0.07940    0.49630    1.000
    O24      O        0.26290    0.83150    0.54280    1.000
    O25      O        0.55930    0.79080    0.91680    1.000
    O26      O        0.43840    0.60090    0.00150    1.000
    O27      O        0.60180    0.04300    0.72450    1.000
    O28      O        0.82090    0.92990    0.93000    1.000
    O29      O        0.06530    0.96850    0.56490    1.000
    O30      O        0.04350    0.74240    0.46330    1.000
    O31      O        0.76080    0.99250    0.55190    1.000
    O32      O        0.92340    0.11810    0.80620    1.000
