data_functionalizedCrystal
_audit_creation_method	'EQeq! by Chris Wilmer'
_symmetry_space_group_name_H-M	'P1'
_symmetry_Int_Tables_number	1
_symmetry_cell_setting	triclinic
loop_
_symmetry_equiv_pos_as_xyz
  x,y,z
_cell_length_a	9.88
_cell_length_b	9.88
_cell_length_c	13.333
_cell_angle_alpha	90
_cell_angle_beta	90
_cell_angle_gamma	90
loop_
_atom_site_label
_atom_site_type_symbol
_atom_site_fract_x
_atom_site_fract_y
_atom_site_fract_z
_atom_site_charge
Mof_Co	Co	0.89604	0.14064	0.69823	1.195
Mof_P 	P 	0.67284	0.38461	0.67912	0.528
Mof_O 	O 	0.8858	0.0588	0.5648	-0.37
Mof_O 	O 	0.8101	0.3165	0.6788	-0.371
Mof_O 	O 	0.583	0.3235	0.762	-0.446
Mof_O 	O 	0.695	0.5366	0.6988	-0.428
Mof_O 	O 	0.6069	0.3668	0.5753	-0.422
Mof_Co	Co	0.10396	0.85936	0.69823	1.166
Mof_P 	P 	0.32716	0.61539	0.67912	0.529
Mof_O 	O 	0.1142	0.9412	0.5648	-0.351
Mof_O 	O 	0.1899	0.6835	0.6788	-0.407
Mof_O 	O 	0.417	0.6765	0.762	-0.435
Mof_O 	O 	0.305	0.4634	0.6988	-0.451
Mof_O 	O 	0.3931	0.6332	0.5753	-0.417
Mof_Co	Co	0.14064	0.10396	0.30177	1.144
Mof_P 	P 	0.38461	0.32716	0.32088	0.528
Mof_O 	O 	0.0588	0.1142	0.4352	-0.441
Mof_O 	O 	0.3165	0.1899	0.3212	-0.424
Mof_O 	O 	0.3235	0.417	0.238	-0.471
Mof_O 	O 	0.5366	0.305	0.3012	-0.454
Mof_O 	O 	0.3668	0.3931	0.4247	-0.429
Mof_Co	Co	0.85936	0.89604	0.30177	1.206
Mof_P 	P 	0.61539	0.67284	0.32088	0.528
Mof_O 	O 	0.9412	0.8858	0.4352	-0.29
Mof_O 	O 	0.6835	0.8101	0.3212	-0.377
Mof_O 	O 	0.6765	0.583	0.238	-0.45
Mof_O 	O 	0.4634	0.695	0.3012	-0.438
Mof_O 	O 	0.6332	0.6069	0.4247	-0.41
Mof_Co	Co	0.60396	0.64064	0.80177	1.184
Mof_P 	P 	0.82716	0.88461	0.82088	0.58
Mof_O 	O 	0.6142	0.5588	0.9352	-0.323
Mof_O 	O 	0.6899	0.8165	0.8212	-0.366
Mof_O 	O 	0.917	0.8235	0.738	-0.401
Mof_O 	O 	0.805	0.0366	0.8012	-0.468
Mof_O 	O 	0.8931	0.8668	0.9247	-0.305
Mof_Co	Co	0.39604	0.35936	0.80177	1.178
Mof_P 	P 	0.17284	0.11539	0.82088	0.467
Mof_O 	O 	0.3858	0.4412	0.9352	-0.337
Mof_O 	O 	0.3101	0.1835	0.8212	-0.392
Mof_O 	O 	0.083	0.1765	0.738	-0.492
Mof_O 	O 	0.195	0.9634	0.8012	-0.375
Mof_O 	O 	0.1069	0.1332	0.9247	-0.395
Mof_Co	Co	0.35936	0.60396	0.19823	1.173
Mof_P 	P 	0.11539	0.82716	0.17912	0.471
Mof_O 	O 	0.4412	0.6142	0.0648	-0.433
Mof_O 	O 	0.1835	0.6899	0.1788	-0.419
Mof_O 	O 	0.1765	0.917	0.262	-0.421
Mof_O 	O 	0.9634	0.805	0.1988	-0.379
Mof_O 	O 	0.1332	0.8931	0.0753	-0.427
Mof_Co	Co	0.64064	0.39604	0.19823	1.174
Mof_P 	P 	0.88461	0.17284	0.17912	0.589
Mof_O 	O 	0.5588	0.3858	0.0648	-0.441
Mof_O 	O 	0.8165	0.3101	0.1788	-0.4
Mof_O 	O 	0.8235	0.083	0.262	-0.482
Mof_O 	O 	0.0366	0.195	0.1988	-0.532
Mof_O 	O 	0.8668	0.1069	0.0753	-0.454
Mof_Co	Co	0.5	0.5	0.5	1.179
Mof_Co	Co	-0	0	-0	1.052
Mof_P 	P 	-2.31906e-33	-4.84896e-33	0.5	0.285
Mof_P 	P 	0.5	0.5	-0	0.368
_end
