# CIF file generated by openbabel 3.1.0, see https://openbabel.org
data_I
_chemical_name_common 'RUWWOW_clean'
_cell_length_a 9.376
_cell_length_b 9.94
_cell_length_c 11.377
_cell_angle_alpha 92.979
_cell_angle_beta 97.836
_cell_angle_gamma 110.33
_space_group_name_H-M_alt 'P 1'
_space_group_name_Hall 'P 1'
loop_
    _symmetry_equiv_pos_as_xyz
    x,y,z
loop_
    _atom_site_label
    _atom_site_type_symbol
    _atom_site_fract_x
    _atom_site_fract_y
    _atom_site_fract_z
    _atom_site_occupancy
    La1      La       0.71556    0.95229    0.01678    1.000
    La2      La       0.28444    0.04771    0.98322    1.000
    H1       H        0.31730    0.49790    0.04010    1.000
    H2       H        0.19220    0.78270    0.22190    1.000
    H3       H        0.91380    0.36490    0.16320    1.000
    H4       H        0.17000    0.59660    0.42900    1.000
    H5       H        0.26120    0.72200    0.61890    1.000
    H6       H        0.93030    0.89390    0.57370    1.000
    H7       H        0.83980    0.76970    0.38420    1.000
    H8       H        0.68270    0.50210    0.95990    1.000
    H9       H        0.80780    0.21730    0.77810    1.000
    H10      H        0.08620    0.63510    0.83680    1.000
    H11      H        0.83000    0.40340    0.57100    1.000
    H12      H        0.73880    0.27800    0.38110    1.000
    H13      H        0.06970    0.10610    0.42630    1.000
    H14      H        0.16020    0.23030    0.61580    1.000
    C1       C        0.07430    0.25950    0.02990    1.000
    C2       C        0.10700    0.40680    0.08870    1.000
    C3       C        0.24580    0.51890    0.07970    1.000
    C4       C        0.27850    0.65700    0.12700    1.000
    C5       C        0.42300    0.77220    0.10630    1.000
    C6       C        0.17410    0.68860    0.19110    1.000
    C7       C        0.04350    0.57610    0.20710    1.000
    C8       C        0.00560    0.43690    0.15460    1.000
    C9       C        0.00060    0.67690    0.38880    1.000
    C10      C        0.12400    0.65790    0.45780    1.000
    C11      C        0.17770    0.73230    0.57100    1.000
    C12      C        0.10550    0.82300    0.61300    1.000
    C13      C        0.17120    0.90870    0.73260    1.000
    C14      C        0.97940    0.83580    0.54420    1.000
    C15      C        0.92540    0.76200    0.43110    1.000
    C16      C        0.92570    0.74050    0.97010    1.000
    C17      C        0.89300    0.59320    0.91130    1.000
    C18      C        0.75420    0.48110    0.92030    1.000
    C19      C        0.72150    0.34300    0.87300    1.000
    C20      C        0.57700    0.22780    0.89370    1.000
    C21      C        0.82590    0.31140    0.80890    1.000
    C22      C        0.95650    0.42390    0.79290    1.000
    C23      C        0.99440    0.56310    0.84540    1.000
    C24      C        0.99940    0.32310    0.61120    1.000
    C25      C        0.87600    0.34210    0.54220    1.000
    C26      C        0.82230    0.26770    0.42900    1.000
    C27      C        0.89450    0.17700    0.38700    1.000
    C28      C        0.82880    0.09130    0.26740    1.000
    C29      C        0.02060    0.16420    0.45580    1.000
    C30      C        0.07460    0.23800    0.56890    1.000
    O1       O        0.94070    0.16420    0.03110    1.000
    O2       O        0.17760    0.23520    0.98250    1.000
    O3       O        0.54490    0.74750    0.11820    1.000
    O4       O        0.41790    0.89360    0.07860    1.000
    O5       O        0.93920    0.60340    0.27410    1.000
    O6       O        0.28540    0.89580    0.79630    1.000
    O7       O        0.11400    0.99880    0.77070    1.000
    O8       O        0.05930    0.83580    0.96890    1.000
    O9       O        0.82240    0.76480    0.01750    1.000
    O10      O        0.45510    0.25250    0.88180    1.000
    O11      O        0.58210    0.10640    0.92140    1.000
    O12      O        0.06080    0.39660    0.72590    1.000
    O13      O        0.71460    0.10420    0.20370    1.000
    O14      O        0.88600    0.00120    0.22930    1.000
