# CIF file generated by openbabel 3.1.0, see https://openbabel.org
data_I
_chemical_name_common 'image0'
_cell_length_a 17.1711
_cell_length_b 22.9918
_cell_length_c 22.75
_cell_angle_alpha 90
_cell_angle_beta 90
_cell_angle_gamma 90
_space_group_name_H-M_alt 'P 1'
_space_group_name_Hall 'P 1'
loop_
    _symmetry_equiv_pos_as_xyz
    x,y,z
loop_
    _atom_site_label
    _atom_site_type_symbol
    _atom_site_fract_x
    _atom_site_fract_y
    _atom_site_fract_z
    _atom_site_occupancy
    Ni1      Ni       0.47897    0.25590    0.00680    1.000
    Ni2      Ni       0.49731    0.50589    0.25684    1.000
    N1       N        0.46648    0.16935    0.03355    1.000
    N2       N        0.49485    0.22801    0.92041    1.000
    N3       N        0.49015    0.34188    0.97805    1.000
    N4       N        0.46531    0.28409    0.09316    1.000
    N5       N        0.35884    0.26024    0.99316    1.000
    N6       N        0.59948    0.25204    0.01975    1.000
    N7       N        0.49074    0.41941    0.22917    1.000
    N8       N        0.49676    0.59199    0.28504    1.000
    N9       N        0.48810    0.47778    0.34405    1.000
    N10      N        0.50614    0.53276    0.16916    1.000
    N11      N        0.37722    0.51017    0.24858    1.000
    N12      N        0.61958    0.50204    0.26111    1.000
    N13      N        0.23240    0.25300    0.94280    1.000
    C1       C        0.29730    0.25630    0.97130    1.000
    C2       C        0.66270    0.25190    0.03490    1.000
    N14      N        0.23220    0.22160    0.95750    1.000
    C3       C        0.29610    0.24160    0.98390    1.000
    C4       C        0.66310    0.23670    0.02150    1.000
    N15      N        0.23140    0.28710    0.95250    1.000
    C5       C        0.29650    0.27400    0.98000    1.000
    C6       C        0.66320    0.26940    0.02780    1.000
    N16      N        0.74800    0.45690    0.25100    1.000
    C7       C        0.68120    0.48310    0.25680    1.000
    C8       C        0.18340    0.98070    0.75700    1.000
    N17      N        0.52260    0.19082    0.82177    1.000
    N18      N        0.45830    0.32187    0.19349    1.000
    N19      N        0.45700    0.06658    0.06122    1.000
    N20      N        0.48940    0.43831    0.93370    1.000
    C9       C        0.46390    0.12212    0.04951    1.000
    C10      C        0.50681    0.20778    0.87529    1.000
    C11      C        0.49070    0.38561    0.95430    1.000
    C12      C        0.46340    0.30433    0.13909    1.000
    C13      C        0.47630    0.37462    0.20946    1.000
    C14      C        0.51096    0.13725    0.80508    1.000
    C15      C        0.47470    0.04551    0.11282    1.000
    C16      C        0.49300    0.45053    0.87811    1.000
    C17      C        0.31580    0.50580    0.22950    1.000
    C18      C        0.68620    0.00500    0.77430    1.000
    Ni3      Ni       0.02103    0.74410    0.00680    1.000
    Ni4      Ni       0.00269    0.49411    0.25684    1.000
    N21      N        0.03352    0.83065    0.03355    1.000
    N22      N        0.00515    0.77199    0.92041    1.000
    N23      N        0.00985    0.65812    0.97805    1.000
    N24      N        0.03469    0.71591    0.09316    1.000
    N25      N        0.14116    0.73976    0.99316    1.000
    N26      N        0.90052    0.74796    0.01975    1.000
    N27      N        0.00926    0.58059    0.22917    1.000
    N28      N        0.00324    0.40801    0.28504    1.000
    N29      N        0.01190    0.52222    0.34405    1.000
    N30      N        0.99386    0.46724    0.16916    1.000
    N31      N        0.12278    0.48983    0.24858    1.000
    N32      N        0.88042    0.49796    0.26111    1.000
    N33      N        0.26760    0.74700    0.94280    1.000
    C19      C        0.20270    0.74370    0.97130    1.000
    C20      C        0.83730    0.74810    0.03490    1.000
    N34      N        0.26780    0.77840    0.95750    1.000
    C21      C        0.20390    0.75840    0.98390    1.000
    C22      C        0.83690    0.76330    0.02150    1.000
    N35      N        0.26860    0.71290    0.95250    1.000
    C23      C        0.20350    0.72600    0.98000    1.000
    C24      C        0.83680    0.73060    0.02780    1.000
    N36      N        0.75200    0.54310    0.25100    1.000
    C25      C        0.81880    0.51690    0.25680    1.000
    C26      C        0.31660    0.01930    0.75700    1.000
    N37      N        0.97740    0.80918    0.82177    1.000
    N38      N        0.04170    0.67813    0.19349    1.000
    N39      N        0.04300    0.93342    0.06122    1.000
    N40      N        0.01060    0.56169    0.93370    1.000
    C27      C        0.03610    0.87788    0.04951    1.000
    C28      C        0.99319    0.79222    0.87529    1.000
    C29      C        0.00930    0.61439    0.95430    1.000
    C30      C        0.03660    0.69567    0.13909    1.000
    C31      C        0.02370    0.62538    0.20946    1.000
    C32      C        0.98904    0.86275    0.80508    1.000
    C33      C        0.02530    0.95449    0.11282    1.000
    C34      C        0.00700    0.54947    0.87811    1.000
    C35      C        0.18420    0.49420    0.22950    1.000
    C36      C        0.81380    0.99500    0.77430    1.000
    Ni5      Ni       0.02103    0.75590    0.49320    1.000
    Ni6      Ni       0.00269    0.00589    0.24316    1.000
    N41      N        0.03352    0.66935    0.46645    1.000
    N42      N        0.00515    0.72801    0.57959    1.000
    N43      N        0.00985    0.84188    0.52195    1.000
    N44      N        0.03469    0.78409    0.40684    1.000
    N45      N        0.14116    0.76024    0.50684    1.000
    N46      N        0.90052    0.75204    0.48025    1.000
    N47      N        0.00926    0.91941    0.27083    1.000
    N48      N        0.00324    0.09199    0.21496    1.000
    N49      N        0.01190    0.97778    0.15595    1.000
    N50      N        0.99386    0.03276    0.33084    1.000
    N51      N        0.12278    0.01017    0.25142    1.000
    N52      N        0.88042    0.00204    0.23889    1.000
    N53      N        0.26760    0.75300    0.55720    1.000
    C37      C        0.20270    0.75630    0.52870    1.000
    C38      C        0.83730    0.75190    0.46510    1.000
    N54      N        0.26780    0.72160    0.54250    1.000
    C39      C        0.20390    0.74160    0.51610    1.000
    C40      C        0.83690    0.73670    0.47850    1.000
    N55      N        0.26860    0.78710    0.54750    1.000
    C41      C        0.20350    0.77400    0.52000    1.000
    C42      C        0.83680    0.76940    0.47220    1.000
    N56      N        0.75200    0.95690    0.24900    1.000
    C43      C        0.81880    0.98310    0.24320    1.000
    C44      C        0.31660    0.48070    0.74300    1.000
    N57      N        0.97740    0.69082    0.67823    1.000
    N58      N        0.04170    0.82187    0.30651    1.000
    N59      N        0.04300    0.56658    0.43878    1.000
    N60      N        0.01060    0.93831    0.56630    1.000
    C45      C        0.03610    0.62212    0.45049    1.000
    C46      C        0.99319    0.70778    0.62471    1.000
    C47      C        0.00930    0.88561    0.54570    1.000
    C48      C        0.03660    0.80433    0.36091    1.000
    C49      C        0.02370    0.87462    0.29054    1.000
    C50      C        0.98904    0.63725    0.69492    1.000
    C51      C        0.02530    0.54551    0.38718    1.000
    C52      C        0.00700    0.95053    0.62189    1.000
    C53      C        0.18420    0.00580    0.27050    1.000
    C54      C        0.81380    0.50500    0.72570    1.000
    Ni7      Ni       0.47897    0.24410    0.49320    1.000
    Ni8      Ni       0.49731    0.99411    0.24316    1.000
    N61      N        0.46648    0.33065    0.46645    1.000
    N62      N        0.49485    0.27199    0.57959    1.000
    N63      N        0.49015    0.15812    0.52195    1.000
    N64      N        0.46531    0.21591    0.40684    1.000
    N65      N        0.35884    0.23976    0.50684    1.000
    N66      N        0.59948    0.24796    0.48025    1.000
    N67      N        0.49074    0.08059    0.27083    1.000
    N68      N        0.49676    0.90801    0.21496    1.000
    N69      N        0.48810    0.02222    0.15595    1.000
    N70      N        0.50614    0.96724    0.33084    1.000
    N71      N        0.37722    0.98983    0.25142    1.000
    N72      N        0.61958    0.99796    0.23889    1.000
    N73      N        0.23240    0.24700    0.55720    1.000
    C55      C        0.29730    0.24370    0.52870    1.000
    C56      C        0.66270    0.24810    0.46510    1.000
    N74      N        0.23220    0.27840    0.54250    1.000
    C57      C        0.29610    0.25840    0.51610    1.000
    C58      C        0.66310    0.26330    0.47850    1.000
    N75      N        0.23140    0.21290    0.54750    1.000
    C59      C        0.29650    0.22600    0.52000    1.000
    C60      C        0.66320    0.23060    0.47220    1.000
    N76      N        0.74800    0.04310    0.24900    1.000
    C61      C        0.68120    0.01690    0.24320    1.000
    C62      C        0.18340    0.51930    0.74300    1.000
    N77      N        0.52260    0.30918    0.67823    1.000
    N78      N        0.45830    0.17813    0.30651    1.000
    N79      N        0.45700    0.43342    0.43878    1.000
    N80      N        0.48940    0.06169    0.56630    1.000
    C63      C        0.46390    0.37788    0.45049    1.000
    C64      C        0.50681    0.29222    0.62471    1.000
    C65      C        0.49070    0.11439    0.54570    1.000
    C66      C        0.46340    0.19567    0.36091    1.000
    C67      C        0.47630    0.12538    0.29054    1.000
    C68      C        0.51096    0.36275    0.69492    1.000
    C69      C        0.47470    0.45449    0.38718    1.000
    C70      C        0.49300    0.04947    0.62189    1.000
    C71      C        0.31580    0.99420    0.27050    1.000
    C72      C        0.68620    0.49500    0.72570    1.000
    Ni9      Ni       0.52103    0.74410    0.99320    1.000
    Ni10     Ni       0.50269    0.49411    0.74316    1.000
    N81      N        0.53352    0.83065    0.96645    1.000
    N82      N        0.50515    0.77199    0.07959    1.000
    N83      N        0.50985    0.65812    0.02195    1.000
    N84      N        0.53469    0.71591    0.90684    1.000
    N85      N        0.64116    0.73976    0.00684    1.000
    N86      N        0.40052    0.74796    0.98025    1.000
    N87      N        0.50926    0.58059    0.77083    1.000
    N88      N        0.50324    0.40801    0.71496    1.000
    N89      N        0.51190    0.52222    0.65595    1.000
    N90      N        0.49386    0.46724    0.83084    1.000
    N91      N        0.62278    0.48983    0.75142    1.000
    N92      N        0.38042    0.49796    0.73889    1.000
    N93      N        0.76760    0.74700    0.05720    1.000
    C73      C        0.70270    0.74370    0.02870    1.000
    C74      C        0.33730    0.74810    0.96510    1.000
    N94      N        0.76780    0.77840    0.04250    1.000
    C75      C        0.70390    0.75840    0.01610    1.000
    C76      C        0.33690    0.76330    0.97850    1.000
    N95      N        0.76860    0.71290    0.04750    1.000
    C77      C        0.70350    0.72600    0.02000    1.000
    C78      C        0.33680    0.73060    0.97220    1.000
    N96      N        0.25200    0.54310    0.74900    1.000
    C79      C        0.31880    0.51690    0.74320    1.000
    C80      C        0.81660    0.01930    0.24300    1.000
    N97      N        0.47740    0.80918    0.17823    1.000
    N98      N        0.54170    0.67813    0.80651    1.000
    N99      N        0.54300    0.93342    0.93878    1.000
    N100     N        0.51060    0.56169    0.06630    1.000
    C81      C        0.53610    0.87788    0.95049    1.000
    C82      C        0.49319    0.79222    0.12471    1.000
    C83      C        0.50930    0.61439    0.04570    1.000
    C84      C        0.53660    0.69567    0.86091    1.000
    C85      C        0.52370    0.62538    0.79054    1.000
    C86      C        0.48904    0.86275    0.19492    1.000
    C87      C        0.52530    0.95449    0.88718    1.000
    C88      C        0.50700    0.54947    0.12189    1.000
    C89      C        0.68420    0.49420    0.77050    1.000
    C90      C        0.31380    0.99500    0.22570    1.000
    Ni11     Ni       0.97897    0.25590    0.99320    1.000
    Ni12     Ni       0.99731    0.50589    0.74316    1.000
    N101     N        0.96648    0.16935    0.96645    1.000
    N102     N        0.99485    0.22801    0.07959    1.000
    N103     N        0.99015    0.34188    0.02195    1.000
    N104     N        0.96531    0.28409    0.90684    1.000
    N105     N        0.85884    0.26024    0.00684    1.000
    N106     N        0.09948    0.25204    0.98025    1.000
    N107     N        0.99074    0.41941    0.77083    1.000
    N108     N        0.99676    0.59199    0.71496    1.000
    N109     N        0.98810    0.47778    0.65595    1.000
    N110     N        0.00614    0.53276    0.83084    1.000
    N111     N        0.87722    0.51017    0.75142    1.000
    N112     N        0.11958    0.50204    0.73889    1.000
    N113     N        0.73240    0.25300    0.05720    1.000
    C91      C        0.79730    0.25630    0.02870    1.000
    C92      C        0.16270    0.25190    0.96510    1.000
    N114     N        0.73220    0.22160    0.04250    1.000
    C93      C        0.79610    0.24160    0.01610    1.000
    C94      C        0.16310    0.23670    0.97850    1.000
    N115     N        0.73140    0.28710    0.04750    1.000
    C95      C        0.79650    0.27400    0.02000    1.000
    C96      C        0.16320    0.26940    0.97220    1.000
    N116     N        0.24800    0.45690    0.74900    1.000
    C97      C        0.18120    0.48310    0.74320    1.000
    C98      C        0.68340    0.98070    0.24300    1.000
    N117     N        0.02260    0.19082    0.17823    1.000
    N118     N        0.95830    0.32187    0.80651    1.000
    N119     N        0.95700    0.06658    0.93878    1.000
    N120     N        0.98940    0.43831    0.06630    1.000
    C99      C        0.96390    0.12212    0.95049    1.000
    C100     C        0.00681    0.20778    0.12471    1.000
    C101     C        0.99070    0.38561    0.04570    1.000
    C102     C        0.96340    0.30433    0.86091    1.000
    C103     C        0.97630    0.37462    0.79054    1.000
    C104     C        0.01096    0.13725    0.19492    1.000
    C105     C        0.97470    0.04551    0.88718    1.000
    C106     C        0.99300    0.45053    0.12189    1.000
    C107     C        0.81580    0.50580    0.77050    1.000
    C108     C        0.18620    0.00500    0.22570    1.000
    Ni13     Ni       0.97897    0.24410    0.50680    1.000
    Ni14     Ni       0.99731    0.99411    0.75684    1.000
    N121     N        0.96648    0.33065    0.53355    1.000
    N122     N        0.99485    0.27199    0.42041    1.000
    N123     N        0.99015    0.15812    0.47805    1.000
    N124     N        0.96531    0.21591    0.59316    1.000
    N125     N        0.85884    0.23976    0.49316    1.000
    N126     N        0.09948    0.24796    0.51975    1.000
    N127     N        0.99074    0.08059    0.72917    1.000
    N128     N        0.99676    0.90801    0.78504    1.000
    N129     N        0.98810    0.02222    0.84405    1.000
    N130     N        0.00614    0.96724    0.66916    1.000
    N131     N        0.87722    0.98983    0.74858    1.000
    N132     N        0.11958    0.99796    0.76111    1.000
    N133     N        0.73240    0.24700    0.44280    1.000
    C109     C        0.79730    0.24370    0.47130    1.000
    C110     C        0.16270    0.24810    0.53490    1.000
    N134     N        0.73220    0.27840    0.45750    1.000
    C111     C        0.79610    0.25840    0.48390    1.000
    C112     C        0.16310    0.26330    0.52150    1.000
    N135     N        0.73140    0.21290    0.45250    1.000
    C113     C        0.79650    0.22600    0.48000    1.000
    C114     C        0.16320    0.23060    0.52780    1.000
    N136     N        0.24800    0.04310    0.75100    1.000
    C115     C        0.18120    0.01690    0.75680    1.000
    C116     C        0.68340    0.51930    0.25700    1.000
    N137     N        0.02260    0.30918    0.32177    1.000
    N138     N        0.95830    0.17813    0.69349    1.000
    N139     N        0.95700    0.43342    0.56122    1.000
    N140     N        0.98940    0.06169    0.43370    1.000
    C117     C        0.96390    0.37788    0.54951    1.000
    C118     C        0.00681    0.29222    0.37529    1.000
    C119     C        0.99070    0.11439    0.45430    1.000
    C120     C        0.96340    0.19567    0.63909    1.000
    C121     C        0.97630    0.12538    0.70946    1.000
    C122     C        0.01096    0.36275    0.30508    1.000
    C123     C        0.97470    0.45449    0.61282    1.000
    C124     C        0.99300    0.04947    0.37811    1.000
    C125     C        0.81580    0.99420    0.72950    1.000
    C126     C        0.18620    0.49500    0.27430    1.000
    Ni15     Ni       0.52103    0.75590    0.50680    1.000
    Ni16     Ni       0.50269    0.00589    0.75684    1.000
    N141     N        0.53352    0.66935    0.53355    1.000
    N142     N        0.50515    0.72801    0.42041    1.000
    N143     N        0.50985    0.84188    0.47805    1.000
    N144     N        0.53469    0.78409    0.59316    1.000
    N145     N        0.64116    0.76024    0.49316    1.000
    N146     N        0.40052    0.75204    0.51975    1.000
    N147     N        0.50926    0.91941    0.72917    1.000
    N148     N        0.50324    0.09199    0.78504    1.000
    N149     N        0.51190    0.97778    0.84405    1.000
    N150     N        0.49386    0.03276    0.66916    1.000
    N151     N        0.62278    0.01017    0.74858    1.000
    N152     N        0.38042    0.00204    0.76111    1.000
    N153     N        0.76760    0.75300    0.44280    1.000
    C127     C        0.70270    0.75630    0.47130    1.000
    C128     C        0.33730    0.75190    0.53490    1.000
    N154     N        0.76780    0.72160    0.45750    1.000
    C129     C        0.70390    0.74160    0.48390    1.000
    C130     C        0.33690    0.73670    0.52150    1.000
    N155     N        0.76860    0.78710    0.45250    1.000
    C131     C        0.70350    0.77400    0.48000    1.000
    C132     C        0.33680    0.76940    0.52780    1.000
    N156     N        0.25200    0.95690    0.75100    1.000
    C133     C        0.31880    0.98310    0.75680    1.000
    C134     C        0.81660    0.48070    0.25700    1.000
    N157     N        0.47740    0.69082    0.32177    1.000
    N158     N        0.54170    0.82187    0.69349    1.000
    N159     N        0.54300    0.56658    0.56122    1.000
    N160     N        0.51060    0.93831    0.43370    1.000
    C135     C        0.53610    0.62212    0.54951    1.000
    C136     C        0.49319    0.70778    0.37529    1.000
    C137     C        0.50930    0.88561    0.45430    1.000
    C138     C        0.53660    0.80433    0.63909    1.000
    C139     C        0.52370    0.87462    0.70946    1.000
    C140     C        0.48904    0.63725    0.30508    1.000
    C141     C        0.52530    0.54551    0.61282    1.000
    C142     C        0.50700    0.95053    0.37811    1.000
    C143     C        0.68420    0.00580    0.72950    1.000
    C144     C        0.31380    0.50500    0.27430    1.000
    N161     N        0.25000    0.50000    0.20340    1.000
    N162     N        0.25000    0.00000    0.29660    1.000
    N163     N        0.75000    0.50000    0.79660    1.000
    N164     N        0.75000    0.00000    0.70340    1.000
    N165     N        0.75000    0.00000    0.80050    1.000
    N166     N        0.75000    0.50000    0.69950    1.000
    N167     N        0.25000    0.00000    0.19950    1.000
    N168     N        0.25000    0.50000    0.30050    1.000
