data_functionalizedCrystal
_audit_creation_method	'EQeq! by Chris Wilmer'
_symmetry_space_group_name_H-M	'P1'
_symmetry_Int_Tables_number	1
_symmetry_cell_setting	triclinic
loop_
_symmetry_equiv_pos_as_xyz
  x,y,z
_cell_length_a	74.91
_cell_length_b	29.614
_cell_length_c	29.755
_cell_angle_alpha	90
_cell_angle_beta	90
_cell_angle_gamma	90
loop_
_atom_site_label
_atom_site_type_symbol
_atom_site_fract_x
_atom_site_fract_y
_atom_site_fract_z
_atom_site_charge
Mof_C 	C 	0.0752	0.9149	0.4562	-0.086
Mof_H 	H 	0.0632	0.9184	0.466	0.067
Mof_C 	C 	0.10807	0.9043	0.4288	0.11
Mof_H 	H 	0.12	0.9015	0.4185	-0.02
Mof_C 	C 	0.14418	0.56	0.3834	-0.066
Mof_C 	C 	0.0796	0.8728	0.4346	0.019
Mof_H 	H 	0.0714	0.8489	0.4296	0.034
Mof_C 	C 	0.20398	0.4766	0.5056	-0.169
Mof_H 	H 	0.1977	0.4765	0.5333	0.091
Mof_C 	C 	0.08692	0.9514	0.4641	0.057
Mof_C 	C 	0.08029	0.9917	0.4884	0.091
Mof_C 	C 	0.16596	0.502	0.438	0.126
Mof_C 	C 	0.22262	0.4794	0.503	0.047
Mof_H 	H 	0.2291	0.4798	0.5305	0.018
Mof_C 	C 	0.15926	0.575	0.4058	0.025
Mof_H 	H 	0.163	0.6054	0.4022	0.023
Mof_C 	C 	0.10346	0.9465	0.451	-0.138
Mof_H 	H 	0.1121	0.9695	0.4558	0.092
Mof_C 	C 	0.09194	0.1031	0.6411	0.099
Mof_H 	H 	0.1	0.0984	0.6653	-0.013
Mof_C 	C 	0.10531	0.6723	0.2631	0.391
Mof_C 	C 	0.11445	0.6423	0.2962	-0.154
Mof_C 	C 	0.12135	0.6588	0.3355	0.09
Mof_H 	H 	0.1195	0.6896	0.3429	0.011
Mof_C 	C 	0.13068	0.6323	0.3639	-0.16
Mof_H 	H 	0.1351	0.6451	0.391	0.088
Mof_C 	C 	0.13405	0.5871	0.355	0.109
Mof_C 	C 	0.12559	0.5694	0.3164	-0.144
Mof_H 	H 	0.1266	0.5381	0.31	0.086
Mof_C 	C 	0.11583	0.5968	0.2874	0.078
Mof_H 	H 	0.1102	0.5842	0.2617	0.019
Mof_C 	C 	0.07903	0.0779	0.5724	0.065
Mof_C 	C 	0.09031	0.0715	0.6105	-0.136
Mof_H 	H 	0.0967	0.044	0.6138	0.082
Mof_C 	C 	0.16915	0.5458	0.4339	-0.144
Mof_H 	H 	0.1787	0.5583	0.451	0.081
Mof_C 	C 	0.0698	0.1172	0.5698	-0.123
Mof_H 	H 	0.0622	0.1235	0.5451	0.082
Mof_C 	C 	0.15047	0.4829	0.4139	-0.132
Mof_H 	H 	0.1476	0.4516	0.415	0.078
Mof_C 	C 	0.14078	0.5119	0.3906	0.024
Mof_H 	H 	0.1303	0.5	0.3768	0.022
Mof_C 	C 	0.30874	0.5112	0.4663	0.492
Mof_C 	C 	0.28813	0.501	0.4652	-0.158
Mof_C 	C 	0.27799	0.5169	0.4293	0.081
Mof_H 	H 	0.2835	0.5333	0.4056	0.017
Mof_C 	C 	0.25991	0.5086	0.4285	-0.153
Mof_H 	H 	0.253	0.5179	0.4033	0.082
Mof_C 	C 	0.25151	0.4866	0.4646	0.112
Mof_C 	C 	0.26231	0.4716	0.4993	-0.163
Mof_H 	H 	0.2567	0.4573	0.5242	0.085
Mof_C 	C 	0.2799	0.4758	0.5	0.091
Mof_H 	H 	0.2868	0.4623	0.5232	0.009
Mof_C 	C 	0.232	0.4814	0.4646	-0.087
Mof_C 	C 	0.22173	0.4807	0.4244	0.063
Mof_H 	H 	0.2274	0.4822	0.3959	0.007
Mof_C 	C 	0.20393	0.478	0.4273	-0.198
Mof_H 	H 	0.1973	0.4789	0.4001	0.102
Mof_C 	C 	0.1953	0.4742	0.4642	0.169
Mof_C 	C 	0.07203	0.1487	0.6056	0.072
Mof_H 	H 	0.0655	0.1762	0.6049	-0.004
Mof_C 	C 	0.07769	0.0464	0.5349	0.084
Mof_C 	C 	0.10548	0.2687	0.6673	0.405
Mof_C 	C 	0.11675	0.2992	0.6374	-0.167
Mof_C 	C 	0.12946	0.2826	0.6087	0.104
Mof_H 	H 	0.1318	0.251	0.6075	0.008
Mof_C 	C 	0.13856	0.311	0.5825	-0.177
Mof_H 	H 	0.147	0.2981	0.5624	0.089
Mof_C 	C 	0.13691	0.3561	0.5817	0.118
Mof_C 	C 	0.12348	0.3734	0.6109	-0.165
Mof_H 	H 	0.121	0.4049	0.6114	0.083
Mof_C 	C 	0.11429	0.3448	0.638	0.094
Mof_H 	H 	0.1058	0.357	0.6583	0.007
Mof_C 	C 	0.14754	0.3855	0.5531	-0.078
Mof_C 	C 	0.16425	0.3739	0.5343	0.047
Mof_H 	H 	0.1695	0.3458	0.5423	0.012
Mof_C 	C 	0.17276	0.4003	0.5064	-0.162
Mof_H 	H 	0.1836	0.3898	0.4937	0.088
Mof_C 	C 	0.16673	0.4431	0.4945	0.142
Mof_C 	C 	0.1507	0.4575	0.5134	-0.148
Mof_H 	H 	0.1463	0.4869	0.5067	0.084
Mof_C 	C 	0.14095	0.4292	0.5422	0.027
Mof_H 	H 	0.1299	0.4393	0.5544	0.018
Mof_N 	N 	0.17605	0.4701	0.4639	-0.178
Mof_N 	N 	0.08294	0.14108	0.6398	-0.261
Mof_N 	N 	0.08697	0.00857	0.527	-0.094
Mof_N 	N 	0.06775	0.0165	0.4721	-0.09
Mof_N 	N 	0.06621	0.0513	0.5013	-0.087
Mof_N 	N 	0.10035	0.9891	0.5543	-0.231
Mof_H 	H 	0.1034	0.002	0.5797	0.138
Mof_H 	H 	0.1056	0.9639	0.5458	0.145
Mof_N 	N 	0.09799	0.8715	0.4218	-0.251
Mof_O 	O 	0.09452	0.65327	0.2355	-0.483
Mof_O 	O 	0.10817	0.71348	0.265	-0.469
Mof_O 	O 	0.09775	0.28696	0.6998	-0.48
Mof_O 	O 	0.10563	0.22745	0.6574	-0.492
Mof_O 	O 	0.31377	0.53271	0.4357	-0.548
Mof_O 	O 	0.3167	0.4966	0.499	-0.511
Mof_Zn	Zn	0.08733	0.19071	0.6855	1.221
Mof_Zn	Zn	0.09303	0.27147	0.7679	1.216
Mof_C 	C 	0.12087	0.3371	0.8036	0.394
Mof_C 	C 	0.13223	0.3694	0.7773	-0.135
Mof_C 	C 	0.13804	0.3567	0.735	0.057
Mof_H 	H 	0.1349	0.3281	0.7228	0.029
Mof_C 	C 	0.14878	0.387	0.7104	-0.128
Mof_H 	H 	0.1528	0.3791	0.6811	0.08
Mof_C 	C 	0.15353	0.4281	0.7285	0.085
Mof_C 	C 	0.14833	0.4401	0.7709	-0.129
Mof_H 	H 	0.1523	0.4678	0.7836	0.075
Mof_C 	C 	0.13693	0.411	0.7961	0.053
Mof_H 	H 	0.1327	0.4196	0.8249	0.028
Mof_C 	C 	0.16456	0.461	0.7016	-0.047
Mof_C 	C 	0.16129	0.4666	0.6547	0.015
Mof_H 	H 	0.1522	0.4496	0.6401	0.025
Mof_C 	C 	0.17122	0.4962	0.6315	-0.134
Mof_H 	H 	0.169	0.5006	0.6004	0.08
Mof_C 	C 	0.18462	0.5205	0.6524	0.119
Mof_C 	C 	0.18843	0.5147	0.6966	-0.135
Mof_H 	H 	0.1981	0.5308	0.7095	0.08
Mof_C 	C 	0.17868	0.4863	0.723	0.012
Mof_H 	H 	0.1811	0.4833	0.7542	0.025
Mof_C 	C 	0.11905	0.7606	0.4432	0.311
Mof_C 	C 	0.13077	0.7299	0.4711	-0.112
Mof_C 	C 	0.14728	0.7233	0.4579	0.044
Mof_H 	H 	0.1515	0.7366	0.4309	0.026
Mof_C 	C 	0.15908	0.6953	0.4855	-0.134
Mof_H 	H 	0.1712	0.692	0.4771	0.075
Mof_C 	C 	0.15321	0.6749	0.5211	0.086
Mof_C 	C 	0.13487	0.6805	0.5344	-0.125
Mof_H 	H 	0.1303	0.6664	0.5607	0.071
Mof_C 	C 	0.12423	0.7071	0.5075	0.042
Mof_H 	H 	0.1119	0.7098	0.5145	0.031
Mof_C 	C 	0.1654	0.6442	0.549	-0.057
Mof_C 	C 	0.17929	0.6234	0.5316	0.025
Mof_H 	H 	0.1827	0.631	0.5018	0.019
Mof_C 	C 	0.18929	0.5907	0.5541	-0.15
Mof_H 	H 	0.198	0.5729	0.5389	0.083
Mof_C 	C 	0.18601	0.5856	0.5987	0.133
Mof_C 	C 	0.17163	0.6097	0.6198	-0.138
Mof_H 	H 	0.1692	0.6046	0.6507	0.081
Mof_C 	C 	0.16187	0.6384	0.5975	0.023
Mof_H 	H 	0.1527	0.655	0.612	0.02
Mof_C 	C 	0.3251	0.4831	0.6055	0.358
Mof_C 	C 	0.30561	0.4965	0.6083	-0.116
Mof_C 	C 	0.29394	0.4682	0.6309	0.05
Mof_H 	H 	0.2981	0.4416	0.6453	0.026
Mof_C 	C 	0.27588	0.4797	0.6319	-0.131
Mof_H 	H 	0.2677	0.4604	0.647	0.073
Mof_C 	C 	0.26979	0.5173	0.6122	0.083
Mof_C 	C 	0.2812	0.5462	0.5898	-0.117
Mof_H 	H 	0.2766	0.5726	0.5758	0.072
Mof_C 	C 	0.30027	0.5362	0.5877	0.042
Mof_H 	H 	0.3085	0.5557	0.5731	0.032
Mof_C 	C 	0.25016	0.5284	0.6139	-0.047
Mof_C 	C 	0.23813	0.4926	0.6221	0.013
Mof_H 	H 	0.2425	0.4628	0.6264	0.022
Mof_C 	C 	0.22017	0.5007	0.624	-0.137
Mof_H 	H 	0.2121	0.4764	0.6285	0.08
Mof_C 	C 	0.21373	0.5448	0.6193	0.13
Mof_C 	C 	0.22505	0.5789	0.6117	-0.138
Mof_H 	H 	0.2205	0.6087	0.6087	0.081
Mof_C 	C 	0.24397	0.5715	0.6081	0.01
Mof_H 	H 	0.2519	0.5957	0.6018	0.026
Mof_N 	N 	0.19508	0.5539	0.6252	-0.168
Mof_O 	O 	0.33551	0.50433	0.5803	-0.456
Mof_O 	O 	0.32948	0.4506	0.6308	-0.479
Mof_O 	O 	0.11776	0.29896	0.7872	-0.453
Mof_O 	O 	0.11601	0.35083	0.841	-0.494
Mof_O 	O 	0.12407	0.77708	0.409	-0.468
Mof_O 	O 	0.10249	0.7683	0.4606	-0.302
Mof_Zn	Zn	0.10448	0.81473	0.3877	1.225
Mof_C 	C 	0.0752	0.4149	0.9562	-0.085
Mof_H 	H 	0.0632	0.4184	0.966	0.067
Mof_C 	C 	0.10807	0.4043	0.9288	0.109
Mof_H 	H 	0.12	0.4015	0.9185	-0.021
Mof_C 	C 	0.14418	0.06	0.8834	-0.067
Mof_C 	C 	0.0796	0.3728	0.9346	0.019
Mof_H 	H 	0.0714	0.3489	0.9296	0.034
Mof_C 	C 	0.20398	0.9766	0.0056	-0.169
Mof_H 	H 	0.1977	0.9765	0.0333	0.088
Mof_C 	C 	0.08692	0.4514	0.9641	0.055
Mof_C 	C 	0.08029	0.4917	0.9884	0.097
Mof_C 	C 	0.16596	0.002	0.938	0.128
Mof_C 	C 	0.22262	0.9794	0.003	0.023
Mof_H 	H 	0.2291	0.9798	0.0305	0.024
Mof_C 	C 	0.15926	0.075	0.9058	0.026
Mof_H 	H 	0.163	0.1054	0.9022	0.023
Mof_C 	C 	0.10346	0.4465	0.951	-0.136
Mof_H 	H 	0.1121	0.4695	0.9558	0.093
Mof_C 	C 	0.09194	0.6031	0.1411	0.099
Mof_H 	H 	0.1	0.5984	0.1653	-0.012
Mof_C 	C 	0.10531	0.1723	0.7631	0.392
Mof_C 	C 	0.11445	0.1423	0.7962	-0.154
Mof_C 	C 	0.12135	0.1588	0.8355	0.091
Mof_H 	H 	0.1195	0.1896	0.8429	0.011
Mof_C 	C 	0.13068	0.1323	0.8639	-0.16
Mof_H 	H 	0.1351	0.1451	0.891	0.089
Mof_C 	C 	0.13405	0.0871	0.855	0.109
Mof_C 	C 	0.12559	0.0694	0.8164	-0.145
Mof_H 	H 	0.1266	0.0381	0.81	0.086
Mof_C 	C 	0.11583	0.0968	0.7874	0.078
Mof_H 	H 	0.1102	0.0842	0.7617	0.019
Mof_C 	C 	0.07903	0.5779	0.0724	0.064
Mof_C 	C 	0.09031	0.5715	0.1105	-0.136
Mof_H 	H 	0.0967	0.544	0.1138	0.082
Mof_C 	C 	0.16915	0.0458	0.9339	-0.145
Mof_H 	H 	0.1787	0.0583	0.951	0.083
Mof_C 	C 	0.0698	0.6172	0.0698	-0.123
Mof_H 	H 	0.0622	0.6235	0.0451	0.081
Mof_C 	C 	0.15047	0.9829	0.9139	-0.132
Mof_H 	H 	0.1476	0.9516	0.915	0.079
Mof_C 	C 	0.14078	0.0119	0.8906	0.025
Mof_H 	H 	0.1303	0	0.8768	0.022
Mof_C 	C 	0.30874	0.0112	0.9663	0.481
Mof_C 	C 	0.28813	0.001	0.9652	-0.125
Mof_C 	C 	0.27799	0.0169	0.9293	0.053
Mof_H 	H 	0.2835	0.0333	0.9056	0.027
Mof_C 	C 	0.25991	0.0086	0.9285	-0.123
Mof_H 	H 	0.253	0.0179	0.9033	0.072
Mof_C 	C 	0.25151	0.9866	0.9646	0.077
Mof_C 	C 	0.26231	0.9716	0.9993	-0.1
Mof_H 	H 	0.2567	0.9573	0.0242	0.06
Mof_C 	C 	0.2799	0.9758	-0	0.032
Mof_H 	H 	0.2868	0.9623	0.0232	0.026
Mof_C 	C 	0.232	0.9814	0.9646	-0.059
Mof_C 	C 	0.22173	0.9807	0.9244	0.05
Mof_H 	H 	0.2274	0.9822	0.8959	0.013
Mof_C 	C 	0.20393	0.978	0.9273	-0.191
Mof_H 	H 	0.1973	0.9789	0.9001	0.099
Mof_C 	C 	0.1953	0.9742	0.9642	0.172
Mof_C 	C 	0.07203	0.6487	0.1056	0.072
Mof_H 	H 	0.0655	0.6762	0.1049	-0.004
Mof_C 	C 	0.07769	0.5464	0.0349	0.082
Mof_C 	C 	0.10548	0.7687	0.1673	0.407
Mof_C 	C 	0.11675	0.7992	0.1374	-0.172
Mof_C 	C 	0.12946	0.7826	0.1087	0.111
Mof_H 	H 	0.1318	0.751	0.1075	0.005
Mof_C 	C 	0.13856	0.811	0.0825	-0.188
Mof_H 	H 	0.147	0.7981	0.0624	0.092
Mof_C 	C 	0.13691	0.8561	0.0817	0.131
Mof_C 	C 	0.12348	0.8734	0.1109	-0.174
Mof_H 	H 	0.121	0.9049	0.1114	0.086
Mof_C 	C 	0.11429	0.8448	0.138	0.101
Mof_H 	H 	0.1058	0.857	0.1583	0.004
Mof_C 	C 	0.14754	0.8855	0.0531	-0.102
Mof_C 	C 	0.16425	0.8739	0.0343	0.083
Mof_H 	H 	0.1695	0.8458	0.0423	-0.001
Mof_C 	C 	0.17276	0.9003	0.0064	-0.216
Mof_H 	H 	0.1836	0.8898	0.9937	0.111
Mof_C 	C 	0.16673	0.9431	0.9945	0.18
Mof_C 	C 	0.1507	0.9575	0.0134	-0.18
Mof_H 	H 	0.1463	0.9869	0.0067	0.092
Mof_C 	C 	0.14095	0.9292	0.0422	0.049
Mof_H 	H 	0.1299	0.9393	0.0544	0.009
Mof_N 	N 	0.17605	0.9701	0.9639	-0.184
Mof_N 	N 	0.08294	0.64108	0.1398	-0.261
Mof_N 	N 	0.08697	0.50857	0.027	-0.098
Mof_N 	N 	0.06775	0.5165	0.9721	-0.088
Mof_N 	N 	0.06621	0.5513	0.0013	-0.091
Mof_N 	N 	0.10035	0.4891	0.0543	-0.232
Mof_H 	H 	0.1034	0.502	0.0797	0.137
Mof_H 	H 	0.1056	0.4639	0.0458	0.143
Mof_N 	N 	0.09799	0.3715	0.9218	-0.251
Mof_O 	O 	0.09452	0.15327	0.7355	-0.483
Mof_O 	O 	0.10817	0.21348	0.765	-0.469
Mof_O 	O 	0.09775	0.78696	0.1998	-0.48
Mof_O 	O 	0.10563	0.72745	0.1574	-0.493
Mof_O 	O 	0.31377	0.03271	0.9357	-0.544
Mof_O 	O 	0.3167	0.9966	0.999	-0.503
Mof_Zn	Zn	0.08733	0.69071	0.1855	1.221
Mof_Zn	Zn	0.09303	0.77147	0.2679	1.216
Mof_C 	C 	0.12087	0.8371	0.3036	0.394
Mof_C 	C 	0.13223	0.8694	0.2773	-0.135
Mof_C 	C 	0.13804	0.8567	0.235	0.057
Mof_H 	H 	0.1349	0.8281	0.2228	0.029
Mof_C 	C 	0.14878	0.887	0.2104	-0.128
Mof_H 	H 	0.1528	0.8791	0.1811	0.08
Mof_C 	C 	0.15353	0.9281	0.2285	0.085
Mof_C 	C 	0.14833	0.9401	0.2709	-0.129
Mof_H 	H 	0.1523	0.9678	0.2836	0.075
Mof_C 	C 	0.13693	0.911	0.2961	0.053
Mof_H 	H 	0.1327	0.9196	0.3249	0.028
Mof_C 	C 	0.16456	0.961	0.2016	-0.047
Mof_C 	C 	0.16129	0.9666	0.1547	0.014
Mof_H 	H 	0.1522	0.9496	0.1401	0.025
Mof_C 	C 	0.17122	0.9962	0.1315	-0.133
Mof_H 	H 	0.169	0.0006	0.1004	0.079
Mof_C 	C 	0.18462	0.0205	0.1524	0.118
Mof_C 	C 	0.18843	0.0147	0.1966	-0.135
Mof_H 	H 	0.1981	0.0308	0.2095	0.08
Mof_C 	C 	0.17868	0.9863	0.223	0.012
Mof_H 	H 	0.1811	0.9833	0.2542	0.025
Mof_C 	C 	0.11905	0.2606	0.9432	0.303
Mof_C 	C 	0.13077	0.2299	0.9711	-0.086
Mof_C 	C 	0.14728	0.2233	0.9579	0.022
Mof_H 	H 	0.1515	0.2366	0.9309	0.034
Mof_C 	C 	0.15908	0.1953	0.9855	-0.103
Mof_H 	H 	0.1712	0.192	0.9771	0.067
Mof_C 	C 	0.15321	0.1749	0.0211	0.06
Mof_C 	C 	0.13487	0.1805	0.0344	-0.104
Mof_H 	H 	0.1303	0.1664	0.0607	0.063
Mof_C 	C 	0.12423	0.2071	0.0075	0.013
Mof_H 	H 	0.1119	0.2098	0.0145	0.038
Mof_C 	C 	0.1654	0.1442	0.049	-0.046
Mof_C 	C 	0.17929	0.1234	0.0316	0.016
Mof_H 	H 	0.1827	0.131	0.0018	0.019
Mof_C 	C 	0.18929	0.0907	0.0541	-0.145
Mof_H 	H 	0.198	0.0729	0.0389	0.081
Mof_C 	C 	0.18601	0.0856	0.0987	0.13
Mof_C 	C 	0.17163	0.1097	0.1198	-0.133
Mof_H 	H 	0.1692	0.1046	0.1507	0.08
Mof_C 	C 	0.16187	0.1384	0.0975	0.015
Mof_H 	H 	0.1527	0.155	0.112	0.023
Mof_C 	C 	0.3251	0.9831	0.1055	0.358
Mof_C 	C 	0.30561	0.9965	0.1083	-0.117
Mof_C 	C 	0.29394	0.9682	0.1309	0.049
Mof_H 	H 	0.2981	0.9416	0.1453	0.026
Mof_C 	C 	0.27588	0.9797	0.1319	-0.131
Mof_H 	H 	0.2677	0.9604	0.147	0.073
Mof_C 	C 	0.26979	0.0173	0.1122	0.083
Mof_C 	C 	0.2812	0.0462	0.0898	-0.117
Mof_H 	H 	0.2766	0.0726	0.0758	0.071
Mof_C 	C 	0.30027	0.0362	0.0877	0.041
Mof_H 	H 	0.3085	0.0557	0.0731	0.031
Mof_C 	C 	0.25016	0.0284	0.1139	-0.048
Mof_C 	C 	0.23813	0.9926	0.1221	0.013
Mof_H 	H 	0.2425	0.9628	0.1264	0.021
Mof_C 	C 	0.22017	0.0007	0.124	-0.138
Mof_H 	H 	0.2121	0.9764	0.1285	0.08
Mof_C 	C 	0.21373	0.0448	0.1193	0.13
Mof_C 	C 	0.22505	0.0789	0.1117	-0.138
Mof_H 	H 	0.2205	0.1087	0.1087	0.081
Mof_C 	C 	0.24397	0.0715	0.1081	0.01
Mof_H 	H 	0.2519	0.0957	0.1018	0.025
Mof_N 	N 	0.19508	0.0539	0.1252	-0.167
Mof_O 	O 	0.33551	0.00433	0.0803	-0.457
Mof_O 	O 	0.32948	0.9506	0.1308	-0.479
Mof_O 	O 	0.11776	0.79896	0.2872	-0.453
Mof_O 	O 	0.11601	0.85083	0.341	-0.494
Mof_O 	O 	0.12407	0.27708	0.909	-0.465
Mof_O 	O 	0.10249	0.2683	0.9606	-0.298
Mof_Zn	Zn	0.10448	0.31473	0.8877	1.225
Mof_C 	C 	0.5752	0.9149	0.9562	-0.085
Mof_H 	H 	0.5632	0.9184	0.966	0.067
Mof_C 	C 	0.60807	0.9043	0.9288	0.109
Mof_H 	H 	0.62	0.9015	0.9185	-0.021
Mof_C 	C 	0.64418	0.56	0.8834	-0.068
Mof_C 	C 	0.5796	0.8728	0.9346	0.019
Mof_H 	H 	0.5714	0.8489	0.9296	0.034
Mof_C 	C 	0.70398	0.4766	0.0056	-0.169
Mof_H 	H 	0.6977	0.4765	0.0333	0.088
Mof_C 	C 	0.58692	0.9514	0.9641	0.055
Mof_C 	C 	0.58029	0.9917	0.9884	0.097
Mof_C 	C 	0.66596	0.502	0.938	0.128
Mof_C 	C 	0.72262	0.4794	0.003	0.023
Mof_H 	H 	0.7291	0.4798	0.0305	0.024
Mof_C 	C 	0.65926	0.575	0.9058	0.026
Mof_H 	H 	0.663	0.6054	0.9022	0.023
Mof_C 	C 	0.60346	0.9465	0.951	-0.136
Mof_H 	H 	0.6121	0.9695	0.9558	0.093
Mof_C 	C 	0.59194	0.1031	0.1411	0.099
Mof_H 	H 	0.6	0.0984	0.1653	-0.012
Mof_C 	C 	0.60531	0.6723	0.7631	0.392
Mof_C 	C 	0.61445	0.6423	0.7962	-0.154
Mof_C 	C 	0.62135	0.6588	0.8355	0.091
Mof_H 	H 	0.6195	0.6896	0.8429	0.011
Mof_C 	C 	0.63068	0.6323	0.8639	-0.16
Mof_H 	H 	0.6351	0.6451	0.891	0.089
Mof_C 	C 	0.63405	0.5871	0.855	0.11
Mof_C 	C 	0.62559	0.5694	0.8164	-0.145
Mof_H 	H 	0.6266	0.5381	0.81	0.087
Mof_C 	C 	0.61583	0.5968	0.7874	0.078
Mof_H 	H 	0.6102	0.5842	0.7617	0.019
Mof_C 	C 	0.57903	0.0779	0.0724	0.064
Mof_C 	C 	0.59031	0.0715	0.1105	-0.136
Mof_H 	H 	0.5967	0.044	0.1138	0.082
Mof_C 	C 	0.66915	0.5458	0.9339	-0.146
Mof_H 	H 	0.6787	0.5583	0.951	0.083
Mof_C 	C 	0.5698	0.1172	0.0698	-0.123
Mof_H 	H 	0.5622	0.1235	0.0451	0.081
Mof_C 	C 	0.65047	0.4829	0.9139	-0.133
Mof_H 	H 	0.6476	0.4516	0.915	0.079
Mof_C 	C 	0.64078	0.5119	0.8906	0.026
Mof_H 	H 	0.6303	0.5	0.8768	0.022
Mof_C 	C 	0.80874	0.5112	0.9663	0.481
Mof_C 	C 	0.78813	0.501	0.9652	-0.124
Mof_C 	C 	0.77799	0.5169	0.9293	0.052
Mof_H 	H 	0.7835	0.5333	0.9056	0.027
Mof_C 	C 	0.75991	0.5086	0.9285	-0.122
Mof_H 	H 	0.753	0.5179	0.9033	0.072
Mof_C 	C 	0.75151	0.4866	0.9646	0.076
Mof_C 	C 	0.76231	0.4716	0.9993	-0.099
Mof_H 	H 	0.7567	0.4573	0.0242	0.06
Mof_C 	C 	0.7799	0.4758	-0	0.031
Mof_H 	H 	0.7868	0.4623	0.0232	0.026
Mof_C 	C 	0.732	0.4814	0.9646	-0.058
Mof_C 	C 	0.72173	0.4807	0.9244	0.049
Mof_H 	H 	0.7274	0.4822	0.8959	0.013
Mof_C 	C 	0.70393	0.478	0.9273	-0.19
Mof_H 	H 	0.6973	0.4789	0.9001	0.099
Mof_C 	C 	0.6953	0.4742	0.9642	0.171
Mof_C 	C 	0.57203	0.1487	0.1056	0.072
Mof_H 	H 	0.5655	0.1762	0.1049	-0.004
Mof_C 	C 	0.57769	0.0464	0.0349	0.082
Mof_C 	C 	0.60548	0.2687	0.1673	0.407
Mof_C 	C 	0.61675	0.2992	0.1374	-0.172
Mof_C 	C 	0.62946	0.2826	0.1087	0.112
Mof_H 	H 	0.6318	0.251	0.1075	0.005
Mof_C 	C 	0.63856	0.311	0.0825	-0.188
Mof_H 	H 	0.647	0.2981	0.0624	0.092
Mof_C 	C 	0.63691	0.3561	0.0817	0.131
Mof_C 	C 	0.62348	0.3734	0.1109	-0.174
Mof_H 	H 	0.621	0.4049	0.1114	0.086
Mof_C 	C 	0.61429	0.3448	0.138	0.101
Mof_H 	H 	0.6058	0.357	0.1583	0.004
Mof_C 	C 	0.64754	0.3855	0.0531	-0.102
Mof_C 	C 	0.66425	0.3739	0.0343	0.084
Mof_H 	H 	0.6695	0.3458	0.0423	-0.001
Mof_C 	C 	0.67276	0.4003	0.0064	-0.216
Mof_H 	H 	0.6836	0.3898	0.9937	0.111
Mof_C 	C 	0.66673	0.4431	0.9945	0.18
Mof_C 	C 	0.6507	0.4575	0.0134	-0.181
Mof_H 	H 	0.6463	0.4869	0.0067	0.092
Mof_C 	C 	0.64095	0.4292	0.0422	0.049
Mof_H 	H 	0.6299	0.4393	0.0544	0.009
Mof_N 	N 	0.67605	0.4701	0.9639	-0.184
Mof_N 	N 	0.58294	0.14108	0.1398	-0.261
Mof_N 	N 	0.58697	0.00857	0.027	-0.098
Mof_N 	N 	0.56775	0.0165	0.9721	-0.088
Mof_N 	N 	0.56621	0.0513	0.0013	-0.091
Mof_N 	N 	0.60035	0.9891	0.0543	-0.232
Mof_H 	H 	0.6034	0.002	0.0797	0.137
Mof_H 	H 	0.6056	0.9639	0.0458	0.143
Mof_N 	N 	0.59799	0.8715	0.9218	-0.25
Mof_O 	O 	0.59452	0.65327	0.7355	-0.483
Mof_O 	O 	0.60817	0.71348	0.765	-0.469
Mof_O 	O 	0.59775	0.28696	0.1998	-0.48
Mof_O 	O 	0.60563	0.22745	0.1574	-0.493
Mof_O 	O 	0.81377	0.53271	0.9357	-0.544
Mof_O 	O 	0.8167	0.4966	0.999	-0.503
Mof_Zn	Zn	0.58733	0.19071	0.1855	1.221
Mof_Zn	Zn	0.59303	0.27147	0.2679	1.216
Mof_C 	C 	0.62087	0.3371	0.3036	0.394
Mof_C 	C 	0.63223	0.3694	0.2773	-0.135
Mof_C 	C 	0.63804	0.3567	0.235	0.057
Mof_H 	H 	0.6349	0.3281	0.2228	0.029
Mof_C 	C 	0.64878	0.387	0.2104	-0.128
Mof_H 	H 	0.6528	0.3791	0.1811	0.08
Mof_C 	C 	0.65353	0.4281	0.2285	0.085
Mof_C 	C 	0.64833	0.4401	0.2709	-0.129
Mof_H 	H 	0.6523	0.4678	0.2836	0.075
Mof_C 	C 	0.63693	0.411	0.2961	0.053
Mof_H 	H 	0.6327	0.4196	0.3249	0.028
Mof_C 	C 	0.66456	0.461	0.2016	-0.047
Mof_C 	C 	0.66129	0.4666	0.1547	0.014
Mof_H 	H 	0.6522	0.4496	0.1401	0.025
Mof_C 	C 	0.67122	0.4962	0.1315	-0.134
Mof_H 	H 	0.669	0.5006	0.1004	0.079
Mof_C 	C 	0.68462	0.5205	0.1524	0.119
Mof_C 	C 	0.68843	0.5147	0.1966	-0.135
Mof_H 	H 	0.6981	0.5308	0.2095	0.08
Mof_C 	C 	0.67868	0.4863	0.223	0.012
Mof_H 	H 	0.6811	0.4833	0.2542	0.025
Mof_C 	C 	0.61905	0.7606	0.9432	0.303
Mof_C 	C 	0.63077	0.7299	0.9711	-0.086
Mof_C 	C 	0.64728	0.7233	0.9579	0.021
Mof_H 	H 	0.6515	0.7366	0.9309	0.034
Mof_C 	C 	0.65908	0.6953	0.9855	-0.103
Mof_H 	H 	0.6712	0.692	0.9771	0.067
Mof_C 	C 	0.65321	0.6749	0.0211	0.06
Mof_C 	C 	0.63487	0.6805	0.0344	-0.104
Mof_H 	H 	0.6303	0.6664	0.0607	0.063
Mof_C 	C 	0.62423	0.7071	0.0075	0.013
Mof_H 	H 	0.6119	0.7098	0.0145	0.038
Mof_C 	C 	0.6654	0.6442	0.049	-0.046
Mof_C 	C 	0.67929	0.6234	0.0316	0.016
Mof_H 	H 	0.6827	0.631	0.0018	0.019
Mof_C 	C 	0.68929	0.5907	0.0541	-0.145
Mof_H 	H 	0.698	0.5729	0.0389	0.081
Mof_C 	C 	0.68601	0.5856	0.0987	0.13
Mof_C 	C 	0.67163	0.6097	0.1198	-0.133
Mof_H 	H 	0.6692	0.6046	0.1507	0.08
Mof_C 	C 	0.66187	0.6384	0.0975	0.015
Mof_H 	H 	0.6527	0.655	0.112	0.023
Mof_C 	C 	0.8251	0.4831	0.1055	0.358
Mof_C 	C 	0.80561	0.4965	0.1083	-0.117
Mof_C 	C 	0.79394	0.4682	0.1309	0.049
Mof_H 	H 	0.7981	0.4416	0.1453	0.026
Mof_C 	C 	0.77588	0.4797	0.1319	-0.131
Mof_H 	H 	0.7677	0.4604	0.147	0.073
Mof_C 	C 	0.76979	0.5173	0.1122	0.083
Mof_C 	C 	0.7812	0.5462	0.0898	-0.118
Mof_H 	H 	0.7766	0.5726	0.0758	0.071
Mof_C 	C 	0.80027	0.5362	0.0877	0.041
Mof_H 	H 	0.8085	0.5557	0.0731	0.031
Mof_C 	C 	0.75016	0.5284	0.1139	-0.048
Mof_C 	C 	0.73813	0.4926	0.1221	0.013
Mof_H 	H 	0.7425	0.4628	0.1264	0.022
Mof_C 	C 	0.72017	0.5007	0.124	-0.137
Mof_H 	H 	0.7121	0.4764	0.1285	0.08
Mof_C 	C 	0.71373	0.5448	0.1193	0.129
Mof_C 	C 	0.72505	0.5789	0.1117	-0.138
Mof_H 	H 	0.7205	0.6087	0.1087	0.081
Mof_C 	C 	0.74397	0.5715	0.1081	0.01
Mof_H 	H 	0.7519	0.5957	0.1018	0.025
Mof_N 	N 	0.69508	0.5539	0.1252	-0.167
Mof_O 	O 	0.83551	0.50433	0.0803	-0.457
Mof_O 	O 	0.82948	0.4506	0.1308	-0.479
Mof_O 	O 	0.61776	0.29896	0.2872	-0.453
Mof_O 	O 	0.61601	0.35083	0.341	-0.494
Mof_O 	O 	0.62407	0.77708	0.909	-0.465
Mof_O 	O 	0.60249	0.7683	0.9606	-0.298
Mof_Zn	Zn	0.60448	0.81473	0.8877	1.225
Mof_C 	C 	0.5752	0.4149	0.4562	-0.087
Mof_H 	H 	0.5632	0.4184	0.466	0.066
Mof_C 	C 	0.60807	0.4043	0.4288	0.109
Mof_H 	H 	0.62	0.4015	0.4185	-0.021
Mof_C 	C 	0.64418	0.06	0.3834	-0.067
Mof_C 	C 	0.5796	0.3728	0.4346	0.018
Mof_H 	H 	0.5714	0.3489	0.4296	0.033
Mof_C 	C 	0.70398	0.9766	0.5056	-0.17
Mof_H 	H 	0.6977	0.9765	0.5333	0.09
Mof_C 	C 	0.58692	0.4514	0.4641	0.056
Mof_C 	C 	0.58029	0.4917	0.4884	0.09
Mof_C 	C 	0.66596	0.002	0.438	0.125
Mof_C 	C 	0.72262	0.9794	0.503	0.046
Mof_H 	H 	0.7291	0.9798	0.5305	0.017
Mof_C 	C 	0.65926	0.075	0.4058	0.024
Mof_H 	H 	0.663	0.1054	0.4022	0.023
Mof_C 	C 	0.60346	0.4465	0.451	-0.138
Mof_H 	H 	0.6121	0.4695	0.4558	0.092
Mof_C 	C 	0.59194	0.6031	0.6411	0.099
Mof_H 	H 	0.6	0.5984	0.6653	-0.013
Mof_C 	C 	0.60531	0.1723	0.2631	0.391
Mof_C 	C 	0.61445	0.1423	0.2962	-0.154
Mof_C 	C 	0.62135	0.1588	0.3355	0.09
Mof_H 	H 	0.6195	0.1896	0.3429	0.011
Mof_C 	C 	0.63068	0.1323	0.3639	-0.16
Mof_H 	H 	0.6351	0.1451	0.391	0.088
Mof_C 	C 	0.63405	0.0871	0.355	0.108
Mof_C 	C 	0.62559	0.0694	0.3164	-0.144
Mof_H 	H 	0.6266	0.0381	0.31	0.086
Mof_C 	C 	0.61583	0.0968	0.2874	0.078
Mof_H 	H 	0.6102	0.0842	0.2617	0.019
Mof_C 	C 	0.57903	0.5779	0.5724	0.065
Mof_C 	C 	0.59031	0.5715	0.6105	-0.136
Mof_H 	H 	0.5967	0.544	0.6138	0.082
Mof_C 	C 	0.66915	0.0458	0.4339	-0.144
Mof_H 	H 	0.6787	0.0583	0.451	0.08
Mof_C 	C 	0.5698	0.6172	0.5698	-0.123
Mof_H 	H 	0.5622	0.6235	0.5451	0.082
Mof_C 	C 	0.65047	0.9829	0.4139	-0.131
Mof_H 	H 	0.6476	0.9516	0.415	0.077
Mof_C 	C 	0.64078	0.0119	0.3906	0.024
Mof_H 	H 	0.6303	-3.05945e-33	0.3768	0.022
Mof_C 	C 	0.80874	0.0112	0.4663	0.492
Mof_C 	C 	0.78813	0.001	0.4652	-0.159
Mof_C 	C 	0.77799	0.0169	0.4293	0.081
Mof_H 	H 	0.7835	0.0333	0.4056	0.017
Mof_C 	C 	0.75991	0.0086	0.4285	-0.153
Mof_H 	H 	0.753	0.0179	0.4033	0.082
Mof_C 	C 	0.75151	0.9866	0.4646	0.112
Mof_C 	C 	0.76231	0.9716	0.4993	-0.164
Mof_H 	H 	0.7567	0.9573	0.5242	0.085
Mof_C 	C 	0.7799	0.9758	0.5	0.091
Mof_H 	H 	0.7868	0.9623	0.5232	0.009
Mof_C 	C 	0.732	0.9814	0.4646	-0.087
Mof_C 	C 	0.72173	0.9807	0.4244	0.064
Mof_H 	H 	0.7274	0.9822	0.3959	0.007
Mof_C 	C 	0.70393	0.978	0.4273	-0.198
Mof_H 	H 	0.6973	0.9789	0.4001	0.102
Mof_C 	C 	0.6953	0.9742	0.4642	0.169
Mof_C 	C 	0.57203	0.6487	0.6056	0.072
Mof_H 	H 	0.5655	0.6762	0.6049	-0.004
Mof_C 	C 	0.57769	0.5464	0.5349	0.084
Mof_C 	C 	0.60548	0.7687	0.6673	0.405
Mof_C 	C 	0.61675	0.7992	0.6374	-0.167
Mof_C 	C 	0.62946	0.7826	0.6087	0.104
Mof_H 	H 	0.6318	0.751	0.6075	0.008
Mof_C 	C 	0.63856	0.811	0.5825	-0.177
Mof_H 	H 	0.647	0.7981	0.5624	0.089
Mof_C 	C 	0.63691	0.8561	0.5817	0.118
Mof_C 	C 	0.62348	0.8734	0.6109	-0.165
Mof_H 	H 	0.621	0.9049	0.6114	0.083
Mof_C 	C 	0.61429	0.8448	0.638	0.094
Mof_H 	H 	0.6058	0.857	0.6583	0.007
Mof_C 	C 	0.64754	0.8855	0.5531	-0.078
Mof_C 	C 	0.66425	0.8739	0.5343	0.047
Mof_H 	H 	0.6695	0.8458	0.5423	0.012
Mof_C 	C 	0.67276	0.9003	0.5064	-0.162
Mof_H 	H 	0.6836	0.8898	0.4937	0.088
Mof_C 	C 	0.66673	0.9431	0.4945	0.142
Mof_C 	C 	0.6507	0.9575	0.5134	-0.148
Mof_H 	H 	0.6463	0.9869	0.5067	0.084
Mof_C 	C 	0.64095	0.9292	0.5422	0.027
Mof_H 	H 	0.6299	0.9393	0.5544	0.018
Mof_N 	N 	0.67605	0.9701	0.4639	-0.178
Mof_N 	N 	0.58294	0.64108	0.6398	-0.261
Mof_N 	N 	0.58697	0.50857	0.527	-0.094
Mof_N 	N 	0.56775	0.5165	0.4721	-0.09
Mof_N 	N 	0.56621	0.5513	0.5013	-0.087
Mof_N 	N 	0.60035	0.4891	0.5543	-0.232
Mof_H 	H 	0.6034	0.502	0.5797	0.138
Mof_H 	H 	0.6056	0.4639	0.5458	0.145
Mof_N 	N 	0.59799	0.3715	0.4218	-0.251
Mof_O 	O 	0.59452	0.15327	0.2355	-0.483
Mof_O 	O 	0.60817	0.21348	0.265	-0.469
Mof_O 	O 	0.59775	0.78696	0.6998	-0.48
Mof_O 	O 	0.60563	0.72745	0.6574	-0.492
Mof_O 	O 	0.81377	0.03271	0.4357	-0.548
Mof_O 	O 	0.8167	0.9966	0.499	-0.511
Mof_Zn	Zn	0.58733	0.69071	0.6855	1.221
Mof_Zn	Zn	0.59303	0.77147	0.7679	1.216
Mof_C 	C 	0.62087	0.8371	0.8036	0.394
Mof_C 	C 	0.63223	0.8694	0.7773	-0.135
Mof_C 	C 	0.63804	0.8567	0.735	0.057
Mof_H 	H 	0.6349	0.8281	0.7228	0.029
Mof_C 	C 	0.64878	0.887	0.7104	-0.128
Mof_H 	H 	0.6528	0.8791	0.6811	0.08
Mof_C 	C 	0.65353	0.9281	0.7285	0.085
Mof_C 	C 	0.64833	0.9401	0.7709	-0.129
Mof_H 	H 	0.6523	0.9678	0.7836	0.075
Mof_C 	C 	0.63693	0.911	0.7961	0.053
Mof_H 	H 	0.6327	0.9196	0.8249	0.028
Mof_C 	C 	0.66456	0.961	0.7016	-0.047
Mof_C 	C 	0.66129	0.9666	0.6547	0.015
Mof_H 	H 	0.6522	0.9496	0.6401	0.025
Mof_C 	C 	0.67122	0.9962	0.6315	-0.134
Mof_H 	H 	0.669	0.0006	0.6004	0.079
Mof_C 	C 	0.68462	0.0205	0.6524	0.119
Mof_C 	C 	0.68843	0.0147	0.6966	-0.135
Mof_H 	H 	0.6981	0.0308	0.7095	0.08
Mof_C 	C 	0.67868	0.9863	0.723	0.012
Mof_H 	H 	0.6811	0.9833	0.7542	0.025
Mof_C 	C 	0.61905	0.2606	0.4432	0.311
Mof_C 	C 	0.63077	0.2299	0.4711	-0.112
Mof_C 	C 	0.64728	0.2233	0.4579	0.044
Mof_H 	H 	0.6515	0.2366	0.4309	0.026
Mof_C 	C 	0.65908	0.1953	0.4855	-0.134
Mof_H 	H 	0.6712	0.192	0.4771	0.075
Mof_C 	C 	0.65321	0.1749	0.5211	0.086
Mof_C 	C 	0.63487	0.1805	0.5344	-0.125
Mof_H 	H 	0.6303	0.1664	0.5607	0.071
Mof_C 	C 	0.62423	0.2071	0.5075	0.042
Mof_H 	H 	0.6119	0.2098	0.5145	0.031
Mof_C 	C 	0.6654	0.1442	0.549	-0.057
Mof_C 	C 	0.67929	0.1234	0.5316	0.025
Mof_H 	H 	0.6827	0.131	0.5018	0.019
Mof_C 	C 	0.68929	0.0907	0.5541	-0.15
Mof_H 	H 	0.698	0.0729	0.5389	0.083
Mof_C 	C 	0.68601	0.0856	0.5987	0.133
Mof_C 	C 	0.67163	0.1097	0.6198	-0.138
Mof_H 	H 	0.6692	0.1046	0.6507	0.081
Mof_C 	C 	0.66187	0.1384	0.5975	0.023
Mof_H 	H 	0.6527	0.155	0.612	0.02
Mof_C 	C 	0.8251	0.9831	0.6055	0.358
Mof_C 	C 	0.80561	0.9965	0.6083	-0.116
Mof_C 	C 	0.79394	0.9682	0.6309	0.049
Mof_H 	H 	0.7981	0.9416	0.6453	0.026
Mof_C 	C 	0.77588	0.9797	0.6319	-0.131
Mof_H 	H 	0.7677	0.9604	0.647	0.073
Mof_C 	C 	0.76979	0.0173	0.6122	0.083
Mof_C 	C 	0.7812	0.0462	0.5898	-0.117
Mof_H 	H 	0.7766	0.0726	0.5758	0.072
Mof_C 	C 	0.80027	0.0362	0.5877	0.042
Mof_H 	H 	0.8085	0.0557	0.5731	0.032
Mof_C 	C 	0.75016	0.0284	0.6139	-0.048
Mof_C 	C 	0.73813	0.9926	0.6221	0.013
Mof_H 	H 	0.7425	0.9628	0.6264	0.022
Mof_C 	C 	0.72017	0.0007	0.624	-0.137
Mof_H 	H 	0.7121	0.9764	0.6285	0.08
Mof_C 	C 	0.71373	0.0448	0.6193	0.13
Mof_C 	C 	0.72505	0.0789	0.6117	-0.138
Mof_H 	H 	0.7205	0.1087	0.6087	0.081
Mof_C 	C 	0.74397	0.0715	0.6081	0.01
Mof_H 	H 	0.7519	0.0957	0.6018	0.026
Mof_N 	N 	0.69508	0.0539	0.6252	-0.168
Mof_O 	O 	0.83551	0.00433	0.5803	-0.456
Mof_O 	O 	0.82948	0.9506	0.6308	-0.479
Mof_O 	O 	0.61776	0.79896	0.7872	-0.453
Mof_O 	O 	0.61601	0.85083	0.841	-0.494
Mof_O 	O 	0.62407	0.27708	0.409	-0.468
Mof_O 	O 	0.60249	0.2683	0.4606	-0.302
Mof_Zn	Zn	0.60448	0.31473	0.3877	1.225
Mof_C 	C 	0.3252	0.3351	0.7062	-0.087
Mof_H 	H 	0.3132	0.3316	0.716	0.066
Mof_C 	C 	0.35807	0.3457	0.6788	0.109
Mof_H 	H 	0.37	0.3485	0.6685	-0.021
Mof_C 	C 	0.39418	0.69	0.6334	-0.067
Mof_C 	C 	0.3296	0.3772	0.6846	0.018
Mof_H 	H 	0.3214	0.4011	0.6796	0.033
Mof_C 	C 	0.45398	0.7734	0.7556	-0.17
Mof_H 	H 	0.4477	0.7735	0.7833	0.09
Mof_C 	C 	0.33692	0.2986	0.7141	0.056
Mof_C 	C 	0.33029	0.2583	0.7384	0.09
Mof_C 	C 	0.41596	0.748	0.688	0.125
Mof_C 	C 	0.47262	0.7706	0.753	0.046
Mof_H 	H 	0.4791	0.7702	0.7805	0.017
Mof_C 	C 	0.40926	0.675	0.6558	0.024
Mof_H 	H 	0.413	0.6446	0.6522	0.023
Mof_C 	C 	0.35346	0.3035	0.701	-0.138
Mof_H 	H 	0.3621	0.2805	0.7058	0.092
Mof_C 	C 	0.34194	0.1469	0.8911	0.099
Mof_H 	H 	0.35	0.1516	0.9153	-0.012
Mof_C 	C 	0.35531	0.5777	0.5131	0.391
Mof_C 	C 	0.36445	0.6077	0.5462	-0.154
Mof_C 	C 	0.37135	0.5912	0.5855	0.09
Mof_H 	H 	0.3695	0.5604	0.5929	0.011
Mof_C 	C 	0.38068	0.6177	0.6139	-0.16
Mof_H 	H 	0.3851	0.6049	0.641	0.088
Mof_C 	C 	0.38405	0.6629	0.605	0.109
Mof_C 	C 	0.37559	0.6806	0.5664	-0.144
Mof_H 	H 	0.3766	0.7119	0.56	0.086
Mof_C 	C 	0.36583	0.6532	0.5374	0.078
Mof_H 	H 	0.3602	0.6658	0.5117	0.019
Mof_C 	C 	0.32903	0.1721	0.8224	0.065
Mof_C 	C 	0.34031	0.1785	0.8605	-0.135
Mof_H 	H 	0.3467	0.206	0.8638	0.082
Mof_C 	C 	0.41915	0.7042	0.6839	-0.144
Mof_H 	H 	0.4287	0.6917	0.701	0.081
Mof_C 	C 	0.3198	0.1328	0.8198	-0.123
Mof_H 	H 	0.3122	0.1265	0.7951	0.082
Mof_C 	C 	0.40047	0.7671	0.6639	-0.132
Mof_H 	H 	0.3976	0.7984	0.665	0.078
Mof_C 	C 	0.39078	0.7381	0.6406	0.024
Mof_H 	H 	0.3803	0.75	0.6268	0.022
Mof_C 	C 	0.55874	0.7388	0.7163	0.492
Mof_C 	C 	0.53813	0.749	0.7152	-0.158
Mof_C 	C 	0.52799	0.7331	0.6793	0.081
Mof_H 	H 	0.5335	0.7167	0.6556	0.017
Mof_C 	C 	0.50991	0.7414	0.6785	-0.153
Mof_H 	H 	0.503	0.7321	0.6533	0.082
Mof_C 	C 	0.50151	0.7634	0.7146	0.112
Mof_C 	C 	0.51231	0.7784	0.7493	-0.163
Mof_H 	H 	0.5067	0.7927	0.7742	0.085
Mof_C 	C 	0.5299	0.7742	0.75	0.091
Mof_H 	H 	0.5368	0.7877	0.7732	0.009
Mof_C 	C 	0.482	0.7686	0.7146	-0.087
Mof_C 	C 	0.47173	0.7693	0.6744	0.063
Mof_H 	H 	0.4774	0.7678	0.6459	0.007
Mof_C 	C 	0.45393	0.772	0.6773	-0.198
Mof_H 	H 	0.4473	0.7711	0.6501	0.102
Mof_C 	C 	0.4453	0.7758	0.7142	0.169
Mof_C 	C 	0.32203	0.1013	0.8556	0.073
Mof_H 	H 	0.3155	0.0738	0.8549	-0.004
Mof_C 	C 	0.32769	0.2036	0.7849	0.084
Mof_C 	C 	0.35548	0.9813	0.9173	0.405
Mof_C 	C 	0.36675	0.9508	0.8874	-0.166
Mof_C 	C 	0.37946	0.9674	0.8587	0.104
Mof_H 	H 	0.3818	0.999	0.8575	0.008
Mof_C 	C 	0.38856	0.939	0.8325	-0.177
Mof_H 	H 	0.397	0.9519	0.8124	0.089
Mof_C 	C 	0.38691	0.8939	0.8317	0.118
Mof_C 	C 	0.37348	0.8766	0.8609	-0.164
Mof_H 	H 	0.371	0.8451	0.8614	0.084
Mof_C 	C 	0.36429	0.9052	0.888	0.094
Mof_H 	H 	0.3558	0.893	0.9083	0.008
Mof_C 	C 	0.39754	0.8645	0.8031	-0.078
Mof_C 	C 	0.41425	0.8761	0.7843	0.047
Mof_H 	H 	0.4195	0.9042	0.7923	0.013
Mof_C 	C 	0.42276	0.8497	0.7564	-0.162
Mof_H 	H 	0.4336	0.8602	0.7437	0.088
Mof_C 	C 	0.41673	0.8069	0.7445	0.142
Mof_C 	C 	0.4007	0.7925	0.7634	-0.148
Mof_H 	H 	0.3963	0.7631	0.7567	0.084
Mof_C 	C 	0.39095	0.8208	0.7922	0.026
Mof_H 	H 	0.3799	0.8107	0.8044	0.018
Mof_N 	N 	0.42605	0.7799	0.7139	-0.178
Mof_N 	N 	0.33294	0.10892	0.8898	-0.261
Mof_N 	N 	0.33697	0.24143	0.777	-0.094
Mof_N 	N 	0.31775	0.2335	0.7221	-0.09
Mof_N 	N 	0.31621	0.1987	0.7513	-0.087
Mof_N 	N 	0.35035	0.2609	0.8043	-0.232
Mof_H 	H 	0.3534	0.248	0.8297	0.138
Mof_H 	H 	0.3556	0.2861	0.7958	0.145
Mof_N 	N 	0.34799	0.3785	0.6718	-0.251
Mof_O 	O 	0.34452	0.59673	0.4855	-0.483
Mof_O 	O 	0.35817	0.53652	0.515	-0.469
Mof_O 	O 	0.34775	0.96304	0.9498	-0.477
Mof_O 	O 	0.35563	0.02255	0.9074	-0.492
Mof_O 	O 	0.56377	0.71729	0.6857	-0.548
Mof_O 	O 	0.5667	0.7534	0.749	-0.511
Mof_Zn	Zn	0.33733	0.05929	0.9355	1.222
Mof_Zn	Zn	0.34303	0.97853	0.0179	1.214
Mof_C 	C 	0.37087	0.9129	0.0536	0.4
Mof_C 	C 	0.38223	0.8806	0.0273	-0.157
Mof_C 	C 	0.38804	0.8933	0.985	0.083
Mof_H 	H 	0.3849	0.9219	0.9728	0.022
Mof_C 	C 	0.39878	0.863	0.9604	-0.148
Mof_H 	H 	0.4028	0.8709	0.9311	0.088
Mof_C 	C 	0.40353	0.8219	0.9785	0.111
Mof_C 	C 	0.39833	0.8099	0.0209	-0.156
Mof_H 	H 	0.4023	0.7822	0.0336	0.082
Mof_C 	C 	0.38693	0.839	0.0461	0.072
Mof_H 	H 	0.3827	0.8304	0.0749	0.022
Mof_C 	C 	0.41456	0.789	0.9516	-0.064
Mof_C 	C 	0.41129	0.7834	0.9047	0.028
Mof_H 	H 	0.4022	0.8004	0.8901	0.021
Mof_C 	C 	0.42122	0.7538	0.8815	-0.145
Mof_H 	H 	0.419	0.7494	0.8504	0.083
Mof_C 	C 	0.43462	0.7295	0.9024	0.129
Mof_C 	C 	0.43843	0.7353	0.9466	-0.152
Mof_H 	H 	0.4481	0.7192	0.9595	0.087
Mof_C 	C 	0.42868	0.7637	0.973	0.039
Mof_H 	H 	0.4311	0.7667	0.0042	0.01
Mof_C 	C 	0.36905	0.4894	0.6932	0.311
Mof_C 	C 	0.38077	0.5201	0.7211	-0.112
Mof_C 	C 	0.39728	0.5267	0.7079	0.044
Mof_H 	H 	0.4015	0.5134	0.6809	0.026
Mof_C 	C 	0.40908	0.5547	0.7355	-0.134
Mof_H 	H 	0.4212	0.558	0.7271	0.075
Mof_C 	C 	0.40321	0.5751	0.7711	0.086
Mof_C 	C 	0.38487	0.5695	0.7844	-0.125
Mof_H 	H 	0.3803	0.5836	0.8107	0.072
Mof_C 	C 	0.37423	0.5429	0.7575	0.042
Mof_H 	H 	0.3619	0.5402	0.7645	0.031
Mof_C 	C 	0.4154	0.6058	0.799	-0.057
Mof_C 	C 	0.42929	0.6266	0.7816	0.026
Mof_H 	H 	0.4327	0.619	0.7518	0.019
Mof_C 	C 	0.43929	0.6593	0.8041	-0.15
Mof_H 	H 	0.448	0.6771	0.7889	0.083
Mof_C 	C 	0.43601	0.6644	0.8487	0.134
Mof_C 	C 	0.42163	0.6403	0.8698	-0.139
Mof_H 	H 	0.4192	0.6454	0.9007	0.082
Mof_C 	C 	0.41187	0.6116	0.8475	0.023
Mof_H 	H 	0.4027	0.595	0.862	0.021
Mof_C 	C 	0.5751	0.7669	0.8555	0.358
Mof_C 	C 	0.55561	0.7535	0.8583	-0.116
Mof_C 	C 	0.54394	0.7818	0.8809	0.05
Mof_H 	H 	0.5481	0.8084	0.8953	0.027
Mof_C 	C 	0.52588	0.7703	0.8819	-0.131
Mof_H 	H 	0.5177	0.7896	0.897	0.074
Mof_C 	C 	0.51979	0.7327	0.8622	0.083
Mof_C 	C 	0.5312	0.7038	0.8398	-0.117
Mof_H 	H 	0.5266	0.6774	0.8258	0.072
Mof_C 	C 	0.55027	0.7138	0.8377	0.042
Mof_H 	H 	0.5585	0.6943	0.8231	0.032
Mof_C 	C 	0.50016	0.7216	0.8639	-0.047
Mof_C 	C 	0.48813	0.7574	0.8721	0.013
Mof_H 	H 	0.4925	0.7872	0.8764	0.022
Mof_C 	C 	0.47017	0.7493	0.874	-0.137
Mof_H 	H 	0.4621	0.7736	0.8785	0.08
Mof_C 	C 	0.46373	0.7052	0.8693	0.13
Mof_C 	C 	0.47505	0.6711	0.8617	-0.138
Mof_H 	H 	0.4705	0.6413	0.8587	0.081
Mof_C 	C 	0.49397	0.6785	0.8581	0.01
Mof_H 	H 	0.5019	0.6543	0.8518	0.026
Mof_N 	N 	0.44508	0.6961	0.8752	-0.169
Mof_O 	O 	0.58551	0.74567	0.8303	-0.456
Mof_O 	O 	0.57948	0.7994	0.8808	-0.478
Mof_O 	O 	0.36776	0.95104	0.0372	-0.457
Mof_O 	O 	0.36601	0.89917	0.091	-0.496
Mof_O 	O 	0.37407	0.47292	0.659	-0.468
Mof_O 	O 	0.35249	0.4817	0.7106	-0.302
Mof_Zn	Zn	0.35448	0.43527	0.6377	1.225
Mof_C 	C 	0.3252	0.8351	0.2062	-0.087
Mof_H 	H 	0.3132	0.8316	0.216	0.066
Mof_C 	C 	0.35807	0.8457	0.1788	0.109
Mof_H 	H 	0.37	0.8485	0.1685	-0.021
Mof_C 	C 	0.39418	0.19	0.1334	-0.067
Mof_C 	C 	0.3296	0.8772	0.1846	0.018
Mof_H 	H 	0.3214	0.9011	0.1796	0.033
Mof_C 	C 	0.45398	0.2734	0.2556	-0.17
Mof_H 	H 	0.4477	0.2735	0.2833	0.09
Mof_C 	C 	0.33692	0.7986	0.2141	0.055
Mof_C 	C 	0.33029	0.7583	0.2384	0.09
Mof_C 	C 	0.41596	0.248	0.188	0.125
Mof_C 	C 	0.47262	0.2706	0.253	0.046
Mof_H 	H 	0.4791	0.2702	0.2805	0.017
Mof_C 	C 	0.40926	0.175	0.1558	0.023
Mof_H 	H 	0.413	0.1446	0.1522	0.023
Mof_C 	C 	0.35346	0.8035	0.201	-0.138
Mof_H 	H 	0.3621	0.7805	0.2058	0.092
Mof_C 	C 	0.34194	0.6469	0.3911	0.099
Mof_H 	H 	0.35	0.6516	0.4153	-0.013
Mof_C 	C 	0.35531	0.0777	0.0131	0.382
Mof_C 	C 	0.36445	0.1077	0.0462	-0.152
Mof_C 	C 	0.37135	0.0912	0.0855	0.088
Mof_H 	H 	0.3695	0.0604	0.0929	0.012
Mof_C 	C 	0.38068	0.1177	0.1139	-0.159
Mof_H 	H 	0.3851	0.1049	0.141	0.087
Mof_C 	C 	0.38405	0.1629	0.105	0.107
Mof_C 	C 	0.37559	0.1806	0.0664	-0.144
Mof_H 	H 	0.3766	0.2119	0.06	0.085
Mof_C 	C 	0.36583	0.1532	0.0374	0.075
Mof_H 	H 	0.3602	0.1658	0.0117	0.017
Mof_C 	C 	0.32903	0.6721	0.3224	0.065
Mof_C 	C 	0.34031	0.6785	0.3605	-0.136
Mof_H 	H 	0.3467	0.706	0.3638	0.082
Mof_C 	C 	0.41915	0.2042	0.1839	-0.144
Mof_H 	H 	0.4287	0.1917	0.201	0.08
Mof_C 	C 	0.3198	0.6328	0.3198	-0.123
Mof_H 	H 	0.3122	0.6265	0.2951	0.082
Mof_C 	C 	0.40047	0.2671	0.1639	-0.132
Mof_H 	H 	0.3976	0.2984	0.165	0.077
Mof_C 	C 	0.39078	0.2381	0.1406	0.024
Mof_H 	H 	0.3803	0.25	0.1268	0.022
Mof_C 	C 	0.55874	0.2388	0.2163	0.492
Mof_C 	C 	0.53813	0.249	0.2152	-0.158
Mof_C 	C 	0.52799	0.2331	0.1793	0.08
Mof_H 	H 	0.5335	0.2167	0.1556	0.017
Mof_C 	C 	0.50991	0.2414	0.1785	-0.153
Mof_H 	H 	0.503	0.2321	0.1533	0.081
Mof_C 	C 	0.50151	0.2634	0.2146	0.111
Mof_C 	C 	0.51231	0.2784	0.2493	-0.163
Mof_H 	H 	0.5067	0.2927	0.2742	0.085
Mof_C 	C 	0.5299	0.2742	0.25	0.091
Mof_H 	H 	0.5368	0.2877	0.2732	0.009
Mof_C 	C 	0.482	0.2686	0.2146	-0.087
Mof_C 	C 	0.47173	0.2693	0.1744	0.063
Mof_H 	H 	0.4774	0.2678	0.1459	0.006
Mof_C 	C 	0.45393	0.272	0.1773	-0.198
Mof_H 	H 	0.4473	0.2711	0.1501	0.101
Mof_C 	C 	0.4453	0.2758	0.2142	0.169
Mof_C 	C 	0.32203	0.6013	0.3556	0.072
Mof_H 	H 	0.3155	0.5738	0.3549	-0.004
Mof_C 	C 	0.32769	0.7036	0.2849	0.084
Mof_C 	C 	0.35548	0.4813	0.4173	0.405
Mof_C 	C 	0.36675	0.4508	0.3874	-0.167
Mof_C 	C 	0.37946	0.4674	0.3587	0.104
Mof_H 	H 	0.3818	0.499	0.3575	0.008
Mof_C 	C 	0.38856	0.439	0.3325	-0.177
Mof_H 	H 	0.397	0.4519	0.3124	0.089
Mof_C 	C 	0.38691	0.3939	0.3317	0.118
Mof_C 	C 	0.37348	0.3766	0.3609	-0.165
Mof_H 	H 	0.371	0.3451	0.3614	0.083
Mof_C 	C 	0.36429	0.4052	0.388	0.094
Mof_H 	H 	0.3558	0.393	0.4083	0.007
Mof_C 	C 	0.39754	0.3645	0.3031	-0.078
Mof_C 	C 	0.41425	0.3761	0.2843	0.047
Mof_H 	H 	0.4195	0.4042	0.2923	0.012
Mof_C 	C 	0.42276	0.3497	0.2564	-0.162
Mof_H 	H 	0.4336	0.3602	0.2437	0.088
Mof_C 	C 	0.41673	0.3069	0.2445	0.142
Mof_C 	C 	0.4007	0.2925	0.2634	-0.148
Mof_H 	H 	0.3963	0.2631	0.2567	0.084
Mof_C 	C 	0.39095	0.3208	0.2922	0.026
Mof_H 	H 	0.3799	0.3107	0.3044	0.018
Mof_N 	N 	0.42605	0.2799	0.2139	-0.178
Mof_N 	N 	0.33294	0.60892	0.3898	-0.261
Mof_N 	N 	0.33697	0.74143	0.277	-0.094
Mof_N 	N 	0.31775	0.7335	0.2221	-0.09
Mof_N 	N 	0.31621	0.6987	0.2513	-0.087
Mof_N 	N 	0.35035	0.7609	0.3043	-0.232
Mof_H 	H 	0.3534	0.748	0.3297	0.138
Mof_H 	H 	0.3556	0.7861	0.2958	0.145
Mof_N 	N 	0.34799	0.8785	0.1718	-0.251
Mof_O 	O 	0.34452	0.09673	0.9855	-0.475
Mof_O 	O 	0.35817	0.03652	0.015	-0.469
Mof_O 	O 	0.34775	0.46304	0.4498	-0.48
Mof_O 	O 	0.35563	0.52255	0.4074	-0.492
Mof_O 	O 	0.56377	0.21729	0.1857	-0.548
Mof_O 	O 	0.5667	0.2534	0.249	-0.511
Mof_Zn	Zn	0.33733	0.55929	0.4355	1.221
Mof_Zn	Zn	0.34303	0.47853	0.5179	1.216
Mof_C 	C 	0.37087	0.4129	0.5536	0.394
Mof_C 	C 	0.38223	0.3806	0.5273	-0.135
Mof_C 	C 	0.38804	0.3933	0.485	0.057
Mof_H 	H 	0.3849	0.4219	0.4728	0.029
Mof_C 	C 	0.39878	0.363	0.4604	-0.128
Mof_H 	H 	0.4028	0.3709	0.4311	0.08
Mof_C 	C 	0.40353	0.3219	0.4785	0.085
Mof_C 	C 	0.39833	0.3099	0.5209	-0.129
Mof_H 	H 	0.4023	0.2822	0.5336	0.075
Mof_C 	C 	0.38693	0.339	0.5461	0.053
Mof_H 	H 	0.3827	0.3304	0.5749	0.028
Mof_C 	C 	0.41456	0.289	0.4516	-0.047
Mof_C 	C 	0.41129	0.2834	0.4047	0.015
Mof_H 	H 	0.4022	0.3004	0.3901	0.025
Mof_C 	C 	0.42122	0.2538	0.3815	-0.134
Mof_H 	H 	0.419	0.2494	0.3504	0.08
Mof_C 	C 	0.43462	0.2295	0.4024	0.119
Mof_C 	C 	0.43843	0.2353	0.4466	-0.135
Mof_H 	H 	0.4481	0.2192	0.4595	0.08
Mof_C 	C 	0.42868	0.2637	0.473	0.012
Mof_H 	H 	0.4311	0.2667	0.5042	0.025
Mof_C 	C 	0.36905	0.9894	0.1932	0.311
Mof_C 	C 	0.38077	0.0201	0.2211	-0.112
Mof_C 	C 	0.39728	0.0267	0.2079	0.044
Mof_H 	H 	0.4015	0.0134	0.1809	0.026
Mof_C 	C 	0.40908	0.0547	0.2355	-0.134
Mof_H 	H 	0.4212	0.058	0.2271	0.075
Mof_C 	C 	0.40321	0.0751	0.2711	0.086
Mof_C 	C 	0.38487	0.0695	0.2844	-0.125
Mof_H 	H 	0.3803	0.0836	0.3107	0.071
Mof_C 	C 	0.37423	0.0429	0.2575	0.042
Mof_H 	H 	0.3619	0.0402	0.2645	0.031
Mof_C 	C 	0.4154	0.1058	0.299	-0.057
Mof_C 	C 	0.42929	0.1266	0.2816	0.025
Mof_H 	H 	0.4327	0.119	0.2518	0.018
Mof_C 	C 	0.43929	0.1593	0.3041	-0.15
Mof_H 	H 	0.448	0.1771	0.2889	0.083
Mof_C 	C 	0.43601	0.1644	0.3487	0.133
Mof_C 	C 	0.42163	0.1403	0.3698	-0.138
Mof_H 	H 	0.4192	0.1454	0.4007	0.081
Mof_C 	C 	0.41187	0.1116	0.3475	0.023
Mof_H 	H 	0.4027	0.095	0.362	0.02
Mof_C 	C 	0.5751	0.2669	0.3555	0.358
Mof_C 	C 	0.55561	0.2535	0.3583	-0.116
Mof_C 	C 	0.54394	0.2818	0.3809	0.049
Mof_H 	H 	0.5481	0.3084	0.3953	0.026
Mof_C 	C 	0.52588	0.2703	0.3819	-0.131
Mof_H 	H 	0.5177	0.2896	0.397	0.073
Mof_C 	C 	0.51979	0.2327	0.3622	0.083
Mof_C 	C 	0.5312	0.2038	0.3398	-0.117
Mof_H 	H 	0.5266	0.1774	0.3258	0.072
Mof_C 	C 	0.55027	0.2138	0.3377	0.042
Mof_H 	H 	0.5585	0.1943	0.3231	0.032
Mof_C 	C 	0.50016	0.2216	0.3639	-0.047
Mof_C 	C 	0.48813	0.2574	0.3721	0.013
Mof_H 	H 	0.4925	0.2872	0.3764	0.022
Mof_C 	C 	0.47017	0.2493	0.374	-0.137
Mof_H 	H 	0.4621	0.2736	0.3785	0.08
Mof_C 	C 	0.46373	0.2052	0.3693	0.13
Mof_C 	C 	0.47505	0.1711	0.3617	-0.138
Mof_H 	H 	0.4705	0.1413	0.3587	0.081
Mof_C 	C 	0.49397	0.1785	0.3581	0.01
Mof_H 	H 	0.5019	0.1543	0.3518	0.026
Mof_N 	N 	0.44508	0.1961	0.3752	-0.168
Mof_O 	O 	0.58551	0.24567	0.3303	-0.456
Mof_O 	O 	0.57948	0.2994	0.3808	-0.479
Mof_O 	O 	0.36776	0.45104	0.5372	-0.453
Mof_O 	O 	0.36601	0.39917	0.591	-0.494
Mof_O 	O 	0.37407	0.97292	0.159	-0.468
Mof_O 	O 	0.35249	0.9817	0.2106	-0.302
Mof_Zn	Zn	0.35448	0.93527	0.1377	1.225
Mof_C 	C 	0.8252	0.3351	0.2062	-0.087
Mof_H 	H 	0.8132	0.3316	0.216	0.066
Mof_C 	C 	0.85807	0.3457	0.1788	0.109
Mof_H 	H 	0.87	0.3485	0.1685	-0.021
Mof_C 	C 	0.89418	0.69	0.1334	-0.067
Mof_C 	C 	0.8296	0.3772	0.1846	0.018
Mof_H 	H 	0.8214	0.4011	0.1796	0.033
Mof_C 	C 	0.95398	0.7734	0.2556	-0.17
Mof_H 	H 	0.9477	0.7735	0.2833	0.09
Mof_C 	C 	0.83692	0.2986	0.2141	0.055
Mof_C 	C 	0.83029	0.2583	0.2384	0.09
Mof_C 	C 	0.91596	0.748	0.188	0.125
Mof_C 	C 	0.97262	0.7706	0.253	0.046
Mof_H 	H 	0.9791	0.7702	0.2805	0.017
Mof_C 	C 	0.90926	0.675	0.1558	0.023
Mof_H 	H 	0.913	0.6446	0.1522	0.023
Mof_C 	C 	0.85346	0.3035	0.201	-0.138
Mof_H 	H 	0.8621	0.2805	0.2058	0.092
Mof_C 	C 	0.84194	0.1469	0.3911	0.099
Mof_H 	H 	0.85	0.1516	0.4153	-0.013
Mof_C 	C 	0.85531	0.5777	0.0131	0.382
Mof_C 	C 	0.86445	0.6077	0.0462	-0.152
Mof_C 	C 	0.87135	0.5912	0.0855	0.088
Mof_H 	H 	0.8695	0.5604	0.0929	0.012
Mof_C 	C 	0.88068	0.6177	0.1139	-0.159
Mof_H 	H 	0.8851	0.6049	0.141	0.087
Mof_C 	C 	0.88405	0.6629	0.105	0.107
Mof_C 	C 	0.87559	0.6806	0.0664	-0.144
Mof_H 	H 	0.8766	0.7119	0.06	0.085
Mof_C 	C 	0.86583	0.6532	0.0374	0.075
Mof_H 	H 	0.8602	0.6658	0.0117	0.017
Mof_C 	C 	0.82903	0.1721	0.3224	0.065
Mof_C 	C 	0.84031	0.1785	0.3605	-0.136
Mof_H 	H 	0.8467	0.206	0.3638	0.082
Mof_C 	C 	0.91915	0.7042	0.1839	-0.144
Mof_H 	H 	0.9287	0.6917	0.201	0.08
Mof_C 	C 	0.8198	0.1328	0.3198	-0.123
Mof_H 	H 	0.8122	0.1265	0.2951	0.082
Mof_C 	C 	0.90047	0.7671	0.1639	-0.132
Mof_H 	H 	0.8976	0.7984	0.165	0.077
Mof_C 	C 	0.89078	0.7381	0.1406	0.024
Mof_H 	H 	0.8803	0.75	0.1268	0.022
Mof_C 	C 	0.05874	0.7388	0.2163	0.492
Mof_C 	C 	0.03813	0.749	0.2152	-0.158
Mof_C 	C 	0.02799	0.7331	0.1793	0.08
Mof_H 	H 	0.0335	0.7167	0.1556	0.017
Mof_C 	C 	0.00991	0.7414	0.1785	-0.153
Mof_H 	H 	0.003	0.7321	0.1533	0.081
Mof_C 	C 	0.00151	0.7634	0.2146	0.111
Mof_C 	C 	0.01231	0.7784	0.2493	-0.163
Mof_H 	H 	0.0067	0.7927	0.2742	0.085
Mof_C 	C 	0.0299	0.7742	0.25	0.091
Mof_H 	H 	0.0368	0.7877	0.2732	0.009
Mof_C 	C 	0.982	0.7686	0.2146	-0.087
Mof_C 	C 	0.97173	0.7693	0.1744	0.063
Mof_H 	H 	0.9774	0.7678	0.1459	0.006
Mof_C 	C 	0.95393	0.772	0.1773	-0.198
Mof_H 	H 	0.9473	0.7711	0.1501	0.101
Mof_C 	C 	0.9453	0.7758	0.2142	0.169
Mof_C 	C 	0.82203	0.1013	0.3556	0.072
Mof_H 	H 	0.8155	0.0738	0.3549	-0.004
Mof_C 	C 	0.82769	0.2036	0.2849	0.084
Mof_C 	C 	0.85548	0.9813	0.4173	0.405
Mof_C 	C 	0.86675	0.9508	0.3874	-0.167
Mof_C 	C 	0.87946	0.9674	0.3587	0.104
Mof_H 	H 	0.8818	0.999	0.3575	0.008
Mof_C 	C 	0.88856	0.939	0.3325	-0.177
Mof_H 	H 	0.897	0.9519	0.3124	0.089
Mof_C 	C 	0.88691	0.8939	0.3317	0.118
Mof_C 	C 	0.87348	0.8766	0.3609	-0.165
Mof_H 	H 	0.871	0.8451	0.3614	0.083
Mof_C 	C 	0.86429	0.9052	0.388	0.094
Mof_H 	H 	0.8558	0.893	0.4083	0.007
Mof_C 	C 	0.89754	0.8645	0.3031	-0.078
Mof_C 	C 	0.91425	0.8761	0.2843	0.047
Mof_H 	H 	0.9195	0.9042	0.2923	0.012
Mof_C 	C 	0.92276	0.8497	0.2564	-0.162
Mof_H 	H 	0.9336	0.8602	0.2437	0.088
Mof_C 	C 	0.91673	0.8069	0.2445	0.142
Mof_C 	C 	0.9007	0.7925	0.2634	-0.148
Mof_H 	H 	0.8963	0.7631	0.2567	0.084
Mof_C 	C 	0.89095	0.8208	0.2922	0.026
Mof_H 	H 	0.8799	0.8107	0.3044	0.018
Mof_N 	N 	0.92605	0.7799	0.2139	-0.178
Mof_N 	N 	0.83294	0.10892	0.3898	-0.261
Mof_N 	N 	0.83697	0.24143	0.277	-0.094
Mof_N 	N 	0.81775	0.2335	0.2221	-0.09
Mof_N 	N 	0.81621	0.1987	0.2513	-0.087
Mof_N 	N 	0.85035	0.2609	0.3043	-0.232
Mof_H 	H 	0.8534	0.248	0.3297	0.138
Mof_H 	H 	0.8556	0.2861	0.2958	0.145
Mof_N 	N 	0.84799	0.3785	0.1718	-0.251
Mof_O 	O 	0.84452	0.59673	0.9855	-0.475
Mof_O 	O 	0.85817	0.53652	0.015	-0.469
Mof_O 	O 	0.84775	0.96304	0.4498	-0.48
Mof_O 	O 	0.85563	0.02255	0.4074	-0.492
Mof_O 	O 	0.06377	0.71729	0.1857	-0.548
Mof_O 	O 	0.0667	0.7534	0.249	-0.511
Mof_Zn	Zn	0.83733	0.05929	0.4355	1.221
Mof_Zn	Zn	0.84303	0.97853	0.5179	1.216
Mof_C 	C 	0.87087	0.9129	0.5536	0.394
Mof_C 	C 	0.88223	0.8806	0.5273	-0.135
Mof_C 	C 	0.88804	0.8933	0.485	0.057
Mof_H 	H 	0.8849	0.9219	0.4728	0.029
Mof_C 	C 	0.89878	0.863	0.4604	-0.128
Mof_H 	H 	0.9028	0.8709	0.4311	0.08
Mof_C 	C 	0.90353	0.8219	0.4785	0.085
Mof_C 	C 	0.89833	0.8099	0.5209	-0.129
Mof_H 	H 	0.9023	0.7822	0.5336	0.075
Mof_C 	C 	0.88693	0.839	0.5461	0.053
Mof_H 	H 	0.8827	0.8304	0.5749	0.028
Mof_C 	C 	0.91456	0.789	0.4516	-0.047
Mof_C 	C 	0.91129	0.7834	0.4047	0.015
Mof_H 	H 	0.9022	0.8004	0.3901	0.025
Mof_C 	C 	0.92122	0.7538	0.3815	-0.134
Mof_H 	H 	0.919	0.7494	0.3504	0.08
Mof_C 	C 	0.93462	0.7295	0.4024	0.119
Mof_C 	C 	0.93843	0.7353	0.4466	-0.135
Mof_H 	H 	0.9481	0.7192	0.4595	0.08
Mof_C 	C 	0.92868	0.7637	0.473	0.012
Mof_H 	H 	0.9311	0.7667	0.5042	0.025
Mof_C 	C 	0.86905	0.4894	0.1932	0.311
Mof_C 	C 	0.88077	0.5201	0.2211	-0.112
Mof_C 	C 	0.89728	0.5267	0.2079	0.044
Mof_H 	H 	0.9015	0.5134	0.1809	0.026
Mof_C 	C 	0.90908	0.5547	0.2355	-0.134
Mof_H 	H 	0.9212	0.558	0.2271	0.075
Mof_C 	C 	0.90321	0.5751	0.2711	0.086
Mof_C 	C 	0.88487	0.5695	0.2844	-0.125
Mof_H 	H 	0.8803	0.5836	0.3107	0.071
Mof_C 	C 	0.87423	0.5429	0.2575	0.042
Mof_H 	H 	0.8619	0.5402	0.2645	0.031
Mof_C 	C 	0.9154	0.6058	0.299	-0.057
Mof_C 	C 	0.92929	0.6266	0.2816	0.025
Mof_H 	H 	0.9327	0.619	0.2518	0.018
Mof_C 	C 	0.93929	0.6593	0.3041	-0.15
Mof_H 	H 	0.948	0.6771	0.2889	0.083
Mof_C 	C 	0.93601	0.6644	0.3487	0.133
Mof_C 	C 	0.92163	0.6403	0.3698	-0.138
Mof_H 	H 	0.9192	0.6454	0.4007	0.081
Mof_C 	C 	0.91187	0.6116	0.3475	0.023
Mof_H 	H 	0.9027	0.595	0.362	0.02
Mof_C 	C 	0.0751	0.7669	0.3555	0.358
Mof_C 	C 	0.05561	0.7535	0.3583	-0.116
Mof_C 	C 	0.04394	0.7818	0.3809	0.049
Mof_H 	H 	0.0481	0.8084	0.3953	0.026
Mof_C 	C 	0.02588	0.7703	0.3819	-0.131
Mof_H 	H 	0.0177	0.7896	0.397	0.073
Mof_C 	C 	0.01979	0.7327	0.3622	0.083
Mof_C 	C 	0.0312	0.7038	0.3398	-0.117
Mof_H 	H 	0.0266	0.6774	0.3258	0.072
Mof_C 	C 	0.05027	0.7138	0.3377	0.042
Mof_H 	H 	0.0585	0.6943	0.3231	0.032
Mof_C 	C 	0.00016	0.7216	0.3639	-0.047
Mof_C 	C 	0.98813	0.7574	0.3721	0.013
Mof_H 	H 	0.9925	0.7872	0.3764	0.022
Mof_C 	C 	0.97017	0.7493	0.374	-0.137
Mof_H 	H 	0.9621	0.7736	0.3785	0.08
Mof_C 	C 	0.96373	0.7052	0.3693	0.13
Mof_C 	C 	0.97505	0.6711	0.3617	-0.138
Mof_H 	H 	0.9705	0.6413	0.3587	0.081
Mof_C 	C 	0.99397	0.6785	0.3581	0.01
Mof_H 	H 	0.0019	0.6543	0.3518	0.026
Mof_N 	N 	0.94508	0.6961	0.3752	-0.168
Mof_O 	O 	0.08551	0.74567	0.3303	-0.456
Mof_O 	O 	0.07948	0.7994	0.3808	-0.479
Mof_O 	O 	0.86776	0.95104	0.5372	-0.453
Mof_O 	O 	0.86601	0.89917	0.591	-0.494
Mof_O 	O 	0.87407	0.47292	0.159	-0.468
Mof_O 	O 	0.85249	0.4817	0.2106	-0.302
Mof_Zn	Zn	0.85448	0.43527	0.1377	1.225
Mof_C 	C 	0.8252	0.8351	0.7062	-0.087
Mof_H 	H 	0.8132	0.8316	0.716	0.066
Mof_C 	C 	0.85807	0.8457	0.6788	0.109
Mof_H 	H 	0.87	0.8485	0.6685	-0.021
Mof_C 	C 	0.89418	0.19	0.6334	-0.067
Mof_C 	C 	0.8296	0.8772	0.6846	0.018
Mof_H 	H 	0.8214	0.9011	0.6796	0.033
Mof_C 	C 	0.95398	0.2734	0.7556	-0.17
Mof_H 	H 	0.9477	0.2735	0.7833	0.09
Mof_C 	C 	0.83692	0.7986	0.7141	0.056
Mof_C 	C 	0.83029	0.7583	0.7384	0.09
Mof_C 	C 	0.91596	0.248	0.688	0.125
Mof_C 	C 	0.97262	0.2706	0.753	0.046
Mof_H 	H 	0.9791	0.2702	0.7805	0.017
Mof_C 	C 	0.90926	0.175	0.6558	0.024
Mof_H 	H 	0.913	0.1446	0.6522	0.023
Mof_C 	C 	0.85346	0.8035	0.701	-0.138
Mof_H 	H 	0.8621	0.7805	0.7058	0.092
Mof_C 	C 	0.84194	0.6469	0.8911	0.099
Mof_H 	H 	0.85	0.6516	0.9153	-0.012
Mof_C 	C 	0.85531	0.0777	0.5131	0.391
Mof_C 	C 	0.86445	0.1077	0.5462	-0.154
Mof_C 	C 	0.87135	0.0912	0.5855	0.09
Mof_H 	H 	0.8695	0.0604	0.5929	0.011
Mof_C 	C 	0.88068	0.1177	0.6139	-0.16
Mof_H 	H 	0.8851	0.1049	0.641	0.088
Mof_C 	C 	0.88405	0.1629	0.605	0.109
Mof_C 	C 	0.87559	0.1806	0.5664	-0.144
Mof_H 	H 	0.8766	0.2119	0.56	0.086
Mof_C 	C 	0.86583	0.1532	0.5374	0.078
Mof_H 	H 	0.8602	0.1658	0.5117	0.019
Mof_C 	C 	0.82903	0.6721	0.8224	0.065
Mof_C 	C 	0.84031	0.6785	0.8605	-0.135
Mof_H 	H 	0.8467	0.706	0.8638	0.082
Mof_C 	C 	0.91915	0.2042	0.6839	-0.144
Mof_H 	H 	0.9287	0.1917	0.701	0.081
Mof_C 	C 	0.8198	0.6328	0.8198	-0.123
Mof_H 	H 	0.8122	0.6265	0.7951	0.082
Mof_C 	C 	0.90047	0.2671	0.6639	-0.132
Mof_H 	H 	0.8976	0.2984	0.665	0.078
Mof_C 	C 	0.89078	0.2381	0.6406	0.024
Mof_H 	H 	0.8803	0.25	0.6268	0.022
Mof_C 	C 	0.05874	0.2388	0.7163	0.492
Mof_C 	C 	0.03813	0.249	0.7152	-0.158
Mof_C 	C 	0.02799	0.2331	0.6793	0.081
Mof_H 	H 	0.0335	0.2167	0.6556	0.017
Mof_C 	C 	0.00991	0.2414	0.6785	-0.153
Mof_H 	H 	0.003	0.2321	0.6533	0.082
Mof_C 	C 	0.00151	0.2634	0.7146	0.112
Mof_C 	C 	0.01231	0.2784	0.7493	-0.163
Mof_H 	H 	0.0067	0.2927	0.7742	0.085
Mof_C 	C 	0.0299	0.2742	0.75	0.091
Mof_H 	H 	0.0368	0.2877	0.7732	0.009
Mof_C 	C 	0.982	0.2686	0.7146	-0.087
Mof_C 	C 	0.97173	0.2693	0.6744	0.063
Mof_H 	H 	0.9774	0.2678	0.6459	0.007
Mof_C 	C 	0.95393	0.272	0.6773	-0.198
Mof_H 	H 	0.9473	0.2711	0.6501	0.102
Mof_C 	C 	0.9453	0.2758	0.7142	0.169
Mof_C 	C 	0.82203	0.6013	0.8556	0.073
Mof_H 	H 	0.8155	0.5738	0.8549	-0.004
Mof_C 	C 	0.82769	0.7036	0.7849	0.084
Mof_C 	C 	0.85548	0.4813	0.9173	0.405
Mof_C 	C 	0.86675	0.4508	0.8874	-0.166
Mof_C 	C 	0.87946	0.4674	0.8587	0.104
Mof_H 	H 	0.8818	0.499	0.8575	0.008
Mof_C 	C 	0.88856	0.439	0.8325	-0.177
Mof_H 	H 	0.897	0.4519	0.8124	0.089
Mof_C 	C 	0.88691	0.3939	0.8317	0.118
Mof_C 	C 	0.87348	0.3766	0.8609	-0.164
Mof_H 	H 	0.871	0.3451	0.8614	0.084
Mof_C 	C 	0.86429	0.4052	0.888	0.094
Mof_H 	H 	0.8558	0.393	0.9083	0.008
Mof_C 	C 	0.89754	0.3645	0.8031	-0.078
Mof_C 	C 	0.91425	0.3761	0.7843	0.047
Mof_H 	H 	0.9195	0.4042	0.7923	0.013
Mof_C 	C 	0.92276	0.3497	0.7564	-0.162
Mof_H 	H 	0.9336	0.3602	0.7437	0.088
Mof_C 	C 	0.91673	0.3069	0.7445	0.142
Mof_C 	C 	0.9007	0.2925	0.7634	-0.148
Mof_H 	H 	0.8963	0.2631	0.7567	0.084
Mof_C 	C 	0.89095	0.3208	0.7922	0.026
Mof_H 	H 	0.8799	0.3107	0.8044	0.018
Mof_N 	N 	0.92605	0.2799	0.7139	-0.178
Mof_N 	N 	0.83294	0.60892	0.8898	-0.261
Mof_N 	N 	0.83697	0.74143	0.777	-0.094
Mof_N 	N 	0.81775	0.7335	0.7221	-0.09
Mof_N 	N 	0.81621	0.6987	0.7513	-0.087
Mof_N 	N 	0.85035	0.7609	0.8043	-0.232
Mof_H 	H 	0.8534	0.748	0.8297	0.138
Mof_H 	H 	0.8556	0.7861	0.7958	0.145
Mof_N 	N 	0.84799	0.8785	0.6718	-0.251
Mof_O 	O 	0.84452	0.09673	0.4855	-0.483
Mof_O 	O 	0.85817	0.03652	0.515	-0.469
Mof_O 	O 	0.84775	0.46304	0.9498	-0.477
Mof_O 	O 	0.85563	0.52255	0.9074	-0.492
Mof_O 	O 	0.06377	0.21729	0.6857	-0.548
Mof_O 	O 	0.0667	0.2534	0.749	-0.511
Mof_Zn	Zn	0.83733	0.55929	0.9355	1.222
Mof_Zn	Zn	0.84303	0.47853	0.0179	1.214
Mof_C 	C 	0.87087	0.4129	0.0536	0.4
Mof_C 	C 	0.88223	0.3806	0.0273	-0.157
Mof_C 	C 	0.88804	0.3933	0.985	0.083
Mof_H 	H 	0.8849	0.4219	0.9728	0.022
Mof_C 	C 	0.89878	0.363	0.9604	-0.148
Mof_H 	H 	0.9028	0.3709	0.9311	0.088
Mof_C 	C 	0.90353	0.3219	0.9785	0.111
Mof_C 	C 	0.89833	0.3099	0.0209	-0.156
Mof_H 	H 	0.9023	0.2822	0.0336	0.082
Mof_C 	C 	0.88693	0.339	0.0461	0.072
Mof_H 	H 	0.8827	0.3304	0.0749	0.022
Mof_C 	C 	0.91456	0.289	0.9516	-0.064
Mof_C 	C 	0.91129	0.2834	0.9047	0.028
Mof_H 	H 	0.9022	0.3004	0.8901	0.021
Mof_C 	C 	0.92122	0.2538	0.8815	-0.145
Mof_H 	H 	0.919	0.2494	0.8504	0.083
Mof_C 	C 	0.93462	0.2295	0.9024	0.129
Mof_C 	C 	0.93843	0.2353	0.9466	-0.152
Mof_H 	H 	0.9481	0.2192	0.9595	0.087
Mof_C 	C 	0.92868	0.2637	0.973	0.039
Mof_H 	H 	0.9311	0.2667	0.0042	0.01
Mof_C 	C 	0.86905	0.9894	0.6932	0.311
Mof_C 	C 	0.88077	0.0201	0.7211	-0.112
Mof_C 	C 	0.89728	0.0267	0.7079	0.044
Mof_H 	H 	0.9015	0.0134	0.6809	0.026
Mof_C 	C 	0.90908	0.0547	0.7355	-0.134
Mof_H 	H 	0.9212	0.058	0.7271	0.075
Mof_C 	C 	0.90321	0.0751	0.7711	0.086
Mof_C 	C 	0.88487	0.0695	0.7844	-0.125
Mof_H 	H 	0.8803	0.0836	0.8107	0.072
Mof_C 	C 	0.87423	0.0429	0.7575	0.043
Mof_H 	H 	0.8619	0.0402	0.7645	0.031
Mof_C 	C 	0.9154	0.1058	0.799	-0.057
Mof_C 	C 	0.92929	0.1266	0.7816	0.026
Mof_H 	H 	0.9327	0.119	0.7518	0.019
Mof_C 	C 	0.93929	0.1593	0.8041	-0.15
Mof_H 	H 	0.948	0.1771	0.7889	0.083
Mof_C 	C 	0.93601	0.1644	0.8487	0.134
Mof_C 	C 	0.92163	0.1403	0.8698	-0.139
Mof_H 	H 	0.9192	0.1454	0.9007	0.082
Mof_C 	C 	0.91187	0.1116	0.8475	0.023
Mof_H 	H 	0.9027	0.095	0.862	0.021
Mof_C 	C 	0.0751	0.2669	0.8555	0.358
Mof_C 	C 	0.05561	0.2535	0.8583	-0.116
Mof_C 	C 	0.04394	0.2818	0.8809	0.05
Mof_H 	H 	0.0481	0.3084	0.8953	0.027
Mof_C 	C 	0.02588	0.2703	0.8819	-0.131
Mof_H 	H 	0.0177	0.2896	0.897	0.074
Mof_C 	C 	0.01979	0.2327	0.8622	0.083
Mof_C 	C 	0.0312	0.2038	0.8398	-0.117
Mof_H 	H 	0.0266	0.1774	0.8258	0.072
Mof_C 	C 	0.05027	0.2138	0.8377	0.042
Mof_H 	H 	0.0585	0.1943	0.8231	0.032
Mof_C 	C 	0.00016	0.2216	0.8639	-0.047
Mof_C 	C 	0.98813	0.2574	0.8721	0.013
Mof_H 	H 	0.9925	0.2872	0.8764	0.022
Mof_C 	C 	0.97017	0.2493	0.874	-0.137
Mof_H 	H 	0.9621	0.2736	0.8785	0.08
Mof_C 	C 	0.96373	0.2052	0.8693	0.13
Mof_C 	C 	0.97505	0.1711	0.8617	-0.138
Mof_H 	H 	0.9705	0.1413	0.8587	0.081
Mof_C 	C 	0.99397	0.1785	0.8581	0.01
Mof_H 	H 	0.0019	0.1543	0.8518	0.026
Mof_N 	N 	0.94508	0.1961	0.8752	-0.169
Mof_O 	O 	0.08551	0.24567	0.8303	-0.456
Mof_O 	O 	0.07948	0.2994	0.8808	-0.478
Mof_O 	O 	0.86776	0.45104	0.0372	-0.458
Mof_O 	O 	0.86601	0.39917	0.091	-0.496
Mof_O 	O 	0.87407	0.97292	0.659	-0.468
Mof_O 	O 	0.85249	0.9817	0.7106	-0.302
Mof_Zn	Zn	0.85448	0.93527	0.6377	1.225
Mof_C 	C 	0.9248	0.0851	0.4562	-0.087
Mof_H 	H 	0.9368	0.0816	0.466	0.066
Mof_C 	C 	0.89193	0.0957	0.4288	0.109
Mof_H 	H 	0.88	0.0985	0.4185	-0.021
Mof_C 	C 	0.85582	0.44	0.3834	-0.067
Mof_C 	C 	0.9204	0.1272	0.4346	0.018
Mof_H 	H 	0.9286	0.1511	0.4296	0.033
Mof_C 	C 	0.79602	0.5234	0.5056	-0.17
Mof_H 	H 	0.8023	0.5235	0.5333	0.09
Mof_C 	C 	0.91308	0.0486	0.4641	0.056
Mof_C 	C 	0.91971	0.0083	0.4884	0.089
Mof_C 	C 	0.83404	0.498	0.438	0.125
Mof_C 	C 	0.77738	0.5206	0.503	0.046
Mof_H 	H 	0.7709	0.5202	0.5305	0.017
Mof_C 	C 	0.84074	0.425	0.4058	0.024
Mof_H 	H 	0.837	0.3946	0.4022	0.023
Mof_C 	C 	0.89654	0.0535	0.451	-0.138
Mof_H 	H 	0.8879	0.0305	0.4558	0.092
Mof_C 	C 	0.90806	0.8969	0.6411	0.099
Mof_H 	H 	0.9	0.9016	0.6653	-0.013
Mof_C 	C 	0.89469	0.3277	0.2631	0.391
Mof_C 	C 	0.88555	0.3577	0.2962	-0.154
Mof_C 	C 	0.87865	0.3412	0.3355	0.09
Mof_H 	H 	0.8805	0.3104	0.3429	0.011
Mof_C 	C 	0.86932	0.3677	0.3639	-0.16
Mof_H 	H 	0.8649	0.3549	0.391	0.088
Mof_C 	C 	0.86595	0.4129	0.355	0.109
Mof_C 	C 	0.87441	0.4306	0.3164	-0.144
Mof_H 	H 	0.8734	0.4619	0.31	0.086
Mof_C 	C 	0.88417	0.4032	0.2874	0.078
Mof_H 	H 	0.8898	0.4158	0.2617	0.019
Mof_C 	C 	0.92097	0.9221	0.5724	0.065
Mof_C 	C 	0.90969	0.9285	0.6105	-0.136
Mof_H 	H 	0.9033	0.956	0.6138	0.082
Mof_C 	C 	0.83085	0.4542	0.4339	-0.144
Mof_H 	H 	0.8213	0.4417	0.451	0.081
Mof_C 	C 	0.9302	0.8828	0.5698	-0.123
Mof_H 	H 	0.9378	0.8765	0.5451	0.082
Mof_C 	C 	0.84953	0.5171	0.4139	-0.132
Mof_H 	H 	0.8524	0.5484	0.415	0.078
Mof_C 	C 	0.85922	0.4881	0.3906	0.024
Mof_H 	H 	0.8697	0.5	0.3768	0.022
Mof_C 	C 	0.69126	0.4888	0.4663	0.492
Mof_C 	C 	0.71187	0.499	0.4652	-0.158
Mof_C 	C 	0.72201	0.4831	0.4293	0.081
Mof_H 	H 	0.7165	0.4667	0.4056	0.017
Mof_C 	C 	0.74009	0.4914	0.4285	-0.153
Mof_H 	H 	0.747	0.4821	0.4033	0.082
Mof_C 	C 	0.74849	0.5134	0.4646	0.112
Mof_C 	C 	0.73769	0.5284	0.4993	-0.163
Mof_H 	H 	0.7433	0.5427	0.5242	0.085
Mof_C 	C 	0.7201	0.5242	0.5	0.091
Mof_H 	H 	0.7132	0.5377	0.5232	0.009
Mof_C 	C 	0.768	0.5186	0.4646	-0.087
Mof_C 	C 	0.77827	0.5193	0.4244	0.063
Mof_H 	H 	0.7726	0.5178	0.3959	0.007
Mof_C 	C 	0.79607	0.522	0.4273	-0.198
Mof_H 	H 	0.8027	0.5211	0.4001	0.102
Mof_C 	C 	0.8047	0.5258	0.4642	0.169
Mof_C 	C 	0.92797	0.8513	0.6056	0.072
Mof_H 	H 	0.9345	0.8238	0.6049	-0.004
Mof_C 	C 	0.92231	0.9536	0.5349	0.084
Mof_C 	C 	0.89452	0.7313	0.6673	0.405
Mof_C 	C 	0.88325	0.7008	0.6374	-0.167
Mof_C 	C 	0.87054	0.7174	0.6087	0.104
Mof_H 	H 	0.8682	0.749	0.6075	0.008
Mof_C 	C 	0.86144	0.689	0.5825	-0.177
Mof_H 	H 	0.853	0.7019	0.5624	0.089
Mof_C 	C 	0.86309	0.6439	0.5817	0.118
Mof_C 	C 	0.87652	0.6266	0.6109	-0.165
Mof_H 	H 	0.879	0.5951	0.6114	0.083
Mof_C 	C 	0.88571	0.6552	0.638	0.094
Mof_H 	H 	0.8942	0.643	0.6583	0.007
Mof_C 	C 	0.85246	0.6145	0.5531	-0.078
Mof_C 	C 	0.83575	0.6261	0.5343	0.047
Mof_H 	H 	0.8305	0.6542	0.5423	0.012
Mof_C 	C 	0.82724	0.5997	0.5064	-0.162
Mof_H 	H 	0.8164	0.6102	0.4937	0.088
Mof_C 	C 	0.83327	0.5569	0.4945	0.142
Mof_C 	C 	0.8493	0.5425	0.5134	-0.148
Mof_H 	H 	0.8537	0.5131	0.5067	0.084
Mof_C 	C 	0.85905	0.5708	0.5422	0.027
Mof_H 	H 	0.8701	0.5607	0.5544	0.018
Mof_N 	N 	0.82395	0.5299	0.4639	-0.178
Mof_N 	N 	0.91706	0.85892	0.6398	-0.261
Mof_N 	N 	0.91303	0.99143	0.527	-0.094
Mof_N 	N 	0.93225	0.9835	0.4721	-0.09
Mof_N 	N 	0.93379	0.9487	0.5013	-0.087
Mof_N 	N 	0.89965	0.0109	0.5543	-0.232
Mof_H 	H 	0.8966	0.998	0.5797	0.138
Mof_H 	H 	0.8944	0.0361	0.5458	0.145
Mof_N 	N 	0.90201	0.1285	0.4218	-0.251
Mof_O 	O 	0.90548	0.34673	0.2355	-0.483
Mof_O 	O 	0.89183	0.28652	0.265	-0.469
Mof_O 	O 	0.90225	0.71304	0.6998	-0.48
Mof_O 	O 	0.89437	0.77255	0.6574	-0.492
Mof_O 	O 	0.68623	0.46729	0.4357	-0.548
Mof_O 	O 	0.6833	0.5034	0.499	-0.511
Mof_Zn	Zn	0.91267	0.80929	0.6855	1.221
Mof_Zn	Zn	0.90697	0.72853	0.7679	1.216
Mof_C 	C 	0.87913	0.6629	0.8036	0.394
Mof_C 	C 	0.86777	0.6306	0.7773	-0.135
Mof_C 	C 	0.86196	0.6433	0.735	0.057
Mof_H 	H 	0.8651	0.6719	0.7228	0.029
Mof_C 	C 	0.85122	0.613	0.7104	-0.128
Mof_H 	H 	0.8472	0.6209	0.6811	0.08
Mof_C 	C 	0.84647	0.5719	0.7285	0.085
Mof_C 	C 	0.85167	0.5599	0.7709	-0.129
Mof_H 	H 	0.8477	0.5322	0.7836	0.075
Mof_C 	C 	0.86307	0.589	0.7961	0.053
Mof_H 	H 	0.8673	0.5804	0.8249	0.028
Mof_C 	C 	0.83544	0.539	0.7016	-0.047
Mof_C 	C 	0.83871	0.5334	0.6547	0.015
Mof_H 	H 	0.8478	0.5504	0.6401	0.025
Mof_C 	C 	0.82878	0.5038	0.6315	-0.134
Mof_H 	H 	0.831	0.4994	0.6004	0.08
Mof_C 	C 	0.81538	0.4795	0.6524	0.119
Mof_C 	C 	0.81157	0.4853	0.6966	-0.135
Mof_H 	H 	0.8019	0.4692	0.7095	0.08
Mof_C 	C 	0.82132	0.5137	0.723	0.012
Mof_H 	H 	0.8189	0.5167	0.7542	0.025
Mof_C 	C 	0.88095	0.2394	0.4432	0.311
Mof_C 	C 	0.86923	0.2701	0.4711	-0.112
Mof_C 	C 	0.85272	0.2767	0.4579	0.044
Mof_H 	H 	0.8485	0.2634	0.4309	0.026
Mof_C 	C 	0.84092	0.3047	0.4855	-0.134
Mof_H 	H 	0.8288	0.308	0.4771	0.075
Mof_C 	C 	0.84679	0.3251	0.5211	0.086
Mof_C 	C 	0.86513	0.3195	0.5344	-0.125
Mof_H 	H 	0.8697	0.3336	0.5607	0.071
Mof_C 	C 	0.87577	0.2929	0.5075	0.042
Mof_H 	H 	0.8881	0.2902	0.5145	0.031
Mof_C 	C 	0.8346	0.3558	0.549	-0.057
Mof_C 	C 	0.82071	0.3766	0.5316	0.025
Mof_H 	H 	0.8173	0.369	0.5018	0.019
Mof_C 	C 	0.81071	0.4093	0.5541	-0.15
Mof_H 	H 	0.802	0.4271	0.5389	0.083
Mof_C 	C 	0.81399	0.4144	0.5987	0.133
Mof_C 	C 	0.82837	0.3903	0.6198	-0.138
Mof_H 	H 	0.8308	0.3954	0.6507	0.081
Mof_C 	C 	0.83813	0.3616	0.5975	0.023
Mof_H 	H 	0.8473	0.345	0.612	0.02
Mof_C 	C 	0.6749	0.5169	0.6055	0.358
Mof_C 	C 	0.69439	0.5035	0.6083	-0.116
Mof_C 	C 	0.70606	0.5318	0.6309	0.05
Mof_H 	H 	0.7019	0.5584	0.6453	0.026
Mof_C 	C 	0.72412	0.5203	0.6319	-0.131
Mof_H 	H 	0.7323	0.5396	0.647	0.073
Mof_C 	C 	0.73021	0.4827	0.6122	0.083
Mof_C 	C 	0.7188	0.4538	0.5898	-0.117
Mof_H 	H 	0.7234	0.4274	0.5758	0.072
Mof_C 	C 	0.69973	0.4638	0.5877	0.042
Mof_H 	H 	0.6915	0.4443	0.5731	0.032
Mof_C 	C 	0.74984	0.4716	0.6139	-0.047
Mof_C 	C 	0.76187	0.5074	0.6221	0.013
Mof_H 	H 	0.7575	0.5372	0.6264	0.022
Mof_C 	C 	0.77983	0.4993	0.624	-0.136
Mof_H 	H 	0.7879	0.5236	0.6285	0.08
Mof_C 	C 	0.78627	0.4552	0.6193	0.13
Mof_C 	C 	0.77495	0.4211	0.6117	-0.138
Mof_H 	H 	0.7795	0.3913	0.6087	0.081
Mof_C 	C 	0.75603	0.4285	0.6081	0.01
Mof_H 	H 	0.7481	0.4043	0.6018	0.026
Mof_N 	N 	0.80492	0.4461	0.6252	-0.168
Mof_O 	O 	0.66449	0.49567	0.5803	-0.456
Mof_O 	O 	0.67052	0.5494	0.6308	-0.479
Mof_O 	O 	0.88224	0.70104	0.7872	-0.453
Mof_O 	O 	0.88399	0.64917	0.841	-0.494
Mof_O 	O 	0.87593	0.22292	0.409	-0.468
Mof_O 	O 	0.89751	0.2317	0.4606	-0.302
Mof_Zn	Zn	0.89552	0.18527	0.3877	1.225
Mof_C 	C 	0.9248	0.5851	0.9562	-0.085
Mof_H 	H 	0.9368	0.5816	0.966	0.067
Mof_C 	C 	0.89193	0.5957	0.9288	0.109
Mof_H 	H 	0.88	0.5985	0.9185	-0.021
Mof_C 	C 	0.85582	0.94	0.8834	-0.068
Mof_C 	C 	0.9204	0.6272	0.9346	0.019
Mof_H 	H 	0.9286	0.6511	0.9296	0.034
Mof_C 	C 	0.79602	0.0234	0.0056	-0.169
Mof_H 	H 	0.8023	0.0235	0.0333	0.088
Mof_C 	C 	0.91308	0.5486	0.9641	0.055
Mof_C 	C 	0.91971	0.5083	0.9884	0.097
Mof_C 	C 	0.83404	0.998	0.938	0.129
Mof_C 	C 	0.77738	0.0206	0.003	0.023
Mof_H 	H 	0.7709	0.0202	0.0305	0.024
Mof_C 	C 	0.84074	0.925	0.9058	0.026
Mof_H 	H 	0.837	0.8946	0.9022	0.023
Mof_C 	C 	0.89654	0.5535	0.951	-0.136
Mof_H 	H 	0.8879	0.5305	0.9558	0.093
Mof_C 	C 	0.90806	0.3969	0.1411	0.099
Mof_H 	H 	0.9	0.4016	0.1653	-0.012
Mof_C 	C 	0.89469	0.8277	0.7631	0.392
Mof_C 	C 	0.88555	0.8577	0.7962	-0.154
Mof_C 	C 	0.87865	0.8412	0.8355	0.091
Mof_H 	H 	0.8805	0.8104	0.8429	0.011
Mof_C 	C 	0.86932	0.8677	0.8639	-0.161
Mof_H 	H 	0.8649	0.8549	0.891	0.089
Mof_C 	C 	0.86595	0.9129	0.855	0.11
Mof_C 	C 	0.87441	0.9306	0.8164	-0.145
Mof_H 	H 	0.8734	0.9619	0.81	0.087
Mof_C 	C 	0.88417	0.9032	0.7874	0.078
Mof_H 	H 	0.8898	0.9158	0.7617	0.019
Mof_C 	C 	0.92097	0.4221	0.0724	0.064
Mof_C 	C 	0.90969	0.4285	0.1105	-0.136
Mof_H 	H 	0.9033	0.456	0.1138	0.082
Mof_C 	C 	0.83085	0.9542	0.9339	-0.146
Mof_H 	H 	0.8213	0.9417	0.951	0.083
Mof_C 	C 	0.9302	0.3828	0.0698	-0.123
Mof_H 	H 	0.9378	0.3765	0.0451	0.081
Mof_C 	C 	0.84953	0.0171	0.9139	-0.134
Mof_H 	H 	0.8524	0.0484	0.915	0.079
Mof_C 	C 	0.85922	0.9881	0.8906	0.027
Mof_H 	H 	0.8697	0	0.8768	0.022
Mof_C 	C 	0.69126	0.9888	0.9663	0.482
Mof_C 	C 	0.71187	0.999	0.9652	-0.125
Mof_C 	C 	0.72201	0.9831	0.9293	0.053
Mof_H 	H 	0.7165	0.9667	0.9056	0.027
Mof_C 	C 	0.74009	0.9914	0.9285	-0.123
Mof_H 	H 	0.747	0.9821	0.9033	0.072
Mof_C 	C 	0.74849	0.0134	0.9646	0.076
Mof_C 	C 	0.73769	0.0284	0.9993	-0.1
Mof_H 	H 	0.7433	0.0427	0.0242	0.06
Mof_C 	C 	0.7201	0.0242	-0	0.032
Mof_H 	H 	0.7132	0.0377	0.0232	0.026
Mof_C 	C 	0.768	0.0186	0.9646	-0.058
Mof_C 	C 	0.77827	0.0193	0.9244	0.049
Mof_H 	H 	0.7726	0.0178	0.8959	0.013
Mof_C 	C 	0.79607	0.022	0.9273	-0.19
Mof_H 	H 	0.8027	0.0211	0.9001	0.099
Mof_C 	C 	0.8047	0.0258	0.9642	0.171
Mof_C 	C 	0.92797	0.3513	0.1056	0.072
Mof_H 	H 	0.9345	0.3238	0.1049	-0.004
Mof_C 	C 	0.92231	0.4536	0.0349	0.082
Mof_C 	C 	0.89452	0.2313	0.1673	0.407
Mof_C 	C 	0.88325	0.2008	0.1374	-0.172
Mof_C 	C 	0.87054	0.2174	0.1087	0.111
Mof_H 	H 	0.8682	0.249	0.1075	0.005
Mof_C 	C 	0.86144	0.189	0.0825	-0.188
Mof_H 	H 	0.853	0.2019	0.0624	0.092
Mof_C 	C 	0.86309	0.1439	0.0817	0.131
Mof_C 	C 	0.87652	0.1266	0.1109	-0.174
Mof_H 	H 	0.879	0.0951	0.1114	0.086
Mof_C 	C 	0.88571	0.1552	0.138	0.101
Mof_H 	H 	0.8942	0.143	0.1583	0.004
Mof_C 	C 	0.85246	0.1145	0.0531	-0.102
Mof_C 	C 	0.83575	0.1261	0.0343	0.083
Mof_H 	H 	0.8305	0.1542	0.0423	-0.001
Mof_C 	C 	0.82724	0.0997	0.0064	-0.216
Mof_H 	H 	0.8164	0.1102	0.9937	0.111
Mof_C 	C 	0.83327	0.0569	0.9945	0.18
Mof_C 	C 	0.8493	0.0425	0.0134	-0.18
Mof_H 	H 	0.8537	0.0131	0.0067	0.091
Mof_C 	C 	0.85905	0.0708	0.0422	0.049
Mof_H 	H 	0.8701	0.0607	0.0544	0.009
Mof_N 	N 	0.82395	0.0299	0.9639	-0.184
Mof_N 	N 	0.91706	0.35892	0.1398	-0.261
Mof_N 	N 	0.91303	0.49143	0.027	-0.098
Mof_N 	N 	0.93225	0.4835	0.9721	-0.088
Mof_N 	N 	0.93379	0.4487	0.0013	-0.091
Mof_N 	N 	0.89965	0.5109	0.0543	-0.232
Mof_H 	H 	0.8966	0.498	0.0797	0.137
Mof_H 	H 	0.8944	0.5361	0.0458	0.143
Mof_N 	N 	0.90201	0.6285	0.9218	-0.251
Mof_O 	O 	0.90548	0.84673	0.7355	-0.483
Mof_O 	O 	0.89183	0.78652	0.765	-0.469
Mof_O 	O 	0.90225	0.21304	0.1998	-0.48
Mof_O 	O 	0.89437	0.27255	0.1574	-0.493
Mof_O 	O 	0.68623	0.96729	0.9357	-0.544
Mof_O 	O 	0.6833	0.0034	0.999	-0.503
Mof_Zn	Zn	0.91267	0.30929	0.1855	1.221
Mof_Zn	Zn	0.90697	0.22853	0.2679	1.216
Mof_C 	C 	0.87913	0.1629	0.3036	0.394
Mof_C 	C 	0.86777	0.1306	0.2773	-0.135
Mof_C 	C 	0.86196	0.1433	0.235	0.057
Mof_H 	H 	0.8651	0.1719	0.2228	0.029
Mof_C 	C 	0.85122	0.113	0.2104	-0.128
Mof_H 	H 	0.8472	0.1209	0.1811	0.08
Mof_C 	C 	0.84647	0.0719	0.2285	0.085
Mof_C 	C 	0.85167	0.0599	0.2709	-0.129
Mof_H 	H 	0.8477	0.0322	0.2836	0.075
Mof_C 	C 	0.86307	0.089	0.2961	0.053
Mof_H 	H 	0.8673	0.0804	0.3249	0.028
Mof_C 	C 	0.83544	0.039	0.2016	-0.047
Mof_C 	C 	0.83871	0.0334	0.1547	0.015
Mof_H 	H 	0.8478	0.0504	0.1401	0.025
Mof_C 	C 	0.82878	0.0038	0.1315	-0.134
Mof_H 	H 	0.831	0.9994	0.1004	0.079
Mof_C 	C 	0.81538	0.9795	0.1524	0.119
Mof_C 	C 	0.81157	0.9853	0.1966	-0.135
Mof_H 	H 	0.8019	0.9692	0.2095	0.08
Mof_C 	C 	0.82132	0.0137	0.223	0.011
Mof_H 	H 	0.8189	0.0167	0.2542	0.025
Mof_C 	C 	0.88095	0.7394	0.9432	0.303
Mof_C 	C 	0.86923	0.7701	0.9711	-0.086
Mof_C 	C 	0.85272	0.7767	0.9579	0.022
Mof_H 	H 	0.8485	0.7634	0.9309	0.034
Mof_C 	C 	0.84092	0.8047	0.9855	-0.103
Mof_H 	H 	0.8288	0.808	0.9771	0.067
Mof_C 	C 	0.84679	0.8251	0.0211	0.06
Mof_C 	C 	0.86513	0.8195	0.0344	-0.104
Mof_H 	H 	0.8697	0.8336	0.0607	0.063
Mof_C 	C 	0.87577	0.7929	0.0075	0.013
Mof_H 	H 	0.8881	0.7902	0.0145	0.038
Mof_C 	C 	0.8346	0.8558	0.049	-0.046
Mof_C 	C 	0.82071	0.8766	0.0316	0.016
Mof_H 	H 	0.8173	0.869	0.0018	0.019
Mof_C 	C 	0.81071	0.9093	0.0541	-0.145
Mof_H 	H 	0.802	0.9271	0.0389	0.081
Mof_C 	C 	0.81399	0.9144	0.0987	0.13
Mof_C 	C 	0.82837	0.8903	0.1198	-0.133
Mof_H 	H 	0.8308	0.8954	0.1507	0.08
Mof_C 	C 	0.83813	0.8616	0.0975	0.016
Mof_H 	H 	0.8473	0.845	0.112	0.023
Mof_C 	C 	0.6749	0.0169	0.1055	0.358
Mof_C 	C 	0.69439	0.0035	0.1083	-0.117
Mof_C 	C 	0.70606	0.0318	0.1309	0.049
Mof_H 	H 	0.7019	0.0584	0.1453	0.026
Mof_C 	C 	0.72412	0.0203	0.1319	-0.131
Mof_H 	H 	0.7323	0.0396	0.147	0.073
Mof_C 	C 	0.73021	0.9827	0.1122	0.083
Mof_C 	C 	0.7188	0.9538	0.0898	-0.118
Mof_H 	H 	0.7234	0.9274	0.0758	0.071
Mof_C 	C 	0.69973	0.9638	0.0877	0.041
Mof_H 	H 	0.6915	0.9443	0.0731	0.031
Mof_C 	C 	0.74984	0.9716	0.1139	-0.047
Mof_C 	C 	0.76187	0.0074	0.1221	0.012
Mof_H 	H 	0.7575	0.0372	0.1264	0.022
Mof_C 	C 	0.77983	0.9993	0.124	-0.136
Mof_H 	H 	0.7879	0.0236	0.1285	0.079
Mof_C 	C 	0.78627	0.9552	0.1193	0.129
Mof_C 	C 	0.77495	0.9211	0.1117	-0.138
Mof_H 	H 	0.7795	0.8913	0.1087	0.08
Mof_C 	C 	0.75603	0.9285	0.1081	0.009
Mof_H 	H 	0.7481	0.9043	0.1018	0.025
Mof_N 	N 	0.80492	0.9461	0.1252	-0.167
Mof_O 	O 	0.66449	0.99567	0.0803	-0.457
Mof_O 	O 	0.67052	0.0494	0.1308	-0.479
Mof_O 	O 	0.88224	0.20104	0.2872	-0.453
Mof_O 	O 	0.88399	0.14917	0.341	-0.494
Mof_O 	O 	0.87593	0.72292	0.909	-0.465
Mof_O 	O 	0.89751	0.7317	0.9606	-0.298
Mof_Zn	Zn	0.89552	0.68527	0.8877	1.225
Mof_C 	C 	0.4248	0.0851	0.9562	-0.086
Mof_H 	H 	0.4368	0.0816	0.966	0.067
Mof_C 	C 	0.39193	0.0957	0.9288	0.109
Mof_H 	H 	0.38	0.0985	0.9185	-0.021
Mof_C 	C 	0.35582	0.44	0.8834	-0.068
Mof_C 	C 	0.4204	0.1272	0.9346	0.019
Mof_H 	H 	0.4286	0.1511	0.9296	0.034
Mof_C 	C 	0.29602	0.5234	0.0056	-0.169
Mof_H 	H 	0.3023	0.5235	0.0333	0.088
Mof_C 	C 	0.41308	0.0486	0.9641	0.055
Mof_C 	C 	0.41971	0.0083	0.9884	0.096
Mof_C 	C 	0.33404	0.498	0.938	0.128
Mof_C 	C 	0.27738	0.5206	0.003	0.023
Mof_H 	H 	0.2709	0.5202	0.0305	0.024
Mof_C 	C 	0.34074	0.425	0.9058	0.026
Mof_H 	H 	0.337	0.3946	0.9022	0.023
Mof_C 	C 	0.39654	0.0535	0.951	-0.136
Mof_H 	H 	0.3879	0.0305	0.9558	0.093
Mof_C 	C 	0.40806	0.8969	0.1411	0.099
Mof_H 	H 	0.4	0.9016	0.1653	-0.012
Mof_C 	C 	0.39469	0.3277	0.7631	0.392
Mof_C 	C 	0.38555	0.3577	0.7962	-0.154
Mof_C 	C 	0.37865	0.3412	0.8355	0.091
Mof_H 	H 	0.3805	0.3104	0.8429	0.011
Mof_C 	C 	0.36932	0.3677	0.8639	-0.16
Mof_H 	H 	0.3649	0.3549	0.891	0.089
Mof_C 	C 	0.36595	0.4129	0.855	0.11
Mof_C 	C 	0.37441	0.4306	0.8164	-0.145
Mof_H 	H 	0.3734	0.4619	0.81	0.087
Mof_C 	C 	0.38417	0.4032	0.7874	0.078
Mof_H 	H 	0.3898	0.4158	0.7617	0.019
Mof_C 	C 	0.42097	0.9221	0.0724	0.064
Mof_C 	C 	0.40969	0.9285	0.1105	-0.136
Mof_H 	H 	0.4033	0.956	0.1138	0.082
Mof_C 	C 	0.33085	0.4542	0.9339	-0.146
Mof_H 	H 	0.3213	0.4417	0.951	0.083
Mof_C 	C 	0.4302	0.8828	0.0698	-0.123
Mof_H 	H 	0.4378	0.8765	0.0451	0.081
Mof_C 	C 	0.34953	0.5171	0.9139	-0.133
Mof_H 	H 	0.3524	0.5484	0.915	0.079
Mof_C 	C 	0.35922	0.4881	0.8906	0.026
Mof_H 	H 	0.3697	0.5	0.8768	0.022
Mof_C 	C 	0.19126	0.4888	0.9663	0.481
Mof_C 	C 	0.21187	0.499	0.9652	-0.124
Mof_C 	C 	0.22201	0.4831	0.9293	0.052
Mof_H 	H 	0.2165	0.4667	0.9056	0.027
Mof_C 	C 	0.24009	0.4914	0.9285	-0.122
Mof_H 	H 	0.247	0.4821	0.9033	0.072
Mof_C 	C 	0.24849	0.5134	0.9646	0.076
Mof_C 	C 	0.23769	0.5284	0.9993	-0.099
Mof_H 	H 	0.2433	0.5427	0.0242	0.06
Mof_C 	C 	0.2201	0.5242	-0	0.031
Mof_H 	H 	0.2132	0.5377	0.0232	0.026
Mof_C 	C 	0.268	0.5186	0.9646	-0.058
Mof_C 	C 	0.27827	0.5193	0.9244	0.049
Mof_H 	H 	0.2726	0.5178	0.8959	0.013
Mof_C 	C 	0.29607	0.522	0.9273	-0.19
Mof_H 	H 	0.3027	0.5211	0.9001	0.099
Mof_C 	C 	0.3047	0.5258	0.9642	0.171
Mof_C 	C 	0.42797	0.8513	0.1056	0.072
Mof_H 	H 	0.4345	0.8238	0.1049	-0.004
Mof_C 	C 	0.42231	0.9536	0.0349	0.082
Mof_C 	C 	0.39452	0.7313	0.1673	0.407
Mof_C 	C 	0.38325	0.7008	0.1374	-0.172
Mof_C 	C 	0.37054	0.7174	0.1087	0.112
Mof_H 	H 	0.3682	0.749	0.1075	0.005
Mof_C 	C 	0.36144	0.689	0.0825	-0.188
Mof_H 	H 	0.353	0.7019	0.0624	0.092
Mof_C 	C 	0.36309	0.6439	0.0817	0.131
Mof_C 	C 	0.37652	0.6266	0.1109	-0.174
Mof_H 	H 	0.379	0.5951	0.1114	0.086
Mof_C 	C 	0.38571	0.6552	0.138	0.101
Mof_H 	H 	0.3942	0.643	0.1583	0.004
Mof_C 	C 	0.35246	0.6145	0.0531	-0.102
Mof_C 	C 	0.33575	0.6261	0.0343	0.084
Mof_H 	H 	0.3305	0.6542	0.0423	-0.001
Mof_C 	C 	0.32724	0.5997	0.0064	-0.216
Mof_H 	H 	0.3164	0.6102	0.9937	0.111
Mof_C 	C 	0.33327	0.5569	0.9945	0.18
Mof_C 	C 	0.3493	0.5425	0.0134	-0.181
Mof_H 	H 	0.3537	0.5131	0.0067	0.092
Mof_C 	C 	0.35905	0.5708	0.0422	0.049
Mof_H 	H 	0.3701	0.5607	0.0544	0.009
Mof_N 	N 	0.32395	0.5299	0.9639	-0.184
Mof_N 	N 	0.41706	0.85892	0.1398	-0.261
Mof_N 	N 	0.41303	0.99143	0.027	-0.098
Mof_N 	N 	0.43225	0.9835	0.9721	-0.088
Mof_N 	N 	0.43379	0.9487	0.0013	-0.091
Mof_N 	N 	0.39965	0.0109	0.0543	-0.232
Mof_H 	H 	0.3966	0.998	0.0797	0.138
Mof_H 	H 	0.3944	0.0361	0.0458	0.143
Mof_N 	N 	0.40201	0.1285	0.9218	-0.251
Mof_O 	O 	0.40548	0.34673	0.7355	-0.483
Mof_O 	O 	0.39183	0.28652	0.765	-0.469
Mof_O 	O 	0.40225	0.71304	0.1998	-0.48
Mof_O 	O 	0.39437	0.77255	0.1574	-0.493
Mof_O 	O 	0.18623	0.46729	0.9357	-0.544
Mof_O 	O 	0.1833	0.5034	0.999	-0.503
Mof_Zn	Zn	0.41267	0.80929	0.1855	1.221
Mof_Zn	Zn	0.40697	0.72853	0.2679	1.216
Mof_C 	C 	0.37913	0.6629	0.3036	0.394
Mof_C 	C 	0.36777	0.6306	0.2773	-0.135
Mof_C 	C 	0.36196	0.6433	0.235	0.057
Mof_H 	H 	0.3651	0.6719	0.2228	0.029
Mof_C 	C 	0.35122	0.613	0.2104	-0.128
Mof_H 	H 	0.3472	0.6209	0.1811	0.08
Mof_C 	C 	0.34647	0.5719	0.2285	0.085
Mof_C 	C 	0.35167	0.5599	0.2709	-0.129
Mof_H 	H 	0.3477	0.5322	0.2836	0.075
Mof_C 	C 	0.36307	0.589	0.2961	0.053
Mof_H 	H 	0.3673	0.5804	0.3249	0.028
Mof_C 	C 	0.33544	0.539	0.2016	-0.047
Mof_C 	C 	0.33871	0.5334	0.1547	0.014
Mof_H 	H 	0.3478	0.5504	0.1401	0.025
Mof_C 	C 	0.32878	0.5038	0.1315	-0.134
Mof_H 	H 	0.331	0.4994	0.1004	0.079
Mof_C 	C 	0.31538	0.4795	0.1524	0.119
Mof_C 	C 	0.31157	0.4853	0.1966	-0.135
Mof_H 	H 	0.3019	0.4692	0.2095	0.08
Mof_C 	C 	0.32132	0.5137	0.223	0.012
Mof_H 	H 	0.3189	0.5167	0.2542	0.025
Mof_C 	C 	0.38095	0.2394	0.9432	0.303
Mof_C 	C 	0.36923	0.2701	0.9711	-0.086
Mof_C 	C 	0.35272	0.2767	0.9579	0.021
Mof_H 	H 	0.3485	0.2634	0.9309	0.034
Mof_C 	C 	0.34092	0.3047	0.9855	-0.103
Mof_H 	H 	0.3288	0.308	0.9771	0.067
Mof_C 	C 	0.34679	0.3251	0.0211	0.06
Mof_C 	C 	0.36513	0.3195	0.0344	-0.104
Mof_H 	H 	0.3697	0.3336	0.0607	0.063
Mof_C 	C 	0.37577	0.2929	0.0075	0.013
Mof_H 	H 	0.3881	0.2902	0.0145	0.038
Mof_C 	C 	0.3346	0.3558	0.049	-0.046
Mof_C 	C 	0.32071	0.3766	0.0316	0.016
Mof_H 	H 	0.3173	0.369	0.0018	0.019
Mof_C 	C 	0.31071	0.4093	0.0541	-0.145
Mof_H 	H 	0.302	0.4271	0.0389	0.081
Mof_C 	C 	0.31399	0.4144	0.0987	0.13
Mof_C 	C 	0.32837	0.3903	0.1198	-0.133
Mof_H 	H 	0.3308	0.3954	0.1507	0.08
Mof_C 	C 	0.33813	0.3616	0.0975	0.015
Mof_H 	H 	0.3473	0.345	0.112	0.023
Mof_C 	C 	0.1749	0.5169	0.1055	0.358
Mof_C 	C 	0.19439	0.5035	0.1083	-0.117
Mof_C 	C 	0.20606	0.5318	0.1309	0.049
Mof_H 	H 	0.2019	0.5584	0.1453	0.026
Mof_C 	C 	0.22412	0.5203	0.1319	-0.131
Mof_H 	H 	0.2323	0.5396	0.147	0.073
Mof_C 	C 	0.23021	0.4827	0.1122	0.083
Mof_C 	C 	0.2188	0.4538	0.0898	-0.118
Mof_H 	H 	0.2234	0.4274	0.0758	0.071
Mof_C 	C 	0.19973	0.4638	0.0877	0.041
Mof_H 	H 	0.1915	0.4443	0.0731	0.031
Mof_C 	C 	0.24984	0.4716	0.1139	-0.048
Mof_C 	C 	0.26187	0.5074	0.1221	0.013
Mof_H 	H 	0.2575	0.5372	0.1264	0.022
Mof_C 	C 	0.27983	0.4993	0.124	-0.137
Mof_H 	H 	0.2879	0.5236	0.1285	0.08
Mof_C 	C 	0.28627	0.4552	0.1193	0.129
Mof_C 	C 	0.27495	0.4211	0.1117	-0.138
Mof_H 	H 	0.2795	0.3913	0.1087	0.081
Mof_C 	C 	0.25603	0.4285	0.1081	0.01
Mof_H 	H 	0.2481	0.4043	0.1018	0.025
Mof_N 	N 	0.30492	0.4461	0.1252	-0.167
Mof_O 	O 	0.16449	0.49567	0.0803	-0.457
Mof_O 	O 	0.17052	0.5494	0.1308	-0.479
Mof_O 	O 	0.38224	0.70104	0.2872	-0.453
Mof_O 	O 	0.38399	0.64917	0.341	-0.494
Mof_O 	O 	0.37593	0.22292	0.909	-0.465
Mof_O 	O 	0.39751	0.2317	0.9606	-0.298
Mof_Zn	Zn	0.39552	0.18527	0.8877	1.225
Mof_C 	C 	0.4248	0.5851	0.4562	-0.087
Mof_H 	H 	0.4368	0.5816	0.466	0.066
Mof_C 	C 	0.39193	0.5957	0.4288	0.109
Mof_H 	H 	0.38	0.5985	0.4185	-0.021
Mof_C 	C 	0.35582	0.94	0.3834	-0.068
Mof_C 	C 	0.4204	0.6272	0.4346	0.018
Mof_H 	H 	0.4286	0.6511	0.4296	0.033
Mof_C 	C 	0.29602	0.0234	0.5056	-0.17
Mof_H 	H 	0.3023	0.0235	0.5333	0.09
Mof_C 	C 	0.41308	0.5486	0.4641	0.056
Mof_C 	C 	0.41971	0.5083	0.4884	0.09
Mof_C 	C 	0.33404	0.998	0.438	0.126
Mof_C 	C 	0.27738	0.0206	0.503	0.045
Mof_H 	H 	0.2709	0.0202	0.5305	0.017
Mof_C 	C 	0.34074	0.925	0.4058	0.024
Mof_H 	H 	0.337	0.8946	0.4022	0.023
Mof_C 	C 	0.39654	0.5535	0.451	-0.138
Mof_H 	H 	0.3879	0.5305	0.4558	0.092
Mof_C 	C 	0.40806	0.3969	0.6411	0.099
Mof_H 	H 	0.4	0.4016	0.6653	-0.013
Mof_C 	C 	0.39469	0.8277	0.2631	0.392
Mof_C 	C 	0.38555	0.8577	0.2962	-0.154
Mof_C 	C 	0.37865	0.8412	0.3355	0.09
Mof_H 	H 	0.3805	0.8104	0.3429	0.011
Mof_C 	C 	0.36932	0.8677	0.3639	-0.16
Mof_H 	H 	0.3649	0.8549	0.391	0.088
Mof_C 	C 	0.36595	0.9129	0.355	0.109
Mof_C 	C 	0.37441	0.9306	0.3164	-0.145
Mof_H 	H 	0.3734	0.9619	0.31	0.086
Mof_C 	C 	0.38417	0.9032	0.2874	0.078
Mof_H 	H 	0.3898	0.9158	0.2617	0.019
Mof_C 	C 	0.42097	0.4221	0.5724	0.065
Mof_C 	C 	0.40969	0.4285	0.6105	-0.136
Mof_H 	H 	0.4033	0.456	0.6138	0.082
Mof_C 	C 	0.33085	0.9542	0.4339	-0.145
Mof_H 	H 	0.3213	0.9417	0.451	0.081
Mof_C 	C 	0.4302	0.3828	0.5698	-0.123
Mof_H 	H 	0.4378	0.3765	0.5451	0.082
Mof_C 	C 	0.34953	0.0171	0.4139	-0.133
Mof_H 	H 	0.3524	0.0484	0.415	0.078
Mof_C 	C 	0.35922	0.9881	0.3906	0.025
Mof_H 	H 	0.3697	-3.05945e-33	0.3768	0.022
Mof_C 	C 	0.19126	0.9888	0.4663	0.493
Mof_C 	C 	0.21187	0.999	0.4652	-0.158
Mof_C 	C 	0.22201	0.9831	0.4293	0.08
Mof_H 	H 	0.2165	0.9667	0.4056	0.017
Mof_C 	C 	0.24009	0.9914	0.4285	-0.152
Mof_H 	H 	0.247	0.9821	0.4033	0.082
Mof_C 	C 	0.24849	0.0134	0.4646	0.111
Mof_C 	C 	0.23769	0.0284	0.4993	-0.163
Mof_H 	H 	0.2433	0.0427	0.5242	0.085
Mof_C 	C 	0.2201	0.0242	0.5	0.09
Mof_H 	H 	0.2132	0.0377	0.5232	0.009
Mof_C 	C 	0.268	0.0186	0.4646	-0.087
Mof_C 	C 	0.27827	0.0193	0.4244	0.063
Mof_H 	H 	0.2726	0.0178	0.3959	0.007
Mof_C 	C 	0.29607	0.022	0.4273	-0.198
Mof_H 	H 	0.3027	0.0211	0.4001	0.102
Mof_C 	C 	0.3047	0.0258	0.4642	0.169
Mof_C 	C 	0.42797	0.3513	0.6056	0.072
Mof_H 	H 	0.4345	0.3238	0.6049	-0.004
Mof_C 	C 	0.42231	0.4536	0.5349	0.084
Mof_C 	C 	0.39452	0.2313	0.6673	0.405
Mof_C 	C 	0.38325	0.2008	0.6374	-0.167
Mof_C 	C 	0.37054	0.2174	0.6087	0.104
Mof_H 	H 	0.3682	0.249	0.6075	0.008
Mof_C 	C 	0.36144	0.189	0.5825	-0.177
Mof_H 	H 	0.353	0.2019	0.5624	0.089
Mof_C 	C 	0.36309	0.1439	0.5817	0.118
Mof_C 	C 	0.37652	0.1266	0.6109	-0.165
Mof_H 	H 	0.379	0.0951	0.6114	0.083
Mof_C 	C 	0.38571	0.1552	0.638	0.094
Mof_H 	H 	0.3942	0.143	0.6583	0.007
Mof_C 	C 	0.35246	0.1145	0.5531	-0.078
Mof_C 	C 	0.33575	0.1261	0.5343	0.047
Mof_H 	H 	0.3305	0.1542	0.5423	0.012
Mof_C 	C 	0.32724	0.0997	0.5064	-0.162
Mof_H 	H 	0.3164	0.1102	0.4937	0.088
Mof_C 	C 	0.33327	0.0569	0.4945	0.142
Mof_C 	C 	0.3493	0.0425	0.5134	-0.148
Mof_H 	H 	0.3537	0.0131	0.5067	0.084
Mof_C 	C 	0.35905	0.0708	0.5422	0.027
Mof_H 	H 	0.3701	0.0607	0.5544	0.018
Mof_N 	N 	0.32395	0.0299	0.4639	-0.178
Mof_N 	N 	0.41706	0.35892	0.6398	-0.261
Mof_N 	N 	0.41303	0.49143	0.527	-0.094
Mof_N 	N 	0.43225	0.4835	0.4721	-0.09
Mof_N 	N 	0.43379	0.4487	0.5013	-0.087
Mof_N 	N 	0.39965	0.5109	0.5543	-0.232
Mof_H 	H 	0.3966	0.498	0.5797	0.138
Mof_H 	H 	0.3944	0.5361	0.5458	0.145
Mof_N 	N 	0.40201	0.6285	0.4218	-0.251
Mof_O 	O 	0.40548	0.84673	0.2355	-0.483
Mof_O 	O 	0.39183	0.78652	0.265	-0.469
Mof_O 	O 	0.40225	0.21304	0.6998	-0.48
Mof_O 	O 	0.39437	0.27255	0.6574	-0.492
Mof_O 	O 	0.18623	0.96729	0.4357	-0.548
Mof_O 	O 	0.1833	0.0034	0.499	-0.511
Mof_Zn	Zn	0.41267	0.30929	0.6855	1.221
Mof_Zn	Zn	0.40697	0.22853	0.7679	1.216
Mof_C 	C 	0.37913	0.1629	0.8036	0.394
Mof_C 	C 	0.36777	0.1306	0.7773	-0.135
Mof_C 	C 	0.36196	0.1433	0.735	0.057
Mof_H 	H 	0.3651	0.1719	0.7228	0.029
Mof_C 	C 	0.35122	0.113	0.7104	-0.128
Mof_H 	H 	0.3472	0.1209	0.6811	0.08
Mof_C 	C 	0.34647	0.0719	0.7285	0.085
Mof_C 	C 	0.35167	0.0599	0.7709	-0.129
Mof_H 	H 	0.3477	0.0322	0.7836	0.075
Mof_C 	C 	0.36307	0.089	0.7961	0.053
Mof_H 	H 	0.3673	0.0804	0.8249	0.028
Mof_C 	C 	0.33544	0.039	0.7016	-0.047
Mof_C 	C 	0.33871	0.0334	0.6547	0.015
Mof_H 	H 	0.3478	0.0504	0.6401	0.025
Mof_C 	C 	0.32878	0.0038	0.6315	-0.135
Mof_H 	H 	0.331	0.9994	0.6004	0.08
Mof_C 	C 	0.31538	0.9795	0.6524	0.119
Mof_C 	C 	0.31157	0.9853	0.6966	-0.135
Mof_H 	H 	0.3019	0.9692	0.7095	0.08
Mof_C 	C 	0.32132	0.0137	0.723	0.012
Mof_H 	H 	0.3189	0.0167	0.7542	0.025
Mof_C 	C 	0.38095	0.7394	0.4432	0.311
Mof_C 	C 	0.36923	0.7701	0.4711	-0.112
Mof_C 	C 	0.35272	0.7767	0.4579	0.044
Mof_H 	H 	0.3485	0.7634	0.4309	0.026
Mof_C 	C 	0.34092	0.8047	0.4855	-0.134
Mof_H 	H 	0.3288	0.808	0.4771	0.075
Mof_C 	C 	0.34679	0.8251	0.5211	0.086
Mof_C 	C 	0.36513	0.8195	0.5344	-0.125
Mof_H 	H 	0.3697	0.8336	0.5607	0.071
Mof_C 	C 	0.37577	0.7929	0.5075	0.042
Mof_H 	H 	0.3881	0.7902	0.5145	0.031
Mof_C 	C 	0.3346	0.8558	0.549	-0.057
Mof_C 	C 	0.32071	0.8766	0.5316	0.025
Mof_H 	H 	0.3173	0.869	0.5018	0.019
Mof_C 	C 	0.31071	0.9093	0.5541	-0.15
Mof_H 	H 	0.302	0.9271	0.5389	0.083
Mof_C 	C 	0.31399	0.9144	0.5987	0.133
Mof_C 	C 	0.32837	0.8903	0.6198	-0.138
Mof_H 	H 	0.3308	0.8954	0.6507	0.081
Mof_C 	C 	0.33813	0.8616	0.5975	0.023
Mof_H 	H 	0.3473	0.845	0.612	0.02
Mof_C 	C 	0.1749	0.0169	0.6055	0.358
Mof_C 	C 	0.19439	0.0035	0.6083	-0.117
Mof_C 	C 	0.20606	0.0318	0.6309	0.05
Mof_H 	H 	0.2019	0.0584	0.6453	0.026
Mof_C 	C 	0.22412	0.0203	0.6319	-0.131
Mof_H 	H 	0.2323	0.0396	0.647	0.073
Mof_C 	C 	0.23021	0.9827	0.6122	0.083
Mof_C 	C 	0.2188	0.9538	0.5898	-0.117
Mof_H 	H 	0.2234	0.9274	0.5758	0.072
Mof_C 	C 	0.19973	0.9638	0.5877	0.042
Mof_H 	H 	0.1915	0.9443	0.5731	0.032
Mof_C 	C 	0.24984	0.9716	0.6139	-0.047
Mof_C 	C 	0.26187	0.0074	0.6221	0.012
Mof_H 	H 	0.2575	0.0372	0.6264	0.022
Mof_C 	C 	0.27983	0.9993	0.624	-0.136
Mof_H 	H 	0.2879	0.0236	0.6285	0.079
Mof_C 	C 	0.28627	0.9552	0.6193	0.129
Mof_C 	C 	0.27495	0.9211	0.6117	-0.137
Mof_H 	H 	0.2795	0.8913	0.6087	0.081
Mof_C 	C 	0.25603	0.9285	0.6081	0.01
Mof_H 	H 	0.2481	0.9043	0.6018	0.026
Mof_N 	N 	0.30492	0.9461	0.6252	-0.168
Mof_O 	O 	0.16449	0.99567	0.5803	-0.456
Mof_O 	O 	0.17052	0.0494	0.6308	-0.478
Mof_O 	O 	0.38224	0.20104	0.7872	-0.453
Mof_O 	O 	0.38399	0.14917	0.841	-0.494
Mof_O 	O 	0.37593	0.72292	0.409	-0.468
Mof_O 	O 	0.39751	0.7317	0.4606	-0.302
Mof_Zn	Zn	0.39552	0.68527	0.3877	1.225
Mof_C 	C 	0.1748	0.1649	0.7062	-0.087
Mof_H 	H 	0.1868	0.1684	0.716	0.066
Mof_C 	C 	0.14193	0.1543	0.6788	0.109
Mof_H 	H 	0.13	0.1515	0.6685	-0.021
Mof_C 	C 	0.10582	0.81	0.6334	-0.067
Mof_C 	C 	0.1704	0.1228	0.6846	0.018
Mof_H 	H 	0.1786	0.0989	0.6796	0.033
Mof_C 	C 	0.04602	0.7266	0.7556	-0.17
Mof_H 	H 	0.0523	0.7265	0.7833	0.09
Mof_C 	C 	0.16308	0.2014	0.7141	0.056
Mof_C 	C 	0.16971	0.2417	0.7384	0.09
Mof_C 	C 	0.08404	0.752	0.688	0.125
Mof_C 	C 	0.02738	0.7294	0.753	0.046
Mof_H 	H 	0.0209	0.7298	0.7805	0.017
Mof_C 	C 	0.09074	0.825	0.6558	0.024
Mof_H 	H 	0.087	0.8554	0.6522	0.023
Mof_C 	C 	0.14654	0.1965	0.701	-0.138
Mof_H 	H 	0.1379	0.2195	0.7058	0.092
Mof_C 	C 	0.15806	0.3531	0.8911	0.099
Mof_H 	H 	0.15	0.3484	0.9153	-0.012
Mof_C 	C 	0.14469	0.9223	0.5131	0.391
Mof_C 	C 	0.13555	0.8923	0.5462	-0.154
Mof_C 	C 	0.12865	0.9088	0.5855	0.09
Mof_H 	H 	0.1305	0.9396	0.5929	0.011
Mof_C 	C 	0.11932	0.8823	0.6139	-0.16
Mof_H 	H 	0.1149	0.8951	0.641	0.088
Mof_C 	C 	0.11595	0.8371	0.605	0.109
Mof_C 	C 	0.12441	0.8194	0.5664	-0.144
Mof_H 	H 	0.1234	0.7881	0.56	0.086
Mof_C 	C 	0.13417	0.8468	0.5374	0.078
Mof_H 	H 	0.1398	0.8342	0.5117	0.019
Mof_C 	C 	0.17097	0.3279	0.8224	0.065
Mof_C 	C 	0.15969	0.3215	0.8605	-0.135
Mof_H 	H 	0.1533	0.294	0.8638	0.082
Mof_C 	C 	0.08085	0.7958	0.6839	-0.144
Mof_H 	H 	0.0713	0.8083	0.701	0.081
Mof_C 	C 	0.1802	0.3672	0.8198	-0.123
Mof_H 	H 	0.1878	0.3735	0.7951	0.082
Mof_C 	C 	0.09953	0.7329	0.6639	-0.132
Mof_H 	H 	0.1024	0.7016	0.665	0.078
Mof_C 	C 	0.10922	0.7619	0.6406	0.024
Mof_H 	H 	0.1197	0.75	0.6268	0.022
Mof_C 	C 	0.94126	0.7612	0.7163	0.492
Mof_C 	C 	0.96187	0.751	0.7152	-0.158
Mof_C 	C 	0.97201	0.7669	0.6793	0.081
Mof_H 	H 	0.9665	0.7833	0.6556	0.017
Mof_C 	C 	0.99009	0.7586	0.6785	-0.153
Mof_H 	H 	0.997	0.7679	0.6533	0.082
Mof_C 	C 	0.99849	0.7366	0.7146	0.112
Mof_C 	C 	0.98769	0.7216	0.7493	-0.163
Mof_H 	H 	0.9933	0.7073	0.7742	0.085
Mof_C 	C 	0.9701	0.7258	0.75	0.091
Mof_H 	H 	0.9632	0.7123	0.7732	0.009
Mof_C 	C 	0.018	0.7314	0.7146	-0.087
Mof_C 	C 	0.02827	0.7307	0.6744	0.063
Mof_H 	H 	0.0226	0.7322	0.6459	0.007
Mof_C 	C 	0.04607	0.728	0.6773	-0.198
Mof_H 	H 	0.0527	0.7289	0.6501	0.102
Mof_C 	C 	0.0547	0.7242	0.7142	0.169
Mof_C 	C 	0.17797	0.3987	0.8556	0.073
Mof_H 	H 	0.1845	0.4262	0.8549	-0.004
Mof_C 	C 	0.17231	0.2964	0.7849	0.084
Mof_C 	C 	0.14452	0.5187	0.9173	0.405
Mof_C 	C 	0.13325	0.5492	0.8874	-0.166
Mof_C 	C 	0.12054	0.5326	0.8587	0.104
Mof_H 	H 	0.1182	0.501	0.8575	0.008
Mof_C 	C 	0.11144	0.561	0.8325	-0.177
Mof_H 	H 	0.103	0.5481	0.8124	0.089
Mof_C 	C 	0.11309	0.6061	0.8317	0.118
Mof_C 	C 	0.12652	0.6234	0.8609	-0.164
Mof_H 	H 	0.129	0.6549	0.8614	0.084
Mof_C 	C 	0.13571	0.5948	0.888	0.094
Mof_H 	H 	0.1442	0.607	0.9083	0.008
Mof_C 	C 	0.10246	0.6355	0.8031	-0.078
Mof_C 	C 	0.08575	0.6239	0.7843	0.047
Mof_H 	H 	0.0805	0.5958	0.7923	0.013
Mof_C 	C 	0.07724	0.6503	0.7564	-0.162
Mof_H 	H 	0.0664	0.6398	0.7437	0.088
Mof_C 	C 	0.08327	0.6931	0.7445	0.142
Mof_C 	C 	0.0993	0.7075	0.7634	-0.148
Mof_H 	H 	0.1037	0.7369	0.7567	0.084
Mof_C 	C 	0.10905	0.6792	0.7922	0.026
Mof_H 	H 	0.1201	0.6893	0.8044	0.018
Mof_N 	N 	0.07395	0.7201	0.7139	-0.178
Mof_N 	N 	0.16706	0.39108	0.8898	-0.261
Mof_N 	N 	0.16303	0.25857	0.777	-0.094
Mof_N 	N 	0.18225	0.2665	0.7221	-0.09
Mof_N 	N 	0.18379	0.3013	0.7513	-0.087
Mof_N 	N 	0.14965	0.2391	0.8043	-0.232
Mof_H 	H 	0.1466	0.252	0.8297	0.138
Mof_H 	H 	0.1444	0.2139	0.7958	0.145
Mof_N 	N 	0.15201	0.1215	0.6718	-0.251
Mof_O 	O 	0.15548	0.90327	0.4855	-0.483
Mof_O 	O 	0.14183	0.96348	0.515	-0.469
Mof_O 	O 	0.15225	0.53696	0.9498	-0.477
Mof_O 	O 	0.14437	0.47745	0.9074	-0.492
Mof_O 	O 	0.93623	0.78271	0.6857	-0.548
Mof_O 	O 	0.9333	0.7466	0.749	-0.511
Mof_Zn	Zn	0.16267	0.44071	0.9355	1.222
Mof_Zn	Zn	0.15697	0.52147	0.0179	1.214
Mof_C 	C 	0.12913	0.5871	0.0536	0.4
Mof_C 	C 	0.11777	0.6194	0.0273	-0.157
Mof_C 	C 	0.11196	0.6067	0.985	0.083
Mof_H 	H 	0.1151	0.5781	0.9728	0.022
Mof_C 	C 	0.10122	0.637	0.9604	-0.148
Mof_H 	H 	0.0972	0.6291	0.9311	0.088
Mof_C 	C 	0.09647	0.6781	0.9785	0.111
Mof_C 	C 	0.10167	0.6901	0.0209	-0.156
Mof_H 	H 	0.0977	0.7178	0.0336	0.082
Mof_C 	C 	0.11307	0.661	0.0461	0.072
Mof_H 	H 	0.1173	0.6696	0.0749	0.022
Mof_C 	C 	0.08544	0.711	0.9516	-0.064
Mof_C 	C 	0.08871	0.7166	0.9047	0.028
Mof_H 	H 	0.0978	0.6996	0.8901	0.021
Mof_C 	C 	0.07878	0.7462	0.8815	-0.145
Mof_H 	H 	0.081	0.7506	0.8504	0.083
Mof_C 	C 	0.06538	0.7705	0.9024	0.129
Mof_C 	C 	0.06157	0.7647	0.9466	-0.152
Mof_H 	H 	0.0519	0.7808	0.9595	0.087
Mof_C 	C 	0.07132	0.7363	0.973	0.039
Mof_H 	H 	0.0689	0.7333	0.0042	0.01
Mof_C 	C 	0.13095	0.0106	0.6932	0.31
Mof_C 	C 	0.11923	0.9799	0.7211	-0.111
Mof_C 	C 	0.10272	0.9733	0.7079	0.044
Mof_H 	H 	0.0985	0.9866	0.6809	0.026
Mof_C 	C 	0.09092	0.9453	0.7355	-0.134
Mof_H 	H 	0.0788	0.942	0.7271	0.075
Mof_C 	C 	0.09679	0.9249	0.7711	0.086
Mof_C 	C 	0.11513	0.9305	0.7844	-0.125
Mof_H 	H 	0.1197	0.9164	0.8107	0.072
Mof_C 	C 	0.12577	0.9571	0.7575	0.042
Mof_H 	H 	0.1381	0.9598	0.7645	0.031
Mof_C 	C 	0.0846	0.8942	0.799	-0.057
Mof_C 	C 	0.07071	0.8734	0.7816	0.026
Mof_H 	H 	0.0673	0.881	0.7518	0.019
Mof_C 	C 	0.06071	0.8407	0.8041	-0.15
Mof_H 	H 	0.052	0.8229	0.7889	0.083
Mof_C 	C 	0.06399	0.8356	0.8487	0.134
Mof_C 	C 	0.07837	0.8597	0.8698	-0.139
Mof_H 	H 	0.0808	0.8546	0.9007	0.082
Mof_C 	C 	0.08813	0.8884	0.8475	0.023
Mof_H 	H 	0.0973	0.905	0.862	0.021
Mof_C 	C 	0.9249	0.7331	0.8555	0.358
Mof_C 	C 	0.94439	0.7465	0.8583	-0.116
Mof_C 	C 	0.95606	0.7182	0.8809	0.05
Mof_H 	H 	0.9519	0.6916	0.8953	0.027
Mof_C 	C 	0.97412	0.7297	0.8819	-0.131
Mof_H 	H 	0.9823	0.7104	0.897	0.074
Mof_C 	C 	0.98021	0.7673	0.8622	0.083
Mof_C 	C 	0.9688	0.7962	0.8398	-0.117
Mof_H 	H 	0.9734	0.8226	0.8258	0.072
Mof_C 	C 	0.94973	0.7862	0.8377	0.042
Mof_H 	H 	0.9415	0.8057	0.8231	0.032
Mof_C 	C 	0.99984	0.7784	0.8639	-0.047
Mof_C 	C 	0.01187	0.7426	0.8721	0.013
Mof_H 	H 	0.0075	0.7128	0.8764	0.022
Mof_C 	C 	0.02983	0.7507	0.874	-0.137
Mof_H 	H 	0.0379	0.7264	0.8785	0.08
Mof_C 	C 	0.03627	0.7948	0.8693	0.13
Mof_C 	C 	0.02495	0.8289	0.8617	-0.138
Mof_H 	H 	0.0295	0.8587	0.8587	0.081
Mof_C 	C 	0.00603	0.8215	0.8581	0.01
Mof_H 	H 	0.9981	0.8457	0.8518	0.026
Mof_N 	N 	0.05492	0.8039	0.8752	-0.169
Mof_O 	O 	0.91449	0.75433	0.8303	-0.456
Mof_O 	O 	0.92052	0.7006	0.8808	-0.478
Mof_O 	O 	0.13224	0.54896	0.0372	-0.458
Mof_O 	O 	0.13399	0.60083	0.091	-0.496
Mof_O 	O 	0.12593	0.02708	0.659	-0.468
Mof_O 	O 	0.14751	0.0183	0.7106	-0.302
Mof_Zn	Zn	0.14552	0.06473	0.6377	1.225
Mof_C 	C 	0.1748	0.6649	0.2062	-0.087
Mof_H 	H 	0.1868	0.6684	0.216	0.066
Mof_C 	C 	0.14193	0.6543	0.1788	0.109
Mof_H 	H 	0.13	0.6515	0.1685	-0.021
Mof_C 	C 	0.10582	0.31	0.1334	-0.067
Mof_C 	C 	0.1704	0.6228	0.1846	0.018
Mof_H 	H 	0.1786	0.5989	0.1796	0.033
Mof_C 	C 	0.04602	0.2266	0.2556	-0.17
Mof_H 	H 	0.0523	0.2265	0.2833	0.09
Mof_C 	C 	0.16308	0.7014	0.2141	0.055
Mof_C 	C 	0.16971	0.7417	0.2384	0.09
Mof_C 	C 	0.08404	0.252	0.188	0.125
Mof_C 	C 	0.02738	0.2294	0.253	0.046
Mof_H 	H 	0.0209	0.2298	0.2805	0.017
Mof_C 	C 	0.09074	0.325	0.1558	0.023
Mof_H 	H 	0.087	0.3554	0.1522	0.023
Mof_C 	C 	0.14654	0.6965	0.201	-0.138
Mof_H 	H 	0.1379	0.7195	0.2058	0.092
Mof_C 	C 	0.15806	0.8531	0.3911	0.099
Mof_H 	H 	0.15	0.8484	0.4153	-0.013
Mof_C 	C 	0.14469	0.4223	0.0131	0.382
Mof_C 	C 	0.13555	0.3923	0.0462	-0.152
Mof_C 	C 	0.12865	0.4088	0.0855	0.088
Mof_H 	H 	0.1305	0.4396	0.0929	0.012
Mof_C 	C 	0.11932	0.3823	0.1139	-0.159
Mof_H 	H 	0.1149	0.3951	0.141	0.087
Mof_C 	C 	0.11595	0.3371	0.105	0.107
Mof_C 	C 	0.12441	0.3194	0.0664	-0.144
Mof_H 	H 	0.1234	0.2881	0.06	0.085
Mof_C 	C 	0.13417	0.3468	0.0374	0.075
Mof_H 	H 	0.1398	0.3342	0.0117	0.017
Mof_C 	C 	0.17097	0.8279	0.3224	0.065
Mof_C 	C 	0.15969	0.8215	0.3605	-0.136
Mof_H 	H 	0.1533	0.794	0.3638	0.082
Mof_C 	C 	0.08085	0.2958	0.1839	-0.144
Mof_H 	H 	0.0713	0.3083	0.201	0.08
Mof_C 	C 	0.1802	0.8672	0.3198	-0.123
Mof_H 	H 	0.1878	0.8735	0.2951	0.082
Mof_C 	C 	0.09953	0.2329	0.1639	-0.132
Mof_H 	H 	0.1024	0.2016	0.165	0.077
Mof_C 	C 	0.10922	0.2619	0.1406	0.024
Mof_H 	H 	0.1197	0.25	0.1268	0.022
Mof_C 	C 	0.94126	0.2612	0.2163	0.492
Mof_C 	C 	0.96187	0.251	0.2152	-0.158
Mof_C 	C 	0.97201	0.2669	0.1793	0.08
Mof_H 	H 	0.9665	0.2833	0.1556	0.017
Mof_C 	C 	0.99009	0.2586	0.1785	-0.153
Mof_H 	H 	0.997	0.2679	0.1533	0.081
Mof_C 	C 	0.99849	0.2366	0.2146	0.111
Mof_C 	C 	0.98769	0.2216	0.2493	-0.163
Mof_H 	H 	0.9933	0.2073	0.2742	0.085
Mof_C 	C 	0.9701	0.2258	0.25	0.091
Mof_H 	H 	0.9632	0.2123	0.2732	0.009
Mof_C 	C 	0.018	0.2314	0.2146	-0.087
Mof_C 	C 	0.02827	0.2307	0.1744	0.063
Mof_H 	H 	0.0226	0.2322	0.1459	0.006
Mof_C 	C 	0.04607	0.228	0.1773	-0.198
Mof_H 	H 	0.0527	0.2289	0.1501	0.101
Mof_C 	C 	0.0547	0.2242	0.2142	0.169
Mof_C 	C 	0.17797	0.8987	0.3556	0.072
Mof_H 	H 	0.1845	0.9262	0.3549	-0.004
Mof_C 	C 	0.17231	0.7964	0.2849	0.084
Mof_C 	C 	0.14452	0.0187	0.4173	0.405
Mof_C 	C 	0.13325	0.0492	0.3874	-0.166
Mof_C 	C 	0.12054	0.0326	0.3587	0.104
Mof_H 	H 	0.1182	0.001	0.3575	0.008
Mof_C 	C 	0.11144	0.061	0.3325	-0.177
Mof_H 	H 	0.103	0.0481	0.3124	0.089
Mof_C 	C 	0.11309	0.1061	0.3317	0.118
Mof_C 	C 	0.12652	0.1234	0.3609	-0.165
Mof_H 	H 	0.129	0.1549	0.3614	0.083
Mof_C 	C 	0.13571	0.0948	0.388	0.094
Mof_H 	H 	0.1442	0.107	0.4083	0.007
Mof_C 	C 	0.10246	0.1355	0.3031	-0.078
Mof_C 	C 	0.08575	0.1239	0.2843	0.047
Mof_H 	H 	0.0805	0.0958	0.2923	0.012
Mof_C 	C 	0.07724	0.1503	0.2564	-0.162
Mof_H 	H 	0.0664	0.1398	0.2437	0.088
Mof_C 	C 	0.08327	0.1931	0.2445	0.142
Mof_C 	C 	0.0993	0.2075	0.2634	-0.148
Mof_H 	H 	0.1037	0.2369	0.2567	0.084
Mof_C 	C 	0.10905	0.1792	0.2922	0.026
Mof_H 	H 	0.1201	0.1893	0.3044	0.018
Mof_N 	N 	0.07395	0.2201	0.2139	-0.178
Mof_N 	N 	0.16706	0.89108	0.3898	-0.261
Mof_N 	N 	0.16303	0.75857	0.277	-0.094
Mof_N 	N 	0.18225	0.7665	0.2221	-0.09
Mof_N 	N 	0.18379	0.8013	0.2513	-0.087
Mof_N 	N 	0.14965	0.7391	0.3043	-0.232
Mof_H 	H 	0.1466	0.752	0.3297	0.138
Mof_H 	H 	0.1444	0.7139	0.2958	0.145
Mof_N 	N 	0.15201	0.6215	0.1718	-0.251
Mof_O 	O 	0.15548	0.40327	0.9855	-0.475
Mof_O 	O 	0.14183	0.46348	0.015	-0.469
Mof_O 	O 	0.15225	0.03696	0.4498	-0.48
Mof_O 	O 	0.14437	0.97745	0.4074	-0.492
Mof_O 	O 	0.93623	0.28271	0.1857	-0.548
Mof_O 	O 	0.9333	0.2466	0.249	-0.511
Mof_Zn	Zn	0.16267	0.94071	0.4355	1.221
Mof_Zn	Zn	0.15697	0.02147	0.5179	1.216
Mof_C 	C 	0.12913	0.0871	0.5536	0.394
Mof_C 	C 	0.11777	0.1194	0.5273	-0.135
Mof_C 	C 	0.11196	0.1067	0.485	0.057
Mof_H 	H 	0.1151	0.0781	0.4728	0.029
Mof_C 	C 	0.10122	0.137	0.4604	-0.128
Mof_H 	H 	0.0972	0.1291	0.4311	0.08
Mof_C 	C 	0.09647	0.1781	0.4785	0.085
Mof_C 	C 	0.10167	0.1901	0.5209	-0.129
Mof_H 	H 	0.0977	0.2178	0.5336	0.075
Mof_C 	C 	0.11307	0.161	0.5461	0.053
Mof_H 	H 	0.1173	0.1696	0.5749	0.028
Mof_C 	C 	0.08544	0.211	0.4516	-0.047
Mof_C 	C 	0.08871	0.2166	0.4047	0.015
Mof_H 	H 	0.0978	0.1996	0.3901	0.025
Mof_C 	C 	0.07878	0.2462	0.3815	-0.134
Mof_H 	H 	0.081	0.2506	0.3504	0.08
Mof_C 	C 	0.06538	0.2705	0.4024	0.119
Mof_C 	C 	0.06157	0.2647	0.4466	-0.135
Mof_H 	H 	0.0519	0.2808	0.4595	0.08
Mof_C 	C 	0.07132	0.2363	0.473	0.012
Mof_H 	H 	0.0689	0.2333	0.5042	0.025
Mof_C 	C 	0.13095	0.5106	0.1932	0.311
Mof_C 	C 	0.11923	0.4799	0.2211	-0.112
Mof_C 	C 	0.10272	0.4733	0.2079	0.044
Mof_H 	H 	0.0985	0.4866	0.1809	0.026
Mof_C 	C 	0.09092	0.4453	0.2355	-0.134
Mof_H 	H 	0.0788	0.442	0.2271	0.075
Mof_C 	C 	0.09679	0.4249	0.2711	0.086
Mof_C 	C 	0.11513	0.4305	0.2844	-0.125
Mof_H 	H 	0.1197	0.4164	0.3107	0.071
Mof_C 	C 	0.12577	0.4571	0.2575	0.042
Mof_H 	H 	0.1381	0.4598	0.2645	0.031
Mof_C 	C 	0.0846	0.3942	0.299	-0.057
Mof_C 	C 	0.07071	0.3734	0.2816	0.025
Mof_H 	H 	0.0673	0.381	0.2518	0.018
Mof_C 	C 	0.06071	0.3407	0.3041	-0.15
Mof_H 	H 	0.052	0.3229	0.2889	0.083
Mof_C 	C 	0.06399	0.3356	0.3487	0.133
Mof_C 	C 	0.07837	0.3597	0.3698	-0.138
Mof_H 	H 	0.0808	0.3546	0.4007	0.081
Mof_C 	C 	0.08813	0.3884	0.3475	0.023
Mof_H 	H 	0.0973	0.405	0.362	0.02
Mof_C 	C 	0.9249	0.2331	0.3555	0.358
Mof_C 	C 	0.94439	0.2465	0.3583	-0.116
Mof_C 	C 	0.95606	0.2182	0.3809	0.049
Mof_H 	H 	0.9519	0.1916	0.3953	0.026
Mof_C 	C 	0.97412	0.2297	0.3819	-0.131
Mof_H 	H 	0.9823	0.2104	0.397	0.073
Mof_C 	C 	0.98021	0.2673	0.3622	0.083
Mof_C 	C 	0.9688	0.2962	0.3398	-0.117
Mof_H 	H 	0.9734	0.3226	0.3258	0.072
Mof_C 	C 	0.94973	0.2862	0.3377	0.042
Mof_H 	H 	0.9415	0.3057	0.3231	0.032
Mof_C 	C 	0.99984	0.2784	0.3639	-0.047
Mof_C 	C 	0.01187	0.2426	0.3721	0.013
Mof_H 	H 	0.0075	0.2128	0.3764	0.022
Mof_C 	C 	0.02983	0.2507	0.374	-0.137
Mof_H 	H 	0.0379	0.2264	0.3785	0.08
Mof_C 	C 	0.03627	0.2948	0.3693	0.13
Mof_C 	C 	0.02495	0.3289	0.3617	-0.138
Mof_H 	H 	0.0295	0.3587	0.3587	0.081
Mof_C 	C 	0.00603	0.3215	0.3581	0.01
Mof_H 	H 	0.9981	0.3457	0.3518	0.026
Mof_N 	N 	0.05492	0.3039	0.3752	-0.168
Mof_O 	O 	0.91449	0.25433	0.3303	-0.456
Mof_O 	O 	0.92052	0.2006	0.3808	-0.479
Mof_O 	O 	0.13224	0.04896	0.5372	-0.454
Mof_O 	O 	0.13399	0.10083	0.591	-0.494
Mof_O 	O 	0.12593	0.52708	0.159	-0.468
Mof_O 	O 	0.14751	0.5183	0.2106	-0.302
Mof_Zn	Zn	0.14552	0.56473	0.1377	1.225
Mof_C 	C 	0.6748	0.1649	0.2062	-0.087
Mof_H 	H 	0.6868	0.1684	0.216	0.066
Mof_C 	C 	0.64193	0.1543	0.1788	0.109
Mof_H 	H 	0.63	0.1515	0.1685	-0.021
Mof_C 	C 	0.60582	0.81	0.1334	-0.067
Mof_C 	C 	0.6704	0.1228	0.1846	0.018
Mof_H 	H 	0.6786	0.0989	0.1796	0.033
Mof_C 	C 	0.54602	0.7266	0.2556	-0.17
Mof_H 	H 	0.5523	0.7265	0.2833	0.09
Mof_C 	C 	0.66308	0.2014	0.2141	0.055
Mof_C 	C 	0.66971	0.2417	0.2384	0.09
Mof_C 	C 	0.58404	0.752	0.188	0.125
Mof_C 	C 	0.52738	0.7294	0.253	0.046
Mof_H 	H 	0.5209	0.7298	0.2805	0.017
Mof_C 	C 	0.59074	0.825	0.1558	0.023
Mof_H 	H 	0.587	0.8554	0.1522	0.023
Mof_C 	C 	0.64654	0.1965	0.201	-0.138
Mof_H 	H 	0.6379	0.2195	0.2058	0.092
Mof_C 	C 	0.65806	0.3531	0.3911	0.099
Mof_H 	H 	0.65	0.3484	0.4153	-0.013
Mof_C 	C 	0.64469	0.9223	0.0131	0.382
Mof_C 	C 	0.63555	0.8923	0.0462	-0.152
Mof_C 	C 	0.62865	0.9088	0.0855	0.088
Mof_H 	H 	0.6305	0.9396	0.0929	0.012
Mof_C 	C 	0.61932	0.8823	0.1139	-0.159
Mof_H 	H 	0.6149	0.8951	0.141	0.087
Mof_C 	C 	0.61595	0.8371	0.105	0.107
Mof_C 	C 	0.62441	0.8194	0.0664	-0.144
Mof_H 	H 	0.6234	0.7881	0.06	0.085
Mof_C 	C 	0.63417	0.8468	0.0374	0.075
Mof_H 	H 	0.6398	0.8342	0.0117	0.017
Mof_C 	C 	0.67097	0.3279	0.3224	0.065
Mof_C 	C 	0.65969	0.3215	0.3605	-0.136
Mof_H 	H 	0.6533	0.294	0.3638	0.082
Mof_C 	C 	0.58085	0.7958	0.1839	-0.144
Mof_H 	H 	0.5713	0.8083	0.201	0.08
Mof_C 	C 	0.6802	0.3672	0.3198	-0.123
Mof_H 	H 	0.6878	0.3735	0.2951	0.082
Mof_C 	C 	0.59953	0.7329	0.1639	-0.132
Mof_H 	H 	0.6024	0.7016	0.165	0.077
Mof_C 	C 	0.60922	0.7619	0.1406	0.024
Mof_H 	H 	0.6197	0.75	0.1268	0.022
Mof_C 	C 	0.44126	0.7612	0.2163	0.492
Mof_C 	C 	0.46187	0.751	0.2152	-0.158
Mof_C 	C 	0.47201	0.7669	0.1793	0.08
Mof_H 	H 	0.4665	0.7833	0.1556	0.017
Mof_C 	C 	0.49009	0.7586	0.1785	-0.153
Mof_H 	H 	0.497	0.7679	0.1533	0.081
Mof_C 	C 	0.49849	0.7366	0.2146	0.111
Mof_C 	C 	0.48769	0.7216	0.2493	-0.163
Mof_H 	H 	0.4933	0.7073	0.2742	0.085
Mof_C 	C 	0.4701	0.7258	0.25	0.091
Mof_H 	H 	0.4632	0.7123	0.2732	0.009
Mof_C 	C 	0.518	0.7314	0.2146	-0.087
Mof_C 	C 	0.52827	0.7307	0.1744	0.063
Mof_H 	H 	0.5226	0.7322	0.1459	0.006
Mof_C 	C 	0.54607	0.728	0.1773	-0.198
Mof_H 	H 	0.5527	0.7289	0.1501	0.101
Mof_C 	C 	0.5547	0.7242	0.2142	0.169
Mof_C 	C 	0.67797	0.3987	0.3556	0.072
Mof_H 	H 	0.6845	0.4262	0.3549	-0.004
Mof_C 	C 	0.67231	0.2964	0.2849	0.084
Mof_C 	C 	0.64452	0.5187	0.4173	0.405
Mof_C 	C 	0.63325	0.5492	0.3874	-0.167
Mof_C 	C 	0.62054	0.5326	0.3587	0.104
Mof_H 	H 	0.6182	0.501	0.3575	0.008
Mof_C 	C 	0.61144	0.561	0.3325	-0.177
Mof_H 	H 	0.603	0.5481	0.3124	0.089
Mof_C 	C 	0.61309	0.6061	0.3317	0.118
Mof_C 	C 	0.62652	0.6234	0.3609	-0.165
Mof_H 	H 	0.629	0.6549	0.3614	0.083
Mof_C 	C 	0.63571	0.5948	0.388	0.094
Mof_H 	H 	0.6442	0.607	0.4083	0.007
Mof_C 	C 	0.60246	0.6355	0.3031	-0.078
Mof_C 	C 	0.58575	0.6239	0.2843	0.047
Mof_H 	H 	0.5805	0.5958	0.2923	0.012
Mof_C 	C 	0.57724	0.6503	0.2564	-0.162
Mof_H 	H 	0.5664	0.6398	0.2437	0.088
Mof_C 	C 	0.58327	0.6931	0.2445	0.142
Mof_C 	C 	0.5993	0.7075	0.2634	-0.148
Mof_H 	H 	0.6037	0.7369	0.2567	0.084
Mof_C 	C 	0.60905	0.6792	0.2922	0.026
Mof_H 	H 	0.6201	0.6893	0.3044	0.018
Mof_N 	N 	0.57395	0.7201	0.2139	-0.178
Mof_N 	N 	0.66706	0.39108	0.3898	-0.261
Mof_N 	N 	0.66303	0.25857	0.277	-0.094
Mof_N 	N 	0.68225	0.2665	0.2221	-0.09
Mof_N 	N 	0.68379	0.3013	0.2513	-0.087
Mof_N 	N 	0.64965	0.2391	0.3043	-0.232
Mof_H 	H 	0.6466	0.252	0.3297	0.138
Mof_H 	H 	0.6444	0.2139	0.2958	0.145
Mof_N 	N 	0.65201	0.1215	0.1718	-0.251
Mof_O 	O 	0.65548	0.90327	0.9855	-0.475
Mof_O 	O 	0.64183	0.96348	0.015	-0.469
Mof_O 	O 	0.65225	0.53696	0.4498	-0.48
Mof_O 	O 	0.64437	0.47745	0.4074	-0.492
Mof_O 	O 	0.43623	0.78271	0.1857	-0.548
Mof_O 	O 	0.4333	0.7466	0.249	-0.511
Mof_Zn	Zn	0.66267	0.44071	0.4355	1.221
Mof_Zn	Zn	0.65697	0.52147	0.5179	1.216
Mof_C 	C 	0.62913	0.5871	0.5536	0.394
Mof_C 	C 	0.61777	0.6194	0.5273	-0.135
Mof_C 	C 	0.61196	0.6067	0.485	0.057
Mof_H 	H 	0.6151	0.5781	0.4728	0.029
Mof_C 	C 	0.60122	0.637	0.4604	-0.128
Mof_H 	H 	0.5972	0.6291	0.4311	0.08
Mof_C 	C 	0.59647	0.6781	0.4785	0.085
Mof_C 	C 	0.60167	0.6901	0.5209	-0.129
Mof_H 	H 	0.5977	0.7178	0.5336	0.075
Mof_C 	C 	0.61307	0.661	0.5461	0.053
Mof_H 	H 	0.6173	0.6696	0.5749	0.028
Mof_C 	C 	0.58544	0.711	0.4516	-0.047
Mof_C 	C 	0.58871	0.7166	0.4047	0.015
Mof_H 	H 	0.5978	0.6996	0.3901	0.025
Mof_C 	C 	0.57878	0.7462	0.3815	-0.134
Mof_H 	H 	0.581	0.7506	0.3504	0.08
Mof_C 	C 	0.56538	0.7705	0.4024	0.119
Mof_C 	C 	0.56157	0.7647	0.4466	-0.135
Mof_H 	H 	0.5519	0.7808	0.4595	0.08
Mof_C 	C 	0.57132	0.7363	0.473	0.012
Mof_H 	H 	0.5689	0.7333	0.5042	0.025
Mof_C 	C 	0.63095	0.0106	0.1932	0.31
Mof_C 	C 	0.61923	0.9799	0.2211	-0.111
Mof_C 	C 	0.60272	0.9733	0.2079	0.044
Mof_H 	H 	0.5985	0.9866	0.1809	0.026
Mof_C 	C 	0.59092	0.9453	0.2355	-0.134
Mof_H 	H 	0.5788	0.942	0.2271	0.075
Mof_C 	C 	0.59679	0.9249	0.2711	0.086
Mof_C 	C 	0.61513	0.9305	0.2844	-0.125
Mof_H 	H 	0.6197	0.9164	0.3107	0.071
Mof_C 	C 	0.62577	0.9571	0.2575	0.042
Mof_H 	H 	0.6381	0.9598	0.2645	0.031
Mof_C 	C 	0.5846	0.8942	0.299	-0.057
Mof_C 	C 	0.57071	0.8734	0.2816	0.025
Mof_H 	H 	0.5673	0.881	0.2518	0.018
Mof_C 	C 	0.56071	0.8407	0.3041	-0.15
Mof_H 	H 	0.552	0.8229	0.2889	0.083
Mof_C 	C 	0.56399	0.8356	0.3487	0.133
Mof_C 	C 	0.57837	0.8597	0.3698	-0.138
Mof_H 	H 	0.5808	0.8546	0.4007	0.081
Mof_C 	C 	0.58813	0.8884	0.3475	0.023
Mof_H 	H 	0.5973	0.905	0.362	0.02
Mof_C 	C 	0.4249	0.7331	0.3555	0.358
Mof_C 	C 	0.44439	0.7465	0.3583	-0.116
Mof_C 	C 	0.45606	0.7182	0.3809	0.049
Mof_H 	H 	0.4519	0.6916	0.3953	0.026
Mof_C 	C 	0.47412	0.7297	0.3819	-0.131
Mof_H 	H 	0.4823	0.7104	0.397	0.073
Mof_C 	C 	0.48021	0.7673	0.3622	0.083
Mof_C 	C 	0.4688	0.7962	0.3398	-0.117
Mof_H 	H 	0.4734	0.8226	0.3258	0.072
Mof_C 	C 	0.44973	0.7862	0.3377	0.042
Mof_H 	H 	0.4415	0.8057	0.3231	0.032
Mof_C 	C 	0.49984	0.7784	0.3639	-0.047
Mof_C 	C 	0.51187	0.7426	0.3721	0.013
Mof_H 	H 	0.5075	0.7128	0.3764	0.022
Mof_C 	C 	0.52983	0.7507	0.374	-0.137
Mof_H 	H 	0.5379	0.7264	0.3785	0.08
Mof_C 	C 	0.53627	0.7948	0.3693	0.13
Mof_C 	C 	0.52495	0.8289	0.3617	-0.138
Mof_H 	H 	0.5295	0.8587	0.3587	0.081
Mof_C 	C 	0.50603	0.8215	0.3581	0.01
Mof_H 	H 	0.4981	0.8457	0.3518	0.026
Mof_N 	N 	0.55492	0.8039	0.3752	-0.168
Mof_O 	O 	0.41449	0.75433	0.3303	-0.456
Mof_O 	O 	0.42052	0.7006	0.3808	-0.479
Mof_O 	O 	0.63224	0.54896	0.5372	-0.453
Mof_O 	O 	0.63399	0.60083	0.591	-0.494
Mof_O 	O 	0.62593	0.02708	0.159	-0.468
Mof_O 	O 	0.64751	0.0183	0.2106	-0.302
Mof_Zn	Zn	0.64552	0.06473	0.1377	1.225
Mof_C 	C 	0.6748	0.6649	0.7062	-0.087
Mof_H 	H 	0.6868	0.6684	0.716	0.066
Mof_C 	C 	0.64193	0.6543	0.6788	0.109
Mof_H 	H 	0.63	0.6515	0.6685	-0.021
Mof_C 	C 	0.60582	0.31	0.6334	-0.067
Mof_C 	C 	0.6704	0.6228	0.6846	0.018
Mof_H 	H 	0.6786	0.5989	0.6796	0.033
Mof_C 	C 	0.54602	0.2266	0.7556	-0.17
Mof_H 	H 	0.5523	0.2265	0.7833	0.09
Mof_C 	C 	0.66308	0.7014	0.7141	0.056
Mof_C 	C 	0.66971	0.7417	0.7384	0.09
Mof_C 	C 	0.58404	0.252	0.688	0.125
Mof_C 	C 	0.52738	0.2294	0.753	0.046
Mof_H 	H 	0.5209	0.2298	0.7805	0.017
Mof_C 	C 	0.59074	0.325	0.6558	0.024
Mof_H 	H 	0.587	0.3554	0.6522	0.023
Mof_C 	C 	0.64654	0.6965	0.701	-0.138
Mof_H 	H 	0.6379	0.7195	0.7058	0.092
Mof_C 	C 	0.65806	0.8531	0.8911	0.099
Mof_H 	H 	0.65	0.8484	0.9153	-0.012
Mof_C 	C 	0.64469	0.4223	0.5131	0.391
Mof_C 	C 	0.63555	0.3923	0.5462	-0.154
Mof_C 	C 	0.62865	0.4088	0.5855	0.09
Mof_H 	H 	0.6305	0.4396	0.5929	0.011
Mof_C 	C 	0.61932	0.3823	0.6139	-0.16
Mof_H 	H 	0.6149	0.3951	0.641	0.088
Mof_C 	C 	0.61595	0.3371	0.605	0.109
Mof_C 	C 	0.62441	0.3194	0.5664	-0.144
Mof_H 	H 	0.6234	0.2881	0.56	0.086
Mof_C 	C 	0.63417	0.3468	0.5374	0.078
Mof_H 	H 	0.6398	0.3342	0.5117	0.019
Mof_C 	C 	0.67097	0.8279	0.8224	0.065
Mof_C 	C 	0.65969	0.8215	0.8605	-0.135
Mof_H 	H 	0.6533	0.794	0.8638	0.082
Mof_C 	C 	0.58085	0.2958	0.6839	-0.144
Mof_H 	H 	0.5713	0.3083	0.701	0.081
Mof_C 	C 	0.6802	0.8672	0.8198	-0.123
Mof_H 	H 	0.6878	0.8735	0.7951	0.082
Mof_C 	C 	0.59953	0.2329	0.6639	-0.132
Mof_H 	H 	0.6024	0.2016	0.665	0.078
Mof_C 	C 	0.60922	0.2619	0.6406	0.024
Mof_H 	H 	0.6197	0.25	0.6268	0.022
Mof_C 	C 	0.44126	0.2612	0.7163	0.492
Mof_C 	C 	0.46187	0.251	0.7152	-0.158
Mof_C 	C 	0.47201	0.2669	0.6793	0.081
Mof_H 	H 	0.4665	0.2833	0.6556	0.017
Mof_C 	C 	0.49009	0.2586	0.6785	-0.153
Mof_H 	H 	0.497	0.2679	0.6533	0.082
Mof_C 	C 	0.49849	0.2366	0.7146	0.112
Mof_C 	C 	0.48769	0.2216	0.7493	-0.163
Mof_H 	H 	0.4933	0.2073	0.7742	0.085
Mof_C 	C 	0.4701	0.2258	0.75	0.091
Mof_H 	H 	0.4632	0.2123	0.7732	0.009
Mof_C 	C 	0.518	0.2314	0.7146	-0.087
Mof_C 	C 	0.52827	0.2307	0.6744	0.063
Mof_H 	H 	0.5226	0.2322	0.6459	0.007
Mof_C 	C 	0.54607	0.228	0.6773	-0.198
Mof_H 	H 	0.5527	0.2289	0.6501	0.102
Mof_C 	C 	0.5547	0.2242	0.7142	0.169
Mof_C 	C 	0.67797	0.8987	0.8556	0.073
Mof_H 	H 	0.6845	0.9262	0.8549	-0.004
Mof_C 	C 	0.67231	0.7964	0.7849	0.084
Mof_C 	C 	0.64452	0.0187	0.9173	0.405
Mof_C 	C 	0.63325	0.0492	0.8874	-0.166
Mof_C 	C 	0.62054	0.0326	0.8587	0.104
Mof_H 	H 	0.6182	0.001	0.8575	0.008
Mof_C 	C 	0.61144	0.061	0.8325	-0.177
Mof_H 	H 	0.603	0.0481	0.8124	0.089
Mof_C 	C 	0.61309	0.1061	0.8317	0.118
Mof_C 	C 	0.62652	0.1234	0.8609	-0.164
Mof_H 	H 	0.629	0.1549	0.8614	0.084
Mof_C 	C 	0.63571	0.0948	0.888	0.094
Mof_H 	H 	0.6442	0.107	0.9083	0.008
Mof_C 	C 	0.60246	0.1355	0.8031	-0.078
Mof_C 	C 	0.58575	0.1239	0.7843	0.047
Mof_H 	H 	0.5805	0.0958	0.7923	0.012
Mof_C 	C 	0.57724	0.1503	0.7564	-0.162
Mof_H 	H 	0.5664	0.1398	0.7437	0.088
Mof_C 	C 	0.58327	0.1931	0.7445	0.142
Mof_C 	C 	0.5993	0.2075	0.7634	-0.148
Mof_H 	H 	0.6037	0.2369	0.7567	0.084
Mof_C 	C 	0.60905	0.1792	0.7922	0.026
Mof_H 	H 	0.6201	0.1893	0.8044	0.018
Mof_N 	N 	0.57395	0.2201	0.7139	-0.178
Mof_N 	N 	0.66706	0.89108	0.8898	-0.261
Mof_N 	N 	0.66303	0.75857	0.777	-0.094
Mof_N 	N 	0.68225	0.7665	0.7221	-0.09
Mof_N 	N 	0.68379	0.8013	0.7513	-0.087
Mof_N 	N 	0.64965	0.7391	0.8043	-0.232
Mof_H 	H 	0.6466	0.752	0.8297	0.138
Mof_H 	H 	0.6444	0.7139	0.7958	0.145
Mof_N 	N 	0.65201	0.6215	0.6718	-0.251
Mof_O 	O 	0.65548	0.40327	0.4855	-0.483
Mof_O 	O 	0.64183	0.46348	0.515	-0.469
Mof_O 	O 	0.65225	0.03696	0.9498	-0.477
Mof_O 	O 	0.64437	0.97745	0.9074	-0.492
Mof_O 	O 	0.43623	0.28271	0.6857	-0.548
Mof_O 	O 	0.4333	0.2466	0.749	-0.511
Mof_Zn	Zn	0.66267	0.94071	0.9355	1.222
Mof_Zn	Zn	0.65697	0.02147	0.0179	1.214
Mof_C 	C 	0.62913	0.0871	0.0536	0.4
Mof_C 	C 	0.61777	0.1194	0.0273	-0.157
Mof_C 	C 	0.61196	0.1067	0.985	0.083
Mof_H 	H 	0.6151	0.0781	0.9728	0.022
Mof_C 	C 	0.60122	0.137	0.9604	-0.148
Mof_H 	H 	0.5972	0.1291	0.9311	0.088
Mof_C 	C 	0.59647	0.1781	0.9785	0.111
Mof_C 	C 	0.60167	0.1901	0.0209	-0.156
Mof_H 	H 	0.5977	0.2178	0.0336	0.082
Mof_C 	C 	0.61307	0.161	0.0461	0.072
Mof_H 	H 	0.6173	0.1696	0.0749	0.022
Mof_C 	C 	0.58544	0.211	0.9516	-0.064
Mof_C 	C 	0.58871	0.2166	0.9047	0.028
Mof_H 	H 	0.5978	0.1996	0.8901	0.021
Mof_C 	C 	0.57878	0.2462	0.8815	-0.145
Mof_H 	H 	0.581	0.2506	0.8504	0.083
Mof_C 	C 	0.56538	0.2705	0.9024	0.129
Mof_C 	C 	0.56157	0.2647	0.9466	-0.152
Mof_H 	H 	0.5519	0.2808	0.9595	0.087
Mof_C 	C 	0.57132	0.2363	0.973	0.039
Mof_H 	H 	0.5689	0.2333	0.0042	0.01
Mof_C 	C 	0.63095	0.5106	0.6932	0.311
Mof_C 	C 	0.61923	0.4799	0.7211	-0.112
Mof_C 	C 	0.60272	0.4733	0.7079	0.044
Mof_H 	H 	0.5985	0.4866	0.6809	0.026
Mof_C 	C 	0.59092	0.4453	0.7355	-0.134
Mof_H 	H 	0.5788	0.442	0.7271	0.075
Mof_C 	C 	0.59679	0.4249	0.7711	0.086
Mof_C 	C 	0.61513	0.4305	0.7844	-0.125
Mof_H 	H 	0.6197	0.4164	0.8107	0.072
Mof_C 	C 	0.62577	0.4571	0.7575	0.042
Mof_H 	H 	0.6381	0.4598	0.7645	0.031
Mof_C 	C 	0.5846	0.3942	0.799	-0.057
Mof_C 	C 	0.57071	0.3734	0.7816	0.026
Mof_H 	H 	0.5673	0.381	0.7518	0.019
Mof_C 	C 	0.56071	0.3407	0.8041	-0.15
Mof_H 	H 	0.552	0.3229	0.7889	0.083
Mof_C 	C 	0.56399	0.3356	0.8487	0.134
Mof_C 	C 	0.57837	0.3597	0.8698	-0.139
Mof_H 	H 	0.5808	0.3546	0.9007	0.082
Mof_C 	C 	0.58813	0.3884	0.8475	0.023
Mof_H 	H 	0.5973	0.405	0.862	0.021
Mof_C 	C 	0.4249	0.2331	0.8555	0.358
Mof_C 	C 	0.44439	0.2465	0.8583	-0.116
Mof_C 	C 	0.45606	0.2182	0.8809	0.05
Mof_H 	H 	0.4519	0.1916	0.8953	0.027
Mof_C 	C 	0.47412	0.2297	0.8819	-0.131
Mof_H 	H 	0.4823	0.2104	0.897	0.074
Mof_C 	C 	0.48021	0.2673	0.8622	0.083
Mof_C 	C 	0.4688	0.2962	0.8398	-0.117
Mof_H 	H 	0.4734	0.3226	0.8258	0.072
Mof_C 	C 	0.44973	0.2862	0.8377	0.042
Mof_H 	H 	0.4415	0.3057	0.8231	0.032
Mof_C 	C 	0.49984	0.2784	0.8639	-0.047
Mof_C 	C 	0.51187	0.2426	0.8721	0.013
Mof_H 	H 	0.5075	0.2128	0.8764	0.022
Mof_C 	C 	0.52983	0.2507	0.874	-0.137
Mof_H 	H 	0.5379	0.2264	0.8785	0.08
Mof_C 	C 	0.53627	0.2948	0.8693	0.13
Mof_C 	C 	0.52495	0.3289	0.8617	-0.138
Mof_H 	H 	0.5295	0.3587	0.8587	0.081
Mof_C 	C 	0.50603	0.3215	0.8581	0.01
Mof_H 	H 	0.4981	0.3457	0.8518	0.026
Mof_N 	N 	0.55492	0.3039	0.8752	-0.169
Mof_O 	O 	0.41449	0.25433	0.8303	-0.456
Mof_O 	O 	0.42052	0.2006	0.8808	-0.478
Mof_O 	O 	0.63224	0.04896	0.0372	-0.458
Mof_O 	O 	0.63399	0.10083	0.091	-0.496
Mof_O 	O 	0.62593	0.52708	0.659	-0.468
Mof_O 	O 	0.64751	0.5183	0.7106	-0.302
Mof_Zn	Zn	0.64552	0.56473	0.6377	1.225
_end
