# CIF file generated by openbabel 3.1.0, see https://openbabel.org
data_I
_chemical_name_common 'image0'
_cell_length_a 17.6907
_cell_length_b 16.1672
_cell_length_c 16.8283
_cell_angle_alpha 90
_cell_angle_beta 90
_cell_angle_gamma 90
_space_group_name_H-M_alt 'P 1'
_space_group_name_Hall 'P 1'
loop_
    _symmetry_equiv_pos_as_xyz
    x,y,z
loop_
    _atom_site_label
    _atom_site_type_symbol
    _atom_site_fract_x
    _atom_site_fract_y
    _atom_site_fract_z
    _atom_site_occupancy
    Cd1      Cd       0.25416    0.17057    0.27661    1.000
    C1       C        0.24530    0.27940    0.15240    1.000
    C2       C        0.22790    0.34560    0.09010    1.000
    H1       H        0.19900    0.32030    0.04760    1.000
    H2       H        0.19620    0.38740    0.11440    1.000
    C3       C        0.29560    0.38780    0.05410    1.000
    H3       H        0.32390    0.34800    0.02290    1.000
    H4       H        0.32830    0.40740    0.09640    1.000
    C4       C        0.27400    0.46020    0.00150    1.000
    H5       H        0.31740    0.47540    0.96950    1.000
    H6       H        0.23430    0.44250    0.96560    1.000
    C5       C        0.24720    0.53520    0.04580    1.000
    H7       H        0.28740    0.55340    0.08090    1.000
    H8       H        0.20470    0.51950    0.07880    1.000
    C6       C        0.22350    0.60810    0.99410    1.000
    H9       H        0.19010    0.58820    0.95260    1.000
    H10      H        0.19510    0.64690    0.02640    1.000
    C7       C        0.28850    0.65300    0.95640    1.000
    H11      H        0.31960    0.67650    0.99810    1.000
    H12      H        0.31920    0.61310    0.92790    1.000
    C8       C        0.26700    0.72050    0.90020    1.000
    C9       C        0.14530    0.00320    0.28550    1.000
    H13      H        0.17830    0.97000    0.25660    1.000
    C10      C        0.07830    0.97800    0.31570    1.000
    H14      H        0.05680    0.92570    0.31140    1.000
    C11      C        0.09800    0.10770    0.34600    1.000
    H15      H        0.09140    0.16020    0.36750    1.000
    C12      C        0.97700    0.04870    0.39720    1.000
    H16      H        0.94450    0.00440    0.37880    1.000
    H17      H        0.95200    0.10070    0.38560    1.000
    C13      C        0.98760    0.04080    0.48690    1.000
    H18      H        0.02440    0.08150    0.50410    1.000
    H19      H        0.94000    0.05370    0.51280    1.000
    C14      C        0.34880    0.99610    0.25540    1.000
    H20      H        0.31800    0.96630    0.28990    1.000
    C15      C        0.40580    0.96410    0.21260    1.000
    H21      H        0.42110    0.90910    0.21190    1.000
    C16      C        0.39740    0.09570    0.18910    1.000
    H22      H        0.40700    0.14800    0.16840    1.000
    C17      C        0.49790    0.02200    0.11190    1.000
    H23      H        0.53330    0.97920    0.12760    1.000
    H24      H        0.52490    0.07420    0.11080    1.000
    C18      C        0.46860    0.00320    0.03020    1.000
    H25      H        0.43390    0.04650    0.01410    1.000
    H26      H        0.44090    0.95150    0.03150    1.000
    N1       N        0.15740    0.08450    0.30350    1.000
    N2       N        0.04880    0.04550    0.35380    1.000
    N3       N        0.34300    0.07860    0.24080    1.000
    N4       N        0.43690    0.02690    0.17070    1.000
    O1       O        0.19210    0.23150    0.17030    1.000
    O2       O        0.30690    0.27460    0.18690    1.000
    O3       O        0.31760    0.77250    0.88290    1.000
    O4       O        0.20430    0.72340    0.86730    1.000
    Cd2      Cd       0.74584    0.17057    0.22339    1.000
    C19      C        0.75470    0.27940    0.34760    1.000
    C20      C        0.77210    0.34560    0.40990    1.000
    H27      H        0.80100    0.32030    0.45240    1.000
    H28      H        0.80380    0.38740    0.38560    1.000
    C21      C        0.70440    0.38780    0.44590    1.000
    H29      H        0.67610    0.34800    0.47710    1.000
    H30      H        0.67170    0.40740    0.40360    1.000
    C22      C        0.72600    0.46020    0.49850    1.000
    H31      H        0.68260    0.47540    0.53050    1.000
    H32      H        0.76570    0.44250    0.53440    1.000
    C23      C        0.75280    0.53520    0.45420    1.000
    H33      H        0.71260    0.55340    0.41910    1.000
    H34      H        0.79530    0.51950    0.42120    1.000
    C24      C        0.77650    0.60810    0.50590    1.000
    H35      H        0.80990    0.58820    0.54740    1.000
    H36      H        0.80490    0.64690    0.47360    1.000
    C25      C        0.71150    0.65300    0.54360    1.000
    H37      H        0.68040    0.67650    0.50190    1.000
    H38      H        0.68080    0.61310    0.57210    1.000
    C26      C        0.73300    0.72050    0.59980    1.000
    C27      C        0.85470    0.00320    0.21450    1.000
    H39      H        0.82170    0.97000    0.24340    1.000
    C28      C        0.92170    0.97800    0.18430    1.000
    H40      H        0.94320    0.92570    0.18860    1.000
    C29      C        0.90200    0.10770    0.15400    1.000
    H41      H        0.90860    0.16020    0.13250    1.000
    C30      C        0.02300    0.04870    0.10280    1.000
    H42      H        0.05550    0.00440    0.12120    1.000
    H43      H        0.04800    0.10070    0.11440    1.000
    C31      C        0.01240    0.04080    0.01310    1.000
    H44      H        0.97560    0.08150    0.99590    1.000
    H45      H        0.06000    0.05370    0.98720    1.000
    C32      C        0.65120    0.99610    0.24460    1.000
    H46      H        0.68200    0.96630    0.21010    1.000
    C33      C        0.59420    0.96410    0.28740    1.000
    H47      H        0.57890    0.90910    0.28810    1.000
    C34      C        0.60260    0.09570    0.31090    1.000
    H48      H        0.59300    0.14800    0.33160    1.000
    C35      C        0.50210    0.02200    0.38810    1.000
    H49      H        0.46670    0.97920    0.37240    1.000
    H50      H        0.47510    0.07420    0.38920    1.000
    C36      C        0.53140    0.00320    0.46980    1.000
    H51      H        0.56610    0.04650    0.48590    1.000
    H52      H        0.55910    0.95150    0.46850    1.000
    N5       N        0.84260    0.08450    0.19650    1.000
    N6       N        0.95120    0.04550    0.14620    1.000
    N7       N        0.65700    0.07860    0.25920    1.000
    N8       N        0.56310    0.02690    0.32930    1.000
    O5       O        0.80790    0.23150    0.32970    1.000
    O6       O        0.69310    0.27460    0.31310    1.000
    O7       O        0.68240    0.77250    0.61710    1.000
    O8       O        0.79570    0.72340    0.63270    1.000
    Cd3      Cd       0.74584    0.82943    0.72339    1.000
    C37      C        0.75470    0.72060    0.84760    1.000
    C38      C        0.77210    0.65440    0.90990    1.000
    H53      H        0.80100    0.67970    0.95240    1.000
    H54      H        0.80380    0.61260    0.88560    1.000
    C39      C        0.70440    0.61220    0.94590    1.000
    H55      H        0.67610    0.65200    0.97710    1.000
    H56      H        0.67170    0.59260    0.90360    1.000
    C40      C        0.72600    0.53980    0.99850    1.000
    H57      H        0.68260    0.52460    0.03050    1.000
    H58      H        0.76570    0.55750    0.03440    1.000
    C41      C        0.75280    0.46480    0.95420    1.000
    H59      H        0.71260    0.44660    0.91910    1.000
    H60      H        0.79530    0.48050    0.92120    1.000
    C42      C        0.77650    0.39190    0.00590    1.000
    H61      H        0.80990    0.41180    0.04740    1.000
    H62      H        0.80490    0.35310    0.97360    1.000
    C43      C        0.71150    0.34700    0.04360    1.000
    H63      H        0.68040    0.32350    0.00190    1.000
    H64      H        0.68080    0.38690    0.07210    1.000
    C44      C        0.73300    0.27950    0.09980    1.000
    C45      C        0.85470    0.99680    0.71450    1.000
    H65      H        0.82170    0.03000    0.74340    1.000
    C46      C        0.92170    0.02200    0.68430    1.000
    H66      H        0.94320    0.07430    0.68860    1.000
    C47      C        0.90200    0.89230    0.65400    1.000
    H67      H        0.90860    0.83980    0.63250    1.000
    C48      C        0.02300    0.95130    0.60280    1.000
    H68      H        0.05550    0.99560    0.62120    1.000
    H69      H        0.04800    0.89930    0.61440    1.000
    C49      C        0.01240    0.95920    0.51310    1.000
    H70      H        0.97560    0.91850    0.49590    1.000
    H71      H        0.06000    0.94630    0.48720    1.000
    C50      C        0.65120    0.00390    0.74460    1.000
    H72      H        0.68200    0.03370    0.71010    1.000
    C51      C        0.59420    0.03590    0.78740    1.000
    H73      H        0.57890    0.09090    0.78810    1.000
    C52      C        0.60260    0.90430    0.81090    1.000
    H74      H        0.59300    0.85200    0.83160    1.000
    C53      C        0.50210    0.97800    0.88810    1.000
    H75      H        0.46670    0.02080    0.87240    1.000
    H76      H        0.47510    0.92580    0.88920    1.000
    C54      C        0.53140    0.99680    0.96980    1.000
    H77      H        0.56610    0.95350    0.98590    1.000
    H78      H        0.55910    0.04850    0.96850    1.000
    N9       N        0.84260    0.91550    0.69650    1.000
    N10      N        0.95120    0.95450    0.64620    1.000
    N11      N        0.65700    0.92140    0.75920    1.000
    N12      N        0.56310    0.97310    0.82930    1.000
    O9       O        0.80790    0.76850    0.82970    1.000
    O10      O        0.69310    0.72540    0.81310    1.000
    O11      O        0.68240    0.22750    0.11710    1.000
    O12      O        0.79570    0.27660    0.13270    1.000
    Cd4      Cd       0.25416    0.82943    0.77661    1.000
    C55      C        0.24530    0.72060    0.65240    1.000
    C56      C        0.22790    0.65440    0.59010    1.000
    H79      H        0.19900    0.67970    0.54760    1.000
    H80      H        0.19620    0.61260    0.61440    1.000
    C57      C        0.29560    0.61220    0.55410    1.000
    H81      H        0.32390    0.65200    0.52290    1.000
    H82      H        0.32830    0.59260    0.59640    1.000
    C58      C        0.27400    0.53980    0.50150    1.000
    H83      H        0.31740    0.52460    0.46950    1.000
    H84      H        0.23430    0.55750    0.46560    1.000
    C59      C        0.24720    0.46480    0.54580    1.000
    H85      H        0.28740    0.44660    0.58090    1.000
    H86      H        0.20470    0.48050    0.57880    1.000
    C60      C        0.22350    0.39190    0.49410    1.000
    H87      H        0.19010    0.41180    0.45260    1.000
    H88      H        0.19510    0.35310    0.52640    1.000
    C61      C        0.28850    0.34700    0.45640    1.000
    H89      H        0.31960    0.32350    0.49810    1.000
    H90      H        0.31920    0.38690    0.42790    1.000
    C62      C        0.26700    0.27950    0.40020    1.000
    C63      C        0.14530    0.99680    0.78550    1.000
    H91      H        0.17830    0.03000    0.75660    1.000
    C64      C        0.07830    0.02200    0.81570    1.000
    H92      H        0.05680    0.07430    0.81140    1.000
    C65      C        0.09800    0.89230    0.84600    1.000
    H93      H        0.09140    0.83980    0.86750    1.000
    C66      C        0.97700    0.95130    0.89720    1.000
    H94      H        0.94450    0.99560    0.87880    1.000
    H95      H        0.95200    0.89930    0.88560    1.000
    C67      C        0.98760    0.95920    0.98690    1.000
    H96      H        0.02440    0.91850    0.00410    1.000
    H97      H        0.94000    0.94630    0.01280    1.000
    C68      C        0.34880    0.00390    0.75540    1.000
    H98      H        0.31800    0.03370    0.78990    1.000
    C69      C        0.40580    0.03590    0.71260    1.000
    H99      H        0.42110    0.09090    0.71190    1.000
    C70      C        0.39740    0.90430    0.68910    1.000
    H100     H        0.40700    0.85200    0.66840    1.000
    C71      C        0.49790    0.97800    0.61190    1.000
    H101     H        0.53330    0.02080    0.62760    1.000
    H102     H        0.52490    0.92580    0.61080    1.000
    C72      C        0.46860    0.99680    0.53020    1.000
    H103     H        0.43390    0.95350    0.51410    1.000
    H104     H        0.44090    0.04850    0.53150    1.000
    N13      N        0.15740    0.91550    0.80350    1.000
    N14      N        0.04880    0.95450    0.85380    1.000
    N15      N        0.34300    0.92140    0.74080    1.000
    N16      N        0.43690    0.97310    0.67070    1.000
    O13      O        0.19210    0.76850    0.67030    1.000
    O14      O        0.30690    0.72540    0.68690    1.000
    O15      O        0.31760    0.22750    0.38290    1.000
    O16      O        0.20430    0.27660    0.36730    1.000
    Cd5      Cd       0.24584    0.32943    0.77661    1.000
    C73      C        0.25470    0.22060    0.65240    1.000
    C74      C        0.27210    0.15440    0.59010    1.000
    H105     H        0.30100    0.17970    0.54760    1.000
    H106     H        0.30380    0.11260    0.61440    1.000
    C75      C        0.20440    0.11220    0.55410    1.000
    H107     H        0.17610    0.15200    0.52290    1.000
    H108     H        0.17170    0.09260    0.59640    1.000
    C76      C        0.22600    0.03980    0.50150    1.000
    H109     H        0.18260    0.02460    0.46950    1.000
    H110     H        0.26570    0.05750    0.46560    1.000
    C77      C        0.25280    0.96480    0.54580    1.000
    H111     H        0.21260    0.94660    0.58090    1.000
    H112     H        0.29530    0.98050    0.57880    1.000
    C78      C        0.27650    0.89190    0.49410    1.000
    H113     H        0.30990    0.91180    0.45260    1.000
    H114     H        0.30490    0.85310    0.52640    1.000
    C79      C        0.21150    0.84700    0.45640    1.000
    H115     H        0.18040    0.82350    0.49810    1.000
    H116     H        0.18080    0.88690    0.42790    1.000
    C80      C        0.23300    0.77950    0.40020    1.000
    C81      C        0.35470    0.49680    0.78550    1.000
    H117     H        0.32170    0.53000    0.75660    1.000
    C82      C        0.42170    0.52200    0.81570    1.000
    H118     H        0.44320    0.57430    0.81140    1.000
    C83      C        0.40200    0.39230    0.84600    1.000
    H119     H        0.40860    0.33980    0.86750    1.000
    C84      C        0.52300    0.45130    0.89720    1.000
    H120     H        0.55550    0.49560    0.87880    1.000
    H121     H        0.54800    0.39930    0.88560    1.000
    C85      C        0.51240    0.45920    0.98690    1.000
    H122     H        0.47560    0.41850    0.00410    1.000
    H123     H        0.56000    0.44630    0.01280    1.000
    C86      C        0.15120    0.50390    0.75540    1.000
    H124     H        0.18200    0.53370    0.78990    1.000
    C87      C        0.09420    0.53590    0.71260    1.000
    H125     H        0.07890    0.59090    0.71190    1.000
    C88      C        0.10260    0.40430    0.68910    1.000
    H126     H        0.09300    0.35200    0.66840    1.000
    C89      C        0.00210    0.47800    0.61190    1.000
    H127     H        0.96670    0.52080    0.62760    1.000
    H128     H        0.97510    0.42580    0.61080    1.000
    C90      C        0.03140    0.49680    0.53020    1.000
    H129     H        0.06610    0.45350    0.51410    1.000
    H130     H        0.05910    0.54850    0.53150    1.000
    N17      N        0.34260    0.41550    0.80350    1.000
    N18      N        0.45120    0.45450    0.85380    1.000
    N19      N        0.15700    0.42140    0.74080    1.000
    N20      N        0.06310    0.47310    0.67070    1.000
    O17      O        0.30790    0.26850    0.67030    1.000
    O18      O        0.19310    0.22540    0.68690    1.000
    O19      O        0.18240    0.72750    0.38290    1.000
    O20      O        0.29570    0.77660    0.36730    1.000
    Cd6      Cd       0.75416    0.32943    0.72339    1.000
    C91      C        0.74530    0.22060    0.84760    1.000
    C92      C        0.72790    0.15440    0.90990    1.000
    H131     H        0.69900    0.17970    0.95240    1.000
    H132     H        0.69620    0.11260    0.88560    1.000
    C93      C        0.79560    0.11220    0.94590    1.000
    H133     H        0.82390    0.15200    0.97710    1.000
    H134     H        0.82830    0.09260    0.90360    1.000
    C94      C        0.77400    0.03980    0.99850    1.000
    H135     H        0.81740    0.02460    0.03050    1.000
    H136     H        0.73430    0.05750    0.03440    1.000
    C95      C        0.74720    0.96480    0.95420    1.000
    H137     H        0.78740    0.94660    0.91910    1.000
    H138     H        0.70470    0.98050    0.92120    1.000
    C96      C        0.72350    0.89190    0.00590    1.000
    H139     H        0.69010    0.91180    0.04740    1.000
    H140     H        0.69510    0.85310    0.97360    1.000
    C97      C        0.78850    0.84700    0.04360    1.000
    H141     H        0.81960    0.82350    0.00190    1.000
    H142     H        0.81920    0.88690    0.07210    1.000
    C98      C        0.76700    0.77950    0.09980    1.000
    C99      C        0.64530    0.49680    0.71450    1.000
    H143     H        0.67830    0.53000    0.74340    1.000
    C100     C        0.57830    0.52200    0.68430    1.000
    H144     H        0.55680    0.57430    0.68860    1.000
    C101     C        0.59800    0.39230    0.65400    1.000
    H145     H        0.59140    0.33980    0.63250    1.000
    C102     C        0.47700    0.45130    0.60280    1.000
    H146     H        0.44450    0.49560    0.62120    1.000
    H147     H        0.45200    0.39930    0.61440    1.000
    C103     C        0.48760    0.45920    0.51310    1.000
    H148     H        0.52440    0.41850    0.49590    1.000
    H149     H        0.44000    0.44630    0.48720    1.000
    C104     C        0.84880    0.50390    0.74460    1.000
    H150     H        0.81800    0.53370    0.71010    1.000
    C105     C        0.90580    0.53590    0.78740    1.000
    H151     H        0.92110    0.59090    0.78810    1.000
    C106     C        0.89740    0.40430    0.81090    1.000
    H152     H        0.90700    0.35200    0.83160    1.000
    C107     C        0.99790    0.47800    0.88810    1.000
    H153     H        0.03330    0.52080    0.87240    1.000
    H154     H        0.02490    0.42580    0.88920    1.000
    C108     C        0.96860    0.49680    0.96980    1.000
    H155     H        0.93390    0.45350    0.98590    1.000
    H156     H        0.94090    0.54850    0.96850    1.000
    N21      N        0.65740    0.41550    0.69650    1.000
    N22      N        0.54880    0.45450    0.64620    1.000
    N23      N        0.84300    0.42140    0.75920    1.000
    N24      N        0.93690    0.47310    0.82930    1.000
    O21      O        0.69210    0.26850    0.82970    1.000
    O22      O        0.80690    0.22540    0.81310    1.000
    O23      O        0.81760    0.72750    0.11710    1.000
    O24      O        0.70430    0.77660    0.13270    1.000
    Cd7      Cd       0.75416    0.67057    0.22339    1.000
    C109     C        0.74530    0.77940    0.34760    1.000
    C110     C        0.72790    0.84560    0.40990    1.000
    H157     H        0.69900    0.82030    0.45240    1.000
    H158     H        0.69620    0.88740    0.38560    1.000
    C111     C        0.79560    0.88780    0.44590    1.000
    H159     H        0.82390    0.84800    0.47710    1.000
    H160     H        0.82830    0.90740    0.40360    1.000
    C112     C        0.77400    0.96020    0.49850    1.000
    H161     H        0.81740    0.97540    0.53050    1.000
    H162     H        0.73430    0.94250    0.53440    1.000
    C113     C        0.74720    0.03520    0.45420    1.000
    H163     H        0.78740    0.05340    0.41910    1.000
    H164     H        0.70470    0.01950    0.42120    1.000
    C114     C        0.72350    0.10810    0.50590    1.000
    H165     H        0.69010    0.08820    0.54740    1.000
    H166     H        0.69510    0.14690    0.47360    1.000
    C115     C        0.78850    0.15300    0.54360    1.000
    H167     H        0.81960    0.17650    0.50190    1.000
    H168     H        0.81920    0.11310    0.57210    1.000
    C116     C        0.76700    0.22050    0.59980    1.000
    C117     C        0.64530    0.50320    0.21450    1.000
    H169     H        0.67830    0.47000    0.24340    1.000
    C118     C        0.57830    0.47800    0.18430    1.000
    H170     H        0.55680    0.42570    0.18860    1.000
    C119     C        0.59800    0.60770    0.15400    1.000
    H171     H        0.59140    0.66020    0.13250    1.000
    C120     C        0.47700    0.54870    0.10280    1.000
    H172     H        0.44450    0.50440    0.12120    1.000
    H173     H        0.45200    0.60070    0.11440    1.000
    C121     C        0.48760    0.54080    0.01310    1.000
    H174     H        0.52440    0.58150    0.99590    1.000
    H175     H        0.44000    0.55370    0.98720    1.000
    C122     C        0.84880    0.49610    0.24460    1.000
    H176     H        0.81800    0.46630    0.21010    1.000
    C123     C        0.90580    0.46410    0.28740    1.000
    H177     H        0.92110    0.40910    0.28810    1.000
    C124     C        0.89740    0.59570    0.31090    1.000
    H178     H        0.90700    0.64800    0.33160    1.000
    C125     C        0.99790    0.52200    0.38810    1.000
    H179     H        0.03330    0.47920    0.37240    1.000
    H180     H        0.02490    0.57420    0.38920    1.000
    C126     C        0.96860    0.50320    0.46980    1.000
    H181     H        0.93390    0.54650    0.48590    1.000
    H182     H        0.94090    0.45150    0.46850    1.000
    N25      N        0.65740    0.58450    0.19650    1.000
    N26      N        0.54880    0.54550    0.14620    1.000
    N27      N        0.84300    0.57860    0.25920    1.000
    N28      N        0.93690    0.52690    0.32930    1.000
    O25      O        0.69210    0.73150    0.32970    1.000
    O26      O        0.80690    0.77460    0.31310    1.000
    O27      O        0.81760    0.27250    0.61710    1.000
    O28      O        0.70430    0.22340    0.63270    1.000
    Cd8      Cd       0.24584    0.67057    0.27661    1.000
    C127     C        0.25470    0.77940    0.15240    1.000
    C128     C        0.27210    0.84560    0.09010    1.000
    H183     H        0.30100    0.82030    0.04760    1.000
    H184     H        0.30380    0.88740    0.11440    1.000
    C129     C        0.20440    0.88780    0.05410    1.000
    H185     H        0.17610    0.84800    0.02290    1.000
    H186     H        0.17170    0.90740    0.09640    1.000
    C130     C        0.22600    0.96020    0.00150    1.000
    H187     H        0.18260    0.97540    0.96950    1.000
    H188     H        0.26570    0.94250    0.96560    1.000
    C131     C        0.25280    0.03520    0.04580    1.000
    H189     H        0.21260    0.05340    0.08090    1.000
    H190     H        0.29530    0.01950    0.07880    1.000
    C132     C        0.27650    0.10810    0.99410    1.000
    H191     H        0.30990    0.08820    0.95260    1.000
    H192     H        0.30490    0.14690    0.02640    1.000
    C133     C        0.21150    0.15300    0.95640    1.000
    H193     H        0.18040    0.17650    0.99810    1.000
    H194     H        0.18080    0.11310    0.92790    1.000
    C134     C        0.23300    0.22050    0.90020    1.000
    C135     C        0.35470    0.50320    0.28550    1.000
    H195     H        0.32170    0.47000    0.25660    1.000
    C136     C        0.42170    0.47800    0.31570    1.000
    H196     H        0.44320    0.42570    0.31140    1.000
    C137     C        0.40200    0.60770    0.34600    1.000
    H197     H        0.40860    0.66020    0.36750    1.000
    C138     C        0.52300    0.54870    0.39720    1.000
    H198     H        0.55550    0.50440    0.37880    1.000
    H199     H        0.54800    0.60070    0.38560    1.000
    C139     C        0.51240    0.54080    0.48690    1.000
    H200     H        0.47560    0.58150    0.50410    1.000
    H201     H        0.56000    0.55370    0.51280    1.000
    C140     C        0.15120    0.49610    0.25540    1.000
    H202     H        0.18200    0.46630    0.28990    1.000
    C141     C        0.09420    0.46410    0.21260    1.000
    H203     H        0.07890    0.40910    0.21190    1.000
    C142     C        0.10260    0.59570    0.18910    1.000
    H204     H        0.09300    0.64800    0.16840    1.000
    C143     C        0.00210    0.52200    0.11190    1.000
    H205     H        0.96670    0.47920    0.12760    1.000
    H206     H        0.97510    0.57420    0.11080    1.000
    C144     C        0.03140    0.50320    0.03020    1.000
    H207     H        0.06610    0.54650    0.01410    1.000
    H208     H        0.05910    0.45150    0.03150    1.000
    N29      N        0.34260    0.58450    0.30350    1.000
    N30      N        0.45120    0.54550    0.35380    1.000
    N31      N        0.15700    0.57860    0.24080    1.000
    N32      N        0.06310    0.52690    0.17070    1.000
    O29      O        0.30790    0.73150    0.17030    1.000
    O30      O        0.19310    0.77460    0.18690    1.000
    O31      O        0.18240    0.27250    0.88290    1.000
    O32      O        0.29570    0.22340    0.86730    1.000
