data_functionalizedCrystal
_audit_creation_method	'EQeq! by Chris Wilmer'
_symmetry_space_group_name_H-M	'P1'
_symmetry_Int_Tables_number	1
_symmetry_cell_setting	triclinic
loop_
_symmetry_equiv_pos_as_xyz
  x,y,z
_cell_length_a	13.7981
_cell_length_b	27.6775
_cell_length_c	44.3415
_cell_angle_alpha	90
_cell_angle_beta	90
_cell_angle_gamma	90
loop_
_atom_site_label
_atom_site_type_symbol
_atom_site_fract_x
_atom_site_fract_y
_atom_site_fract_z
_atom_site_charge
Mof_Zn	Zn	0.37	0.47915	0.08295	1.18
Mof_Zn	Zn	0.65692	0.54634	0.58328	1.179
Mof_Zn	Zn	0.34259	0.75208	0.82086	1.18
Mof_Zn	Zn	0.63	0.02085	0.58295	1.18
Mof_Zn	Zn	0.84308	0.04634	0.41672	1.179
Mof_Zn	Zn	0.34308	0.95366	0.08328	1.179
Mof_Zn	Zn	0.13	0.97915	0.91705	1.18
Mof_Zn	Zn	0.15692	0.45366	0.91672	1.179
Mof_Zn	Zn	0.15741	0.25208	0.17914	1.18
Mof_Zn	Zn	0.87	0.52085	0.41705	1.18
Mof_Zn	Zn	0.65741	0.74792	0.32086	1.18
Mof_Zn	Zn	0.84259	0.24792	0.67914	1.18
Mof_H 	H 	0.366	0.6836	0.3735	0.081
Mof_H 	H 	0.4858	0.0799	0.6155	0.004
Mof_H 	H 	0.9598	0.1505	0.3333	0.083
Mof_H 	H 	0.675	0.3905	0.109	0.098
Mof_H 	H 	0.989	0.9689	0.967	0
Mof_H 	H 	0.603	0.7249	0.5891	0.086
Mof_H 	H 	0.0459	0.1942	0.2245	0.003
Mof_H 	H 	0.9585	0.1543	0.768	0.084
Mof_H 	H 	0.1169	0.3671	0.0952	0.088
Mof_H 	H 	0.4598	0.8495	0.1667	0.082
Mof_H 	H 	0.8945	0.4137	0.4305	-0.003
Mof_H 	H 	0.3991	0.8338	0.7808	-0.011
Mof_H 	H 	0.0142	0.5799	0.3845	0.003
Mof_H 	H 	0.4616	0.5297	0.5574	-0.011
Mof_H 	H 	0.952	0.4157	0.3284	0.075
Mof_H 	H 	0.5761	0.5813	0.6407	-0.008
Mof_H 	H 	0.4541	0.6942	0.7755	0.002
Mof_H 	H 	0.7986	0.067	0.4815	-0.009
Mof_H 	H 	0.9122	0.3435	0.4078	0.079
Mof_H 	H 	0.9858	0.9201	0.8845	0.003
Mof_H 	H 	0.508	0.7018	0.7272	0.084
Mof_H 	H 	0.992	0.2018	0.2728	0.082
Mof_H 	H 	0.9289	0.4875	0.3548	0
Mof_H 	H 	0.634	0.8164	0.8735	0.08
Mof_H 	H 	0.4122	0.6565	0.0922	0.079
Mof_H 	H 	0.1009	0.3338	0.2192	-0.011
Mof_H 	H 	0.045	0.2197	0.6658	-0.002
Mof_H 	H 	0.452	0.5843	0.1716	0.075
Mof_H 	H 	0.2014	0.433	0.9815	-0.009
Mof_H 	H 	0.0711	0.0125	0.8548	0
Mof_H 	H 	0.325	0.1095	0.609	0.097
Mof_H 	H 	0.4289	0.5125	0.1452	0
Mof_H 	H 	0.5142	0.4201	0.1155	0.003
Mof_H 	H 	0.825	0.8905	0.891	0.097
Mof_H 	H 	0.455	0.7197	0.3342	-0.002
Mof_H 	H 	0.9541	0.3058	0.7245	0.002
Mof_H 	H 	0.866	0.3164	0.1265	0.079
Mof_H 	H 	0.1755	0.5536	0.4761	0.096
Mof_H 	H 	0.492	0.7982	0.2272	0.084
Mof_H 	H 	0.489	0.0311	0.533	-0.001
Mof_H 	H 	0.955	0.2803	0.1658	-0.002
Mof_H 	H 	0.4585	0.8457	0.732	0.083
Mof_H 	H 	0.1963	0.3321	0.1332	0.01
Mof_H 	H 	0.5459	0.8058	0.2755	0.002
Mof_H 	H 	0.5711	0.9875	0.6452	0
Mof_H 	H 	0.3245	0.0536	0.5239	0.096
Mof_H 	H 	0.545	0.7803	0.8342	-0.002
Mof_H 	H 	0.1393	0.3496	0.9319	-0.028
Mof_H 	H 	0.008	0.2982	0.7728	0.083
Mof_H 	H 	0.6755	0.4464	0.0239	0.096
Mof_H 	H 	0.5415	0.6543	0.232	0.083
Mof_H 	H 	0.3831	0.8671	0.9048	0.088
Mof_H 	H 	0.0402	0.3495	0.8333	0.082
Mof_H 	H 	0.6393	0.6504	0.5681	-0.028
Mof_H 	H 	0.8831	0.1329	0.5952	0.088
Mof_H 	H 	0.3729	0.9096	0.9746	0.086
Mof_H 	H 	0.0415	0.3457	0.268	0.083
Mof_H 	H 	0.3945	0.5863	0.0695	-0.003
Mof_H 	H 	0.011	0.5311	0.467	-0.001
Mof_H 	H 	0.8037	0.1679	0.6332	0.01
Mof_H 	H 	0.5402	0.6505	0.6667	0.082
Mof_H 	H 	0.1272	0.052	0.4855	0.097
Mof_H 	H 	0.1055	0.0863	0.9305	-0.003
Mof_H 	H 	0.8607	0.1504	0.4319	-0.028
Mof_H 	H 	0.0761	0.4187	0.8593	-0.008
Mof_H 	H 	0.9616	0.4703	0.9426	-0.011
Mof_H 	H 	0.103	0.2751	0.9109	0.085
Mof_H 	H 	0.6055	0.9137	0.5695	-0.003
Mof_H 	H 	0.3037	0.8321	0.8668	0.01
Mof_H 	H 	0.1271	0.4096	0.0254	0.086
Mof_H 	H 	0.4239	0.9187	0.1407	-0.008
Mof_H 	H 	0.397	0.7751	0.0891	0.085
Mof_H 	H 	0.6963	0.6679	0.3668	0.01
Mof_H 	H 	0.548	0.9157	0.6716	0.075
Mof_H 	H 	0.175	0.6095	0.391	0.097
Mof_H 	H 	0.0878	0.1565	0.9078	0.079
Mof_H 	H 	0.0384	0.0297	0.4426	-0.011
Mof_H 	H 	0.8728	0.448	0.9855	0.096
Mof_H 	H 	0.3728	0.552	0.5145	0.096
Mof_H 	H 	0.5384	0.9703	0.0574	-0.011
Mof_H 	H 	0.048	0.0843	0.8284	0.075
Mof_H 	H 	0.6169	0.6329	0.4048	0.088
Mof_H 	H 	0.897	0.2249	0.4109	0.085
Mof_H 	H 	0.7014	0.567	0.5185	-0.009
Mof_H 	H 	0.9239	0.0813	0.3593	-0.008
Mof_H 	H 	0.5878	0.8435	0.5922	0.08
Mof_H 	H 	0.8991	0.1662	0.7192	-0.011
Mof_H 	H 	0.8245	0.9464	0.9761	0.096
Mof_H 	H 	0.134	0.1836	0.6265	0.08
Mof_H 	H 	0.2986	0.933	0.0185	-0.009
Mof_H 	H 	0.6271	0.5904	0.4746	0.086
Mof_H 	H 	0.8729	0.0904	0.5254	0.086
Mof_H 	H 	0.3607	0.8496	0.0681	-0.028
Mof_H 	H 	0.6009	0.6662	0.2808	-0.011
Mof_H 	H 	0.511	0.4689	0.033	-0.001
Mof_H 	H 	0.6272	0.948	0.0145	0.096
Mof_C 	C 	0.6927	0.418	0.0671	0.047
Mof_C 	C 	0.5165	0.8462	0.8945	0.062
Mof_C 	C 	0.4942	0.5431	0.5404	0.071
Mof_C 	C 	0.7022	0.903	0.9371	0.103
Mof_C 	C 	0.0553	0.2579	0.8518	0.097
Mof_C 	C 	0.4413	0.5553	0.5147	-0.13
Mof_C 	C 	0.9803	0.2788	0.3079	0.096
Mof_C 	C 	0.5637	0.8699	0.6355	0.042
Mof_C 	C 	0.5115	0.7959	0.8502	0.074
Mof_C 	C 	0.4398	0.5853	0.1505	-0.099
Mof_C 	C 	0.9051	0.4137	0.4094	0.073
Mof_C 	C 	0.9398	0.4147	0.3495	-0.099
Mof_C 	C 	0.9192	0.1517	0.6092	-0.115
Mof_C 	C 	0.0165	0.1538	0.6055	0.062
Mof_C 	C 	0.3073	0.082	0.5671	0.047
Mof_C 	C 	0.645	0.4406	0.0427	-0.12
Mof_C 	C 	0.4289	0.8024	0.1317	0.055
Mof_C 	C 	0.5783	0.693	0.2694	0.074
Mof_C 	C 	0.4255	0.5424	0.1348	0.057
Mof_C 	C 	0.8557	0.9083	0.9067	-0.114
Mof_C 	C 	0.9535	0.9542	0.9511	0.077
Mof_C 	C 	0.0467	0.225	0.2339	0.069
Mof_C 	C 	0.5602	0.9147	0.6505	-0.099
Mof_C 	C 	0.5986	0.6962	0.6008	-0.136
Mof_C 	C 	0.5711	0.6976	0.6317	0.055
Mof_C 	C 	0.4014	0.8038	0.1008	-0.136
Mof_C 	C 	0.0833	0.1276	0.8963	-0.111
Mof_C 	C 	0.4884	0.5717	0.4903	0.064
Mof_C 	C 	0.4835	0.6538	0.3945	0.062
Mof_C 	C 	0.4342	0.5888	0.4623	0.103
Mof_C 	C 	0.9413	0.4447	0.9853	-0.13
Mof_C 	C 	0.4803	0.7212	0.1921	0.097
Mof_C 	C 	0.9167	0.3724	0.3963	-0.111
Mof_C 	C 	0.145	0.5594	0.4573	-0.12
Mof_C 	C 	0.855	0.9406	0.9573	-0.12
Mof_C 	C 	0.1187	0.3487	0.9115	0.109
Mof_C 	C 	0.0825	0.3884	0.8692	0.069
Mof_C 	C 	0.1927	0.582	0.4329	0.047
Mof_C 	C 	0.4481	0.6767	0.1505	0.11
Mof_C 	C 	0.5467	0.775	0.2661	0.071
Mof_C 	C 	0.5587	0.9447	0.0147	-0.131
Mof_C 	C 	0.4387	0.8477	0.1464	-0.12
Mof_C 	C 	0.9014	0.1962	0.3992	-0.136
Mof_C 	C 	0.1328	0.4351	0.9823	0.098
Mof_C 	C 	0.9835	0.3462	0.1055	0.06
Mof_C 	C 	0.4447	0.7579	0.1482	0.098
Mof_C 	C 	0.0197	0.2212	0.8079	0.096
Mof_C 	C 	0.5655	0.8192	0.8729	-0.113
Mof_C 	C 	0.2022	0.097	0.5629	0.103
Mof_C 	C 	0.9557	0.1858	0.7596	-0.122
Mof_C 	C 	0.9853	0.2707	0.7621	-0.118
Mof_C 	C 	0.591	0.578	0.4912	-0.134
Mof_C 	C 	0.9885	0.2959	0.1498	0.072
Mof_C 	C 	0.3672	0.9351	0.0177	0.098
Mof_C 	C 	0.3813	0.8487	0.0885	0.109
Mof_C 	C 	0.4535	0.0458	0.5489	0.077
Mof_C 	C 	0.0986	0.3038	0.8992	-0.136
Mof_C 	C 	0.5613	0.6523	0.6464	-0.12
Mof_C 	C 	0.5465	0.4542	0.0489	0.077
Mof_C 	C 	0.9851	0.2251	0.7759	0.06
Mof_C 	C 	0.4363	0.6301	0.1355	0.042
Mof_C 	C 	0.0602	0.0853	0.8495	-0.099
Mof_C 	C 	0.5808	0.6517	0.3908	-0.115
Mof_C 	C 	0.3711	0.8263	0.8692	0.069
Mof_C 	C 	0.9342	0.4112	0.0377	0.103
Mof_C 	C 	0.5833	0.8724	0.6037	-0.111
Mof_C 	C 	0.4345	0.6808	0.3729	-0.113
Mof_C 	C 	0.4175	0.8884	0.1308	0.069
Mof_C 	C 	0.5149	0.7251	0.2241	0.06
Mof_C 	C 	0.4167	0.6276	0.1037	-0.111
Mof_C 	C 	0.7978	0.403	0.0629	0.103
Mof_C 	C 	0.0443	0.3142	0.2596	-0.122
Mof_C 	C 	0.0949	0.0863	0.9094	0.073
Mof_C 	C 	0.4533	0.725	0.7661	0.071
Mof_C 	C 	0.9533	0.275	0.7339	0.07
Mof_C 	C 	0.5658	0.9112	0.9623	0.103
Mof_C 	C 	0.9447	0.2421	0.3518	0.097
Mof_C 	C 	0.9321	0.3724	0.0815	0.108
Mof_C 	C 	0.9942	0.4569	0.9596	0.071
Mof_C 	C 	0.5058	0.9569	0.0404	0.071
Mof_C 	C 	0.0467	0.5747	0.4031	0.066
Mof_C 	C 	0.2978	0.597	0.4371	0.103
Mof_C 	C 	0.5443	0.6858	0.2404	-0.122
Mof_C 	C 	0.0679	0.1276	0.5815	0.108
Mof_C 	C 	0.0587	0.0553	0.4853	-0.131
Mof_C 	C 	0.6328	0.5649	0.5177	0.098
Mof_C 	C 	0.0711	0.3024	0.8683	0.055
Mof_C 	C 	0.4851	0.7749	0.7241	0.06
Mof_C 	C 	0.6187	0.6513	0.5885	0.109
Mof_C 	C 	0.0658	0.0888	0.5377	0.103
Mof_C 	C 	0.5949	0.9137	0.5906	0.074
Mof_C 	C 	0.9345	0.3192	0.1271	-0.111
Mof_C 	C 	0.5553	0.7421	0.6482	0.098
Mof_C 	C 	0.091	0.422	0.0088	-0.134
Mof_C 	C 	0.3557	0.0917	0.5933	-0.114
Mof_C 	C 	0.909	0.078	0.5088	-0.136
Mof_C 	C 	0.0783	0.307	0.2306	0.074
Mof_C 	C 	0.0613	0.3477	0.8536	-0.12
Mof_C 	C 	0.5745	0.9576	0.6348	0.057
Mof_C 	C 	0.0745	0.0424	0.8652	0.057
Mof_C 	C 	0.9533	0.9253	0.9031	0.066
Mof_C 	C 	0.8073	0.918	0.9329	0.047
Mof_C 	C 	0.8672	0.0649	0.4823	0.099
Mof_C 	C 	0.5197	0.7788	0.6921	0.097
Mof_C 	C 	0.9255	0.4576	0.3652	0.057
Mof_C 	C 	0.5116	0.9283	0.9903	0.064
Mof_C 	C 	0.5519	0.8233	0.6505	0.11
Mof_C 	C 	0.5679	0.8724	0.9185	0.108
Mof_C 	C 	0.8813	0.1513	0.4115	0.109
Mof_C 	C 	0.0149	0.2749	0.2759	0.06
Mof_C 	C 	0.9387	0.1523	0.3536	-0.12
Mof_C 	C 	0.9217	0.193	0.7306	0.074
Mof_C 	C 	0.0116	0.0717	0.5097	0.065
Mof_C 	C 	0.0637	0.1301	0.8645	0.041
Mof_C 	C 	0.9175	0.1116	0.3692	0.069
Mof_C 	C 	0.6289	0.6737	0.3692	0.069
Mof_C 	C 	0.5825	0.6116	0.6308	0.069
Mof_C 	C 	0.409	0.922	0.9912	-0.134
Mof_C 	C 	0.0808	0.3483	0.1092	-0.112
Mof_C 	C 	0.4321	0.6276	0.4185	0.108
Mof_C 	C 	0.1443	0.5917	0.4067	-0.114
Mof_C 	C 	0.9363	0.3699	0.3645	0.041
Mof_C 	C 	0.4557	0.8142	0.7404	-0.122
Mof_C 	C 	0.5467	0.4253	0.0969	0.066
Mof_C 	C 	0.355	0.0594	0.5427	-0.12
Mof_C 	C 	0.1289	0.3263	0.1308	0.067
Mof_C 	C 	0.0465	0.5458	0.4511	0.077
Mof_C 	C 	0.0655	0.1808	0.6271	-0.112
Mof_C 	C 	0.4853	0.7293	0.7379	-0.119
Mof_C 	C 	0.4533	0.0747	0.5969	0.066
Mof_C 	C 	0.0115	0.2041	0.6498	0.074
Mof_C 	C 	0.4885	0.7041	0.3502	0.074
Mof_C 	C 	0.0147	0.2293	0.2621	-0.116
Mof_C 	C 	0.4051	0.5863	0.0906	0.074
Mof_C 	C 	0.6443	0.4083	0.0933	-0.114
Mof_C 	C 	0.4192	0.8483	0.8908	-0.115
Mof_C 	C 	0.0519	0.1767	0.8495	0.11
Mof_C 	C 	0.9289	0.1976	0.3683	0.055
Mof_C 	C 	0.9481	0.3233	0.3495	0.11
Mof_C 	C 	0.8711	0.1737	0.6308	0.068
Mof_C 	C 	0.4217	0.807	0.7694	0.074
Mof_C 	C 	0.5147	0.7707	0.2379	-0.119
Mof_C 	C 	0.0058	0.0431	0.4596	0.072
Mof_C 	C 	0.9884	0.4283	0.0097	0.063
Mof_I 	I 	0.41798	0.01433	0.11219	-0.397
Mof_I 	I 	0.78995	0.56936	0.3815	-0.41
Mof_I 	I 	0.81439	0.71601	0.31497	-0.416
Mof_I 	I 	0.19611	0.99981	0.9646	-0.43
Mof_I 	I 	0.28995	0.43064	0.1185	-0.409
Mof_I 	I 	0.8611	0.3285	0.66325	-0.406
Mof_I 	I 	0.31439	0.28399	0.18503	-0.416
Mof_I 	I 	0.82466	0.55512	0.57655	-0.42
Mof_I 	I 	0.1389	0.1715	0.16325	-0.406
Mof_I 	I 	0.58202	0.48567	0.61219	-0.397
Mof_I 	I 	0.67534	0.05512	0.42345	-0.421
Mof_I 	I 	0.32466	0.44488	0.92345	-0.42
Mof_I 	I 	0.17534	0.94488	0.07655	-0.421
Mof_I 	I 	0.3611	0.6715	0.83675	-0.406
Mof_I 	I 	0.80389	0.50019	0.4646	-0.43
Mof_I 	I 	0.69611	0.00019	0.5354	-0.43
Mof_I 	I 	0.71005	0.06936	0.6185	-0.409
Mof_I 	I 	0.30389	0.49981	0.0354	-0.43
Mof_I 	I 	0.21005	0.93064	0.8815	-0.41
Mof_I 	I 	0.68561	0.21601	0.68503	-0.416
Mof_I 	I 	0.18561	0.78399	0.81497	-0.417
Mof_I 	I 	0.91798	0.98567	0.38781	-0.397
Mof_I 	I 	0.08202	0.51433	0.88781	-0.398
Mof_I 	I 	0.6389	0.8285	0.33675	-0.406
Mof_N 	N 	0.8879	0.1119	0.3978	-0.276
Mof_N 	N 	0.9199	0.2367	0.7183	-0.266
Mof_N 	N 	0.9174	0.2048	0.6496	-0.268
Mof_N 	N 	0.0667	0.2151	0.8659	-0.14
Mof_N 	N 	0.6601	0.9201	0.9613	-0.148
Mof_N 	N 	0.0932	0.0426	0.8951	-0.259
Mof_N 	N 	0.9725	0.3236	0.3201	-0.137
Mof_N 	N 	0.9333	0.2849	0.3659	-0.14
Mof_N 	N 	0.3362	0.6222	0.4152	-0.135
Mof_N 	N 	0.5275	0.8236	0.6799	-0.137
Mof_N 	N 	0.0906	0.4501	0.9582	-0.277
Mof_N 	N 	0.6638	0.8778	0.9152	-0.135
Mof_N 	N 	0.0012	0.552	0.4252	-0.27
Mof_N 	N 	0.5667	0.7849	0.6341	-0.14
Mof_N 	N 	0.4707	0.7635	0.1775	-0.136
Mof_N 	N 	0.9707	0.2365	0.3225	-0.136
Mof_N 	N 	0.9988	0.948	0.9252	-0.269
Mof_N 	N 	0.3399	0.5799	0.4613	-0.148
Mof_N 	N 	0.5932	0.9574	0.6049	-0.259
Mof_N 	N 	0.5801	0.7367	0.2817	-0.266
Mof_N 	N 	0.5826	0.7048	0.3504	-0.269
Mof_N 	N 	0.0801	0.2633	0.2183	-0.266
Mof_N 	N 	0.8399	0.4201	0.0387	-0.148
Mof_N 	N 	0.483	0.6123	0.4422	-0.141
Mof_N 	N 	0.1638	0.1222	0.5848	-0.136
Mof_N 	N 	0.5906	0.5499	0.5418	-0.277
Mof_N 	N 	0.5293	0.7365	0.6775	-0.136
Mof_N 	N 	0.4725	0.6764	0.1799	-0.137
Mof_N 	N 	0.8362	0.3778	0.0848	-0.136
Mof_N 	N 	0.4333	0.7151	0.1341	-0.14
Mof_N 	N 	0.517	0.8877	0.9422	-0.141
Mof_N 	N 	0.4068	0.5426	0.1049	-0.259
Mof_N 	N 	0.0275	0.1764	0.8201	-0.137
Mof_N 	N 	0.1121	0.3881	0.8978	-0.276
Mof_N 	N 	0.4174	0.7952	0.8504	-0.269
Mof_N 	N 	0.6121	0.6119	0.6022	-0.276
Mof_N 	N 	0.1601	0.0799	0.5387	-0.148
Mof_N 	N 	0.0826	0.2952	0.1496	-0.268
Mof_N 	N 	0.4199	0.7633	0.7817	-0.266
Mof_N 	N 	0.5012	0.448	0.0748	-0.27
Mof_N 	N 	0.9068	0.4574	0.3951	-0.259
Mof_N 	N 	0.9094	0.0499	0.4582	-0.278
Mof_N 	N 	0.3879	0.8881	0.1022	-0.276
Mof_N 	N 	0.4094	0.9501	0.0418	-0.277
Mof_N 	N 	0.0293	0.2635	0.8225	-0.136
Mof_N 	N 	0.017	0.1123	0.5578	-0.141
Mof_N 	N 	0.4988	0.052	0.5748	-0.27
Mof_N 	N 	0.983	0.3877	0.0578	-0.141
Mof_Zn	Zn	0.15741	0.75208	0.32086	1.179
Mof_Zn	Zn	0.65692	0.04634	0.91672	1.178
Mof_Zn	Zn	0.15692	0.95366	0.58328	1.178
Mof_Zn	Zn	0.34259	0.25208	0.67914	1.179
Mof_Zn	Zn	0.84259	0.74792	0.82086	1.179
Mof_Zn	Zn	0.63	0.52085	0.91705	1.179
Mof_Zn	Zn	0.34308	0.45366	0.41672	1.178
Mof_Zn	Zn	0.37	0.97915	0.41705	1.179
Mof_Zn	Zn	0.13	0.47915	0.58295	1.179
Mof_Zn	Zn	0.87	0.02085	0.08295	1.179
Mof_Zn	Zn	0.65741	0.24792	0.17914	1.179
Mof_Zn	Zn	0.84308	0.54634	0.08328	1.178
Mof_H 	H 	0.6169	0.1329	0.0952	0.088
Mof_H 	H 	0.6009	0.1662	0.2192	-0.011
Mof_H 	H 	0.5711	0.4875	0.8548	0
Mof_H 	H 	0.1055	0.5863	0.5695	-0.003
Mof_H 	H 	0.175	0.1095	0.109	0.097
Mof_H 	H 	0.6272	0.448	0.4855	0.096
Mof_H 	H 	0.4541	0.1942	0.7245	0.002
Mof_H 	H 	0.008	0.7982	0.7272	0.082
Mof_H 	H 	0.6271	0.0904	0.0254	0.086
Mof_H 	H 	0.2986	0.433	0.4815	-0.009
Mof_H 	H 	0.7986	0.567	0.0185	-0.009
Mof_H 	H 	0.1272	0.552	0.0145	0.096
Mof_H 	H 	0.1009	0.8338	0.2808	-0.011
Mof_H 	H 	0.5402	0.1505	0.8333	0.082
Mof_H 	H 	0.5415	0.1543	0.268	0.083
Mof_H 	H 	0.0384	0.5297	0.0574	-0.011
Mof_H 	H 	0.897	0.7249	0.0891	0.085
Mof_H 	H 	0.325	0.6095	0.891	0.097
Mof_H 	H 	0.6963	0.1679	0.1332	0.01
Mof_H 	H 	0.011	0.0311	0.033	-0.001
Mof_H 	H 	0.4122	0.1565	0.4078	0.08
Mof_H 	H 	0.8831	0.6329	0.9048	0.088
Mof_H 	H 	0.8991	0.6662	0.7808	-0.011
Mof_H 	H 	0.3991	0.3338	0.7192	-0.011
Mof_H 	H 	0.511	0.9689	0.467	-0.001
Mof_H 	H 	0.5459	0.3058	0.2245	0.002
Mof_H 	H 	0.5142	0.9201	0.3845	0.003
Mof_H 	H 	0.5761	0.0813	0.8593	-0.008
Mof_H 	H 	0.992	0.7018	0.2272	0.083
Mof_H 	H 	0.9122	0.8435	0.0922	0.079
Mof_H 	H 	0.3728	0.052	0.9855	0.096
Mof_H 	H 	0.955	0.7803	0.3342	-0.002
Mof_H 	H 	0.6055	0.4137	0.9305	-0.003
Mof_H 	H 	0.489	0.5311	0.967	-0.001
Mof_H 	H 	0.045	0.7197	0.8342	-0.002
Mof_H 	H 	0.603	0.2249	0.9109	0.085
Mof_H 	H 	0.1963	0.8321	0.3668	0.01
Mof_H 	H 	0.2014	0.933	0.5185	-0.009
Mof_H 	H 	0.366	0.1836	0.1265	0.08
Mof_H 	H 	0.7014	0.067	0.9815	-0.009
Mof_H 	H 	0.9289	0.9875	0.1452	0
Mof_H 	H 	0.9616	0.9703	0.5574	-0.011
Mof_H 	H 	0.3607	0.3496	0.4319	-0.028
Mof_H 	H 	0.3831	0.3671	0.5952	0.088
Mof_H 	H 	0.1755	0.0536	0.0239	0.096
Mof_H 	H 	0.0142	0.0799	0.1155	0.003
Mof_H 	H 	0.548	0.4157	0.8284	0.075
Mof_H 	H 	0.4616	0.0297	0.9426	-0.011
Mof_H 	H 	0.1393	0.8496	0.5681	-0.028
Mof_H 	H 	0.8728	0.948	0.5145	0.097
Mof_H 	H 	0.4598	0.3495	0.3333	0.082
Mof_H 	H 	0.9541	0.8058	0.7755	0.002
Mof_H 	H 	0.4239	0.4187	0.3593	-0.008
Mof_H 	H 	0.397	0.2751	0.4109	0.085
Mof_H 	H 	0.8607	0.6504	0.0681	-0.028
Mof_H 	H 	0.8729	0.5904	0.9746	0.086
Mof_H 	H 	0.8945	0.9137	0.0695	-0.003
Mof_H 	H 	0.4585	0.3457	0.768	0.083
Mof_H 	H 	0.0415	0.8457	0.232	0.083
Mof_H 	H 	0.3037	0.3321	0.6332	0.01
Mof_H 	H 	0.9858	0.4201	0.6155	0.003
Mof_H 	H 	0.5384	0.4703	0.4426	-0.011
Mof_H 	H 	0.675	0.8905	0.391	0.097
Mof_H 	H 	0.4289	0.0125	0.3548	0
Mof_H 	H 	0.634	0.3164	0.6265	0.08
Mof_H 	H 	0.0711	0.5125	0.6452	0
Mof_H 	H 	0.1271	0.9096	0.4746	0.086
Mof_H 	H 	0.134	0.6836	0.8735	0.079
Mof_H 	H 	0.0402	0.8495	0.6667	0.082
Mof_H 	H 	0.0761	0.9187	0.6407	-0.008
Mof_H 	H 	0.4858	0.5799	0.8845	0.003
Mof_H 	H 	0.455	0.2197	0.1658	-0.002
Mof_H 	H 	0.3945	0.0863	0.4305	-0.003
Mof_H 	H 	0.866	0.8164	0.3735	0.08
Mof_H 	H 	0.952	0.9157	0.1716	0.075
Mof_H 	H 	0.103	0.7751	0.5891	0.085
Mof_H 	H 	0.3729	0.4096	0.5254	0.086
Mof_H 	H 	0.5878	0.3435	0.9078	0.079
Mof_H 	H 	0.452	0.0843	0.3284	0.075
Mof_H 	H 	0.6393	0.1504	0.9319	-0.028
Mof_H 	H 	0.0459	0.6942	0.2755	0.002
Mof_H 	H 	0.545	0.2803	0.6658	-0.002
Mof_H 	H 	0.989	0.4689	0.533	-0.001
Mof_H 	H 	0.508	0.2018	0.7728	0.084
Mof_H 	H 	0.3245	0.5536	0.9761	0.096
Mof_H 	H 	0.6755	0.9464	0.4761	0.096
Mof_H 	H 	0.9598	0.6505	0.1667	0.082
Mof_H 	H 	0.0878	0.6565	0.5922	0.079
Mof_H 	H 	0.8037	0.6679	0.8668	0.01
Mof_H 	H 	0.8245	0.4464	0.5239	0.096
Mof_H 	H 	0.492	0.2982	0.2728	0.084
Mof_H 	H 	0.1169	0.8671	0.4048	0.088
Mof_H 	H 	0.825	0.3905	0.609	0.097
Mof_H 	H 	0.048	0.5843	0.6716	0.075
Mof_H 	H 	0.9585	0.6543	0.732	0.083
Mof_H 	H 	0.9239	0.5813	0.1407	-0.008
Mof_C 	C 	0.9885	0.7959	0.3502	0.074
Mof_C 	C 	0.0467	0.725	0.2661	0.07
Mof_C 	C 	0.4535	0.5458	0.9511	0.077
Mof_C 	C 	0.409	0.422	0.5088	-0.134
Mof_C 	C 	0.9345	0.8192	0.3729	-0.112
Mof_C 	C 	0.5519	0.3233	0.8495	0.11
Mof_C 	C 	0.4533	0.5747	0.9031	0.066
Mof_C 	C 	0.5058	0.4569	0.4596	0.071
Mof_C 	C 	0.9192	0.6517	0.8908	-0.112
Mof_C 	C 	0.1187	0.8487	0.5885	0.109
Mof_C 	C 	0.1927	0.082	0.0671	0.047
Mof_C 	C 	0.7978	0.903	0.4371	0.103
Mof_C 	C 	0.9535	0.4542	0.5489	0.077
Mof_C 	C 	0.4884	0.0717	0.0097	0.064
Mof_C 	C 	0.0986	0.8038	0.6008	-0.136
Mof_C 	C 	0.3711	0.3263	0.6308	0.069
Mof_C 	C 	0.5197	0.2788	0.8079	0.097
Mof_C 	C 	0.5443	0.1858	0.2596	-0.122
Mof_C 	C 	0.9014	0.6962	0.1008	-0.136
Mof_C 	C 	0.4853	0.2293	0.7621	-0.119
Mof_C 	C 	0.6187	0.1513	0.9115	0.109
Mof_C 	C 	0.5711	0.1976	0.8683	0.055
Mof_C 	C 	0.0602	0.5853	0.6505	-0.099
Mof_C 	C 	0.9481	0.8233	0.1505	0.11
Mof_C 	C 	0.4398	0.0853	0.3495	-0.099
Mof_C 	C 	0.4557	0.3142	0.7596	-0.122
Mof_C 	C 	0.9533	0.775	0.7661	0.069
Mof_C 	C 	0.3557	0.5917	0.9067	-0.114
Mof_C 	C 	0.9321	0.8724	0.4185	0.108
Mof_C 	C 	0.3073	0.582	0.9329	0.047
Mof_C 	C 	0.5149	0.2251	0.2759	0.06
Mof_C 	C 	0.0655	0.6808	0.8729	-0.111
Mof_C 	C 	0.591	0.078	0.0088	-0.134
Mof_C 	C 	0.5745	0.4576	0.8652	0.057
Mof_C 	C 	0.5465	0.9542	0.4511	0.077
Mof_C 	C 	0.0658	0.5888	0.9623	0.103
Mof_C 	C 	0.091	0.922	0.4912	-0.136
Mof_C 	C 	0.5467	0.9253	0.4031	0.066
Mof_C 	C 	0.855	0.4406	0.5427	-0.12
Mof_C 	C 	0.5637	0.3699	0.8645	0.042
Mof_C 	C 	0.5833	0.3724	0.8963	-0.111
Mof_C 	C 	0.0197	0.7212	0.6921	0.096
Mof_C 	C 	0.9363	0.8699	0.1355	0.041
Mof_C 	C 	0.5613	0.1523	0.8536	-0.12
Mof_C 	C 	0.4192	0.3483	0.6092	-0.115
Mof_C 	C 	0.5808	0.1517	0.1092	-0.115
Mof_C 	C 	0.0808	0.8483	0.3908	-0.115
Mof_C 	C 	0.909	0.578	0.9912	-0.134
Mof_C 	C 	0.0587	0.5553	0.0147	-0.13
Mof_C 	C 	0.9803	0.7788	0.1921	0.096
Mof_C 	C 	0.4387	0.3477	0.3536	-0.12
Mof_C 	C 	0.0637	0.6301	0.6355	0.041
Mof_C 	C 	0.4885	0.2041	0.1498	0.074
Mof_C 	C 	0.4481	0.1767	0.3495	0.11
Mof_C 	C 	0.4167	0.1276	0.3963	-0.111
Mof_C 	C 	0.4413	0.0553	0.9853	-0.131
Mof_C 	C 	0.9398	0.9147	0.1505	-0.099
Mof_C 	C 	0.145	0.0594	0.0427	-0.12
Mof_C 	C 	0.9413	0.9447	0.5147	-0.131
Mof_C 	C 	0.9255	0.9576	0.1348	0.057
Mof_C 	C 	0.0165	0.6538	0.8945	0.06
Mof_C 	C 	0.0825	0.8884	0.6308	0.069
Mof_C 	C 	0.9167	0.8724	0.1037	-0.111
Mof_C 	C 	0.3813	0.3487	0.4115	0.109
Mof_C 	C 	0.4803	0.2212	0.3079	0.097
Mof_C 	C 	0.9942	0.9569	0.5404	0.072
Mof_C 	C 	0.0058	0.5431	0.0404	0.071
Mof_C 	C 	0.0711	0.8024	0.6317	0.055
Mof_C 	C 	0.6443	0.9083	0.4067	-0.114
Mof_C 	C 	0.9835	0.8462	0.3945	0.062
Mof_C 	C 	0.0949	0.5863	0.5906	0.073
Mof_C 	C 	0.7022	0.403	0.5629	0.103
Mof_C 	C 	0.9289	0.6976	0.1317	0.055
Mof_C 	C 	0.0745	0.5424	0.6348	0.057
Mof_C 	C 	0.0115	0.7041	0.8502	0.072
Mof_C 	C 	0.3672	0.4351	0.4823	0.098
Mof_C 	C 	0.4289	0.3024	0.3683	0.055
Mof_C 	C 	0.9175	0.6116	0.1308	0.069
Mof_C 	C 	0.5825	0.1116	0.8692	0.069
Mof_C 	C 	0.9051	0.9137	0.0906	0.073
Mof_C 	C 	0.5602	0.4147	0.8495	-0.099
Mof_C 	C 	0.5116	0.4283	0.5097	0.064
Mof_C 	C 	0.6328	0.0649	0.9823	0.098
Mof_C 	C 	0.0149	0.7749	0.2241	0.06
Mof_C 	C 	0.9884	0.9283	0.4903	0.065
Mof_C 	C 	0.4342	0.0888	0.0377	0.103
Mof_C 	C 	0.1443	0.0917	0.0933	-0.114
Mof_C 	C 	0.9853	0.7707	0.7379	-0.116
Mof_C 	C 	0.0613	0.8477	0.6464	-0.12
Mof_C 	C 	0.4217	0.307	0.7306	0.074
Mof_C 	C 	0.2022	0.597	0.9371	0.103
Mof_C 	C 	0.6289	0.1737	0.1308	0.069
Mof_C 	C 	0.9217	0.693	0.7694	0.074
Mof_C 	C 	0.4851	0.2749	0.7759	0.06
Mof_C 	C 	0.9387	0.6523	0.1464	-0.12
Mof_C 	C 	0.8813	0.6513	0.0885	0.109
Mof_C 	C 	0.5147	0.2707	0.2621	-0.119
Mof_C 	C 	0.4255	0.0424	0.3652	0.057
Mof_C 	C 	0.645	0.9406	0.4573	-0.12
Mof_C 	C 	0.8711	0.6737	0.8692	0.067
Mof_C 	C 	0.4051	0.0863	0.4094	0.074
Mof_C 	C 	0.4345	0.1808	0.1271	-0.113
Mof_C 	C 	0.4175	0.3884	0.3692	0.069
Mof_C 	C 	0.5467	0.275	0.2339	0.071
Mof_C 	C 	0.1328	0.9351	0.5177	0.099
Mof_C 	C 	0.0147	0.7293	0.2379	-0.118
Mof_C 	C 	0.5165	0.3462	0.6055	0.062
Mof_C 	C 	0.0679	0.6276	0.9185	0.108
Mof_C 	C 	0.9851	0.7251	0.7241	0.06
Mof_C 	C 	0.0116	0.5717	0.9903	0.063
Mof_C 	C 	0.5115	0.2959	0.6498	0.074
Mof_C 	C 	0.9533	0.4253	0.5969	0.066
Mof_C 	C 	0.8672	0.5649	0.0177	0.098
Mof_C 	C 	0.5679	0.3724	0.5815	0.108
Mof_C 	C 	0.5587	0.4447	0.4853	-0.13
Mof_C 	C 	0.4363	0.1301	0.3645	0.042
Mof_C 	C 	0.5658	0.4112	0.5377	0.103
Mof_C 	C 	0.2978	0.097	0.0629	0.103
Mof_C 	C 	0.9557	0.6858	0.7404	-0.122
Mof_C 	C 	0.6927	0.918	0.4329	0.047
Mof_C 	C 	0.4533	0.225	0.7339	0.071
Mof_C 	C 	0.8073	0.418	0.5671	0.047
Mof_C 	C 	0.4835	0.1538	0.1055	0.062
Mof_C 	C 	0.9342	0.9112	0.4623	0.103
Mof_C 	C 	0.8557	0.4083	0.5933	-0.114
Mof_C 	C 	0.4447	0.2579	0.3518	0.098
Mof_C 	C 	0.4321	0.1276	0.0815	0.108
Mof_C 	C 	0.0467	0.0747	0.0969	0.066
Mof_C 	C 	0.5655	0.3192	0.6271	-0.113
Mof_C 	C 	0.4014	0.3038	0.3992	-0.136
Mof_C 	C 	0.5986	0.1962	0.8992	-0.136
Mof_C 	C 	0.0443	0.8142	0.2404	-0.122
Mof_C 	C 	0.9447	0.7421	0.1482	0.097
Mof_C 	C 	0.5553	0.2421	0.8518	0.098
Mof_C 	C 	0.5949	0.4137	0.9094	0.074
Mof_C 	C 	0.4942	0.0431	0.9596	0.071
Mof_C 	C 	0.1289	0.8263	0.3692	0.068
Mof_C 	C 	0.0783	0.807	0.2694	0.074
Mof_C 	C 	0.0465	0.0458	0.0489	0.077
Mof_C 	C 	0.355	0.5594	0.9573	-0.12
Mof_C 	C 	0.0833	0.6276	0.6037	-0.111
Mof_C 	C 	0.0553	0.7579	0.6482	0.097
Mof_C 	C 	0.0519	0.6767	0.6505	0.11
Mof_C 	C 	0.5783	0.193	0.2306	0.074
Mof_I 	I 	0.30389	0.99981	0.4646	-0.43
Mof_I 	I 	0.21005	0.43064	0.6185	-0.41
Mof_I 	I 	0.80389	0.00019	0.0354	-0.43
Mof_I 	I 	0.32466	0.94488	0.57655	-0.421
Mof_I 	I 	0.67534	0.55512	0.07655	-0.42
Mof_I 	I 	0.78995	0.06936	0.1185	-0.41
Mof_I 	I 	0.18561	0.28399	0.68503	-0.416
Mof_I 	I 	0.6389	0.3285	0.16325	-0.406
Mof_I 	I 	0.69611	0.50019	0.9646	-0.43
Mof_I 	I 	0.68561	0.71601	0.81497	-0.416
Mof_I 	I 	0.31439	0.78399	0.31497	-0.416
Mof_I 	I 	0.81439	0.21601	0.18503	-0.417
Mof_I 	I 	0.28995	0.93064	0.3815	-0.409
Mof_I 	I 	0.19611	0.49981	0.5354	-0.43
Mof_I 	I 	0.08202	0.01433	0.61219	-0.397
Mof_I 	I 	0.3611	0.1715	0.66325	-0.406
Mof_I 	I 	0.58202	0.98567	0.88781	-0.397
Mof_I 	I 	0.71005	0.56936	0.8815	-0.409
Mof_I 	I 	0.8611	0.8285	0.83675	-0.406
Mof_I 	I 	0.17534	0.44488	0.42345	-0.42
Mof_I 	I 	0.41798	0.51433	0.38781	-0.397
Mof_I 	I 	0.82466	0.05512	0.92345	-0.421
Mof_I 	I 	0.91798	0.48567	0.11219	-0.398
Mof_I 	I 	0.1389	0.6715	0.33675	-0.406
Mof_N 	N 	0.3362	0.1222	0.0848	-0.135
Mof_N 	N 	0.6638	0.3778	0.5848	-0.135
Mof_N 	N 	0.5012	0.948	0.4252	-0.27
Mof_N 	N 	0.0932	0.5426	0.6049	-0.259
Mof_N 	N 	0.5293	0.2365	0.8225	-0.136
Mof_N 	N 	0.5801	0.2367	0.2183	-0.266
Mof_N 	N 	0.5906	0.0499	0.9582	-0.277
Mof_N 	N 	0.0801	0.7633	0.2817	-0.266
Mof_N 	N 	0.1121	0.8881	0.6022	-0.276
Mof_N 	N 	0.8879	0.6119	0.1022	-0.276
Mof_N 	N 	0.517	0.3877	0.5578	-0.141
Mof_N 	N 	0.983	0.8877	0.4422	-0.141
Mof_N 	N 	0.3399	0.0799	0.0387	-0.148
Mof_N 	N 	0.9068	0.9574	0.1049	-0.259
Mof_N 	N 	0.8362	0.8778	0.4152	-0.136
Mof_N 	N 	0.0906	0.9501	0.5418	-0.278
Mof_N 	N 	0.4094	0.4501	0.4582	-0.277
Mof_N 	N 	0.9199	0.7367	0.7817	-0.266
Mof_N 	N 	0.8399	0.9201	0.4613	-0.148
Mof_N 	N 	0.4174	0.2952	0.6496	-0.269
Mof_N 	N 	0.0667	0.7151	0.6341	-0.14
Mof_N 	N 	0.9333	0.7849	0.1341	-0.14
Mof_N 	N 	0.0293	0.7635	0.6775	-0.136
Mof_N 	N 	0.9094	0.5499	0.0418	-0.277
Mof_N 	N 	0.3879	0.3881	0.3978	-0.276
Mof_N 	N 	0.5932	0.4574	0.8951	-0.259
Mof_N 	N 	0.4707	0.2635	0.3225	-0.136
Mof_N 	N 	0.4068	0.0426	0.3951	-0.259
Mof_N 	N 	0.9988	0.448	0.5748	-0.27
Mof_N 	N 	0.6121	0.1119	0.8978	-0.276
Mof_N 	N 	0.4988	0.552	0.9252	-0.27
Mof_N 	N 	0.5275	0.3236	0.8201	-0.137
Mof_N 	N 	0.9725	0.8236	0.1799	-0.137
Mof_N 	N 	0.9707	0.7365	0.1775	-0.136
Mof_N 	N 	0.0275	0.6764	0.6799	-0.137
Mof_N 	N 	0.6601	0.4201	0.5387	-0.148
Mof_N 	N 	0.1601	0.5799	0.9613	-0.148
Mof_N 	N 	0.5667	0.2849	0.8659	-0.14
Mof_N 	N 	0.017	0.6123	0.9422	-0.141
Mof_N 	N 	0.0826	0.7952	0.3504	-0.268
Mof_N 	N 	0.4725	0.1764	0.3201	-0.137
Mof_N 	N 	0.9174	0.7048	0.8504	-0.268
Mof_N 	N 	0.0012	0.052	0.0748	-0.269
Mof_N 	N 	0.5826	0.2048	0.1496	-0.269
Mof_N 	N 	0.483	0.1123	0.0578	-0.141
Mof_N 	N 	0.4199	0.2633	0.7183	-0.266
Mof_N 	N 	0.1638	0.6222	0.9152	-0.136
Mof_N 	N 	0.4333	0.2151	0.3659	-0.14
_end
