data_functionalizedCrystal
_audit_creation_method	'EQeq! by Chris Wilmer'
_symmetry_space_group_name_H-M	'P1'
_symmetry_Int_Tables_number	1
_symmetry_cell_setting	triclinic
loop_
_symmetry_equiv_pos_as_xyz
  x,y,z
_cell_length_a	13.1654
_cell_length_b	13.8282
_cell_length_c	16.0313
_cell_angle_alpha	115.549
_cell_angle_beta	101.117
_cell_angle_gamma	90
loop_
_atom_site_label
_atom_site_type_symbol
_atom_site_fract_x
_atom_site_fract_y
_atom_site_fract_z
_atom_site_charge
Mof_Nd	Nd	0.94067	0.47501	0.36375	2.39
Mof_Nd	Nd	0.55933	0.11126	0.63625	2.39
Mof_Nd	Nd	0.05933	0.52499	0.63625	2.39
Mof_Nd	Nd	0.44067	0.88874	0.36375	2.39
Mof_H 	H 	0.0365	0.1511	0.11	0.015
Mof_H 	H 	0.0856	0.046	0.9686	0.099
Mof_H 	H 	0.1309	0.3087	0.9314	0.099
Mof_H 	H 	0.0783	0.4119	0.0692	0.01
Mof_H 	H 	0.0696	0.8138	0.688	0.03
Mof_H 	H 	0.2712	0.0529	0.722	0.052
Mof_H 	H 	0.1929	0.7913	0.4708	0.027
Mof_H 	H 	0.9228	0.6356	0.2352	-0.002
Mof_H 	H 	0.162	0.136	0.814	0.071
Mof_H 	H 	0.636	0.705	0.238	0.134
Mof_H 	H 	0.4635	0.0411	0.89	0.016
Mof_H 	H 	0.4144	0.0774	0.0314	0.096
Mof_H 	H 	0.3691	0.3773	0.0686	0.097
Mof_H 	H 	0.4217	0.3427	0.9308	0.013
Mof_H 	H 	0.4304	0.1258	0.312	0.03
Mof_H 	H 	0.2288	0.3309	0.278	0.052
Mof_H 	H 	0.3071	0.3205	0.5292	0.027
Mof_H 	H 	0.5772	0.4004	0.7648	-0.002
Mof_H 	H 	0.338	0.322	0.186	0.07
Mof_H 	H 	0.864	0.467	0.762	0.134
Mof_H 	H 	0.9635	0.8489	0.89	0.014
Mof_H 	H 	0.9144	0.954	0.0314	0.098
Mof_H 	H 	0.8691	0.6913	0.0686	0.099
Mof_H 	H 	0.9217	0.5881	0.9308	0.01
Mof_H 	H 	0.9304	0.1862	0.312	0.03
Mof_H 	H 	0.7288	0.9471	0.278	0.052
Mof_H 	H 	0.8071	0.2087	0.5292	0.027
Mof_H 	H 	0.0772	0.3644	0.7648	-0.002
Mof_H 	H 	0.838	0.864	0.186	0.071
Mof_H 	H 	0.364	0.295	0.762	0.134
Mof_H 	H 	0.5365	0.9589	0.11	0.016
Mof_H 	H 	0.5856	0.9226	0.9686	0.096
Mof_H 	H 	0.6309	0.6227	0.9314	0.097
Mof_H 	H 	0.5783	0.6573	0.0692	0.013
Mof_H 	H 	0.5696	0.8742	0.688	0.03
Mof_H 	H 	0.7712	0.6691	0.722	0.052
Mof_H 	H 	0.6929	0.6795	0.4708	0.027
Mof_H 	H 	0.4228	0.5996	0.2352	-0.002
Mof_H 	H 	0.662	0.678	0.814	0.07
Mof_H 	H 	0.136	0.533	0.238	0.134
Mof_C 	C 	0.0066	0.357	0.188	0.356
Mof_C 	C 	0.0455	0.292	0.1008	-0.147
Mof_C 	C 	0.0527	0.1825	0.0726	0.083
Mof_C 	C 	0.0839	0.1198	0.9888	-0.172
Mof_C 	C 	0.1124	0.167	0.9356	0.129
Mof_C 	C 	0.1104	0.2763	0.9664	-0.182
Mof_C 	C 	0.0781	0.3379	0.0486	0.092
Mof_C 	C 	0.1409	0.1027	0.8436	-0.064
Mof_C 	C 	0.0591	0.68079	0.50418	0.429
Mof_C 	C 	0.1202	0.78646	0.56912	-0.145
Mof_C 	C 	0.1112	0.8437	0.6628	-0.018
Mof_C 	C 	0.1637	0.9449	0.7186	0.041
Mof_C 	C 	0.2334	0.9864	0.6838	-0.014
Mof_C 	C 	0.2455	0.92725	0.5917	-0.142
Mof_C 	C 	0.187	0.82872	0.53344	0.068
Mof_C 	C 	0.3211	0.9687	0.552	0.491
Mof_C 	C 	0.7205	0.5963	0.2792	0.193
Mof_C 	C 	0.8553	0.636	0.2448	0.108
Mof_C 	C 	0.4934	0.169	0.812	0.353
Mof_C 	C 	0.4545	0.1912	0.8992	-0.141
Mof_C 	C 	0.4473	0.1099	0.9274	0.075
Mof_C 	C 	0.4161	0.131	0.0112	-0.163
Mof_C 	C 	0.3876	0.2314	0.0644	0.123
Mof_C 	C 	0.3896	0.3099	0.0336	-0.173
Mof_C 	C 	0.4219	0.2893	0.9514	0.084
Mof_C 	C 	0.3591	0.2591	0.1564	-0.061
Mof_C 	C 	0.4409	0.17661	0.49582	0.429
Mof_C 	C 	0.3798	0.21734	0.43088	-0.145
Mof_C 	C 	0.3888	0.1809	0.3372	-0.019
Mof_C 	C 	0.3363	0.2263	0.2814	0.041
Mof_C 	C 	0.2666	0.3026	0.3162	-0.015
Mof_C 	C 	0.2545	0.33555	0.4083	-0.142
Mof_C 	C 	0.313	0.29528	0.46656	0.068
Mof_C 	C 	0.1789	0.4167	0.448	0.49
Mof_C 	C 	0.7795	0.3171	0.7208	0.193
Mof_C 	C 	0.6447	0.3912	0.7552	0.108
Mof_C 	C 	0.9934	0.643	0.812	0.356
Mof_C 	C 	0.9545	0.708	0.8992	-0.147
Mof_C 	C 	0.9473	0.8175	0.9274	0.083
Mof_C 	C 	0.9161	0.8802	0.0112	-0.172
Mof_C 	C 	0.8876	0.833	0.0644	0.129
Mof_C 	C 	0.8896	0.7237	0.0336	-0.182
Mof_C 	C 	0.9219	0.6621	0.9514	0.092
Mof_C 	C 	0.8591	0.8973	0.1564	-0.064
Mof_C 	C 	0.9409	0.31921	0.49582	0.429
Mof_C 	C 	0.8798	0.21354	0.43088	-0.145
Mof_C 	C 	0.8888	0.1563	0.3372	-0.018
Mof_C 	C 	0.8363	0.0551	0.2814	0.041
Mof_C 	C 	0.7666	0.0136	0.3162	-0.014
Mof_C 	C 	0.7545	0.07275	0.4083	-0.142
Mof_C 	C 	0.813	0.17128	0.46656	0.068
Mof_C 	C 	0.6789	0.0313	0.448	0.491
Mof_C 	C 	0.2795	0.4037	0.7208	0.193
Mof_C 	C 	0.1447	0.364	0.7552	0.108
Mof_C 	C 	0.5066	0.831	0.188	0.353
Mof_C 	C 	0.5455	0.8088	0.1008	-0.141
Mof_C 	C 	0.5527	0.8901	0.0726	0.075
Mof_C 	C 	0.5839	0.869	0.9888	-0.163
Mof_C 	C 	0.6124	0.7686	0.9356	0.123
Mof_C 	C 	0.6104	0.6901	0.9664	-0.173
Mof_C 	C 	0.5781	0.7107	0.0486	0.084
Mof_C 	C 	0.6409	0.7409	0.8436	-0.061
Mof_C 	C 	0.5591	0.82339	0.50418	0.429
Mof_C 	C 	0.6202	0.78266	0.56912	-0.145
Mof_C 	C 	0.6112	0.8191	0.6628	-0.019
Mof_C 	C 	0.6637	0.7737	0.7186	0.041
Mof_C 	C 	0.7334	0.6974	0.6838	-0.015
Mof_C 	C 	0.7455	0.66445	0.5917	-0.142
Mof_C 	C 	0.687	0.70472	0.53344	0.068
Mof_C 	C 	0.8211	0.5833	0.552	0.49
Mof_C 	C 	0.2205	0.6829	0.2792	0.193
Mof_C 	C 	0.3553	0.6088	0.2448	0.108
Mof_N 	N 	0.1445	0.00153	0.81146	-0.102
Mof_N 	N 	0.8175	0.56892	0.27664	-0.289
Mof_N 	N 	0.7904	0.7008	0.2288	-0.101
Mof_N 	N 	0.7017	0.67384	0.25208	-0.166
Mof_N 	N 	0.6424	0.5476	0.298	-0.144
Mof_N 	N 	0.3555	0.19007	0.18854	-0.103
Mof_N 	N 	0.6825	0.29228	0.72336	-0.289
Mof_N 	N 	0.7096	0.472	0.7712	-0.101
Mof_N 	N 	0.7983	0.42176	0.74792	-0.166
Mof_N 	N 	0.8576	0.2496	0.702	-0.144
Mof_N 	N 	0.8555	0.99847	0.18854	-0.102
Mof_N 	N 	0.1825	0.43108	0.72336	-0.289
Mof_N 	N 	0.2096	0.2992	0.7712	-0.101
Mof_N 	N 	0.2983	0.32616	0.74792	-0.166
Mof_N 	N 	0.3576	0.4524	0.702	-0.144
Mof_N 	N 	0.6445	0.80993	0.81146	-0.103
Mof_N 	N 	0.3175	0.70772	0.27664	-0.289
Mof_N 	N 	0.2904	0.528	0.2288	-0.101
Mof_N 	N 	0.2017	0.57824	0.25208	-0.166
Mof_N 	N 	0.1424	0.7504	0.298	-0.144
Mof_O 	O 	0.9634	0.3085	0.2252	-0.492
Mof_O 	O 	0.0143	0.45759	0.22238	-0.458
Mof_O 	O 	0.0346	0.65446	0.41672	-0.486
Mof_O 	O 	0.0338	0.61924	0.53868	-0.673
Mof_O 	O 	0.3198	0.91378	0.46456	-0.578
Mof_O 	O 	0.3771	0.05384	0.60728	-0.54
Mof_O 	O 	0.5366	0.0833	0.7748	-0.491
Mof_O 	O 	0.4857	0.23521	0.77762	-0.458
Mof_O 	O 	0.4654	0.23774	0.58328	-0.486
Mof_O 	O 	0.4662	0.08056	0.46132	-0.673
Mof_O 	O 	0.1802	0.44922	0.53544	-0.578
Mof_O 	O 	0.1229	0.44656	0.39272	-0.54
Mof_O 	O 	0.0366	0.6915	0.7748	-0.492
Mof_O 	O 	0.9857	0.54241	0.77762	-0.458
Mof_O 	O 	0.9654	0.34554	0.58328	-0.486
Mof_O 	O 	0.9662	0.38076	0.46132	-0.673
Mof_O 	O 	0.6802	0.08622	0.53544	-0.578
Mof_O 	O 	0.6229	0.94616	0.39272	-0.54
Mof_O 	O 	0.4634	0.9167	0.2252	-0.491
Mof_O 	O 	0.5143	0.76479	0.22238	-0.458
Mof_O 	O 	0.5346	0.76226	0.41672	-0.486
Mof_O 	O 	0.5338	0.91944	0.53868	-0.673
Mof_O 	O 	0.8198	0.55078	0.46456	-0.578
Mof_O 	O 	0.8771	0.55344	0.60728	-0.54
_end
