# CIF file generated by openbabel 3.1.0, see https://openbabel.org
data_I
_chemical_name_common 'image0'
_cell_length_a 10.289
_cell_length_b 15.763
_cell_length_c 24.796
_cell_angle_alpha 90
_cell_angle_beta 112.65
_cell_angle_gamma 90
_space_group_name_H-M_alt 'P 1'
_space_group_name_Hall 'P 1'
loop_
    _symmetry_equiv_pos_as_xyz
    x,y,z
loop_
    _atom_site_label
    _atom_site_type_symbol
    _atom_site_fract_x
    _atom_site_fract_y
    _atom_site_fract_z
    _atom_site_occupancy
    Zn1      Zn       0.74215    0.85377    0.73507    1.000
    Zn2      Zn       0.70840    0.98206    0.85549    1.000
    O1       O        0.61840    0.82370    0.78411    1.000
    O2       O        0.59730    0.88460    0.86039    1.000
    O3       O        0.38000    0.55040    0.71395    1.000
    O4       O        0.27960    0.48320    0.76621    1.000
    O5       O        0.92060    0.84500    0.80929    1.000
    O6       O        0.89770    0.94100    0.87092    1.000
    O7       O        0.23250    0.95270    0.07295    1.000
    O8       O        0.43000    0.87880    0.09971    1.000
    O9       O        0.34240    0.67293    0.93451    1.000
    C1       C        0.38290    0.67800    0.88714    1.000
    C2       C        0.45780    0.74680    0.88043    1.000
    H1       H        0.48060    0.79130    0.90710    1.000
    C3       C        0.49870    0.74880    0.83327    1.000
    C4       C        0.46610    0.68180    0.79408    1.000
    H2       H        0.49470    0.68320    0.76280    1.000
    C5       C        0.39110    0.61280    0.80121    1.000
    C6       C        0.34950    0.61070    0.84863    1.000
    H3       H        0.29990    0.56440    0.85420    1.000
    C7       C        0.57900    0.82440    0.82495    1.000
    C8       C        0.34760    0.54230    0.75803    1.000
    C9       C        0.27240    0.74470    0.94218    1.000
    C10      C        0.15770    0.77590    0.89677    1.000
    H4       H        0.12800    0.75060    0.86010    1.000
    C11      C        0.08600    0.84590    0.90600    1.000
    C12      C        0.13400    0.88340    0.96135    1.000
    H5       H        0.08610    0.92970    0.96800    1.000
    C13      C        0.25290    0.85230    0.00669    1.000
    C14      C        0.32250    0.78160    0.99760    1.000
    H6       H        0.40070    0.75930    0.02770    1.000
    C15      C        0.95770    0.87910    0.85759    1.000
    C16      C        0.31240    0.89680    0.06531    1.000
    Zn3      Zn       0.25785    0.35377    0.76493    1.000
    Zn4      Zn       0.29160    0.48206    0.64451    1.000
    O10      O        0.38160    0.32370    0.71589    1.000
    O11      O        0.40270    0.38460    0.63961    1.000
    O12      O        0.62000    0.05040    0.78605    1.000
    O13      O        0.72040    0.98320    0.73379    1.000
    O14      O        0.07940    0.34500    0.69071    1.000
    O15      O        0.10230    0.44100    0.62908    1.000
    O16      O        0.76750    0.45270    0.42705    1.000
    O17      O        0.57000    0.37880    0.40029    1.000
    O18      O        0.65760    0.17293    0.56549    1.000
    C17      C        0.61710    0.17800    0.61286    1.000
    C18      C        0.54220    0.24680    0.61957    1.000
    H7       H        0.51940    0.29130    0.59290    1.000
    C19      C        0.50130    0.24880    0.66673    1.000
    C20      C        0.53390    0.18180    0.70592    1.000
    H8       H        0.50530    0.18320    0.73720    1.000
    C21      C        0.60890    0.11280    0.69879    1.000
    C22      C        0.65050    0.11070    0.65137    1.000
    H9       H        0.70010    0.06440    0.64580    1.000
    C23      C        0.42100    0.32440    0.67505    1.000
    C24      C        0.65240    0.04230    0.74197    1.000
    C25      C        0.72760    0.24470    0.55782    1.000
    C26      C        0.84230    0.27590    0.60323    1.000
    H10      H        0.87200    0.25060    0.63990    1.000
    C27      C        0.91400    0.34590    0.59400    1.000
    C28      C        0.86600    0.38340    0.53865    1.000
    H11      H        0.91390    0.42970    0.53200    1.000
    C29      C        0.74710    0.35230    0.49331    1.000
    C30      C        0.67750    0.28160    0.50240    1.000
    H12      H        0.59930    0.25930    0.47230    1.000
    C31      C        0.04230    0.37910    0.64241    1.000
    C32      C        0.68760    0.39680    0.43469    1.000
    Zn5      Zn       0.25785    0.14623    0.26493    1.000
    Zn6      Zn       0.29160    0.01794    0.14451    1.000
    O19      O        0.38160    0.17630    0.21589    1.000
    O20      O        0.40270    0.11540    0.13961    1.000
    O21      O        0.62000    0.44960    0.28605    1.000
    O22      O        0.72040    0.51680    0.23379    1.000
    O23      O        0.07940    0.15500    0.19071    1.000
    O24      O        0.10230    0.05900    0.12908    1.000
    O25      O        0.76750    0.04730    0.92705    1.000
    O26      O        0.57000    0.12120    0.90029    1.000
    O27      O        0.65760    0.32707    0.06549    1.000
    C33      C        0.61710    0.32200    0.11286    1.000
    C34      C        0.54220    0.25320    0.11957    1.000
    H13      H        0.51940    0.20870    0.09290    1.000
    C35      C        0.50130    0.25120    0.16673    1.000
    C36      C        0.53390    0.31820    0.20592    1.000
    H14      H        0.50530    0.31680    0.23720    1.000
    C37      C        0.60890    0.38720    0.19879    1.000
    C38      C        0.65050    0.38930    0.15137    1.000
    H15      H        0.70010    0.43560    0.14580    1.000
    C39      C        0.42100    0.17560    0.17505    1.000
    C40      C        0.65240    0.45770    0.24197    1.000
    C41      C        0.72760    0.25530    0.05782    1.000
    C42      C        0.84230    0.22410    0.10323    1.000
    H16      H        0.87200    0.24940    0.13990    1.000
    C43      C        0.91400    0.15410    0.09400    1.000
    C44      C        0.86600    0.11660    0.03865    1.000
    H17      H        0.91390    0.07030    0.03200    1.000
    C45      C        0.74710    0.14770    0.99331    1.000
    C46      C        0.67750    0.21840    0.00240    1.000
    H18      H        0.59930    0.24070    0.97230    1.000
    C47      C        0.04230    0.12090    0.14241    1.000
    C48      C        0.68760    0.10320    0.93469    1.000
    Zn7      Zn       0.74215    0.64623    0.23507    1.000
    Zn8      Zn       0.70840    0.51794    0.35549    1.000
    O28      O        0.61840    0.67630    0.28411    1.000
    O29      O        0.59730    0.61540    0.36039    1.000
    O30      O        0.38000    0.94960    0.21395    1.000
    O31      O        0.27960    0.01680    0.26621    1.000
    O32      O        0.92060    0.65500    0.30929    1.000
    O33      O        0.89770    0.55900    0.37092    1.000
    O34      O        0.23250    0.54730    0.57295    1.000
    O35      O        0.43000    0.62120    0.59971    1.000
    O36      O        0.34240    0.82707    0.43451    1.000
    C49      C        0.38290    0.82200    0.38714    1.000
    C50      C        0.45780    0.75320    0.38043    1.000
    H19      H        0.48060    0.70870    0.40710    1.000
    C51      C        0.49870    0.75120    0.33327    1.000
    C52      C        0.46610    0.81820    0.29408    1.000
    H20      H        0.49470    0.81680    0.26280    1.000
    C53      C        0.39110    0.88720    0.30121    1.000
    C54      C        0.34950    0.88930    0.34863    1.000
    H21      H        0.29990    0.93560    0.35420    1.000
    C55      C        0.57900    0.67560    0.32495    1.000
    C56      C        0.34760    0.95770    0.25803    1.000
    C57      C        0.27240    0.75530    0.44218    1.000
    C58      C        0.15770    0.72410    0.39677    1.000
    H22      H        0.12800    0.74940    0.36010    1.000
    C59      C        0.08600    0.65410    0.40600    1.000
    C60      C        0.13400    0.61660    0.46135    1.000
    H23      H        0.08610    0.57030    0.46800    1.000
    C61      C        0.25290    0.64770    0.50669    1.000
    C62      C        0.32250    0.71840    0.49760    1.000
    H24      H        0.40070    0.74070    0.52770    1.000
    C63      C        0.95770    0.62090    0.35759    1.000
    C64      C        0.31240    0.60320    0.56531    1.000
