data_functionalizedCrystal
_audit_creation_method	'EQeq! by Chris Wilmer'
_symmetry_space_group_name_H-M	'P1'
_symmetry_Int_Tables_number	1
_symmetry_cell_setting	triclinic
loop_
_symmetry_equiv_pos_as_xyz
  x,y,z
_cell_length_a	15.151
_cell_length_b	23.282
_cell_length_c	33.961
_cell_angle_alpha	90
_cell_angle_beta	90
_cell_angle_gamma	90
loop_
_atom_site_label
_atom_site_type_symbol
_atom_site_fract_x
_atom_site_fract_y
_atom_site_fract_z
_atom_site_charge
Mof_O 	O 	0.4887	0.4176	0.10521	-0.502
Mof_O 	O 	0.3535	0.4404	0.12052	-0.503
Mof_O 	O 	0.6433	0.558	0.27554	-0.553
Mof_O 	O 	0.5088	0.5851	0.28857	-0.52
Mof_C 	C 	0.4348	0.4431	0.1276	0.293
Mof_C 	C 	0.4667	0.4777	0.1626	-0.01
Mof_C 	C 	0.4105	0.5068	0.1862	-0.138
Mof_C 	C 	0.5575	0.4756	0.1718	-0.054
Mof_C 	C 	0.4428	0.5337	0.2201	0.192
Mof_H 	H 	0.3525	0.5144	0.1771	0.04
Mof_H 	H 	0.5969	0.4555	0.155	0.047
Mof_C 	C 	0.59	0.5026	0.2054	0.079
Mof_C 	C 	0.5312	0.5337	0.2298	-0.073
Mof_C 	C 	0.5614	0.5572	0.2669	0.358
Mof_N 	N 	0.6785	0.4943	0.2111	-0.203
Mof_H 	H 	0.7089	0.4735	0.1942	0.113
Mof_H 	H 	0.705	0.5098	0.2316	0.113
Mof_C 	C 	0.5487	0.4581	0.178	-0.057
Mof_C 	C 	0.5805	0.4818	0.2122	0.076
Mof_N 	N 	0.6636	0.461	0.2258	-0.194
Mof_C 	C 	0.4678	0.4665	0.165	0.017
Mof_C 	C 	0.5279	0.5199	0.2331	-0.099
Mof_H 	H 	0.3496	0.5089	0.1798	0.039
Mof_H 	H 	0.5869	0.4343	0.163	0.043
Mof_H 	H 	0.6868	0.4748	0.2475	0.104
Mof_H 	H 	0.6916	0.4343	0.2123	0.096
Mof_N 	N 	0.381	0.564	0.238	-0.319
Mof_H 	H 	0.3271	0.5657	0.2282	0.146
Mof_H 	H 	0.3933	0.5833	0.2597	0.176
Mof_O 	O 	0.4887	0.9176	0.60521	-0.502
Mof_O 	O 	0.3535	0.9404	0.62052	-0.503
Mof_O 	O 	0.6433	0.058	0.77554	-0.553
Mof_O 	O 	0.5088	0.0851	0.78857	-0.52
Mof_C 	C 	0.4348	0.9431	0.6276	0.293
Mof_C 	C 	0.4667	0.9777	0.6626	-0.01
Mof_C 	C 	0.4105	0.0068	0.6862	-0.138
Mof_C 	C 	0.5575	0.9756	0.6718	-0.054
Mof_C 	C 	0.4428	0.0337	0.7201	0.192
Mof_H 	H 	0.3525	0.0144	0.6771	0.04
Mof_H 	H 	0.5969	0.9555	0.655	0.047
Mof_C 	C 	0.59	0.0026	0.7054	0.079
Mof_C 	C 	0.5312	0.0337	0.7298	-0.073
Mof_C 	C 	0.5614	0.0572	0.7669	0.358
Mof_N 	N 	0.6785	0.9943	0.7111	-0.203
Mof_H 	H 	0.7089	0.9735	0.6942	0.112
Mof_H 	H 	0.705	0.0098	0.7316	0.113
Mof_C 	C 	0.5487	0.9581	0.678	-0.057
Mof_C 	C 	0.5805	0.9818	0.7122	0.075
Mof_N 	N 	0.6636	0.961	0.7258	-0.194
Mof_C 	C 	0.4678	0.9665	0.665	0.017
Mof_C 	C 	0.5279	0.0199	0.7331	-0.1
Mof_H 	H 	0.3496	0.0089	0.6798	0.039
Mof_H 	H 	0.5869	0.9343	0.663	0.043
Mof_H 	H 	0.6868	0.9748	0.7475	0.104
Mof_H 	H 	0.6916	0.9343	0.7123	0.096
Mof_N 	N 	0.381	0.064	0.738	-0.319
Mof_H 	H 	0.3271	0.0657	0.7282	0.146
Mof_H 	H 	0.3933	0.0833	0.7597	0.176
Mof_O 	O 	0.9887	0.4176	0.60521	-0.501
Mof_O 	O 	0.8535	0.4404	0.62052	-0.502
Mof_O 	O 	0.1433	0.558	0.77554	-0.552
Mof_O 	O 	0.0088	0.5851	0.78857	-0.519
Mof_C 	C 	0.9348	0.4431	0.6276	0.294
Mof_C 	C 	0.9667	0.4777	0.6626	-0.009
Mof_C 	C 	0.9105	0.5068	0.6862	-0.137
Mof_C 	C 	0.0575	0.4756	0.6718	-0.053
Mof_C 	C 	0.9428	0.5337	0.7201	0.193
Mof_H 	H 	0.8525	0.5144	0.6771	0.041
Mof_H 	H 	0.0969	0.4555	0.655	0.048
Mof_C 	C 	0.09	0.5026	0.7054	0.079
Mof_C 	C 	0.0312	0.5337	0.7298	-0.072
Mof_C 	C 	0.0614	0.5572	0.7669	0.359
Mof_N 	N 	0.1785	0.4943	0.7111	-0.202
Mof_H 	H 	0.2089	0.4735	0.6942	0.113
Mof_H 	H 	0.205	0.5098	0.7316	0.114
Mof_C 	C 	0.0487	0.4581	0.678	-0.056
Mof_C 	C 	0.0805	0.4818	0.7122	0.077
Mof_N 	N 	0.1636	0.461	0.7258	-0.193
Mof_C 	C 	0.9678	0.4665	0.665	0.018
Mof_C 	C 	0.0279	0.5199	0.7331	-0.098
Mof_H 	H 	0.8496	0.5089	0.6798	0.04
Mof_H 	H 	0.0869	0.4343	0.663	0.044
Mof_H 	H 	0.1868	0.4748	0.7475	0.105
Mof_H 	H 	0.1916	0.4343	0.7123	0.097
Mof_N 	N 	0.881	0.564	0.738	-0.318
Mof_H 	H 	0.8271	0.5657	0.7282	0.147
Mof_H 	H 	0.8933	0.5833	0.7597	0.177
Mof_O 	O 	0.9887	0.9176	0.10521	-0.501
Mof_O 	O 	0.8535	0.9404	0.12052	-0.501
Mof_O 	O 	0.1433	0.058	0.27554	-0.552
Mof_O 	O 	0.0088	0.0851	0.28857	-0.519
Mof_C 	C 	0.9348	0.9431	0.1276	0.294
Mof_C 	C 	0.9667	0.9777	0.1626	-0.009
Mof_C 	C 	0.9105	0.0068	0.1862	-0.138
Mof_C 	C 	0.0575	0.9756	0.1718	-0.054
Mof_C 	C 	0.9428	0.0337	0.2201	0.193
Mof_H 	H 	0.8525	0.0144	0.1771	0.041
Mof_H 	H 	0.0969	0.9555	0.155	0.049
Mof_C 	C 	0.09	0.0026	0.2054	0.077
Mof_C 	C 	0.0312	0.0337	0.2298	-0.073
Mof_C 	C 	0.0614	0.0572	0.2669	0.359
Mof_N 	N 	0.1785	0.9943	0.2111	-0.202
Mof_H 	H 	0.2089	0.9735	0.1942	0.113
Mof_H 	H 	0.205	0.0098	0.2316	0.114
Mof_C 	C 	0.0487	0.9581	0.178	-0.056
Mof_C 	C 	0.0805	0.9818	0.2122	0.08
Mof_N 	N 	0.1636	0.961	0.2258	-0.194
Mof_C 	C 	0.9678	0.9665	0.165	0.019
Mof_C 	C 	0.0279	0.0199	0.2331	-0.098
Mof_H 	H 	0.8496	0.0089	0.1798	0.04
Mof_H 	H 	0.0869	0.9343	0.163	0.043
Mof_H 	H 	0.1868	0.9748	0.2475	0.105
Mof_H 	H 	0.1916	0.9343	0.2123	0.097
Mof_N 	N 	0.881	0.064	0.238	-0.318
Mof_H 	H 	0.8271	0.0657	0.2282	0.147
Mof_H 	H 	0.8933	0.0833	0.2597	0.176
Mof_O 	O 	0.2613	0.3324	0.10521	-0.501
Mof_O 	O 	0.3965	0.3096	0.12052	-0.502
Mof_O 	O 	0.1067	0.192	0.27554	-0.552
Mof_O 	O 	0.2412	0.1649	0.28857	-0.519
Mof_C 	C 	0.3152	0.3069	0.1276	0.294
Mof_C 	C 	0.2833	0.2723	0.1626	-0.009
Mof_C 	C 	0.3395	0.2432	0.1862	-0.137
Mof_C 	C 	0.1925	0.2744	0.1718	-0.053
Mof_C 	C 	0.3072	0.2163	0.2201	0.193
Mof_H 	H 	0.3975	0.2356	0.1771	0.041
Mof_H 	H 	0.1531	0.2945	0.155	0.048
Mof_C 	C 	0.16	0.2474	0.2054	0.079
Mof_C 	C 	0.2188	0.2163	0.2298	-0.072
Mof_C 	C 	0.1886	0.1928	0.2669	0.359
Mof_N 	N 	0.0715	0.2557	0.2111	-0.202
Mof_H 	H 	0.0411	0.2765	0.1942	0.113
Mof_H 	H 	0.045	0.2402	0.2316	0.114
Mof_C 	C 	0.2013	0.2919	0.178	-0.056
Mof_C 	C 	0.1695	0.2682	0.2122	0.077
Mof_N 	N 	0.0864	0.289	0.2258	-0.193
Mof_C 	C 	0.2822	0.2835	0.165	0.018
Mof_C 	C 	0.2221	0.2301	0.2331	-0.098
Mof_H 	H 	0.4004	0.2411	0.1798	0.04
Mof_H 	H 	0.1631	0.3157	0.163	0.044
Mof_H 	H 	0.0632	0.2752	0.2475	0.105
Mof_H 	H 	0.0584	0.3157	0.2123	0.097
Mof_N 	N 	0.369	0.186	0.238	-0.318
Mof_H 	H 	0.4229	0.1843	0.2282	0.147
Mof_H 	H 	0.3567	0.1667	0.2597	0.177
Mof_O 	O 	0.2613	0.8324	0.60521	-0.501
Mof_O 	O 	0.3965	0.8096	0.62052	-0.502
Mof_O 	O 	0.1067	0.692	0.77554	-0.552
Mof_O 	O 	0.2412	0.6649	0.78857	-0.519
Mof_C 	C 	0.3152	0.8069	0.6276	0.294
Mof_C 	C 	0.2833	0.7723	0.6626	-0.009
Mof_C 	C 	0.3395	0.7432	0.6862	-0.137
Mof_C 	C 	0.1925	0.7744	0.6718	-0.053
Mof_C 	C 	0.3072	0.7163	0.7201	0.193
Mof_H 	H 	0.3975	0.7356	0.6771	0.041
Mof_H 	H 	0.1531	0.7945	0.655	0.048
Mof_C 	C 	0.16	0.7474	0.7054	0.08
Mof_C 	C 	0.2188	0.7163	0.7298	-0.072
Mof_C 	C 	0.1886	0.6928	0.7669	0.359
Mof_N 	N 	0.0715	0.7557	0.7111	-0.202
Mof_H 	H 	0.0411	0.7765	0.6942	0.113
Mof_H 	H 	0.045	0.7402	0.7316	0.114
Mof_C 	C 	0.2013	0.7919	0.678	-0.056
Mof_C 	C 	0.1695	0.7682	0.7122	0.077
Mof_N 	N 	0.0864	0.789	0.7258	-0.193
Mof_C 	C 	0.2822	0.7835	0.665	0.018
Mof_C 	C 	0.2221	0.7301	0.7331	-0.098
Mof_H 	H 	0.4004	0.7411	0.6798	0.04
Mof_H 	H 	0.1631	0.8157	0.663	0.044
Mof_H 	H 	0.0632	0.7752	0.7475	0.105
Mof_H 	H 	0.0584	0.8157	0.7123	0.096
Mof_N 	N 	0.369	0.686	0.738	-0.318
Mof_H 	H 	0.4229	0.6843	0.7282	0.147
Mof_H 	H 	0.3567	0.6667	0.7597	0.177
Mof_O 	O 	0.7613	0.3324	0.60521	-0.501
Mof_O 	O 	0.8965	0.3096	0.62052	-0.502
Mof_O 	O 	0.6067	0.192	0.77554	-0.552
Mof_O 	O 	0.7412	0.1649	0.78857	-0.519
Mof_C 	C 	0.8152	0.3069	0.6276	0.294
Mof_C 	C 	0.7833	0.2723	0.6626	-0.009
Mof_C 	C 	0.8395	0.2432	0.6862	-0.137
Mof_C 	C 	0.6925	0.2744	0.6718	-0.053
Mof_C 	C 	0.8072	0.2163	0.7201	0.193
Mof_H 	H 	0.8975	0.2356	0.6771	0.041
Mof_H 	H 	0.6531	0.2945	0.655	0.048
Mof_C 	C 	0.66	0.2474	0.7054	0.08
Mof_C 	C 	0.7188	0.2163	0.7298	-0.072
Mof_C 	C 	0.6886	0.1928	0.7669	0.359
Mof_N 	N 	0.5715	0.2557	0.7111	-0.202
Mof_H 	H 	0.5411	0.2765	0.6942	0.114
Mof_H 	H 	0.545	0.2402	0.7316	0.114
Mof_C 	C 	0.7013	0.2919	0.678	-0.056
Mof_C 	C 	0.6695	0.2682	0.7122	0.077
Mof_N 	N 	0.5864	0.289	0.7258	-0.193
Mof_C 	C 	0.7822	0.2835	0.665	0.018
Mof_C 	C 	0.7221	0.2301	0.7331	-0.098
Mof_H 	H 	0.9004	0.2411	0.6798	0.04
Mof_H 	H 	0.6631	0.3157	0.663	0.044
Mof_H 	H 	0.5632	0.2752	0.7475	0.105
Mof_H 	H 	0.5584	0.3157	0.7123	0.097
Mof_N 	N 	0.869	0.186	0.738	-0.318
Mof_H 	H 	0.9229	0.1843	0.7282	0.147
Mof_H 	H 	0.8567	0.1667	0.7597	0.176
Mof_O 	O 	0.7613	0.8324	0.10521	-0.501
Mof_O 	O 	0.8965	0.8096	0.12052	-0.502
Mof_O 	O 	0.6067	0.692	0.27554	-0.552
Mof_O 	O 	0.7412	0.6649	0.28857	-0.519
Mof_C 	C 	0.8152	0.8069	0.1276	0.294
Mof_C 	C 	0.7833	0.7723	0.1626	-0.009
Mof_C 	C 	0.8395	0.7432	0.1862	-0.137
Mof_C 	C 	0.6925	0.7744	0.1718	-0.053
Mof_C 	C 	0.8072	0.7163	0.2201	0.193
Mof_H 	H 	0.8975	0.7356	0.1771	0.041
Mof_H 	H 	0.6531	0.7945	0.155	0.048
Mof_C 	C 	0.66	0.7474	0.2054	0.08
Mof_C 	C 	0.7188	0.7163	0.2298	-0.072
Mof_C 	C 	0.6886	0.6928	0.2669	0.359
Mof_N 	N 	0.5715	0.7557	0.2111	-0.202
Mof_H 	H 	0.5411	0.7765	0.1942	0.114
Mof_H 	H 	0.545	0.7402	0.2316	0.114
Mof_C 	C 	0.7013	0.7919	0.178	-0.056
Mof_C 	C 	0.6695	0.7682	0.2122	0.077
Mof_N 	N 	0.5864	0.789	0.2258	-0.193
Mof_C 	C 	0.7822	0.7835	0.165	0.018
Mof_C 	C 	0.7221	0.7301	0.2331	-0.098
Mof_H 	H 	0.9004	0.7411	0.1798	0.04
Mof_H 	H 	0.6631	0.8157	0.163	0.044
Mof_H 	H 	0.5632	0.7752	0.2475	0.105
Mof_H 	H 	0.5584	0.8157	0.2123	0.097
Mof_N 	N 	0.869	0.686	0.238	-0.318
Mof_H 	H 	0.9229	0.6843	0.2282	0.147
Mof_H 	H 	0.8567	0.6667	0.2597	0.177
Mof_O 	O 	0.7387	0.5824	0.35521	-0.501
Mof_O 	O 	0.6035	0.5596	0.37052	-0.502
Mof_O 	O 	0.8933	0.442	0.52554	-0.552
Mof_O 	O 	0.7588	0.4149	0.53857	-0.519
Mof_C 	C 	0.6848	0.5569	0.3776	0.294
Mof_C 	C 	0.7167	0.5223	0.4126	-0.009
Mof_C 	C 	0.6605	0.4932	0.4362	-0.137
Mof_C 	C 	0.8075	0.5244	0.4218	-0.053
Mof_C 	C 	0.6928	0.4663	0.4701	0.193
Mof_H 	H 	0.6025	0.4856	0.4271	0.041
Mof_H 	H 	0.8469	0.5445	0.405	0.048
Mof_C 	C 	0.84	0.4974	0.4554	0.08
Mof_C 	C 	0.7812	0.4663	0.4798	-0.072
Mof_C 	C 	0.8114	0.4428	0.5169	0.359
Mof_N 	N 	0.9285	0.5057	0.4611	-0.202
Mof_H 	H 	0.9589	0.5265	0.4442	0.113
Mof_H 	H 	0.955	0.4902	0.4816	0.114
Mof_C 	C 	0.7987	0.5419	0.428	-0.056
Mof_C 	C 	0.8305	0.5182	0.4622	0.077
Mof_N 	N 	0.9136	0.539	0.4758	-0.193
Mof_C 	C 	0.7178	0.5335	0.415	0.018
Mof_C 	C 	0.7779	0.4801	0.4831	-0.098
Mof_H 	H 	0.5996	0.4911	0.4298	0.04
Mof_H 	H 	0.8369	0.5657	0.413	0.044
Mof_H 	H 	0.9368	0.5252	0.4975	0.105
Mof_H 	H 	0.9416	0.5657	0.4623	0.097
Mof_N 	N 	0.631	0.436	0.488	-0.318
Mof_H 	H 	0.5771	0.4343	0.4782	0.147
Mof_H 	H 	0.6433	0.4167	0.5097	0.177
Mof_O 	O 	0.7387	0.0824	0.85521	-0.501
Mof_O 	O 	0.6035	0.0596	0.87052	-0.502
Mof_O 	O 	0.8933	0.942	0.02554	-0.552
Mof_O 	O 	0.7588	0.9149	0.03857	-0.519
Mof_C 	C 	0.6848	0.0569	0.8776	0.294
Mof_C 	C 	0.7167	0.0223	0.9126	-0.009
Mof_C 	C 	0.6605	0.9932	0.9362	-0.137
Mof_C 	C 	0.8075	0.0244	0.9218	-0.053
Mof_C 	C 	0.6928	0.9663	0.9701	0.193
Mof_H 	H 	0.6025	0.9856	0.9271	0.041
Mof_H 	H 	0.8469	0.0445	0.905	0.048
Mof_C 	C 	0.84	0.9974	0.9554	0.077
Mof_C 	C 	0.7812	0.9663	0.9798	-0.073
Mof_C 	C 	0.8114	0.9428	0.0169	0.359
Mof_N 	N 	0.9285	0.0057	0.9611	-0.202
Mof_H 	H 	0.9589	0.0265	0.9442	0.113
Mof_H 	H 	0.955	0.9902	0.9816	0.114
Mof_C 	C 	0.7987	0.0419	0.928	-0.056
Mof_C 	C 	0.8305	0.0182	0.9622	0.08
Mof_N 	N 	0.9136	0.039	0.9758	-0.194
Mof_C 	C 	0.7178	0.0335	0.915	0.018
Mof_C 	C 	0.7779	0.9801	0.9831	-0.098
Mof_H 	H 	0.5996	0.9911	0.9298	0.04
Mof_H 	H 	0.8369	0.0657	0.913	0.044
Mof_H 	H 	0.9368	0.0252	0.9975	0.105
Mof_H 	H 	0.9416	0.0657	0.9623	0.096
Mof_N 	N 	0.631	0.936	0.988	-0.318
Mof_H 	H 	0.5771	0.9343	0.9782	0.147
Mof_H 	H 	0.6433	0.9167	0.0097	0.177
Mof_O 	O 	0.2387	0.5824	0.85521	-0.501
Mof_O 	O 	0.1035	0.5596	0.87052	-0.502
Mof_O 	O 	0.3933	0.442	0.02554	-0.552
Mof_O 	O 	0.2588	0.4149	0.03857	-0.519
Mof_C 	C 	0.1848	0.5569	0.8776	0.294
Mof_C 	C 	0.2167	0.5223	0.9126	-0.009
Mof_C 	C 	0.1605	0.4932	0.9362	-0.137
Mof_C 	C 	0.3075	0.5244	0.9218	-0.053
Mof_C 	C 	0.1928	0.4663	0.9701	0.193
Mof_H 	H 	0.1025	0.4856	0.9271	0.041
Mof_H 	H 	0.3469	0.5445	0.905	0.048
Mof_C 	C 	0.34	0.4974	0.9554	0.079
Mof_C 	C 	0.2812	0.4663	0.9798	-0.072
Mof_C 	C 	0.3114	0.4428	0.0169	0.359
Mof_N 	N 	0.4285	0.5057	0.9611	-0.202
Mof_H 	H 	0.4589	0.5265	0.9442	0.113
Mof_H 	H 	0.455	0.4902	0.9816	0.114
Mof_C 	C 	0.2987	0.5419	0.928	-0.056
Mof_C 	C 	0.3305	0.5182	0.9622	0.077
Mof_N 	N 	0.4136	0.539	0.9758	-0.193
Mof_C 	C 	0.2178	0.5335	0.915	0.018
Mof_C 	C 	0.2779	0.4801	0.9831	-0.098
Mof_H 	H 	0.0996	0.4911	0.9298	0.04
Mof_H 	H 	0.3369	0.5657	0.913	0.044
Mof_H 	H 	0.4368	0.5252	0.9975	0.105
Mof_H 	H 	0.4416	0.5657	0.9623	0.097
Mof_N 	N 	0.131	0.436	0.988	-0.318
Mof_H 	H 	0.0771	0.4343	0.9782	0.147
Mof_H 	H 	0.1433	0.4167	0.0097	0.176
Mof_O 	O 	0.2387	0.0824	0.35521	-0.501
Mof_O 	O 	0.1035	0.0596	0.37052	-0.502
Mof_O 	O 	0.3933	0.942	0.52554	-0.552
Mof_O 	O 	0.2588	0.9149	0.53857	-0.519
Mof_C 	C 	0.1848	0.0569	0.3776	0.294
Mof_C 	C 	0.2167	0.0223	0.4126	-0.009
Mof_C 	C 	0.1605	0.9932	0.4362	-0.138
Mof_C 	C 	0.3075	0.0244	0.4218	-0.053
Mof_C 	C 	0.1928	0.9663	0.4701	0.193
Mof_H 	H 	0.1025	0.9856	0.4271	0.041
Mof_H 	H 	0.3469	0.0445	0.405	0.048
Mof_C 	C 	0.34	0.9974	0.4554	0.081
Mof_C 	C 	0.2812	0.9663	0.4798	-0.072
Mof_C 	C 	0.3114	0.9428	0.5169	0.359
Mof_N 	N 	0.4285	0.0057	0.4611	-0.202
Mof_H 	H 	0.4589	0.0265	0.4442	0.114
Mof_H 	H 	0.455	0.9902	0.4816	0.114
Mof_C 	C 	0.2987	0.0419	0.428	-0.056
Mof_C 	C 	0.3305	0.0182	0.4622	0.076
Mof_N 	N 	0.4136	0.039	0.4758	-0.193
Mof_C 	C 	0.2178	0.0335	0.415	0.018
Mof_C 	C 	0.2779	0.9801	0.4831	-0.099
Mof_H 	H 	0.0996	0.9911	0.4298	0.04
Mof_H 	H 	0.3369	0.0657	0.413	0.044
Mof_H 	H 	0.4368	0.0252	0.4975	0.105
Mof_H 	H 	0.4416	0.0657	0.4623	0.097
Mof_N 	N 	0.131	0.936	0.488	-0.318
Mof_H 	H 	0.0771	0.9343	0.4782	0.147
Mof_H 	H 	0.1433	0.9167	0.5097	0.176
Mof_O 	O 	0.5113	0.6676	0.35521	-0.501
Mof_O 	O 	0.6465	0.6904	0.37052	-0.502
Mof_O 	O 	0.3567	0.808	0.52554	-0.552
Mof_O 	O 	0.4912	0.8351	0.53857	-0.519
Mof_C 	C 	0.5652	0.6931	0.3776	0.294
Mof_C 	C 	0.5333	0.7277	0.4126	-0.009
Mof_C 	C 	0.5895	0.7568	0.4362	-0.137
Mof_C 	C 	0.4425	0.7256	0.4218	-0.053
Mof_C 	C 	0.5572	0.7837	0.4701	0.193
Mof_H 	H 	0.6475	0.7644	0.4271	0.041
Mof_H 	H 	0.4031	0.7055	0.405	0.048
Mof_C 	C 	0.41	0.7526	0.4554	0.08
Mof_C 	C 	0.4688	0.7837	0.4798	-0.072
Mof_C 	C 	0.4386	0.8072	0.5169	0.359
Mof_N 	N 	0.3215	0.7443	0.4611	-0.202
Mof_H 	H 	0.2911	0.7235	0.4442	0.113
Mof_H 	H 	0.295	0.7598	0.4816	0.114
Mof_C 	C 	0.4513	0.7081	0.428	-0.056
Mof_C 	C 	0.4195	0.7318	0.4622	0.077
Mof_N 	N 	0.3364	0.711	0.4758	-0.193
Mof_C 	C 	0.5322	0.7165	0.415	0.018
Mof_C 	C 	0.4721	0.7699	0.4831	-0.098
Mof_H 	H 	0.6504	0.7589	0.4298	0.04
Mof_H 	H 	0.4131	0.6843	0.413	0.044
Mof_H 	H 	0.3132	0.7248	0.4975	0.105
Mof_H 	H 	0.3084	0.6843	0.4623	0.097
Mof_N 	N 	0.619	0.814	0.488	-0.318
Mof_H 	H 	0.6729	0.8157	0.4782	0.147
Mof_H 	H 	0.6067	0.8333	0.5097	0.177
Mof_O 	O 	0.5113	0.1676	0.85521	-0.501
Mof_O 	O 	0.6465	0.1904	0.87052	-0.502
Mof_O 	O 	0.3567	0.308	0.02554	-0.552
Mof_O 	O 	0.4912	0.3351	0.03857	-0.519
Mof_C 	C 	0.5652	0.1931	0.8776	0.294
Mof_C 	C 	0.5333	0.2277	0.9126	-0.009
Mof_C 	C 	0.5895	0.2568	0.9362	-0.137
Mof_C 	C 	0.4425	0.2256	0.9218	-0.053
Mof_C 	C 	0.5572	0.2837	0.9701	0.193
Mof_H 	H 	0.6475	0.2644	0.9271	0.041
Mof_H 	H 	0.4031	0.2055	0.905	0.048
Mof_C 	C 	0.41	0.2526	0.9554	0.079
Mof_C 	C 	0.4688	0.2837	0.9798	-0.072
Mof_C 	C 	0.4386	0.3072	0.0169	0.359
Mof_N 	N 	0.3215	0.2443	0.9611	-0.202
Mof_H 	H 	0.2911	0.2235	0.9442	0.114
Mof_H 	H 	0.295	0.2598	0.9816	0.114
Mof_C 	C 	0.4513	0.2081	0.928	-0.056
Mof_C 	C 	0.4195	0.2318	0.9622	0.077
Mof_N 	N 	0.3364	0.211	0.9758	-0.193
Mof_C 	C 	0.5322	0.2165	0.915	0.018
Mof_C 	C 	0.4721	0.2699	0.9831	-0.098
Mof_H 	H 	0.6504	0.2589	0.9298	0.04
Mof_H 	H 	0.4131	0.1843	0.913	0.044
Mof_H 	H 	0.3132	0.2248	0.9975	0.105
Mof_H 	H 	0.3084	0.1843	0.9623	0.097
Mof_N 	N 	0.619	0.314	0.988	-0.318
Mof_H 	H 	0.6729	0.3157	0.9782	0.147
Mof_H 	H 	0.6067	0.3333	0.0097	0.177
Mof_O 	O 	0.0113	0.6676	0.85521	-0.501
Mof_O 	O 	0.1465	0.6904	0.87052	-0.502
Mof_O 	O 	0.8567	0.808	0.02554	-0.552
Mof_O 	O 	0.9912	0.8351	0.03857	-0.519
Mof_C 	C 	0.0652	0.6931	0.8776	0.294
Mof_C 	C 	0.0333	0.7277	0.9126	-0.009
Mof_C 	C 	0.0895	0.7568	0.9362	-0.137
Mof_C 	C 	0.9425	0.7256	0.9218	-0.053
Mof_C 	C 	0.0572	0.7837	0.9701	0.193
Mof_H 	H 	0.1475	0.7644	0.9271	0.041
Mof_H 	H 	0.9031	0.7055	0.905	0.048
Mof_C 	C 	0.91	0.7526	0.9554	0.079
Mof_C 	C 	0.9688	0.7837	0.9798	-0.072
Mof_C 	C 	0.9386	0.8072	0.0169	0.359
Mof_N 	N 	0.8215	0.7443	0.9611	-0.202
Mof_H 	H 	0.7911	0.7235	0.9442	0.113
Mof_H 	H 	0.795	0.7598	0.9816	0.114
Mof_C 	C 	0.9513	0.7081	0.928	-0.056
Mof_C 	C 	0.9195	0.7318	0.9622	0.077
Mof_N 	N 	0.8364	0.711	0.9758	-0.194
Mof_C 	C 	0.0322	0.7165	0.915	0.018
Mof_C 	C 	0.9721	0.7699	0.9831	-0.098
Mof_H 	H 	0.1504	0.7589	0.9298	0.04
Mof_H 	H 	0.9131	0.6843	0.913	0.044
Mof_H 	H 	0.8132	0.7248	0.9975	0.105
Mof_H 	H 	0.8084	0.6843	0.9623	0.097
Mof_N 	N 	0.119	0.814	0.988	-0.318
Mof_H 	H 	0.1729	0.8157	0.9782	0.147
Mof_H 	H 	0.1067	0.8333	0.0097	0.176
Mof_O 	O 	0.0113	0.1676	0.35521	-0.501
Mof_O 	O 	0.1465	0.1904	0.37052	-0.502
Mof_O 	O 	0.8567	0.308	0.52554	-0.552
Mof_O 	O 	0.9912	0.3351	0.53857	-0.519
Mof_C 	C 	0.0652	0.1931	0.3776	0.294
Mof_C 	C 	0.0333	0.2277	0.4126	-0.009
Mof_C 	C 	0.0895	0.2568	0.4362	-0.138
Mof_C 	C 	0.9425	0.2256	0.4218	-0.053
Mof_C 	C 	0.0572	0.2837	0.4701	0.193
Mof_H 	H 	0.1475	0.2644	0.4271	0.041
Mof_H 	H 	0.9031	0.2055	0.405	0.048
Mof_C 	C 	0.91	0.2526	0.4554	0.079
Mof_C 	C 	0.9688	0.2837	0.4798	-0.072
Mof_C 	C 	0.9386	0.3072	0.5169	0.359
Mof_N 	N 	0.8215	0.2443	0.4611	-0.202
Mof_H 	H 	0.7911	0.2235	0.4442	0.113
Mof_H 	H 	0.795	0.2598	0.4816	0.114
Mof_C 	C 	0.9513	0.2081	0.428	-0.056
Mof_C 	C 	0.9195	0.2318	0.4622	0.077
Mof_N 	N 	0.8364	0.211	0.4758	-0.193
Mof_C 	C 	0.0322	0.2165	0.415	0.018
Mof_C 	C 	0.9721	0.2699	0.4831	-0.099
Mof_H 	H 	0.1504	0.2589	0.4298	0.04
Mof_H 	H 	0.9131	0.1843	0.413	0.044
Mof_H 	H 	0.8132	0.2248	0.4975	0.105
Mof_H 	H 	0.8084	0.1843	0.4623	0.097
Mof_N 	N 	0.119	0.314	0.488	-0.318
Mof_H 	H 	0.1729	0.3157	0.4782	0.147
Mof_H 	H 	0.1067	0.3333	0.5097	0.177
Mof_In	In	0.375	0.375	0.07207	2.536
Mof_In	In	0.375	0.875	0.57207	2.536
Mof_In	In	0.875	0.375	0.57207	2.536
Mof_In	In	0.875	0.875	0.07207	2.536
Mof_In	In	0.625	0.625	0.32207	2.536
Mof_In	In	0.625	0.125	0.82207	2.536
Mof_In	In	0.125	0.625	0.82207	2.536
Mof_In	In	0.125	0.125	0.32207	2.536
Mof_O 	O 	0.2613	0.4176	0.64479	-0.501
Mof_O 	O 	0.3965	0.4404	0.62948	-0.502
Mof_O 	O 	0.1067	0.558	0.47446	-0.552
Mof_O 	O 	0.2412	0.5851	0.46143	-0.519
Mof_C 	C 	0.3152	0.4431	0.6224	0.294
Mof_C 	C 	0.2833	0.4777	0.5874	-0.009
Mof_C 	C 	0.3395	0.5068	0.5638	-0.137
Mof_C 	C 	0.1925	0.4756	0.5782	-0.053
Mof_C 	C 	0.3072	0.5337	0.5299	0.193
Mof_H 	H 	0.3975	0.5144	0.5729	0.041
Mof_H 	H 	0.1531	0.4555	0.595	0.048
Mof_C 	C 	0.16	0.5026	0.5446	0.08
Mof_C 	C 	0.2188	0.5337	0.5202	-0.072
Mof_C 	C 	0.1886	0.5572	0.4831	0.359
Mof_N 	N 	0.0715	0.4943	0.5389	-0.202
Mof_H 	H 	0.0411	0.4735	0.5558	0.113
Mof_H 	H 	0.045	0.5098	0.5184	0.114
Mof_C 	C 	0.2013	0.4581	0.572	-0.056
Mof_C 	C 	0.1695	0.4818	0.5378	0.077
Mof_N 	N 	0.0864	0.461	0.5242	-0.193
Mof_C 	C 	0.2822	0.4665	0.585	0.018
Mof_C 	C 	0.2221	0.5199	0.5169	-0.098
Mof_H 	H 	0.4004	0.5089	0.5702	0.04
Mof_H 	H 	0.1631	0.4343	0.587	0.044
Mof_H 	H 	0.0632	0.4748	0.5025	0.105
Mof_H 	H 	0.0584	0.4343	0.5377	0.097
Mof_N 	N 	0.369	0.564	0.512	-0.318
Mof_H 	H 	0.4229	0.5657	0.5218	0.147
Mof_H 	H 	0.3567	0.5833	0.4903	0.177
Mof_O 	O 	0.2613	0.9176	0.14479	-0.501
Mof_O 	O 	0.3965	0.9404	0.12948	-0.502
Mof_O 	O 	0.1067	0.058	0.97446	-0.552
Mof_O 	O 	0.2412	0.0851	0.96143	-0.519
Mof_C 	C 	0.3152	0.9431	0.1224	0.294
Mof_C 	C 	0.2833	0.9777	0.0874	-0.009
Mof_C 	C 	0.3395	0.0068	0.0638	-0.137
Mof_C 	C 	0.1925	0.9756	0.0782	-0.053
Mof_C 	C 	0.3072	0.0337	0.0299	0.193
Mof_H 	H 	0.3975	0.0144	0.0729	0.041
Mof_H 	H 	0.1531	0.9555	0.095	0.048
Mof_C 	C 	0.16	0.0026	0.0446	0.077
Mof_C 	C 	0.2188	0.0337	0.0202	-0.073
Mof_C 	C 	0.1886	0.0572	0.9831	0.359
Mof_N 	N 	0.0715	0.9943	0.0389	-0.202
Mof_H 	H 	0.0411	0.9735	0.0558	0.113
Mof_H 	H 	0.045	0.0098	0.0184	0.114
Mof_C 	C 	0.2013	0.9581	0.072	-0.056
Mof_C 	C 	0.1695	0.9818	0.0378	0.08
Mof_N 	N 	0.0864	0.961	0.0242	-0.194
Mof_C 	C 	0.2822	0.9665	0.085	0.018
Mof_C 	C 	0.2221	0.0199	0.0169	-0.098
Mof_H 	H 	0.4004	0.0089	0.0702	0.04
Mof_H 	H 	0.1631	0.9343	0.087	0.044
Mof_H 	H 	0.0632	0.9748	0.0025	0.105
Mof_H 	H 	0.0584	0.9343	0.0377	0.096
Mof_N 	N 	0.369	0.064	0.012	-0.318
Mof_H 	H 	0.4229	0.0657	0.0218	0.147
Mof_H 	H 	0.3567	0.0833	0.9903	0.177
Mof_O 	O 	0.7613	0.4176	0.14479	-0.501
Mof_O 	O 	0.8965	0.4404	0.12948	-0.502
Mof_O 	O 	0.6067	0.558	0.97446	-0.552
Mof_O 	O 	0.7412	0.5851	0.96143	-0.519
Mof_C 	C 	0.8152	0.4431	0.1224	0.294
Mof_C 	C 	0.7833	0.4777	0.0874	-0.009
Mof_C 	C 	0.8395	0.5068	0.0638	-0.137
Mof_C 	C 	0.6925	0.4756	0.0782	-0.053
Mof_C 	C 	0.8072	0.5337	0.0299	0.193
Mof_H 	H 	0.8975	0.5144	0.0729	0.041
Mof_H 	H 	0.6531	0.4555	0.095	0.048
Mof_C 	C 	0.66	0.5026	0.0446	0.079
Mof_C 	C 	0.7188	0.5337	0.0202	-0.072
Mof_C 	C 	0.6886	0.5572	0.9831	0.359
Mof_N 	N 	0.5715	0.4943	0.0389	-0.202
Mof_H 	H 	0.5411	0.4735	0.0558	0.113
Mof_H 	H 	0.545	0.5098	0.0184	0.114
Mof_C 	C 	0.7013	0.4581	0.072	-0.056
Mof_C 	C 	0.6695	0.4818	0.0378	0.077
Mof_N 	N 	0.5864	0.461	0.0242	-0.193
Mof_C 	C 	0.7822	0.4665	0.085	0.018
Mof_C 	C 	0.7221	0.5199	0.0169	-0.098
Mof_H 	H 	0.9004	0.5089	0.0702	0.04
Mof_H 	H 	0.6631	0.4343	0.087	0.044
Mof_H 	H 	0.5632	0.4748	0.0025	0.105
Mof_H 	H 	0.5584	0.4343	0.0377	0.097
Mof_N 	N 	0.869	0.564	0.012	-0.318
Mof_H 	H 	0.9229	0.5657	0.0218	0.147
Mof_H 	H 	0.8567	0.5833	0.9903	0.176
Mof_O 	O 	0.7613	0.9176	0.64479	-0.501
Mof_O 	O 	0.8965	0.9404	0.62948	-0.502
Mof_O 	O 	0.6067	0.058	0.47446	-0.552
Mof_O 	O 	0.7412	0.0851	0.46143	-0.519
Mof_C 	C 	0.8152	0.9431	0.6224	0.294
Mof_C 	C 	0.7833	0.9777	0.5874	-0.009
Mof_C 	C 	0.8395	0.0068	0.5638	-0.138
Mof_C 	C 	0.6925	0.9756	0.5782	-0.053
Mof_C 	C 	0.8072	0.0337	0.5299	0.193
Mof_H 	H 	0.8975	0.0144	0.5729	0.041
Mof_H 	H 	0.6531	0.9555	0.595	0.048
Mof_C 	C 	0.66	0.0026	0.5446	0.081
Mof_C 	C 	0.7188	0.0337	0.5202	-0.072
Mof_C 	C 	0.6886	0.0572	0.4831	0.359
Mof_N 	N 	0.5715	0.9943	0.5389	-0.202
Mof_H 	H 	0.5411	0.9735	0.5558	0.114
Mof_H 	H 	0.545	0.0098	0.5184	0.114
Mof_C 	C 	0.7013	0.9581	0.572	-0.056
Mof_C 	C 	0.6695	0.9818	0.5378	0.076
Mof_N 	N 	0.5864	0.961	0.5242	-0.193
Mof_C 	C 	0.7822	0.9665	0.585	0.018
Mof_C 	C 	0.7221	0.0199	0.5169	-0.099
Mof_H 	H 	0.9004	0.0089	0.5702	0.04
Mof_H 	H 	0.6631	0.9343	0.587	0.044
Mof_H 	H 	0.5632	0.9748	0.5025	0.105
Mof_H 	H 	0.5584	0.9343	0.5377	0.097
Mof_N 	N 	0.869	0.064	0.512	-0.318
Mof_H 	H 	0.9229	0.0657	0.5218	0.147
Mof_H 	H 	0.8567	0.0833	0.4903	0.176
Mof_O 	O 	0.4887	0.3324	0.64479	-0.501
Mof_O 	O 	0.3535	0.3096	0.62948	-0.502
Mof_O 	O 	0.6433	0.192	0.47446	-0.552
Mof_O 	O 	0.5088	0.1649	0.46143	-0.519
Mof_C 	C 	0.4348	0.3069	0.6224	0.294
Mof_C 	C 	0.4667	0.2723	0.5874	-0.009
Mof_C 	C 	0.4105	0.2432	0.5638	-0.137
Mof_C 	C 	0.5575	0.2744	0.5782	-0.053
Mof_C 	C 	0.4428	0.2163	0.5299	0.193
Mof_H 	H 	0.3525	0.2356	0.5729	0.041
Mof_H 	H 	0.5969	0.2945	0.595	0.048
Mof_C 	C 	0.59	0.2474	0.5446	0.08
Mof_C 	C 	0.5312	0.2163	0.5202	-0.072
Mof_C 	C 	0.5614	0.1928	0.4831	0.359
Mof_N 	N 	0.6785	0.2557	0.5389	-0.202
Mof_H 	H 	0.7089	0.2765	0.5558	0.113
Mof_H 	H 	0.705	0.2402	0.5184	0.114
Mof_C 	C 	0.5487	0.2919	0.572	-0.056
Mof_C 	C 	0.5805	0.2682	0.5378	0.077
Mof_N 	N 	0.6636	0.289	0.5242	-0.193
Mof_C 	C 	0.4678	0.2835	0.585	0.018
Mof_C 	C 	0.5279	0.2301	0.5169	-0.098
Mof_H 	H 	0.3496	0.2411	0.5702	0.04
Mof_H 	H 	0.5869	0.3157	0.587	0.044
Mof_H 	H 	0.6868	0.2752	0.5025	0.105
Mof_H 	H 	0.6916	0.3157	0.5377	0.097
Mof_N 	N 	0.381	0.186	0.512	-0.318
Mof_H 	H 	0.3271	0.1843	0.5218	0.147
Mof_H 	H 	0.3933	0.1667	0.4903	0.177
Mof_O 	O 	0.4887	0.8324	0.14479	-0.501
Mof_O 	O 	0.3535	0.8096	0.12948	-0.502
Mof_O 	O 	0.6433	0.692	0.97446	-0.552
Mof_O 	O 	0.5088	0.6649	0.96143	-0.519
Mof_C 	C 	0.4348	0.8069	0.1224	0.294
Mof_C 	C 	0.4667	0.7723	0.0874	-0.009
Mof_C 	C 	0.4105	0.7432	0.0638	-0.137
Mof_C 	C 	0.5575	0.7744	0.0782	-0.053
Mof_C 	C 	0.4428	0.7163	0.0299	0.193
Mof_H 	H 	0.3525	0.7356	0.0729	0.041
Mof_H 	H 	0.5969	0.7945	0.095	0.048
Mof_C 	C 	0.59	0.7474	0.0446	0.079
Mof_C 	C 	0.5312	0.7163	0.0202	-0.072
Mof_C 	C 	0.5614	0.6928	0.9831	0.359
Mof_N 	N 	0.6785	0.7557	0.0389	-0.202
Mof_H 	H 	0.7089	0.7765	0.0558	0.114
Mof_H 	H 	0.705	0.7402	0.0184	0.114
Mof_C 	C 	0.5487	0.7919	0.072	-0.056
Mof_C 	C 	0.5805	0.7682	0.0378	0.077
Mof_N 	N 	0.6636	0.789	0.0242	-0.193
Mof_C 	C 	0.4678	0.7835	0.085	0.018
Mof_C 	C 	0.5279	0.7301	0.0169	-0.098
Mof_H 	H 	0.3496	0.7411	0.0702	0.04
Mof_H 	H 	0.5869	0.8157	0.087	0.044
Mof_H 	H 	0.6868	0.7752	0.0025	0.105
Mof_H 	H 	0.6916	0.8157	0.0377	0.097
Mof_N 	N 	0.381	0.686	0.012	-0.318
Mof_H 	H 	0.3271	0.6843	0.0218	0.147
Mof_H 	H 	0.3933	0.6667	0.9903	0.177
Mof_O 	O 	0.9887	0.3324	0.14479	-0.501
Mof_O 	O 	0.8535	0.3096	0.12948	-0.502
Mof_O 	O 	0.1433	0.192	0.97446	-0.552
Mof_O 	O 	0.0088	0.1649	0.96143	-0.519
Mof_C 	C 	0.9348	0.3069	0.1224	0.294
Mof_C 	C 	0.9667	0.2723	0.0874	-0.009
Mof_C 	C 	0.9105	0.2432	0.0638	-0.137
Mof_C 	C 	0.0575	0.2744	0.0782	-0.053
Mof_C 	C 	0.9428	0.2163	0.0299	0.193
Mof_H 	H 	0.8525	0.2356	0.0729	0.041
Mof_H 	H 	0.0969	0.2945	0.095	0.048
Mof_C 	C 	0.09	0.2474	0.0446	0.079
Mof_C 	C 	0.0312	0.2163	0.0202	-0.072
Mof_C 	C 	0.0614	0.1928	0.9831	0.359
Mof_N 	N 	0.1785	0.2557	0.0389	-0.202
Mof_H 	H 	0.2089	0.2765	0.0558	0.113
Mof_H 	H 	0.205	0.2402	0.0184	0.114
Mof_C 	C 	0.0487	0.2919	0.072	-0.056
Mof_C 	C 	0.0805	0.2682	0.0378	0.077
Mof_N 	N 	0.1636	0.289	0.0242	-0.194
Mof_C 	C 	0.9678	0.2835	0.085	0.018
Mof_C 	C 	0.0279	0.2301	0.0169	-0.098
Mof_H 	H 	0.8496	0.2411	0.0702	0.04
Mof_H 	H 	0.0869	0.3157	0.087	0.044
Mof_H 	H 	0.1868	0.2752	0.0025	0.105
Mof_H 	H 	0.1916	0.3157	0.0377	0.097
Mof_N 	N 	0.881	0.186	0.012	-0.318
Mof_H 	H 	0.8271	0.1843	0.0218	0.147
Mof_H 	H 	0.8933	0.1667	0.9903	0.176
Mof_O 	O 	0.9887	0.8324	0.64479	-0.501
Mof_O 	O 	0.8535	0.8096	0.62948	-0.502
Mof_O 	O 	0.1433	0.692	0.47446	-0.552
Mof_O 	O 	0.0088	0.6649	0.46143	-0.519
Mof_C 	C 	0.9348	0.8069	0.6224	0.294
Mof_C 	C 	0.9667	0.7723	0.5874	-0.009
Mof_C 	C 	0.9105	0.7432	0.5638	-0.138
Mof_C 	C 	0.0575	0.7744	0.5782	-0.053
Mof_C 	C 	0.9428	0.7163	0.5299	0.193
Mof_H 	H 	0.8525	0.7356	0.5729	0.041
Mof_H 	H 	0.0969	0.7945	0.595	0.048
Mof_C 	C 	0.09	0.7474	0.5446	0.079
Mof_C 	C 	0.0312	0.7163	0.5202	-0.072
Mof_C 	C 	0.0614	0.6928	0.4831	0.359
Mof_N 	N 	0.1785	0.7557	0.5389	-0.202
Mof_H 	H 	0.2089	0.7765	0.5558	0.113
Mof_H 	H 	0.205	0.7402	0.5184	0.114
Mof_C 	C 	0.0487	0.7919	0.572	-0.056
Mof_C 	C 	0.0805	0.7682	0.5378	0.077
Mof_N 	N 	0.1636	0.789	0.5242	-0.193
Mof_C 	C 	0.9678	0.7835	0.585	0.018
Mof_C 	C 	0.0279	0.7301	0.5169	-0.099
Mof_H 	H 	0.8496	0.7411	0.5702	0.04
Mof_H 	H 	0.0869	0.8157	0.587	0.044
Mof_H 	H 	0.1868	0.7752	0.5025	0.105
Mof_H 	H 	0.1916	0.8157	0.5377	0.097
Mof_N 	N 	0.881	0.686	0.512	-0.318
Mof_H 	H 	0.8271	0.6843	0.5218	0.147
Mof_H 	H 	0.8933	0.6667	0.4903	0.177
Mof_O 	O 	0.5113	0.5824	0.89479	-0.501
Mof_O 	O 	0.6465	0.5596	0.87948	-0.502
Mof_O 	O 	0.3567	0.442	0.72446	-0.552
Mof_O 	O 	0.4912	0.4149	0.71143	-0.519
Mof_C 	C 	0.5652	0.5569	0.8724	0.294
Mof_C 	C 	0.5333	0.5223	0.8374	-0.009
Mof_C 	C 	0.5895	0.4932	0.8138	-0.137
Mof_C 	C 	0.4425	0.5244	0.8282	-0.053
Mof_C 	C 	0.5572	0.4663	0.7799	0.193
Mof_H 	H 	0.6475	0.4856	0.8229	0.041
Mof_H 	H 	0.4031	0.5445	0.845	0.048
Mof_C 	C 	0.41	0.4974	0.7946	0.08
Mof_C 	C 	0.4688	0.4663	0.7702	-0.072
Mof_C 	C 	0.4386	0.4428	0.7331	0.359
Mof_N 	N 	0.3215	0.5057	0.7889	-0.202
Mof_H 	H 	0.2911	0.5265	0.8058	0.114
Mof_H 	H 	0.295	0.4902	0.7684	0.114
Mof_C 	C 	0.4513	0.5419	0.822	-0.056
Mof_C 	C 	0.4195	0.5182	0.7878	0.077
Mof_N 	N 	0.3364	0.539	0.7742	-0.193
Mof_C 	C 	0.5322	0.5335	0.835	0.018
Mof_C 	C 	0.4721	0.4801	0.7669	-0.098
Mof_H 	H 	0.6504	0.4911	0.8202	0.04
Mof_H 	H 	0.4131	0.5657	0.837	0.044
Mof_H 	H 	0.3132	0.5252	0.7525	0.105
Mof_H 	H 	0.3084	0.5657	0.7877	0.097
Mof_N 	N 	0.619	0.436	0.762	-0.318
Mof_H 	H 	0.6729	0.4343	0.7718	0.147
Mof_H 	H 	0.6067	0.4167	0.7403	0.177
Mof_O 	O 	0.5113	0.0824	0.39479	-0.501
Mof_O 	O 	0.6465	0.0596	0.37948	-0.502
Mof_O 	O 	0.3567	0.942	0.22446	-0.552
Mof_O 	O 	0.4912	0.9149	0.21143	-0.519
Mof_C 	C 	0.5652	0.0569	0.3724	0.294
Mof_C 	C 	0.5333	0.0223	0.3374	-0.009
Mof_C 	C 	0.5895	0.9932	0.3138	-0.137
Mof_C 	C 	0.4425	0.0244	0.3282	-0.053
Mof_C 	C 	0.5572	0.9663	0.2799	0.193
Mof_H 	H 	0.6475	0.9856	0.3229	0.041
Mof_H 	H 	0.4031	0.0445	0.345	0.048
Mof_C 	C 	0.41	0.9974	0.2946	0.08
Mof_C 	C 	0.4688	0.9663	0.2702	-0.072
Mof_C 	C 	0.4386	0.9428	0.2331	0.359
Mof_N 	N 	0.3215	0.0057	0.2889	-0.202
Mof_H 	H 	0.2911	0.0265	0.3058	0.113
Mof_H 	H 	0.295	0.9902	0.2684	0.114
Mof_C 	C 	0.4513	0.0419	0.322	-0.056
Mof_C 	C 	0.4195	0.0182	0.2878	0.076
Mof_N 	N 	0.3364	0.039	0.2742	-0.193
Mof_C 	C 	0.5322	0.0335	0.335	0.018
Mof_C 	C 	0.4721	0.9801	0.2669	-0.099
Mof_H 	H 	0.6504	0.9911	0.3202	0.04
Mof_H 	H 	0.4131	0.0657	0.337	0.044
Mof_H 	H 	0.3132	0.0252	0.2525	0.105
Mof_H 	H 	0.3084	0.0657	0.2877	0.097
Mof_N 	N 	0.619	0.936	0.262	-0.318
Mof_H 	H 	0.6729	0.9343	0.2718	0.147
Mof_H 	H 	0.6067	0.9167	0.2403	0.177
Mof_O 	O 	0.0113	0.5824	0.39479	-0.501
Mof_O 	O 	0.1465	0.5596	0.37948	-0.502
Mof_O 	O 	0.8567	0.442	0.22446	-0.552
Mof_O 	O 	0.9912	0.4149	0.21143	-0.519
Mof_C 	C 	0.0652	0.5569	0.3724	0.294
Mof_C 	C 	0.0333	0.5223	0.3374	-0.009
Mof_C 	C 	0.0895	0.4932	0.3138	-0.137
Mof_C 	C 	0.9425	0.5244	0.3282	-0.053
Mof_C 	C 	0.0572	0.4663	0.2799	0.193
Mof_H 	H 	0.1475	0.4856	0.3229	0.041
Mof_H 	H 	0.9031	0.5445	0.345	0.048
Mof_C 	C 	0.91	0.4974	0.2946	0.079
Mof_C 	C 	0.9688	0.4663	0.2702	-0.072
Mof_C 	C 	0.9386	0.4428	0.2331	0.359
Mof_N 	N 	0.8215	0.5057	0.2889	-0.202
Mof_H 	H 	0.7911	0.5265	0.3058	0.113
Mof_H 	H 	0.795	0.4902	0.2684	0.114
Mof_C 	C 	0.9513	0.5419	0.322	-0.056
Mof_C 	C 	0.9195	0.5182	0.2878	0.077
Mof_N 	N 	0.8364	0.539	0.2742	-0.193
Mof_C 	C 	0.0322	0.5335	0.335	0.018
Mof_C 	C 	0.9721	0.4801	0.2669	-0.098
Mof_H 	H 	0.1504	0.4911	0.3202	0.04
Mof_H 	H 	0.9131	0.5657	0.337	0.044
Mof_H 	H 	0.8132	0.5252	0.2525	0.105
Mof_H 	H 	0.8084	0.5657	0.2877	0.097
Mof_N 	N 	0.119	0.436	0.262	-0.318
Mof_H 	H 	0.1729	0.4343	0.2718	0.147
Mof_H 	H 	0.1067	0.4167	0.2403	0.177
Mof_O 	O 	0.0113	0.0824	0.89479	-0.501
Mof_O 	O 	0.1465	0.0596	0.87948	-0.501
Mof_O 	O 	0.8567	0.942	0.72446	-0.552
Mof_O 	O 	0.9912	0.9149	0.71143	-0.519
Mof_C 	C 	0.0652	0.0569	0.8724	0.294
Mof_C 	C 	0.0333	0.0223	0.8374	-0.009
Mof_C 	C 	0.0895	0.9932	0.8138	-0.138
Mof_C 	C 	0.9425	0.0244	0.8282	-0.054
Mof_C 	C 	0.0572	0.9663	0.7799	0.193
Mof_H 	H 	0.1475	0.9856	0.8229	0.041
Mof_H 	H 	0.9031	0.0445	0.845	0.049
Mof_C 	C 	0.91	0.9974	0.7946	0.077
Mof_C 	C 	0.9688	0.9663	0.7702	-0.073
Mof_C 	C 	0.9386	0.9428	0.7331	0.359
Mof_N 	N 	0.8215	0.0057	0.7889	-0.202
Mof_H 	H 	0.7911	0.0265	0.8058	0.113
Mof_H 	H 	0.795	0.9902	0.7684	0.114
Mof_C 	C 	0.9513	0.0419	0.822	-0.056
Mof_C 	C 	0.9195	0.0182	0.7878	0.08
Mof_N 	N 	0.8364	0.039	0.7742	-0.194
Mof_C 	C 	0.0322	0.0335	0.835	0.019
Mof_C 	C 	0.9721	0.9801	0.7669	-0.098
Mof_H 	H 	0.1504	0.9911	0.8202	0.04
Mof_H 	H 	0.9131	0.0657	0.837	0.043
Mof_H 	H 	0.8132	0.0252	0.7525	0.105
Mof_H 	H 	0.8084	0.0657	0.7877	0.097
Mof_N 	N 	0.119	0.936	0.762	-0.318
Mof_H 	H 	0.1729	0.9343	0.7718	0.147
Mof_H 	H 	0.1067	0.9167	0.7403	0.176
Mof_O 	O 	0.7387	0.6676	0.89479	-0.501
Mof_O 	O 	0.6035	0.6904	0.87948	-0.502
Mof_O 	O 	0.8933	0.808	0.72446	-0.552
Mof_O 	O 	0.7588	0.8351	0.71143	-0.519
Mof_C 	C 	0.6848	0.6931	0.8724	0.294
Mof_C 	C 	0.7167	0.7277	0.8374	-0.009
Mof_C 	C 	0.6605	0.7568	0.8138	-0.137
Mof_C 	C 	0.8075	0.7256	0.8282	-0.053
Mof_C 	C 	0.6928	0.7837	0.7799	0.193
Mof_H 	H 	0.6025	0.7644	0.8229	0.041
Mof_H 	H 	0.8469	0.7055	0.845	0.048
Mof_C 	C 	0.84	0.7526	0.7946	0.079
Mof_C 	C 	0.7812	0.7837	0.7702	-0.072
Mof_C 	C 	0.8114	0.8072	0.7331	0.359
Mof_N 	N 	0.9285	0.7443	0.7889	-0.202
Mof_H 	H 	0.9589	0.7235	0.8058	0.113
Mof_H 	H 	0.955	0.7598	0.7684	0.114
Mof_C 	C 	0.7987	0.7081	0.822	-0.056
Mof_C 	C 	0.8305	0.7318	0.7878	0.077
Mof_N 	N 	0.9136	0.711	0.7742	-0.193
Mof_C 	C 	0.7178	0.7165	0.835	0.018
Mof_C 	C 	0.7779	0.7699	0.7669	-0.098
Mof_H 	H 	0.5996	0.7589	0.8202	0.04
Mof_H 	H 	0.8369	0.6843	0.837	0.044
Mof_H 	H 	0.9368	0.7248	0.7525	0.105
Mof_H 	H 	0.9416	0.6843	0.7877	0.097
Mof_N 	N 	0.631	0.814	0.762	-0.318
Mof_H 	H 	0.5771	0.8157	0.7718	0.147
Mof_H 	H 	0.6433	0.8333	0.7403	0.177
Mof_O 	O 	0.7387	0.1676	0.39479	-0.501
Mof_O 	O 	0.6035	0.1904	0.37948	-0.502
Mof_O 	O 	0.8933	0.308	0.22446	-0.552
Mof_O 	O 	0.7588	0.3351	0.21143	-0.519
Mof_C 	C 	0.6848	0.1931	0.3724	0.294
Mof_C 	C 	0.7167	0.2277	0.3374	-0.009
Mof_C 	C 	0.6605	0.2568	0.3138	-0.137
Mof_C 	C 	0.8075	0.2256	0.3282	-0.053
Mof_C 	C 	0.6928	0.2837	0.2799	0.193
Mof_H 	H 	0.6025	0.2644	0.3229	0.041
Mof_H 	H 	0.8469	0.2055	0.345	0.048
Mof_C 	C 	0.84	0.2526	0.2946	0.08
Mof_C 	C 	0.7812	0.2837	0.2702	-0.072
Mof_C 	C 	0.8114	0.3072	0.2331	0.359
Mof_N 	N 	0.9285	0.2443	0.2889	-0.202
Mof_H 	H 	0.9589	0.2235	0.3058	0.113
Mof_H 	H 	0.955	0.2598	0.2684	0.114
Mof_C 	C 	0.7987	0.2081	0.322	-0.056
Mof_C 	C 	0.8305	0.2318	0.2878	0.077
Mof_N 	N 	0.9136	0.211	0.2742	-0.193
Mof_C 	C 	0.7178	0.2165	0.335	0.018
Mof_C 	C 	0.7779	0.2699	0.2669	-0.098
Mof_H 	H 	0.5996	0.2589	0.3202	0.04
Mof_H 	H 	0.8369	0.1843	0.337	0.044
Mof_H 	H 	0.9368	0.2248	0.2525	0.105
Mof_H 	H 	0.9416	0.1843	0.2877	0.096
Mof_N 	N 	0.631	0.314	0.262	-0.318
Mof_H 	H 	0.5771	0.3157	0.2718	0.147
Mof_H 	H 	0.6433	0.3333	0.2403	0.177
Mof_O 	O 	0.2387	0.6676	0.39479	-0.501
Mof_O 	O 	0.1035	0.6904	0.37948	-0.502
Mof_O 	O 	0.3933	0.808	0.22446	-0.552
Mof_O 	O 	0.2588	0.8351	0.21143	-0.519
Mof_C 	C 	0.1848	0.6931	0.3724	0.294
Mof_C 	C 	0.2167	0.7277	0.3374	-0.009
Mof_C 	C 	0.1605	0.7568	0.3138	-0.137
Mof_C 	C 	0.3075	0.7256	0.3282	-0.053
Mof_C 	C 	0.1928	0.7837	0.2799	0.193
Mof_H 	H 	0.1025	0.7644	0.3229	0.041
Mof_H 	H 	0.3469	0.7055	0.345	0.048
Mof_C 	C 	0.34	0.7526	0.2946	0.08
Mof_C 	C 	0.2812	0.7837	0.2702	-0.072
Mof_C 	C 	0.3114	0.8072	0.2331	0.359
Mof_N 	N 	0.4285	0.7443	0.2889	-0.202
Mof_H 	H 	0.4589	0.7235	0.3058	0.114
Mof_H 	H 	0.455	0.7598	0.2684	0.114
Mof_C 	C 	0.2987	0.7081	0.322	-0.056
Mof_C 	C 	0.3305	0.7318	0.2878	0.077
Mof_N 	N 	0.4136	0.711	0.2742	-0.193
Mof_C 	C 	0.2178	0.7165	0.335	0.018
Mof_C 	C 	0.2779	0.7699	0.2669	-0.098
Mof_H 	H 	0.0996	0.7589	0.3202	0.04
Mof_H 	H 	0.3369	0.6843	0.337	0.044
Mof_H 	H 	0.4368	0.7248	0.2525	0.105
Mof_H 	H 	0.4416	0.6843	0.2877	0.097
Mof_N 	N 	0.131	0.814	0.262	-0.318
Mof_H 	H 	0.0771	0.8157	0.2718	0.147
Mof_H 	H 	0.1433	0.8333	0.2403	0.176
Mof_O 	O 	0.2387	0.1676	0.89479	-0.501
Mof_O 	O 	0.1035	0.1904	0.87948	-0.502
Mof_O 	O 	0.3933	0.308	0.72446	-0.552
Mof_O 	O 	0.2588	0.3351	0.71143	-0.519
Mof_C 	C 	0.1848	0.1931	0.8724	0.294
Mof_C 	C 	0.2167	0.2277	0.8374	-0.009
Mof_C 	C 	0.1605	0.2568	0.8138	-0.137
Mof_C 	C 	0.3075	0.2256	0.8282	-0.053
Mof_C 	C 	0.1928	0.2837	0.7799	0.193
Mof_H 	H 	0.1025	0.2644	0.8229	0.041
Mof_H 	H 	0.3469	0.2055	0.845	0.048
Mof_C 	C 	0.34	0.2526	0.7946	0.08
Mof_C 	C 	0.2812	0.2837	0.7702	-0.072
Mof_C 	C 	0.3114	0.3072	0.7331	0.359
Mof_N 	N 	0.4285	0.2443	0.7889	-0.202
Mof_H 	H 	0.4589	0.2235	0.8058	0.114
Mof_H 	H 	0.455	0.2598	0.7684	0.114
Mof_C 	C 	0.2987	0.2081	0.822	-0.056
Mof_C 	C 	0.3305	0.2318	0.7878	0.077
Mof_N 	N 	0.4136	0.211	0.7742	-0.193
Mof_C 	C 	0.2178	0.2165	0.835	0.018
Mof_C 	C 	0.2779	0.2699	0.7669	-0.098
Mof_H 	H 	0.0996	0.2589	0.8202	0.04
Mof_H 	H 	0.3369	0.1843	0.837	0.044
Mof_H 	H 	0.4368	0.2248	0.7525	0.105
Mof_H 	H 	0.4416	0.1843	0.7877	0.097
Mof_N 	N 	0.131	0.314	0.762	-0.318
Mof_H 	H 	0.0771	0.3157	0.7718	0.147
Mof_H 	H 	0.1433	0.3333	0.7403	0.177
Mof_In	In	0.375	0.375	0.67793	2.536
Mof_In	In	0.375	0.875	0.17793	2.536
Mof_In	In	0.875	0.375	0.17793	2.536
Mof_In	In	0.875	0.875	0.67793	2.536
Mof_In	In	0.625	0.625	0.92793	2.536
Mof_In	In	0.625	0.125	0.42793	2.536
Mof_In	In	0.125	0.625	0.42793	2.536
Mof_In	In	0.125	0.125	0.92793	2.536
_end
