# CIF file generated by openbabel 3.1.0, see https://openbabel.org
data_I
_chemical_name_common 'image0'
_cell_length_a 31.3837
_cell_length_b 31.3837
_cell_length_c 15.0411
_cell_angle_alpha 90
_cell_angle_beta 90
_cell_angle_gamma 120
_space_group_name_H-M_alt 'P 1'
_space_group_name_Hall 'P 1'
loop_
    _symmetry_equiv_pos_as_xyz
    x,y,z
loop_
    _atom_site_label
    _atom_site_type_symbol
    _atom_site_fract_x
    _atom_site_fract_y
    _atom_site_fract_z
    _atom_site_occupancy
    Zn1      Zn       0.06126    0.73099    0.48673    1.000
    C1       C        0.14864    0.73902    0.54580    1.000
    C2       C        0.18600    0.72225    0.55150    1.000
    C3       C        0.17617    0.67775    0.51420    1.000
    H1       H        0.14580    0.65740    0.48790    1.000
    C4       C        0.21149    0.66367    0.51600    1.000
    H2       H        0.20430    0.63350    0.49170    1.000
    C5       C        0.25809    0.69400    0.55392    1.000
    C6       C        0.26604    0.73728    0.59470    1.000
    H3       H        0.29590    0.75720    0.62310    1.000
    C7       C        0.23084    0.75127    0.59390    1.000
    H4       H        0.23710    0.78030    0.62190    1.000
    C8       C        0.29646    0.68001    0.55190    1.000
    C9       C        0.34620    0.71595    0.55146    1.000
    H5       H        0.35490    0.74900    0.55090    1.000
    C10      C        0.07503    0.81984    0.43320    1.000
    C11      C        0.05805    0.85583    0.41630    1.000
    C12      C        0.08447    0.89570    0.35920    1.000
    H6       H        0.11240    0.89940    0.33070    1.000
    C13      C        0.06952    0.92960    0.34470    1.000
    H7       H        0.08810    0.95630    0.30770    1.000
    C14      C        0.02734    0.92475    0.38419    1.000
    C15      C        0.00008    0.88413    0.43920    1.000
    H8       H        0.97120    0.87950    0.46510    1.000
    C16      C        0.01560    0.85074    0.45550    1.000
    H9       H        0.99730    0.82430    0.49330    1.000
    C17      C        0.01294    0.96315    0.37437    1.000
    C18      C        0.96352    0.95086    0.37381    1.000
    H10      H        0.93910    0.91790    0.37310    1.000
    C19      C        0.04298    0.67123    0.31720    1.000
    O1       O        0.10901    0.82086    0.39120    1.000
    O2       O        0.05184    0.78754    0.49310    1.000
    O3       O        0.15106    0.77166    0.59555    1.000
    O4       O        0.11539    0.71745    0.48704    1.000
    N1       N        0.97183    0.65741    0.27910    1.000
    N2       N        0.00799    0.64808    0.25675    1.000
    N3       N        0.98428    0.68480    0.34910    1.000
    N4       N        0.08706    0.67365    0.31730    1.000
    H11      H        0.09430    0.65950    0.27590    1.000
    H12      H        0.10790    0.68940    0.35880    1.000
    N5       N        0.02920    0.69404    0.37588    1.000
    Zn2      Zn       0.72793    0.06433    0.82006    1.000
    C20      C        0.81531    0.07235    0.87913    1.000
    C21      C        0.85267    0.05558    0.88483    1.000
    C22      C        0.84284    0.01108    0.84753    1.000
    H13      H        0.81247    0.99073    0.82123    1.000
    C23      C        0.87816    0.99700    0.84933    1.000
    H14      H        0.87097    0.96683    0.82503    1.000
    C24      C        0.92476    0.02733    0.88725    1.000
    C25      C        0.93271    0.07061    0.92803    1.000
    H15      H        0.96257    0.09053    0.95643    1.000
    C26      C        0.89751    0.08460    0.92723    1.000
    H16      H        0.90377    0.11363    0.95523    1.000
    C27      C        0.96313    0.01334    0.88523    1.000
    C28      C        0.01287    0.04928    0.88479    1.000
    H17      H        0.02157    0.08233    0.88423    1.000
    C29      C        0.74170    0.15317    0.76653    1.000
    C30      C        0.72472    0.18916    0.74963    1.000
    C31      C        0.75114    0.22903    0.69253    1.000
    H18      H        0.77907    0.23273    0.66403    1.000
    C32      C        0.73619    0.26293    0.67803    1.000
    H19      H        0.75477    0.28963    0.64103    1.000
    C33      C        0.69401    0.25808    0.71752    1.000
    C34      C        0.66675    0.21746    0.77253    1.000
    H20      H        0.63787    0.21283    0.79843    1.000
    C35      C        0.68227    0.18407    0.78883    1.000
    H21      H        0.66397    0.15763    0.82663    1.000
    C36      C        0.67961    0.29648    0.70770    1.000
    C37      C        0.63019    0.28419    0.70714    1.000
    H22      H        0.60577    0.25123    0.70643    1.000
    C38      C        0.70965    0.00456    0.65053    1.000
    O5       O        0.77568    0.15419    0.72453    1.000
    O6       O        0.71851    0.12087    0.82643    1.000
    O7       O        0.81773    0.10499    0.92888    1.000
    O8       O        0.78206    0.05078    0.82037    1.000
    N6       N        0.63850    0.99074    0.61243    1.000
    N7       N        0.67466    0.98141    0.59008    1.000
    N8       N        0.65095    0.01813    0.68243    1.000
    N9       N        0.75373    0.00698    0.65063    1.000
    H23      H        0.76097    0.99283    0.60923    1.000
    H24      H        0.77457    0.02273    0.69213    1.000
    N10      N        0.69587    0.02737    0.70921    1.000
    Zn3      Zn       0.39460    0.39766    0.15340    1.000
    C39      C        0.48197    0.40569    0.21247    1.000
    C40      C        0.51933    0.38892    0.21817    1.000
    C41      C        0.50950    0.34442    0.18087    1.000
    H25      H        0.47913    0.32407    0.15457    1.000
    C42      C        0.54482    0.33034    0.18267    1.000
    H26      H        0.53763    0.30017    0.15837    1.000
    C43      C        0.59142    0.36067    0.22059    1.000
    C44      C        0.59937    0.40395    0.26137    1.000
    H27      H        0.62923    0.42387    0.28977    1.000
    C45      C        0.56417    0.41794    0.26057    1.000
    H28      H        0.57043    0.44697    0.28857    1.000
    C46      C        0.62979    0.34668    0.21857    1.000
    C47      C        0.67953    0.38262    0.21813    1.000
    H29      H        0.68823    0.41567    0.21757    1.000
    C48      C        0.40836    0.48651    0.09987    1.000
    C49      C        0.39138    0.52250    0.08297    1.000
    C50      C        0.41780    0.56237    0.02587    1.000
    H30      H        0.44573    0.56607    0.99737    1.000
    C51      C        0.40285    0.59627    0.01137    1.000
    H31      H        0.42143    0.62297    0.97437    1.000
    C52      C        0.36067    0.59142    0.05086    1.000
    C53      C        0.33341    0.55080    0.10587    1.000
    H32      H        0.30453    0.54617    0.13177    1.000
    C54      C        0.34893    0.51741    0.12217    1.000
    H33      H        0.33063    0.49097    0.15997    1.000
    C55      C        0.34627    0.62982    0.04104    1.000
    C56      C        0.29685    0.61753    0.04048    1.000
    H34      H        0.27243    0.58457    0.03977    1.000
    C57      C        0.37631    0.33790    0.98387    1.000
    O9       O        0.44234    0.48753    0.05787    1.000
    O10      O        0.38517    0.45421    0.15977    1.000
    O11      O        0.48439    0.43833    0.26222    1.000
    O12      O        0.44872    0.38412    0.15371    1.000
    N11      N        0.30516    0.32408    0.94577    1.000
    N12      N        0.34132    0.31475    0.92342    1.000
    N13      N        0.31761    0.35147    0.01577    1.000
    N14      N        0.42039    0.34032    0.98397    1.000
    H35      H        0.42763    0.32617    0.94257    1.000
    H36      H        0.44123    0.35607    0.02547    1.000
    N15      N        0.36253    0.36071    0.04255    1.000
    Zn4      Zn       0.26901    0.33027    0.48673    1.000
    C58      C        0.26098    0.40962    0.54580    1.000
    C59      C        0.27775    0.46375    0.55150    1.000
    C60      C        0.32225    0.49842    0.51420    1.000
    H37      H        0.34260    0.48840    0.48790    1.000
    C61      C        0.33633    0.54782    0.51600    1.000
    H38      H        0.36650    0.57080    0.49170    1.000
    C62      C        0.30600    0.56409    0.55392    1.000
    C63      C        0.26272    0.52876    0.59470    1.000
    H39      H        0.24280    0.53870    0.62310    1.000
    C64      C        0.24873    0.47957    0.59390    1.000
    H40      H        0.21970    0.45680    0.62190    1.000
    C65      C        0.31999    0.61645    0.55190    1.000
    C66      C        0.28405    0.63025    0.55146    1.000
    H41      H        0.25100    0.60590    0.55090    1.000
    C67      C        0.18016    0.25519    0.43320    1.000
    C68      C        0.14417    0.20222    0.41630    1.000
    C69      C        0.10430    0.18877    0.35920    1.000
    H42      H        0.10060    0.21300    0.33070    1.000
    C70      C        0.07040    0.13992    0.34470    1.000
    H43      H        0.04370    0.13180    0.30770    1.000
    C71      C        0.07525    0.10259    0.38419    1.000
    C72      C        0.11587    0.11595    0.43920    1.000
    H44      H        0.12050    0.09170    0.46510    1.000
    C73      C        0.14926    0.16486    0.45550    1.000
    H45      H        0.17570    0.17300    0.49330    1.000
    C74      C        0.03685    0.04979    0.37437    1.000
    C75      C        0.04914    0.01266    0.37381    1.000
    H46      H        0.08210    0.02120    0.37310    1.000
    C76      C        0.32877    0.37175    0.31720    1.000
    O13      O        0.17914    0.28815    0.39120    1.000
    O14      O        0.21246    0.26430    0.49310    1.000
    O15      O        0.22834    0.37940    0.59555    1.000
    O16      O        0.28255    0.39794    0.48704    1.000
    N16      N        0.34259    0.31442    0.27910    1.000
    N17      N        0.35192    0.35991    0.25675    1.000
    N18      N        0.31520    0.29948    0.34910    1.000
    N19      N        0.32635    0.41341    0.31730    1.000
    H47      H        0.34050    0.43480    0.27590    1.000
    H48      H        0.31060    0.41850    0.35880    1.000
    N20      N        0.30596    0.33516    0.37588    1.000
    Zn5      Zn       0.93567    0.66361    0.82006    1.000
    C77      C        0.92765    0.74295    0.87913    1.000
    C78      C        0.94442    0.79708    0.88483    1.000
    C79      C        0.98892    0.83175    0.84753    1.000
    H49      H        0.00927    0.82173    0.82123    1.000
    C80      C        0.00300    0.88115    0.84933    1.000
    H50      H        0.03317    0.90413    0.82503    1.000
    C81      C        0.97267    0.89742    0.88725    1.000
    C82      C        0.92939    0.86209    0.92803    1.000
    H51      H        0.90947    0.87203    0.95643    1.000
    C83      C        0.91540    0.81290    0.92723    1.000
    H52      H        0.88637    0.79013    0.95523    1.000
    C84      C        0.98666    0.94978    0.88523    1.000
    C85      C        0.95072    0.96358    0.88479    1.000
    H53      H        0.91767    0.93923    0.88423    1.000
    C86      C        0.84683    0.58852    0.76653    1.000
    C87      C        0.81084    0.53555    0.74963    1.000
    C88      C        0.77097    0.52210    0.69253    1.000
    H54      H        0.76727    0.54633    0.66403    1.000
    C89      C        0.73707    0.47325    0.67803    1.000
    H55      H        0.71037    0.46513    0.64103    1.000
    C90      C        0.74192    0.43592    0.71752    1.000
    C91      C        0.78254    0.44928    0.77253    1.000
    H56      H        0.78717    0.42503    0.79843    1.000
    C92      C        0.81593    0.49819    0.78883    1.000
    H57      H        0.84237    0.50633    0.82663    1.000
    C93      C        0.70352    0.38312    0.70770    1.000
    C94      C        0.71581    0.34599    0.70714    1.000
    H58      H        0.74877    0.35453    0.70643    1.000
    C95      C        0.99544    0.70508    0.65053    1.000
    O17      O        0.84581    0.62148    0.72453    1.000
    O18      O        0.87913    0.59763    0.82643    1.000
    O19      O        0.89501    0.71273    0.92888    1.000
    O20      O        0.94922    0.73127    0.82037    1.000
    N21      N        0.00926    0.64775    0.61243    1.000
    N22      N        0.01859    0.69324    0.59008    1.000
    N23      N        0.98187    0.63281    0.68243    1.000
    N24      N        0.99302    0.74674    0.65063    1.000
    H59      H        0.00717    0.76813    0.60923    1.000
    H60      H        0.97727    0.75183    0.69213    1.000
    N25      N        0.97263    0.66849    0.70921    1.000
    Zn6      Zn       0.60234    0.99694    0.15340    1.000
    C96      C        0.59431    0.07629    0.21247    1.000
    C97      C        0.61108    0.13042    0.21817    1.000
    C98      C        0.65558    0.16509    0.18087    1.000
    H61      H        0.67593    0.15507    0.15457    1.000
    C99      C        0.66966    0.21449    0.18267    1.000
    H62      H        0.69983    0.23747    0.15837    1.000
    C100     C        0.63933    0.23076    0.22059    1.000
    C101     C        0.59605    0.19543    0.26137    1.000
    H63      H        0.57613    0.20537    0.28977    1.000
    C102     C        0.58206    0.14624    0.26057    1.000
    H64      H        0.55303    0.12347    0.28857    1.000
    C103     C        0.65332    0.28312    0.21857    1.000
    C104     C        0.61738    0.29692    0.21813    1.000
    H65      H        0.58433    0.27257    0.21757    1.000
    C105     C        0.51349    0.92186    0.09987    1.000
    C106     C        0.47750    0.86889    0.08297    1.000
    C107     C        0.43763    0.85544    0.02587    1.000
    H66      H        0.43393    0.87967    0.99737    1.000
    C108     C        0.40373    0.80659    0.01137    1.000
    H67      H        0.37703    0.79847    0.97437    1.000
    C109     C        0.40858    0.76926    0.05086    1.000
    C110     C        0.44920    0.78262    0.10587    1.000
    H68      H        0.45383    0.75837    0.13177    1.000
    C111     C        0.48259    0.83153    0.12217    1.000
    H69      H        0.50903    0.83967    0.15997    1.000
    C112     C        0.37018    0.71646    0.04104    1.000
    C113     C        0.38247    0.67933    0.04048    1.000
    H70      H        0.41543    0.68787    0.03977    1.000
    C114     C        0.66210    0.03842    0.98387    1.000
    O21      O        0.51247    0.95482    0.05787    1.000
    O22      O        0.54579    0.93097    0.15977    1.000
    O23      O        0.56167    0.04607    0.26222    1.000
    O24      O        0.61588    0.06461    0.15371    1.000
    N26      N        0.67592    0.98109    0.94577    1.000
    N27      N        0.68525    0.02658    0.92342    1.000
    N28      N        0.64853    0.96615    0.01577    1.000
    N29      N        0.65968    0.08008    0.98397    1.000
    H71      H        0.67383    0.10147    0.94257    1.000
    H72      H        0.64393    0.08517    0.02547    1.000
    N30      N        0.63929    0.00183    0.04255    1.000
    Zn7      Zn       0.66973    0.93874    0.48673    1.000
    C115     C        0.59038    0.85136    0.54580    1.000
    C116     C        0.53625    0.81400    0.55150    1.000
    C117     C        0.50158    0.82383    0.51420    1.000
    H73      H        0.51160    0.85420    0.48790    1.000
    C118     C        0.45218    0.78851    0.51600    1.000
    H74      H        0.42920    0.79570    0.49170    1.000
    C119     C        0.43591    0.74191    0.55392    1.000
    C120     C        0.47124    0.73396    0.59470    1.000
    H75      H        0.46130    0.70410    0.62310    1.000
    C121     C        0.52043    0.76916    0.59390    1.000
    H76      H        0.54320    0.76290    0.62190    1.000
    C122     C        0.38355    0.70354    0.55190    1.000
    C123     C        0.36975    0.65380    0.55146    1.000
    H77      H        0.39410    0.64510    0.55090    1.000
    C124     C        0.74481    0.92497    0.43320    1.000
    C125     C        0.79778    0.94195    0.41630    1.000
    C126     C        0.81123    0.91553    0.35920    1.000
    H78      H        0.78700    0.88760    0.33070    1.000
    C127     C        0.86008    0.93048    0.34470    1.000
    H79      H        0.86820    0.91190    0.30770    1.000
    C128     C        0.89741    0.97266    0.38419    1.000
    C129     C        0.88405    0.99992    0.43920    1.000
    H80      H        0.90830    0.02880    0.46510    1.000
    C130     C        0.83514    0.98440    0.45550    1.000
    H81      H        0.82700    0.00270    0.49330    1.000
    C131     C        0.95021    0.98706    0.37437    1.000
    C132     C        0.98734    0.03648    0.37381    1.000
    H82      H        0.97880    0.06090    0.37310    1.000
    C133     C        0.62825    0.95702    0.31720    1.000
    O25      O        0.71185    0.89099    0.39120    1.000
    O26      O        0.73570    0.94816    0.49310    1.000
    O27      O        0.62060    0.84894    0.59555    1.000
    O28      O        0.60206    0.88461    0.48704    1.000
    N31      N        0.68558    0.02817    0.27910    1.000
    N32      N        0.64009    0.99201    0.25675    1.000
    N33      N        0.70052    0.01572    0.34910    1.000
    N34      N        0.58659    0.91294    0.31730    1.000
    H83      H        0.56520    0.90570    0.27590    1.000
    H84      H        0.58150    0.89210    0.35880    1.000
    N35      N        0.66484    0.97080    0.37588    1.000
    Zn8      Zn       0.33639    0.27207    0.82006    1.000
    C134     C        0.25705    0.18469    0.87913    1.000
    C135     C        0.20292    0.14733    0.88483    1.000
    C136     C        0.16825    0.15716    0.84753    1.000
    H85      H        0.17827    0.18753    0.82123    1.000
    C137     C        0.11885    0.12184    0.84933    1.000
    H86      H        0.09587    0.12903    0.82503    1.000
    C138     C        0.10258    0.07524    0.88725    1.000
    C139     C        0.13791    0.06729    0.92803    1.000
    H87      H        0.12797    0.03743    0.95643    1.000
    C140     C        0.18710    0.10249    0.92723    1.000
    H88      H        0.20987    0.09623    0.95523    1.000
    C141     C        0.05022    0.03687    0.88523    1.000
    C142     C        0.03642    0.98713    0.88479    1.000
    H89      H        0.06077    0.97843    0.88423    1.000
    C143     C        0.41148    0.25830    0.76653    1.000
    C144     C        0.46445    0.27528    0.74963    1.000
    C145     C        0.47790    0.24886    0.69253    1.000
    H90      H        0.45367    0.22093    0.66403    1.000
    C146     C        0.52675    0.26381    0.67803    1.000
    H91      H        0.53487    0.24523    0.64103    1.000
    C147     C        0.56408    0.30599    0.71752    1.000
    C148     C        0.55072    0.33325    0.77253    1.000
    H92      H        0.57497    0.36213    0.79843    1.000
    C149     C        0.50181    0.31773    0.78883    1.000
    H93      H        0.49367    0.33603    0.82663    1.000
    C150     C        0.61688    0.32039    0.70770    1.000
    C151     C        0.65401    0.36981    0.70714    1.000
    H94      H        0.64547    0.39423    0.70643    1.000
    C152     C        0.29492    0.29035    0.65053    1.000
    O29      O        0.37852    0.22432    0.72453    1.000
    O30      O        0.40237    0.28149    0.82643    1.000
    O31      O        0.28727    0.18227    0.92888    1.000
    O32      O        0.26873    0.21794    0.82037    1.000
    N36      N        0.35225    0.36150    0.61243    1.000
    N37      N        0.30676    0.32534    0.59008    1.000
    N38      N        0.36719    0.34905    0.68243    1.000
    N39      N        0.25326    0.24627    0.65063    1.000
    H95      H        0.23187    0.23903    0.60923    1.000
    H96      H        0.24817    0.22543    0.69213    1.000
    N40      N        0.33151    0.30413    0.70921    1.000
    Zn9      Zn       0.00306    0.60540    0.15340    1.000
    C153     C        0.92371    0.51803    0.21247    1.000
    C154     C        0.86958    0.48067    0.21817    1.000
    C155     C        0.83491    0.49050    0.18087    1.000
    H97      H        0.84493    0.52087    0.15457    1.000
    C156     C        0.78551    0.45518    0.18267    1.000
    H98      H        0.76253    0.46237    0.15837    1.000
    C157     C        0.76924    0.40858    0.22059    1.000
    C158     C        0.80457    0.40063    0.26137    1.000
    H99      H        0.79463    0.37077    0.28977    1.000
    C159     C        0.85376    0.43583    0.26057    1.000
    H100     H        0.87653    0.42957    0.28857    1.000
    C160     C        0.71688    0.37021    0.21857    1.000
    C161     C        0.70308    0.32047    0.21813    1.000
    H101     H        0.72743    0.31177    0.21757    1.000
    C162     C        0.07814    0.59164    0.09987    1.000
    C163     C        0.13111    0.60862    0.08297    1.000
    C164     C        0.14456    0.58220    0.02587    1.000
    H102     H        0.12033    0.55427    0.99737    1.000
    C165     C        0.19341    0.59715    0.01137    1.000
    H103     H        0.20153    0.57857    0.97437    1.000
    C166     C        0.23074    0.63933    0.05086    1.000
    C167     C        0.21738    0.66659    0.10587    1.000
    H104     H        0.24163    0.69547    0.13177    1.000
    C168     C        0.16847    0.65107    0.12217    1.000
    H105     H        0.16033    0.66937    0.15997    1.000
    C169     C        0.28354    0.65373    0.04104    1.000
    C170     C        0.32067    0.70315    0.04048    1.000
    H106     H        0.31213    0.72757    0.03977    1.000
    C171     C        0.96158    0.62369    0.98387    1.000
    O33      O        0.04518    0.55766    0.05787    1.000
    O34      O        0.06903    0.61483    0.15977    1.000
    O35      O        0.95393    0.51561    0.26222    1.000
    O36      O        0.93539    0.55128    0.15371    1.000
    N41      N        0.01891    0.69484    0.94577    1.000
    N42      N        0.97342    0.65868    0.92342    1.000
    N43      N        0.03385    0.68239    0.01577    1.000
    N44      N        0.91992    0.57961    0.98397    1.000
    H107     H        0.89853    0.57237    0.94257    1.000
    H108     H        0.91483    0.55877    0.02547    1.000
    N45      N        0.99817    0.63747    0.04255    1.000
    Zn10     Zn       0.93874    0.26901    0.51327    1.000
    C172     C        0.85136    0.26098    0.45420    1.000
    C173     C        0.81400    0.27775    0.44850    1.000
    C174     C        0.82383    0.32225    0.48580    1.000
    H109     H        0.85420    0.34260    0.51210    1.000
    C175     C        0.78851    0.33633    0.48400    1.000
    H110     H        0.79570    0.36650    0.50830    1.000
    C176     C        0.74191    0.30600    0.44608    1.000
    C177     C        0.73396    0.26272    0.40530    1.000
    H111     H        0.70410    0.24280    0.37690    1.000
    C178     C        0.76916    0.24873    0.40610    1.000
    H112     H        0.76290    0.21970    0.37810    1.000
    C179     C        0.70354    0.31999    0.44810    1.000
    C180     C        0.65380    0.28405    0.44854    1.000
    H113     H        0.64510    0.25100    0.44910    1.000
    C181     C        0.92497    0.18016    0.56680    1.000
    C182     C        0.94195    0.14417    0.58370    1.000
    C183     C        0.91553    0.10430    0.64080    1.000
    H114     H        0.88760    0.10060    0.66930    1.000
    C184     C        0.93048    0.07040    0.65530    1.000
    H115     H        0.91190    0.04370    0.69230    1.000
    C185     C        0.97266    0.07525    0.61581    1.000
    C186     C        0.99992    0.11587    0.56080    1.000
    H116     H        0.02880    0.12050    0.53490    1.000
    C187     C        0.98440    0.14926    0.54450    1.000
    H117     H        0.00270    0.17570    0.50670    1.000
    C188     C        0.98706    0.03685    0.62563    1.000
    C189     C        0.03648    0.04914    0.62619    1.000
    H118     H        0.06090    0.08210    0.62690    1.000
    C190     C        0.95702    0.32877    0.68280    1.000
    O37      O        0.89099    0.17914    0.60880    1.000
    O38      O        0.94816    0.21246    0.50690    1.000
    O39      O        0.84894    0.22834    0.40445    1.000
    O40      O        0.88461    0.28255    0.51296    1.000
    N46      N        0.02817    0.34259    0.72090    1.000
    N47      N        0.99201    0.35192    0.74325    1.000
    N48      N        0.01572    0.31520    0.65090    1.000
    N49      N        0.91294    0.32635    0.68270    1.000
    H119     H        0.90570    0.34050    0.72410    1.000
    H120     H        0.89210    0.31060    0.64120    1.000
    N50      N        0.97080    0.30596    0.62412    1.000
    Zn11     Zn       0.60540    0.60234    0.84660    1.000
    C191     C        0.51803    0.59431    0.78753    1.000
    C192     C        0.48067    0.61108    0.78183    1.000
    C193     C        0.49050    0.65558    0.81913    1.000
    H121     H        0.52087    0.67593    0.84543    1.000
    C194     C        0.45518    0.66966    0.81733    1.000
    H122     H        0.46237    0.69983    0.84163    1.000
    C195     C        0.40858    0.63933    0.77941    1.000
    C196     C        0.40063    0.59605    0.73863    1.000
    H123     H        0.37077    0.57613    0.71023    1.000
    C197     C        0.43583    0.58206    0.73943    1.000
    H124     H        0.42957    0.55303    0.71143    1.000
    C198     C        0.37021    0.65332    0.78143    1.000
    C199     C        0.32047    0.61738    0.78187    1.000
    H125     H        0.31177    0.58433    0.78243    1.000
    C200     C        0.59164    0.51349    0.90013    1.000
    C201     C        0.60862    0.47750    0.91703    1.000
    C202     C        0.58220    0.43763    0.97413    1.000
    H126     H        0.55427    0.43393    0.00263    1.000
    C203     C        0.59715    0.40373    0.98863    1.000
    H127     H        0.57857    0.37703    0.02563    1.000
    C204     C        0.63933    0.40858    0.94914    1.000
    C205     C        0.66659    0.44920    0.89413    1.000
    H128     H        0.69547    0.45383    0.86823    1.000
    C206     C        0.65107    0.48259    0.87783    1.000
    H129     H        0.66937    0.50903    0.84003    1.000
    C207     C        0.65373    0.37018    0.95896    1.000
    C208     C        0.70315    0.38247    0.95952    1.000
    H130     H        0.72757    0.41543    0.96023    1.000
    C209     C        0.62369    0.66210    0.01613    1.000
    O41      O        0.55766    0.51247    0.94213    1.000
    O42      O        0.61483    0.54579    0.84023    1.000
    O43      O        0.51561    0.56167    0.73778    1.000
    O44      O        0.55128    0.61588    0.84629    1.000
    N51      N        0.69484    0.67592    0.05423    1.000
    N52      N        0.65868    0.68525    0.07658    1.000
    N53      N        0.68239    0.64853    0.98423    1.000
    N54      N        0.57961    0.65968    0.01603    1.000
    H131     H        0.57237    0.67383    0.05743    1.000
    H132     H        0.55877    0.64393    0.97453    1.000
    N55      N        0.63747    0.63929    0.95745    1.000
    Zn12     Zn       0.27207    0.93567    0.17994    1.000
    C210     C        0.18469    0.92765    0.12087    1.000
    C211     C        0.14733    0.94442    0.11517    1.000
    C212     C        0.15716    0.98892    0.15247    1.000
    H133     H        0.18753    0.00927    0.17877    1.000
    C213     C        0.12184    0.00300    0.15067    1.000
    H134     H        0.12903    0.03317    0.17497    1.000
    C214     C        0.07524    0.97267    0.11275    1.000
    C215     C        0.06729    0.92939    0.07197    1.000
    H135     H        0.03743    0.90947    0.04357    1.000
    C216     C        0.10249    0.91540    0.07277    1.000
    H136     H        0.09623    0.88637    0.04477    1.000
    C217     C        0.03687    0.98666    0.11477    1.000
    C218     C        0.98713    0.95072    0.11521    1.000
    H137     H        0.97843    0.91767    0.11577    1.000
    C219     C        0.25830    0.84683    0.23347    1.000
    C220     C        0.27528    0.81084    0.25037    1.000
    C221     C        0.24886    0.77097    0.30747    1.000
    H138     H        0.22093    0.76727    0.33597    1.000
    C222     C        0.26381    0.73707    0.32197    1.000
    H139     H        0.24523    0.71037    0.35897    1.000
    C223     C        0.30599    0.74192    0.28248    1.000
    C224     C        0.33325    0.78254    0.22747    1.000
    H140     H        0.36213    0.78717    0.20157    1.000
    C225     C        0.31773    0.81593    0.21117    1.000
    H141     H        0.33603    0.84237    0.17337    1.000
    C226     C        0.32039    0.70352    0.29230    1.000
    C227     C        0.36981    0.71581    0.29286    1.000
    H142     H        0.39423    0.74877    0.29357    1.000
    C228     C        0.29035    0.99544    0.34947    1.000
    O45      O        0.22432    0.84581    0.27547    1.000
    O46      O        0.28149    0.87913    0.17357    1.000
    O47      O        0.18227    0.89501    0.07112    1.000
    O48      O        0.21794    0.94922    0.17963    1.000
    N56      N        0.36150    0.00926    0.38757    1.000
    N57      N        0.32534    0.01859    0.40992    1.000
    N58      N        0.34905    0.98187    0.31757    1.000
    N59      N        0.24627    0.99302    0.34937    1.000
    H143     H        0.23903    0.00717    0.39077    1.000
    H144     H        0.22543    0.97727    0.30787    1.000
    N60      N        0.30413    0.97263    0.29079    1.000
    Zn13     Zn       0.73099    0.66973    0.51327    1.000
    C229     C        0.73902    0.59038    0.45420    1.000
    C230     C        0.72225    0.53625    0.44850    1.000
    C231     C        0.67775    0.50158    0.48580    1.000
    H145     H        0.65740    0.51160    0.51210    1.000
    C232     C        0.66367    0.45218    0.48400    1.000
    H146     H        0.63350    0.42920    0.50830    1.000
    C233     C        0.69400    0.43591    0.44608    1.000
    C234     C        0.73728    0.47124    0.40530    1.000
    H147     H        0.75720    0.46130    0.37690    1.000
    C235     C        0.75127    0.52043    0.40610    1.000
    H148     H        0.78030    0.54320    0.37810    1.000
    C236     C        0.68001    0.38355    0.44810    1.000
    C237     C        0.71595    0.36975    0.44854    1.000
    H149     H        0.74900    0.39410    0.44910    1.000
    C238     C        0.81984    0.74481    0.56680    1.000
    C239     C        0.85583    0.79778    0.58370    1.000
    C240     C        0.89570    0.81123    0.64080    1.000
    H150     H        0.89940    0.78700    0.66930    1.000
    C241     C        0.92960    0.86008    0.65530    1.000
    H151     H        0.95630    0.86820    0.69230    1.000
    C242     C        0.92475    0.89741    0.61581    1.000
    C243     C        0.88413    0.88405    0.56080    1.000
    H152     H        0.87950    0.90830    0.53490    1.000
    C244     C        0.85074    0.83514    0.54450    1.000
    H153     H        0.82430    0.82700    0.50670    1.000
    C245     C        0.96315    0.95021    0.62563    1.000
    C246     C        0.95086    0.98734    0.62619    1.000
    H154     H        0.91790    0.97880    0.62690    1.000
    C247     C        0.67123    0.62825    0.68280    1.000
    O49      O        0.82086    0.71185    0.60880    1.000
    O50      O        0.78754    0.73570    0.50690    1.000
    O51      O        0.77166    0.62060    0.40445    1.000
    O52      O        0.71745    0.60206    0.51296    1.000
    N61      N        0.65741    0.68558    0.72090    1.000
    N62      N        0.64808    0.64009    0.74325    1.000
    N63      N        0.68480    0.70052    0.65090    1.000
    N64      N        0.67365    0.58659    0.68270    1.000
    H155     H        0.65950    0.56520    0.72410    1.000
    H156     H        0.68940    0.58150    0.64120    1.000
    N65      N        0.69404    0.66484    0.62412    1.000
    Zn14     Zn       0.39766    0.00306    0.84660    1.000
    C248     C        0.40569    0.92371    0.78753    1.000
    C249     C        0.38892    0.86958    0.78183    1.000
    C250     C        0.34442    0.83491    0.81913    1.000
    H157     H        0.32407    0.84493    0.84543    1.000
    C251     C        0.33034    0.78551    0.81733    1.000
    H158     H        0.30017    0.76253    0.84163    1.000
    C252     C        0.36067    0.76924    0.77941    1.000
    C253     C        0.40395    0.80457    0.73863    1.000
    H159     H        0.42387    0.79463    0.71023    1.000
    C254     C        0.41794    0.85376    0.73943    1.000
    H160     H        0.44697    0.87653    0.71143    1.000
    C255     C        0.34668    0.71688    0.78143    1.000
    C256     C        0.38262    0.70308    0.78187    1.000
    H161     H        0.41567    0.72743    0.78243    1.000
    C257     C        0.48651    0.07814    0.90013    1.000
    C258     C        0.52250    0.13111    0.91703    1.000
    C259     C        0.56237    0.14456    0.97413    1.000
    H162     H        0.56607    0.12033    0.00263    1.000
    C260     C        0.59627    0.19341    0.98863    1.000
    H163     H        0.62297    0.20153    0.02563    1.000
    C261     C        0.59142    0.23074    0.94914    1.000
    C262     C        0.55080    0.21738    0.89413    1.000
    H164     H        0.54617    0.24163    0.86823    1.000
    C263     C        0.51741    0.16847    0.87783    1.000
    H165     H        0.49097    0.16033    0.84003    1.000
    C264     C        0.62982    0.28354    0.95896    1.000
    C265     C        0.61753    0.32067    0.95952    1.000
    H166     H        0.58457    0.31213    0.96023    1.000
    C266     C        0.33790    0.96158    0.01613    1.000
    O53      O        0.48753    0.04518    0.94213    1.000
    O54      O        0.45421    0.06903    0.84023    1.000
    O55      O        0.43833    0.95393    0.73778    1.000
    O56      O        0.38412    0.93539    0.84629    1.000
    N66      N        0.32408    0.01891    0.05423    1.000
    N67      N        0.31475    0.97342    0.07658    1.000
    N68      N        0.35147    0.03385    0.98423    1.000
    N69      N        0.34032    0.91992    0.01603    1.000
    H167     H        0.32617    0.89853    0.05743    1.000
    H168     H        0.35607    0.91483    0.97453    1.000
    N70      N        0.36071    0.99817    0.95745    1.000
    Zn15     Zn       0.06433    0.33639    0.17994    1.000
    C267     C        0.07235    0.25705    0.12087    1.000
    C268     C        0.05558    0.20292    0.11517    1.000
    C269     C        0.01108    0.16825    0.15247    1.000
    H169     H        0.99073    0.17827    0.17877    1.000
    C270     C        0.99700    0.11885    0.15067    1.000
    H170     H        0.96683    0.09587    0.17497    1.000
    C271     C        0.02733    0.10258    0.11275    1.000
    C272     C        0.07061    0.13791    0.07197    1.000
    H171     H        0.09053    0.12797    0.04357    1.000
    C273     C        0.08460    0.18710    0.07277    1.000
    H172     H        0.11363    0.20987    0.04477    1.000
    C274     C        0.01334    0.05022    0.11477    1.000
    C275     C        0.04928    0.03642    0.11521    1.000
    H173     H        0.08233    0.06077    0.11577    1.000
    C276     C        0.15317    0.41148    0.23347    1.000
    C277     C        0.18916    0.46445    0.25037    1.000
    C278     C        0.22903    0.47790    0.30747    1.000
    H174     H        0.23273    0.45367    0.33597    1.000
    C279     C        0.26293    0.52675    0.32197    1.000
    H175     H        0.28963    0.53487    0.35897    1.000
    C280     C        0.25808    0.56408    0.28248    1.000
    C281     C        0.21746    0.55072    0.22747    1.000
    H176     H        0.21283    0.57497    0.20157    1.000
    C282     C        0.18407    0.50181    0.21117    1.000
    H177     H        0.15763    0.49367    0.17337    1.000
    C283     C        0.29648    0.61688    0.29230    1.000
    C284     C        0.28419    0.65401    0.29286    1.000
    H178     H        0.25123    0.64547    0.29357    1.000
    C285     C        0.00456    0.29492    0.34947    1.000
    O57      O        0.15419    0.37852    0.27547    1.000
    O58      O        0.12087    0.40237    0.17357    1.000
    O59      O        0.10499    0.28727    0.07112    1.000
    O60      O        0.05078    0.26873    0.17963    1.000
    N71      N        0.99074    0.35225    0.38757    1.000
    N72      N        0.98141    0.30676    0.40992    1.000
    N73      N        0.01813    0.36719    0.31757    1.000
    N74      N        0.00698    0.25326    0.34937    1.000
    H179     H        0.99283    0.23187    0.39077    1.000
    H180     H        0.02273    0.24817    0.30787    1.000
    N75      N        0.02737    0.33151    0.29079    1.000
    Zn16     Zn       0.33027    0.06126    0.51327    1.000
    C286     C        0.40962    0.14864    0.45420    1.000
    C287     C        0.46375    0.18600    0.44850    1.000
    C288     C        0.49842    0.17617    0.48580    1.000
    H181     H        0.48840    0.14580    0.51210    1.000
    C289     C        0.54782    0.21149    0.48400    1.000
    H182     H        0.57080    0.20430    0.50830    1.000
    C290     C        0.56409    0.25809    0.44608    1.000
    C291     C        0.52876    0.26604    0.40530    1.000
    H183     H        0.53870    0.29590    0.37690    1.000
    C292     C        0.47957    0.23084    0.40610    1.000
    H184     H        0.45680    0.23710    0.37810    1.000
    C293     C        0.61645    0.29646    0.44810    1.000
    C294     C        0.63025    0.34620    0.44854    1.000
    H185     H        0.60590    0.35490    0.44910    1.000
    C295     C        0.25519    0.07503    0.56680    1.000
    C296     C        0.20222    0.05805    0.58370    1.000
    C297     C        0.18877    0.08447    0.64080    1.000
    H186     H        0.21300    0.11240    0.66930    1.000
    C298     C        0.13992    0.06952    0.65530    1.000
    H187     H        0.13180    0.08810    0.69230    1.000
    C299     C        0.10259    0.02734    0.61581    1.000
    C300     C        0.11595    0.00008    0.56080    1.000
    H188     H        0.09170    0.97120    0.53490    1.000
    C301     C        0.16486    0.01560    0.54450    1.000
    H189     H        0.17300    0.99730    0.50670    1.000
    C302     C        0.04979    0.01294    0.62563    1.000
    C303     C        0.01266    0.96352    0.62619    1.000
    H190     H        0.02120    0.93910    0.62690    1.000
    C304     C        0.37175    0.04298    0.68280    1.000
    O61      O        0.28815    0.10901    0.60880    1.000
    O62      O        0.26430    0.05184    0.50690    1.000
    O63      O        0.37940    0.15106    0.40445    1.000
    O64      O        0.39794    0.11539    0.51296    1.000
    N76      N        0.31442    0.97183    0.72090    1.000
    N77      N        0.35991    0.00799    0.74325    1.000
    N78      N        0.29948    0.98428    0.65090    1.000
    N79      N        0.41341    0.08706    0.68270    1.000
    H191     H        0.43480    0.09430    0.72410    1.000
    H192     H        0.41850    0.10790    0.64120    1.000
    N80      N        0.33516    0.02920    0.62412    1.000
    Zn17     Zn       0.99694    0.39460    0.84660    1.000
    C305     C        0.07629    0.48197    0.78753    1.000
    C306     C        0.13042    0.51933    0.78183    1.000
    C307     C        0.16509    0.50950    0.81913    1.000
    H193     H        0.15507    0.47913    0.84543    1.000
    C308     C        0.21449    0.54482    0.81733    1.000
    H194     H        0.23747    0.53763    0.84163    1.000
    C309     C        0.23076    0.59142    0.77941    1.000
    C310     C        0.19543    0.59937    0.73863    1.000
    H195     H        0.20537    0.62923    0.71023    1.000
    C311     C        0.14624    0.56417    0.73943    1.000
    H196     H        0.12347    0.57043    0.71143    1.000
    C312     C        0.28312    0.62979    0.78143    1.000
    C313     C        0.29692    0.67953    0.78187    1.000
    H197     H        0.27257    0.68823    0.78243    1.000
    C314     C        0.92186    0.40836    0.90013    1.000
    C315     C        0.86889    0.39138    0.91703    1.000
    C316     C        0.85544    0.41780    0.97413    1.000
    H198     H        0.87967    0.44573    0.00263    1.000
    C317     C        0.80659    0.40285    0.98863    1.000
    H199     H        0.79847    0.42143    0.02563    1.000
    C318     C        0.76926    0.36067    0.94914    1.000
    C319     C        0.78262    0.33341    0.89413    1.000
    H200     H        0.75837    0.30453    0.86823    1.000
    C320     C        0.83153    0.34893    0.87783    1.000
    H201     H        0.83967    0.33063    0.84003    1.000
    C321     C        0.71646    0.34627    0.95896    1.000
    C322     C        0.67933    0.29685    0.95952    1.000
    H202     H        0.68787    0.27243    0.96023    1.000
    C323     C        0.03842    0.37631    0.01613    1.000
    O65      O        0.95482    0.44234    0.94213    1.000
    O66      O        0.93097    0.38517    0.84023    1.000
    O67      O        0.04607    0.48439    0.73778    1.000
    O68      O        0.06461    0.44872    0.84629    1.000
    N81      N        0.98109    0.30516    0.05423    1.000
    N82      N        0.02658    0.34132    0.07658    1.000
    N83      N        0.96615    0.31761    0.98423    1.000
    N84      N        0.08008    0.42039    0.01603    1.000
    H203     H        0.10147    0.42763    0.05743    1.000
    H204     H        0.08517    0.44123    0.97453    1.000
    N85      N        0.00183    0.36253    0.95745    1.000
    Zn18     Zn       0.66361    0.72793    0.17994    1.000
    C324     C        0.74295    0.81531    0.12087    1.000
    C325     C        0.79708    0.85267    0.11517    1.000
    C326     C        0.83175    0.84284    0.15247    1.000
    H205     H        0.82173    0.81247    0.17877    1.000
    C327     C        0.88115    0.87816    0.15067    1.000
    H206     H        0.90413    0.87097    0.17497    1.000
    C328     C        0.89742    0.92476    0.11275    1.000
    C329     C        0.86209    0.93271    0.07197    1.000
    H207     H        0.87203    0.96257    0.04357    1.000
    C330     C        0.81290    0.89751    0.07277    1.000
    H208     H        0.79013    0.90377    0.04477    1.000
    C331     C        0.94978    0.96313    0.11477    1.000
    C332     C        0.96358    0.01287    0.11521    1.000
    H209     H        0.93923    0.02157    0.11577    1.000
    C333     C        0.58852    0.74170    0.23347    1.000
    C334     C        0.53555    0.72472    0.25037    1.000
    C335     C        0.52210    0.75114    0.30747    1.000
    H210     H        0.54633    0.77907    0.33597    1.000
    C336     C        0.47325    0.73619    0.32197    1.000
    H211     H        0.46513    0.75477    0.35897    1.000
    C337     C        0.43592    0.69401    0.28248    1.000
    C338     C        0.44928    0.66675    0.22747    1.000
    H212     H        0.42503    0.63787    0.20157    1.000
    C339     C        0.49819    0.68227    0.21117    1.000
    H213     H        0.50633    0.66397    0.17337    1.000
    C340     C        0.38312    0.67961    0.29230    1.000
    C341     C        0.34599    0.63019    0.29286    1.000
    H214     H        0.35453    0.60577    0.29357    1.000
    C342     C        0.70508    0.70965    0.34947    1.000
    O69      O        0.62148    0.77568    0.27547    1.000
    O70      O        0.59763    0.71851    0.17357    1.000
    O71      O        0.71273    0.81773    0.07112    1.000
    O72      O        0.73127    0.78206    0.17963    1.000
    N86      N        0.64775    0.63850    0.38757    1.000
    N87      N        0.69324    0.67466    0.40992    1.000
    N88      N        0.63281    0.65095    0.31757    1.000
    N89      N        0.74674    0.75373    0.34937    1.000
    H215     H        0.76813    0.76097    0.39077    1.000
    H216     H        0.75183    0.77457    0.30787    1.000
    N90      N        0.66849    0.69587    0.29079    1.000
