# CIF file generated by openbabel 3.1.0, see https://openbabel.org
data_I
_chemical_name_common 'image0'
_cell_length_a 29.325
_cell_length_b 13.413
_cell_length_c 36.016
_cell_angle_alpha 90
_cell_angle_beta 90
_cell_angle_gamma 90
_space_group_name_H-M_alt 'P 1'
_space_group_name_Hall 'P 1'
loop_
    _symmetry_equiv_pos_as_xyz
    x,y,z
loop_
    _atom_site_label
    _atom_site_type_symbol
    _atom_site_fract_x
    _atom_site_fract_y
    _atom_site_fract_z
    _atom_site_occupancy
    W1       W        0.54314    0.67341    0.35050    1.000
    W2       W        0.46942    0.70293    0.42397    1.000
    W3       W        0.42176    0.45086    0.41028    1.000
    W4       W        0.49412    0.25233    0.40879    1.000
    W5       W        0.61918    0.45187    0.34814    1.000
    W6       W        0.66096    0.52040    0.43505    1.000
    W7       W        0.58437    0.73592    0.43735    1.000
    W8       W        0.61776    0.28777    0.42360    1.000
    W9       W        0.49456    0.42202    0.33584    1.000
    Co1      Co       0.58652    0.42410    0.50472    1.000
    Co2      Co       0.52105    0.61394    0.50706    1.000
    P1       P        0.54103    0.49170    0.42648    1.000
    O1       O        0.50540    0.43080    0.40530    1.000
    O2       O        0.58900    0.45480    0.41480    1.000
    O3       O        0.53390    0.48010    0.46860    1.000
    O4       O        0.53660    0.60210    0.41440    1.000
    O5       O        0.49450    0.27110    0.45830    1.000
    O6       O        0.43280    0.31420    0.40850    1.000
    O7       O        0.49300    0.29200    0.35590    1.000
    O8       O        0.55940    0.24660    0.40590    1.000
    O9       O        0.43820    0.59090    0.40570    1.000
    O10      O        0.59810    0.30610    0.46980    1.000
    O11      O        0.64880    0.17610    0.42550    1.000
    O12      O        0.62870    0.32640    0.36980    1.000
    O13      O        0.56600    0.53960    0.53990    1.000
    O14      O        0.57190    0.68560    0.48140    1.000
    O15      O        0.63680    0.50670    0.47950    1.000
    O16      O        0.52120    0.78400    0.43560    1.000
    O17      O        0.57930    0.75020    0.38190    1.000
    O18      O        0.63280    0.64770    0.42650    1.000
    O19      O        0.46990    0.65010    0.47080    1.000
    O20      O        0.49030    0.72440    0.37300    1.000
    O21      O        0.59290    0.58370    0.34500    1.000
    O22      O        0.55950    0.40760    0.33510    1.000
    O23      O        0.66360    0.50850    0.37920    1.000
    O24      O        0.54420    0.74500    0.31050    1.000
    O25      O        0.48070    0.39890    0.28980    1.000
    O26      O        0.43720    0.44820    0.35750    1.000
    O27      O        0.66830    0.37610    0.43130    1.000
    O28      O        0.50410    0.55900    0.33710    1.000
    O29      O        0.71770    0.55490    0.44210    1.000
    Co3      Co       0.53013    0.82339    0.26149    1.000
    C1       C        0.70070    0.68910    0.17110    1.000
    C2       C        0.72980    0.67990    0.11390    1.000
    C3       C        0.77580    0.68880    0.16310    1.000
    C4       C        0.72250    0.67530    0.07280    1.000
    C5       C        0.82250    0.69390    0.18110    1.000
    C6       C        0.82650    0.71030    0.21850    1.000
    H1       H        0.80100    0.72220    0.23320    1.000
    C7       C        0.86070    0.67710    0.15950    1.000
    H2       H        0.85860    0.67000    0.13390    1.000
    C8       C        0.90200    0.67120    0.17780    1.000
    H3       H        0.92750    0.65360    0.16390    1.000
    C9       C        0.30260    0.92740    0.38840    1.000
    C10      C        0.27040    0.94490    0.33250    1.000
    C11      C        0.34580    0.94200    0.33850    1.000
    C12      C        0.39250    0.94090    0.32030    1.000
    C13      C        0.42990    0.92760    0.34200    1.000
    H4       H        0.42840    0.93210    0.36770    1.000
    C14      C        0.47110    0.90630    0.32320    1.000
    H5       H        0.49700    0.89430    0.33740    1.000
    C15      C        0.29770    0.91330    0.42930    1.000
    C16      C        0.25580    0.90660    0.44620    1.000
    H6       H        0.22920    0.91150    0.43230    1.000
    C17      C        0.22870    0.95120    0.30820    1.000
    C18      C        0.18510    0.94430    0.32350    1.000
    H7       H        0.18160    0.93700    0.34900    1.000
    C19      C        0.14760    0.94810    0.30130    1.000
    H8       H        0.11880    0.94460    0.31200    1.000
    C20      C        0.43820    0.92470    0.26640    1.000
    H9       H        0.44050    0.92640    0.24070    1.000
    C21      C        0.86930    0.70850    0.23340    1.000
    H10      H        0.87240    0.72130    0.25870    1.000
    C22      C        0.65930    0.69650    0.19450    1.000
    C23      C        0.61580    0.69620    0.17840    1.000
    H11      H        0.61200    0.68140    0.15330    1.000
    C24      C        0.39510    0.94590    0.28280    1.000
    H12      H        0.36980    0.96240    0.26840    1.000
    C25      C        0.57960    0.71780    0.20010    1.000
    H13      H        0.55080    0.71780    0.18940    1.000
    C26      C        0.23280    0.96190    0.27040    1.000
    H14      H        0.26130    0.96690    0.25930    1.000
    C27      C        0.25400    0.89240    0.48370    1.000
    H15      H        0.22540    0.88420    0.49440    1.000
    C28      C        0.66320    0.70890    0.23200    1.000
    H16      H        0.69140    0.70250    0.24360    1.000
    C29      C        0.62480    0.73090    0.25230    1.000
    H17      H        0.62760    0.74030    0.27780    1.000
    C30      C        0.75700    0.64640    0.04980    1.000
    H18      H        0.78530    0.62930    0.05950    1.000
    C31      C        0.74960    0.64300    0.01280    1.000
    H19      H        0.77360    0.62350    0.99760    1.000
    C32      C        0.68090    0.69670    0.05720    1.000
    H20      H        0.65600    0.71370    0.07180    1.000
    C33      C        0.67750    0.69230    0.01990    1.000
    H21      H        0.64960    0.70950    0.00940    1.000
    C34      C        0.33580    0.90790    0.45110    1.000
    H22      H        0.36470    0.91370    0.44070    1.000
    C35      C        0.33020    0.89340    0.48930    1.000
    H23      H        0.35630    0.88590    0.50370    1.000
    C36      C        0.19440    0.96500    0.24960    1.000
    H24      H        0.19760    0.97310    0.22410    1.000
    N1       N        0.47520    0.90260    0.28600    1.000
    N2       N        0.29060    0.88960    0.50610    1.000
    N3       N        0.26400    0.93340    0.36850    1.000
    N4       N        0.34410    0.93350    0.37510    1.000
    N5       N        0.31000    0.95170    0.31580    1.000
    N6       N        0.69330    0.68150    0.13470    1.000
    N7       N        0.74110    0.69410    0.18650    1.000
    N8       N        0.77260    0.68500    0.12650    1.000
    N9       N        0.90780    0.68910    0.21350    1.000
    N10      N        0.15150    0.95710    0.26350    1.000
    N11      N        0.58290    0.73930    0.23630    1.000
    N12      N        0.71070    0.66540    0.99700    1.000
    Co4      Co       0.28432    0.89035    0.56523    1.000
    W10      W        0.95686    0.32659    0.85050    1.000
    W11      W        0.03058    0.29707    0.92397    1.000
    W12      W        0.07824    0.54914    0.91028    1.000
    W13      W        0.00588    0.74767    0.90879    1.000
    W14      W        0.88082    0.54813    0.84814    1.000
    W15      W        0.83904    0.47960    0.93505    1.000
    W16      W        0.91563    0.26408    0.93735    1.000
    W17      W        0.88224    0.71223    0.92360    1.000
    W18      W        0.00544    0.57798    0.83584    1.000
    Co5      Co       0.91348    0.57590    0.00472    1.000
    Co6      Co       0.97895    0.38606    0.00706    1.000
    P2       P        0.95897    0.50830    0.92648    1.000
    O30      O        0.99460    0.56920    0.90530    1.000
    O31      O        0.91100    0.54520    0.91480    1.000
    O32      O        0.96610    0.51990    0.96860    1.000
    O33      O        0.96340    0.39790    0.91440    1.000
    O34      O        0.00550    0.72890    0.95830    1.000
    O35      O        0.06720    0.68580    0.90850    1.000
    O36      O        0.00700    0.70800    0.85590    1.000
    O37      O        0.94060    0.75340    0.90590    1.000
    O38      O        0.06180    0.40910    0.90570    1.000
    O39      O        0.90190    0.69390    0.96980    1.000
    O40      O        0.85120    0.82390    0.92550    1.000
    O41      O        0.87130    0.67360    0.86980    1.000
    O42      O        0.93400    0.46040    0.03990    1.000
    O43      O        0.92810    0.31440    0.98140    1.000
    O44      O        0.86320    0.49330    0.97950    1.000
    O45      O        0.97880    0.21600    0.93560    1.000
    O46      O        0.92070    0.24980    0.88190    1.000
    O47      O        0.86720    0.35230    0.92650    1.000
    O48      O        0.03010    0.34990    0.97080    1.000
    O49      O        0.00970    0.27560    0.87300    1.000
    O50      O        0.90710    0.41630    0.84500    1.000
    O51      O        0.94050    0.59240    0.83510    1.000
    O52      O        0.83640    0.49150    0.87920    1.000
    O53      O        0.95580    0.25500    0.81050    1.000
    O54      O        0.01930    0.60110    0.78980    1.000
    O55      O        0.06280    0.55180    0.85750    1.000
    O56      O        0.83170    0.62390    0.93130    1.000
    O57      O        0.99590    0.44100    0.83710    1.000
    O58      O        0.78230    0.44510    0.94210    1.000
    Co7      Co       0.96987    0.17661    0.76149    1.000
    C37      C        0.79930    0.31090    0.67110    1.000
    C38      C        0.77020    0.32010    0.61390    1.000
    C39      C        0.72420    0.31120    0.66310    1.000
    C40      C        0.77750    0.32470    0.57280    1.000
    C41      C        0.67750    0.30610    0.68110    1.000
    C42      C        0.67350    0.28970    0.71850    1.000
    H25      H        0.69900    0.27780    0.73320    1.000
    C43      C        0.63930    0.32290    0.65950    1.000
    H26      H        0.64140    0.33000    0.63390    1.000
    C44      C        0.59800    0.32880    0.67780    1.000
    H27      H        0.57250    0.34640    0.66390    1.000
    C45      C        0.19740    0.07260    0.88840    1.000
    C46      C        0.22960    0.05510    0.83250    1.000
    C47      C        0.15420    0.05800    0.83850    1.000
    C48      C        0.10750    0.05910    0.82030    1.000
    C49      C        0.07010    0.07240    0.84200    1.000
    H28      H        0.07160    0.06790    0.86770    1.000
    C50      C        0.02890    0.09370    0.82320    1.000
    H29      H        0.00300    0.10570    0.83740    1.000
    C51      C        0.20230    0.08670    0.92930    1.000
    C52      C        0.24420    0.09340    0.94620    1.000
    H30      H        0.27080    0.08850    0.93230    1.000
    C53      C        0.27130    0.04880    0.80820    1.000
    C54      C        0.31490    0.05570    0.82350    1.000
    H31      H        0.31840    0.06300    0.84900    1.000
    C55      C        0.35240    0.05190    0.80130    1.000
    H32      H        0.38120    0.05540    0.81200    1.000
    C56      C        0.06180    0.07530    0.76640    1.000
    H33      H        0.05950    0.07360    0.74070    1.000
    C57      C        0.63070    0.29150    0.73340    1.000
    H34      H        0.62760    0.27870    0.75870    1.000
    C58      C        0.84070    0.30350    0.69450    1.000
    C59      C        0.88420    0.30380    0.67840    1.000
    H35      H        0.88800    0.31860    0.65330    1.000
    C60      C        0.10490    0.05410    0.78280    1.000
    H36      H        0.13020    0.03760    0.76840    1.000
    C61      C        0.92040    0.28220    0.70010    1.000
    H37      H        0.94920    0.28220    0.68940    1.000
    C62      C        0.26720    0.03810    0.77040    1.000
    H38      H        0.23870    0.03310    0.75930    1.000
    C63      C        0.24600    0.10760    0.98370    1.000
    H39      H        0.27460    0.11580    0.99440    1.000
    C64      C        0.83680    0.29110    0.73200    1.000
    H40      H        0.80860    0.29750    0.74360    1.000
    C65      C        0.87520    0.26910    0.75230    1.000
    H41      H        0.87240    0.25970    0.77780    1.000
    C66      C        0.74300    0.35360    0.54980    1.000
    H42      H        0.71470    0.37070    0.55950    1.000
    C67      C        0.75040    0.35700    0.51280    1.000
    H43      H        0.72640    0.37650    0.49760    1.000
    C68      C        0.81910    0.30330    0.55720    1.000
    H44      H        0.84400    0.28630    0.57180    1.000
    C69      C        0.82250    0.30770    0.51990    1.000
    H45      H        0.85040    0.29050    0.50940    1.000
    C70      C        0.16420    0.09210    0.95110    1.000
    H46      H        0.13530    0.08630    0.94070    1.000
    C71      C        0.16980    0.10660    0.98930    1.000
    H47      H        0.14370    0.11410    0.00370    1.000
    C72      C        0.30560    0.03500    0.74960    1.000
    H48      H        0.30240    0.02690    0.72410    1.000
    N13      N        0.02480    0.09740    0.78600    1.000
    N14      N        0.20940    0.11040    0.00610    1.000
    N15      N        0.23600    0.06660    0.86850    1.000
    N16      N        0.15590    0.06650    0.87510    1.000
    N17      N        0.19000    0.04830    0.81580    1.000
    N18      N        0.80670    0.31850    0.63470    1.000
    N19      N        0.75890    0.30590    0.68650    1.000
    N20      N        0.72740    0.31500    0.62650    1.000
    N21      N        0.59220    0.31090    0.71350    1.000
    N22      N        0.34850    0.04290    0.76350    1.000
    N23      N        0.91710    0.26070    0.73630    1.000
    N24      N        0.78930    0.33460    0.49700    1.000
    Co8      Co       0.21568    0.10965    0.06523    1.000
    W19      W        0.45686    0.17341    0.14950    1.000
    W20      W        0.53058    0.20293    0.07603    1.000
    W21      W        0.57824    0.95086    0.08972    1.000
    W22      W        0.50588    0.75233    0.09121    1.000
    W23      W        0.38082    0.95187    0.15186    1.000
    W24      W        0.33904    0.02040    0.06495    1.000
    W25      W        0.41563    0.23592    0.06265    1.000
    W26      W        0.38224    0.78777    0.07640    1.000
    W27      W        0.50544    0.92202    0.16416    1.000
    Co9      Co       0.41348    0.92410    0.99528    1.000
    Co10     Co       0.47895    0.11394    0.99294    1.000
    P3       P        0.45897    0.99170    0.07352    1.000
    O59      O        0.49460    0.93080    0.09470    1.000
    O60      O        0.41100    0.95480    0.08520    1.000
    O61      O        0.46610    0.98010    0.03140    1.000
    O62      O        0.46340    0.10210    0.08560    1.000
    O63      O        0.50550    0.77110    0.04170    1.000
    O64      O        0.56720    0.81420    0.09150    1.000
    O65      O        0.50700    0.79200    0.14410    1.000
    O66      O        0.44060    0.74660    0.09410    1.000
    O67      O        0.56180    0.09090    0.09430    1.000
    O68      O        0.40190    0.80610    0.03020    1.000
    O69      O        0.35120    0.67610    0.07450    1.000
    O70      O        0.37130    0.82640    0.13020    1.000
    O71      O        0.43400    0.03960    0.96010    1.000
    O72      O        0.42810    0.18560    0.01860    1.000
    O73      O        0.36320    0.00670    0.02050    1.000
    O74      O        0.47880    0.28400    0.06440    1.000
    O75      O        0.42070    0.25020    0.11810    1.000
    O76      O        0.36720    0.14770    0.07350    1.000
    O77      O        0.53010    0.15010    0.02920    1.000
    O78      O        0.50970    0.22440    0.12700    1.000
    O79      O        0.40710    0.08370    0.15500    1.000
    O80      O        0.44050    0.90760    0.16490    1.000
    O81      O        0.33640    0.00850    0.12080    1.000
    O82      O        0.45580    0.24500    0.18950    1.000
    O83      O        0.51930    0.89890    0.21020    1.000
    O84      O        0.56280    0.94820    0.14250    1.000
    O85      O        0.33170    0.87610    0.06870    1.000
    O86      O        0.49590    0.05900    0.16290    1.000
    O87      O        0.28230    0.05490    0.05790    1.000
    Co11     Co       0.46987    0.32339    0.23851    1.000
    C73      C        0.29930    0.18910    0.32890    1.000
    C74      C        0.27020    0.17990    0.38610    1.000
    C75      C        0.22420    0.18880    0.33690    1.000
    C76      C        0.27750    0.17530    0.42720    1.000
    C77      C        0.17750    0.19390    0.31890    1.000
    C78      C        0.17350    0.21030    0.28150    1.000
    H49      H        0.19900    0.22220    0.26680    1.000
    C79      C        0.13930    0.17710    0.34050    1.000
    H50      H        0.14140    0.17000    0.36610    1.000
    C80      C        0.09800    0.17120    0.32220    1.000
    H51      H        0.07250    0.15360    0.33610    1.000
    C81      C        0.69740    0.42740    0.11160    1.000
    C82      C        0.72960    0.44490    0.16750    1.000
    C83      C        0.65420    0.44200    0.16150    1.000
    C84      C        0.60750    0.44090    0.17970    1.000
    C85      C        0.57010    0.42760    0.15800    1.000
    H52      H        0.57160    0.43210    0.13230    1.000
    C86      C        0.52890    0.40630    0.17680    1.000
    H53      H        0.50300    0.39430    0.16260    1.000
    C87      C        0.70230    0.41330    0.07070    1.000
    C88      C        0.74420    0.40660    0.05380    1.000
    H54      H        0.77080    0.41150    0.06770    1.000
    C89      C        0.77130    0.45120    0.19180    1.000
    C90      C        0.81490    0.44430    0.17650    1.000
    H55      H        0.81840    0.43700    0.15100    1.000
    C91      C        0.85240    0.44810    0.19870    1.000
    H56      H        0.88120    0.44460    0.18800    1.000
    C92      C        0.56180    0.42470    0.23360    1.000
    H57      H        0.55950    0.42640    0.25930    1.000
    C93      C        0.13070    0.20850    0.26660    1.000
    H58      H        0.12760    0.22130    0.24130    1.000
    C94      C        0.34070    0.19650    0.30550    1.000
    C95      C        0.38420    0.19620    0.32160    1.000
    H59      H        0.38800    0.18140    0.34670    1.000
    C96      C        0.60490    0.44590    0.21720    1.000
    H60      H        0.63020    0.46240    0.23160    1.000
    C97      C        0.42040    0.21780    0.29990    1.000
    H61      H        0.44920    0.21780    0.31060    1.000
    C98      C        0.76720    0.46190    0.22960    1.000
    H62      H        0.73870    0.46690    0.24070    1.000
    C99      C        0.74600    0.39240    0.01630    1.000
    H63      H        0.77460    0.38420    0.00560    1.000
    C100     C        0.33680    0.20890    0.26800    1.000
    H64      H        0.30860    0.20250    0.25640    1.000
    C101     C        0.37520    0.23090    0.24770    1.000
    H65      H        0.37240    0.24030    0.22220    1.000
    C102     C        0.24300    0.14640    0.45020    1.000
    H66      H        0.21470    0.12930    0.44050    1.000
    C103     C        0.25040    0.14300    0.48720    1.000
    H67      H        0.22640    0.12350    0.50240    1.000
    C104     C        0.31910    0.19670    0.44280    1.000
    H68      H        0.34400    0.21370    0.42820    1.000
    C105     C        0.32250    0.19230    0.48010    1.000
    H69      H        0.35040    0.20950    0.49060    1.000
    C106     C        0.66420    0.40790    0.04890    1.000
    H70      H        0.63530    0.41370    0.05930    1.000
    C107     C        0.66980    0.39340    0.01070    1.000
    H71      H        0.64370    0.38590    0.99630    1.000
    C108     C        0.80560    0.46500    0.25040    1.000
    H72      H        0.80240    0.47310    0.27590    1.000
    N25      N        0.52480    0.40260    0.21400    1.000
    N26      N        0.70940    0.38960    0.99390    1.000
    N27      N        0.73600    0.43340    0.13150    1.000
    N28      N        0.65590    0.43350    0.12490    1.000
    N29      N        0.69000    0.45170    0.18420    1.000
    N30      N        0.30670    0.18150    0.36530    1.000
    N31      N        0.25890    0.19410    0.31350    1.000
    N32      N        0.22740    0.18500    0.37350    1.000
    N33      N        0.09220    0.18910    0.28650    1.000
    N34      N        0.84850    0.45710    0.23650    1.000
    N35      N        0.41710    0.23930    0.26370    1.000
    N36      N        0.28930    0.16540    0.50300    1.000
    Co12     Co       0.71568    0.39035    0.93477    1.000
    W28      W        0.04314    0.82659    0.64950    1.000
    W29      W        0.96942    0.79707    0.57603    1.000
    W30      W        0.92176    0.04914    0.58972    1.000
    W31      W        0.99412    0.24767    0.59121    1.000
    W32      W        0.11918    0.04813    0.65186    1.000
    W33      W        0.16096    0.97960    0.56495    1.000
    W34      W        0.08437    0.76408    0.56265    1.000
    W35      W        0.11776    0.21223    0.57640    1.000
    W36      W        0.99456    0.07798    0.66416    1.000
    Co13     Co       0.08652    0.07590    0.49528    1.000
    Co14     Co       0.02105    0.88606    0.49294    1.000
    P4       P        0.04103    0.00830    0.57352    1.000
    O88      O        0.00540    0.06920    0.59470    1.000
    O89      O        0.08900    0.04520    0.58520    1.000
    O90      O        0.03390    0.01990    0.53140    1.000
    O91      O        0.03660    0.89790    0.58560    1.000
    O92      O        0.99450    0.22890    0.54170    1.000
    O93      O        0.93280    0.18580    0.59150    1.000
    O94      O        0.99300    0.20800    0.64410    1.000
    O95      O        0.05940    0.25340    0.59410    1.000
    O96      O        0.93820    0.90910    0.59430    1.000
    O97      O        0.09810    0.19390    0.53020    1.000
    O98      O        0.14880    0.32390    0.57450    1.000
    O99      O        0.12870    0.17360    0.63020    1.000
    O100     O        0.06600    0.96040    0.46010    1.000
    O101     O        0.07190    0.81440    0.51860    1.000
    O102     O        0.13680    0.99330    0.52050    1.000
    O103     O        0.02120    0.71600    0.56440    1.000
    O104     O        0.07930    0.74980    0.61810    1.000
    O105     O        0.13280    0.85230    0.57350    1.000
    O106     O        0.96990    0.84990    0.52920    1.000
    O107     O        0.99030    0.77560    0.62700    1.000
    O108     O        0.09290    0.91630    0.65500    1.000
    O109     O        0.05950    0.09240    0.66490    1.000
    O110     O        0.16360    0.99150    0.62080    1.000
    O111     O        0.04420    0.75500    0.68950    1.000
    O112     O        0.98070    0.10110    0.71020    1.000
    O113     O        0.93720    0.05180    0.64250    1.000
    O114     O        0.16830    0.12390    0.56870    1.000
    O115     O        0.00410    0.94100    0.66290    1.000
    O116     O        0.21770    0.94510    0.55790    1.000
    Co15     Co       0.03013    0.67661    0.73851    1.000
    C109     C        0.20070    0.81090    0.82890    1.000
    C110     C        0.22980    0.82010    0.88610    1.000
    C111     C        0.27580    0.81120    0.83690    1.000
    C112     C        0.22250    0.82470    0.92720    1.000
    C113     C        0.32250    0.80610    0.81890    1.000
    C114     C        0.32650    0.78970    0.78150    1.000
    H73      H        0.30100    0.77780    0.76680    1.000
    C115     C        0.36070    0.82290    0.84050    1.000
    H74      H        0.35860    0.83000    0.86610    1.000
    C116     C        0.40200    0.82880    0.82220    1.000
    H75      H        0.42750    0.84640    0.83610    1.000
    C117     C        0.80260    0.57260    0.61160    1.000
    C118     C        0.77040    0.55510    0.66750    1.000
    C119     C        0.84580    0.55800    0.66150    1.000
    C120     C        0.89250    0.55910    0.67970    1.000
    C121     C        0.92990    0.57240    0.65800    1.000
    H76      H        0.92840    0.56790    0.63230    1.000
    C122     C        0.97110    0.59370    0.67680    1.000
    H77      H        0.99700    0.60570    0.66260    1.000
    C123     C        0.79770    0.58670    0.57070    1.000
    C124     C        0.75580    0.59340    0.55380    1.000
    H78      H        0.72920    0.58850    0.56770    1.000
    C125     C        0.72870    0.54880    0.69180    1.000
    C126     C        0.68510    0.55570    0.67650    1.000
    H79      H        0.68160    0.56300    0.65100    1.000
    C127     C        0.64760    0.55190    0.69870    1.000
    H80      H        0.61880    0.55540    0.68800    1.000
    C128     C        0.93820    0.57530    0.73360    1.000
    H81      H        0.94050    0.57360    0.75930    1.000
    C129     C        0.36930    0.79150    0.76660    1.000
    H82      H        0.37240    0.77870    0.74130    1.000
    C130     C        0.15930    0.80350    0.80550    1.000
    C131     C        0.11580    0.80380    0.82160    1.000
    H83      H        0.11200    0.81860    0.84670    1.000
    C132     C        0.89510    0.55410    0.71720    1.000
    H84      H        0.86980    0.53760    0.73160    1.000
    C133     C        0.07960    0.78220    0.79990    1.000
    H85      H        0.05080    0.78220    0.81060    1.000
    C134     C        0.73280    0.53810    0.72960    1.000
    H86      H        0.76130    0.53310    0.74070    1.000
    C135     C        0.75400    0.60760    0.51630    1.000
    H87      H        0.72540    0.61580    0.50560    1.000
    C136     C        0.16320    0.79110    0.76800    1.000
    H88      H        0.19140    0.79750    0.75640    1.000
    C137     C        0.12480    0.76910    0.74770    1.000
    H89      H        0.12760    0.75970    0.72220    1.000
    C138     C        0.25700    0.85360    0.95020    1.000
    H90      H        0.28530    0.87070    0.94050    1.000
    C139     C        0.24960    0.85700    0.98720    1.000
    H91      H        0.27360    0.87650    0.00240    1.000
    C140     C        0.18090    0.80330    0.94280    1.000
    H92      H        0.15600    0.78630    0.92820    1.000
    C141     C        0.17750    0.80770    0.98010    1.000
    H93      H        0.14960    0.79050    0.99060    1.000
    C142     C        0.83580    0.59210    0.54890    1.000
    H94      H        0.86470    0.58630    0.55930    1.000
    C143     C        0.83020    0.60660    0.51070    1.000
    H95      H        0.85630    0.61410    0.49630    1.000
    C144     C        0.69440    0.53500    0.75040    1.000
    H96      H        0.69760    0.52690    0.77590    1.000
    N37      N        0.97520    0.59740    0.71400    1.000
    N38      N        0.79060    0.61040    0.49390    1.000
    N39      N        0.76400    0.56660    0.63150    1.000
    N40      N        0.84410    0.56650    0.62490    1.000
    N41      N        0.81000    0.54830    0.68420    1.000
    N42      N        0.19330    0.81850    0.86530    1.000
    N43      N        0.24110    0.80590    0.81350    1.000
    N44      N        0.27260    0.81500    0.87350    1.000
    N45      N        0.40780    0.81090    0.78650    1.000
    N46      N        0.65150    0.54290    0.73650    1.000
    N47      N        0.08290    0.76070    0.76370    1.000
    N48      N        0.21070    0.83460    0.00300    1.000
    Co16     Co       0.78432    0.60965    0.43477    1.000
    W37      W        0.45686    0.32659    0.64950    1.000
    W38      W        0.53058    0.29707    0.57603    1.000
    W39      W        0.57824    0.54914    0.58972    1.000
    W40      W        0.50588    0.74767    0.59121    1.000
    W41      W        0.38082    0.54813    0.65186    1.000
    W42      W        0.33904    0.47960    0.56495    1.000
    W43      W        0.41563    0.26408    0.56265    1.000
    W44      W        0.38224    0.71223    0.57640    1.000
    W45      W        0.50544    0.57798    0.66416    1.000
    Co17     Co       0.41348    0.57590    0.49528    1.000
    Co18     Co       0.47895    0.38606    0.49294    1.000
    P5       P        0.45897    0.50830    0.57352    1.000
    O117     O        0.49460    0.56920    0.59470    1.000
    O118     O        0.41100    0.54520    0.58520    1.000
    O119     O        0.46610    0.51990    0.53140    1.000
    O120     O        0.46340    0.39790    0.58560    1.000
    O121     O        0.50550    0.72890    0.54170    1.000
    O122     O        0.56720    0.68580    0.59150    1.000
    O123     O        0.50700    0.70800    0.64410    1.000
    O124     O        0.44060    0.75340    0.59410    1.000
    O125     O        0.56180    0.40910    0.59430    1.000
    O126     O        0.40190    0.69390    0.53020    1.000
    O127     O        0.35120    0.82390    0.57450    1.000
    O128     O        0.37130    0.67360    0.63020    1.000
    O129     O        0.43400    0.46040    0.46010    1.000
    O130     O        0.42810    0.31440    0.51860    1.000
    O131     O        0.36320    0.49330    0.52050    1.000
    O132     O        0.47880    0.21600    0.56440    1.000
    O133     O        0.42070    0.24980    0.61810    1.000
    O134     O        0.36720    0.35230    0.57350    1.000
    O135     O        0.53010    0.34990    0.52920    1.000
    O136     O        0.50970    0.27560    0.62700    1.000
    O137     O        0.40710    0.41630    0.65500    1.000
    O138     O        0.44050    0.59240    0.66490    1.000
    O139     O        0.33640    0.49150    0.62080    1.000
    O140     O        0.45580    0.25500    0.68950    1.000
    O141     O        0.51930    0.60110    0.71020    1.000
    O142     O        0.56280    0.55180    0.64250    1.000
    O143     O        0.33170    0.62390    0.56870    1.000
    O144     O        0.49590    0.44100    0.66290    1.000
    O145     O        0.28230    0.44510    0.55790    1.000
    Co19     Co       0.46987    0.17661    0.73851    1.000
    C145     C        0.29930    0.31090    0.82890    1.000
    C146     C        0.27020    0.32010    0.88610    1.000
    C147     C        0.22420    0.31120    0.83690    1.000
    C148     C        0.27750    0.32470    0.92720    1.000
    C149     C        0.17750    0.30610    0.81890    1.000
    C150     C        0.17350    0.28970    0.78150    1.000
    H97      H        0.19900    0.27780    0.76680    1.000
    C151     C        0.13930    0.32290    0.84050    1.000
    H98      H        0.14140    0.33000    0.86610    1.000
    C152     C        0.09800    0.32880    0.82220    1.000
    H99      H        0.07250    0.34640    0.83610    1.000
    C153     C        0.69740    0.07260    0.61160    1.000
    C154     C        0.72960    0.05510    0.66750    1.000
    C155     C        0.65420    0.05800    0.66150    1.000
    C156     C        0.60750    0.05910    0.67970    1.000
    C157     C        0.57010    0.07240    0.65800    1.000
    H100     H        0.57160    0.06790    0.63230    1.000
    C158     C        0.52890    0.09370    0.67680    1.000
    H101     H        0.50300    0.10570    0.66260    1.000
    C159     C        0.70230    0.08670    0.57070    1.000
    C160     C        0.74420    0.09340    0.55380    1.000
    H102     H        0.77080    0.08850    0.56770    1.000
    C161     C        0.77130    0.04880    0.69180    1.000
    C162     C        0.81490    0.05570    0.67650    1.000
    H103     H        0.81840    0.06300    0.65100    1.000
    C163     C        0.85240    0.05190    0.69870    1.000
    H104     H        0.88120    0.05540    0.68800    1.000
    C164     C        0.56180    0.07530    0.73360    1.000
    H105     H        0.55950    0.07360    0.75930    1.000
    C165     C        0.13070    0.29150    0.76660    1.000
    H106     H        0.12760    0.27870    0.74130    1.000
    C166     C        0.34070    0.30350    0.80550    1.000
    C167     C        0.38420    0.30380    0.82160    1.000
    H107     H        0.38800    0.31860    0.84670    1.000
    C168     C        0.60490    0.05410    0.71720    1.000
    H108     H        0.63020    0.03760    0.73160    1.000
    C169     C        0.42040    0.28220    0.79990    1.000
    H109     H        0.44920    0.28220    0.81060    1.000
    C170     C        0.76720    0.03810    0.72960    1.000
    H110     H        0.73870    0.03310    0.74070    1.000
    C171     C        0.74600    0.10760    0.51630    1.000
    H111     H        0.77460    0.11580    0.50560    1.000
    C172     C        0.33680    0.29110    0.76800    1.000
    H112     H        0.30860    0.29750    0.75640    1.000
    C173     C        0.37520    0.26910    0.74770    1.000
    H113     H        0.37240    0.25970    0.72220    1.000
    C174     C        0.24300    0.35360    0.95020    1.000
    H114     H        0.21470    0.37070    0.94050    1.000
    C175     C        0.25040    0.35700    0.98720    1.000
    H115     H        0.22640    0.37650    0.00240    1.000
    C176     C        0.31910    0.30330    0.94280    1.000
    H116     H        0.34400    0.28630    0.92820    1.000
    C177     C        0.32250    0.30770    0.98010    1.000
    H117     H        0.35040    0.29050    0.99060    1.000
    C178     C        0.66420    0.09210    0.54890    1.000
    H118     H        0.63530    0.08630    0.55930    1.000
    C179     C        0.66980    0.10660    0.51070    1.000
    H119     H        0.64370    0.11410    0.49630    1.000
    C180     C        0.80560    0.03500    0.75040    1.000
    H120     H        0.80240    0.02690    0.77590    1.000
    N49      N        0.52480    0.09740    0.71400    1.000
    N50      N        0.70940    0.11040    0.49390    1.000
    N51      N        0.73600    0.06660    0.63150    1.000
    N52      N        0.65590    0.06650    0.62490    1.000
    N53      N        0.69000    0.04830    0.68420    1.000
    N54      N        0.30670    0.31850    0.86530    1.000
    N55      N        0.25890    0.30590    0.81350    1.000
    N56      N        0.22740    0.31500    0.87350    1.000
    N57      N        0.09220    0.31090    0.78650    1.000
    N58      N        0.84850    0.04290    0.73650    1.000
    N59      N        0.41710    0.26070    0.76370    1.000
    N60      N        0.28930    0.33460    0.00300    1.000
    Co20     Co       0.71568    0.10965    0.43477    1.000
    W46      W        0.04314    0.67341    0.14950    1.000
    W47      W        0.96942    0.70293    0.07603    1.000
    W48      W        0.92176    0.45086    0.08972    1.000
    W49      W        0.99412    0.25233    0.09121    1.000
    W50      W        0.11918    0.45187    0.15186    1.000
    W51      W        0.16096    0.52040    0.06495    1.000
    W52      W        0.08437    0.73592    0.06265    1.000
    W53      W        0.11776    0.28777    0.07640    1.000
    W54      W        0.99456    0.42202    0.16416    1.000
    Co21     Co       0.08652    0.42410    0.99528    1.000
    Co22     Co       0.02105    0.61394    0.99294    1.000
    P6       P        0.04103    0.49170    0.07352    1.000
    O146     O        0.00540    0.43080    0.09470    1.000
    O147     O        0.08900    0.45480    0.08520    1.000
    O148     O        0.03390    0.48010    0.03140    1.000
    O149     O        0.03660    0.60210    0.08560    1.000
    O150     O        0.99450    0.27110    0.04170    1.000
    O151     O        0.93280    0.31420    0.09150    1.000
    O152     O        0.99300    0.29200    0.14410    1.000
    O153     O        0.05940    0.24660    0.09410    1.000
    O154     O        0.93820    0.59090    0.09430    1.000
    O155     O        0.09810    0.30610    0.03020    1.000
    O156     O        0.14880    0.17610    0.07450    1.000
    O157     O        0.12870    0.32640    0.13020    1.000
    O158     O        0.06600    0.53960    0.96010    1.000
    O159     O        0.07190    0.68560    0.01860    1.000
    O160     O        0.13680    0.50670    0.02050    1.000
    O161     O        0.02120    0.78400    0.06440    1.000
    O162     O        0.07930    0.75020    0.11810    1.000
    O163     O        0.13280    0.64770    0.07350    1.000
    O164     O        0.96990    0.65010    0.02920    1.000
    O165     O        0.99030    0.72440    0.12700    1.000
    O166     O        0.09290    0.58370    0.15500    1.000
    O167     O        0.05950    0.40760    0.16490    1.000
    O168     O        0.16360    0.50850    0.12080    1.000
    O169     O        0.04420    0.74500    0.18950    1.000
    O170     O        0.98070    0.39890    0.21020    1.000
    O171     O        0.93720    0.44820    0.14250    1.000
    O172     O        0.16830    0.37610    0.06870    1.000
    O173     O        0.00410    0.55900    0.16290    1.000
    O174     O        0.21770    0.55490    0.05790    1.000
    Co23     Co       0.03013    0.82339    0.23851    1.000
    C181     C        0.20070    0.68910    0.32890    1.000
    C182     C        0.22980    0.67990    0.38610    1.000
    C183     C        0.27580    0.68880    0.33690    1.000
    C184     C        0.22250    0.67530    0.42720    1.000
    C185     C        0.32250    0.69390    0.31890    1.000
    C186     C        0.32650    0.71030    0.28150    1.000
    H121     H        0.30100    0.72220    0.26680    1.000
    C187     C        0.36070    0.67710    0.34050    1.000
    H122     H        0.35860    0.67000    0.36610    1.000
    C188     C        0.40200    0.67120    0.32220    1.000
    H123     H        0.42750    0.65360    0.33610    1.000
    C189     C        0.80260    0.92740    0.11160    1.000
    C190     C        0.77040    0.94490    0.16750    1.000
    C191     C        0.84580    0.94200    0.16150    1.000
    C192     C        0.89250    0.94090    0.17970    1.000
    C193     C        0.92990    0.92760    0.15800    1.000
    H124     H        0.92840    0.93210    0.13230    1.000
    C194     C        0.97110    0.90630    0.17680    1.000
    H125     H        0.99700    0.89430    0.16260    1.000
    C195     C        0.79770    0.91330    0.07070    1.000
    C196     C        0.75580    0.90660    0.05380    1.000
    H126     H        0.72920    0.91150    0.06770    1.000
    C197     C        0.72870    0.95120    0.19180    1.000
    C198     C        0.68510    0.94430    0.17650    1.000
    H127     H        0.68160    0.93700    0.15100    1.000
    C199     C        0.64760    0.94810    0.19870    1.000
    H128     H        0.61880    0.94460    0.18800    1.000
    C200     C        0.93820    0.92470    0.23360    1.000
    H129     H        0.94050    0.92640    0.25930    1.000
    C201     C        0.36930    0.70850    0.26660    1.000
    H130     H        0.37240    0.72130    0.24130    1.000
    C202     C        0.15930    0.69650    0.30550    1.000
    C203     C        0.11580    0.69620    0.32160    1.000
    H131     H        0.11200    0.68140    0.34670    1.000
    C204     C        0.89510    0.94590    0.21720    1.000
    H132     H        0.86980    0.96240    0.23160    1.000
    C205     C        0.07960    0.71780    0.29990    1.000
    H133     H        0.05080    0.71780    0.31060    1.000
    C206     C        0.73280    0.96190    0.22960    1.000
    H134     H        0.76130    0.96690    0.24070    1.000
    C207     C        0.75400    0.89240    0.01630    1.000
    H135     H        0.72540    0.88420    0.00560    1.000
    C208     C        0.16320    0.70890    0.26800    1.000
    H136     H        0.19140    0.70250    0.25640    1.000
    C209     C        0.12480    0.73090    0.24770    1.000
    H137     H        0.12760    0.74030    0.22220    1.000
    C210     C        0.25700    0.64640    0.45020    1.000
    H138     H        0.28530    0.62930    0.44050    1.000
    C211     C        0.24960    0.64300    0.48720    1.000
    H139     H        0.27360    0.62350    0.50240    1.000
    C212     C        0.18090    0.69670    0.44280    1.000
    H140     H        0.15600    0.71370    0.42820    1.000
    C213     C        0.17750    0.69230    0.48010    1.000
    H141     H        0.14960    0.70950    0.49060    1.000
    C214     C        0.83580    0.90790    0.04890    1.000
    H142     H        0.86470    0.91370    0.05930    1.000
    C215     C        0.83020    0.89340    0.01070    1.000
    H143     H        0.85630    0.88590    0.99630    1.000
    C216     C        0.69440    0.96500    0.25040    1.000
    H144     H        0.69760    0.97310    0.27590    1.000
    N61      N        0.97520    0.90260    0.21400    1.000
    N62      N        0.79060    0.88960    0.99390    1.000
    N63      N        0.76400    0.93340    0.13150    1.000
    N64      N        0.84410    0.93350    0.12490    1.000
    N65      N        0.81000    0.95170    0.18420    1.000
    N66      N        0.19330    0.68150    0.36530    1.000
    N67      N        0.24110    0.69410    0.31350    1.000
    N68      N        0.27260    0.68500    0.37350    1.000
    N69      N        0.40780    0.68910    0.28650    1.000
    N70      N        0.65150    0.95710    0.23650    1.000
    N71      N        0.08290    0.73930    0.26370    1.000
    N72      N        0.21070    0.66540    0.50300    1.000
    Co24     Co       0.78432    0.89035    0.93477    1.000
    W55      W        0.54314    0.82659    0.85050    1.000
    W56      W        0.46942    0.79707    0.92397    1.000
    W57      W        0.42176    0.04914    0.91028    1.000
    W58      W        0.49412    0.24767    0.90879    1.000
    W59      W        0.61918    0.04813    0.84814    1.000
    W60      W        0.66096    0.97960    0.93505    1.000
    W61      W        0.58437    0.76408    0.93735    1.000
    W62      W        0.61776    0.21223    0.92360    1.000
    W63      W        0.49456    0.07798    0.83584    1.000
    Co25     Co       0.58652    0.07590    0.00472    1.000
    Co26     Co       0.52105    0.88606    0.00706    1.000
    P7       P        0.54103    0.00830    0.92648    1.000
    O175     O        0.50540    0.06920    0.90530    1.000
    O176     O        0.58900    0.04520    0.91480    1.000
    O177     O        0.53390    0.01990    0.96860    1.000
    O178     O        0.53660    0.89790    0.91440    1.000
    O179     O        0.49450    0.22890    0.95830    1.000
    O180     O        0.43280    0.18580    0.90850    1.000
    O181     O        0.49300    0.20800    0.85590    1.000
    O182     O        0.55940    0.25340    0.90590    1.000
    O183     O        0.43820    0.90910    0.90570    1.000
    O184     O        0.59810    0.19390    0.96980    1.000
    O185     O        0.64880    0.32390    0.92550    1.000
    O186     O        0.62870    0.17360    0.86980    1.000
    O187     O        0.56600    0.96040    0.03990    1.000
    O188     O        0.57190    0.81440    0.98140    1.000
    O189     O        0.63680    0.99330    0.97950    1.000
    O190     O        0.52120    0.71600    0.93560    1.000
    O191     O        0.57930    0.74980    0.88190    1.000
    O192     O        0.63280    0.85230    0.92650    1.000
    O193     O        0.46990    0.84990    0.97080    1.000
    O194     O        0.49030    0.77560    0.87300    1.000
    O195     O        0.59290    0.91630    0.84500    1.000
    O196     O        0.55950    0.09240    0.83510    1.000
    O197     O        0.66360    0.99150    0.87920    1.000
    O198     O        0.54420    0.75500    0.81050    1.000
    O199     O        0.48070    0.10110    0.78980    1.000
    O200     O        0.43720    0.05180    0.85750    1.000
    O201     O        0.66830    0.12390    0.93130    1.000
    O202     O        0.50410    0.94100    0.83710    1.000
    O203     O        0.71770    0.94510    0.94210    1.000
    Co27     Co       0.53013    0.67661    0.76149    1.000
    C217     C        0.70070    0.81090    0.67110    1.000
    C218     C        0.72980    0.82010    0.61390    1.000
    C219     C        0.77580    0.81120    0.66310    1.000
    C220     C        0.72250    0.82470    0.57280    1.000
    C221     C        0.82250    0.80610    0.68110    1.000
    C222     C        0.82650    0.78970    0.71850    1.000
    H145     H        0.80100    0.77780    0.73320    1.000
    C223     C        0.86070    0.82290    0.65950    1.000
    H146     H        0.85860    0.83000    0.63390    1.000
    C224     C        0.90200    0.82880    0.67780    1.000
    H147     H        0.92750    0.84640    0.66390    1.000
    C225     C        0.30260    0.57260    0.88840    1.000
    C226     C        0.27040    0.55510    0.83250    1.000
    C227     C        0.34580    0.55800    0.83850    1.000
    C228     C        0.39250    0.55910    0.82030    1.000
    C229     C        0.42990    0.57240    0.84200    1.000
    H148     H        0.42840    0.56790    0.86770    1.000
    C230     C        0.47110    0.59370    0.82320    1.000
    H149     H        0.49700    0.60570    0.83740    1.000
    C231     C        0.29770    0.58670    0.92930    1.000
    C232     C        0.25580    0.59340    0.94620    1.000
    H150     H        0.22920    0.58850    0.93230    1.000
    C233     C        0.22870    0.54880    0.80820    1.000
    C234     C        0.18510    0.55570    0.82350    1.000
    H151     H        0.18160    0.56300    0.84900    1.000
    C235     C        0.14760    0.55190    0.80130    1.000
    H152     H        0.11880    0.55540    0.81200    1.000
    C236     C        0.43820    0.57530    0.76640    1.000
    H153     H        0.44050    0.57360    0.74070    1.000
    C237     C        0.86930    0.79150    0.73340    1.000
    H154     H        0.87240    0.77870    0.75870    1.000
    C238     C        0.65930    0.80350    0.69450    1.000
    C239     C        0.61580    0.80380    0.67840    1.000
    H155     H        0.61200    0.81860    0.65330    1.000
    C240     C        0.39510    0.55410    0.78280    1.000
    H156     H        0.36980    0.53760    0.76840    1.000
    C241     C        0.57960    0.78220    0.70010    1.000
    H157     H        0.55080    0.78220    0.68940    1.000
    C242     C        0.23280    0.53810    0.77040    1.000
    H158     H        0.26130    0.53310    0.75930    1.000
    C243     C        0.25400    0.60760    0.98370    1.000
    H159     H        0.22540    0.61580    0.99440    1.000
    C244     C        0.66320    0.79110    0.73200    1.000
    H160     H        0.69140    0.79750    0.74360    1.000
    C245     C        0.62480    0.76910    0.75230    1.000
    H161     H        0.62760    0.75970    0.77780    1.000
    C246     C        0.75700    0.85360    0.54980    1.000
    H162     H        0.78530    0.87070    0.55950    1.000
    C247     C        0.74960    0.85700    0.51280    1.000
    H163     H        0.77360    0.87650    0.49760    1.000
    C248     C        0.68090    0.80330    0.55720    1.000
    H164     H        0.65600    0.78630    0.57180    1.000
    C249     C        0.67750    0.80770    0.51990    1.000
    H165     H        0.64960    0.79050    0.50940    1.000
    C250     C        0.33580    0.59210    0.95110    1.000
    H166     H        0.36470    0.58630    0.94070    1.000
    C251     C        0.33020    0.60660    0.98930    1.000
    H167     H        0.35630    0.61410    0.00370    1.000
    C252     C        0.19440    0.53500    0.74960    1.000
    H168     H        0.19760    0.52690    0.72410    1.000
    N73      N        0.47520    0.59740    0.78600    1.000
    N74      N        0.29060    0.61040    0.00610    1.000
    N75      N        0.26400    0.56660    0.86850    1.000
    N76      N        0.34410    0.56650    0.87510    1.000
    N77      N        0.31000    0.54830    0.81580    1.000
    N78      N        0.69330    0.81850    0.63470    1.000
    N79      N        0.74110    0.80590    0.68650    1.000
    N80      N        0.77260    0.81500    0.62650    1.000
    N81      N        0.90780    0.81090    0.71350    1.000
    N82      N        0.15150    0.54290    0.76350    1.000
    N83      N        0.58290    0.76070    0.73630    1.000
    N84      N        0.71070    0.83460    0.49700    1.000
    Co28     Co       0.28432    0.60965    0.06523    1.000
    W64      W        0.95686    0.17341    0.35050    1.000
    W65      W        0.03058    0.20293    0.42397    1.000
    W66      W        0.07824    0.95086    0.41028    1.000
    W67      W        0.00588    0.75233    0.40879    1.000
    W68      W        0.88082    0.95187    0.34814    1.000
    W69      W        0.83904    0.02040    0.43505    1.000
    W70      W        0.91563    0.23592    0.43735    1.000
    W71      W        0.88224    0.78777    0.42360    1.000
    W72      W        0.00544    0.92202    0.33584    1.000
    Co29     Co       0.91348    0.92410    0.50472    1.000
    Co30     Co       0.97895    0.11394    0.50706    1.000
    P8       P        0.95897    0.99170    0.42648    1.000
    O204     O        0.99460    0.93080    0.40530    1.000
    O205     O        0.91100    0.95480    0.41480    1.000
    O206     O        0.96610    0.98010    0.46860    1.000
    O207     O        0.96340    0.10210    0.41440    1.000
    O208     O        0.00550    0.77110    0.45830    1.000
    O209     O        0.06720    0.81420    0.40850    1.000
    O210     O        0.00700    0.79200    0.35590    1.000
    O211     O        0.94060    0.74660    0.40590    1.000
    O212     O        0.06180    0.09090    0.40570    1.000
    O213     O        0.90190    0.80610    0.46980    1.000
    O214     O        0.85120    0.67610    0.42550    1.000
    O215     O        0.87130    0.82640    0.36980    1.000
    O216     O        0.93400    0.03960    0.53990    1.000
    O217     O        0.92810    0.18560    0.48140    1.000
    O218     O        0.86320    0.00670    0.47950    1.000
    O219     O        0.97880    0.28400    0.43560    1.000
    O220     O        0.92070    0.25020    0.38190    1.000
    O221     O        0.86720    0.14770    0.42650    1.000
    O222     O        0.03010    0.15010    0.47080    1.000
    O223     O        0.00970    0.22440    0.37300    1.000
    O224     O        0.90710    0.08370    0.34500    1.000
    O225     O        0.94050    0.90760    0.33510    1.000
    O226     O        0.83640    0.00850    0.37920    1.000
    O227     O        0.95580    0.24500    0.31050    1.000
    O228     O        0.01930    0.89890    0.28980    1.000
    O229     O        0.06280    0.94820    0.35750    1.000
    O230     O        0.83170    0.87610    0.43130    1.000
    O231     O        0.99590    0.05900    0.33710    1.000
    O232     O        0.78230    0.05490    0.44210    1.000
    Co31     Co       0.96987    0.32339    0.26149    1.000
    C253     C        0.79930    0.18910    0.17110    1.000
    C254     C        0.77020    0.17990    0.11390    1.000
    C255     C        0.72420    0.18880    0.16310    1.000
    C256     C        0.77750    0.17530    0.07280    1.000
    C257     C        0.67750    0.19390    0.18110    1.000
    C258     C        0.67350    0.21030    0.21850    1.000
    H169     H        0.69900    0.22220    0.23320    1.000
    C259     C        0.63930    0.17710    0.15950    1.000
    H170     H        0.64140    0.17000    0.13390    1.000
    C260     C        0.59800    0.17120    0.17780    1.000
    H171     H        0.57250    0.15360    0.16390    1.000
    C261     C        0.19740    0.42740    0.38840    1.000
    C262     C        0.22960    0.44490    0.33250    1.000
    C263     C        0.15420    0.44200    0.33850    1.000
    C264     C        0.10750    0.44090    0.32030    1.000
    C265     C        0.07010    0.42760    0.34200    1.000
    H172     H        0.07160    0.43210    0.36770    1.000
    C266     C        0.02890    0.40630    0.32320    1.000
    H173     H        0.00300    0.39430    0.33740    1.000
    C267     C        0.20230    0.41330    0.42930    1.000
    C268     C        0.24420    0.40660    0.44620    1.000
    H174     H        0.27080    0.41150    0.43230    1.000
    C269     C        0.27130    0.45120    0.30820    1.000
    C270     C        0.31490    0.44430    0.32350    1.000
    H175     H        0.31840    0.43700    0.34900    1.000
    C271     C        0.35240    0.44810    0.30130    1.000
    H176     H        0.38120    0.44460    0.31200    1.000
    C272     C        0.06180    0.42470    0.26640    1.000
    H177     H        0.05950    0.42640    0.24070    1.000
    C273     C        0.63070    0.20850    0.23340    1.000
    H178     H        0.62760    0.22130    0.25870    1.000
    C274     C        0.84070    0.19650    0.19450    1.000
    C275     C        0.88420    0.19620    0.17840    1.000
    H179     H        0.88800    0.18140    0.15330    1.000
    C276     C        0.10490    0.44590    0.28280    1.000
    H180     H        0.13020    0.46240    0.26840    1.000
    C277     C        0.92040    0.21780    0.20010    1.000
    H181     H        0.94920    0.21780    0.18940    1.000
    C278     C        0.26720    0.46190    0.27040    1.000
    H182     H        0.23870    0.46690    0.25930    1.000
    C279     C        0.24600    0.39240    0.48370    1.000
    H183     H        0.27460    0.38420    0.49440    1.000
    C280     C        0.83680    0.20890    0.23200    1.000
    H184     H        0.80860    0.20250    0.24360    1.000
    C281     C        0.87520    0.23090    0.25230    1.000
    H185     H        0.87240    0.24030    0.27780    1.000
    C282     C        0.74300    0.14640    0.04980    1.000
    H186     H        0.71470    0.12930    0.05950    1.000
    C283     C        0.75040    0.14300    0.01280    1.000
    H187     H        0.72640    0.12350    0.99760    1.000
    C284     C        0.81910    0.19670    0.05720    1.000
    H188     H        0.84400    0.21370    0.07180    1.000
    C285     C        0.82250    0.19230    0.01990    1.000
    H189     H        0.85040    0.20950    0.00940    1.000
    C286     C        0.16420    0.40790    0.45110    1.000
    H190     H        0.13530    0.41370    0.44070    1.000
    C287     C        0.16980    0.39340    0.48930    1.000
    H191     H        0.14370    0.38590    0.50370    1.000
    C288     C        0.30560    0.46500    0.24960    1.000
    H192     H        0.30240    0.47310    0.22410    1.000
    N85      N        0.02480    0.40260    0.28600    1.000
    N86      N        0.20940    0.38960    0.50610    1.000
    N87      N        0.23600    0.43340    0.36850    1.000
    N88      N        0.15590    0.43350    0.37510    1.000
    N89      N        0.19000    0.45170    0.31580    1.000
    N90      N        0.80670    0.18150    0.13470    1.000
    N91      N        0.75890    0.19410    0.18650    1.000
    N92      N        0.72740    0.18500    0.12650    1.000
    N93      N        0.59220    0.18910    0.21350    1.000
    N94      N        0.34850    0.45710    0.26350    1.000
    N95      N        0.91710    0.23930    0.23630    1.000
    N96      N        0.78930    0.16540    0.99700    1.000
    Co32     Co       0.21568    0.39035    0.56523    1.000
