data_functionalizedCrystal
_audit_creation_method	'EQeq! by Chris Wilmer'
_symmetry_space_group_name_H-M	'P1'
_symmetry_Int_Tables_number	1
_symmetry_cell_setting	triclinic
loop_
_symmetry_equiv_pos_as_xyz
  x,y,z
_cell_length_a	9.5603
_cell_length_b	12.1386
_cell_length_c	15.9458
_cell_angle_alpha	88.455
_cell_angle_beta	74.417
_cell_angle_gamma	70.233
loop_
_atom_site_label
_atom_site_type_symbol
_atom_site_fract_x
_atom_site_fract_y
_atom_site_fract_z
_atom_site_charge
Mof_Ce	Ce	0.29554	0.97447	0.01829	2.858
Mof_O 	O 	0.1254	0.8835	0.11778	-0.61
Mof_O 	O 	0.0109	0.7575	0.09946	-0.528
Mof_H 	H 	0.9918	0.7998	0.0585	0.293
Mof_O 	O 	0.2369	0.0628	0.16735	-0.538
Mof_O 	O 	0.4412	0.0982	0.0846	-0.716
Mof_O 	O 	0.5342	0.1692	0.9096	-0.634
Mof_O 	O 	0.3213	0.124	0.92131	-0.652
Mof_O 	O 	0.2063	0.8906	0.91296	-0.607
Mof_O 	O 	0.9697	0.8783	0.96102	-0.571
Mof_C 	C 	0.2238	0.5511	0.4396	-0.02
Mof_C 	C 	0.273	0.4281	0.4405	-0.02
Mof_C 	C 	0.3044	0.3764	0.5155	-0.052
Mof_H 	H 	0.3398	0.2932	0.5149	0.046
Mof_C 	C 	0.2867	0.4405	0.5917	-0.022
Mof_C 	C 	0.2332	0.5644	0.5921	-0.02
Mof_C 	C 	0.2074	0.615	0.5155	-0.053
Mof_H 	H 	0.1769	0.698	0.5149	0.044
Mof_C 	C 	0.1839	0.6161	0.3636	0.087
Mof_C 	C 	0.1127	0.576	0.3106	-0.158
Mof_H 	H 	0.0851	0.5082	0.3246	0.088
Mof_C 	C 	0.0823	0.6338	0.2384	0.101
Mof_H 	H 	0.0373	0.6039	0.2021	0.014
Mof_C 	C 	0.1171	0.7354	0.2181	-0.213
Mof_C 	C 	0.1839	0.7789	0.2715	0.106
Mof_H 	H 	0.207	0.8488	0.2586	0
Mof_C 	C 	0.2162	0.7196	0.3432	-0.16
Mof_H 	H 	0.2612	0.7496	0.3795	0.082
Mof_C 	C 	0.086	0.7989	0.1408	0.524
Mof_C 	C 	0.294	0.3463	0.3661	0.089
Mof_C 	C 	0.4027	0.3371	0.2867	-0.167
Mof_H 	H 	0.4647	0.3855	0.2777	0.086
Mof_C 	C 	0.4215	0.2573	0.22	0.113
Mof_H 	H 	0.4997	0.249	0.1668	-0.026
Mof_C 	C 	0.3276	0.1901	0.2302	-0.199
Mof_C 	C 	0.2182	0.1991	0.3102	0.094
Mof_H 	H 	0.1535	0.1528	0.3181	0.015
Mof_C 	C 	0.203	0.2744	0.3779	-0.158
Mof_H 	H 	0.1306	0.2777	0.4327	0.085
Mof_C 	C 	0.3365	0.1122	0.1575	0.461
Mof_C 	C 	0.3222	0.3741	0.6679	0.096
Mof_C 	C 	0.2799	0.2752	0.6873	-0.17
Mof_H 	H 	0.2301	0.2504	0.6511	0.088
Mof_C 	C 	0.3086	0.2127	0.7578	0.125
Mof_H 	H 	0.2749	0.1474	0.7711	-0.006
Mof_C 	C 	0.3871	0.2445	0.8099	-0.217
Mof_C 	C 	0.4347	0.3407	0.7898	0.112
Mof_H 	H 	0.4903	0.3623	0.8238	-0.004
Mof_C 	C 	0.4011	0.4053	0.7197	-0.162
Mof_H 	H 	0.4325	0.4717	0.707	0.087
Mof_C 	C 	0.417	0.1751	0.8864	0.558
Mof_C 	C 	0.1952	0.643	0.6713	0.09
Mof_C 	C 	0.0964	0.6295	0.7495	-0.158
Mof_H 	H 	0.0533	0.5691	0.7525	0.084
Mof_C 	C 	0.06	0.7032	0.8232	0.102
Mof_H 	H 	0.9894	0.6947	0.8755	-0.004
Mof_C 	C 	0.1266	0.7895	0.8206	-0.218
Mof_C 	C 	0.2241	0.8043	0.7428	0.113
Mof_H 	H 	0.2698	0.863	0.7406	-0.007
Mof_C 	C 	0.2556	0.7337	0.668	-0.166
Mof_H 	H 	0.3185	0.7472	0.6144	0.085
Mof_C 	C 	0.0992	0.8591	0.9025	0.515
Mof_Ce	Ce	0.70446	0.02553	0.98171	2.857
Mof_O 	O 	0.8746	0.1165	0.88222	-0.611
Mof_O 	O 	0.9891	0.2425	0.90054	-0.529
Mof_H 	H 	0.0082	0.2002	0.9415	0.292
Mof_O 	O 	0.7631	0.9372	0.83265	-0.539
Mof_O 	O 	0.5588	0.9018	0.9154	-0.717
Mof_O 	O 	0.4658	0.8308	0.0904	-0.635
Mof_O 	O 	0.6787	0.876	0.07869	-0.653
Mof_O 	O 	0.7937	0.1094	0.08704	-0.608
Mof_O 	O 	0.0303	0.1217	0.03898	-0.572
Mof_C 	C 	0.7762	0.4489	0.5604	-0.02
Mof_C 	C 	0.727	0.5719	0.5595	-0.02
Mof_C 	C 	0.6956	0.6236	0.4845	-0.052
Mof_H 	H 	0.6602	0.7068	0.4851	0.046
Mof_C 	C 	0.7133	0.5595	0.4083	-0.022
Mof_C 	C 	0.7668	0.4356	0.4079	-0.02
Mof_C 	C 	0.7926	0.385	0.4845	-0.053
Mof_H 	H 	0.8231	0.302	0.4851	0.044
Mof_C 	C 	0.8161	0.3839	0.6364	0.087
Mof_C 	C 	0.8873	0.424	0.6894	-0.158
Mof_H 	H 	0.9149	0.4918	0.6754	0.088
Mof_C 	C 	0.9177	0.3662	0.7616	0.101
Mof_H 	H 	0.9627	0.3961	0.7979	0.014
Mof_C 	C 	0.8829	0.2646	0.7819	-0.213
Mof_C 	C 	0.8161	0.2211	0.7285	0.106
Mof_H 	H 	0.793	0.1512	0.7414	0
Mof_C 	C 	0.7838	0.2804	0.6568	-0.16
Mof_H 	H 	0.7388	0.2504	0.6205	0.082
Mof_C 	C 	0.914	0.2011	0.8592	0.524
Mof_C 	C 	0.706	0.6537	0.6339	0.089
Mof_C 	C 	0.5973	0.6629	0.7133	-0.167
Mof_H 	H 	0.5353	0.6145	0.7223	0.086
Mof_C 	C 	0.5785	0.7427	0.78	0.113
Mof_H 	H 	0.5003	0.751	0.8332	-0.026
Mof_C 	C 	0.6724	0.8099	0.7698	-0.199
Mof_C 	C 	0.7818	0.8009	0.6898	0.094
Mof_H 	H 	0.8465	0.8472	0.6819	0.015
Mof_C 	C 	0.797	0.7256	0.6221	-0.158
Mof_H 	H 	0.8694	0.7223	0.5673	0.085
Mof_C 	C 	0.6635	0.8878	0.8425	0.461
Mof_C 	C 	0.6778	0.6259	0.3321	0.096
Mof_C 	C 	0.7201	0.7248	0.3127	-0.17
Mof_H 	H 	0.7699	0.7496	0.3489	0.088
Mof_C 	C 	0.6914	0.7873	0.2422	0.125
Mof_H 	H 	0.7251	0.8526	0.2289	-0.006
Mof_C 	C 	0.6129	0.7555	0.1901	-0.217
Mof_C 	C 	0.5653	0.6593	0.2102	0.112
Mof_H 	H 	0.5097	0.6377	0.1762	-0.004
Mof_C 	C 	0.5989	0.5947	0.2803	-0.162
Mof_H 	H 	0.5675	0.5283	0.293	0.087
Mof_C 	C 	0.583	0.8249	0.1136	0.558
Mof_C 	C 	0.8048	0.357	0.3287	0.09
Mof_C 	C 	0.9036	0.3705	0.2505	-0.158
Mof_H 	H 	0.9467	0.4309	0.2475	0.084
Mof_C 	C 	0.94	0.2968	0.1768	0.102
Mof_H 	H 	0.0106	0.3053	0.1245	-0.004
Mof_C 	C 	0.8734	0.2105	0.1794	-0.218
Mof_C 	C 	0.7759	0.1957	0.2572	0.113
Mof_H 	H 	0.7302	0.137	0.2594	-0.007
Mof_C 	C 	0.7444	0.2663	0.332	-0.166
Mof_H 	H 	0.6815	0.2528	0.3856	0.085
Mof_C 	C 	0.9008	0.1409	0.0975	0.515
_end
