data_functionalizedCrystal
_audit_creation_method	'EQeq! by Chris Wilmer'
_symmetry_space_group_name_H-M	'P1'
_symmetry_Int_Tables_number	1
_symmetry_cell_setting	triclinic
loop_
_symmetry_equiv_pos_as_xyz
  x,y,z
_cell_length_a	10.1916
_cell_length_b	16.422
_cell_length_c	15.5624
_cell_angle_alpha	90
_cell_angle_beta	107.073
_cell_angle_gamma	90
loop_
_atom_site_label
_atom_site_type_symbol
_atom_site_fract_x
_atom_site_fract_y
_atom_site_fract_z
_atom_site_charge
Mof_Zn	Zn	0.51175	0.38804	0.14682	1.235
Mof_Zn	Zn	0.23552	0.29204	0.00155	1.208
Mof_O 	O 	0.3716	0.42089	0.20479	-0.454
Mof_O 	O 	0.6855	0.43216	0.23088	-0.399
Mof_O 	O 	0.3155	0.37515	0.93189	-0.469
Mof_O 	O 	0.4582	0.45172	0.03661	-0.486
Mof_O 	O 	0.4984	0.77088	0.82652	-0.48
Mof_O 	O 	0.201	0.37106	0.09068	-0.515
Mof_O 	O 	0.7271	0.3633	0.11942	-0.334
Mof_O 	O 	0.5974	0.72151	0.9641	-0.489
Mof_O 	O 	0.0947	0.2718	0.8871	-0.469
Mof_H 	H 	0.1624	0.297	0.8782	0.157
Mof_H 	H 	0.0915	0.2843	0.9394	0.021
Mof_C 	C 	0.3906	0.4364	0.9574	0.411
Mof_C 	C 	0.3944	0.4998	0.8878	-0.103
Mof_C 	C 	0.273	0.5294	0.6356	0.03
Mof_C 	C 	0.2475	0.402	0.1654	0.399
Mof_C 	C 	0.4583	0.5746	0.9179	0.035
Mof_H 	H 	0.5005	0.584	0.9787	0.048
Mof_C 	C 	0.1954	0.452	0.3045	-0.02
Mof_H 	H 	0.2884	0.4634	0.3285	0.058
Mof_C 	C 	0.1471	0.4214	0.2171	-0.089
Mof_C 	C 	0.1065	0.4661	0.3567	0.003
Mof_C 	C 	0.0078	0.4047	0.1805	0.006
Mof_H 	H 	0.9755	0.383	0.1229	0.052
Mof_C 	C 	0.9154	0.4206	0.2308	-0.055
Mof_C 	C 	0.331	0.5595	0.572	-0.059
Mof_H 	H 	0.4093	0.5918	0.5905	0.056
Mof_C 	C 	0.7675	0.4035	0.1896	0.291
Mof_C 	C 	0.9679	0.4502	0.3182	-0.032
Mof_H 	H 	0.9078	0.4596	0.352	0.062
Mof_C 	C 	0.3335	0.5451	0.7337	-0.013
Mof_C 	C 	0.2748	0.5427	0.4808	-0.052
Mof_H 	H 	0.3133	0.5658	0.4392	0.056
Mof_C 	C 	0.3941	0.6209	0.7633	-0.01
Mof_H 	H 	0.3922	0.662	0.7219	0.052
Mof_C 	C 	0.3332	0.4859	0.7981	-0.004
Mof_H 	H 	0.2907	0.4361	0.7798	0.048
Mof_C 	C 	0.161	0.4914	0.4512	0.021
Mof_C 	C 	0.5235	0.7156	0.8845	0.376
Mof_C 	C 	0.1562	0.4803	0.6052	-0.059
Mof_H 	H 	0.1152	0.4595	0.6466	0.058
Mof_C 	C 	0.4564	0.6344	0.8537	-0.096
Mof_C 	C 	0.1003	0.4621	0.5151	-0.051
Mof_H 	H 	0.0217	0.4301	0.4967	0.054
Mof_Zn	Zn	0.48825	0.88804	0.85318	1.234
Mof_Zn	Zn	0.76448	0.79204	0.99845	1.206
Mof_O 	O 	0.6284	0.92089	0.79521	-0.454
Mof_O 	O 	0.3145	0.93216	0.76912	-0.398
Mof_O 	O 	0.6845	0.87515	0.06811	-0.468
Mof_O 	O 	0.5418	0.95172	0.96339	-0.486
Mof_O 	O 	0.5016	0.27088	0.17348	-0.48
Mof_O 	O 	0.799	0.87106	0.90932	-0.515
Mof_O 	O 	0.2729	0.8633	0.88058	-0.334
Mof_O 	O 	0.4026	0.22151	0.0359	-0.49
Mof_O 	O 	0.9053	0.7718	0.1129	-0.467
Mof_H 	H 	0.8376	0.797	0.1218	0.157
Mof_H 	H 	0.9085	0.7843	0.0606	0.022
Mof_C 	C 	0.6094	0.9364	0.0426	0.412
Mof_C 	C 	0.6056	0.9998	0.1122	-0.094
Mof_C 	C 	0.727	0.0294	0.3644	0.013
Mof_C 	C 	0.7525	0.902	0.8346	0.399
Mof_C 	C 	0.5417	0.0746	0.0821	0.023
Mof_H 	H 	0.4995	0.084	0.0213	0.05
Mof_C 	C 	0.8046	0.952	0.6955	-0.015
Mof_H 	H 	0.7116	0.9634	0.6715	0.058
Mof_C 	C 	0.8529	0.9214	0.7829	-0.09
Mof_C 	C 	0.8935	0.9661	0.6433	-0.005
Mof_C 	C 	0.9922	0.9047	0.8195	0.007
Mof_H 	H 	0.0245	0.883	0.8771	0.052
Mof_C 	C 	0.0846	0.9206	0.7692	-0.056
Mof_C 	C 	0.669	0.0595	0.428	-0.044
Mof_H 	H 	0.5907	0.0918	0.4095	0.05
Mof_C 	C 	0.2325	0.9035	0.8104	0.291
Mof_C 	C 	0.0321	0.9502	0.6818	-0.028
Mof_H 	H 	0.0922	0.9596	0.648	0.061
Mof_C 	C 	0.6665	0.0451	0.2663	-0.014
Mof_C 	C 	0.7252	0.0427	0.5192	-0.073
Mof_H 	H 	0.6867	0.0658	0.5608	0.061
Mof_C 	C 	0.6059	0.1209	0.2367	-0.014
Mof_H 	H 	0.6078	0.162	0.2781	0.053
Mof_C 	C 	0.6668	0.9859	0.2019	-0.001
Mof_H 	H 	0.7093	0.9361	0.2202	0.049
Mof_C 	C 	0.839	0.9914	0.5488	0.04
Mof_C 	C 	0.4765	0.2156	0.1155	0.374
Mof_C 	C 	0.8438	0.9803	0.3948	-0.037
Mof_H 	H 	0.8848	0.9595	0.3534	0.052
Mof_C 	C 	0.5436	0.1344	0.1463	-0.093
Mof_C 	C 	0.8997	0.9621	0.4849	-0.067
Mof_H 	H 	0.9783	0.9301	0.5033	0.06
_end
