data_functionalizedCrystal
_audit_creation_method	'EQeq! by Chris Wilmer'
_symmetry_space_group_name_H-M	'P1'
_symmetry_Int_Tables_number	1
_symmetry_cell_setting	triclinic
loop_
_symmetry_equiv_pos_as_xyz
  x,y,z
_cell_length_a	18.7806
_cell_length_b	19.9045
_cell_length_c	8.7871
_cell_angle_alpha	90
_cell_angle_beta	100.981
_cell_angle_gamma	90
loop_
_atom_site_label
_atom_site_type_symbol
_atom_site_fract_x
_atom_site_fract_y
_atom_site_fract_z
_atom_site_charge
Mof_C 	C 	0.351	0.3896	0.271	0.1
Mof_H 	H 	0.3455	0.349	0.3197	-0.025
Mof_C 	C 	0.4171	0.4596	0.148	0.127
Mof_H 	H 	0.4586	0.4681	0.1077	-0.027
Mof_C 	C 	0.365	0.5085	0.1326	-0.211
Mof_H 	H 	0.3719	0.5489	0.0841	0.106
Mof_C 	C 	0.3025	0.498	0.1889	0.148
Mof_C 	C 	0.296	0.4367	0.2563	-0.203
Mof_H 	H 	0.2539	0.4267	0.2928	0.09
Mof_C 	C 	0.2431	0.5906	0.3073	-0.181
Mof_H 	H 	0.2903	0.6118	0.3341	0.082
Mof_H 	H 	0.2377	0.5614	0.3927	0.079
Mof_C 	C 	0.0833	0.7057	0.1572	0.115
Mof_H 	H 	0.0487	0.7118	0.0673	-0.046
Mof_C 	C 	0.1338	0.6553	0.1583	-0.208
Mof_H 	H 	0.1334	0.6289	0.0709	0.091
Mof_C 	C 	0.1813	0.686	0.4181	-0.219
Mof_H 	H 	0.2136	0.6803	0.5115	0.1
Mof_C 	C 	0.1299	0.7347	0.4051	0.118
Mof_H 	H 	0.1285	0.7617	0.4908	-0.033
Mof_C 	C 	0.9983	0.8479	0.881	0.206
Mof_C 	C 	0.2423	0.5491	0.1701	-0.159
Mof_H 	H 	0.246	0.5781	0.0832	0.068
Mof_H 	H 	0.1961	0.5259	0.1455	0.064
Mof_C 	C 	0.1861	0.6446	0.2939	0.148
Mof_N 	N 	0.0811	0.7457	0.2752	-0.277
Mof_N 	N 	0.4124	0.4012	0.2164	-0.261
Mof_N 	N 	0.9976	0.8325	0.0036	-0.278
Mof_N 	N 	0.014	0.8749	0.755	-0.399
Mof_C 	C 	0.851	0.8896	0.271	0.099
Mof_H 	H 	0.8455	0.849	0.3197	-0.023
Mof_C 	C 	0.9171	0.9596	0.148	0.122
Mof_H 	H 	0.9586	0.9681	0.1077	-0.013
Mof_C 	C 	0.865	0.0085	0.1326	-0.207
Mof_H 	H 	0.8719	0.0489	0.0841	0.102
Mof_C 	C 	0.8025	0.998	0.1889	0.145
Mof_C 	C 	0.796	0.9367	0.2563	-0.202
Mof_H 	H 	0.7539	0.9267	0.2928	0.09
Mof_C 	C 	0.7431	0.0906	0.3073	-0.178
Mof_H 	H 	0.7903	0.1118	0.3341	0.08
Mof_H 	H 	0.7377	0.0614	0.3927	0.08
Mof_C 	C 	0.5833	0.2057	0.1572	0.117
Mof_H 	H 	0.5487	0.2118	0.0673	-0.033
Mof_C 	C 	0.6338	0.1553	0.1583	-0.204
Mof_H 	H 	0.6334	0.1289	0.0709	0.095
Mof_C 	C 	0.6813	0.186	0.4181	-0.217
Mof_H 	H 	0.7136	0.1803	0.5115	0.1
Mof_C 	C 	0.6299	0.2347	0.4051	0.122
Mof_H 	H 	0.6285	0.2617	0.4908	-0.032
Mof_C 	C 	0.4983	0.3479	0.881	0.18
Mof_C 	C 	0.7423	0.0491	0.1701	-0.162
Mof_H 	H 	0.746	0.0781	0.0832	0.069
Mof_H 	H 	0.6961	0.0259	0.1455	0.069
Mof_C 	C 	0.6861	0.1446	0.2939	0.149
Mof_N 	N 	0.5811	0.2457	0.2752	-0.27
Mof_N 	N 	0.9124	0.9012	0.2164	-0.251
Mof_N 	N 	0.4976	0.3325	0.0036	-0.291
Mof_N 	N 	0.514	0.3749	0.755	-0.102
Mof_C 	C 	0.649	0.3896	0.229	0.102
Mof_H 	H 	0.6545	0.349	0.1803	-0.026
Mof_C 	C 	0.5829	0.4596	0.352	0.129
Mof_H 	H 	0.5414	0.4681	0.3923	-0.029
Mof_C 	C 	0.635	0.5085	0.3674	-0.218
Mof_H 	H 	0.6281	0.5489	0.4159	0.107
Mof_C 	C 	0.6975	0.498	0.3111	0.155
Mof_C 	C 	0.704	0.4367	0.2437	-0.209
Mof_H 	H 	0.7461	0.4267	0.2072	0.095
Mof_C 	C 	0.7569	0.5906	0.1927	-0.171
Mof_H 	H 	0.7097	0.6118	0.1659	0.079
Mof_H 	H 	0.7623	0.5614	0.1073	0.08
Mof_C 	C 	0.9167	0.7057	0.3428	0.118
Mof_H 	H 	0.9513	0.7118	0.4327	-0.019
Mof_C 	C 	0.8662	0.6553	0.3417	-0.198
Mof_H 	H 	0.8666	0.6289	0.4291	0.097
Mof_C 	C 	0.8187	0.686	0.0819	-0.209
Mof_H 	H 	0.7864	0.6803	0.9885	0.097
Mof_C 	C 	0.8701	0.7347	0.0949	0.122
Mof_H 	H 	0.8715	0.7617	0.0092	-0.029
Mof_C 	C 	0.0017	0.8479	0.619	0.155
Mof_C 	C 	0.7577	0.5491	0.3299	-0.172
Mof_H 	H 	0.754	0.5781	0.4168	0.073
Mof_H 	H 	0.8039	0.5259	0.3545	0.075
Mof_C 	C 	0.8139	0.6446	0.2061	0.146
Mof_N 	N 	0.9189	0.7457	0.2248	-0.26
Mof_N 	N 	0.5876	0.4012	0.2836	-0.262
Mof_N 	N 	0.0024	0.8325	0.4964	-0.3
Mof_N 	N 	0.986	0.8749	0.745	0.195
Mof_C 	C 	0.149	0.8896	0.229	0.1
Mof_H 	H 	0.1545	0.849	0.1803	-0.028
Mof_C 	C 	0.0829	0.9596	0.352	0.129
Mof_H 	H 	0.0414	0.9681	0.3923	-0.041
Mof_C 	C 	0.135	0.0085	0.3674	-0.217
Mof_H 	H 	0.1281	0.0489	0.4159	0.108
Mof_C 	C 	0.1975	0.998	0.3111	0.152
Mof_C 	C 	0.204	0.9367	0.2437	-0.207
Mof_H 	H 	0.2461	0.9267	0.2072	0.092
Mof_C 	C 	0.2569	0.0906	0.1927	-0.178
Mof_H 	H 	0.2097	0.1118	0.1659	0.083
Mof_H 	H 	0.2623	0.0614	0.1073	0.08
Mof_C 	C 	0.4167	0.2057	0.3428	0.117
Mof_H 	H 	0.4513	0.2118	0.4327	-0.033
Mof_C 	C 	0.3662	0.1553	0.3417	-0.204
Mof_H 	H 	0.3666	0.1289	0.4291	0.094
Mof_C 	C 	0.3187	0.186	0.0819	-0.215
Mof_H 	H 	0.2864	0.1803	0.9885	0.099
Mof_C 	C 	0.3701	0.2347	0.0949	0.12
Mof_H 	H 	0.3715	0.2617	0.0092	-0.032
Mof_C 	C 	0.5017	0.3479	0.619	0.182
Mof_C 	C 	0.2577	0.0491	0.3299	-0.163
Mof_H 	H 	0.254	0.0781	0.4168	0.07
Mof_H 	H 	0.3039	0.0259	0.3545	0.069
Mof_C 	C 	0.3139	0.1446	0.2061	0.148
Mof_N 	N 	0.4189	0.2457	0.2248	-0.27
Mof_N 	N 	0.0876	0.9012	0.2836	-0.268
Mof_N 	N 	0.5024	0.3325	0.4964	-0.292
Mof_N 	N 	0.486	0.3749	0.745	-0.102
Mof_Zn	Zn	4.40696e-18	0.82488	0.25	1.166
Mof_Zn	Zn	0.5	0.32488	0.25	1.18
Mof_C 	C 	0.649	0.6104	0.729	0.102
Mof_H 	H 	0.6545	0.651	0.6803	-0.026
Mof_C 	C 	0.5829	0.5404	0.852	0.128
Mof_H 	H 	0.5414	0.5319	0.8923	-0.029
Mof_C 	C 	0.635	0.4915	0.8674	-0.217
Mof_H 	H 	0.6281	0.4511	0.9159	0.106
Mof_C 	C 	0.6975	0.502	0.8111	0.154
Mof_C 	C 	0.704	0.5633	0.7437	-0.208
Mof_H 	H 	0.7461	0.5733	0.7072	0.094
Mof_C 	C 	0.7569	0.4094	0.6927	-0.174
Mof_H 	H 	0.7097	0.3882	0.6659	0.08
Mof_H 	H 	0.7623	0.4386	0.6073	0.08
Mof_C 	C 	0.9167	0.2943	0.8428	0.118
Mof_H 	H 	0.9513	0.2882	0.9327	-0.02
Mof_C 	C 	0.8662	0.3447	0.8417	-0.2
Mof_H 	H 	0.8666	0.3711	0.9291	0.097
Mof_C 	C 	0.8187	0.314	0.5819	-0.215
Mof_H 	H 	0.7864	0.3197	0.4885	0.101
Mof_C 	C 	0.8701	0.2653	0.5949	0.125
Mof_H 	H 	0.8715	0.2383	0.5092	-0.031
Mof_C 	C 	0.0017	0.1521	0.119	0.156
Mof_C 	C 	0.7577	0.4509	0.8299	-0.169
Mof_H 	H 	0.754	0.4219	0.9168	0.072
Mof_H 	H 	0.8039	0.4741	0.8545	0.074
Mof_C 	C 	0.8139	0.3554	0.7061	0.149
Mof_N 	N 	0.9189	0.2543	0.7248	-0.261
Mof_N 	N 	0.5876	0.5988	0.7836	-0.262
Mof_N 	N 	0.0024	0.1675	0.9964	-0.3
Mof_N 	N 	0.986	0.1251	0.245	0.204
Mof_C 	C 	0.149	0.1104	0.729	0.099
Mof_H 	H 	0.1545	0.151	0.6803	-0.027
Mof_C 	C 	0.0829	0.0404	0.852	0.129
Mof_H 	H 	0.0414	0.0319	0.8923	-0.041
Mof_C 	C 	0.135	0.9915	0.8674	-0.216
Mof_H 	H 	0.1281	0.9511	0.9159	0.108
Mof_C 	C 	0.1975	0.002	0.8111	0.15
Mof_C 	C 	0.204	0.0633	0.7437	-0.206
Mof_H 	H 	0.2461	0.0733	0.7072	0.091
Mof_C 	C 	0.2569	0.9094	0.6927	-0.18
Mof_H 	H 	0.2097	0.8882	0.6659	0.083
Mof_H 	H 	0.2623	0.9386	0.6073	0.08
Mof_C 	C 	0.4167	0.7943	0.8428	0.117
Mof_H 	H 	0.4513	0.7882	0.9327	-0.034
Mof_C 	C 	0.3662	0.8447	0.8417	-0.205
Mof_H 	H 	0.3666	0.8711	0.9291	0.094
Mof_C 	C 	0.3187	0.814	0.5819	-0.218
Mof_H 	H 	0.2864	0.8197	0.4885	0.101
Mof_C 	C 	0.3701	0.7653	0.5949	0.122
Mof_H 	H 	0.3715	0.7383	0.5092	-0.032
Mof_C 	C 	0.5017	0.6521	0.119	0.183
Mof_C 	C 	0.2577	0.9509	0.8299	-0.162
Mof_H 	H 	0.254	0.9219	0.9168	0.07
Mof_H 	H 	0.3039	0.9741	0.8545	0.068
Mof_C 	C 	0.3139	0.8554	0.7061	0.15
Mof_N 	N 	0.4189	0.7543	0.7248	-0.27
Mof_N 	N 	0.0876	0.0988	0.7836	-0.267
Mof_N 	N 	0.5024	0.6675	0.9964	-0.293
Mof_N 	N 	0.486	0.6251	0.245	-0.102
Mof_C 	C 	0.351	0.6104	0.771	0.099
Mof_H 	H 	0.3455	0.651	0.8197	-0.026
Mof_C 	C 	0.4171	0.5404	0.648	0.126
Mof_H 	H 	0.4586	0.5319	0.6077	-0.028
Mof_C 	C 	0.365	0.4915	0.6326	-0.212
Mof_H 	H 	0.3719	0.4511	0.5841	0.105
Mof_C 	C 	0.3025	0.502	0.6889	0.147
Mof_C 	C 	0.296	0.5633	0.7563	-0.203
Mof_H 	H 	0.2539	0.5733	0.7928	0.089
Mof_C 	C 	0.2431	0.4094	0.8073	-0.181
Mof_H 	H 	0.2903	0.3882	0.8341	0.082
Mof_H 	H 	0.2377	0.4386	0.8927	0.079
Mof_C 	C 	0.0833	0.2943	0.6572	0.115
Mof_H 	H 	0.0487	0.2882	0.5673	-0.046
Mof_C 	C 	0.1338	0.3447	0.6583	-0.209
Mof_H 	H 	0.1334	0.3711	0.5709	0.091
Mof_C 	C 	0.1813	0.314	0.9181	-0.221
Mof_H 	H 	0.2136	0.3197	0.0115	0.101
Mof_C 	C 	0.1299	0.2653	0.9051	0.119
Mof_H 	H 	0.1285	0.2383	0.9908	-0.034
Mof_C 	C 	0.9983	0.1521	0.381	0.21
Mof_C 	C 	0.2423	0.4509	0.6701	-0.159
Mof_H 	H 	0.246	0.4219	0.5832	0.067
Mof_H 	H 	0.1961	0.4741	0.6455	0.064
Mof_C 	C 	0.1861	0.3554	0.7939	0.149
Mof_N 	N 	0.0811	0.2543	0.7752	-0.277
Mof_N 	N 	0.4124	0.5988	0.7164	-0.261
Mof_N 	N 	0.9976	0.1675	0.5036	-0.28
Mof_N 	N 	0.014	0.1251	0.255	-0.408
Mof_C 	C 	0.851	0.1104	0.771	0.099
Mof_H 	H 	0.8455	0.151	0.8197	-0.024
Mof_C 	C 	0.9171	0.0404	0.648	0.123
Mof_H 	H 	0.9586	0.0319	0.6077	-0.014
Mof_C 	C 	0.865	0.9915	0.6326	-0.209
Mof_H 	H 	0.8719	0.9511	0.5841	0.102
Mof_C 	C 	0.8025	0.002	0.6889	0.146
Mof_C 	C 	0.796	0.0633	0.7563	-0.203
Mof_H 	H 	0.7539	0.0733	0.7928	0.09
Mof_C 	C 	0.7431	0.9094	0.8073	-0.178
Mof_H 	H 	0.7903	0.8882	0.8341	0.079
Mof_H 	H 	0.7377	0.9386	0.8927	0.079
Mof_C 	C 	0.5833	0.7943	0.6572	0.117
Mof_H 	H 	0.5487	0.7882	0.5673	-0.033
Mof_C 	C 	0.6338	0.8447	0.6583	-0.205
Mof_H 	H 	0.6334	0.8711	0.5709	0.094
Mof_C 	C 	0.6813	0.814	0.9181	-0.221
Mof_H 	H 	0.7136	0.8197	0.0115	0.102
Mof_C 	C 	0.6299	0.7653	0.9051	0.123
Mof_H 	H 	0.6285	0.7383	0.9908	-0.033
Mof_C 	C 	0.4983	0.6521	0.381	0.182
Mof_C 	C 	0.7423	0.9509	0.6701	-0.163
Mof_H 	H 	0.746	0.9219	0.5832	0.069
Mof_H 	H 	0.6961	0.9741	0.6455	0.069
Mof_C 	C 	0.6861	0.8554	0.7939	0.15
Mof_N 	N 	0.5811	0.7543	0.7752	-0.271
Mof_N 	N 	0.9124	0.0988	0.7164	-0.252
Mof_N 	N 	0.4976	0.6675	0.5036	-0.292
Mof_N 	N 	0.514	0.6251	0.255	-0.102
Mof_Zn	Zn	1.76278e-17	0.17512	0.75	1.167
Mof_Zn	Zn	0.5	0.67512	0.75	1.18
_end
