data_functionalizedCrystal
_audit_creation_method	'EQeq! by Chris Wilmer'
_symmetry_space_group_name_H-M	'P1'
_symmetry_Int_Tables_number	1
_symmetry_cell_setting	triclinic
loop_
_symmetry_equiv_pos_as_xyz
  x,y,z
_cell_length_a	24.673
_cell_length_b	24.911
_cell_length_c	9.3725
_cell_angle_alpha	90
_cell_angle_beta	90
_cell_angle_gamma	90
loop_
_atom_site_label
_atom_site_type_symbol
_atom_site_fract_x
_atom_site_fract_y
_atom_site_fract_z
_atom_site_charge
Mof_Zn	Zn	0.79174	0.80232	0.8888	1.207
Mof_Zn	Zn	0.50932	0.06104	0.63272	1.201
Mof_O 	O 	0.5839	0.0421	0.6041	-0.436
Mof_O 	O 	0.5178	0.1192	0.5013	-0.461
Mof_O 	O 	0.7503	0.8615	0.794	-0.463
Mof_O 	O 	0.6816	0.8488	0.9486	-0.499
Mof_O 	O 	0.3094	0.251	0.3067	-0.379
Mof_O 	O 	0.3699	0.2852	0.1694	-0.416
Mof_N 	N 	0.4941	0.9968	0.7424	-0.285
Mof_N 	N 	0.4322	0.0724	0.655	-0.283
Mof_C 	C 	0.4039	0.1088	0.5915	0.087
Mof_H 	H 	0.367	0.1099	0.6111	0.008
Mof_C 	C 	0.424	0.1467	0.4963	-0.175
Mof_C 	C 	0.3862	0.1815	0.4301	0.085
Mof_H 	H 	0.3497	0.1781	0.4531	0.03
Mof_C 	C 	0.4015	0.2201	0.3329	-0.151
Mof_C 	C 	0.4553	0.2235	0.2918	0.139
Mof_H 	H 	0.4658	0.2483	0.2229	-0.005
Mof_C 	C 	0.4926	0.1907	0.3521	-0.263
Mof_H 	H 	0.5286	0.1949	0.3246	0.13
Mof_C 	C 	0.4806	0.1505	0.4544	0.28
Mof_C 	C 	0.3569	0.2532	0.2672	0.34
Mof_C 	C 	0.5297	0.9633	0.7844	0.049
Mof_H 	H 	0.5174	0.9358	0.8432	0.004
Mof_C 	C 	0.5857	0.9628	0.7521	-0.155
Mof_C 	C 	0.6193	0.9221	0.8059	0.051
Mof_H 	H 	0.6038	0.8969	0.8667	0.02
Mof_C 	C 	0.6727	0.9169	0.7755	-0.131
Mof_C 	C 	0.6963	0.9544	0.6874	0.019
Mof_H 	H 	0.733	0.9511	0.6661	0.034
Mof_C 	C 	0.6669	0.9979	0.6276	-0.074
Mof_C 	C 	0.6102	0.0018	0.6615	0.184
Mof_C 	C 	0.704	0.8727	0.8455	0.375
Mof_C 	C 	0.4082	0.0387	0.767	-0.045
Mof_H 	H 	0.4197	0.0531	0.8595	0.025
Mof_C 	C 	0.3283	0.9956	0.8961	-0.084
Mof_H 	H 	0.3402	0.0105	0.9864	0.026
Mof_H 	H 	0.2893	0.9909	0.8987	-0.05
Mof_C 	C 	0.3573	0.9415	0.8652	-0.065
Mof_H 	H 	0.3474	0.9294	0.7703	0.034
Mof_H 	H 	0.3446	0.9148	0.9328	0.022
Mof_C 	C 	0.4351	0.9827	0.7477	0.007
Mof_H 	H 	0.4237	0.9665	0.6573	0.01
Mof_C 	C 	0.3451	0.0325	0.7701	-0.056
Mof_H 	H 	0.3284	0.0675	0.7811	0.037
Mof_H 	H 	0.3327	0.0171	0.6808	0.047
Mof_C 	C 	0.4201	0.9453	0.875	-0.017
Mof_H 	H 	0.4368	0.9103	0.8646	-0.007
Mof_H 	H 	0.4313	0.9609	0.9652	0.017
Mof_C 	C 	0.3628	0.9654	0.9419	-0.045
Mof_H 	H 	0.3487	0.9335	0.9883	0.021
Mof_H 	H 	0.3695	0.9929	0.013	0.053
Mof_C 	C 	0.4421	0.007	0.8251	-0.031
Mof_H 	H 	0.4598	0.023	0.9066	0.006
Mof_C 	C 	0.4008	0.0207	0.7075	0.051
Mof_H 	H 	0.41	0.9889	0.655	-0.006
Mof_C 	C 	0.3247	0.9854	0.8245	0.033
Mof_H 	H 	0.2877	0.9893	0.8578	0.079
Mof_H 	H 	0.3255	0.9625	0.7407	0.003
Mof_C 	C 	0.3522	0.0398	0.798	-0.073
Mof_H 	H 	0.3637	0.0566	0.8865	0.049
Mof_H 	H 	0.3289	0.0642	0.7458	0.026
Mof_C 	C 	0.4142	0.9528	0.854	-0.104
Mof_H 	H 	0.4381	0.9293	0.9078	0.051
Mof_H 	H 	0.4046	0.9353	0.7655	0.067
Mof_Zn	Zn	0.70826	0.69768	0.8888	1.206
Mof_Zn	Zn	0.99068	0.43896	0.63272	1.2
Mof_O 	O 	0.9161	0.4579	0.6041	-0.437
Mof_O 	O 	0.9822	0.3808	0.5013	-0.462
Mof_O 	O 	0.7497	0.6385	0.794	-0.464
Mof_O 	O 	0.8184	0.6512	0.9486	-0.5
Mof_O 	O 	0.1906	0.249	0.3067	-0.38
Mof_O 	O 	0.1301	0.2148	0.1694	-0.417
Mof_N 	N 	0.0059	0.5032	0.7424	-0.286
Mof_N 	N 	0.0678	0.4276	0.655	-0.284
Mof_C 	C 	0.0961	0.3912	0.5915	0.087
Mof_H 	H 	0.133	0.3901	0.6111	0.008
Mof_C 	C 	0.076	0.3533	0.4963	-0.175
Mof_C 	C 	0.1138	0.3185	0.4301	0.084
Mof_H 	H 	0.1503	0.3219	0.4531	0.03
Mof_C 	C 	0.0985	0.2799	0.3329	-0.151
Mof_C 	C 	0.0447	0.2765	0.2918	0.138
Mof_H 	H 	0.0342	0.2517	0.2229	-0.004
Mof_C 	C 	0.0074	0.3093	0.3521	-0.261
Mof_H 	H 	0.9714	0.3051	0.3246	0.13
Mof_C 	C 	0.0194	0.3495	0.4544	0.28
Mof_C 	C 	0.1431	0.2468	0.2672	0.339
Mof_C 	C 	0.9703	0.5367	0.7844	0.049
Mof_H 	H 	0.9826	0.5642	0.8432	0.005
Mof_C 	C 	0.9143	0.5372	0.7521	-0.156
Mof_C 	C 	0.8807	0.5779	0.8059	0.051
Mof_H 	H 	0.8962	0.6031	0.8667	0.019
Mof_C 	C 	0.8273	0.5831	0.7755	-0.132
Mof_C 	C 	0.8037	0.5456	0.6874	0.019
Mof_H 	H 	0.767	0.5489	0.6661	0.034
Mof_C 	C 	0.8331	0.5021	0.6276	-0.075
Mof_C 	C 	0.8898	0.4982	0.6615	0.185
Mof_C 	C 	0.796	0.6273	0.8455	0.375
Mof_C 	C 	0.0918	0.4613	0.767	-0.046
Mof_H 	H 	0.0803	0.4469	0.8595	0.026
Mof_C 	C 	0.1717	0.5044	0.8961	-0.083
Mof_H 	H 	0.1598	0.4895	0.9864	0.025
Mof_H 	H 	0.2107	0.5091	0.8987	-0.049
Mof_C 	C 	0.1427	0.5585	0.8652	-0.066
Mof_H 	H 	0.1526	0.5706	0.7703	0.034
Mof_H 	H 	0.1554	0.5852	0.9328	0.023
Mof_C 	C 	0.0649	0.5173	0.7477	0.009
Mof_H 	H 	0.0763	0.5335	0.6573	0.01
Mof_C 	C 	0.1549	0.4675	0.7701	-0.056
Mof_H 	H 	0.1716	0.4325	0.7811	0.037
Mof_H 	H 	0.1673	0.4829	0.6808	0.047
Mof_C 	C 	0.0799	0.5547	0.875	-0.017
Mof_H 	H 	0.0632	0.5897	0.8646	-0.007
Mof_H 	H 	0.0687	0.5391	0.9652	0.017
Mof_C 	C 	0.1372	0.5346	0.9419	-0.045
Mof_H 	H 	0.1513	0.5665	0.9883	0.02
Mof_H 	H 	0.1305	0.5071	0.013	0.054
Mof_C 	C 	0.0579	0.493	0.8251	-0.033
Mof_H 	H 	0.0402	0.477	0.9066	0.007
Mof_C 	C 	0.0992	0.4793	0.7075	0.053
Mof_H 	H 	0.09	0.5111	0.655	-0.006
Mof_C 	C 	0.1753	0.5146	0.8245	0.033
Mof_H 	H 	0.2123	0.5107	0.8578	0.077
Mof_H 	H 	0.1745	0.5375	0.7407	0.003
Mof_C 	C 	0.1478	0.4602	0.798	-0.073
Mof_H 	H 	0.1363	0.4434	0.8865	0.049
Mof_H 	H 	0.1711	0.4358	0.7458	0.026
Mof_C 	C 	0.0858	0.5472	0.854	-0.103
Mof_H 	H 	0.0619	0.5707	0.9078	0.05
Mof_H 	H 	0.0954	0.5647	0.7655	0.067
Mof_Zn	Zn	0.70826	0.80232	0.1112	1.217
Mof_Zn	Zn	0.99068	0.06104	0.36728	1.202
Mof_O 	O 	0.9161	0.0421	0.3959	-0.434
Mof_O 	O 	0.9822	0.1192	0.4987	-0.461
Mof_O 	O 	0.7497	0.8615	0.206	-0.454
Mof_O 	O 	0.8184	0.8488	0.0514	-0.471
Mof_O 	O 	0.1906	0.251	0.6933	-0.384
Mof_O 	O 	0.1301	0.2852	0.8306	-0.435
Mof_N 	N 	0.0059	0.9968	0.2576	-0.288
Mof_N 	N 	0.0678	0.0724	0.345	-0.28
Mof_C 	C 	0.0961	0.1088	0.4085	0.089
Mof_H 	H 	0.133	0.1099	0.3889	0.008
Mof_C 	C 	0.076	0.1467	0.5037	-0.175
Mof_C 	C 	0.1138	0.1815	0.5699	0.087
Mof_H 	H 	0.1503	0.1781	0.5469	0.029
Mof_C 	C 	0.0985	0.2201	0.6671	-0.157
Mof_C 	C 	0.0447	0.2235	0.7082	0.141
Mof_H 	H 	0.0342	0.2483	0.7771	-0.014
Mof_C 	C 	0.0074	0.1907	0.6479	-0.265
Mof_H 	H 	0.9714	0.1949	0.6754	0.127
Mof_C 	C 	0.0194	0.1505	0.5456	0.282
Mof_C 	C 	0.1431	0.2532	0.7328	0.343
Mof_C 	C 	0.9703	0.9633	0.2156	0.053
Mof_H 	H 	0.9826	0.9358	0.1568	0.012
Mof_C 	C 	0.9143	0.9628	0.2479	-0.145
Mof_C 	C 	0.8807	0.9221	0.1941	0.048
Mof_H 	H 	0.8962	0.8969	0.1333	0.032
Mof_C 	C 	0.8273	0.9169	0.2245	-0.119
Mof_C 	C 	0.8037	0.9544	0.3126	0.017
Mof_H 	H 	0.767	0.9511	0.3339	0.039
Mof_C 	C 	0.8331	0.9979	0.3724	-0.067
Mof_C 	C 	0.8898	0.0018	0.3385	0.183
Mof_C 	C 	0.796	0.8727	0.1545	0.373
Mof_C 	C 	0.0918	0.0387	0.233	-0.078
Mof_H 	H 	0.0803	0.0531	0.1405	0.053
Mof_C 	C 	0.1717	0.9956	0.1039	-0.019
Mof_H 	H 	0.1598	0.0105	0.0136	0.047
Mof_H 	H 	0.2107	0.9909	0.1013	0.067
Mof_C 	C 	0.1427	0.9415	0.1348	0.045
Mof_H 	H 	0.1526	0.9294	0.2297	-0.003
Mof_H 	H 	0.1554	0.9148	0.0672	-0.015
Mof_C 	C 	0.0649	0.9827	0.2523	0.112
Mof_H 	H 	0.0763	0.9665	0.3427	-0.013
Mof_C 	C 	0.1549	0.0325	0.2299	-0.053
Mof_H 	H 	0.1716	0.0675	0.2189	0.032
Mof_H 	H 	0.1673	0.0171	0.3192	0.05
Mof_C 	C 	0.0799	0.9453	0.125	-0.04
Mof_H 	H 	0.0632	0.9103	0.1354	-0.003
Mof_H 	H 	0.0687	0.9609	0.0348	0.046
Mof_C 	C 	0.1372	0.9654	0.0581	-0.083
Mof_H 	H 	0.1513	0.9335	0.0117	0.052
Mof_H 	H 	0.1305	0.9929	0.987	0.007
Mof_C 	C 	0.0579	0.007	0.1749	-0.12
Mof_H 	H 	0.0402	0.023	0.0934	0.049
Mof_C 	C 	0.0992	0.0207	0.2925	0.079
Mof_H 	H 	0.09	0.9889	0.345	-0.026
Mof_C 	C 	0.1753	0.9854	0.1755	-0.066
Mof_H 	H 	0.2123	0.9893	0.1422	-0.019
Mof_H 	H 	0.1745	0.9625	0.2593	0.044
Mof_C 	C 	0.1478	0.0398	0.202	-0.056
Mof_H 	H 	0.1363	0.0566	0.1135	0.053
Mof_H 	H 	0.1711	0.0642	0.2542	0.028
Mof_C 	C 	0.0858	0.9528	0.146	-0.133
Mof_H 	H 	0.0619	0.9293	0.0922	0.069
Mof_H 	H 	0.0954	0.9353	0.2345	0.067
Mof_Zn	Zn	0.79174	0.69768	0.1112	1.217
Mof_Zn	Zn	0.50932	0.43896	0.36728	1.202
Mof_O 	O 	0.5839	0.4579	0.3959	-0.434
Mof_O 	O 	0.5178	0.3808	0.4987	-0.46
Mof_O 	O 	0.7503	0.6385	0.206	-0.454
Mof_O 	O 	0.6816	0.6512	0.0514	-0.471
Mof_O 	O 	0.3094	0.249	0.6933	-0.384
Mof_O 	O 	0.3699	0.2148	0.8306	-0.435
Mof_N 	N 	0.4941	0.5032	0.2576	-0.288
Mof_N 	N 	0.4322	0.4276	0.345	-0.28
Mof_C 	C 	0.4039	0.3912	0.4085	0.088
Mof_H 	H 	0.367	0.3901	0.3889	0.009
Mof_C 	C 	0.424	0.3533	0.5037	-0.175
Mof_C 	C 	0.3862	0.3185	0.5699	0.087
Mof_H 	H 	0.3497	0.3219	0.5469	0.029
Mof_C 	C 	0.4015	0.2799	0.6671	-0.157
Mof_C 	C 	0.4553	0.2765	0.7082	0.142
Mof_H 	H 	0.4658	0.2517	0.7771	-0.014
Mof_C 	C 	0.4926	0.3093	0.6479	-0.267
Mof_H 	H 	0.5286	0.3051	0.6754	0.128
Mof_C 	C 	0.4806	0.3495	0.5456	0.282
Mof_C 	C 	0.3569	0.2468	0.7328	0.343
Mof_C 	C 	0.5297	0.5367	0.2156	0.052
Mof_H 	H 	0.5174	0.5642	0.1568	0.011
Mof_C 	C 	0.5857	0.5372	0.2479	-0.146
Mof_C 	C 	0.6193	0.5779	0.1941	0.048
Mof_H 	H 	0.6038	0.6031	0.1333	0.031
Mof_C 	C 	0.6727	0.5831	0.2245	-0.119
Mof_C 	C 	0.6963	0.5456	0.3126	0.018
Mof_H 	H 	0.733	0.5489	0.3339	0.038
Mof_C 	C 	0.6669	0.5021	0.3724	-0.068
Mof_C 	C 	0.6102	0.4982	0.3385	0.185
Mof_C 	C 	0.704	0.6273	0.1545	0.373
Mof_C 	C 	0.4082	0.4613	0.233	-0.087
Mof_H 	H 	0.4197	0.4469	0.1405	0.058
Mof_C 	C 	0.3283	0.5044	0.1039	-0.016
Mof_H 	H 	0.3402	0.4895	0.0136	0.045
Mof_H 	H 	0.2893	0.5091	0.1013	0.071
Mof_C 	C 	0.3573	0.5585	0.1348	0.043
Mof_H 	H 	0.3474	0.5706	0.2297	-0.002
Mof_H 	H 	0.3446	0.5852	0.0672	-0.014
Mof_C 	C 	0.4351	0.5173	0.2523	0.131
Mof_H 	H 	0.4237	0.5335	0.3427	-0.016
Mof_C 	C 	0.3451	0.4675	0.2299	-0.053
Mof_H 	H 	0.3284	0.4325	0.2189	0.032
Mof_H 	H 	0.3327	0.4829	0.3192	0.05
Mof_C 	C 	0.4201	0.5547	0.125	-0.041
Mof_H 	H 	0.4368	0.5897	0.1354	-0.003
Mof_H 	H 	0.4313	0.5391	0.0348	0.047
Mof_C 	C 	0.3628	0.5346	0.0581	-0.081
Mof_H 	H 	0.3487	0.5665	0.0117	0.052
Mof_H 	H 	0.3695	0.5071	0.987	0.007
Mof_C 	C 	0.4421	0.493	0.1749	-0.139
Mof_H 	H 	0.4598	0.477	0.0934	0.055
Mof_C 	C 	0.4008	0.4793	0.2925	0.089
Mof_H 	H 	0.41	0.5111	0.345	-0.031
Mof_C 	C 	0.3247	0.5146	0.1755	-0.069
Mof_H 	H 	0.2877	0.5107	0.1422	-0.024
Mof_H 	H 	0.3255	0.5375	0.2593	0.045
Mof_C 	C 	0.3522	0.4602	0.202	-0.057
Mof_H 	H 	0.3637	0.4434	0.1135	0.053
Mof_H 	H 	0.3289	0.4358	0.2542	0.028
Mof_C 	C 	0.4142	0.5472	0.146	-0.133
Mof_H 	H 	0.4381	0.5707	0.0922	0.069
Mof_H 	H 	0.4046	0.5647	0.2345	0.066
Mof_Zn	Zn	0.20826	0.19768	0.1112	1.217
Mof_Zn	Zn	0.49068	0.93896	0.36728	1.202
Mof_O 	O 	0.4161	0.9579	0.3959	-0.434
Mof_O 	O 	0.4822	0.8808	0.4987	-0.46
Mof_O 	O 	0.2497	0.1385	0.206	-0.454
Mof_O 	O 	0.3184	0.1512	0.0514	-0.471
Mof_O 	O 	0.6906	0.749	0.6933	-0.384
Mof_O 	O 	0.6301	0.7148	0.8306	-0.435
Mof_N 	N 	0.5059	0.0032	0.2576	-0.288
Mof_N 	N 	0.5678	0.9276	0.345	-0.28
Mof_C 	C 	0.5961	0.8912	0.4085	0.088
Mof_H 	H 	0.633	0.8901	0.3889	0.009
Mof_C 	C 	0.576	0.8533	0.5037	-0.175
Mof_C 	C 	0.6138	0.8185	0.5699	0.087
Mof_H 	H 	0.6503	0.8219	0.5469	0.029
Mof_C 	C 	0.5985	0.7799	0.6671	-0.157
Mof_C 	C 	0.5447	0.7765	0.7082	0.142
Mof_H 	H 	0.5342	0.7517	0.7771	-0.014
Mof_C 	C 	0.5074	0.8093	0.6479	-0.267
Mof_H 	H 	0.4714	0.8051	0.6754	0.128
Mof_C 	C 	0.5194	0.8495	0.5456	0.282
Mof_C 	C 	0.6431	0.7468	0.7328	0.343
Mof_C 	C 	0.4703	0.0367	0.2156	0.052
Mof_H 	H 	0.4826	0.0642	0.1568	0.011
Mof_C 	C 	0.4143	0.0372	0.2479	-0.146
Mof_C 	C 	0.3807	0.0779	0.1941	0.048
Mof_H 	H 	0.3962	0.1031	0.1333	0.031
Mof_C 	C 	0.3273	0.0831	0.2245	-0.119
Mof_C 	C 	0.3037	0.0456	0.3126	0.017
Mof_H 	H 	0.267	0.0489	0.3339	0.038
Mof_C 	C 	0.3331	0.0021	0.3724	-0.068
Mof_C 	C 	0.3898	0.9982	0.3385	0.184
Mof_C 	C 	0.296	0.1273	0.1545	0.373
Mof_C 	C 	0.5918	0.9613	0.233	-0.085
Mof_H 	H 	0.5803	0.9469	0.1405	0.057
Mof_C 	C 	0.6717	0.0044	0.1039	-0.017
Mof_H 	H 	0.6598	0.9895	0.0136	0.046
Mof_H 	H 	0.7107	0.0091	0.1013	0.069
Mof_C 	C 	0.6427	0.0585	0.1348	0.044
Mof_H 	H 	0.6526	0.0706	0.2297	-0.002
Mof_H 	H 	0.6554	0.0852	0.0672	-0.015
Mof_C 	C 	0.5649	0.0173	0.2523	0.128
Mof_H 	H 	0.5763	0.0335	0.3427	-0.015
Mof_C 	C 	0.6549	0.9675	0.2299	-0.053
Mof_H 	H 	0.6716	0.9325	0.2189	0.032
Mof_H 	H 	0.6673	0.9829	0.3192	0.05
Mof_C 	C 	0.5799	0.0547	0.125	-0.041
Mof_H 	H 	0.5632	0.0897	0.1354	-0.003
Mof_H 	H 	0.5687	0.0391	0.0348	0.047
Mof_C 	C 	0.6372	0.0346	0.0581	-0.082
Mof_H 	H 	0.6513	0.0665	0.0117	0.052
Mof_H 	H 	0.6305	0.0071	0.987	0.007
Mof_C 	C 	0.5579	0.993	0.1749	-0.137
Mof_H 	H 	0.5402	0.977	0.0934	0.054
Mof_C 	C 	0.5992	0.9793	0.2925	0.087
Mof_H 	H 	0.59	0.0111	0.345	-0.03
Mof_C 	C 	0.6753	0.0146	0.1755	-0.068
Mof_H 	H 	0.7123	0.0107	0.1422	-0.022
Mof_H 	H 	0.6745	0.0375	0.2593	0.044
Mof_C 	C 	0.6478	0.9602	0.202	-0.057
Mof_H 	H 	0.6363	0.9434	0.1135	0.053
Mof_H 	H 	0.6711	0.9358	0.2542	0.028
Mof_C 	C 	0.5858	0.0472	0.146	-0.133
Mof_H 	H 	0.5619	0.0707	0.0922	0.069
Mof_H 	H 	0.5954	0.0647	0.2345	0.066
Mof_Zn	Zn	0.29174	0.30232	0.1112	1.217
Mof_Zn	Zn	0.00932	0.56104	0.36728	1.202
Mof_O 	O 	0.0839	0.5421	0.3959	-0.434
Mof_O 	O 	0.0178	0.6192	0.4987	-0.46
Mof_O 	O 	0.2503	0.3615	0.206	-0.454
Mof_O 	O 	0.1816	0.3488	0.0514	-0.471
Mof_O 	O 	0.8094	0.751	0.6933	-0.384
Mof_O 	O 	0.8699	0.7852	0.8306	-0.435
Mof_N 	N 	0.9941	0.4968	0.2576	-0.287
Mof_N 	N 	0.9322	0.5724	0.345	-0.28
Mof_C 	C 	0.9039	0.6088	0.4085	0.088
Mof_H 	H 	0.867	0.6099	0.3889	0.009
Mof_C 	C 	0.924	0.6467	0.5037	-0.175
Mof_C 	C 	0.8862	0.6815	0.5699	0.087
Mof_H 	H 	0.8497	0.6781	0.5469	0.029
Mof_C 	C 	0.9015	0.7201	0.6671	-0.157
Mof_C 	C 	0.9553	0.7235	0.7082	0.141
Mof_H 	H 	0.9658	0.7483	0.7771	-0.014
Mof_C 	C 	0.9926	0.6907	0.6479	-0.265
Mof_H 	H 	0.0286	0.6949	0.6754	0.127
Mof_C 	C 	0.9806	0.6505	0.5456	0.282
Mof_C 	C 	0.8569	0.7532	0.7328	0.343
Mof_C 	C 	0.0297	0.4633	0.2156	0.052
Mof_H 	H 	0.0174	0.4358	0.1568	0.011
Mof_C 	C 	0.0857	0.4628	0.2479	-0.146
Mof_C 	C 	0.1193	0.4221	0.1941	0.048
Mof_H 	H 	0.1038	0.3969	0.1333	0.031
Mof_C 	C 	0.1727	0.4169	0.2245	-0.119
Mof_C 	C 	0.1963	0.4544	0.3126	0.018
Mof_H 	H 	0.233	0.4511	0.3339	0.038
Mof_C 	C 	0.1669	0.4979	0.3724	-0.068
Mof_C 	C 	0.1102	0.5018	0.3385	0.185
Mof_C 	C 	0.204	0.3727	0.1545	0.373
Mof_C 	C 	0.9082	0.5387	0.233	-0.087
Mof_H 	H 	0.9197	0.5531	0.1405	0.058
Mof_C 	C 	0.8283	0.4956	0.1039	-0.016
Mof_H 	H 	0.8402	0.5105	0.0136	0.045
Mof_H 	H 	0.7893	0.4909	0.1013	0.071
Mof_C 	C 	0.8573	0.4415	0.1348	0.043
Mof_H 	H 	0.8474	0.4294	0.2297	-0.002
Mof_H 	H 	0.8446	0.4148	0.0672	-0.014
Mof_C 	C 	0.9351	0.4827	0.2523	0.13
Mof_H 	H 	0.9237	0.4665	0.3427	-0.016
Mof_C 	C 	0.8451	0.5325	0.2299	-0.053
Mof_H 	H 	0.8284	0.5675	0.2189	0.032
Mof_H 	H 	0.8327	0.5171	0.3192	0.05
Mof_C 	C 	0.9201	0.4453	0.125	-0.041
Mof_H 	H 	0.9368	0.4103	0.1354	-0.003
Mof_H 	H 	0.9313	0.4609	0.0348	0.047
Mof_C 	C 	0.8628	0.4654	0.0581	-0.081
Mof_H 	H 	0.8487	0.4335	0.0117	0.051
Mof_H 	H 	0.8695	0.4929	0.987	0.007
Mof_C 	C 	0.9421	0.507	0.1749	-0.139
Mof_H 	H 	0.9598	0.523	0.0934	0.055
Mof_C 	C 	0.9008	0.5207	0.2925	0.089
Mof_H 	H 	0.91	0.4889	0.345	-0.031
Mof_C 	C 	0.8247	0.4854	0.1755	-0.069
Mof_H 	H 	0.7877	0.4893	0.1422	-0.024
Mof_H 	H 	0.8255	0.4625	0.2593	0.045
Mof_C 	C 	0.8522	0.5398	0.202	-0.057
Mof_H 	H 	0.8637	0.5566	0.1135	0.053
Mof_H 	H 	0.8289	0.5642	0.2542	0.028
Mof_C 	C 	0.9142	0.4528	0.146	-0.133
Mof_H 	H 	0.9381	0.4293	0.0922	0.069
Mof_H 	H 	0.9046	0.4353	0.2345	0.066
Mof_Zn	Zn	0.29174	0.19768	0.8888	1.206
Mof_Zn	Zn	0.00932	0.93896	0.63272	1.2
Mof_O 	O 	0.0839	0.9579	0.6041	-0.437
Mof_O 	O 	0.0178	0.8808	0.5013	-0.462
Mof_O 	O 	0.2503	0.1385	0.794	-0.464
Mof_O 	O 	0.1816	0.1512	0.9486	-0.5
Mof_O 	O 	0.8094	0.749	0.3067	-0.38
Mof_O 	O 	0.8699	0.7148	0.1694	-0.417
Mof_N 	N 	0.9941	0.0032	0.7424	-0.286
Mof_N 	N 	0.9322	0.9276	0.655	-0.284
Mof_C 	C 	0.9039	0.8912	0.5915	0.087
Mof_H 	H 	0.867	0.8901	0.6111	0.008
Mof_C 	C 	0.924	0.8533	0.4963	-0.175
Mof_C 	C 	0.8862	0.8185	0.4301	0.084
Mof_H 	H 	0.8497	0.8219	0.4531	0.03
Mof_C 	C 	0.9015	0.7799	0.3329	-0.151
Mof_C 	C 	0.9553	0.7765	0.2918	0.138
Mof_H 	H 	0.9658	0.7517	0.2229	-0.004
Mof_C 	C 	0.9926	0.8093	0.3521	-0.261
Mof_H 	H 	0.0286	0.8051	0.3246	0.13
Mof_C 	C 	0.9806	0.8495	0.4544	0.281
Mof_C 	C 	0.8569	0.7468	0.2672	0.339
Mof_C 	C 	0.0297	0.0367	0.7844	0.05
Mof_H 	H 	0.0174	0.0642	0.8432	0.005
Mof_C 	C 	0.0857	0.0372	0.7521	-0.154
Mof_C 	C 	0.1193	0.0779	0.8059	0.051
Mof_H 	H 	0.1038	0.1031	0.8667	0.02
Mof_C 	C 	0.1727	0.0831	0.7755	-0.131
Mof_C 	C 	0.1963	0.0456	0.6874	0.019
Mof_H 	H 	0.233	0.0489	0.6661	0.034
Mof_C 	C 	0.1669	0.0021	0.6276	-0.073
Mof_C 	C 	0.1102	0.9982	0.6615	0.183
Mof_C 	C 	0.204	0.1273	0.8455	0.375
Mof_C 	C 	0.9082	0.9613	0.767	-0.037
Mof_H 	H 	0.9197	0.9469	0.8595	0.021
Mof_C 	C 	0.8283	0.0044	0.8961	-0.086
Mof_H 	H 	0.8402	0.9895	0.9864	0.028
Mof_H 	H 	0.7893	0.0091	0.8987	-0.052
Mof_C 	C 	0.8573	0.0585	0.8652	-0.064
Mof_H 	H 	0.8474	0.0706	0.7703	0.033
Mof_H 	H 	0.8446	0.0852	0.9328	0.022
Mof_C 	C 	0.9351	0.0173	0.7477	-0.009
Mof_H 	H 	0.9237	0.0335	0.6573	0.013
Mof_C 	C 	0.8451	0.9675	0.7701	-0.057
Mof_H 	H 	0.8284	0.9325	0.7811	0.037
Mof_H 	H 	0.8327	0.9829	0.6808	0.048
Mof_C 	C 	0.9201	0.0547	0.875	-0.016
Mof_H 	H 	0.9368	0.0897	0.8646	-0.007
Mof_H 	H 	0.9313	0.0391	0.9652	0.016
Mof_C 	C 	0.8628	0.0346	0.9419	-0.047
Mof_H 	H 	0.8487	0.0665	0.9883	0.021
Mof_H 	H 	0.8695	0.0071	0.013	0.053
Mof_C 	C 	0.9421	0.993	0.8251	-0.015
Mof_H 	H 	0.9598	0.977	0.9066	0.002
Mof_C 	C 	0.9008	0.9793	0.7075	0.043
Mof_H 	H 	0.91	0.0111	0.655	-0.001
Mof_C 	C 	0.8247	0.0146	0.8245	0.035
Mof_H 	H 	0.7877	0.0107	0.8578	0.081
Mof_H 	H 	0.8255	0.0375	0.7407	0.002
Mof_C 	C 	0.8522	0.9602	0.798	-0.073
Mof_H 	H 	0.8637	0.9434	0.8865	0.049
Mof_H 	H 	0.8289	0.9358	0.7458	0.025
Mof_C 	C 	0.9142	0.0472	0.854	-0.103
Mof_H 	H 	0.9381	0.0707	0.9078	0.05
Mof_H 	H 	0.9046	0.0647	0.7655	0.068
Mof_Zn	Zn	0.20826	0.30232	0.8888	1.206
Mof_Zn	Zn	0.49068	0.56104	0.63272	1.2
Mof_O 	O 	0.4161	0.5421	0.6041	-0.437
Mof_O 	O 	0.4822	0.6192	0.5013	-0.462
Mof_O 	O 	0.2497	0.3615	0.794	-0.464
Mof_O 	O 	0.3184	0.3488	0.9486	-0.5
Mof_O 	O 	0.6906	0.751	0.3067	-0.38
Mof_O 	O 	0.6301	0.7852	0.1694	-0.417
Mof_N 	N 	0.5059	0.4968	0.7424	-0.286
Mof_N 	N 	0.5678	0.5724	0.655	-0.284
Mof_C 	C 	0.5961	0.6088	0.5915	0.087
Mof_H 	H 	0.633	0.6099	0.6111	0.008
Mof_C 	C 	0.576	0.6467	0.4963	-0.175
Mof_C 	C 	0.6138	0.6815	0.4301	0.085
Mof_H 	H 	0.6503	0.6781	0.4531	0.03
Mof_C 	C 	0.5985	0.7201	0.3329	-0.151
Mof_C 	C 	0.5447	0.7235	0.2918	0.139
Mof_H 	H 	0.5342	0.7483	0.2229	-0.005
Mof_C 	C 	0.5074	0.6907	0.3521	-0.263
Mof_H 	H 	0.4714	0.6949	0.3246	0.13
Mof_C 	C 	0.5194	0.6505	0.4544	0.28
Mof_C 	C 	0.6431	0.7532	0.2672	0.34
Mof_C 	C 	0.4703	0.4633	0.7844	0.049
Mof_H 	H 	0.4826	0.4358	0.8432	0.004
Mof_C 	C 	0.4143	0.4628	0.7521	-0.156
Mof_C 	C 	0.3807	0.4221	0.8059	0.051
Mof_H 	H 	0.3962	0.3969	0.8667	0.019
Mof_C 	C 	0.3273	0.4169	0.7755	-0.132
Mof_C 	C 	0.3037	0.4544	0.6874	0.019
Mof_H 	H 	0.267	0.4511	0.6661	0.034
Mof_C 	C 	0.3331	0.4979	0.6276	-0.075
Mof_C 	C 	0.3898	0.5018	0.6615	0.185
Mof_C 	C 	0.296	0.3727	0.8455	0.375
Mof_C 	C 	0.5918	0.5387	0.767	-0.046
Mof_H 	H 	0.5803	0.5531	0.8595	0.025
Mof_C 	C 	0.6717	0.4956	0.8961	-0.083
Mof_H 	H 	0.6598	0.5105	0.9864	0.025
Mof_H 	H 	0.7107	0.4909	0.8987	-0.049
Mof_C 	C 	0.6427	0.4415	0.8652	-0.067
Mof_H 	H 	0.6526	0.4294	0.7703	0.034
Mof_H 	H 	0.6554	0.4148	0.9328	0.023
Mof_C 	C 	0.5649	0.4827	0.7477	0.008
Mof_H 	H 	0.5763	0.4665	0.6573	0.01
Mof_C 	C 	0.6549	0.5325	0.7701	-0.056
Mof_H 	H 	0.6716	0.5675	0.7811	0.037
Mof_H 	H 	0.6673	0.5171	0.6808	0.047
Mof_C 	C 	0.5799	0.4453	0.875	-0.017
Mof_H 	H 	0.5632	0.4103	0.8646	-0.007
Mof_H 	H 	0.5687	0.4609	0.9652	0.017
Mof_C 	C 	0.6372	0.4654	0.9419	-0.045
Mof_H 	H 	0.6513	0.4335	0.9883	0.02
Mof_H 	H 	0.6305	0.4929	0.013	0.054
Mof_C 	C 	0.5579	0.507	0.8251	-0.033
Mof_H 	H 	0.5402	0.523	0.9066	0.007
Mof_C 	C 	0.5992	0.5207	0.7075	0.052
Mof_H 	H 	0.59	0.4889	0.655	-0.006
Mof_C 	C 	0.6753	0.4854	0.8245	0.033
Mof_H 	H 	0.7123	0.4893	0.8578	0.077
Mof_H 	H 	0.6745	0.4625	0.7407	0.003
Mof_C 	C 	0.6478	0.5398	0.798	-0.073
Mof_H 	H 	0.6363	0.5566	0.8865	0.049
Mof_H 	H 	0.6711	0.5642	0.7458	0.025
Mof_C 	C 	0.5858	0.4528	0.854	-0.103
Mof_H 	H 	0.5619	0.4293	0.9078	0.05
Mof_H 	H 	0.5954	0.4353	0.7655	0.067
Mof_O 	O 	0.75	0.75	-0	-0.889
Mof_O 	O 	0.25	0.25	-0	-0.889
_end
