# CIF file generated by openbabel 3.1.0, see https://openbabel.org
data_I
_chemical_name_common 'image0'
_cell_length_a 18.465
_cell_length_b 9.367
_cell_length_c 10.059
_cell_angle_alpha 90
_cell_angle_beta 90
_cell_angle_gamma 90
_space_group_name_H-M_alt 'P 1'
_space_group_name_Hall 'P 1'
loop_
    _symmetry_equiv_pos_as_xyz
    x,y,z
loop_
    _atom_site_label
    _atom_site_type_symbol
    _atom_site_fract_x
    _atom_site_fract_y
    _atom_site_fract_z
    _atom_site_occupancy
    Ru1      Ru       0.48476    0.05878    0.59411    1.000
    C1       C        0.52890    0.76710    0.64320    1.000
    C2       C        0.63720    0.08190    0.52860    1.000
    O1       O        0.53590    0.76460    0.51570    1.000
    O2       O        0.50510    0.88070    0.70350    1.000
    O3       O        0.54630    0.65770    0.70850    1.000
    O4       O        0.61920    0.00200    0.43010    1.000
    O5       O        0.58840    0.11840    0.61710    1.000
    O6       O        0.70220    0.12140    0.54280    1.000
    K1       K        0.42920    0.50250    0.55480    1.000
    Ru2      Ru       0.01524    0.44122    0.59411    1.000
    C3       C        0.97110    0.73290    0.64320    1.000
    C4       C        0.86280    0.41810    0.52860    1.000
    O7       O        0.96410    0.73540    0.51570    1.000
    O8       O        0.99490    0.61930    0.70350    1.000
    O9       O        0.95370    0.84230    0.70850    1.000
    O10      O        0.88080    0.49800    0.43010    1.000
    O11      O        0.91160    0.38160    0.61710    1.000
    O12      O        0.79780    0.37860    0.54280    1.000
    K2       K        0.07080    0.99750    0.55480    1.000
    Ru3      Ru       0.51524    0.55878    0.90589    1.000
    C5       C        0.47110    0.26710    0.85680    1.000
    C6       C        0.36280    0.58190    0.97140    1.000
    O13      O        0.46410    0.26460    0.98430    1.000
    O14      O        0.49490    0.38070    0.79650    1.000
    O15      O        0.45370    0.15770    0.79150    1.000
    O16      O        0.38080    0.50200    0.06990    1.000
    O17      O        0.41160    0.61840    0.88290    1.000
    O18      O        0.29780    0.62140    0.95720    1.000
    K3       K        0.57080    0.00250    0.94520    1.000
    Ru4      Ru       0.98476    0.94122    0.90589    1.000
    C7       C        0.02890    0.23290    0.85680    1.000
    C8       C        0.13720    0.91810    0.97140    1.000
    O19      O        0.03590    0.23540    0.98430    1.000
    O20      O        0.00510    0.11930    0.79650    1.000
    O21      O        0.04630    0.34230    0.79150    1.000
    O22      O        0.11920    0.99800    0.06990    1.000
    O23      O        0.08840    0.88160    0.88290    1.000
    O24      O        0.20220    0.87860    0.95720    1.000
    K4       K        0.92920    0.49750    0.94520    1.000
    Ru5      Ru       0.51524    0.94122    0.40589    1.000
    C9       C        0.47110    0.23290    0.35680    1.000
    C10      C        0.36280    0.91810    0.47140    1.000
    O25      O        0.46410    0.23540    0.48430    1.000
    O26      O        0.49490    0.11930    0.29650    1.000
    O27      O        0.45370    0.34230    0.29150    1.000
    O28      O        0.38080    0.99800    0.56990    1.000
    O29      O        0.41160    0.88160    0.38290    1.000
    O30      O        0.29780    0.87860    0.45720    1.000
    K5       K        0.57080    0.49750    0.44520    1.000
    Ru6      Ru       0.98476    0.55878    0.40589    1.000
    C11      C        0.02890    0.26710    0.35680    1.000
    C12      C        0.13720    0.58190    0.47140    1.000
    O31      O        0.03590    0.26460    0.48430    1.000
    O32      O        0.00510    0.38070    0.29650    1.000
    O33      O        0.04630    0.15770    0.29150    1.000
    O34      O        0.11920    0.50200    0.56990    1.000
    O35      O        0.08840    0.61840    0.38290    1.000
    O36      O        0.20220    0.62140    0.45720    1.000
    K6       K        0.92920    0.00250    0.44520    1.000
    Ru7      Ru       0.48476    0.44122    0.09411    1.000
    C13      C        0.52890    0.73290    0.14320    1.000
    C14      C        0.63720    0.41810    0.02860    1.000
    O37      O        0.53590    0.73540    0.01570    1.000
    O38      O        0.50510    0.61930    0.20350    1.000
    O39      O        0.54630    0.84230    0.20850    1.000
    O40      O        0.61920    0.49800    0.93010    1.000
    O41      O        0.58840    0.38160    0.11710    1.000
    O42      O        0.70220    0.37860    0.04280    1.000
    K7       K        0.42920    0.99750    0.05480    1.000
    Ru8      Ru       0.01524    0.05878    0.09411    1.000
    C15      C        0.97110    0.76710    0.14320    1.000
    C16      C        0.86280    0.08190    0.02860    1.000
    O43      O        0.96410    0.76460    0.01570    1.000
    O44      O        0.99490    0.88070    0.20350    1.000
    O45      O        0.95370    0.65770    0.20850    1.000
    O46      O        0.88080    0.00200    0.93010    1.000
    O47      O        0.91160    0.11840    0.11710    1.000
    O48      O        0.79780    0.12140    0.04280    1.000
    K8       K        0.07080    0.50250    0.05480    1.000
    Mg1      Mg       0.75000    0.25000    0.68520    1.000
    Mg2      Mg       0.25000    0.75000    0.81480    1.000
    Mg3      Mg       0.25000    0.75000    0.31480    1.000
    Mg4      Mg       0.75000    0.25000    0.18520    1.000
