data_functionalizedCrystal
_audit_creation_method	'EQeq! by Chris Wilmer'
_symmetry_space_group_name_H-M	'P1'
_symmetry_Int_Tables_number	1
_symmetry_cell_setting	triclinic
loop_
_symmetry_equiv_pos_as_xyz
  x,y,z
_cell_length_a	19.1758
_cell_length_b	10.9867
_cell_length_c	33.4105
_cell_angle_alpha	90
_cell_angle_beta	103.273
_cell_angle_gamma	90
loop_
_atom_site_label
_atom_site_type_symbol
_atom_site_fract_x
_atom_site_fract_y
_atom_site_fract_z
_atom_site_charge
Mof_Eu	Eu	0.01301	0.18479	0.18668	2.591
Mof_Eu	Eu	0.00349	0.05911	0.05576	2.47
Mof_Cl	Cl	0.92194	0.08659	0.11528	-0.729
Mof_O 	O 	0.0318	0.3367	0.13901	-0.581
Mof_O 	O 	0.0563	0.2376	0.08591	-0.6
Mof_O 	O 	0.0188	0.8708	0.01979	-0.667
Mof_O 	O 	0.0722	0.7683	0.97866	-0.48
Mof_C 	C 	0.0541	0.4528	0.08284	-0.156
Mof_C 	C 	0.0333	0.5609	0.097	0.016
Mof_H 	H 	0.0196	0.5635	0.1219	0.03
Mof_C 	C 	0.0329	0.6672	0.074	-0.025
Mof_H 	H 	0.0159	0.7393	0.0829	0.031
Mof_C 	C 	0.057	0.6661	0.0387	-0.082
Mof_C 	C 	0.0808	0.557	0.0254	-0.053
Mof_H 	H 	0.0984	0.5556	0.0017	0.062
Mof_C 	C 	0.0783	0.4511	0.0471	0.038
Mof_H 	H 	0.0931	0.3781	0.0376	0.015
Mof_C 	C 	0.0473	0.3337	0.1044	0.521
Mof_C 	C 	0.0511	0.7751	0.0111	0.398
Mof_O 	O 	0.096	0.0737	0.16113	-0.624
Mof_O 	O 	0.0791	0.9478	0.108	-0.588
Mof_O 	O 	0.3811	0.72	0.26413	-0.611
Mof_O 	O 	0.4014	0.677	0.2028	-0.626
Mof_C 	C 	0.1715	0.9027	0.16647	-0.138
Mof_C 	C 	0.1983	0.8088	0.1463	-0
Mof_H 	H 	0.1743	0.786	0.12	0.045
Mof_C 	C 	0.2603	0.7497	0.1654	0
Mof_H 	H 	0.2794	0.6899	0.1514	0.049
Mof_C 	C 	0.294	0.7785	0.2051	-0.14
Mof_C 	C 	0.2651	0.868	0.226	-0.003
Mof_H 	H 	0.2868	0.8859	0.2532	0.036
Mof_C 	C 	0.2045	0.9299	0.2065	0.008
Mof_H 	H 	0.1857	0.9904	0.2204	0.035
Mof_C 	C 	0.1099	0.98	0.14394	0.536
Mof_C 	C 	0.3639	0.7203	0.2257	0.541
Mof_O 	O 	0.9963	0.3734	0.21641	-0.588
Mof_O 	O 	0.018	0.0002	0.22042	-0.63
Mof_C 	C 	0.0283	0.6235	0.2217	0.006
Mof_H 	H 	0.047	0.581	0.2024	0.033
Mof_C 	C 	0.029	0.7501	0.2218	0.008
Mof_H 	H 	0.0489	0.7923	0.2031	0.032
Mof_O 	O 	0.8932	0.9697	0.02806	-0.569
Mof_O 	O 	0.8839	0.9211	0.96224	-0.561
Mof_C 	C 	0.8049	0.8288	0.9977	-0.128
Mof_C 	C 	0.7753	0.8311	0.032	-0.002
Mof_H 	H 	0.7923	0.8853	0.0534	0.056
Mof_C 	C 	0.7796	0.7486	0.9662	0.006
Mof_H 	H 	0.7996	0.748	0.9434	0.041
Mof_C 	C 	0.8656	0.913	0.996	0.507
Mof_Eu	Eu	0.51301	0.68479	0.18668	2.646
Mof_Eu	Eu	0.50349	0.55911	0.05576	2.526
Mof_Cl	Cl	0.42194	0.58659	0.11528	-0.758
Mof_O 	O 	0.5318	0.8367	0.13901	-0.584
Mof_O 	O 	0.5563	0.7376	0.08591	-0.605
Mof_O 	O 	0.5188	0.3708	0.01979	-0.661
Mof_O 	O 	0.5722	0.2683	0.97866	-0.472
Mof_C 	C 	0.5541	0.9528	0.08284	-0.157
Mof_C 	C 	0.5333	0.0609	0.097	0.019
Mof_H 	H 	0.5196	0.0635	0.1219	0.031
Mof_C 	C 	0.5329	0.1672	0.074	-0.025
Mof_H 	H 	0.5159	0.2393	0.0829	0.033
Mof_C 	C 	0.557	0.1661	0.0387	-0.079
Mof_C 	C 	0.5808	0.057	0.0254	-0.053
Mof_H 	H 	0.5984	0.0556	0.0017	0.065
Mof_C 	C 	0.5783	0.9511	0.0471	0.042
Mof_H 	H 	0.5931	0.8781	0.0376	0.016
Mof_C 	C 	0.5473	0.8337	0.1044	0.527
Mof_C 	C 	0.5511	0.2751	0.0111	0.401
Mof_O 	O 	0.596	0.5737	0.16113	-0.632
Mof_O 	O 	0.5791	0.4478	0.108	-0.594
Mof_O 	O 	0.8811	0.22	0.26413	-0.613
Mof_O 	O 	0.9014	0.177	0.2028	-0.613
Mof_C 	C 	0.6715	0.4027	0.16647	-0.142
Mof_C 	C 	0.6983	0.3088	0.1463	0.005
Mof_H 	H 	0.6743	0.286	0.12	0.044
Mof_C 	C 	0.7603	0.2497	0.1654	-0.003
Mof_H 	H 	0.7794	0.1899	0.1514	0.051
Mof_C 	C 	0.794	0.2785	0.2051	-0.136
Mof_C 	C 	0.7651	0.368	0.226	-0.005
Mof_H 	H 	0.7868	0.3859	0.2532	0.038
Mof_C 	C 	0.7045	0.4299	0.2065	0.012
Mof_H 	H 	0.6857	0.4904	0.2204	0.035
Mof_C 	C 	0.6099	0.48	0.14394	0.543
Mof_C 	C 	0.8639	0.2203	0.2257	0.539
Mof_O 	O 	0.4963	0.8734	0.21641	-0.624
Mof_O 	O 	0.518	0.5002	0.22042	-0.637
Mof_C 	C 	0.5283	0.1235	0.2217	0.004
Mof_H 	H 	0.547	0.081	0.2024	0.035
Mof_C 	C 	0.529	0.2501	0.2218	0.008
Mof_H 	H 	0.5489	0.2923	0.2031	0.033
Mof_O 	O 	0.3932	0.4697	0.02806	-0.584
Mof_O 	O 	0.3839	0.4211	0.96224	-0.559
Mof_C 	C 	0.3049	0.3288	0.9977	-0.123
Mof_C 	C 	0.2753	0.3311	0.032	-0.012
Mof_H 	H 	0.2923	0.3853	0.0534	0.057
Mof_C 	C 	0.2796	0.2486	0.9662	-0.002
Mof_H 	H 	0.2996	0.248	0.9434	0.043
Mof_C 	C 	0.3656	0.413	0.996	0.508
Mof_Eu	Eu	0.98699	0.18479	0.31332	2.701
Mof_Eu	Eu	0.99651	0.05911	0.44424	2.588
Mof_Cl	Cl	0.07806	0.08659	0.38472	-0.784
Mof_O 	O 	0.9682	0.3367	0.36099	-0.584
Mof_O 	O 	0.9437	0.2376	0.41409	-0.61
Mof_O 	O 	0.9812	0.8708	0.48021	-0.654
Mof_O 	O 	0.9278	0.7683	0.52134	-0.461
Mof_C 	C 	0.9459	0.4528	0.41716	-0.155
Mof_C 	C 	0.9667	0.5609	0.403	0.022
Mof_H 	H 	0.9804	0.5635	0.3781	0.034
Mof_C 	C 	0.9671	0.6672	0.426	-0.023
Mof_H 	H 	0.9841	0.7393	0.4171	0.036
Mof_C 	C 	0.943	0.6661	0.4613	-0.076
Mof_C 	C 	0.9192	0.557	0.4746	-0.051
Mof_H 	H 	0.9016	0.5556	0.4983	0.068
Mof_C 	C 	0.9217	0.4511	0.4529	0.045
Mof_H 	H 	0.9069	0.3781	0.4624	0.018
Mof_C 	C 	0.9527	0.3337	0.3956	0.533
Mof_C 	C 	0.9489	0.7751	0.4889	0.402
Mof_O 	O 	0.904	0.0737	0.33887	-0.639
Mof_O 	O 	0.9209	0.9478	0.392	-0.6
Mof_O 	O 	0.6189	0.72	0.23587	-0.611
Mof_O 	O 	0.5986	0.677	0.2972	-0.626
Mof_C 	C 	0.8285	0.9027	0.33353	-0.145
Mof_C 	C 	0.8017	0.8088	0.3537	0.006
Mof_H 	H 	0.8257	0.786	0.38	0.042
Mof_C 	C 	0.7397	0.7497	0.3346	-0.004
Mof_H 	H 	0.7206	0.6899	0.3486	0.05
Mof_C 	C 	0.706	0.7785	0.2949	-0.137
Mof_C 	C 	0.7349	0.868	0.274	-0.007
Mof_H 	H 	0.7132	0.8859	0.2468	0.038
Mof_C 	C 	0.7955	0.9299	0.2935	0.014
Mof_H 	H 	0.8143	0.9904	0.2796	0.033
Mof_C 	C 	0.8901	0.98	0.35606	0.548
Mof_C 	C 	0.6361	0.7203	0.2743	0.54
Mof_O 	O 	0.0037	0.3734	0.28359	-0.635
Mof_O 	O 	0.982	0.0002	0.27958	-0.62
Mof_C 	C 	0.9717	0.6235	0.2783	0.028
Mof_H 	H 	0.953	0.581	0.2976	0.032
Mof_C 	C 	0.971	0.7501	0.2782	0.028
Mof_H 	H 	0.9511	0.7923	0.2969	0.03
Mof_O 	O 	0.1068	0.9697	0.47194	-0.597
Mof_O 	O 	0.1161	0.9211	0.53776	-0.556
Mof_C 	C 	0.1951	0.8288	0.5023	-0.127
Mof_C 	C 	0.2247	0.8311	0.468	-0.009
Mof_H 	H 	0.2077	0.8853	0.4466	0.055
Mof_C 	C 	0.2204	0.7486	0.5338	0.001
Mof_H 	H 	0.2004	0.748	0.5566	0.043
Mof_C 	C 	0.1344	0.913	0.504	0.51
Mof_Eu	Eu	0.48699	0.68479	0.31332	2.646
Mof_Eu	Eu	0.49651	0.55911	0.44424	2.525
Mof_Cl	Cl	0.57806	0.58659	0.38472	-0.758
Mof_O 	O 	0.4682	0.8367	0.36099	-0.584
Mof_O 	O 	0.4437	0.7376	0.41409	-0.605
Mof_O 	O 	0.4812	0.3708	0.48021	-0.661
Mof_O 	O 	0.4278	0.2683	0.52134	-0.471
Mof_C 	C 	0.4459	0.9528	0.41716	-0.157
Mof_C 	C 	0.4667	0.0609	0.403	0.02
Mof_H 	H 	0.4804	0.0635	0.3781	0.031
Mof_C 	C 	0.4671	0.1672	0.426	-0.025
Mof_H 	H 	0.4841	0.2393	0.4171	0.033
Mof_C 	C 	0.443	0.1661	0.4613	-0.079
Mof_C 	C 	0.4192	0.057	0.4746	-0.052
Mof_H 	H 	0.4016	0.0556	0.4983	0.065
Mof_C 	C 	0.4217	0.9511	0.4529	0.041
Mof_H 	H 	0.4069	0.8781	0.4624	0.016
Mof_C 	C 	0.4527	0.8337	0.3956	0.527
Mof_C 	C 	0.4489	0.2751	0.4889	0.4
Mof_O 	O 	0.404	0.5737	0.33887	-0.632
Mof_O 	O 	0.4209	0.4478	0.392	-0.594
Mof_O 	O 	0.1189	0.22	0.23587	-0.609
Mof_O 	O 	0.0986	0.177	0.2972	-0.638
Mof_C 	C 	0.3285	0.4027	0.33353	-0.141
Mof_C 	C 	0.3017	0.3088	0.3537	0.002
Mof_H 	H 	0.3257	0.286	0.38	0.044
Mof_C 	C 	0.2397	0.2497	0.3346	-0.001
Mof_H 	H 	0.2206	0.1899	0.3486	0.048
Mof_C 	C 	0.206	0.2785	0.2949	-0.14
Mof_C 	C 	0.2349	0.368	0.274	-0.004
Mof_H 	H 	0.2132	0.3859	0.2468	0.037
Mof_C 	C 	0.2955	0.4299	0.2935	0.01
Mof_H 	H 	0.3143	0.4904	0.2796	0.035
Mof_C 	C 	0.3901	0.48	0.35606	0.543
Mof_C 	C 	0.1361	0.2203	0.2743	0.542
Mof_O 	O 	0.5037	0.8734	0.28359	-0.624
Mof_O 	O 	0.482	0.5002	0.27958	-0.637
Mof_C 	C 	0.4717	0.1235	0.2783	0.004
Mof_H 	H 	0.453	0.081	0.2976	0.035
Mof_C 	C 	0.471	0.2501	0.2782	0.008
Mof_H 	H 	0.4511	0.2923	0.2969	0.033
Mof_O 	O 	0.6068	0.4697	0.47194	-0.584
Mof_O 	O 	0.6161	0.4211	0.53776	-0.558
Mof_C 	C 	0.6951	0.3288	0.5023	-0.124
Mof_C 	C 	0.7247	0.3311	0.468	-0.009
Mof_H 	H 	0.7077	0.3853	0.4466	0.056
Mof_C 	C 	0.7204	0.2486	0.5338	0.002
Mof_H 	H 	0.7004	0.248	0.5566	0.043
Mof_C 	C 	0.6344	0.413	0.504	0.51
Mof_Eu	Eu	0.98699	0.81521	0.81332	2.698
Mof_Eu	Eu	0.99651	0.94089	0.94424	2.582
Mof_Cl	Cl	0.07806	0.91341	0.88472	-0.782
Mof_O 	O 	0.9682	0.6633	0.86099	-0.584
Mof_O 	O 	0.9437	0.7624	0.91409	-0.609
Mof_O 	O 	0.9812	0.1292	0.98021	-0.653
Mof_O 	O 	0.9278	0.2317	0.02134	-0.458
Mof_C 	C 	0.9459	0.5472	0.91716	-0.156
Mof_C 	C 	0.9667	0.4391	0.903	0.023
Mof_H 	H 	0.9804	0.4365	0.8781	0.034
Mof_C 	C 	0.9671	0.3328	0.926	-0.024
Mof_H 	H 	0.9841	0.2607	0.9171	0.036
Mof_C 	C 	0.943	0.3339	0.9613	-0.075
Mof_C 	C 	0.9192	0.443	0.9746	-0.052
Mof_H 	H 	0.9016	0.4444	0.9983	0.067
Mof_C 	C 	0.9217	0.5489	0.9529	0.046
Mof_H 	H 	0.9069	0.6219	0.9624	0.018
Mof_C 	C 	0.9527	0.6663	0.8956	0.533
Mof_C 	C 	0.9489	0.2249	0.9889	0.399
Mof_O 	O 	0.904	0.9263	0.83887	-0.638
Mof_O 	O 	0.9209	0.0522	0.892	-0.6
Mof_O 	O 	0.6189	0.28	0.73587	-0.611
Mof_O 	O 	0.5986	0.323	0.7972	-0.626
Mof_C 	C 	0.8285	0.0973	0.83353	-0.145
Mof_C 	C 	0.8017	0.1912	0.8537	0.005
Mof_H 	H 	0.8257	0.214	0.88	0.042
Mof_C 	C 	0.7397	0.2503	0.8346	-0.004
Mof_H 	H 	0.7206	0.3101	0.8486	0.05
Mof_C 	C 	0.706	0.2215	0.7949	-0.137
Mof_C 	C 	0.7349	0.132	0.774	-0.007
Mof_H 	H 	0.7132	0.1141	0.7468	0.038
Mof_C 	C 	0.7955	0.0701	0.7935	0.014
Mof_H 	H 	0.8143	0.0096	0.7796	0.033
Mof_C 	C 	0.8901	0.02	0.85606	0.548
Mof_C 	C 	0.6361	0.2797	0.7743	0.54
Mof_O 	O 	0.0037	0.6266	0.78359	-0.634
Mof_O 	O 	0.982	0.9998	0.77958	-0.621
Mof_C 	C 	0.9717	0.3765	0.7783	0.026
Mof_H 	H 	0.953	0.419	0.7976	0.033
Mof_C 	C 	0.971	0.2499	0.7782	0.026
Mof_H 	H 	0.9511	0.2077	0.7969	0.03
Mof_O 	O 	0.1068	0.0303	0.97194	-0.594
Mof_O 	O 	0.1161	0.0789	0.03776	-0.555
Mof_C 	C 	0.1951	0.1712	0.0023	-0.128
Mof_C 	C 	0.2247	0.1689	0.968	-0.007
Mof_H 	H 	0.2077	0.1147	0.9466	0.054
Mof_C 	C 	0.2204	0.2514	0.0338	0.002
Mof_H 	H 	0.2004	0.252	0.0566	0.042
Mof_C 	C 	0.1344	0.087	0.004	0.508
Mof_Eu	Eu	0.48699	0.31521	0.81332	2.646
Mof_Eu	Eu	0.49651	0.44089	0.94424	2.525
Mof_Cl	Cl	0.57806	0.41341	0.88472	-0.758
Mof_O 	O 	0.4682	0.1633	0.86099	-0.584
Mof_O 	O 	0.4437	0.2624	0.91409	-0.605
Mof_O 	O 	0.4812	0.6292	0.98021	-0.661
Mof_O 	O 	0.4278	0.7317	0.02134	-0.471
Mof_C 	C 	0.4459	0.0472	0.91716	-0.157
Mof_C 	C 	0.4667	0.9391	0.903	0.019
Mof_H 	H 	0.4804	0.9365	0.8781	0.031
Mof_C 	C 	0.4671	0.8328	0.926	-0.025
Mof_H 	H 	0.4841	0.7607	0.9171	0.033
Mof_C 	C 	0.443	0.8339	0.9613	-0.079
Mof_C 	C 	0.4192	0.943	0.9746	-0.054
Mof_H 	H 	0.4016	0.9444	0.9983	0.064
Mof_C 	C 	0.4217	0.0489	0.9529	0.043
Mof_H 	H 	0.4069	0.1219	0.9624	0.016
Mof_C 	C 	0.4527	0.1663	0.8956	0.527
Mof_C 	C 	0.4489	0.7249	0.9889	0.399
Mof_O 	O 	0.404	0.4263	0.83887	-0.632
Mof_O 	O 	0.4209	0.5522	0.892	-0.594
Mof_O 	O 	0.1189	0.78	0.73587	-0.609
Mof_O 	O 	0.0986	0.823	0.7972	-0.637
Mof_C 	C 	0.3285	0.5973	0.83353	-0.141
Mof_C 	C 	0.3017	0.6912	0.8537	0.002
Mof_H 	H 	0.3257	0.714	0.88	0.044
Mof_C 	C 	0.2397	0.7503	0.8346	-0.001
Mof_H 	H 	0.2206	0.8101	0.8486	0.048
Mof_C 	C 	0.206	0.7215	0.7949	-0.14
Mof_C 	C 	0.2349	0.632	0.774	-0.004
Mof_H 	H 	0.2132	0.6141	0.7468	0.037
Mof_C 	C 	0.2955	0.5701	0.7935	0.01
Mof_H 	H 	0.3143	0.5096	0.7796	0.035
Mof_C 	C 	0.3901	0.52	0.85606	0.543
Mof_C 	C 	0.1361	0.7797	0.7743	0.542
Mof_O 	O 	0.5037	0.1266	0.78359	-0.624
Mof_O 	O 	0.482	0.4998	0.77958	-0.637
Mof_C 	C 	0.4717	0.8765	0.7783	0.004
Mof_H 	H 	0.453	0.919	0.7976	0.035
Mof_C 	C 	0.471	0.7499	0.7782	0.008
Mof_H 	H 	0.4511	0.7077	0.7969	0.033
Mof_O 	O 	0.6068	0.5303	0.97194	-0.585
Mof_O 	O 	0.6161	0.5789	0.03776	-0.558
Mof_C 	C 	0.6951	0.6712	0.0023	-0.119
Mof_C 	C 	0.7247	0.6689	0.968	-0.016
Mof_H 	H 	0.7077	0.6147	0.9466	0.058
Mof_C 	C 	0.7204	0.7514	0.0338	-0.003
Mof_H 	H 	0.7004	0.752	0.0566	0.045
Mof_C 	C 	0.6344	0.587	0.004	0.509
Mof_Eu	Eu	0.01301	0.81521	0.68668	2.595
Mof_Eu	Eu	0.00349	0.94089	0.55576	2.474
Mof_Cl	Cl	0.92194	0.91341	0.61528	-0.732
Mof_O 	O 	0.0318	0.6633	0.63901	-0.582
Mof_O 	O 	0.0563	0.7624	0.58591	-0.602
Mof_O 	O 	0.0188	0.1292	0.51979	-0.669
Mof_O 	O 	0.0722	0.2317	0.47866	-0.483
Mof_C 	C 	0.0541	0.5472	0.58284	-0.156
Mof_C 	C 	0.0333	0.4391	0.597	0.016
Mof_H 	H 	0.0196	0.4365	0.6219	0.03
Mof_C 	C 	0.0329	0.3328	0.574	-0.025
Mof_H 	H 	0.0159	0.2607	0.5829	0.031
Mof_C 	C 	0.057	0.3339	0.5387	-0.082
Mof_C 	C 	0.0808	0.443	0.5254	-0.052
Mof_H 	H 	0.0984	0.4444	0.5017	0.062
Mof_C 	C 	0.0783	0.5489	0.5471	0.038
Mof_H 	H 	0.0931	0.6219	0.5376	0.015
Mof_C 	C 	0.0473	0.6663	0.6044	0.522
Mof_C 	C 	0.0511	0.2249	0.5111	0.4
Mof_O 	O 	0.096	0.9263	0.66113	-0.625
Mof_O 	O 	0.0791	0.0522	0.608	-0.589
Mof_O 	O 	0.3811	0.28	0.76413	-0.611
Mof_O 	O 	0.4014	0.323	0.7028	-0.626
Mof_C 	C 	0.1715	0.0973	0.66647	-0.138
Mof_C 	C 	0.1983	0.1912	0.6463	0
Mof_H 	H 	0.1743	0.214	0.62	0.045
Mof_C 	C 	0.2603	0.2503	0.6654	-0
Mof_H 	H 	0.2794	0.3101	0.6514	0.049
Mof_C 	C 	0.294	0.2215	0.7051	-0.14
Mof_C 	C 	0.2651	0.132	0.726	-0.003
Mof_H 	H 	0.2868	0.1141	0.7532	0.036
Mof_C 	C 	0.2045	0.0701	0.7065	0.008
Mof_H 	H 	0.1857	0.0096	0.7204	0.035
Mof_C 	C 	0.1099	0.02	0.64394	0.536
Mof_C 	C 	0.3639	0.2797	0.7257	0.541
Mof_O 	O 	0.9963	0.6266	0.71641	-0.591
Mof_O 	O 	0.018	0.9998	0.72042	-0.631
Mof_C 	C 	0.0283	0.3765	0.7217	0.006
Mof_H 	H 	0.047	0.419	0.7024	0.033
Mof_C 	C 	0.029	0.2499	0.7218	0.008
Mof_H 	H 	0.0489	0.2077	0.7031	0.032
Mof_O 	O 	0.8932	0.0303	0.52806	-0.573
Mof_O 	O 	0.8839	0.0789	0.46224	-0.562
Mof_C 	C 	0.8049	0.1712	0.4977	-0.123
Mof_C 	C 	0.7753	0.1689	0.532	-0.009
Mof_H 	H 	0.7923	0.1147	0.5534	0.058
Mof_C 	C 	0.7796	0.2514	0.4662	0.001
Mof_H 	H 	0.7996	0.252	0.4434	0.042
Mof_C 	C 	0.8656	0.087	0.496	0.51
Mof_Eu	Eu	0.51301	0.31521	0.68668	2.646
Mof_Eu	Eu	0.50349	0.44089	0.55576	2.526
Mof_Cl	Cl	0.42194	0.41341	0.61528	-0.758
Mof_O 	O 	0.5318	0.1633	0.63901	-0.584
Mof_O 	O 	0.5563	0.2624	0.58591	-0.605
Mof_O 	O 	0.5188	0.6292	0.51979	-0.661
Mof_O 	O 	0.5722	0.7317	0.47866	-0.471
Mof_C 	C 	0.5541	0.0472	0.58284	-0.157
Mof_C 	C 	0.5333	0.9391	0.597	0.02
Mof_H 	H 	0.5196	0.9365	0.6219	0.031
Mof_C 	C 	0.5329	0.8328	0.574	-0.025
Mof_H 	H 	0.5159	0.7607	0.5829	0.033
Mof_C 	C 	0.557	0.8339	0.5387	-0.079
Mof_C 	C 	0.5808	0.943	0.5254	-0.052
Mof_H 	H 	0.5984	0.9444	0.5017	0.064
Mof_C 	C 	0.5783	0.0489	0.5471	0.041
Mof_H 	H 	0.5931	0.1219	0.5376	0.017
Mof_C 	C 	0.5473	0.1663	0.6044	0.527
Mof_C 	C 	0.5511	0.7249	0.5111	0.401
Mof_O 	O 	0.596	0.4263	0.66113	-0.632
Mof_O 	O 	0.5791	0.5522	0.608	-0.594
Mof_O 	O 	0.8811	0.78	0.76413	-0.613
Mof_O 	O 	0.9014	0.823	0.7028	-0.614
Mof_C 	C 	0.6715	0.5973	0.66647	-0.142
Mof_C 	C 	0.6983	0.6912	0.6463	0.004
Mof_H 	H 	0.6743	0.714	0.62	0.044
Mof_C 	C 	0.7603	0.7503	0.6654	-0.003
Mof_H 	H 	0.7794	0.8101	0.6514	0.051
Mof_C 	C 	0.794	0.7215	0.7051	-0.136
Mof_C 	C 	0.7651	0.632	0.726	-0.005
Mof_H 	H 	0.7868	0.6141	0.7532	0.038
Mof_C 	C 	0.7045	0.5701	0.7065	0.012
Mof_H 	H 	0.6857	0.5096	0.7204	0.035
Mof_C 	C 	0.6099	0.52	0.64394	0.543
Mof_C 	C 	0.8639	0.7797	0.7257	0.539
Mof_O 	O 	0.4963	0.1266	0.71641	-0.624
Mof_O 	O 	0.518	0.4998	0.72042	-0.637
Mof_C 	C 	0.5283	0.8765	0.7217	0.004
Mof_H 	H 	0.547	0.919	0.7024	0.036
Mof_C 	C 	0.529	0.7499	0.7218	0.008
Mof_H 	H 	0.5489	0.7077	0.7031	0.033
Mof_O 	O 	0.3932	0.5303	0.52806	-0.584
Mof_O 	O 	0.3839	0.5789	0.46224	-0.559
Mof_C 	C 	0.3049	0.6712	0.4977	-0.124
Mof_C 	C 	0.2753	0.6689	0.532	-0.01
Mof_H 	H 	0.2923	0.6147	0.5534	0.057
Mof_C 	C 	0.2796	0.7514	0.4662	-0
Mof_H 	H 	0.2996	0.752	0.4434	0.042
Mof_C 	C 	0.3656	0.587	0.496	0.509
Mof_C 	C 	2.00813e-33	0.5611	0.25	-0.166
Mof_C 	C 	-1.65945e-17	0.8127	0.25	-0.167
Mof_C 	C 	2.00813e-33	0.4246	0.25	0.542
Mof_C 	C 	2.00813e-33	0.9491	0.25	0.544
Mof_C 	C 	0.5	0.0611	0.25	-0.147
Mof_C 	C 	0.5	0.3127	0.25	-0.15
Mof_C 	C 	0.5	0.9246	0.25	0.563
Mof_C 	C 	0.5	0.4491	0.25	0.567
Mof_C 	C 	6.02439e-33	0.4389	0.75	-0.165
Mof_C 	C 	6.02439e-33	0.1873	0.75	-0.165
Mof_C 	C 	6.02439e-33	0.5754	0.75	0.544
Mof_C 	C 	6.02439e-33	0.0509	0.75	0.546
Mof_C 	C 	0.5	0.9389	0.75	-0.147
Mof_C 	C 	0.5	0.6873	0.75	-0.15
Mof_C 	C 	0.5	0.0754	0.75	0.563
Mof_C 	C 	0.5	0.5509	0.75	0.567
_end
