data_functionalizedCrystal
_audit_creation_method	'EQeq! by Chris Wilmer'
_symmetry_space_group_name_H-M	'P1'
_symmetry_Int_Tables_number	1
_symmetry_cell_setting	triclinic
loop_
_symmetry_equiv_pos_as_xyz
  x,y,z
_cell_length_a	12.5971
_cell_length_b	12.5971
_cell_length_c	24.4756
_cell_angle_alpha	104.051
_cell_angle_beta	104.052
_cell_angle_gamma	93.2398
loop_
_atom_site_label
_atom_site_type_symbol
_atom_site_fract_x
_atom_site_fract_y
_atom_site_fract_z
_atom_site_charge
Mof_Cd	Cd	0.5	0.5	0.5	0.444
Mof_Cd	Cd	0.5	0	0.5	0.435
Mof_Cd	Cd	0.5	0.5	-0	0.42
Mof_Cd	Cd	-0	0.5	-0	0.414
Mof_P 	P 	0.99035	0.24035	0.25	0.295
Mof_P 	P 	0.75965	0.00965	0.25	0.274
Mof_P 	P 	0.00965	0.75965	0.75	0.277
Mof_P 	P 	0.24035	0.99035	0.75	0.298
Mof_P 	P 	0.76499	0.23501	0.25	0.282
Mof_P 	P 	0.98501	0.01499	0.25	0.276
Mof_P 	P 	0.23501	0.76499	0.75	0.282
Mof_P 	P 	0.01499	0.98501	0.75	0.28
Mof_H 	H 	0.1016	0.186	0.1966	0.153
Mof_H 	H 	0.9677	0.4195	0.1942	0.138
Mof_H 	H 	0.9583	0.5113	0.1236	0.002
Mof_H 	H 	0.7176	0.4124	0.075	0.001
Mof_H 	H 	0.1258	0.3064	0.0436	-0.013
Mof_H 	H 	0.774	0.3258	0.147	0.129
Mof_H 	H 	0.1431	0.2075	0.1116	0.124
Mof_H 	H 	0.4567	0.2605	0.1422	0.136
Mof_H 	H 	0.4131	0.3529	0.073	-0.004
Mof_H 	H 	0.5834	0.2012	0.2042	0.131
Mof_H 	H 	0.595	0.0106	0.1966	0.144
Mof_H 	H 	0.7265	0.7747	0.1942	0.14
Mof_H 	H 	0.6653	0.6123	0.1236	0.002
Mof_H 	H 	0.8574	0.6626	0.075	0.001
Mof_H 	H 	0.4178	0.7372	0.0436	-0.013
Mof_H 	H 	0.873	0.8212	0.147	0.126
Mof_H 	H 	0.4685	0.9041	0.1116	0.129
Mof_H 	H 	0.1855	0.8817	0.1422	0.137
Mof_H 	H 	0.1599	0.7201	0.073	-0.002
Mof_H 	H 	0.1208	0.003	0.2042	0.125
Mof_H 	H 	0.814	0.8984	0.3034	0.155
Mof_H 	H 	0.5805	0.0323	0.3058	0.143
Mof_H 	H 	0.4887	0.0417	0.3764	0.003
Mof_H 	H 	0.5876	0.2824	0.425	0.006
Mof_H 	H 	0.6936	0.8742	0.4564	-0.008
Mof_H 	H 	0.6742	0.226	0.353	0.129
Mof_H 	H 	0.7925	0.8569	0.3884	0.132
Mof_H 	H 	0.7395	0.5433	0.3578	0.138
Mof_H 	H 	0.6471	0.5869	0.427	-0.002
Mof_H 	H 	0.7988	0.4166	0.2958	0.132
Mof_H 	H 	0.9894	0.405	0.3034	0.16
Mof_H 	H 	0.2253	0.2735	0.3058	0.14
Mof_H 	H 	0.3877	0.3347	0.3764	0.003
Mof_H 	H 	0.3374	0.1426	0.425	0.008
Mof_H 	H 	0.2628	0.5822	0.4564	-0.009
Mof_H 	H 	0.1788	0.127	0.353	0.132
Mof_H 	H 	0.0959	0.5315	0.3884	0.127
Mof_H 	H 	0.1183	0.8145	0.3578	0.137
Mof_H 	H 	0.2799	0.8401	0.427	-0.003
Mof_H 	H 	0.997	0.8792	0.2958	0.14
Mof_H 	H 	0.8984	0.814	0.8034	0.155
Mof_H 	H 	0.0323	0.5805	0.8058	0.143
Mof_H 	H 	0.0417	0.4887	0.8764	0.005
Mof_H 	H 	0.2824	0.5876	0.925	0.013
Mof_H 	H 	0.8742	0.6936	0.9564	-0.002
Mof_H 	H 	0.226	0.6742	0.853	0.13
Mof_H 	H 	0.8569	0.7925	0.8884	0.134
Mof_H 	H 	0.5433	0.7395	0.8578	0.139
Mof_H 	H 	0.5869	0.6471	0.927	0.001
Mof_H 	H 	0.4166	0.7988	0.7958	0.132
Mof_H 	H 	0.405	0.9894	0.8034	0.161
Mof_H 	H 	0.2735	0.2253	0.8058	0.14
Mof_H 	H 	0.3347	0.3877	0.8764	0.005
Mof_H 	H 	0.1426	0.3374	0.925	0.014
Mof_H 	H 	0.5822	0.2628	0.9564	-0.002
Mof_H 	H 	0.127	0.1788	0.853	0.132
Mof_H 	H 	0.5315	0.0959	0.8884	0.128
Mof_H 	H 	0.8145	0.1183	0.8578	0.137
Mof_H 	H 	0.8401	0.2799	0.927	0
Mof_H 	H 	0.8792	0.997	0.7958	0.141
Mof_H 	H 	0.186	0.1016	0.6966	0.153
Mof_H 	H 	0.4195	0.9677	0.6942	0.138
Mof_H 	H 	0.5113	0.9583	0.6236	0.003
Mof_H 	H 	0.4124	0.7176	0.575	0.007
Mof_H 	H 	0.3064	0.1258	0.5436	-0.008
Mof_H 	H 	0.3258	0.774	0.647	0.129
Mof_H 	H 	0.2075	0.1431	0.6116	0.126
Mof_H 	H 	0.2605	0.4567	0.6422	0.137
Mof_H 	H 	0.3529	0.4131	0.573	-0.002
Mof_H 	H 	0.2012	0.5834	0.7042	0.132
Mof_H 	H 	0.0106	0.595	0.6966	0.146
Mof_H 	H 	0.7747	0.7265	0.6942	0.14
Mof_H 	H 	0.6123	0.6653	0.6236	0.003
Mof_H 	H 	0.6626	0.8574	0.575	0.006
Mof_H 	H 	0.7372	0.4178	0.5436	-0.008
Mof_H 	H 	0.8212	0.873	0.647	0.126
Mof_H 	H 	0.9041	0.4685	0.6116	0.131
Mof_H 	H 	0.8817	0.1855	0.6422	0.137
Mof_H 	H 	0.7201	0.1599	0.573	-0.001
Mof_H 	H 	0.003	0.1208	0.7042	0.127
Mof_H 	H 	0.5327	0.2827	0.5654	-0.11
Mof_H 	H 	0.7173	0.4673	0.9346	-0.104
Mof_H 	H 	0.4673	0.7173	0.4346	-0.109
Mof_H 	H 	0.2827	0.5327	0.0654	-0.11
Mof_C 	C 	0.62257	0.28417	0.15514	0.219
Mof_C 	C 	0.052	0.29908	0.15988	0.219
Mof_C 	C 	0.99919	0.39379	0.16358	-0.233
Mof_C 	C 	0.9946	0.4486	0.121	0.148
Mof_C 	C 	0.66452	0.38292	0.08964	0.135
Mof_C 	C 	0.09318	0.32838	0.07416	0.135
Mof_C 	C 	0.69931	0.33031	0.13282	-0.231
Mof_C 	C 	0.10337	0.26777	0.11434	-0.236
Mof_C 	C 	0.51235	0.29235	0.1303	-0.246
Mof_C 	C 	0.48714	0.34754	0.08828	0.145
Mof_C 	C 	0.03257	0.87097	0.15514	0.209
Mof_C 	C 	0.60788	0.8608	0.15988	0.228
Mof_C 	C 	0.66439	0.76979	0.16358	-0.24
Mof_C 	C 	0.6264	0.6724	0.121	0.145
Mof_C 	C 	0.92512	0.70672	0.08964	0.137
Mof_C 	C 	0.48098	0.74578	0.07416	0.139
Mof_C 	C 	0.93351	0.80251	0.13282	-0.218
Mof_C 	C 	0.51097	0.84657	0.11434	-0.238
Mof_C 	C 	0.11795	0.83795	0.1303	-0.241
Mof_C 	C 	0.10114	0.74074	0.08828	0.142
Mof_C 	C 	0.71583	0.37743	0.34486	0.22
Mof_C 	C 	0.70092	0.948	0.34012	0.243
Mof_C 	C 	0.60621	0.00081	0.33642	-0.255
Mof_C 	C 	0.5514	0.0054	0.379	0.142
Mof_C 	C 	0.61708	0.33548	0.41036	0.136
Mof_C 	C 	0.67162	0.90682	0.42584	0.146
Mof_C 	C 	0.66969	0.30069	0.36718	-0.229
Mof_C 	C 	0.73223	0.89663	0.38566	-0.243
Mof_C 	C 	0.70765	0.48765	0.3697	-0.245
Mof_C 	C 	0.65246	0.51286	0.41172	0.148
Mof_C 	C 	0.12903	0.96743	0.34486	0.23
Mof_C 	C 	0.1392	0.39212	0.34012	0.228
Mof_C 	C 	0.23021	0.33561	0.33642	-0.242
Mof_C 	C 	0.3276	0.3736	0.379	0.147
Mof_C 	C 	0.29328	0.07488	0.41036	0.131
Mof_C 	C 	0.25422	0.51902	0.42584	0.14
Mof_C 	C 	0.19749	0.06649	0.36718	-0.239
Mof_C 	C 	0.15343	0.48903	0.38566	-0.239
Mof_C 	C 	0.16205	0.88205	0.3697	-0.249
Mof_C 	C 	0.25926	0.89886	0.41172	0.151
Mof_C 	C 	0.37743	0.71583	0.84486	0.221
Mof_C 	C 	0.948	0.70092	0.84012	0.242
Mof_C 	C 	0.00081	0.60621	0.83642	-0.253
Mof_C 	C 	0.0054	0.5514	0.879	0.143
Mof_C 	C 	0.33548	0.61708	0.91036	0.137
Mof_C 	C 	0.90682	0.67162	0.92584	0.146
Mof_C 	C 	0.30069	0.66969	0.86718	-0.226
Mof_C 	C 	0.89663	0.73223	0.88566	-0.24
Mof_C 	C 	0.48765	0.70765	0.8697	-0.243
Mof_C 	C 	0.51286	0.65246	0.91172	0.149
Mof_C 	C 	0.96743	0.12903	0.84486	0.228
Mof_C 	C 	0.39212	0.1392	0.84012	0.229
Mof_C 	C 	0.33561	0.23021	0.83642	-0.241
Mof_C 	C 	0.3736	0.3276	0.879	0.148
Mof_C 	C 	0.07488	0.29328	0.91036	0.132
Mof_C 	C 	0.51902	0.25422	0.92584	0.141
Mof_C 	C 	0.06649	0.19749	0.86718	-0.234
Mof_C 	C 	0.48903	0.15343	0.88566	-0.237
Mof_C 	C 	0.88205	0.16205	0.8697	-0.247
Mof_C 	C 	0.89886	0.25926	0.91172	0.152
Mof_C 	C 	0.28417	0.62257	0.65514	0.22
Mof_C 	C 	0.29908	0.052	0.65988	0.218
Mof_C 	C 	0.39379	0.99919	0.66358	-0.231
Mof_C 	C 	0.4486	0.9946	0.621	0.151
Mof_C 	C 	0.38292	0.66452	0.58964	0.136
Mof_C 	C 	0.32838	0.09318	0.57416	0.136
Mof_C 	C 	0.33031	0.69931	0.63282	-0.229
Mof_C 	C 	0.26777	0.10337	0.61434	-0.235
Mof_C 	C 	0.29235	0.51235	0.6303	-0.245
Mof_C 	C 	0.34754	0.48714	0.58828	0.147
Mof_C 	C 	0.87097	0.03257	0.65514	0.206
Mof_C 	C 	0.8608	0.60788	0.65988	0.229
Mof_C 	C 	0.76979	0.66439	0.66358	-0.24
Mof_C 	C 	0.6724	0.6264	0.621	0.147
Mof_C 	C 	0.70672	0.92512	0.58964	0.14
Mof_C 	C 	0.74578	0.48098	0.57416	0.141
Mof_C 	C 	0.80251	0.93351	0.63282	-0.214
Mof_C 	C 	0.84657	0.51097	0.61434	-0.237
Mof_C 	C 	0.83795	0.11795	0.6303	-0.239
Mof_C 	C 	0.74074	0.10114	0.58828	0.142
Mof_C 	C 	0.51242	0.26242	0.52484	0.468
Mof_C 	C 	0.73758	0.48758	0.97516	0.456
Mof_C 	C 	0.48758	0.73758	0.47516	0.466
Mof_C 	C 	0.26242	0.51242	0.02484	0.469
Mof_N 	N 	0.86488	0.24898	0.2226	-0.179
Mof_N 	N 	0.05727	0.23527	0.19906	-0.257
Mof_N 	N 	0.64872	0.22556	0.19758	-0.231
Mof_N 	N 	0.03904	0.41764	0.07628	-0.176
Mof_N 	N 	0.56032	0.39412	0.06764	-0.175
Mof_N 	N 	0.85772	0.97362	0.2226	-0.169
Mof_N 	N 	0.64179	0.96379	0.19906	-0.243
Mof_N 	N 	0.04886	0.97202	0.19758	-0.224
Mof_N 	N 	0.53724	0.65864	0.07628	-0.173
Mof_N 	N 	0.00732	0.67352	0.06764	-0.178
Mof_N 	N 	0.75102	0.13512	0.2774	-0.177
Mof_N 	N 	0.76473	0.94273	0.30094	-0.253
Mof_N 	N 	0.77444	0.35128	0.30242	-0.23
Mof_N 	N 	0.58236	0.96096	0.42372	-0.167
Mof_N 	N 	0.60588	0.43968	0.43236	-0.173
Mof_N 	N 	0.02638	0.14228	0.2774	-0.182
Mof_N 	N 	0.03621	0.35821	0.30094	-0.263
Mof_N 	N 	0.02798	0.95114	0.30242	-0.236
Mof_N 	N 	0.34136	0.46276	0.42372	-0.172
Mof_N 	N 	0.32648	0.99268	0.43236	-0.167
Mof_N 	N 	0.13512	0.75102	0.7774	-0.177
Mof_N 	N 	0.94273	0.76473	0.80094	-0.253
Mof_N 	N 	0.35128	0.77444	0.80242	-0.23
Mof_N 	N 	0.96096	0.58236	0.92372	-0.161
Mof_N 	N 	0.43968	0.60588	0.93236	-0.166
Mof_N 	N 	0.14228	0.02638	0.7774	-0.182
Mof_N 	N 	0.35821	0.03621	0.80094	-0.264
Mof_N 	N 	0.95114	0.02798	0.80242	-0.237
Mof_N 	N 	0.46276	0.34136	0.92372	-0.166
Mof_N 	N 	0.99268	0.32648	0.93236	-0.161
Mof_N 	N 	0.24898	0.86488	0.7226	-0.178
Mof_N 	N 	0.23527	0.05727	0.69906	-0.257
Mof_N 	N 	0.22556	0.64872	0.69758	-0.231
Mof_N 	N 	0.41764	0.03904	0.57628	-0.176
Mof_N 	N 	0.39412	0.56032	0.56764	-0.173
Mof_N 	N 	0.97362	0.85772	0.7226	-0.169
Mof_N 	N 	0.96379	0.64179	0.69906	-0.245
Mof_N 	N 	0.97202	0.04886	0.69758	-0.225
Mof_N 	N 	0.65864	0.53724	0.57628	-0.172
Mof_N 	N 	0.67352	0.00732	0.56764	-0.177
Mof_O 	O 	0.46088	0.32488	0.50156	-0.344
Mof_O 	O 	0.54068	0.17668	0.50156	-0.344
Mof_O 	O 	0.67512	0.53912	0.99844	-0.324
Mof_O 	O 	0.82332	0.45932	0.99844	-0.322
Mof_O 	O 	0.53912	0.67512	0.49844	-0.343
Mof_O 	O 	0.45932	0.82332	0.49844	-0.34
Mof_O 	O 	0.32488	0.46088	0.00156	-0.353
Mof_O 	O 	0.17668	0.54068	0.00156	-0.352
Mof_Cl	Cl	0.88591	0.63591	0.27182	-0.217
Mof_O 	O 	0.9921	0.6583	0.2596	-0.048
Mof_O 	O 	0.9384	0.5658	0.3034	-0.059
Mof_O 	O 	0.7675	0.6013	0.2596	-0.051
Mof_O 	O 	0.865	0.7376	0.3034	-0.059
Mof_Cl	Cl	0.36409	0.11409	0.22818	-0.215
Mof_O 	O 	0.3417	0.0079	0.2404	-0.055
Mof_O 	O 	0.4342	0.0616	0.1966	-0.064
Mof_O 	O 	0.3987	0.2325	0.2404	-0.052
Mof_O 	O 	0.2624	0.135	0.1966	-0.063
Mof_Cl	Cl	0.11409	0.36409	0.72818	-0.215
Mof_O 	O 	0.0079	0.3417	0.7404	-0.054
Mof_O 	O 	0.0616	0.4342	0.6966	-0.063
Mof_O 	O 	0.2325	0.3987	0.7404	-0.052
Mof_O 	O 	0.135	0.2624	0.6966	-0.062
Mof_Cl	Cl	0.63591	0.88591	0.77182	-0.218
Mof_O 	O 	0.6583	0.9921	0.7596	-0.048
Mof_O 	O 	0.5658	0.9384	0.8034	-0.058
Mof_O 	O 	0.6013	0.7675	0.7596	-0.051
Mof_O 	O 	0.7376	0.865	0.8034	-0.058
_end
