data_functionalizedCrystal
_audit_creation_method	'EQeq! by Chris Wilmer'
_symmetry_space_group_name_H-M	'P1'
_symmetry_Int_Tables_number	1
_symmetry_cell_setting	triclinic
loop_
_symmetry_equiv_pos_as_xyz
  x,y,z
_cell_length_a	14.5755
_cell_length_b	14.5755
_cell_length_c	14.5755
_cell_angle_alpha	109.471
_cell_angle_beta	109.471
_cell_angle_gamma	109.471
loop_
_atom_site_label
_atom_site_type_symbol
_atom_site_fract_x
_atom_site_fract_y
_atom_site_fract_z
_atom_site_charge
Mof_Zn	Zn	0.75	0.5	0.25	1.171
Mof_Zn	Zn	0.25	0.5	0.75	1.171
Mof_Zn	Zn	0.25	0.75	0.5	1.171
Mof_Zn	Zn	0.75	0.25	0.5	1.172
Mof_Zn	Zn	0.5	0.75	0.25	1.172
Mof_Zn	Zn	0.5	0.25	0.75	1.172
Mof_H 	H 	0.669	0.5373	0.4349	-0.003
Mof_H 	H 	0.1024	0.2341	0.5651	-0.002
Mof_H 	H 	0.8976	0.4627	0.1317	-0.006
Mof_H 	H 	0.331	0.7659	0.8683	-0.002
Mof_H 	H 	0.1317	0.8976	0.4627	-0.006
Mof_H 	H 	0.8683	0.331	0.7659	-0.002
Mof_H 	H 	0.4349	0.669	0.5373	-0.003
Mof_H 	H 	0.5651	0.1024	0.2341	-0.002
Mof_H 	H 	0.2341	0.5651	0.1024	-0.002
Mof_H 	H 	0.5373	0.4349	0.669	-0.003
Mof_H 	H 	0.7659	0.8683	0.331	-0.002
Mof_H 	H 	0.4627	0.1317	0.8976	-0.006
Mof_H 	H 	0.2341	0.1024	0.5651	-0.002
Mof_H 	H 	0.5373	0.669	0.4349	-0.003
Mof_H 	H 	0.7659	0.331	0.8683	-0.002
Mof_H 	H 	0.4627	0.8976	0.1317	-0.006
Mof_H 	H 	0.669	0.4349	0.5373	-0.003
Mof_H 	H 	0.1024	0.5651	0.2341	-0.002
Mof_H 	H 	0.8976	0.1317	0.4627	-0.006
Mof_H 	H 	0.331	0.8683	0.7659	-0.002
Mof_H 	H 	0.1317	0.4627	0.8976	-0.006
Mof_H 	H 	0.8683	0.7659	0.331	-0.002
Mof_H 	H 	0.4349	0.5373	0.669	-0.003
Mof_H 	H 	0.5651	0.2341	0.1024	-0.002
Mof_H 	H 	0.803	0.3584	0.3584	-0.074
Mof_H 	H 	-3.577e-17	0.4446	0.6416	-0.074
Mof_H 	H 	-7.15401e-17	0.6416	0.4446	-0.074
Mof_H 	H 	0.197	0.5554	0.5554	-0.075
Mof_H 	H 	0.4446	4.76934e-17	0.6416	-0.074
Mof_H 	H 	0.5554	0.197	0.5554	-0.075
Mof_H 	H 	0.3584	0.803	0.3584	-0.074
Mof_H 	H 	0.6416	0	0.4446	-0.074
Mof_H 	H 	0.4446	0.6416	-0	-0.074
Mof_H 	H 	0.3584	0.3584	0.803	-0.074
Mof_H 	H 	0.5554	0.5554	0.197	-0.075
Mof_H 	H 	0.6416	0.4446	-0	-0.074
Mof_C 	C 	0.6912	0.482	0.4258	-0.01
Mof_C 	C 	0.0562	0.2654	0.5742	-0.018
Mof_C 	C 	0.9438	0.518	0.2092	-0.003
Mof_C 	C 	0.3088	0.7346	0.7908	-0.01
Mof_C 	C 	0.2092	0.9438	0.518	-0.003
Mof_C 	C 	0.7908	0.3088	0.7346	-0.01
Mof_C 	C 	0.4258	0.6912	0.482	-0.01
Mof_C 	C 	0.5742	0.0562	0.2654	-0.018
Mof_C 	C 	0.2654	0.5742	0.0562	-0.018
Mof_C 	C 	0.482	0.4258	0.6912	-0.01
Mof_C 	C 	0.7346	0.7908	0.3088	-0.01
Mof_C 	C 	0.518	0.2092	0.9438	-0.003
Mof_C 	C 	0.2654	0.0562	0.5742	-0.018
Mof_C 	C 	0.482	0.6912	0.4258	-0.01
Mof_C 	C 	0.7346	0.3088	0.7908	-0.01
Mof_C 	C 	0.518	0.9438	0.2092	-0.003
Mof_C 	C 	0.6912	0.4258	0.482	-0.01
Mof_C 	C 	0.0562	0.5742	0.2654	-0.018
Mof_C 	C 	0.9438	0.2092	0.518	-0.003
Mof_C 	C 	0.3088	0.7908	0.7346	-0.01
Mof_C 	C 	0.2092	0.518	0.9438	-0.003
Mof_C 	C 	0.7908	0.7346	0.3088	-0.01
Mof_C 	C 	0.4258	0.482	0.6912	-0.01
Mof_C 	C 	0.5742	0.2654	0.0562	-0.018
Mof_C 	C 	0.75874	0.38327	0.38327	0.123
Mof_C 	C 	-2.38467e-17	0.37547	0.61673	0.118
Mof_C 	C 	-3.577e-17	0.61673	0.37547	0.118
Mof_C 	C 	0.24126	0.62453	0.62453	0.123
Mof_C 	C 	0.37547	0	0.61673	0.118
Mof_C 	C 	0.62453	0.24126	0.62453	0.123
Mof_C 	C 	0.38327	0.75874	0.38327	0.123
Mof_C 	C 	0.61673	0	0.37547	0.118
Mof_C 	C 	0.37547	0.61673	-0	0.118
Mof_C 	C 	0.38327	0.38327	0.75874	0.123
Mof_C 	C 	0.62453	0.62453	0.24126	0.123
Mof_C 	C 	0.61673	0.37547	-0	0.118
Mof_N 	N 	0.72781	0.44744	0.35373	-0.303
Mof_N 	N 	0.09371	0.37408	0.64627	-0.302
Mof_N 	N 	0.90629	0.55256	0.28037	-0.302
Mof_N 	N 	0.27219	0.62592	0.71963	-0.303
Mof_N 	N 	0.28037	0.90629	0.55256	-0.302
Mof_N 	N 	0.71963	0.27219	0.62592	-0.303
Mof_N 	N 	0.35373	0.72781	0.44744	-0.303
Mof_N 	N 	0.64627	0.09371	0.37408	-0.302
Mof_N 	N 	0.37408	0.64627	0.09371	-0.302
Mof_N 	N 	0.44744	0.35373	0.72781	-0.303
Mof_N 	N 	0.62592	0.71963	0.27219	-0.303
Mof_N 	N 	0.55256	0.28037	0.90629	-0.302
Mof_N 	N 	0.37408	0.09371	0.64627	-0.302
Mof_N 	N 	0.44744	0.72781	0.35373	-0.303
Mof_N 	N 	0.62592	0.27219	0.71963	-0.303
Mof_N 	N 	0.55256	0.90629	0.28037	-0.302
Mof_N 	N 	0.72781	0.35373	0.44744	-0.303
Mof_N 	N 	0.09371	0.64627	0.37408	-0.302
Mof_N 	N 	0.90629	0.28037	0.55256	-0.302
Mof_N 	N 	0.27219	0.71963	0.62592	-0.303
Mof_N 	N 	0.28037	0.55256	0.90629	-0.302
Mof_N 	N 	0.71963	0.62592	0.27219	-0.303
Mof_N 	N 	0.35373	0.44744	0.72781	-0.303
Mof_N 	N 	0.64627	0.37408	0.09371	-0.302
_end
