# CIF file generated by openbabel 3.1.0, see https://openbabel.org
data_I
_chemical_name_common 'image0'
_cell_length_a 5.9778
_cell_length_b 16.6747
_cell_length_c 8.466
_cell_angle_alpha 90
_cell_angle_beta 90.384
_cell_angle_gamma 90
_space_group_name_H-M_alt 'P 1'
_space_group_name_Hall 'P 1'
loop_
    _symmetry_equiv_pos_as_xyz
    x,y,z
loop_
    _atom_site_label
    _atom_site_type_symbol
    _atom_site_fract_x
    _atom_site_fract_y
    _atom_site_fract_z
    _atom_site_occupancy
    Mn1      Mn       0.51530    0.17646    0.50446    1.000
    P1       P        0.00710    0.24515    0.37750    1.000
    O1       O        0.82340    0.24400    0.50080    1.000
    O2       O        0.72370    0.06490    0.53820    1.000
    O3       O        0.71930    0.93090    0.51500    1.000
    O4       O        0.00480    0.16050    0.28740    1.000
    O5       O        0.23730    0.25570    0.45070    1.000
    O6       O        0.95850    0.30680    0.25020    1.000
    C1       C        0.62880    0.99900    0.51600    1.000
    H1       H        0.04000    0.12700    0.33300    1.000
    Mn2      Mn       0.98470    0.67646    0.99554    1.000
    P2       P        0.49290    0.74515    0.12250    1.000
    O7       O        0.67660    0.74400    0.99920    1.000
    O8       O        0.77630    0.56490    0.96180    1.000
    O9       O        0.78070    0.43090    0.98500    1.000
    O10      O        0.49520    0.66050    0.21260    1.000
    O11      O        0.26270    0.75570    0.04930    1.000
    O12      O        0.54150    0.80680    0.24980    1.000
    C2       C        0.87120    0.49900    0.98400    1.000
    H2       H        0.46000    0.62700    0.16700    1.000
    Mn3      Mn       0.48470    0.82354    0.49554    1.000
    P3       P        0.99290    0.75485    0.62250    1.000
    O13      O        0.17660    0.75600    0.49920    1.000
    O14      O        0.27630    0.93510    0.46180    1.000
    O15      O        0.28070    0.06910    0.48500    1.000
    O16      O        0.99520    0.83950    0.71260    1.000
    O17      O        0.76270    0.74430    0.54930    1.000
    O18      O        0.04150    0.69320    0.74980    1.000
    C3       C        0.37120    0.00100    0.48400    1.000
    H3       H        0.96000    0.87300    0.66700    1.000
    Mn4      Mn       0.01530    0.32354    0.00446    1.000
    P4       P        0.50710    0.25485    0.87750    1.000
    O19      O        0.32340    0.25600    0.00080    1.000
    O20      O        0.22370    0.43510    0.03820    1.000
    O21      O        0.21930    0.56910    0.01500    1.000
    O22      O        0.50480    0.33950    0.78740    1.000
    O23      O        0.73730    0.24430    0.95070    1.000
    O24      O        0.45850    0.19320    0.75020    1.000
    C4       C        0.12880    0.50100    0.01600    1.000
    H4       H        0.54000    0.37300    0.83300    1.000
