# CIF file generated by openbabel 3.1.0, see https://openbabel.org
data_I
_chemical_name_common 'MICNIW_clean'
_cell_length_a 12.8267
_cell_length_b 12.8267
_cell_length_c 16.69
_cell_angle_alpha 108.682
_cell_angle_beta 108.682
_cell_angle_gamma 95.9725
_space_group_name_H-M_alt 'P 1'
_space_group_name_Hall 'P 1'
loop_
    _symmetry_equiv_pos_as_xyz
    x,y,z
loop_
    _atom_site_label
    _atom_site_type_symbol
    _atom_site_fract_x
    _atom_site_fract_y
    _atom_site_fract_z
    _atom_site_occupancy
    Cd1      Cd       0.62074    0.37926    0.25000    1.000
    Cd2      Cd       0.37926    0.62074    0.75000    1.000
    H1       H        0.84900    0.31060    0.22660    1.000
    H2       H        0.54610    0.22930    0.03700    1.000
    H3       H        0.92180    0.21880    0.12090    1.000
    H4       H        0.60960    0.13320    0.92620    1.000
    H5       H        0.84010    0.16010    0.91190    1.000
    H6       H        0.75040    0.04620    0.88520    1.000
    H7       H        0.73040    0.63180    0.40670    1.000
    H8       H        0.43320    0.44060    0.33840    1.000
    H9       H        0.69100    0.78000    0.50600    1.000
    H10      H        0.38560    0.58400    0.43440    1.000
    H11      H        0.56260    0.81680    0.60810    1.000
    H12      H        0.43090    0.76990    0.54620    1.000
    H13      H        0.68940    0.15100    0.27340    1.000
    H14      H        0.77070    0.45390    0.46300    1.000
    H15      H        0.78120    0.07820    0.37910    1.000
    H16      H        0.86680    0.39040    0.57380    1.000
    H17      H        0.83990    0.15990    0.58810    1.000
    H18      H        0.95380    0.24960    0.61480    1.000
    H19      H        0.36820    0.26960    0.09330    1.000
    H20      H        0.55940    0.56680    0.16160    1.000
    H21      H        0.22000    0.30900    0.99400    1.000
    H22      H        0.41600    0.61440    0.06560    1.000
    H23      H        0.18320    0.43740    0.89190    1.000
    H24      H        0.23010    0.56910    0.95380    1.000
    H25      H        0.15100    0.68940    0.77340    1.000
    H26      H        0.45390    0.77070    0.96300    1.000
    H27      H        0.07820    0.78120    0.87910    1.000
    H28      H        0.39040    0.86680    0.07380    1.000
    H29      H        0.15990    0.83990    0.08810    1.000
    H30      H        0.24960    0.95380    0.11480    1.000
    H31      H        0.26960    0.36820    0.59330    1.000
    H32      H        0.56680    0.55940    0.66160    1.000
    H33      H        0.30900    0.22000    0.49400    1.000
    H34      H        0.61440    0.41600    0.56560    1.000
    H35      H        0.43740    0.18320    0.39190    1.000
    H36      H        0.56910    0.23010    0.45380    1.000
    H37      H        0.31060    0.84900    0.72660    1.000
    H38      H        0.22930    0.54610    0.53700    1.000
    H39      H        0.21880    0.92180    0.62090    1.000
    H40      H        0.13320    0.60960    0.42620    1.000
    H41      H        0.16010    0.84010    0.41190    1.000
    H42      H        0.04620    0.75040    0.38520    1.000
    H43      H        0.63180    0.73040    0.90670    1.000
    H44      H        0.44060    0.43320    0.83840    1.000
    H45      H        0.78000    0.69100    0.00600    1.000
    H46      H        0.58400    0.38560    0.93440    1.000
    H47      H        0.81680    0.56260    0.10810    1.000
    H48      H        0.76990    0.43090    0.04620    1.000
    C1       C        0.79961    0.27445    0.16440    1.000
    C2       C        0.62375    0.22699    0.05441    1.000
    C3       C        0.84388    0.21964    0.10166    1.000
    C4       C        0.66111    0.16983    0.98765    1.000
    C5       C        0.77380    0.16584    0.01041    1.000
    C6       C        0.81458    0.10522    0.93595    1.000
    C7       C        0.90999    0.05083    0.96822    1.000
    C8       C        0.02209    0.10817    0.00477    1.000
    C9       C        0.10929    0.05891    0.03529    1.000
    C10      C        0.65867    0.62177    0.41179    1.000
    C11      C        0.48638    0.51134    0.37223    1.000
    C12      C        0.63550    0.71098    0.47123    1.000
    C13      C        0.45728    0.59652    0.42961    1.000
    C14      C        0.53264    0.70030    0.48023    1.000
    C15      C        0.50588    0.79642    0.54581    1.000
    C16      C        0.50521    0.90109    0.52241    1.000
    C17      C        0.41824    0.90376    0.44824    1.000
    C18      C        0.41289    0.99953    0.42718    1.000
    C19      C        0.72555    0.20039    0.33560    1.000
    C20      C        0.77301    0.37625    0.44559    1.000
    C21      C        0.78036    0.15612    0.39834    1.000
    C22      C        0.83017    0.33889    0.51235    1.000
    C23      C        0.83416    0.22620    0.48959    1.000
    C24      C        0.89478    0.18542    0.56405    1.000
    C25      C        0.94917    0.09001    0.53178    1.000
    C26      C        0.89183    0.97791    0.49523    1.000
    C27      C        0.94109    0.89071    0.46471    1.000
    C28      C        0.37823    0.34133    0.08821    1.000
    C29      C        0.48866    0.51362    0.12777    1.000
    C30      C        0.28902    0.36450    0.02877    1.000
    C31      C        0.40348    0.54272    0.07039    1.000
    C32      C        0.29970    0.46736    0.01977    1.000
    C33      C        0.20358    0.49412    0.95419    1.000
    C34      C        0.09891    0.49479    0.97759    1.000
    C35      C        0.09624    0.58176    0.05176    1.000
    C36      C        0.00047    0.58711    0.07282    1.000
    C37      C        0.20039    0.72555    0.83560    1.000
    C38      C        0.37625    0.77301    0.94559    1.000
    C39      C        0.15612    0.78036    0.89834    1.000
    C40      C        0.33889    0.83017    0.01235    1.000
    C41      C        0.22620    0.83416    0.98959    1.000
    C42      C        0.18542    0.89478    0.06405    1.000
    C43      C        0.09001    0.94917    0.03178    1.000
    C44      C        0.97791    0.89183    0.99523    1.000
    C45      C        0.89071    0.94109    0.96471    1.000
    C46      C        0.34133    0.37823    0.58821    1.000
    C47      C        0.51362    0.48866    0.62777    1.000
    C48      C        0.36450    0.28902    0.52877    1.000
    C49      C        0.54272    0.40348    0.57039    1.000
    C50      C        0.46736    0.29970    0.51977    1.000
    C51      C        0.49412    0.20358    0.45419    1.000
    C52      C        0.49479    0.09891    0.47759    1.000
    C53      C        0.58176    0.09624    0.55176    1.000
    C54      C        0.58711    0.00047    0.57282    1.000
    C55      C        0.27445    0.79961    0.66440    1.000
    C56      C        0.22699    0.62375    0.55441    1.000
    C57      C        0.21964    0.84388    0.60166    1.000
    C58      C        0.16983    0.66111    0.48765    1.000
    C59      C        0.16584    0.77380    0.51041    1.000
    C60      C        0.10522    0.81458    0.43595    1.000
    C61      C        0.05083    0.90999    0.46822    1.000
    C62      C        0.10817    0.02209    0.50477    1.000
    C63      C        0.05891    0.10929    0.53529    1.000
    C64      C        0.62177    0.65867    0.91179    1.000
    C65      C        0.51134    0.48638    0.87223    1.000
    C66      C        0.71098    0.63550    0.97123    1.000
    C67      C        0.59652    0.45728    0.92961    1.000
    C68      C        0.70030    0.53264    0.98023    1.000
    C69      C        0.79642    0.50588    0.04581    1.000
    C70      C        0.90109    0.50521    0.02241    1.000
    C71      C        0.90376    0.41824    0.94824    1.000
    C72      C        0.99953    0.41289    0.92718    1.000
    N1       N        0.69102    0.27924    0.14229    1.000
    N2       N        0.58534    0.52248    0.36134    1.000
    N3       N        0.72076    0.30898    0.35771    1.000
    N4       N        0.47752    0.41466    0.13866    1.000
    N5       N        0.30898    0.72076    0.85771    1.000
    N6       N        0.41466    0.47752    0.63866    1.000
    N7       N        0.27924    0.69102    0.64229    1.000
    N8       N        0.52248    0.58534    0.86134    1.000
    F1       F        0.04719    0.21601    0.01111    1.000
    F2       F        0.21686    0.11996    0.06975    1.000
    F3       F        0.33596    0.80914    0.39440    1.000
    F4       F        0.32404    0.99300    0.35384    1.000
    F5       F        0.78399    0.95281    0.48889    1.000
    F6       F        0.88004    0.78314    0.43025    1.000
    F7       F        0.19086    0.66404    0.10560    1.000
    F8       F        0.00700    0.67596    0.14616    1.000
    F9       F        0.95281    0.78399    0.98889    1.000
    F10      F        0.78314    0.88004    0.93025    1.000
    F11      F        0.66404    0.19086    0.60560    1.000
    F12      F        0.67596    0.00700    0.64616    1.000
    F13      F        0.21601    0.04719    0.51111    1.000
    F14      F        0.11996    0.21686    0.56975    1.000
    F15      F        0.80914    0.33596    0.89440    1.000
    F16      F        0.99300    0.32404    0.85384    1.000
