# CIF file generated by openbabel 3.1.0, see https://openbabel.org
data_I
_chemical_name_common 'image0'
_cell_length_a 10.725
_cell_length_b 15.204
_cell_length_c 17.3541
_cell_angle_alpha 90
_cell_angle_beta 99.413
_cell_angle_gamma 90
_space_group_name_H-M_alt 'P 1'
_space_group_name_Hall 'P 1'
loop_
    _symmetry_equiv_pos_as_xyz
    x,y,z
loop_
    _atom_site_label
    _atom_site_type_symbol
    _atom_site_fract_x
    _atom_site_fract_y
    _atom_site_fract_z
    _atom_site_occupancy
    Ba1      Ba       0.17907    0.02779    0.44326    1.000
    V1       V        0.19038    0.40854    0.34275    1.000
    O1       O        0.00860    0.37620    0.34110    1.000
    O2       O        0.84040    0.40060    0.39950    1.000
    O3       O        0.12390    0.51250    0.41290    1.000
    O4       O        0.93840    0.56710    0.43510    1.000
    O5       O        0.02650    0.07410    0.16420    1.000
    O6       O        0.14550    0.96850    0.12540    1.000
    O7       O        0.21770    0.10650    0.28840    1.000
    O8       O        0.33180    0.00440    0.23910    1.000
    O9       O        0.23260    0.34730    0.44640    1.000
    O10      O        0.15650    0.21210    0.41410    1.000
    O11      O        0.21920    0.32880    0.28620    1.000
    O12      O        0.04980    0.88700    0.49940    1.000
    H1       H        0.02500    0.85500    0.46300    1.000
    H2       H        0.09000    0.86100    0.53100    1.000
    C1       C        0.94320    0.42150    0.38240    1.000
    C2       C        0.00510    0.51000    0.41270    1.000
    C3       C        0.12490    0.03130    0.17130    1.000
    C4       C        0.23340    0.05020    0.23990    1.000
    C5       C        0.21610    0.26560    0.45920    1.000
    Ba2      Ba       0.67907    0.52779    0.44326    1.000
    V2       V        0.69038    0.90854    0.34275    1.000
    O13      O        0.50860    0.87620    0.34110    1.000
    O14      O        0.34040    0.90060    0.39950    1.000
    O15      O        0.62390    0.01250    0.41290    1.000
    O16      O        0.43840    0.06710    0.43510    1.000
    O17      O        0.52650    0.57410    0.16420    1.000
    O18      O        0.64550    0.46850    0.12540    1.000
    O19      O        0.71770    0.60650    0.28840    1.000
    O20      O        0.83180    0.50440    0.23910    1.000
    O21      O        0.73260    0.84730    0.44640    1.000
    O22      O        0.65650    0.71210    0.41410    1.000
    O23      O        0.71920    0.82880    0.28620    1.000
    O24      O        0.54980    0.38700    0.49940    1.000
    H3       H        0.52500    0.35500    0.46300    1.000
    H4       H        0.59000    0.36100    0.53100    1.000
    C6       C        0.44320    0.92150    0.38240    1.000
    C7       C        0.50510    0.01000    0.41270    1.000
    C8       C        0.62490    0.53130    0.17130    1.000
    C9       C        0.73340    0.55020    0.23990    1.000
    C10      C        0.71610    0.76560    0.45920    1.000
    Ba3      Ba       0.82093    0.02779    0.05674    1.000
    V3       V        0.80962    0.40854    0.15725    1.000
    O25      O        0.99140    0.37620    0.15890    1.000
    O26      O        0.15960    0.40060    0.10050    1.000
    O27      O        0.87610    0.51250    0.08710    1.000
    O28      O        0.06160    0.56710    0.06490    1.000
    O29      O        0.97350    0.07410    0.33580    1.000
    O30      O        0.85450    0.96850    0.37460    1.000
    O31      O        0.78230    0.10650    0.21160    1.000
    O32      O        0.66820    0.00440    0.26090    1.000
    O33      O        0.76740    0.34730    0.05360    1.000
    O34      O        0.84350    0.21210    0.08590    1.000
    O35      O        0.78080    0.32880    0.21380    1.000
    O36      O        0.95020    0.88700    0.00060    1.000
    H5       H        0.97500    0.85500    0.03700    1.000
    H6       H        0.91000    0.86100    0.96900    1.000
    C11      C        0.05680    0.42150    0.11760    1.000
    C12      C        0.99490    0.51000    0.08730    1.000
    C13      C        0.87510    0.03130    0.32870    1.000
    C14      C        0.76660    0.05020    0.26010    1.000
    C15      C        0.78390    0.26560    0.04080    1.000
    Ba4      Ba       0.32093    0.52779    0.05674    1.000
    V4       V        0.30962    0.90854    0.15725    1.000
    O37      O        0.49140    0.87620    0.15890    1.000
    O38      O        0.65960    0.90060    0.10050    1.000
    O39      O        0.37610    0.01250    0.08710    1.000
    O40      O        0.56160    0.06710    0.06490    1.000
    O41      O        0.47350    0.57410    0.33580    1.000
    O42      O        0.35450    0.46850    0.37460    1.000
    O43      O        0.28230    0.60650    0.21160    1.000
    O44      O        0.16820    0.50440    0.26090    1.000
    O45      O        0.26740    0.84730    0.05360    1.000
    O46      O        0.34350    0.71210    0.08590    1.000
    O47      O        0.28080    0.82880    0.21380    1.000
    O48      O        0.45020    0.38700    0.00060    1.000
    H7       H        0.47500    0.35500    0.03700    1.000
    H8       H        0.41000    0.36100    0.96900    1.000
    C16      C        0.55680    0.92150    0.11760    1.000
    C17      C        0.49490    0.01000    0.08730    1.000
    C18      C        0.37510    0.53130    0.32870    1.000
    C19      C        0.26660    0.55020    0.26010    1.000
    C20      C        0.28390    0.76560    0.04080    1.000
    Ba5      Ba       0.82093    0.97221    0.55674    1.000
    V5       V        0.80962    0.59146    0.65725    1.000
    O49      O        0.99140    0.62380    0.65890    1.000
    O50      O        0.15960    0.59940    0.60050    1.000
    O51      O        0.87610    0.48750    0.58710    1.000
    O52      O        0.06160    0.43290    0.56490    1.000
    O53      O        0.97350    0.92590    0.83580    1.000
    O54      O        0.85450    0.03150    0.87460    1.000
    O55      O        0.78230    0.89350    0.71160    1.000
    O56      O        0.66820    0.99560    0.76090    1.000
    O57      O        0.76740    0.65270    0.55360    1.000
    O58      O        0.84350    0.78790    0.58590    1.000
    O59      O        0.78080    0.67120    0.71380    1.000
    O60      O        0.95020    0.11300    0.50060    1.000
    H9       H        0.97500    0.14500    0.53700    1.000
    H10      H        0.91000    0.13900    0.46900    1.000
    C21      C        0.05680    0.57850    0.61760    1.000
    C22      C        0.99490    0.49000    0.58730    1.000
    C23      C        0.87510    0.96870    0.82870    1.000
    C24      C        0.76660    0.94980    0.76010    1.000
    C25      C        0.78390    0.73440    0.54080    1.000
    Ba6      Ba       0.32093    0.47221    0.55674    1.000
    V6       V        0.30962    0.09146    0.65725    1.000
    O61      O        0.49140    0.12380    0.65890    1.000
    O62      O        0.65960    0.09940    0.60050    1.000
    O63      O        0.37610    0.98750    0.58710    1.000
    O64      O        0.56160    0.93290    0.56490    1.000
    O65      O        0.47350    0.42590    0.83580    1.000
    O66      O        0.35450    0.53150    0.87460    1.000
    O67      O        0.28230    0.39350    0.71160    1.000
    O68      O        0.16820    0.49560    0.76090    1.000
    O69      O        0.26740    0.15270    0.55360    1.000
    O70      O        0.34350    0.28790    0.58590    1.000
    O71      O        0.28080    0.17120    0.71380    1.000
    O72      O        0.45020    0.61300    0.50060    1.000
    H11      H        0.47500    0.64500    0.53700    1.000
    H12      H        0.41000    0.63900    0.46900    1.000
    C26      C        0.55680    0.07850    0.61760    1.000
    C27      C        0.49490    0.99000    0.58730    1.000
    C28      C        0.37510    0.46870    0.82870    1.000
    C29      C        0.26660    0.44980    0.76010    1.000
    C30      C        0.28390    0.23440    0.54080    1.000
    Ba7      Ba       0.17907    0.97221    0.94326    1.000
    V7       V        0.19038    0.59146    0.84275    1.000
    O73      O        0.00860    0.62380    0.84110    1.000
    O74      O        0.84040    0.59940    0.89950    1.000
    O75      O        0.12390    0.48750    0.91290    1.000
    O76      O        0.93840    0.43290    0.93510    1.000
    O77      O        0.02650    0.92590    0.66420    1.000
    O78      O        0.14550    0.03150    0.62540    1.000
    O79      O        0.21770    0.89350    0.78840    1.000
    O80      O        0.33180    0.99560    0.73910    1.000
    O81      O        0.23260    0.65270    0.94640    1.000
    O82      O        0.15650    0.78790    0.91410    1.000
    O83      O        0.21920    0.67120    0.78620    1.000
    O84      O        0.04980    0.11300    0.99940    1.000
    H13      H        0.02500    0.14500    0.96300    1.000
    H14      H        0.09000    0.13900    0.03100    1.000
    C31      C        0.94320    0.57850    0.88240    1.000
    C32      C        0.00510    0.49000    0.91270    1.000
    C33      C        0.12490    0.96870    0.67130    1.000
    C34      C        0.23340    0.94980    0.73990    1.000
    C35      C        0.21610    0.73440    0.95920    1.000
    Ba8      Ba       0.67907    0.47221    0.94326    1.000
    V8       V        0.69038    0.09146    0.84275    1.000
    O85      O        0.50860    0.12380    0.84110    1.000
    O86      O        0.34040    0.09940    0.89950    1.000
    O87      O        0.62390    0.98750    0.91290    1.000
    O88      O        0.43840    0.93290    0.93510    1.000
    O89      O        0.52650    0.42590    0.66420    1.000
    O90      O        0.64550    0.53150    0.62540    1.000
    O91      O        0.71770    0.39350    0.78840    1.000
    O92      O        0.83180    0.49560    0.73910    1.000
    O93      O        0.73260    0.15270    0.94640    1.000
    O94      O        0.65650    0.28790    0.91410    1.000
    O95      O        0.71920    0.17120    0.78620    1.000
    O96      O        0.54980    0.61300    0.99940    1.000
    H15      H        0.52500    0.64500    0.96300    1.000
    H16      H        0.59000    0.63900    0.03100    1.000
    C36      C        0.44320    0.07850    0.88240    1.000
    C37      C        0.50510    0.99000    0.91270    1.000
    C38      C        0.62490    0.46870    0.67130    1.000
    C39      C        0.73340    0.44980    0.73990    1.000
    C40      C        0.71610    0.23440    0.95920    1.000
    Ba9      Ba       0.00000    0.22059    0.25000    1.000
    Ba10     Ba       0.50000    0.72059    0.25000    1.000
    Ba11     Ba       0.00000    0.77941    0.75000    1.000
    Ba12     Ba       0.50000    0.27941    0.75000    1.000
