data_functionalizedCrystal
_audit_creation_method	'EQeq! by Chris Wilmer'
_symmetry_space_group_name_H-M	'P1'
_symmetry_Int_Tables_number	1
_symmetry_cell_setting	triclinic
loop_
_symmetry_equiv_pos_as_xyz
  x,y,z
_cell_length_a	12.147
_cell_length_b	12.147
_cell_length_c	24.744
_cell_angle_alpha	90
_cell_angle_beta	90
_cell_angle_gamma	90
loop_
_atom_site_label
_atom_site_type_symbol
_atom_site_fract_x
_atom_site_fract_y
_atom_site_fract_z
_atom_site_charge
Mof_Fe	Fe	0.75	0.75	0.92112	0.598
Mof_Fe	Fe	0.25	0.25	0.42112	0.598
Mof_H 	H 	0.5844	0.569	0.8763	-0.03
Mof_H 	H 	0.5671	0.431	0.8146	0.141
Mof_H 	H 	0.8604	0.5174	0.7545	0.139
Mof_H 	H 	0.8713	0.6494	0.8203	-0.028
Mof_H 	H 	0.8026	0.411	0.6832	0.04
Mof_H 	H 	0.8549	0.3296	0.7256	0.046
Mof_H 	H 	0.8188	0.159	0.6095	0.039
Mof_H 	H 	0.9008	0.1744	0.6581	0.039
Mof_H 	H 	0.0896	0.1118	0.4948	-0.041
Mof_H 	H 	0.9635	0.1211	0.5634	0.142
Mof_H 	H 	0.0074	0.4443	0.5646	0.149
Mof_H 	H 	0.1301	0.4244	0.4949	-0.031
Mof_H 	H 	0.5307	0.8747	0.9171	0.05
Mof_H 	H 	0.9156	0.931	0.8763	-0.029
Mof_H 	H 	0.9329	0.069	0.8146	0.143
Mof_H 	H 	0.6396	0.9826	0.7545	0.14
Mof_H 	H 	0.6287	0.8506	0.8203	-0.027
Mof_H 	H 	0.6974	0.089	0.6832	0.041
Mof_H 	H 	0.6451	0.1704	0.7256	0.046
Mof_H 	H 	0.6812	0.341	0.6095	0.04
Mof_H 	H 	0.5992	0.3256	0.6581	0.04
Mof_H 	H 	0.4104	0.3882	0.4948	-0.04
Mof_H 	H 	0.5365	0.3789	0.5634	0.143
Mof_H 	H 	0.4926	0.0557	0.5646	0.149
Mof_H 	H 	0.3699	0.0756	0.4949	-0.031
Mof_H 	H 	0.9693	0.6253	0.9171	0.05
Mof_H 	H 	0.431	0.0844	0.3763	-0.029
Mof_H 	H 	0.569	0.0671	0.3146	0.143
Mof_H 	H 	0.4826	0.3604	0.2545	0.14
Mof_H 	H 	0.3506	0.3713	0.3203	-0.028
Mof_H 	H 	0.589	0.3026	0.1832	0.041
Mof_H 	H 	0.6704	0.3549	0.2256	0.047
Mof_H 	H 	0.841	0.3188	0.1095	0.04
Mof_H 	H 	0.8256	0.4008	0.1581	0.04
Mof_H 	H 	0.8882	0.5896	0.9948	-0.038
Mof_H 	H 	0.8789	0.4635	0.0634	0.142
Mof_H 	H 	0.5557	0.5074	0.0646	0.149
Mof_H 	H 	0.5756	0.6301	0.9949	-0.03
Mof_H 	H 	0.1253	0.0307	0.4171	0.05
Mof_H 	H 	0.069	0.4156	0.3763	-0.03
Mof_H 	H 	0.931	0.4329	0.3146	0.142
Mof_H 	H 	0.0174	0.1396	0.2545	0.14
Mof_H 	H 	0.1494	0.1287	0.3203	-0.027
Mof_H 	H 	0.911	0.1974	0.1832	0.041
Mof_H 	H 	0.8296	0.1451	0.2256	0.046
Mof_H 	H 	0.659	0.1812	0.1095	0.04
Mof_H 	H 	0.6744	0.0992	0.1581	0.04
Mof_H 	H 	0.6118	0.9104	0.9948	-0.037
Mof_H 	H 	0.6211	0.0365	0.0634	0.141
Mof_H 	H 	0.9443	0.9926	0.0646	0.148
Mof_H 	H 	0.9244	0.8699	0.9949	-0.028
Mof_H 	H 	0.3747	0.4693	0.4171	0.05
Mof_C 	C 	0.6419	0.5571	0.85212	0.163
Mof_C 	C 	0.6303	0.4743	0.81514	-0.291
Mof_C 	C 	0.7148	0.456	0.7783	0.301
Mof_C 	C 	0.804	0.5246	0.77972	-0.297
Mof_C 	C 	0.8092	0.6048	0.8192	0.164
Mof_C 	C 	0.7881	0.3478	0.70612	0.019
Mof_C 	C 	0.8456	0.211	0.63622	0.024
Mof_C 	C 	0.0718	0.1808	0.50856	0.184
Mof_C 	C 	0.995	0.1853	0.55	-0.317
Mof_C 	C 	0.9664	0.2855	0.57077	0.328
Mof_C 	C 	0.0207	0.3747	0.55041	-0.309
Mof_C 	C 	0.0958	0.3618	0.50859	0.175
Mof_C 	C 	0.8581	0.9429	0.85212	0.164
Mof_C 	C 	0.8697	0.0257	0.81514	-0.292
Mof_C 	C 	0.7852	0.044	0.7783	0.3
Mof_C 	C 	0.696	0.9754	0.77972	-0.296
Mof_C 	C 	0.6908	0.8952	0.8192	0.164
Mof_C 	C 	0.7119	0.1522	0.70612	0.019
Mof_C 	C 	0.6544	0.289	0.63622	0.024
Mof_C 	C 	0.4282	0.3192	0.50856	0.184
Mof_C 	C 	0.505	0.3147	0.55	-0.317
Mof_C 	C 	0.5336	0.2145	0.57077	0.328
Mof_C 	C 	0.4793	0.1253	0.55041	-0.309
Mof_C 	C 	0.4042	0.1382	0.50859	0.175
Mof_C 	C 	0.4429	0.1419	0.35212	0.163
Mof_C 	C 	0.5257	0.1303	0.31514	-0.291
Mof_C 	C 	0.544	0.2148	0.2783	0.301
Mof_C 	C 	0.4754	0.304	0.27972	-0.297
Mof_C 	C 	0.3952	0.3092	0.3192	0.164
Mof_C 	C 	0.6522	0.2881	0.20612	0.019
Mof_C 	C 	0.789	0.3456	0.13622	0.024
Mof_C 	C 	0.8192	0.5718	0.00856	0.181
Mof_C 	C 	0.8147	0.495	0.05	-0.315
Mof_C 	C 	0.7145	0.4664	0.07077	0.326
Mof_C 	C 	0.6253	0.5207	0.05041	-0.307
Mof_C 	C 	0.6382	0.5958	0.00859	0.173
Mof_C 	C 	0.0571	0.3581	0.35212	0.164
Mof_C 	C 	0.9743	0.3697	0.31514	-0.291
Mof_C 	C 	0.956	0.2852	0.2783	0.3
Mof_C 	C 	0.0246	0.196	0.27972	-0.296
Mof_C 	C 	0.1048	0.1908	0.3192	0.164
Mof_C 	C 	0.8478	0.2119	0.20612	0.019
Mof_C 	C 	0.711	0.1544	0.13622	0.023
Mof_C 	C 	0.6808	0.9282	0.00856	0.178
Mof_C 	C 	0.6853	0.005	0.05	-0.312
Mof_C 	C 	0.7855	0.0336	0.07077	0.326
Mof_C 	C 	0.8747	0.9793	0.05041	-0.306
Mof_C 	C 	0.8618	0.9042	0.00859	0.169
Mof_C 	C 	0.75	0.25	0.6722	0.011
Mof_C 	C 	0.75	0.25	0.1722	0.011
Mof_S 	S 	0.55028	0.77796	0.91936	-0.155
Mof_S 	S 	0.94972	0.72204	0.91936	-0.155
Mof_S 	S 	0.22204	0.05028	0.41936	-0.155
Mof_S 	S 	0.27796	0.44972	0.41936	-0.155
Mof_N 	N 	0.7304	0.6222	0.8559	-0.215
Mof_N 	N 	0.1212	0.2661	0.48733	-0.223
Mof_N 	N 	0.7696	0.8778	0.8559	-0.215
Mof_N 	N 	0.3788	0.2339	0.48733	-0.223
Mof_N 	N 	0.3778	0.2304	0.3559	-0.215
Mof_N 	N 	0.7339	0.6212	0.98733	-0.222
Mof_N 	N 	0.1222	0.2696	0.3559	-0.215
Mof_N 	N 	0.7661	0.8788	0.98733	-0.221
Mof_O 	O 	0.8924	0.3034	0.61009	-0.267
Mof_O 	O 	0.7004	0.3715	0.7431	-0.252
Mof_O 	O 	0.6076	0.1966	0.61009	-0.267
Mof_O 	O 	0.7996	0.1285	0.7431	-0.252
Mof_O 	O 	0.6966	0.3924	0.11009	-0.267
Mof_O 	O 	0.6285	0.2004	0.2431	-0.252
Mof_O 	O 	0.8034	0.1076	0.11009	-0.266
Mof_O 	O 	0.8715	0.2996	0.2431	-0.252
Mof_Fe	Fe	0.25	0.25	0.07888	0.599
Mof_Fe	Fe	0.75	0.75	0.57888	0.599
Mof_H 	H 	0.4156	0.431	0.1237	-0.029
Mof_H 	H 	0.4329	0.569	0.1854	0.142
Mof_H 	H 	0.1396	0.4826	0.2455	0.14
Mof_H 	H 	0.1287	0.3506	0.1797	-0.027
Mof_H 	H 	0.1974	0.589	0.3168	0.041
Mof_H 	H 	0.1451	0.6704	0.2744	0.047
Mof_H 	H 	0.1812	0.841	0.3905	0.04
Mof_H 	H 	0.0992	0.8256	0.3419	0.04
Mof_H 	H 	0.9104	0.8882	0.5052	-0.04
Mof_H 	H 	0.0365	0.8789	0.4366	0.143
Mof_H 	H 	0.9926	0.5557	0.4354	0.149
Mof_H 	H 	0.8699	0.5756	0.5051	-0.031
Mof_H 	H 	0.4693	0.1253	0.0829	0.05
Mof_H 	H 	0.0844	0.069	0.1237	-0.029
Mof_H 	H 	0.0671	0.931	0.1854	0.143
Mof_H 	H 	0.3604	0.0174	0.2455	0.14
Mof_H 	H 	0.3713	0.1494	0.1797	-0.027
Mof_H 	H 	0.3026	0.911	0.3168	0.041
Mof_H 	H 	0.3549	0.8296	0.2744	0.046
Mof_H 	H 	0.3188	0.659	0.3905	0.04
Mof_H 	H 	0.4008	0.6744	0.3419	0.04
Mof_H 	H 	0.5896	0.6118	0.5052	-0.04
Mof_H 	H 	0.4635	0.6211	0.4366	0.143
Mof_H 	H 	0.5074	0.9443	0.4354	0.149
Mof_H 	H 	0.6301	0.9244	0.5051	-0.031
Mof_H 	H 	0.0307	0.3747	0.0829	0.05
Mof_H 	H 	0.569	0.9156	0.6237	-0.029
Mof_H 	H 	0.431	0.9329	0.6854	0.143
Mof_H 	H 	0.5174	0.6396	0.7455	0.14
Mof_H 	H 	0.6494	0.6287	0.6797	-0.028
Mof_H 	H 	0.411	0.6974	0.8168	0.041
Mof_H 	H 	0.3296	0.6451	0.7744	0.047
Mof_H 	H 	0.159	0.6812	0.8905	0.04
Mof_H 	H 	0.1744	0.5992	0.8419	0.04
Mof_H 	H 	0.1118	0.4104	0.0052	-0.038
Mof_H 	H 	0.1211	0.5365	0.9366	0.142
Mof_H 	H 	0.4443	0.4926	0.9354	0.149
Mof_H 	H 	0.4244	0.3699	0.0051	-0.03
Mof_H 	H 	0.8747	0.9693	0.5829	0.05
Mof_H 	H 	0.931	0.5844	0.6237	-0.03
Mof_H 	H 	0.069	0.5671	0.6854	0.142
Mof_H 	H 	0.9826	0.8604	0.7455	0.14
Mof_H 	H 	0.8506	0.8713	0.6797	-0.027
Mof_H 	H 	0.089	0.8026	0.8168	0.041
Mof_H 	H 	0.1704	0.8549	0.7744	0.046
Mof_H 	H 	0.341	0.8188	0.8905	0.04
Mof_H 	H 	0.3256	0.9008	0.8419	0.04
Mof_H 	H 	0.3882	0.0896	0.0052	-0.037
Mof_H 	H 	0.3789	0.9635	0.9366	0.141
Mof_H 	H 	0.0557	0.0074	0.9354	0.148
Mof_H 	H 	0.0756	0.1301	0.0051	-0.028
Mof_H 	H 	0.6253	0.5307	0.5829	0.05
Mof_C 	C 	0.3581	0.4429	0.14788	0.163
Mof_C 	C 	0.3697	0.5257	0.18486	-0.291
Mof_C 	C 	0.2852	0.544	0.2217	0.301
Mof_C 	C 	0.196	0.4754	0.22028	-0.297
Mof_C 	C 	0.1908	0.3952	0.1808	0.164
Mof_C 	C 	0.2119	0.6522	0.29388	0.019
Mof_C 	C 	0.1544	0.789	0.36378	0.024
Mof_C 	C 	0.9282	0.8192	0.49144	0.184
Mof_C 	C 	0.005	0.8147	0.45	-0.317
Mof_C 	C 	0.0336	0.7145	0.42923	0.328
Mof_C 	C 	0.9793	0.6253	0.44959	-0.309
Mof_C 	C 	0.9042	0.6382	0.49141	0.175
Mof_C 	C 	0.1419	0.0571	0.14788	0.164
Mof_C 	C 	0.1303	0.9743	0.18486	-0.292
Mof_C 	C 	0.2148	0.956	0.2217	0.3
Mof_C 	C 	0.304	0.0246	0.22028	-0.296
Mof_C 	C 	0.3092	0.1048	0.1808	0.164
Mof_C 	C 	0.2881	0.8478	0.29388	0.019
Mof_C 	C 	0.3456	0.711	0.36378	0.024
Mof_C 	C 	0.5718	0.6808	0.49144	0.184
Mof_C 	C 	0.495	0.6853	0.45	-0.317
Mof_C 	C 	0.4664	0.7855	0.42923	0.328
Mof_C 	C 	0.5207	0.8747	0.44959	-0.309
Mof_C 	C 	0.5958	0.8618	0.49141	0.175
Mof_C 	C 	0.5571	0.8581	0.64788	0.163
Mof_C 	C 	0.4743	0.8697	0.68486	-0.291
Mof_C 	C 	0.456	0.7852	0.7217	0.301
Mof_C 	C 	0.5246	0.696	0.72028	-0.297
Mof_C 	C 	0.6048	0.6908	0.6808	0.164
Mof_C 	C 	0.3478	0.7119	0.79388	0.019
Mof_C 	C 	0.211	0.6544	0.86378	0.024
Mof_C 	C 	0.1808	0.4282	0.99144	0.181
Mof_C 	C 	0.1853	0.505	0.95	-0.315
Mof_C 	C 	0.2855	0.5336	0.92923	0.326
Mof_C 	C 	0.3747	0.4793	0.94959	-0.307
Mof_C 	C 	0.3618	0.4042	0.99141	0.173
Mof_C 	C 	0.9429	0.6419	0.64788	0.164
Mof_C 	C 	0.0257	0.6303	0.68486	-0.291
Mof_C 	C 	0.044	0.7148	0.7217	0.3
Mof_C 	C 	0.9754	0.804	0.72028	-0.296
Mof_C 	C 	0.8952	0.8092	0.6808	0.164
Mof_C 	C 	0.1522	0.7881	0.79388	0.019
Mof_C 	C 	0.289	0.8456	0.86378	0.023
Mof_C 	C 	0.3192	0.0718	0.99144	0.178
Mof_C 	C 	0.3147	0.995	0.95	-0.312
Mof_C 	C 	0.2145	0.9664	0.92923	0.326
Mof_C 	C 	0.1253	0.0207	0.94959	-0.306
Mof_C 	C 	0.1382	0.0958	0.99141	0.169
Mof_C 	C 	0.25	0.75	0.3278	0.011
Mof_C 	C 	0.25	0.75	0.8278	0.011
Mof_S 	S 	0.44972	0.22204	0.08064	-0.155
Mof_S 	S 	0.05028	0.27796	0.08064	-0.155
Mof_S 	S 	0.77796	0.94972	0.58064	-0.155
Mof_S 	S 	0.72204	0.55028	0.58064	-0.155
Mof_N 	N 	0.2696	0.3778	0.1441	-0.215
Mof_N 	N 	0.8788	0.7339	0.51267	-0.223
Mof_N 	N 	0.2304	0.1222	0.1441	-0.215
Mof_N 	N 	0.6212	0.7661	0.51267	-0.223
Mof_N 	N 	0.6222	0.7696	0.6441	-0.215
Mof_N 	N 	0.2661	0.3788	0.01267	-0.222
Mof_N 	N 	0.8778	0.7304	0.6441	-0.215
Mof_N 	N 	0.2339	0.1212	0.01267	-0.221
Mof_O 	O 	0.1076	0.6966	0.38991	-0.267
Mof_O 	O 	0.2996	0.6285	0.2569	-0.252
Mof_O 	O 	0.3924	0.8034	0.38991	-0.267
Mof_O 	O 	0.2004	0.8715	0.2569	-0.252
Mof_O 	O 	0.3034	0.6076	0.88991	-0.267
Mof_O 	O 	0.3715	0.7996	0.7569	-0.252
Mof_O 	O 	0.1966	0.8924	0.88991	-0.266
Mof_O 	O 	0.1285	0.7004	0.7569	-0.252
_end
