data_functionalizedCrystal
_audit_creation_method	'EQeq! by Chris Wilmer'
_symmetry_space_group_name_H-M	'P1'
_symmetry_Int_Tables_number	1
_symmetry_cell_setting	triclinic
loop_
_symmetry_equiv_pos_as_xyz
  x,y,z
_cell_length_a	10.361
_cell_length_b	10.39
_cell_length_c	9.135
_cell_angle_alpha	90
_cell_angle_beta	90
_cell_angle_gamma	90
loop_
_atom_site_label
_atom_site_type_symbol
_atom_site_fract_x
_atom_site_fract_y
_atom_site_fract_z
_atom_site_charge
Mof_Fe	Fe	0.8773	0.3774	0.1574	1.085
Mof_P 	P 	0.1001	0.5995	0.1961	0.767
Mof_O 	O 	0.001	0.5012	0.2432	-0.348
Mof_O 	O 	0.062	0.6529	0.0437	-0.268
Mof_O 	O 	0.849	0.4385	0.9573	-0.272
Mof_O 	O 	0.0577	0.7349	0.205	-0.203
Mof_O 	O 	0.925	0.2058	0.1876	-0.274
Mof_O 	O 	0.2068	0.58	0.3145	-0.281
Mof_O 	O 	0.7315	0.4422	0.295	-0.213
Mof_Fe	Fe	0.6227	0.1226	0.1574	1.086
Mof_P 	P 	0.3999	0.9005	0.1961	0.768
Mof_O 	O 	0.499	0.9988	0.2432	-0.347
Mof_O 	O 	0.438	0.8471	0.0437	-0.269
Mof_O 	O 	0.651	0.0615	0.9573	-0.269
Mof_O 	O 	0.4423	0.7651	0.205	-0.203
Mof_O 	O 	0.575	0.2942	0.1876	-0.271
Mof_O 	O 	0.2932	0.92	0.3145	-0.28
Mof_O 	O 	0.7685	0.0578	0.295	-0.214
Mof_Fe	Fe	0.1227	0.8774	0.3426	1.096
Mof_P 	P 	0.8999	0.0995	0.3039	0.77
Mof_O 	O 	0.999	0.0012	0.2568	-0.353
Mof_O 	O 	0.938	0.1529	0.4563	-0.271
Mof_O 	O 	0.151	0.9385	0.5427	-0.273
Mof_O 	O 	0.9423	0.2349	0.295	-0.203
Mof_O 	O 	0.075	0.7058	0.3124	-0.272
Mof_O 	O 	0.7932	0.08	0.1855	-0.281
Mof_O 	O 	0.2685	0.9422	0.205	-0.212
Mof_Fe	Fe	0.3773	0.6226	0.3426	1.092
Mof_P 	P 	0.6001	0.4005	0.3039	0.769
Mof_O 	O 	0.501	0.4988	0.2568	-0.349
Mof_O 	O 	0.562	0.3471	0.4563	-0.271
Mof_O 	O 	0.349	0.5615	0.5427	-0.273
Mof_O 	O 	0.5577	0.2651	0.295	-0.203
Mof_O 	O 	0.425	0.7942	0.3124	-0.271
Mof_O 	O 	0.7068	0.42	0.1855	-0.28
Mof_O 	O 	0.2315	0.5578	0.205	-0.213
Mof_Fe	Fe	0.1227	0.6226	0.8426	1.086
Mof_P 	P 	0.8999	0.4005	0.8039	0.768
Mof_O 	O 	0.999	0.4988	0.7568	-0.347
Mof_O 	O 	0.938	0.3471	0.9563	-0.267
Mof_O 	O 	0.151	0.5615	0.0427	-0.271
Mof_O 	O 	0.9423	0.2651	0.795	-0.202
Mof_O 	O 	0.075	0.7942	0.8124	-0.273
Mof_O 	O 	0.7932	0.42	0.6855	-0.28
Mof_O 	O 	0.2685	0.5578	0.705	-0.213
Mof_Fe	Fe	0.3773	0.8774	0.8426	1.086
Mof_P 	P 	0.6001	0.0995	0.8039	0.768
Mof_O 	O 	0.501	0.0012	0.7568	-0.347
Mof_O 	O 	0.562	0.1529	0.9563	-0.269
Mof_O 	O 	0.349	0.9385	0.0427	-0.269
Mof_O 	O 	0.5577	0.2349	0.795	-0.203
Mof_O 	O 	0.425	0.7058	0.8124	-0.271
Mof_O 	O 	0.7068	0.08	0.6855	-0.28
Mof_O 	O 	0.2315	0.9422	0.705	-0.214
Mof_Fe	Fe	0.8773	0.1226	0.6574	1.096
Mof_P 	P 	0.1001	0.9005	0.6961	0.77
Mof_O 	O 	0.001	0.9988	0.7432	-0.353
Mof_O 	O 	0.062	0.8471	0.5437	-0.271
Mof_O 	O 	0.849	0.0615	0.4573	-0.273
Mof_O 	O 	0.0577	0.7651	0.705	-0.203
Mof_O 	O 	0.925	0.2942	0.6876	-0.272
Mof_O 	O 	0.2068	0.92	0.8145	-0.281
Mof_O 	O 	0.7315	0.0578	0.795	-0.212
Mof_Fe	Fe	0.6227	0.3774	0.6574	1.092
Mof_P 	P 	0.3999	0.5995	0.6961	0.769
Mof_O 	O 	0.499	0.5012	0.7432	-0.349
Mof_O 	O 	0.438	0.6529	0.5437	-0.271
Mof_O 	O 	0.651	0.4385	0.4573	-0.273
Mof_O 	O 	0.4423	0.7349	0.705	-0.203
Mof_O 	O 	0.575	0.2058	0.6876	-0.271
Mof_O 	O 	0.2932	0.58	0.8145	-0.28
Mof_O 	O 	0.7685	0.4422	0.795	-0.213
_end
