data_functionalizedCrystal
_audit_creation_method	'EQeq! by Chris Wilmer'
_symmetry_space_group_name_H-M	'P1'
_symmetry_Int_Tables_number	1
_symmetry_cell_setting	triclinic
loop_
_symmetry_equiv_pos_as_xyz
  x,y,z
_cell_length_a	20.55
_cell_length_b	14.19
_cell_length_c	6.71
_cell_angle_alpha	90
_cell_angle_beta	101.35
_cell_angle_gamma	90
loop_
_atom_site_label
_atom_site_type_symbol
_atom_site_fract_x
_atom_site_fract_y
_atom_site_fract_z
_atom_site_charge
Mof_Ce	Ce	0.2846	0.5991	0.521	2.943
Mof_C 	C 	0.378	0.441	0.582	0.8
Mof_C 	C 	0.435	0.37	0.616	-0.523
Mof_C 	C 	0.192	0.452	0.543	0.323
Mof_C 	C 	0.386	0.734	0.489	0.502
Mof_C 	C 	0.441	0.814	0.468	-0.279
Mof_C 	C 	0.272	0.659	0.002	0.282
Mof_C 	C 	0.136	0.729	0.448	0.485
Mof_C 	C 	0.084	0.653	0.486	-0.217
Mof_O 	O 	0.348	0.468	0.414	-1.191
Mof_O 	O 	0.36	0.477	0.72	-1.119
Mof_O 	O 	0.208	0.493	0.713	-0.876
Mof_O 	O 	0.203	0.477	0.385	-0.87
Mof_O 	O 	0.406	0.65	0.522	-0.729
Mof_O 	O 	0.331	0.762	0.462	-0.994
Mof_O 	O 	0.277	0.603	0.161	-1.009
Mof_O 	O 	0.298	0.647	0.843	-0.94
Mof_O 	O 	0.119	0.816	0.413	-0.806
Mof_O 	O 	0.195	0.699	0.488	-0.926
Mof_K 	K 	0.2378	0.9016	0.4469	3.276
Mof_K 	K 	0.4112	0.537	0.1002	2.56
Mof_O 	O 	0.495	0.611	0.841	-0.671
Mof_Ce	Ce	0.2154	0.0991	0.979	2.909
Mof_C 	C 	0.122	0.941	0.918	0.798
Mof_C 	C 	0.065	0.87	0.884	-0.515
Mof_C 	C 	0.308	0.952	0.957	0.326
Mof_C 	C 	0.114	0.234	0.011	0.505
Mof_C 	C 	0.059	0.314	0.032	-0.281
Mof_C 	C 	0.228	0.159	0.498	0.282
Mof_C 	C 	0.364	0.229	0.052	0.484
Mof_C 	C 	0.416	0.153	0.014	-0.215
Mof_O 	O 	0.152	0.968	0.086	-1.185
Mof_O 	O 	0.14	0.977	0.78	-1.109
Mof_O 	O 	0.292	0.993	0.787	-0.874
Mof_O 	O 	0.297	0.977	0.115	-0.87
Mof_O 	O 	0.094	0.15	0.978	-0.731
Mof_O 	O 	0.169	0.262	0.038	-0.99
Mof_O 	O 	0.223	0.103	0.339	-1.005
Mof_O 	O 	0.202	0.147	0.657	-0.938
Mof_O 	O 	0.381	0.316	0.087	-0.807
Mof_O 	O 	0.305	0.199	0.012	-0.919
Mof_K 	K 	0.2622	0.4016	0.0531	3.259
Mof_K 	K 	0.0888	0.037	0.3998	2.53
Mof_O 	O 	0.005	0.111	0.659	-0.672
Mof_Ce	Ce	0.7154	0.4009	0.479	2.942
Mof_C 	C 	0.622	0.559	0.418	0.799
Mof_C 	C 	0.565	0.63	0.384	-0.524
Mof_C 	C 	0.808	0.548	0.457	0.322
Mof_C 	C 	0.614	0.266	0.511	0.501
Mof_C 	C 	0.559	0.186	0.532	-0.28
Mof_C 	C 	0.728	0.341	0.998	0.282
Mof_C 	C 	0.864	0.271	0.552	0.485
Mof_C 	C 	0.916	0.347	0.514	-0.217
Mof_O 	O 	0.652	0.532	0.586	-1.191
Mof_O 	O 	0.64	0.523	0.28	-1.119
Mof_O 	O 	0.792	0.507	0.287	-0.876
Mof_O 	O 	0.797	0.523	0.615	-0.87
Mof_O 	O 	0.594	0.35	0.478	-0.729
Mof_O 	O 	0.669	0.238	0.538	-0.994
Mof_O 	O 	0.723	0.397	0.839	-1.009
Mof_O 	O 	0.702	0.353	0.157	-0.94
Mof_O 	O 	0.881	0.184	0.587	-0.806
Mof_O 	O 	0.805	0.301	0.512	-0.926
Mof_K 	K 	0.7622	0.0984	0.5531	3.276
Mof_K 	K 	0.5888	0.463	0.8998	2.56
Mof_O 	O 	0.505	0.389	0.159	-0.671
Mof_Ce	Ce	0.7846	0.9009	0.021	2.909
Mof_C 	C 	0.878	0.059	0.082	0.798
Mof_C 	C 	0.935	0.13	0.116	-0.515
Mof_C 	C 	0.692	0.048	0.043	0.326
Mof_C 	C 	0.886	0.766	0.989	0.505
Mof_C 	C 	0.941	0.686	0.968	-0.281
Mof_C 	C 	0.772	0.841	0.502	0.282
Mof_C 	C 	0.636	0.771	0.948	0.484
Mof_C 	C 	0.584	0.847	0.986	-0.215
Mof_O 	O 	0.848	0.032	0.914	-1.185
Mof_O 	O 	0.86	0.023	0.22	-1.109
Mof_O 	O 	0.708	0.007	0.213	-0.874
Mof_O 	O 	0.703	0.023	0.885	-0.87
Mof_O 	O 	0.906	0.85	0.022	-0.731
Mof_O 	O 	0.831	0.738	0.962	-0.99
Mof_O 	O 	0.777	0.897	0.661	-1.005
Mof_O 	O 	0.798	0.853	0.343	-0.938
Mof_O 	O 	0.619	0.684	0.913	-0.807
Mof_O 	O 	0.695	0.801	0.988	-0.919
Mof_K 	K 	0.7378	0.5984	0.9469	3.259
Mof_K 	K 	0.9112	0.963	0.6002	2.53
Mof_O 	O 	0.995	0.889	0.341	-0.672
_end
