data_functionalizedCrystal
_audit_creation_method	'EQeq! by Chris Wilmer'
_symmetry_space_group_name_H-M	'P1'
_symmetry_Int_Tables_number	1
_symmetry_cell_setting	triclinic
loop_
_symmetry_equiv_pos_as_xyz
  x,y,z
_cell_length_a	29.7425
_cell_length_b	31.1075
_cell_length_c	31.1075
_cell_angle_alpha	69.657
_cell_angle_beta	71.4153
_cell_angle_gamma	108.585
loop_
_atom_site_label
_atom_site_type_symbol
_atom_site_fract_x
_atom_site_fract_y
_atom_site_fract_z
_atom_site_charge
Mof_Zn	Zn	0.37283	0.74701	0.54128	1.229
Mof_Zn	Zn	0.77467	0.07104	0.97494	1.211
Mof_Zn	Zn	0.94159	0.49485	0.63801	1.213
Mof_Zn	Zn	0.9055	0.43101	0.75837	1.21
Mof_Zn	Zn	0.02143	0.53161	0.68443	1.18
Mof_Zn	Zn	0.5796	0.63801	0.86714	1.213
Mof_Zn	Zn	0.74961	0.97494	0.95402	1.212
Mof_Zn	Zn	0.70586	0.68443	0.78396	1.181
Mof_Zn	Zn	0.48982	0.78396	0.53161	1.181
Mof_Zn	Zn	0.44674	0.86714	0.49485	1.214
Mof_Zn	Zn	0.66387	0.75837	0.81062	1.211
Mof_Zn	Zn	0.91411	0.54128	0.71171	1.23
Mof_Zn	Zn	0.47449	0.81062	0.43101	1.211
Mof_Zn	Zn	0.70363	0.95402	0.07104	1.211
Mof_Zn	Zn	0.82827	0	-0	1.227
Mof_Zn	Zn	0.62582	0.71171	0.74701	1.23
Mof_H 	H 	0.875	0.738	0.8609	0.072
Mof_H 	H 	0.2515	0.5949	0.3784	0.132
Mof_H 	H 	0.6044	0.8348	0.6679	0.063
Mof_H 	H 	0.7094	0.3436	0.9847	0.077
Mof_H 	H 	0.1575	0.5996	0.543	0.025
Mof_H 	H 	0.6799	0.7024	0.6055	0.021
Mof_H 	H 	0.6073	0.0335	0.5357	0.099
Mof_H 	H 	0.6941	0.9847	0.6717	0.077
Mof_H 	H 	0.912	0.9227	0.9541	0.012
Mof_H 	H 	0.029	0.7699	0.6965	0.088
Mof_H 	H 	0.9775	0.6921	0.7024	0.021
Mof_H 	H 	0.4383	0.6891	0.1237	0.138
Mof_H 	H 	0.8765	0.935	0.1974	0.093
Mof_H 	H 	0.6566	0.0267	0.5949	0.129
Mof_H 	H 	0.7251	0.0502	0.8272	0.006
Mof_H 	H 	0.4297	0.6782	0.6823	0.034
Mof_H 	H 	0.474	0.6386	0.9883	0.017
Mof_H 	H 	0.5579	0.8574	0.5996	0.026
Mof_H 	H 	0.7896	0.1775	0.8336	0.035
Mof_H 	H 	0.7359	0.8609	0.4011	0.072
Mof_H 	H 	0.5965	0.7666	0.9507	0.045
Mof_H 	H 	0.8108	0.8926	0.8955	0.032
Mof_H 	H 	0.0899	0.4449	0.7182	0.03
Mof_H 	H 	0.2966	0.4944	0.8324	0.134
Mof_H 	H 	0.6299	0.3784	0.0267	0.129
Mof_H 	H 	0.7813	0.377	0.9044	0.043
Mof_H 	H 	0.8299	0.2827	0.7666	0.048
Mof_H 	H 	0.6857	0.9044	0.7186	0.043
Mof_H 	H 	0.5548	0.985	0.5109	0.014
Mof_H 	H 	0.7005	0.543	0.8574	0.026
Mof_H 	H 	0.112	0.6823	0.6395	0.034
Mof_H 	H 	0.783	0.8336	0.8503	0.049
Mof_H 	H 	0.4255	0.6324	0.0643	0.094
Mof_H 	H 	0.562	0.1237	0.1872	0.138
Mof_H 	H 	0.137	0.4011	0.738	0.072
Mof_H 	H 	0.2591	0.5336	0.7699	0.087
Mof_H 	H 	0.8022	0.6732	0.4944	0.133
Mof_H 	H 	0.3172	0.891	0.5743	0.016
Mof_H 	H 	0.7255	0.6965	0.5336	0.087
Mof_H 	H 	0.7515	0.6395	0.6782	0.034
Mof_H 	H 	0.2266	0.7488	0.5989	0.039
Mof_H 	H 	0.6749	0.1226	0.0502	0.007
Mof_H 	H 	0.9152	0.7882	0.9129	0.126
Mof_H 	H 	0.8661	0.9541	0.1232	0.011
Mof_H 	H 	0.2854	0.6055	0.6921	0.021
Mof_H 	H 	0.7492	0.1872	0.6891	0.138
Mof_H 	H 	0.4728	0.7568	0.1539	0.111
Mof_H 	H 	0.8481	0.6084	0.4941	0.092
Mof_H 	H 	0.0657	0.5109	0.5041	0.01
Mof_H 	H 	0.8255	0.5989	0.6523	0.039
Mof_H 	H 	0.9494	0.3161	0.8336	0.049
Mof_H 	H 	0.4898	0.0643	0.3033	0.095
Mof_H 	H 	0.8281	0.9129	0.2989	0.126
Mof_H 	H 	0.2723	0.6679	0.4973	0.063
Mof_H 	H 	0.129	0.8324	0.6732	0.134
Mof_H 	H 	0.716	0.0893	0.7568	0.112
Mof_H 	H 	0.8354	0.3731	0.6386	0.02
Mof_H 	H 	0.3422	0.4941	0.8975	0.093
Mof_H 	H 	0.9415	0.8676	0.935	0.094
Mof_H 	H 	0.6333	0.8503	0.3161	0.049
Mof_H 	H 	0.6232	0.8336	0.9889	0.042
Mof_H 	H 	0.5738	0.4308	0.0335	0.099
Mof_H 	H 	0.7931	0.3033	0.6324	0.091
Mof_H 	H 	0.5523	0.8272	0.1226	0.008
Mof_H 	H 	0.4623	0.9883	0.3731	0.017
Mof_H 	H 	0.7696	0.4973	0.8348	0.063
Mof_H 	H 	0.4043	0.7186	0.377	0.042
Mof_H 	H 	0.8081	0.7182	0.8369	0.03
Mof_H 	H 	0.9893	0.1232	0.9227	0.011
Mof_H 	H 	0.8915	0.5743	0.5347	0.016
Mof_H 	H 	0.6267	0.1539	0.0893	0.11
Mof_H 	H 	0.4262	0.5347	0.891	0.016
Mof_H 	H 	0.5698	0.5041	0.985	0.014
Mof_H 	H 	0.0739	0.1974	0.8676	0.093
Mof_H 	H 	0.143	0.5357	0.4308	0.105
Mof_H 	H 	0.3658	0.6717	0.3436	0.076
Mof_H 	H 	0.2397	0.8975	0.6084	0.093
Mof_H 	H 	0.127	0.2989	0.7882	0.125
Mof_H 	H 	0.7063	0.8955	0.2119	0.032
Mof_H 	H 	0.4778	0.6523	0.7488	0.039
Mof_H 	H 	0.645	0.8369	0.4449	0.03
Mof_H 	H 	0.5472	0.9507	0.2827	0.044
Mof_H 	H 	0.9182	0.2119	0.8926	0.032
Mof_H 	H 	0.6121	0.9889	0.1775	0.043
Mof_C 	C 	0.8585	0.913	0.9267	-0.171
Mof_C 	C 	0.3477	0.6996	0.4435	-0.083
Mof_C 	C 	0.7404	0.9034	0.209	0.044
Mof_C 	C 	0.651	0.0525	0.1055	-0.144
Mof_C 	C 	0.5509	0.8135	0.1005	0.103
Mof_C 	C 	0.804	0.6213	0.5961	-0.042
Mof_C 	C 	0.83	0.6008	0.6206	0.017
Mof_C 	C 	0.6538	0.8524	0.3332	-0.007
Mof_C 	C 	0.624	0.8652	0.6674	-0.025
Mof_C 	C 	0.4001	0.5961	0.7826	-0.042
Mof_C 	C 	0.8005	0.2985	0.66	-0.16
Mof_C 	C 	0.6774	0.4766	0.9218	-0.069
Mof_C 	C 	0.287	0.6334	0.4073	0.098
Mof_C 	C 	0.258	0.6354	0.4561	-0.005
Mof_C 	C 	0.55127	0.91657	0.55266	-0.169
Mof_C 	C 	0.6168	0.0223	0.1599	0.024
Mof_C 	C 	0.7588	0.4674	0.8652	-0.025
Mof_C 	C 	0.5748	0.8251	0.4241	0.375
Mof_C 	C 	0.8424	0.9271	0.2003	-0.177
Mof_C 	C 	0.59734	0.99818	0.54856	-0.186
Mof_C 	C 	0.5533	0.7752	0.0385	-0.056
Mof_C 	C 	0.5918	0.0385	0.1863	-0.056
Mof_C 	C 	0.8435	0.6065	0.5258	-0.176
Mof_C 	C 	0.8547	0.8546	0.892	-0.059
Mof_C 	C 	0.3596	0.5488	0.8271	0.134
Mof_C 	C 	0.345	0.6682	0.3755	-0.132
Mof_C 	C 	0.0711	0.4103	0.7454	0.022
Mof_C 	C 	0.3282	0.8144	0.5574	0.415
Mof_C 	C 	0.7844	0.9482	0.1104	0.466
Mof_C 	C 	0.4506	0.6206	0.7786	0.017
Mof_C 	C 	0.10393	0.55266	0.53077	-0.173
Mof_C 	C 	0.2914	0.6674	0.4674	-0.026
Mof_C 	C 	0.9989	0.4241	0.7508	0.375
Mof_C 	C 	0.6481	0.8569	0.6996	-0.084
Mof_C 	C 	0.3286	0.5629	0.7728	0.147
Mof_C 	C 	0.6247	0.122	0.1081	-0.233
Mof_C 	C 	0.2292	0.7786	0.6008	0.017
Mof_C 	C 	0.6707	0.9054	0.6965	0.029
Mof_C 	C 	0.5985	0.842	0.0525	-0.144
Mof_C 	C 	0.8696	0.5861	0.5501	0.079
Mof_C 	C 	0.7112	0.6715	0.649	-0.114
Mof_C 	C 	0.6943	0.4073	0.9593	0.098
Mof_C 	C 	0.7205	0.3755	0.9563	-0.132
Mof_C 	C 	0.5041	0.7484	0.0909	0.191
Mof_C 	C 	0.5412	0.0557	0.2434	0.126
Mof_C 	C 	0.3955	0.6493	0.6999	0.008
Mof_C 	C 	0.4981	0.9578	0.3399	-0.146
Mof_C 	C 	0.67501	0.52051	0.89278	0.048
Mof_C 	C 	0.8014	0.8144	0.8524	-0.006
Mof_C 	C 	0.8362	0.9414	0.9482	0.465
Mof_C 	C 	0.4904	0.6646	0.9948	0.099
Mof_C 	C 	0.309	0.6056	0.7057	0.054
Mof_C 	C 	0.5659	0.9691	0.5337	0.099
Mof_C 	C 	0.821	0.2862	0.7401	0.004
Mof_C 	C 	0.0153	0.307	0.8263	-0.012
Mof_C 	C 	0.0149	0.3848	0.7739	-0.105
Mof_C 	C 	0.8108	0.6241	0.5488	0.134
Mof_C 	C 	0.838	0.3399	0.7023	-0.138
Mof_C 	C 	0.3771	0.7289	0.4635	0.445
Mof_C 	C 	0.2008	0.6016	0.4766	-0.072
Mof_C 	C 	0.6608	0.8443	0.4103	0.023
Mof_C 	C 	0.8416	0.8263	0.8667	-0.012
Mof_C 	C 	0.4855	0.7009	0.0557	0.126
Mof_C 	C 	0.3672	0.6965	0.3981	0.029
Mof_C 	C 	0.5746	0.7022	0.9112	0.466
Mof_C 	C 	0.7736	0.6473	0.6062	-0.047
Mof_C 	C 	0.4605	0.66	0.0415	-0.171
Mof_C 	C 	0.595	0.0909	0.1607	0.19
Mof_C 	C 	0.8165	0.7454	0.8443	0.023
Mof_C 	C 	0.7467	0.892	0.2534	-0.059
Mof_C 	C 	0.6848	0.6846	0.6888	0.342
Mof_C 	C 	0.7852	0.9267	0.1603	-0.172
Mof_C 	C 	0.2933	0.5626	0.7524	-0.173
Mof_C 	C 	0.739	0.87	0.3325	0.078
Mof_C 	C 	0.7767	0.1599	0.8178	0.041
Mof_C 	C 	0.5968	0.4972	0.9691	0.099
Mof_C 	C 	0.7374	0.086	0.8135	0.109
Mof_C 	C 	0.0715	0.3325	0.7975	0.078
Mof_C 	C 	0.0544	0.5359	0.5789	0.478
Mof_C 	C 	0.1867	0.8271	0.6241	0.135
Mof_C 	C 	0.9494	0.209	0.8876	0.044
Mof_C 	C 	0.7517	0.0725	0.893	0.404
Mof_C 	C 	0.1545	0.58671	0.52051	0.051
Mof_C 	C 	0.5138	0.6282	0.8144	0.415
Mof_C 	C 	0.869	0.7975	0.87	0.079
Mof_C 	C 	0.5403	0.7023	0.9578	-0.145
Mof_C 	C 	0.1827	0.7826	0.6213	-0.042
Mof_C 	C 	0.987	0.3332	0.8144	-0.007
Mof_C 	C 	0.7497	0.7508	0.8251	0.375
Mof_C 	C 	0.0002	0.6266	0.6846	0.342
Mof_C 	C 	0.6482	0.8076	0.7289	0.445
Mof_C 	C 	0.1459	0.54856	0.45326	-0.197
Mof_C 	C 	0.19656	0.58252	0.44294	0.154
Mof_C 	C 	0.7912	0.4435	0.8569	-0.084
Mof_C 	C 	0.3798	0.6062	0.7465	-0.047
Mof_C 	C 	0.3736	0.6888	0.6266	0.342
Mof_C 	C 	0.2835	0.8638	0.5861	0.079
Mof_C 	C 	0.5342	0.7418	0.0201	-0.042
Mof_C 	C 	0.6333	0.5789	0.8852	0.477
Mof_C 	C 	0.8362	0.9385	0.1559	0.091
Mof_C 	C 	0.1263	0.7465	0.6473	-0.047
Mof_C 	C 	0.6792	0.0345	0.0725	0.396
Mof_C 	C 	0.8939	0.8472	0.9038	0.131
Mof_C 	C 	0.7307	0.685	0.5626	-0.173
Mof_C 	C 	0.7141	0.4561	0.9085	-0.006
Mof_C 	C 	0.7557	0.1607	0.7484	0.195
Mof_C 	C 	0.0995	0.3841	0.757	-0.121
Mof_C 	C 	0.7653	0.3981	0.9054	0.029
Mof_C 	C 	0.237	0.8677	0.6065	-0.176
Mof_C 	C 	0.6301	0.8413	0.3848	-0.105
Mof_C 	C 	0.7781	0.1863	0.7752	-0.066
Mof_C 	C 	0.8258	0.3406	0.6646	0.087
Mof_C 	C 	0.0996	0.5337	0.4972	0.105
Mof_C 	C 	0.6395	0.44294	0.97454	0.15
Mof_C 	C 	0.0397	0.6795	0.6715	-0.114
Mof_C 	C 	0.6514	0.1005	0.086	0.102
Mof_C 	C 	0.2796	0.8192	0.5832	-0.141
Mof_C 	C 	0.7083	0.8667	0.307	-0.012
Mof_C 	C 	0.8724	0.3866	0.7022	0.463
Mof_C 	C 	0.5348	0.9737	0.2862	0.016
Mof_C 	C 	0.837	0.8876	0.9034	0.044
Mof_C 	C 	0.4604	0.5976	0.8192	-0.141
Mof_C 	C 	0.7154	0.8589	0.3841	-0.121
Mof_C 	C 	0.7565	0.1055	0.842	-0.152
Mof_C 	C 	0.6536	0.9593	0.6334	0.098
Mof_C 	C 	0.7888	0.7739	0.8413	-0.105
Mof_C 	C 	0.7846	0.2434	0.7009	0.12
Mof_C 	C 	0.6226	0.9085	0.6354	-0.006
Mof_C 	C 	0.5945	0.8178	0.0223	0.025
Mof_C 	C 	0.5992	0.9218	0.6016	-0.069
Mof_C 	C 	0.7977	0.9038	0.249	0.131
Mof_C 	C 	0.8406	0.4635	0.8076	0.445
Mof_C 	C 	0.8856	0.5574	0.6282	0.415
Mof_C 	C 	0.8977	0.9056	0.9385	0.09
Mof_C 	C 	0.0001	0.2534	0.8546	-0.059
Mof_C 	C 	0.0427	0.2003	0.8726	-0.176
Mof_C 	C 	0.61404	0.97454	0.58252	0.15
Mof_C 	C 	0.0147	0.7057	0.6887	0.055
Mof_C 	C 	0.7328	0.1081	0.7699	-0.238
Mof_C 	C 	0.5027	0.7699	0.122	-0.233
Mof_C 	C 	0.59916	0.45326	0.99818	-0.186
Mof_C 	C 	0.3693	0.5258	0.8677	-0.176
Mof_C 	C 	0.5543	0.0201	0.2381	-0.043
Mof_C 	C 	0.3602	0.649	0.6795	-0.114
Mof_C 	C 	0.4197	0.5501	0.8638	0.079
Mof_C 	C 	0.5185	0.8852	0.5359	0.477
Mof_C 	C 	0.4858	0.9112	0.3866	0.467
Mof_C 	C 	0.7462	0.6508	0.6493	0.008
Mof_C 	C 	0.0954	0.6999	0.6508	0.009
Mof_C 	C 	0.1014	0.7728	0.6643	0.147
Mof_C 	C 	0.56779	0.89278	0.58671	0.048
Mof_C 	C 	0.8948	0.1104	0.9414	0.465
Mof_C 	C 	0.7924	0.2381	0.7418	-0.031
Mof_C 	C 	0.5611	0.7401	0.9737	0.015
Mof_C 	C 	0.9921	0.1559	0.9056	0.09
Mof_C 	C 	0.7657	0.6643	0.5629	0.147
Mof_C 	C 	0.0457	0.7524	0.685	-0.173
Mof_C 	C 	0.8565	0.757	0.8589	-0.121
Mof_C 	C 	0.9153	0.8726	0.9271	-0.176
Mof_C 	C 	0.4852	0.9948	0.3406	0.099
Mof_C 	C 	0.8628	0.5832	0.5976	-0.141
Mof_C 	C 	0.0467	0.249	0.8472	0.131
Mof_C 	C 	0.7034	0.6887	0.6056	0.054
Mof_C 	C 	0.9455	0.1603	0.913	-0.172
Mof_C 	C 	0.6347	0.53077	0.91657	-0.169
Mof_C 	C 	0.502	0.0415	0.2985	-0.172
Mof_C 	C 	0.6447	0.893	0.0345	0.397
Mof_C 	C 	0.6768	0.9563	0.6682	-0.132
Mof_N 	N 	0.5661	0.0963	0.1943	-0.261
Mof_N 	N 	0.095	0.2942	0.8048	-0.213
Mof_N 	N 	0.246	0.6017	0.4035	-0.235
Mof_N 	N 	0.3212	0.5266	0.8151	-0.245
Mof_N 	N 	0.8998	0.8048	0.901	-0.213
Mof_N 	N 	0.7604	0.1943	0.7094	-0.261
Mof_N 	N 	0.1363	0.8151	0.6583	-0.245
Mof_N 	N 	0.6495	0.4035	0.9948	-0.23
Mof_N 	N 	0.4698	0.7094	0.0963	-0.261
Mof_N 	N 	0.8008	0.901	0.2942	-0.213
Mof_N 	N 	0.6443	0.9948	0.6017	-0.23
Mof_N 	N 	0.7946	0.6583	0.5266	-0.245
Mof_O 	O 	0.9496	0.6028	0.7064	-0.518
Mof_O 	O 	0.7996	0.9503	0.9304	-0.476
Mof_O 	O 	0.543	0.815	0.402	-0.489
Mof_O 	O 	0.8891	0.4247	0.6605	-0.538
Mof_O 	O 	0.4448	0.8012	0.4989	-0.966
Mof_O 	O 	0.7721	0.0968	0.9098	-0.528
Mof_O 	O 	0.6637	0.8188	0.7578	-0.512
Mof_O 	O 	0.9437	0.4989	0.6999	-0.966
Mof_O 	O 	0.4881	0.8769	0.3787	-0.538
Mof_O 	O 	0.8523	0.9639	0.965	-0.567
Mof_O 	O 	0.945	0.402	0.783	-0.489
Mof_O 	O 	0.8493	0.5026	0.7795	-0.561
Mof_O 	O 	0.4955	0.9049	0.5126	-0.512
Mof_O 	O 	0.5143	0.8437	0.5468	-0.542
Mof_O 	O 	0.3263	0.7745	0.558	-0.527
Mof_O 	O 	0.3467	0.7179	0.5026	-0.561
Mof_O 	O 	0.8173	0.965	0.0711	-0.569
Mof_O 	O 	0.5607	0.8227	0.4652	-0.543
Mof_O 	O 	0.9135	0.539	0.6062	-0.484
Mof_O 	O 	0.6753	0.9934	0.0968	-0.524
Mof_O 	O 	0.8884	0.0711	0.9639	-0.569
Mof_O 	O 	0.6436	0.6999	0.8012	-0.966
Mof_O 	O 	0.6112	0.7444	0.8769	-0.537
Mof_O 	O 	0.6819	0.9098	0.9934	-0.523
Mof_O 	O 	0.6288	0.7795	0.7179	-0.561
Mof_O 	O 	0.656	0.7064	0.6908	-0.517
Mof_O 	O 	0.6706	0.6095	0.8437	-0.542
Mof_O 	O 	0.5906	0.5825	0.9049	-0.512
Mof_O 	O 	0.5197	0.6062	0.8548	-0.484
Mof_O 	O 	0.0081	0.5126	0.5825	-0.513
Mof_O 	O 	0.42	0.729	0.6101	-0.467
Mof_O 	O 	0.76687	0	-0	-0.967
Mof_O 	O 	0.8449	0.4234	0.8188	-0.513
Mof_O 	O 	0.6492	0.8992	0.0737	-0.509
Mof_O 	O 	0.3468	0.6908	0.6028	-0.518
Mof_O 	O 	0.691	0.6609	0.729	-0.467
Mof_O 	O 	0.0611	0.5468	0.6095	-0.543
Mof_O 	O 	0.5496	0.6605	0.9148	-0.538
Mof_O 	O 	0.7229	0.0737	0.0271	-0.511
Mof_O 	O 	0.8668	0.3787	0.7444	-0.537
Mof_O 	O 	0.738	0.7121	0.8227	-0.543
Mof_O 	O 	0.0259	0.4652	0.7121	-0.543
Mof_O 	O 	0.3745	0.8548	0.539	-0.484
Mof_O 	O 	0.5518	0.6675	0.7745	-0.527
Mof_O 	O 	0.75	0.0271	0.8992	-0.512
Mof_O 	O 	0.728	0.783	0.815	-0.489
Mof_O 	O 	0.0301	0.6101	0.6609	-0.467
Mof_O 	O 	0.4644	0.9148	0.4247	-0.538
Mof_O 	O 	0.73	0.9304	0.1193	-0.478
Mof_O 	O 	0.8843	0.558	0.6675	-0.527
Mof_O 	O 	0.4215	0.7578	0.4234	-0.513
Mof_O 	O 	0.8493	0.1193	0.9503	-0.477
Mof_Zn	Zn	0.25039	0.02506	0.04598	1.21
Mof_Zn	Zn	0.05841	0.50515	0.36199	1.214
Mof_Zn	Zn	0.29414	0.31557	0.21604	1.18
Mof_Zn	Zn	0.22533	0.92896	0.02506	1.211
Mof_Zn	Zn	0.37418	0.28829	0.25299	1.23
Mof_Zn	Zn	0.4204	0.36199	0.13286	1.214
Mof_Zn	Zn	0.97857	0.46839	0.31557	1.18
Mof_Zn	Zn	0.55326	0.13286	0.50515	1.214
Mof_Zn	Zn	0.17173	0	-0	1.228
Mof_Zn	Zn	0.33613	0.24163	0.18938	1.211
Mof_Zn	Zn	0.52551	0.18938	0.56899	1.211
Mof_Zn	Zn	0.08589	0.45872	0.28829	1.23
Mof_Zn	Zn	0.29637	0.04598	0.92896	1.212
Mof_Zn	Zn	0.51018	0.21604	0.46839	1.181
Mof_Zn	Zn	0.62717	0.25299	0.45872	1.23
Mof_Zn	Zn	0.0945	0.56899	0.24163	1.211
Mof_H 	H 	0.2187	0.623	0.0956	0.042
Mof_H 	H 	0.3701	0.6216	0.9733	0.136
Mof_H 	H 	0.4477	0.1728	0.8774	0.004
Mof_H 	H 	0.0818	0.7881	0.1074	0.032
Mof_H 	H 	0.5377	0.0117	0.6269	0.023
Mof_H 	H 	0.6342	0.3283	0.6564	0.076
Mof_H 	H 	0.3201	0.2976	0.3945	0.021
Mof_H 	H 	0.1646	0.6269	0.3614	0.02
Mof_H 	H 	0.871	0.1676	0.3268	0.133
Mof_H 	H 	0.0506	0.6839	0.1664	0.049
Mof_H 	H 	0.355	0.1631	0.5551	0.029
Mof_H 	H 	0.5102	0.9357	0.6967	0.088
Mof_H 	H 	0.7603	0.1025	0.3916	0.092
Mof_H 	H 	0.1745	0.4011	0.3477	0.039
Mof_H 	H 	0.3434	0.9733	0.4051	0.136
Mof_H 	H 	0.3667	0.1497	0.6839	0.049
Mof_H 	H 	0.2508	0.8128	0.3109	0.139
Mof_H 	H 	0.438	0.8763	0.8128	0.139
Mof_H 	H 	0.5222	0.3477	0.2512	0.039
Mof_H 	H 	0.5745	0.3676	0.9357	0.088
Mof_H 	H 	0.2485	0.3605	0.3218	0.034
Mof_H 	H 	0.2749	0.9498	0.1728	0.007
Mof_H 	H 	0.2641	0.1391	0.5989	0.071
Mof_H 	H 	0.5738	0.4653	0.109	0.015
Mof_H 	H 	0.5957	0.2814	0.623	0.042
Mof_H 	H 	0.5272	0.2432	0.8461	0.115
Mof_H 	H 	0.1919	0.2818	0.1631	0.029
Mof_H 	H 	0.6828	0.109	0.4257	0.015
Mof_H 	H 	0.1519	0.3916	0.5059	0.092
Mof_H 	H 	0.7034	0.5056	0.1676	0.133
Mof_H 	H 	0.088	0.0773	0.0459	0.01
Mof_H 	H 	0.125	0.262	0.1391	0.071
Mof_H 	H 	0.1235	0.065	0.8026	0.092
Mof_H 	H 	0.4528	0.0493	0.7173	0.051
Mof_H 	H 	0.1701	0.7173	0.2334	0.048
Mof_H 	H 	0.863	0.5989	0.262	0.072
Mof_H 	H 	0.7146	0.3945	0.3079	0.021
Mof_H 	H 	0.0225	0.3079	0.2976	0.021
Mof_H 	H 	0.7277	0.3321	0.5027	0.063
Mof_H 	H 	0.3768	0.1664	0.0111	0.027
Mof_H 	H 	0.3059	0.0153	0.3283	0.075
Mof_H 	H 	0.3879	0.0111	0.8225	0.028
Mof_H 	H 	0.9101	0.5551	0.2818	0.029
Mof_H 	H 	0.2995	0.457	0.1426	0.024
Mof_H 	H 	0.4302	0.4959	0.015	0.007
Mof_H 	H 	0.7734	0.2512	0.4011	0.039
Mof_H 	H 	0.8425	0.4004	0.457	0.025
Mof_H 	H 	0.9261	0.8026	0.1324	0.093
Mof_H 	H 	0.2745	0.3035	0.4664	0.087
Mof_H 	H 	0.4262	0.5692	0.9665	0.111
Mof_H 	H 	0.217	0.1664	0.1497	0.049
Mof_H 	H 	0.873	0.7011	0.2118	0.125
Mof_H 	H 	0.4421	0.1426	0.4004	0.024
Mof_H 	H 	0.2104	0.8225	0.1664	0.035
Mof_H 	H 	0.0107	0.8768	0.0773	0.011
Mof_H 	H 	0.2304	0.5027	0.1652	0.063
Mof_H 	H 	0.0585	0.1324	0.065	0.092
Mof_H 	H 	0.1339	0.0459	0.8768	0.011
Mof_H 	H 	0.1085	0.4257	0.4653	0.016
Mof_H 	H 	0.4452	0.015	0.4891	0.007
Mof_H 	H 	0.1719	0.0871	0.7011	0.125
Mof_H 	H 	0.857	0.4643	0.5692	0.105
Mof_H 	H 	0.7485	0.4051	0.6216	0.132
Mof_H 	H 	0.3956	0.1652	0.3321	0.063
Mof_H 	H 	0.0848	0.2118	0.0871	0.125
Mof_H 	H 	0.2937	0.1045	0.7881	0.032
Mof_H 	H 	0.5617	0.3109	0.8763	0.139
Mof_H 	H 	0.3733	0.8461	0.9107	0.115
Mof_H 	H 	0.9343	0.4891	0.4959	0.01
Mof_H 	H 	0.4035	0.2334	0.0493	0.051
Mof_H 	H 	0.3251	0.8774	0.9498	0.005
Mof_H 	H 	0.888	0.3177	0.3605	0.034
Mof_H 	H 	0.3927	0.9665	0.4643	0.111
Mof_H 	H 	0.2069	0.6967	0.3676	0.091
Mof_H 	H 	0.6578	0.5059	0.1025	0.092
Mof_H 	H 	0.526	0.3614	0.0117	0.023
Mof_H 	H 	0.284	0.9107	0.2432	0.113
Mof_H 	H 	0.971	0.2301	0.3035	0.087
Mof_H 	H 	0.5703	0.3218	0.3177	0.034
Mof_H 	H 	0.2906	0.6564	0.0153	0.075
Mof_H 	H 	0.1978	0.3268	0.5056	0.133
Mof_H 	H 	0.7409	0.4664	0.2301	0.087
Mof_H 	H 	0.3143	0.0956	0.2814	0.042
Mof_H 	H 	0.1892	0.1074	0.1045	0.031
Mof_C 	C 	0.6523	0.3004	0.5565	-0.084
Mof_C 	C 	0.9999	0.7466	0.1454	-0.059
Mof_C 	C 	0.1892	0.3759	0.4512	0.134
Mof_C 	C 	0.4008	0.0782	0.3984	-0.075
Mof_C 	C 	0.179	0.7138	0.2599	0.004
Mof_C 	C 	0.3519	0.1431	0.3004	-0.084
Mof_C 	C 	0.3208	0.9655	0.9275	0.411
Mof_C 	C 	0.4252	0.1749	0.5759	0.375
Mof_C 	C 	0.4341	0.0309	0.4663	0.112
Mof_C 	C 	0.7165	0.1362	0.4139	0.079
Mof_C 	C 	0.6264	0.3112	0.3734	0.342
Mof_C 	C 	0.3152	0.3154	0.3112	0.342
Mof_C 	C 	0.2443	0.8393	0.2516	0.195
Mof_C 	C 	0.0545	0.8397	0.087	-0.172
Mof_C 	C 	0.9004	0.4663	0.5028	0.105
Mof_C 	C 	0.6307	0.4742	0.1323	-0.176
Mof_C 	C 	0.2154	0.7566	0.2991	0.12
Mof_C 	C 	0.5148	0.0052	0.6594	0.074
Mof_C 	C 	0.4815	0.1148	0.4641	0.48
Mof_C 	C 	0.3232	0.0437	0.3318	-0.133
Mof_C 	C 	0.5803	0.4499	0.1362	0.079
Mof_C 	C 	0.691	0.3944	0.2943	0.054
Mof_C 	C 	0.9998	0.3734	0.3154	0.342
Mof_C 	C 	0.2435	0.8945	0.158	-0.151
Mof_C 	C 	0.2626	0.914	0.1865	0.109
Mof_C 	C 	0.2148	0.0733	0.8397	-0.172
Mof_C 	C 	0.763	0.1323	0.3935	-0.176
Mof_C 	C 	0.6202	0.3938	0.2535	-0.047
Mof_C 	C 	0.1372	0.4168	0.4024	-0.141
Mof_C 	C 	0.3464	0.0407	0.3666	0.097
Mof_C 	C 	0.3553	0.107	0.9655	0.412
Mof_C 	C 	0.498	0.9585	0.7015	-0.149
Mof_C 	C 	0.1638	0.0586	0.0518	0.466
Mof_C 	C 	0.2343	0.3357	0.4371	0.146
Mof_C 	C 	0.4015	0.158	0.9475	-0.16
Mof_C 	C 	0.162	0.6601	0.2977	-0.138
Mof_C 	C 	0.3226	0.5234	0.0782	-0.075
Mof_C 	C 	0.2264	0.3527	0.3938	-0.047
Mof_C 	C 	0.17	0.3992	0.3794	0.017
Mof_C 	C 	0.742	0.3646	0.5439	-0.005
Mof_C 	C 	0.4652	0.0263	0.7138	-0.006
Mof_C 	C 	0.3486	0.8995	0.914	0.115
Mof_C 	C 	0.38596	0.02546	0.41748	0.158
Mof_C 	C 	0.1276	0.6134	0.2978	0.463
Mof_C 	C 	0.2076	0.7619	0.2582	-0.031
Mof_C 	C 	0.9603	0.3205	0.3285	-0.114
Mof_C 	C 	0.1835	0.2546	0.1557	0.022
Mof_C 	C 	0.2156	0.0518	0.8896	0.465
Mof_C 	C 	0.9289	0.5897	0.2546	0.023
Mof_C 	C 	0.0506	0.791	0.1124	0.044
Mof_C 	C 	0.2347	0.6019	0.0946	0.029
Mof_C 	C 	0.3293	0.0946	0.3035	0.029
Mof_C 	C 	0.8455	0.41329	0.47949	0.051
Mof_C 	C 	0.8737	0.2535	0.3527	-0.047
Mof_C 	C 	0.2859	0.5439	0.0915	-0.005
Mof_C 	C 	0.9847	0.693	0.1737	-0.012
Mof_C 	C 	0.0847	0.1274	0.0729	-0.178
Mof_C 	C 	0.3057	0.5927	0.0407	0.097
Mof_C 	C 	0.9533	0.751	0.1528	0.13
Mof_C 	C 	0.6718	0.1856	0.4426	0.415
Mof_C 	C 	0.4959	0.2516	0.9091	0.2
Mof_C 	C 	0.3667	0.4211	0.1148	0.48
Mof_C 	C 	0.1415	0.087	0.0733	-0.173
Mof_C 	C 	0.3699	0.1587	0.6152	-0.105
Mof_C 	C 	0.5142	0.0888	0.6134	0.46
Mof_C 	C 	0.40084	0.54674	0.00182	-0.209
Mof_C 	C 	0.4588	0.9443	0.7566	0.115
Mof_C 	C 	0.1144	0.4426	0.3718	0.415
Mof_C 	C 	0.4457	0.9799	0.7619	-0.02
Mof_C 	C 	0.4491	0.1865	0.8995	0.115
Mof_C 	C 	0.5145	0.2991	0.9443	0.115
Mof_C 	C 	0.2233	0.8401	0.1822	0.04
Mof_C 	C 	0.1023	0.0944	0.0615	0.091
Mof_C 	C 	0.7708	0.2214	0.3992	0.017
Mof_C 	C 	0.405	0.9091	0.8393	0.2
Mof_C 	C 	0.3653	0.46923	0.08343	-0.176
Mof_C 	C 	0.7204	0.1808	0.4168	-0.141
Mof_C 	C 	0.1638	0.0615	0.8441	0.09
Mof_C 	C 	0.131	0.2025	0.13	0.078
Mof_C 	C 	0.6328	0.3035	0.6019	0.029
Mof_C 	C 	0.2023	0.0962	0.751	0.13
Mof_C 	C 	0.3605	0.55706	0.02546	0.158
Mof_C 	C 	0.0011	0.5759	0.2492	0.375
Mof_C 	C 	0.8986	0.2272	0.3357	0.146
Mof_C 	C 	0.5494	0.3794	0.2214	0.017
Mof_C 	C 	0.9285	0.6675	0.2025	0.078
Mof_C 	C 	0.43221	0.10722	0.41329	0.054
Mof_C 	C 	0.3753	0.878	0.8919	-0.243
Mof_C 	C 	0.1435	0.243	0.1411	-0.122
Mof_C 	C 	0.655	0.3318	0.6245	-0.132
Mof_C 	C 	0.2503	0.2492	0.1749	0.375
Mof_C 	C 	0.2672	0.8919	0.2301	-0.238
Mof_C 	C 	0.4032	0.5028	0.0309	0.112
Mof_C 	C 	0.9573	0.7997	0.1274	-0.177
Mof_C 	C 	0.5019	0.0422	0.6601	-0.131
Mof_C 	C 	0.3462	0.1476	0.6668	-0.007
Mof_C 	C 	0.80344	0.41748	0.55706	0.154
Mof_C 	C 	0.2846	0.1411	0.6159	-0.121
Mof_C 	C 	0.9851	0.6152	0.2261	-0.105
Mof_C 	C 	0.2483	0.9275	0.107	0.403
Mof_C 	C 	0.163	0.1124	0.0966	0.044
Mof_C 	C 	0.4862	0.3718	0.1856	0.415
Mof_C 	C 	0.9456	0.4641	0.4211	0.478
Mof_C 	C 	0.9853	0.2943	0.3113	0.054
Mof_C 	C 	0.8133	0.1729	0.3759	0.134
Mof_C 	C 	0.2533	0.108	0.7466	-0.059
Mof_C 	C 	0.3518	0.1924	0.2711	0.445
Mof_C 	C 	0.1594	0.5365	0.1924	0.445
Mof_C 	C 	0.2888	0.3285	0.351	-0.114
Mof_C 	C 	0.1052	0.8896	0.0586	0.465
Mof_C 	C 	0.3832	0.9777	0.8401	0.056
Mof_C 	C 	0.7067	0.4374	0.2476	-0.173
Mof_C 	C 	0.8541	0.45144	0.54674	-0.197
Mof_C 	C 	0.1061	0.1528	0.0962	0.13
Mof_C 	C 	0.7992	0.3984	0.5234	-0.072
Mof_C 	C 	0.9005	0.6159	0.243	-0.122
Mof_C 	C 	0.6229	0.2711	0.5365	0.445
Mof_C 	C 	0.2795	0.6245	0.0437	-0.133
Mof_C 	C 	0.376	0.1348	0.3326	-0.026
Mof_C 	C 	0.4389	0.2599	0.0263	-0.007
Mof_C 	C 	0.1584	0.1737	0.1333	-0.012
Mof_C 	C 	0.3392	0.1557	0.5897	0.022
Mof_C 	C 	0.5999	0.4039	0.2174	-0.042
Mof_C 	C 	0.349	0.9475	0.8945	-0.158
Mof_C 	C 	0.5096	0.3354	0.0052	0.074
Mof_C 	C 	0.5396	0.4024	0.1808	-0.141
Mof_C 	C 	0.1986	0.1856	0.1476	-0.007
Mof_C 	C 	0.7086	0.3326	0.5326	-0.026
Mof_C 	C 	0.2693	0.315	0.4374	-0.173
Mof_C 	C 	0.4082	0.9615	0.8137	-0.075
Mof_C 	C 	0.2412	0.5326	0.1348	-0.026
Mof_C 	C 	0.0079	0.8441	0.0944	0.09
Mof_C 	C 	0.6714	0.4371	0.2272	0.146
Mof_C 	C 	0.1304	0.4139	0.4499	0.079
Mof_C 	C 	0.3774	0.0915	0.3646	-0.005
Mof_C 	C 	0.4055	0.1822	0.9777	0.057
Mof_C 	C 	0.40266	0.00182	0.45144	-0.209
Mof_C 	C 	0.2538	0.3492	0.3507	0.008
Mof_C 	C 	0.5395	0.34	0.9585	-0.149
Mof_C 	C 	0.89607	0.44734	0.46923	-0.173
Mof_C 	C 	0.9543	0.2476	0.315	-0.173
Mof_C 	C 	0.2112	0.2261	0.1587	-0.106
Mof_C 	C 	0.4254	0.2978	0.0888	0.46
Mof_C 	C 	0.6404	0.4512	0.1729	0.134
Mof_C 	C 	0.1576	0.0729	0.7997	-0.177
Mof_C 	C 	0.2219	0.8137	0.2248	-0.066
Mof_C 	C 	0.4467	0.2248	0.9615	-0.076
Mof_C 	C 	0.2966	0.3113	0.3944	0.054
Mof_C 	C 	0.2596	0.0966	0.791	0.044
Mof_C 	C 	0.1453	0.1454	0.108	-0.06
Mof_C 	C 	0.44873	0.08343	0.44734	-0.176
Mof_C 	C 	0.6045	0.3507	0.3001	0.008
Mof_C 	C 	0.1995	0.7015	0.34	-0.16
Mof_C 	C 	0.32499	0.47949	0.10722	0.054
Mof_C 	C 	0.4973	0.2301	0.878	-0.244
Mof_C 	C 	0.196	0.3787	0.4039	-0.042
Mof_C 	C 	0.8173	0.2174	0.3787	-0.042
Mof_C 	C 	0.1565	0.3935	0.4742	-0.176
Mof_C 	C 	0.4658	0.2582	0.9799	-0.019
Mof_C 	C 	0.2088	0.5565	0.1431	-0.083
Mof_C 	C 	0.713	0.3666	0.5927	0.098
Mof_C 	C 	0.9046	0.3001	0.3492	0.008
Mof_C 	C 	0.4597	0.2977	0.0422	-0.131
Mof_C 	C 	0.6398	0.351	0.3205	-0.114
Mof_C 	C 	0.013	0.6668	0.1856	-0.007
Mof_C 	C 	0.261	0.13	0.6675	0.078
Mof_C 	C 	0.2917	0.1333	0.693	-0.012
Mof_C 	C 	0.1742	0.6594	0.3354	0.087
Mof_N 	N 	0.754	0.3983	0.5965	-0.235
Mof_N 	N 	0.2396	0.8057	0.2906	-0.261
Mof_N 	N 	0.8637	0.1849	0.3417	-0.245
Mof_N 	N 	0.6788	0.4734	0.1849	-0.245
Mof_N 	N 	0.3505	0.5965	0.0052	-0.239
Mof_N 	N 	0.5302	0.2906	0.9037	-0.261
Mof_N 	N 	0.1992	0.099	0.7058	-0.213
Mof_N 	N 	0.1002	0.1952	0.099	-0.213
Mof_N 	N 	0.905	0.7058	0.1952	-0.213
Mof_N 	N 	0.4339	0.9037	0.8057	-0.261
Mof_N 	N 	0.3557	0.0052	0.3983	-0.239
Mof_N 	N 	0.2054	0.3417	0.4734	-0.245
Mof_O 	O 	0.1477	0.0361	0.035	-0.571
Mof_O 	O 	0.9699	0.3899	0.3391	-0.467
Mof_O 	O 	0.3564	0.3001	0.1988	-0.966
Mof_O 	O 	0.2279	0.9032	0.0902	-0.528
Mof_O 	O 	0.3247	0.0066	0.9032	-0.532
Mof_O 	O 	0.4393	0.1773	0.5348	-0.543
Mof_O 	O 	0.055	0.598	0.217	-0.49
Mof_O 	O 	0.5356	0.0852	0.5753	-0.537
Mof_O 	O 	0.23313	0	-0	-0.966
Mof_O 	O 	0.4094	0.4175	0.0951	-0.514
Mof_O 	O 	0.3712	0.2205	0.2821	-0.561
Mof_O 	O 	0.344	0.2936	0.3092	-0.518
Mof_O 	O 	0.5045	0.0951	0.4874	-0.514
Mof_O 	O 	0.3508	0.1008	0.9263	-0.512
Mof_O 	O 	0.25	0.9729	0.1008	-0.509
Mof_O 	O 	0.4504	0.3395	0.0852	-0.537
Mof_O 	O 	0.272	0.217	0.185	-0.49
Mof_O 	O 	0.58	0.271	0.3899	-0.467
Mof_O 	O 	0.9741	0.5348	0.2879	-0.543
Mof_O 	O 	0.5785	0.2422	0.5766	-0.513
Mof_O 	O 	0.457	0.185	0.598	-0.49
Mof_O 	O 	0.3294	0.3905	0.1563	-0.543
Mof_O 	O 	0.0504	0.3972	0.2936	-0.518
Mof_O 	O 	0.3888	0.2556	0.1231	-0.536
Mof_O 	O 	0.309	0.3391	0.271	-0.467
Mof_O 	O 	0.5119	0.1231	0.6213	-0.536
Mof_O 	O 	0.1109	0.5753	0.3395	-0.538
Mof_O 	O 	0.0865	0.461	0.3938	-0.484
Mof_O 	O 	0.1827	0.035	0.9289	-0.568
Mof_O 	O 	0.3181	0.0902	0.0066	-0.534
Mof_O 	O 	0.6737	0.2255	0.442	-0.527
Mof_O 	O 	0.0563	0.5011	0.3001	-0.966
Mof_O 	O 	0.6533	0.2821	0.4974	-0.561
Mof_O 	O 	0.4857	0.1563	0.4532	-0.543
Mof_O 	O 	0.3363	0.1812	0.2422	-0.513
Mof_O 	O 	0.6532	0.3092	0.3972	-0.518
Mof_O 	O 	0.4482	0.3325	0.2255	-0.527
Mof_O 	O 	0.9389	0.4532	0.3905	-0.543
Mof_O 	O 	0.262	0.2879	0.1773	-0.543
Mof_O 	O 	0.27	0.0696	0.8807	-0.477
Mof_O 	O 	0.5552	0.1988	0.5011	-0.966
Mof_O 	O 	0.1332	0.6213	0.2556	-0.537
Mof_O 	O 	0.4803	0.3938	0.1452	-0.484
Mof_O 	O 	0.2004	0.0497	0.0696	-0.479
Mof_O 	O 	0.1507	0.8807	0.0497	-0.478
Mof_O 	O 	0.1116	0.9289	0.0361	-0.569
Mof_O 	O 	0.1551	0.5766	0.1812	-0.513
Mof_O 	O 	0.1507	0.4974	0.2205	-0.561
Mof_O 	O 	0.2771	0.9263	0.9729	-0.509
Mof_O 	O 	0.1157	0.442	0.3325	-0.527
Mof_O 	O 	0.6255	0.1452	0.461	-0.484
Mof_O 	O 	0.9919	0.4874	0.4175	-0.513
_end
