# CIF file generated by openbabel 3.1.0, see https://openbabel.org
data_I
_chemical_name_common 'image0'
_cell_length_a 9.7306
_cell_length_b 10.53
_cell_length_c 16.416
_cell_angle_alpha 90
_cell_angle_beta 112.13
_cell_angle_gamma 90
_space_group_name_H-M_alt 'P 1'
_space_group_name_Hall 'P 1'
loop_
    _symmetry_equiv_pos_as_xyz
    x,y,z
loop_
    _atom_site_label
    _atom_site_type_symbol
    _atom_site_fract_x
    _atom_site_fract_y
    _atom_site_fract_z
    _atom_site_occupancy
    C1       C        0.67710    0.05390    0.96930    1.000
    H1       H        0.60740    0.11020    0.93270    1.000
    C2       C        0.64210    0.92710    0.97050    1.000
    H2       H        0.54940    0.89720    0.93390    1.000
    C3       C        0.74420    0.84580    0.02570    1.000
    H3       H        0.72020    0.76060    0.02760    1.000
    C4       C        0.88170    0.88910    0.07830    1.000
    H4       H        0.95110    0.83320    0.11560    1.000
    C5       C        0.91830    0.01710    0.07600    1.000
    C6       C        0.06600    0.07140    0.12800    1.000
    H5       H        0.09030    0.13490    0.09280    1.000
    H6       H        0.13980    0.00460    0.14100    1.000
    C7       C        0.92850    0.96740    0.46800    1.000
    C8       C        0.51650    0.93990    0.52910    1.000
    Gd1      Gd       0.18022    0.88804    0.39342    1.000
    N1       N        0.81330    0.09620    0.02150    1.000
    O1       O        0.06200    0.04200    0.29066    1.000
    O2       O        0.23710    0.20320    0.26798    1.000
    H7       H        0.28400    0.17300    0.31660    1.000
    O3       O        0.96150    0.24630    0.21048    1.000
    O4       O        0.84540    0.21790    0.01707    1.000
    O5       O        0.81430    0.97940    0.48541    1.000
    O6       O        0.93810    0.90900    0.40476    1.000
    O7       O        0.42620    0.85200    0.50717    1.000
    O8       O        0.63730    0.94320    0.59488    1.000
    P1       P        0.07588    0.14354    0.23021    1.000
    C9       C        0.32290    0.55390    0.53070    1.000
    H8       H        0.39260    0.61020    0.56730    1.000
    C10      C        0.35790    0.42710    0.52950    1.000
    H9       H        0.45060    0.39720    0.56610    1.000
    C11      C        0.25580    0.34580    0.47430    1.000
    H10      H        0.27980    0.26060    0.47240    1.000
    C12      C        0.11830    0.38910    0.42170    1.000
    H11      H        0.04890    0.33320    0.38440    1.000
    C13      C        0.08170    0.51710    0.42400    1.000
    C14      C        0.93400    0.57140    0.37200    1.000
    H12      H        0.90970    0.63490    0.40720    1.000
    H13      H        0.86020    0.50460    0.35900    1.000
    C15      C        0.07150    0.46740    0.03200    1.000
    C16      C        0.48350    0.43990    0.97090    1.000
    Gd2      Gd       0.81978    0.38804    0.10658    1.000
    N2       N        0.18670    0.59620    0.47850    1.000
    O9       O        0.93800    0.54200    0.20934    1.000
    O10      O        0.76290    0.70320    0.23202    1.000
    H14      H        0.71600    0.67300    0.18340    1.000
    O11      O        0.03850    0.74630    0.28952    1.000
    O12      O        0.15460    0.71790    0.48293    1.000
    O13      O        0.18570    0.47940    0.01459    1.000
    O14      O        0.06190    0.40900    0.09524    1.000
    O15      O        0.57380    0.35200    0.99283    1.000
    O16      O        0.36270    0.44320    0.90512    1.000
    P2       P        0.92412    0.64354    0.26979    1.000
    C17      C        0.32290    0.94610    0.03070    1.000
    H15      H        0.39260    0.88980    0.06730    1.000
    C18      C        0.35790    0.07290    0.02950    1.000
    H16      H        0.45060    0.10280    0.06610    1.000
    C19      C        0.25580    0.15420    0.97430    1.000
    H17      H        0.27980    0.23940    0.97240    1.000
    C20      C        0.11830    0.11090    0.92170    1.000
    H18      H        0.04890    0.16680    0.88440    1.000
    C21      C        0.08170    0.98290    0.92400    1.000
    C22      C        0.93400    0.92860    0.87200    1.000
    H19      H        0.90970    0.86510    0.90720    1.000
    H20      H        0.86020    0.99540    0.85900    1.000
    C23      C        0.07150    0.03260    0.53200    1.000
    C24      C        0.48350    0.06010    0.47090    1.000
    Gd3      Gd       0.81978    0.11196    0.60658    1.000
    N3       N        0.18670    0.90380    0.97850    1.000
    O17      O        0.93800    0.95800    0.70934    1.000
    O18      O        0.76290    0.79680    0.73202    1.000
    H21      H        0.71600    0.82700    0.68340    1.000
    O19      O        0.03850    0.75370    0.78952    1.000
    O20      O        0.15460    0.78210    0.98293    1.000
    O21      O        0.18570    0.02060    0.51459    1.000
    O22      O        0.06190    0.09100    0.59524    1.000
    O23      O        0.57380    0.14800    0.49283    1.000
    O24      O        0.36270    0.05680    0.40512    1.000
    P3       P        0.92412    0.85646    0.76979    1.000
    C25      C        0.67710    0.44610    0.46930    1.000
    H22      H        0.60740    0.38980    0.43270    1.000
    C26      C        0.64210    0.57290    0.47050    1.000
    H23      H        0.54940    0.60280    0.43390    1.000
    C27      C        0.74420    0.65420    0.52570    1.000
    H24      H        0.72020    0.73940    0.52760    1.000
    C28      C        0.88170    0.61090    0.57830    1.000
    H25      H        0.95110    0.66680    0.61560    1.000
    C29      C        0.91830    0.48290    0.57600    1.000
    C30      C        0.06600    0.42860    0.62800    1.000
    H26      H        0.09030    0.36510    0.59280    1.000
    H27      H        0.13980    0.49540    0.64100    1.000
    C31      C        0.92850    0.53260    0.96800    1.000
    C32      C        0.51650    0.56010    0.02910    1.000
    Gd4      Gd       0.18022    0.61196    0.89342    1.000
    N4       N        0.81330    0.40380    0.52150    1.000
    O25      O        0.06200    0.45800    0.79066    1.000
    O26      O        0.23710    0.29680    0.76798    1.000
    H28      H        0.28400    0.32700    0.81660    1.000
    O27      O        0.96150    0.25370    0.71048    1.000
    O28      O        0.84540    0.28210    0.51707    1.000
    O29      O        0.81430    0.52060    0.98541    1.000
    O30      O        0.93810    0.59100    0.90476    1.000
    O31      O        0.42620    0.64800    0.00717    1.000
    O32      O        0.63730    0.55680    0.09488    1.000
    P4       P        0.07588    0.35646    0.73021    1.000
