# CIF file generated by openbabel 3.1.0, see https://openbabel.org
data_I
_chemical_name_common 'KOYRAT_charged'
_cell_length_a 14.514
_cell_length_b 24.572
_cell_length_c 22.314
_cell_angle_alpha 90
_cell_angle_beta 90
_cell_angle_gamma 90
_space_group_name_H-M_alt 'P 1'
_space_group_name_Hall 'P 1'
loop_
    _symmetry_equiv_pos_as_xyz
    x,y,z
loop_
    _atom_site_label
    _atom_site_type_symbol
    _atom_site_fract_x
    _atom_site_fract_y
    _atom_site_fract_z
    _atom_site_occupancy
    Zn1      Zn       0.45773    0.84432    0.14791    1.000
    Zn2      Zn       0.04227    0.34432    0.14791    1.000
    Zn3      Zn       0.53757    0.84187    0.82622    1.000
    Zn4      Zn       0.96243    0.34187    0.82622    1.000
    H1       H        0.51510    0.37430    0.88940    1.000
    H2       H        0.54630    0.91650    0.51330    1.000
    H3       H        0.23560    0.13160    0.98070    1.000
    H4       H        0.83480    0.87430    0.85120    1.000
    H5       H        0.24820    0.31950    0.96390    1.000
    H6       H        0.59440    0.99470    0.17170    1.000
    H7       H        0.90560    0.49470    0.17170    1.000
    H8       H        0.14820    0.21160    0.98340    1.000
    H9       H        0.96540    0.26950    0.64640    1.000
    H10      H        0.11210    0.24900    0.35950    1.000
    H11      H        0.91550    0.18900    0.16350    1.000
    H12      H        0.50980    0.75540    0.54400    1.000
    H13      H        0.10290    0.82860    0.92500    1.000
    H14      H        0.68390    0.07390    0.17120    1.000
    H15      H        0.67470    0.61010    0.16090    1.000
    H16      H        0.39710    0.32860    0.92500    1.000
    H17      H        0.48430    0.39040    0.08360    1.000
    H18      H        0.28400    0.06230    0.80380    1.000
    H19      H        0.16460    0.88120    0.12250    1.000
    H20      H        0.73340    0.85670    0.01930    1.000
    H21      H        0.92700    0.39360    0.42390    1.000
    H22      H        0.35180    0.71160    0.98340    1.000
    H23      H        0.13940    0.09960    0.81390    1.000
    H24      H        0.38790    0.74900    0.35950    1.000
    H25      H        0.12530    0.48370    0.80000    1.000
    H26      H        0.53460    0.76950    0.64640    1.000
    H27      H        0.82530    0.11010    0.16090    1.000
    H28      H        0.66520    0.37430    0.85120    1.000
    H29      H        0.88630    0.48610    0.99070    1.000
    H30      H        0.57300    0.89360    0.42390    1.000
    H31      H        0.07560    0.25810    0.46110    1.000
    H32      H        0.01570    0.89040    0.08360    1.000
    H33      H        0.17050    0.45840    0.97710    1.000
    H34      H        0.42440    0.75810    0.46110    1.000
    H35      H        0.26130    0.53710    0.98090    1.000
    H36      H        0.61650    0.35670    0.05760    1.000
    H37      H        0.61370    0.98610    0.99070    1.000
    H38      H        0.78800    0.65960    0.00410    1.000
    H39      H        0.88350    0.85670    0.05760    1.000
    H40      H        0.37470    0.98370    0.80000    1.000
    H41      H        0.33540    0.38120    0.12250    1.000
    H42      H        0.58450    0.68900    0.16350    1.000
    H43      H        0.92880    0.43070    0.61570    1.000
    H44      H        0.69780    0.73850    0.00670    1.000
    H45      H        0.80220    0.23850    0.00670    1.000
    H46      H        0.98490    0.87430    0.88940    1.000
    H47      H        0.95370    0.41650    0.51330    1.000
    H48      H        0.96350    0.38450    0.32220    1.000
    H49      H        0.05200    0.17960    0.81660    1.000
    H50      H        0.70330    0.06530    0.99020    1.000
    H51      H        0.57120    0.93070    0.61570    1.000
    H52      H        0.23870    0.03710    0.98090    1.000
    H53      H        0.26440    0.63160    0.98070    1.000
    H54      H        0.99020    0.25540    0.54400    1.000
    H55      H        0.76660    0.35670    0.01930    1.000
    H56      H        0.32950    0.95840    0.97710    1.000
    H57      H        0.79670    0.56530    0.99020    1.000
    H58      H        0.36060    0.59960    0.81390    1.000
    H59      H        0.44800    0.67960    0.81660    1.000
    H60      H        0.71200    0.15960    0.00410    1.000
    H61      H        0.53650    0.88450    0.32220    1.000
    H62      H        0.81610    0.57390    0.17120    1.000
    H63      H        0.25180    0.81950    0.96390    1.000
    H64      H        0.21600    0.56230    0.80380    1.000
    Ru1      Ru       0.49634    0.84516    0.99040    1.000
    Ru2      Ru       0.00366    0.34516    0.99040    1.000
    C1       C        0.59560    0.98300    0.08120    1.000
    C2       C        0.36060    0.96364    0.88820    1.000
    C3       C        0.19570    0.10810    0.89700    1.000
    C4       C        0.69310    0.71240    0.03800    1.000
    C5       C        0.29320    0.04121    0.83900    1.000
    C6       C        0.06350    0.31080    0.26950    1.000
    C7       C        0.34710    0.99449    0.83670    1.000
    C8       C        0.53550    0.86430    0.41080    1.000
    C9       C        0.54390    0.88670    0.54030    1.000
    C10      C        0.32020    0.97950    0.94190    1.000
    C11      C        0.08930    0.16986    0.84990    1.000
    C12      C        0.18330    0.34310    0.06820    1.000
    C13      C        0.96300    0.29938    0.61940    1.000
    C14      C        0.65530    0.37072    0.89310    1.000
    C15      C        0.51380    0.85890    0.35040    1.000
    C16      C        0.87420    0.18300    0.13110    1.000
    C17      C        0.70200    0.07710    0.08060    1.000
    C18      C        0.66960    0.05610    0.13450    1.000
    C19      C        0.50220    0.82670    0.45210    1.000
    C20      C        0.84470    0.87072    0.89310    1.000
    C21      C        0.67300    0.86210    0.90430    1.000
    C22      C        0.68120    0.05100    0.02710    1.000
    C23      C        0.81880    0.55100    0.02710    1.000
    C24      C        0.23370    0.52621    0.94420    1.000
    C25      C        0.56620    0.37070    0.91580    1.000
    C26      C        0.13940    0.46364    0.88820    1.000
    C27      C        0.71550    0.36024    0.99290    1.000
    C28      C        0.94830    0.86550    0.97710    1.000
    C29      C        0.07450    0.27840    0.37250    1.000
    C30      C        0.67940    0.63610    0.12960    1.000
    C31      C        0.90440    0.48300    0.08120    1.000
    C32      C        0.31670    0.84310    0.06820    1.000
    C33      C        0.45470    0.36040    0.00060    1.000
    C34      C        0.53700    0.79938    0.61940    1.000
    C35      C        0.54070    0.93020    0.08330    1.000
    C36      C        0.93380    0.87070    0.91580    1.000
    C37      C        0.83040    0.55610    0.13450    1.000
    C38      C        0.35360    0.68887    0.94900    1.000
    C39      C        0.62800    0.00390    0.02740    1.000
    C40      C        0.26630    0.02621    0.94420    1.000
    C41      C        0.15210    0.87060    0.08240    1.000
    C42      C        0.41330    0.91140    0.88800    1.000
    C43      C        0.38460    0.33930    0.96510    1.000
    C44      C        0.80690    0.21240    0.03800    1.000
    C45      C        0.92560    0.27280    0.08900    1.000
    C46      C        0.11540    0.83930    0.96510    1.000
    C47      C        0.82700    0.36210    0.90430    1.000
    C48      C        0.97430    0.33460    0.51900    1.000
    C49      C        0.77000    0.86548    0.93160    1.000
    C50      C        0.63270    0.72114    0.08530    1.000
    C51      C        0.20380    0.83390    0.98820    1.000
    C52      C        0.52220    0.79100    0.55850    1.000
    C53      C        0.55170    0.36550    0.97710    1.000
    C54      C        0.82060    0.13610    0.12960    1.000
    C55      C        0.57440    0.77280    0.08900    1.000
    C56      C        0.97780    0.29100    0.55850    1.000
    C57      C        0.42550    0.77840    0.37250    1.000
    C58      C        0.15290    0.49449    0.83670    1.000
    C59      C        0.06360    0.87600    0.05930    1.000
    C60      C        0.14120    0.12235    0.84830    1.000
    C61      C        0.55870    0.89510    0.60120    1.000
    C62      C        0.62580    0.68300    0.13110    1.000
    C63      C        0.87200    0.50390    0.02740    1.000
    C64      C        0.93980    0.36270    0.70570    1.000
    C65      C        0.27780    0.34950    0.04690    1.000
    C66      C        0.73000    0.36548    0.93160    1.000
    C67      C        0.20680    0.54121    0.83900    1.000
    C68      C        0.56020    0.86270    0.70570    1.000
    C69      C        0.05280    0.28380    0.43290    1.000
    C70      C        0.45880    0.81590    0.33130    1.000
    C71      C        0.04530    0.86040    0.00060    1.000
    C72      C        0.41070    0.66986    0.84990    1.000
    C73      C        0.14640    0.18887    0.94900    1.000
    C74      C        0.94480    0.35143    0.64070    1.000
    C75      C        0.96450    0.36430    0.41080    1.000
    C76      C        0.62640    0.36020    0.01570    1.000
    C77      C        0.34790    0.37060    0.08240    1.000
    C78      C        0.08670    0.41140    0.88800    1.000
    C79      C        0.03230    0.25520    0.90180    1.000
    C80      C        0.95930    0.43020    0.08330    1.000
    C81      C        0.95610    0.38670    0.54030    1.000
    C82      C        0.61650    0.00900    0.13480    1.000
    C83      C        0.74670    0.66560    0.03640    1.000
    C84      C        0.73980    0.62740    0.08220    1.000
    C85      C        0.30430    0.60810    0.89700    1.000
    C86      C        0.46770    0.75520    0.90180    1.000
    C87      C        0.30170    0.64136    0.94740    1.000
    C88      C        0.98620    0.35890    0.35040    1.000
    C89      C        0.25280    0.05707    0.89270    1.000
    C90      C        0.29620    0.33390    0.98820    1.000
    C91      C        0.09190    0.20313    0.90030    1.000
    C92      C        0.76020    0.12740    0.08220    1.000
    C93      C        0.44720    0.78380    0.43290    1.000
    C94      C        0.75330    0.16560    0.03640    1.000
    C95      C        0.22220    0.84950    0.04690    1.000
    C96      C        0.04120    0.31590    0.33130    1.000
    C97      C        0.78450    0.86024    0.99290    1.000
    C98      C        0.43640    0.37600    0.05930    1.000
    C99      C        0.52570    0.83460    0.51900    1.000
    C100     C        0.79800    0.57710    0.08060    1.000
    C101     C        0.55520    0.85143    0.64070    1.000
    C102     C        0.88350    0.50900    0.13480    1.000
    C103     C        0.43650    0.81080    0.26950    1.000
    C104     C        0.87360    0.86020    0.01570    1.000
    C105     C        0.94130    0.39510    0.60120    1.000
    C106     C        0.35880    0.62235    0.84830    1.000
    C107     C        0.99780    0.32670    0.45210    1.000
    C108     C        0.24720    0.55707    0.89270    1.000
    C109     C        0.40810    0.70313    0.90030    1.000
    C110     C        0.17980    0.47950    0.94190    1.000
    C111     C        0.19830    0.14136    0.94740    1.000
    C112     C        0.86730    0.22114    0.08530    1.000
    O1       O        0.99830    0.41910    0.03380    1.000
    O2       O        0.33040    0.85630    0.12370    1.000
    O3       O        0.49050    0.77030    0.95060    1.000
    O4       O        0.54170    0.82450    0.74090    1.000
    O5       O        0.90690    0.40740    0.72180    1.000
    O6       O        0.58730    0.80900    0.05040    1.000
    O7       O        0.09280    0.37810    0.92680    1.000
    O8       O        0.88940    0.37110    0.94100    1.000
    O9       O        0.46280    0.85050    0.23360    1.000
    O10      O        0.97120    0.40900    0.13100    1.000
    O11      O        0.03830    0.40550    0.83740    1.000
    O12      O        0.12380    0.32120    0.03660    1.000
    O13      O        0.10430    0.26860    0.24890    1.000
    O14      O        0.91270    0.30900    0.05040    1.000
    O15      O        0.37620    0.82120    0.03660    1.000
    O16      O        0.95830    0.32450    0.74090    1.000
    O17      O        0.40720    0.87810    0.92680    1.000
    O18      O        0.66570    0.85170    0.85280    1.000
    O19      O        0.98260    0.27510    0.13050    1.000
    O20      O        0.61060    0.87110    0.94100    1.000
    O21      O        0.39570    0.76860    0.24890    1.000
    O22      O        0.46170    0.90550    0.83740    1.000
    O23      O        0.48080    0.77510    0.85030    1.000
    O24      O        0.00950    0.27030    0.95060    1.000
    O25      O        0.83430    0.35170    0.85280    1.000
    O26      O        0.03720    0.35050    0.23360    1.000
    O27      O        0.51740    0.77510    0.13050    1.000
    O28      O        0.01920    0.27510    0.85030    1.000
    O29      O        0.52880    0.90900    0.13100    1.000
    O30      O        0.16960    0.35630    0.12370    1.000
    O31      O        0.50170    0.91910    0.03380    1.000
    O32      O        0.59310    0.90740    0.72180    1.000
    Zn5      Zn       0.95773    0.65568    0.64791    1.000
    Zn6      Zn       0.03757    0.65813    0.32622    1.000
    Zn7      Zn       0.54227    0.15568    0.64791    1.000
    Zn8      Zn       0.46243    0.15813    0.32622    1.000
    H65      H        0.46540    0.23050    0.14640    1.000
    H66      H        0.18390    0.42610    0.67120    1.000
    H67      H        0.07120    0.56930    0.11570    1.000
    H68      H        0.82950    0.54160    0.47710    1.000
    H69      H        0.92440    0.74190    0.96110    1.000
    H70      H        0.32530    0.38990    0.66090    1.000
    H71      H        0.23340    0.64330    0.51930    1.000
    H72      H        0.73560    0.36840    0.48070    1.000
    H73      H        0.88790    0.75100    0.85950    1.000
    H74      H        0.17470    0.88990    0.66090    1.000
    H75      H        0.78400    0.43770    0.30380    1.000
    H76      H        0.11650    0.14330    0.55760    1.000
    H77      H        0.62530    0.01630    0.30000    1.000
    H78      H        0.38350    0.64330    0.55760    1.000
    H79      H        0.51570    0.60960    0.58360    1.000
    H80      H        0.73870    0.46290    0.48090    1.000
    H81      H        0.31610    0.92610    0.67120    1.000
    H82      H        0.38630    0.01390    0.49070    1.000
    H83      H        0.86060    0.90040    0.31390    1.000
    H84      H        0.87470    0.51630    0.30000    1.000
    H85      H        0.76130    0.96290    0.48090    1.000
    H86      H        0.07300    0.60640    0.92390    1.000
    H87      H        0.67050    0.04160    0.47710    1.000
    H88      H        0.71600    0.93770    0.30380    1.000
    H89      H        0.30220    0.26150    0.50670    1.000
    H90      H        0.09440    0.50530    0.67170    1.000
    H91      H        0.08450    0.81100    0.66350    1.000
    H92      H        0.03460    0.73050    0.14640    1.000
    H93      H        0.33480    0.62570    0.35120    1.000
    H94      H        0.21200    0.34040    0.50410    1.000
    H95      H        0.55200    0.32040    0.31660    1.000
    H96      H        0.01510    0.12570    0.38940    1.000
    H97      H        0.11370    0.51390    0.49070    1.000
    H98      H        0.89710    0.17140    0.42500    1.000
    H99      H        0.83540    0.11880    0.62250    1.000
    H100     H        0.75180    0.68050    0.46390    1.000
    H101     H        0.48490    0.62570    0.38940    1.000
    H102     H        0.03650    0.61550    0.82220    1.000
    H103     H        0.28800    0.84040    0.50410    1.000
    H104     H        0.29670    0.93470    0.49020    1.000
    H105     H        0.66460    0.61880    0.62250    1.000
    H106     H        0.40560    0.00530    0.67170    1.000
    H107     H        0.46350    0.11550    0.82220    1.000
    H108     H        0.64820    0.28840    0.48340    1.000
    H109     H        0.98430    0.10960    0.58360    1.000
    H110     H        0.61210    0.25100    0.85950    1.000
    H111     H        0.04630    0.58350    0.01330    1.000
    H112     H        0.19780    0.76150    0.50670    1.000
    H113     H        0.41550    0.31100    0.66350    1.000
    H114     H        0.85180    0.78840    0.48340    1.000
    H115     H        0.74820    0.18050    0.46390    1.000
    H116     H        0.16520    0.12570    0.35120    1.000
    H117     H        0.42880    0.06930    0.11570    1.000
    H118     H        0.60290    0.67140    0.42500    1.000
    H119     H        0.45370    0.08350    0.01330    1.000
    H120     H        0.49020    0.24460    0.04400    1.000
    H121     H        0.42700    0.10640    0.92390    1.000
    H122     H        0.63940    0.40040    0.31390    1.000
    H123     H        0.20330    0.43470    0.49020    1.000
    H124     H        0.26660    0.14330    0.51930    1.000
    H125     H        0.57560    0.24190    0.96110    1.000
    H126     H        0.94800    0.82040    0.31660    1.000
    H127     H        0.00980    0.74460    0.04400    1.000
    H128     H        0.76440    0.86840    0.48070    1.000
    Ru3      Ru       0.99634    0.65484    0.49040    1.000
    Ru4      Ru       0.50366    0.15484    0.49040    1.000
    C113     C        0.96770    0.74480    0.40180    1.000
    C114     C        0.91070    0.83014    0.34990    1.000
    C115     C        0.11650    0.49100    0.63480    1.000
    C116     C        0.06620    0.12930    0.41580    1.000
    C117     C        0.32700    0.13790    0.40430    1.000
    C118     C        0.70380    0.66610    0.48820    1.000
    C119     C        0.86060    0.53636    0.38820    1.000
    C120     C        0.09560    0.51700    0.58120    1.000
    C121     C        0.94720    0.71620    0.93290    1.000
    C122     C        0.05170    0.13450    0.47710    1.000
    C123     C        0.84790    0.12940    0.58240    1.000
    C124     C        0.65290    0.00551    0.33670    1.000
    C125     C        0.23980    0.87260    0.58220    1.000
    C126     C        0.03550    0.63570    0.91080    1.000
    C127     C        0.05870    0.60490    0.10120    1.000
    C128     C        0.44830    0.63450    0.47710    1.000
    C129     C        0.17300    0.63790    0.40430    1.000
    C130     C        0.54120    0.18410    0.83130    1.000
    C131     C        0.37360    0.63980    0.51570    1.000
    C132     C        0.15530    0.12928    0.39310    1.000
    C133     C        0.07440    0.72720    0.58900    1.000
    C134     C        0.95470    0.13960    0.50060    1.000
    C135     C        0.82020    0.52050    0.44190    1.000
    C136     C        0.05520    0.64857    0.14070    1.000
    C137     C        0.65210    0.62940    0.58240    1.000
    C138     C        0.43980    0.13730    0.20570    1.000
    C139     C        0.42560    0.22720    0.58900    1.000
    C140     C        0.46450    0.13570    0.91080    1.000
    C141     C        0.76630    0.47379    0.44420    1.000
    C142     C        0.29800    0.92290    0.58060    1.000
    C143     C        0.92550    0.72160    0.87250    1.000
    C144     C        0.72220    0.65050    0.54690    1.000
    C145     C        0.79320    0.45879    0.33900    1.000
    C146     C        0.43380    0.62930    0.41580    1.000
    C147     C        0.54530    0.63960    0.50060    1.000
    C148     C        0.24670    0.83440    0.53640    1.000
    C149     C        0.93640    0.12400    0.55930    1.000
    C150     C        0.02220    0.70900    0.05850    1.000
    C151     C        0.27000    0.63452    0.43160    1.000
    C152     C        0.33040    0.94390    0.63450    1.000
    C153     C        0.61540    0.66070    0.46510    1.000
    C154     C        0.45610    0.11330    0.04030    1.000
    C155     C        0.47780    0.20900    0.05850    1.000
    C156     C        0.32060    0.36390    0.62960    1.000
    C157     C        0.25330    0.33440    0.53640    1.000
    C158     C        0.36730    0.27886    0.58530    1.000
    C159     C        0.02570    0.66540    0.01900    1.000
    C160     C        0.28450    0.63976    0.49290    1.000
    C161     C        0.49780    0.17330    0.95210    1.000
    C162     C        0.59190    0.29687    0.40030    1.000
    C163     C        0.00220    0.67330    0.95210    1.000
    C164     C        0.55280    0.21620    0.93290    1.000
    C165     C        0.90810    0.79687    0.40030    1.000
    C166     C        0.44130    0.10490    0.10120    1.000
    C167     C        0.57450    0.22160    0.87250    1.000
    C168     C        0.85360    0.81113    0.44900    1.000
    C169     C        0.56360    0.62400    0.55930    1.000
    C170     C        0.23000    0.13452    0.43160    1.000
    C171     C        0.67980    0.02050    0.44190    1.000
    C172     C        0.95880    0.68410    0.83130    1.000
    C173     C        0.91330    0.58860    0.38800    1.000
    C174     C        0.30690    0.28760    0.53800    1.000
    C175     C        0.73370    0.97379    0.44420    1.000
    C176     C        0.45930    0.06980    0.58330    1.000
    C177     C        0.70680    0.95879    0.33900    1.000
    C178     C        0.68330    0.15690    0.56820    1.000
    C179     C        0.16960    0.44390    0.63450    1.000
    C180     C        0.79620    0.16610    0.48820    1.000
    C181     C        0.19310    0.78760    0.53800    1.000
    C182     C        0.84710    0.50551    0.33670    1.000
    C183     C        0.31880    0.94900    0.52710    1.000
    C184     C        0.56350    0.18920    0.76950    1.000
    C185     C        0.58670    0.08860    0.38800    1.000
    C186     C        0.64120    0.37765    0.34830    1.000
    C187     C        0.04070    0.56980    0.58330    1.000
    C188     C        0.12640    0.13980    0.51570    1.000
    C189     C        0.12800    0.49610    0.52740    1.000
    C190     C        0.77780    0.15050    0.54690    1.000
    C191     C        0.37200    0.99610    0.52740    1.000
    C192     C        0.47430    0.16540    0.01900    1.000
    C193     C        0.01380    0.64110    0.85040    1.000
    C194     C        0.74720    0.94293    0.39270    1.000
    C195     C        0.48620    0.14110    0.85040    1.000
    C196     C        0.20200    0.42290    0.58060    1.000
    C197     C        0.88460    0.16070    0.46510    1.000
    C198     C        0.13270    0.77886    0.58530    1.000
    C199     C        0.75280    0.44293    0.39270    1.000
    C200     C        0.69570    0.39190    0.39700    1.000
    C201     C        0.53230    0.24480    0.40180    1.000
    C202     C        0.93650    0.68920    0.76950    1.000
    C203     C        0.64640    0.31113    0.44900    1.000
    C204     C        0.38350    0.99100    0.63480    1.000
    C205     C        0.63940    0.03636    0.38820    1.000
    C206     C        0.40440    0.01700    0.58120    1.000
    C207     C        0.44480    0.14857    0.14070    1.000
    C208     C        0.80430    0.89190    0.39700    1.000
    C209     C        0.12580    0.81700    0.63110    1.000
    C210     C        0.17940    0.86390    0.62960    1.000
    C211     C        0.18120    0.44900    0.52710    1.000
    C212     C        0.37420    0.31700    0.63110    1.000
    C213     C        0.81670    0.65690    0.56820    1.000
    C214     C        0.04390    0.61330    0.04030    1.000
    C215     C        0.58930    0.33014    0.34990    1.000
    C216     C        0.03700    0.70062    0.11940    1.000
    C217     C        0.21550    0.13976    0.49290    1.000
    C218     C        0.34470    0.62928    0.39310    1.000
    C219     C        0.80170    0.85864    0.44740    1.000
    C220     C        0.69830    0.35864    0.44740    1.000
    C221     C        0.46300    0.20062    0.11940    1.000
    C222     C        0.06020    0.63730    0.20570    1.000
    C223     C        0.85880    0.87765    0.34830    1.000
    C224     C        0.26020    0.37260    0.58220    1.000
    O33      O        0.60430    0.23140    0.74890    1.000
    O34      O        0.87620    0.67880    0.53660    1.000
    O35      O        0.62380    0.17880    0.53660    1.000
    O36      O        0.00170    0.58090    0.53380    1.000
    O37      O        0.96280    0.64950    0.73360    1.000
    O38      O        0.90720    0.62190    0.42680    1.000
    O39      O        0.98080    0.72490    0.35030    1.000
    O40      O        0.49830    0.08090    0.53380    1.000
    O41      O        0.50950    0.22970    0.45060    1.000
    O42      O        0.96170    0.59450    0.33740    1.000
    O43      O        0.41270    0.19100    0.55040    1.000
    O44      O        0.99050    0.72970    0.45060    1.000
    O45      O        0.01740    0.72490    0.63050    1.000
    O46      O        0.53830    0.09450    0.33740    1.000
    O47      O        0.16570    0.64830    0.35280    1.000
    O48      O        0.45830    0.17550    0.24090    1.000
    O49      O        0.59280    0.12190    0.42680    1.000
    O50      O        0.08730    0.69100    0.55040    1.000
    O51      O        0.47120    0.09100    0.63100    1.000
    O52      O        0.11060    0.62890    0.44100    1.000
    O53      O        0.51920    0.22490    0.35030    1.000
    O54      O        0.89570    0.73140    0.74890    1.000
    O55      O        0.33430    0.14830    0.35280    1.000
    O56      O        0.38940    0.12890    0.44100    1.000
    O57      O        0.83040    0.64370    0.62370    1.000
    O58      O        0.40690    0.09260    0.22180    1.000
    O59      O        0.04170    0.67550    0.24090    1.000
    O60      O        0.48260    0.22490    0.63050    1.000
    O61      O        0.02880    0.59100    0.63100    1.000
    O62      O        0.09310    0.59260    0.22180    1.000
    O63      O        0.66960    0.14370    0.62370    1.000
    O64      O        0.53720    0.14950    0.73360    1.000
    H129     H        0.25350    0.73140    0.15060    1.000
    H130     H        0.37990    0.63630    0.23680    1.000
    H131     H        0.39630    0.71280    0.18430    1.000
    H132     H        0.26260    0.68030    0.10650    1.000
    H133     H        0.40470    0.66600    0.14380    1.000
    H134     H        0.32760    0.73230    0.09750    1.000
    H135     H        0.29560    0.61980    0.19430    1.000
    H136     H        0.28650    0.67090    0.23840    1.000
    C225     C        0.29660    0.70930    0.12710    1.000
    C226     C        0.32900    0.65030    0.21270    1.000
    N1       N        0.36420    0.68550    0.16650    1.000
    H137     H        0.15560    0.43730    0.26400    1.000
    H138     H        0.14220    0.53020    0.38500    1.000
    H139     H        0.12980    0.48250    0.21510    1.000
    H140     H        0.19950    0.52080    0.29310    1.000
    H141     H        0.10490    0.54130    0.28910    1.000
    H142     H        0.06010    0.48990    0.36710    1.000
    H143     H        0.16340    0.46750    0.37150    1.000
    H144     H        0.05230    0.45970    0.25950    1.000
    C227     C        0.11800    0.46940    0.25580    1.000
    C228     C        0.12500    0.49880    0.36040    1.000
    N2       N        0.13930    0.51140    0.29820    1.000
    H145     H        0.87020    0.51750    0.71510    1.000
    H146     H        0.94770    0.54030    0.75950    1.000
    H147     H        0.85780    0.46980    0.88500    1.000
    H148     H        0.84440    0.56270    0.76400    1.000
    H149     H        0.80050    0.47920    0.79310    1.000
    H150     H        0.83660    0.53250    0.87150    1.000
    H151     H        0.93990    0.51010    0.86710    1.000
    H152     H        0.89510    0.45870    0.78910    1.000
    C229     C        0.88200    0.53060    0.75580    1.000
    C230     C        0.87500    0.50120    0.86040    1.000
    N3       N        0.86070    0.48860    0.79820    1.000
    H153     H        0.24650    0.23140    0.15060    1.000
    H154     H        0.10370    0.21280    0.18430    1.000
    H155     H        0.21350    0.17090    0.23840    1.000
    H156     H        0.23740    0.18030    0.10650    1.000
    H157     H        0.17240    0.23230    0.09750    1.000
    H158     H        0.12010    0.13630    0.23680    1.000
    H159     H        0.20440    0.11980    0.19430    1.000
    H160     H        0.09530    0.16600    0.14380    1.000
    C231     C        0.20340    0.20930    0.12710    1.000
    C232     C        0.17100    0.15030    0.21270    1.000
    N4       N        0.13580    0.18550    0.16650    1.000
    H161     H        0.37020    0.98250    0.21510    1.000
    H162     H        0.35780    0.03020    0.38500    1.000
    H163     H        0.33660    0.96750    0.37150    1.000
    H164     H        0.44770    0.95970    0.25950    1.000
    H165     H        0.39510    0.04130    0.28910    1.000
    H166     H        0.30050    0.02080    0.29310    1.000
    H167     H        0.43990    0.98990    0.36710    1.000
    H168     H        0.34440    0.93730    0.26400    1.000
    C233     C        0.37500    0.99880    0.36040    1.000
    C234     C        0.38200    0.96940    0.25580    1.000
    N5       N        0.36070    0.01140    0.29820    1.000
    H169     H        0.87990    0.86370    0.73680    1.000
    H170     H        0.78650    0.82910    0.73840    1.000
    H171     H        0.76260    0.81970    0.60650    1.000
    H172     H        0.75350    0.76860    0.65060    1.000
    H173     H        0.89630    0.78720    0.68430    1.000
    H174     H        0.79560    0.88020    0.69430    1.000
    H175     H        0.90470    0.83400    0.64380    1.000
    H176     H        0.82760    0.76770    0.59750    1.000
    C235     C        0.82900    0.84970    0.71270    1.000
    C236     C        0.79660    0.79070    0.62710    1.000
    N6       N        0.86420    0.81450    0.66650    1.000
    H177     H        0.70440    0.38020    0.69430    1.000
    H178     H        0.74650    0.26860    0.65060    1.000
    H179     H        0.62010    0.36370    0.73680    1.000
    H180     H        0.59530    0.33400    0.64380    1.000
    H181     H        0.71350    0.32910    0.73840    1.000
    H182     H        0.60370    0.28720    0.68430    1.000
    H183     H        0.73740    0.31970    0.60650    1.000
    H184     H        0.67240    0.26770    0.59750    1.000
    C237     C        0.70340    0.29070    0.62710    1.000
    C238     C        0.67100    0.34970    0.71270    1.000
    N7       N        0.63580    0.31450    0.66650    1.000
    H185     H        0.69950    0.97920    0.79310    1.000
    H186     H        0.55230    0.04030    0.75950    1.000
    H187     H        0.66340    0.03250    0.87150    1.000
    H188     H        0.56010    0.01010    0.86710    1.000
    H189     H        0.60490    0.95870    0.78910    1.000
    H190     H        0.62980    0.01750    0.71510    1.000
    H191     H        0.64220    0.96980    0.88500    1.000
    H192     H        0.65560    0.06270    0.76400    1.000
    C239     C        0.61800    0.03060    0.75580    1.000
    C240     C        0.62500    0.00120    0.86040    1.000
    N8       N        0.63930    0.98860    0.79820    1.000
