data_functionalizedCrystal
_audit_creation_method	'EQeq! by Chris Wilmer'
_symmetry_space_group_name_H-M	'P1'
_symmetry_Int_Tables_number	1
_symmetry_cell_setting	triclinic
loop_
_symmetry_equiv_pos_as_xyz
  x,y,z
_cell_length_a	9.987
_cell_length_b	12.275
_cell_length_c	17.462
_cell_angle_alpha	90
_cell_angle_beta	102.8
_cell_angle_gamma	90
loop_
_atom_site_label
_atom_site_type_symbol
_atom_site_fract_x
_atom_site_fract_y
_atom_site_fract_z
_atom_site_charge
Mof_O 	O 	0.9097	0.2587	0.7167	-0.391
Mof_O 	O 	0.8168	0.4141	0.6298	-0.353
Mof_O 	O 	0.3597	0.1187	0.645	-0.326
Mof_O 	O 	0.9483	0.9882	0.9053	-0.366
Mof_O 	O 	0.1792	0.9492	0.8763	-0.35
Mof_O 	O 	0.1202	0.1453	0.665	-0.327
Mof_O 	O 	0.6856	0.0243	0.4809	-0.317
Mof_O 	O 	0.1541	0.0986	0.9687	-0.345
Mof_O 	O 	0.5939	0.0492	0.6028	-0.382
Mof_O 	O 	0.0494	0.1225	0.8269	-0.34
Mof_O 	O 	0.307	0.0798	0.7772	-0.332
Mof_O 	O 	0.9427	0.4509	0.7664	-0.347
Mof_O 	O 	0.8469	0.0695	0.608	-0.324
Mof_O 	O 	0.0684	0.3875	0.664	-0.353
Mof_O 	O 	0.3148	0.2714	0.7274	-0.32
Mof_O 	O 	0.68	0.2102	0.5395	-0.361
Mof_Fe	Fe	0.2458	0.9242	0.7795	1.201
Mof_Fe	Fe	0.6496	0.3585	0.5726	0.961
Mof_Fe	Fe	0.565	0.0239	0.3723	1.055
Mof_Fe	Fe	0.9648	0.1083	0.7107	1.053
Mof_P 	P 	0.7011	0.0876	0.5589	0.582
Mof_P 	P 	0.0833	0.0394	0.8937	0.593
Mof_P 	P 	0.2729	0.1538	0.7042	0.585
Mof_P 	P 	0.9381	0.3755	0.6956	0.599
Mof_F 	F 	0.0498	0.958	0.7225	-0.538
Mof_F 	F 	0.7126	0.0902	0.3265	-0.552
Mof_O 	O 	0.5903	0.7587	0.7833	-0.392
Mof_O 	O 	0.6832	0.9141	0.8702	-0.354
Mof_O 	O 	0.1403	0.6187	0.855	-0.328
Mof_O 	O 	0.5517	0.4882	0.5947	-0.367
Mof_O 	O 	0.3208	0.4492	0.6237	-0.35
Mof_O 	O 	0.3798	0.6453	0.835	-0.33
Mof_O 	O 	0.8144	0.5243	0.0191	-0.316
Mof_O 	O 	0.3459	0.5986	0.5313	-0.345
Mof_O 	O 	0.9061	0.5492	0.8972	-0.382
Mof_O 	O 	0.4506	0.6225	0.6731	-0.341
Mof_O 	O 	0.193	0.5798	0.7228	-0.333
Mof_O 	O 	0.5573	0.9509	0.7336	-0.346
Mof_O 	O 	0.6531	0.5695	0.892	-0.324
Mof_O 	O 	0.4316	0.8875	0.836	-0.354
Mof_O 	O 	0.1852	0.7714	0.7726	-0.32
Mof_O 	O 	0.82	0.7102	0.9605	-0.362
Mof_Fe	Fe	0.2542	0.4242	0.7205	1.202
Mof_Fe	Fe	0.8504	0.8585	0.9274	0.961
Mof_Fe	Fe	0.935	0.5239	0.1277	1.057
Mof_Fe	Fe	0.5352	0.6083	0.7893	1.055
Mof_P 	P 	0.7989	0.5876	0.9411	0.581
Mof_P 	P 	0.4167	0.5394	0.6063	0.592
Mof_P 	P 	0.2271	0.6538	0.7958	0.585
Mof_P 	P 	0.5619	0.8755	0.8044	0.599
Mof_F 	F 	0.4502	0.458	0.7775	-0.538
Mof_F 	F 	0.7874	0.5902	0.1735	-0.552
Mof_O 	O 	0.0903	0.7413	0.2833	-0.392
Mof_O 	O 	0.1832	0.5859	0.3702	-0.354
Mof_O 	O 	0.6403	0.8813	0.355	-0.327
Mof_O 	O 	0.0517	0.0118	0.0947	-0.367
Mof_O 	O 	0.8208	0.0508	0.1237	-0.351
Mof_O 	O 	0.8798	0.8547	0.335	-0.328
Mof_O 	O 	0.3144	0.9757	0.5191	-0.317
Mof_O 	O 	0.8459	0.9014	0.0313	-0.345
Mof_O 	O 	0.4061	0.9508	0.3972	-0.382
Mof_O 	O 	0.9506	0.8775	0.1731	-0.34
Mof_O 	O 	0.693	0.9202	0.2228	-0.332
Mof_O 	O 	0.0573	0.5491	0.2336	-0.347
Mof_O 	O 	0.1531	0.9305	0.392	-0.324
Mof_O 	O 	0.9316	0.6125	0.336	-0.353
Mof_O 	O 	0.6852	0.7286	0.2726	-0.32
Mof_O 	O 	0.32	0.7898	0.4605	-0.361
Mof_Fe	Fe	0.7542	0.0758	0.2205	1.201
Mof_Fe	Fe	0.3504	0.6415	0.4274	0.961
Mof_Fe	Fe	0.435	0.9761	0.6277	1.055
Mof_Fe	Fe	0.0352	0.8917	0.2893	1.053
Mof_P 	P 	0.2989	0.9124	0.4411	0.582
Mof_P 	P 	0.9167	0.9606	0.1063	0.593
Mof_P 	P 	0.7271	0.8462	0.2958	0.585
Mof_P 	P 	0.0619	0.6245	0.3044	0.599
Mof_F 	F 	0.9502	0.042	0.2775	-0.538
Mof_F 	F 	0.2874	0.9098	0.6735	-0.552
Mof_O 	O 	0.4097	0.2413	0.2167	-0.392
Mof_O 	O 	0.3168	0.0859	0.1298	-0.354
Mof_O 	O 	0.8597	0.3813	0.145	-0.328
Mof_O 	O 	0.4483	0.5118	0.4053	-0.367
Mof_O 	O 	0.6792	0.5508	0.3763	-0.35
Mof_O 	O 	0.6202	0.3547	0.165	-0.33
Mof_O 	O 	0.1856	0.4757	0.9809	-0.316
Mof_O 	O 	0.6541	0.4014	0.4687	-0.345
Mof_O 	O 	0.0939	0.4508	0.1028	-0.382
Mof_O 	O 	0.5494	0.3775	0.3269	-0.341
Mof_O 	O 	0.807	0.4202	0.2772	-0.333
Mof_O 	O 	0.4427	0.0491	0.2664	-0.346
Mof_O 	O 	0.3469	0.4305	0.108	-0.324
Mof_O 	O 	0.5684	0.1125	0.164	-0.354
Mof_O 	O 	0.8148	0.2286	0.2274	-0.32
Mof_O 	O 	0.18	0.2898	0.0395	-0.362
Mof_Fe	Fe	0.7458	0.5758	0.2795	1.202
Mof_Fe	Fe	0.1496	0.1415	0.0726	0.961
Mof_Fe	Fe	0.065	0.4761	0.8723	1.057
Mof_Fe	Fe	0.4648	0.3917	0.2107	1.055
Mof_P 	P 	0.2011	0.4124	0.0589	0.581
Mof_P 	P 	0.5833	0.4606	0.3937	0.592
Mof_P 	P 	0.7729	0.3462	0.2042	0.585
Mof_P 	P 	0.4381	0.1245	0.1956	0.599
Mof_F 	F 	0.5498	0.542	0.2225	-0.538
Mof_F 	F 	0.2126	0.4098	0.8265	-0.552
_end
