data_functionalizedCrystal
_audit_creation_method	'EQeq! by Chris Wilmer'
_symmetry_space_group_name_H-M	'P1'
_symmetry_Int_Tables_number	1
_symmetry_cell_setting	triclinic
loop_
_symmetry_equiv_pos_as_xyz
  x,y,z
_cell_length_a	9.7353
_cell_length_b	17.7435
_cell_length_c	11.7645
_cell_angle_alpha	90
_cell_angle_beta	104.07
_cell_angle_gamma	90
loop_
_atom_site_label
_atom_site_type_symbol
_atom_site_fract_x
_atom_site_fract_y
_atom_site_fract_z
_atom_site_charge
Mof_C 	C 	0.9716	0.1619	0.0965	-0.059
Mof_H 	H 	0.8761	0.1532	0.0634	0.065
Mof_C 	C 	0.2004	0.12162	0.1379	-0.217
Mof_H 	H 	0.2677	0.0856	0.1323	0.098
Mof_C 	C 	0.2445	0.18775	0.1973	0.451
Mof_C 	C 	0.1512	0.24511	0.2064	-0.315
Mof_C 	C 	0.0108	0.22991	0.1516	0.351
Mof_C 	C 	0.2059	0.3143	0.2688	0.324
Mof_H 	H 	0.3034	0.321	0.2838	-0.029
Mof_C 	C 	0.2107	0.43612	0.36862	0.496
Mof_C 	C 	0.1354	0.36855	0.3065	-0.415
Mof_H 	H 	0.0376	0.3648	0.2944	0.221
Mof_F 	F 	0.3775	0.19383	0.2553	-0.492
Mof_N 	N 	0.06453	0.1077	0.08829	-0.186
Mof_O 	O 	0.34309	0.43591	0.39054	-0.438
Mof_O 	O 	0.13607	0.4889	0.39211	-0.457
Mof_C 	C 	0.3108	0.661	0.2267	0.388
Mof_C 	C 	0.4551	0.6692	0.4492	0.009
Mof_H 	H 	0.5051	0.6727	0.5272	0.06
Mof_C 	C 	0.3589	0.59705	0.2896	-0.134
Mof_H 	H 	0.3407	0.5502	0.2535	0.118
Mof_C 	C 	0.348	0.86515	0.2151	-0.344
Mof_H 	H 	0.4349	0.8697	0.2692	0.208
Mof_C 	C 	0.4097	0.73479	0.3894	0.04
Mof_H 	H 	0.4295	0.781	0.4272	0.083
Mof_C 	C 	0.3347	0.73245	0.2733	-0.123
Mof_C 	C 	0.2885	0.932	0.1422	0.479
Mof_C 	C 	0.2813	0.80009	0.2053	0.24
Mof_H 	H 	0.1942	0.7968	0.1513	-0.014
Mof_F 	F 	0.239	0.65315	0.11354	-0.46
Mof_N 	N 	0.4312	0.60072	0.40102	-0.159
Mof_O 	O 	0.15583	0.93794	0.11514	-0.409
Mof_O 	O 	0.37476	0.97732	0.11705	-0.381
Mof_F 	F 	0.9164	0.282	0.1441	-0.44
Mof_C 	C 	0.0284	0.6619	0.4035	-0.379
Mof_H 	H 	0.1239	0.6532	0.4366	0.193
Mof_C 	C 	0.7996	0.62162	0.3621	-0.253
Mof_H 	H 	0.7323	0.5856	0.3677	0.152
Mof_C 	C 	0.7555	0.68775	0.3027	0.538
Mof_C 	C 	0.8488	0.74511	0.2936	-0.434
Mof_C 	C 	0.9892	0.72991	0.3484	0.665
Mof_C 	C 	0.7941	0.8143	0.2312	0.424
Mof_H 	H 	0.6966	0.821	0.2162	-0.053
Mof_C 	C 	0.7893	0.93612	0.13138	0.503
Mof_C 	C 	0.8646	0.86855	0.1935	-0.453
Mof_H 	H 	0.9624	0.8648	0.2056	0.274
Mof_F 	F 	0.6225	0.69383	0.2447	-0.505
Mof_N 	N 	0.93547	0.6077	0.41171	-0.042
Mof_O 	O 	0.65691	0.93591	0.10946	-0.405
Mof_O 	O 	0.86393	0.9889	0.10789	-0.37
Mof_C 	C 	0.6892	0.161	0.2733	0.423
Mof_C 	C 	0.5449	0.1692	0.0508	-0.242
Mof_H 	H 	0.4949	0.1727	0.9728	0.21
Mof_C 	C 	0.6411	0.09705	0.2104	-0.16
Mof_H 	H 	0.6593	0.0502	0.2465	0.099
Mof_C 	C 	0.652	0.36515	0.2849	-0.353
Mof_H 	H 	0.5651	0.3697	0.2308	0.189
Mof_C 	C 	0.5903	0.23479	0.1106	0.177
Mof_H 	H 	0.5705	0.281	0.0728	-0
Mof_C 	C 	0.6653	0.23245	0.2267	-0.181
Mof_C 	C 	0.7115	0.432	0.3578	0.488
Mof_C 	C 	0.7187	0.30009	0.2947	0.264
Mof_H 	H 	0.8058	0.2968	0.3487	0.01
Mof_F 	F 	0.761	0.15315	0.38646	-0.436
Mof_N 	N 	0.5688	0.10072	0.09898	-0.14
Mof_O 	O 	0.84417	0.43794	0.38486	-0.41
Mof_O 	O 	0.62524	0.47732	0.38295	-0.444
Mof_F 	F 	0.0836	0.782	0.3559	-0.535
Mof_C 	C 	0.0284	0.8381	0.9035	-0.346
Mof_H 	H 	0.1239	0.8468	0.9366	0.218
Mof_C 	C 	0.7996	0.87838	0.8621	-0.24
Mof_H 	H 	0.7323	0.9144	0.8677	0.195
Mof_C 	C 	0.7555	0.81225	0.8027	0.554
Mof_C 	C 	0.8488	0.75489	0.7936	-0.425
Mof_C 	C 	0.9892	0.77009	0.8484	0.664
Mof_C 	C 	0.7941	0.6857	0.7312	0.44
Mof_H 	H 	0.6966	0.679	0.7162	-0.055
Mof_C 	C 	0.7893	0.56388	0.63138	0.526
Mof_C 	C 	0.8646	0.63145	0.6935	-0.461
Mof_H 	H 	0.9624	0.6352	0.7056	0.281
Mof_F 	F 	0.6225	0.80617	0.7447	-0.488
Mof_N 	N 	0.93547	0.8923	0.91171	-0.001
Mof_O 	O 	0.65691	0.56409	0.60946	-0.438
Mof_O 	O 	0.86393	0.5111	0.60789	-0.429
Mof_C 	C 	0.6892	0.339	0.7733	0.397
Mof_C 	C 	0.5449	0.3308	0.5508	0.017
Mof_H 	H 	0.4949	0.3273	0.4728	0.053
Mof_C 	C 	0.6411	0.40295	0.7104	-0.124
Mof_H 	H 	0.6593	0.4498	0.7465	0.139
Mof_C 	C 	0.652	0.13485	0.7849	-0.31
Mof_H 	H 	0.5651	0.1303	0.7308	0.172
Mof_C 	C 	0.5903	0.26521	0.6106	0.029
Mof_H 	H 	0.5705	0.219	0.5728	0.073
Mof_C 	C 	0.6653	0.26755	0.7267	-0.098
Mof_C 	C 	0.7115	0.068	0.8578	0.475
Mof_C 	C 	0.7187	0.19991	0.7947	0.213
Mof_H 	H 	0.8058	0.2032	0.8487	0.048
Mof_F 	F 	0.761	0.34685	0.88646	-0.386
Mof_N 	N 	0.5688	0.39928	0.59898	-0.159
Mof_O 	O 	0.84417	0.06206	0.88486	-0.391
Mof_O 	O 	0.62524	0.02268	0.88295	-0.454
Mof_F 	F 	0.0836	0.718	0.8559	-0.52
Mof_C 	C 	0.9716	0.3381	0.5965	-0.059
Mof_H 	H 	0.8761	0.3468	0.5634	0.098
Mof_C 	C 	0.2004	0.37838	0.6379	-0.205
Mof_H 	H 	0.2677	0.4144	0.6323	0.139
Mof_C 	C 	0.2445	0.31225	0.6973	0.472
Mof_C 	C 	0.1512	0.25489	0.7064	-0.313
Mof_C 	C 	0.0108	0.27009	0.6516	0.378
Mof_C 	C 	0.2059	0.1857	0.7688	0.34
Mof_H 	H 	0.3034	0.179	0.7838	-0.03
Mof_C 	C 	0.2107	0.06388	0.86862	0.502
Mof_C 	C 	0.1354	0.13145	0.8065	-0.412
Mof_H 	H 	0.0376	0.1352	0.7944	0.228
Mof_F 	F 	0.3775	0.30617	0.7553	-0.475
Mof_N 	N 	0.06453	0.3923	0.58829	-0.149
Mof_O 	O 	0.34309	0.06409	0.89054	-0.431
Mof_O 	O 	0.13607	0.0111	0.89211	-0.47
Mof_C 	C 	0.3108	0.839	0.7267	0.369
Mof_C 	C 	0.4551	0.8308	0.9492	0.242
Mof_H 	H 	0.5051	0.8273	0.0272	-0.078
Mof_C 	C 	0.3589	0.90295	0.7896	-0.102
Mof_H 	H 	0.3407	0.9498	0.7535	0.162
Mof_C 	C 	0.348	0.63485	0.7151	-0.322
Mof_H 	H 	0.4349	0.6303	0.7692	0.197
Mof_C 	C 	0.4097	0.76521	0.8894	-0.09
Mof_H 	H 	0.4295	0.719	0.9272	0.149
Mof_C 	C 	0.3347	0.76755	0.7733	-0.053
Mof_C 	C 	0.2885	0.568	0.6422	0.489
Mof_C 	C 	0.2813	0.69991	0.7053	0.205
Mof_H 	H 	0.1942	0.7032	0.6513	0.018
Mof_F 	F 	0.239	0.84685	0.61354	-0.41
Mof_N 	N 	0.4312	0.89928	0.90102	-0.154
Mof_O 	O 	0.15583	0.56206	0.61514	-0.434
Mof_O 	O 	0.37476	0.52268	0.61705	-0.437
Mof_F 	F 	0.9164	0.218	0.6441	-0.434
Mof_Co	Co	-0	0	-0	1.071
Mof_Co	Co	-2.88368e-17	0.5	0.5	1.172
Mof_Co	Co	0.5	0.5	0.5	1.192
Mof_Co	Co	0.5	0	-0	1.093
_end
