data_functionalizedCrystal
_audit_creation_method	'EQeq! by Chris Wilmer'
_symmetry_space_group_name_H-M	'P1'
_symmetry_Int_Tables_number	1
_symmetry_cell_setting	triclinic
loop_
_symmetry_equiv_pos_as_xyz
  x,y,z
_cell_length_a	7.767
_cell_length_b	16.244
_cell_length_c	15.3043
_cell_angle_alpha	90
_cell_angle_beta	90
_cell_angle_gamma	90
loop_
_atom_site_label
_atom_site_type_symbol
_atom_site_fract_x
_atom_site_fract_y
_atom_site_fract_z
_atom_site_charge
Mof_Cd	Cd	0.49298	0.37922	0.75983	0.354
Mof_Cd	Cd	0.50702	0.62078	0.25983	0.357
Mof_Cd	Cd	0.00702	0.87922	0.75983	0.353
Mof_Cd	Cd	0.99298	0.12078	0.25983	0.357
Mof_Hg	Hg	0.95951	0.57107	0.56483	0.138
Mof_Hg	Hg	0.04049	0.42893	0.06483	0.139
Mof_Hg	Hg	0.54049	0.07107	0.56483	0.138
Mof_Hg	Hg	0.45951	0.92893	0.06483	0.139
Mof_C 	C 	0.33	0.4979	0.5958	0.088
Mof_C 	C 	0.851	0.7552	0.5953	0.087
Mof_C 	C 	0.701	0.5069	0.4215	0.09
Mof_C 	C 	0.8446	0.503	0.7531	0.086
Mof_C 	C 	0.67	0.5021	0.0958	0.088
Mof_C 	C 	0.149	0.2448	0.0953	0.087
Mof_C 	C 	0.299	0.4931	0.9215	0.079
Mof_C 	C 	0.1554	0.497	0.2531	0.087
Mof_C 	C 	0.17	0.9979	0.5958	0.088
Mof_C 	C 	0.649	0.2552	0.5953	0.087
Mof_C 	C 	0.799	0.0069	0.4215	0.089
Mof_C 	C 	0.6554	0.003	0.7531	0.084
Mof_C 	C 	0.83	0.0021	0.0958	0.087
Mof_C 	C 	0.351	0.7448	0.0953	0.087
Mof_C 	C 	0.201	0.9931	0.9215	0.079
Mof_C 	C 	0.3446	0.997	0.2531	0.087
Mof_S 	S 	0.2656	0.5533	0.5119	-0.061
Mof_S 	S 	0.7702	0.4535	0.5056	-0.053
Mof_S 	S 	0.9864	0.574	0.7296	-0.062
Mof_S 	S 	0.7952	0.6958	0.5127	-0.062
Mof_S 	S 	0.7344	0.4467	0.0119	-0.056
Mof_S 	S 	0.2298	0.5465	0.0056	-0.044
Mof_S 	S 	0.0136	0.426	0.2296	-0.06
Mof_S 	S 	0.2048	0.3042	0.0127	-0.058
Mof_S 	S 	0.2344	0.0533	0.5119	-0.06
Mof_S 	S 	0.7298	0.9535	0.5056	-0.051
Mof_S 	S 	0.5136	0.074	0.7296	-0.062
Mof_S 	S 	0.7048	0.1958	0.5127	-0.063
Mof_S 	S 	0.7656	0.9467	0.0119	-0.055
Mof_S 	S 	0.2702	0.0465	0.0056	-0.044
Mof_S 	S 	0.4864	0.926	0.2296	-0.06
Mof_S 	S 	0.2952	0.8042	0.0127	-0.058
Mof_N 	N 	0.377	0.4622	0.6551	-0.153
Mof_N 	N 	0.8802	0.7956	0.6543	-0.154
Mof_N 	N 	0.652	0.5469	0.3665	-0.155
Mof_N 	N 	0.742	0.4538	0.7672	-0.152
Mof_N 	N 	0.623	0.5378	0.1551	-0.152
Mof_N 	N 	0.1198	0.2044	0.1543	-0.153
Mof_N 	N 	0.348	0.4531	0.8665	-0.154
Mof_N 	N 	0.258	0.5462	0.2672	-0.151
Mof_N 	N 	0.123	0.9622	0.6551	-0.153
Mof_N 	N 	0.6198	0.2956	0.6543	-0.154
Mof_N 	N 	0.848	0.0469	0.3665	-0.155
Mof_N 	N 	0.758	0.9538	0.7672	-0.15
Mof_N 	N 	0.877	0.0378	0.1551	-0.152
Mof_N 	N 	0.3802	0.7044	0.1543	-0.154
Mof_N 	N 	0.152	0.9531	0.8665	-0.154
Mof_N 	N 	0.242	0.0462	0.2672	-0.15
_end
