data_functionalizedCrystal
_audit_creation_method	'EQeq! by Chris Wilmer'
_symmetry_space_group_name_H-M	'P1'
_symmetry_Int_Tables_number	1
_symmetry_cell_setting	triclinic
loop_
_symmetry_equiv_pos_as_xyz
  x,y,z
_cell_length_a	7.61
_cell_length_b	13.599
_cell_length_c	27.938
_cell_angle_alpha	90
_cell_angle_beta	90
_cell_angle_gamma	90
loop_
_atom_site_label
_atom_site_type_symbol
_atom_site_fract_x
_atom_site_fract_y
_atom_site_fract_z
_atom_site_charge
Mof_Cd	Cd	-2.44171e-32	0.77258	0.76331	0.368
Mof_Cd	Cd	3.25801e-33	0.22742	0.23669	0.368
Mof_Cd	Cd	-1.38375e-32	0.72742	0.26331	0.368
Mof_Cd	Cd	1.01404e-32	0.27258	0.73669	0.368
Mof_Ni	Ni	0.5	0.51714	0.79155	1.061
Mof_Ni	Ni	0.5	0.48286	0.20845	1.061
Mof_Ni	Ni	0.5	0.98286	0.29155	1.06
Mof_Ni	Ni	0.5	0.01714	0.70845	1.06
Mof_H 	H 	0.89283	0.62519	0.69816	0.056
Mof_H 	H 	0.88211	0.76859	0.64681	0.006
Mof_H 	H 	0.88211	0.60353	0.60723	0.015
Mof_H 	H 	0.88211	0.75902	0.55787	0.009
Mof_H 	H 	0.88211	0.59243	0.51581	0.015
Mof_H 	H 	0.88211	0.74925	0.46744	0.01
Mof_H 	H 	0.88211	0.58646	0.42474	0.017
Mof_H 	H 	0.11789	0.75751	0.8779	0.024
Mof_H 	H 	0.10717	0.90883	0.83449	0.076
Mof_H 	H 	0.89283	0.37481	0.30184	0.056
Mof_H 	H 	0.88211	0.23141	0.35319	0.006
Mof_H 	H 	0.88211	0.39647	0.39277	0.015
Mof_H 	H 	0.88211	0.24098	0.44213	0.009
Mof_H 	H 	0.88211	0.40757	0.48419	0.015
Mof_H 	H 	0.88211	0.25075	0.53256	0.01
Mof_H 	H 	0.88211	0.41354	0.57526	0.017
Mof_H 	H 	0.11789	0.24249	0.1221	0.024
Mof_H 	H 	0.10717	0.09117	0.16551	0.076
Mof_H 	H 	0.10717	0.87481	0.19816	0.076
Mof_H 	H 	0.11789	0.73141	0.14681	0.024
Mof_H 	H 	0.11789	0.89647	0.10723	0.032
Mof_H 	H 	0.11789	0.74098	0.05787	0.027
Mof_H 	H 	0.11789	0.90757	0.01581	0.031
Mof_H 	H 	0.11789	0.75075	0.96744	0.027
Mof_H 	H 	0.11789	0.91354	0.92474	0.034
Mof_H 	H 	0.88211	0.74249	0.3779	0.006
Mof_H 	H 	0.89283	0.59117	0.33449	0.056
Mof_H 	H 	0.10717	0.12519	0.80184	0.076
Mof_H 	H 	0.11789	0.26859	0.85319	0.024
Mof_H 	H 	0.11789	0.10353	0.89277	0.032
Mof_H 	H 	0.11789	0.25902	0.94213	0.027
Mof_H 	H 	0.11789	0.09243	0.98419	0.031
Mof_H 	H 	0.11789	0.24925	0.03256	0.027
Mof_H 	H 	0.11789	0.08646	0.07526	0.034
Mof_H 	H 	0.88211	0.25751	0.6221	0.006
Mof_H 	H 	0.89283	0.40883	0.66551	0.056
Mof_H 	H 	0.10717	0.37481	0.30184	0.076
Mof_H 	H 	0.11789	0.23141	0.35319	0.024
Mof_H 	H 	0.11789	0.39647	0.39277	0.032
Mof_H 	H 	0.11789	0.24098	0.44213	0.027
Mof_H 	H 	0.11789	0.40757	0.48419	0.031
Mof_H 	H 	0.11789	0.25075	0.53256	0.027
Mof_H 	H 	0.11789	0.41354	0.57526	0.034
Mof_H 	H 	0.88211	0.24249	0.1221	0.006
Mof_H 	H 	0.89283	0.09117	0.16551	0.057
Mof_H 	H 	0.10717	0.62519	0.69816	0.076
Mof_H 	H 	0.11789	0.76859	0.64681	0.024
Mof_H 	H 	0.11789	0.60353	0.60723	0.032
Mof_H 	H 	0.11789	0.75902	0.55787	0.027
Mof_H 	H 	0.11789	0.59243	0.51581	0.031
Mof_H 	H 	0.11789	0.74925	0.46744	0.027
Mof_H 	H 	0.11789	0.58646	0.42474	0.034
Mof_H 	H 	0.88211	0.75751	0.8779	0.006
Mof_H 	H 	0.89283	0.90883	0.83449	0.057
Mof_H 	H 	0.89283	0.12519	0.80184	0.056
Mof_H 	H 	0.88211	0.26859	0.85319	0.006
Mof_H 	H 	0.88211	0.10353	0.89277	0.015
Mof_H 	H 	0.88211	0.25902	0.94213	0.009
Mof_H 	H 	0.88211	0.09243	0.98419	0.015
Mof_H 	H 	0.88211	0.24925	0.03256	0.01
Mof_H 	H 	0.88211	0.08646	0.07526	0.018
Mof_H 	H 	0.11789	0.25751	0.6221	0.024
Mof_H 	H 	0.10717	0.40883	0.66551	0.076
Mof_H 	H 	0.89283	0.87481	0.19816	0.056
Mof_H 	H 	0.88211	0.73141	0.14681	0.006
Mof_H 	H 	0.88211	0.89647	0.10723	0.015
Mof_H 	H 	0.88211	0.74098	0.05787	0.009
Mof_H 	H 	0.88211	0.90757	0.01581	0.015
Mof_H 	H 	0.88211	0.75075	0.96744	0.01
Mof_H 	H 	0.88211	0.91354	0.92474	0.018
Mof_H 	H 	0.11789	0.74249	0.3779	0.024
Mof_H 	H 	0.10717	0.59117	0.33449	0.076
Mof_C 	C 	0.6719	0.6134	0.7958	-0.253
Mof_C 	C 	0.3249	0.9234	0.7183	-0.245
Mof_C 	C 	0.6719	0.3866	0.2042	-0.253
Mof_C 	C 	0.3249	0.0766	0.2817	-0.245
Mof_C 	C 	0.3281	0.8866	0.2958	-0.248
Mof_C 	C 	0.6751	0.5766	0.2183	-0.251
Mof_C 	C 	0.3281	0.1134	0.7042	-0.248
Mof_C 	C 	0.6751	0.4234	0.7817	-0.251
Mof_C 	C 	0.3281	0.3866	0.2042	-0.248
Mof_C 	C 	0.6751	0.0766	0.2817	-0.25
Mof_C 	C 	0.3281	0.6134	0.7958	-0.248
Mof_C 	C 	0.6751	0.9234	0.7183	-0.25
Mof_C 	C 	0.6719	0.1134	0.7042	-0.253
Mof_C 	C 	0.3249	0.4234	0.7817	-0.246
Mof_C 	C 	0.6719	0.8866	0.2958	-0.253
Mof_C 	C 	0.3249	0.5766	0.2183	-0.246
Mof_C 	C 	8.93065e-33	0.7221	0.6488	-0.002
Mof_C 	C 	-9.12046e-33	0.6502	0.606	-0.061
Mof_C 	C 	2.51579e-32	0.7124	0.5591	-0.04
Mof_C 	C 	7.08616e-33	0.6391	0.5148	-0.051
Mof_C 	C 	6.44472e-33	0.7026	0.4682	-0.038
Mof_C 	C 	5.83631e-33	0.6331	0.424	-0.064
Mof_C 	C 	1.20869e-32	0.8042	0.8781	0.005
Mof_C 	C 	-1.26278e-32	0.2779	0.3512	-0.002
Mof_C 	C 	-1.20386e-32	0.3498	0.394	-0.061
Mof_C 	C 	-1.1393e-32	0.2876	0.4409	-0.04
Mof_C 	C 	-1.07833e-32	0.3609	0.4852	-0.051
Mof_C 	C 	-2.76038e-32	0.2974	0.5318	-0.038
Mof_C 	C 	2.53905e-32	0.3669	0.576	-0.064
Mof_C 	C 	6.04343e-33	0.1958	0.1219	0.005
Mof_C 	C 	-1.54138e-32	0.7779	0.1488	-0.002
Mof_C 	C 	-7.27191e-33	0.8498	0.106	-0.062
Mof_C 	C 	-7.91749e-33	0.7876	0.0591	-0.04
Mof_C 	C 	3.47784e-33	0.8609	0.0148	-0.052
Mof_C 	C 	4.82511e-32	0.7974	0.9682	-0.038
Mof_C 	C 	1.27187e-32	0.8669	0.924	-0.065
Mof_C 	C 	-2.97195e-32	0.6958	0.3781	0.005
Mof_C 	C 	4.66406e-32	0.2221	0.8512	-0.002
Mof_C 	C 	1.23058e-32	0.1502	0.894	-0.062
Mof_C 	C 	1.29514e-32	0.2124	0.9409	-0.04
Mof_C 	C 	-2.13628e-32	0.1391	0.9852	-0.052
Mof_C 	C 	4.37723e-34	0.2026	0.0318	-0.038
Mof_C 	C 	-3.31936e-33	0.1331	0.076	-0.065
Mof_C 	C 	8.56038e-33	0.3042	0.6219	0.005
Mof_N 	N 	0.7794	0.6723	0.7947	-0.088
Mof_N 	N 	0.2175	0.8691	0.7286	-0.08
Mof_N 	N 	0.7794	0.3277	0.2053	-0.088
Mof_N 	N 	0.2175	0.1309	0.2714	-0.08
Mof_N 	N 	0.2206	0.8277	0.2947	-0.078
Mof_N 	N 	0.7825	0.6309	0.2286	-0.089
Mof_N 	N 	0.2206	0.1723	0.7053	-0.078
Mof_N 	N 	0.7825	0.3691	0.7714	-0.089
Mof_N 	N 	0.2206	0.3277	0.2053	-0.078
Mof_N 	N 	0.7825	0.1309	0.2714	-0.089
Mof_N 	N 	0.2206	0.6723	0.7947	-0.078
Mof_N 	N 	0.7825	0.8691	0.7286	-0.089
Mof_N 	N 	0.7794	0.1723	0.7053	-0.088
Mof_N 	N 	0.2175	0.3691	0.7714	-0.08
Mof_N 	N 	0.7794	0.8277	0.2947	-0.088
Mof_N 	N 	0.2175	0.6309	0.2286	-0.08
Mof_N 	N 	-7.87337e-33	0.6675	0.6966	-0.192
Mof_N 	N 	-2.34413e-32	0.8664	0.8342	-0.194
Mof_N 	N 	-1.32857e-32	0.3325	0.3034	-0.192
Mof_N 	N 	2.28222e-33	0.1336	0.1658	-0.194
Mof_N 	N 	1.14372e-32	0.8325	0.1966	-0.192
Mof_N 	N 	3.07932e-32	0.6336	0.3342	-0.194
Mof_N 	N 	4.59827e-32	0.1675	0.8034	-0.192
Mof_N 	N 	-8.29732e-33	0.3664	0.6658	-0.194
_end
