data_functionalizedCrystal
_audit_creation_method	'EQeq! by Chris Wilmer'
_symmetry_space_group_name_H-M	'P1'
_symmetry_Int_Tables_number	1
_symmetry_cell_setting	triclinic
loop_
_symmetry_equiv_pos_as_xyz
  x,y,z
_cell_length_a	18.5353
_cell_length_b	18.5353
_cell_length_c	18.5353
_cell_angle_alpha	90
_cell_angle_beta	90
_cell_angle_gamma	90
loop_
_atom_site_label
_atom_site_type_symbol
_atom_site_fract_x
_atom_site_fract_y
_atom_site_fract_z
_atom_site_charge
Mof_Y 	Y 	0.98683	0.4877	0.85358	1.775
Mof_O 	O 	0.0674	0.5555	0.9204	-0.595
Mof_O 	O 	0.9761	0.2911	0.9056	-0.439
Mof_O 	O 	0.7897	0.51	0.9044	-0.443
Mof_O 	O 	0.8691	0.4932	0.8114	-0.441
Mof_O 	O 	0.9758	0.37	0.8112	-0.452
Mof_C 	C 	0.9766	0.309	0.838	0.433
Mof_C 	C 	0.7446	0.5014	0.7855	-0.14
Mof_H 	H 	0.6976	0.5014	0.8029	0.104
Mof_C 	C 	0.975	0.2457	0.7853	-0.136
Mof_H 	H 	0.9739	0.1991	0.8038	0.102
Mof_C 	C 	0.8062	0.5013	0.8387	0.428
Mof_Y 	Y 	0.51317	0.0123	0.85358	1.769
Mof_O 	O 	0.4326	0.9445	0.9204	-0.592
Mof_O 	O 	0.5239	0.2089	0.9056	-0.44
Mof_O 	O 	0.7103	0.99	0.9044	-0.44
Mof_O 	O 	0.6309	0.0068	0.8114	-0.442
Mof_O 	O 	0.5242	0.13	0.8112	-0.452
Mof_C 	C 	0.5234	0.191	0.838	0.434
Mof_C 	C 	0.7554	0.9986	0.7855	-0.139
Mof_H 	H 	0.8024	0.9986	0.8029	0.105
Mof_C 	C 	0.525	0.2543	0.7853	-0.137
Mof_H 	H 	0.5261	0.3009	0.8038	0.102
Mof_C 	C 	0.6938	0.9987	0.8387	0.431
Mof_Y 	Y 	0.51317	0.4877	0.64642	1.771
Mof_O 	O 	0.4326	0.5555	0.5796	-0.593
Mof_O 	O 	0.5239	0.2911	0.5944	-0.439
Mof_O 	O 	0.7103	0.51	0.5956	-0.442
Mof_O 	O 	0.6309	0.4932	0.6886	-0.439
Mof_O 	O 	0.5242	0.37	0.6888	-0.452
Mof_C 	C 	0.5234	0.309	0.662	0.434
Mof_C 	C 	0.7554	0.5014	0.7145	-0.139
Mof_H 	H 	0.8024	0.5014	0.6971	0.104
Mof_C 	C 	0.525	0.2457	0.7147	-0.136
Mof_H 	H 	0.5261	0.1991	0.6962	0.102
Mof_C 	C 	0.6938	0.5013	0.6613	0.428
Mof_Y 	Y 	0.98683	0.0123	0.64642	1.768
Mof_O 	O 	0.0674	0.9445	0.5796	-0.594
Mof_O 	O 	0.9761	0.2089	0.5944	-0.439
Mof_O 	O 	0.7897	0.99	0.5956	-0.443
Mof_O 	O 	0.8691	0.0068	0.6886	-0.442
Mof_O 	O 	0.9758	0.13	0.6888	-0.451
Mof_C 	C 	0.9766	0.191	0.662	0.434
Mof_C 	C 	0.7446	0.9986	0.7145	-0.139
Mof_H 	H 	0.6976	0.9986	0.6971	0.104
Mof_C 	C 	0.975	0.2543	0.7147	-0.136
Mof_H 	H 	0.9739	0.3009	0.6962	0.102
Mof_C 	C 	0.8062	0.9987	0.6613	0.432
Mof_Y 	Y 	0.85358	0.98683	0.4877	1.776
Mof_O 	O 	0.9204	0.0674	0.5555	-0.594
Mof_O 	O 	0.9056	0.9761	0.2911	-0.438
Mof_O 	O 	0.9044	0.7897	0.51	-0.442
Mof_O 	O 	0.8114	0.8691	0.4932	-0.44
Mof_O 	O 	0.8112	0.9758	0.37	-0.451
Mof_C 	C 	0.838	0.9766	0.309	0.434
Mof_C 	C 	0.7855	0.7446	0.5014	-0.139
Mof_H 	H 	0.8029	0.6976	0.5014	0.104
Mof_C 	C 	0.7853	0.975	0.2457	-0.136
Mof_H 	H 	0.8038	0.9739	0.1991	0.102
Mof_C 	C 	0.8387	0.8062	0.5013	0.428
Mof_Y 	Y 	0.85358	0.51317	0.0123	1.769
Mof_O 	O 	0.9204	0.4326	0.9445	-0.592
Mof_O 	O 	0.9056	0.5239	0.2089	-0.44
Mof_O 	O 	0.9044	0.7103	0.99	-0.44
Mof_O 	O 	0.8114	0.6309	0.0068	-0.442
Mof_O 	O 	0.8112	0.5242	0.13	-0.452
Mof_C 	C 	0.838	0.5234	0.191	0.434
Mof_C 	C 	0.7855	0.7554	0.9986	-0.139
Mof_H 	H 	0.8029	0.8024	0.9986	0.105
Mof_C 	C 	0.7853	0.525	0.2543	-0.137
Mof_H 	H 	0.8038	0.5261	0.3009	0.102
Mof_C 	C 	0.8387	0.6938	0.9987	0.431
Mof_Y 	Y 	0.64642	0.51317	0.4877	1.771
Mof_O 	O 	0.5796	0.4326	0.5555	-0.593
Mof_O 	O 	0.5944	0.5239	0.2911	-0.439
Mof_O 	O 	0.5956	0.7103	0.51	-0.442
Mof_O 	O 	0.6886	0.6309	0.4932	-0.439
Mof_O 	O 	0.6888	0.5242	0.37	-0.452
Mof_C 	C 	0.662	0.5234	0.309	0.434
Mof_C 	C 	0.7145	0.7554	0.5014	-0.139
Mof_H 	H 	0.6971	0.8024	0.5014	0.104
Mof_C 	C 	0.7147	0.525	0.2457	-0.136
Mof_H 	H 	0.6962	0.5261	0.1991	0.102
Mof_C 	C 	0.6613	0.6938	0.5013	0.428
Mof_Y 	Y 	0.64642	0.98683	0.0123	1.768
Mof_O 	O 	0.5796	0.0674	0.9445	-0.594
Mof_O 	O 	0.5944	0.9761	0.2089	-0.439
Mof_O 	O 	0.5956	0.7897	0.99	-0.443
Mof_O 	O 	0.6886	0.8691	0.0068	-0.442
Mof_O 	O 	0.6888	0.9758	0.13	-0.451
Mof_C 	C 	0.662	0.9766	0.191	0.434
Mof_C 	C 	0.7145	0.7446	0.9986	-0.139
Mof_H 	H 	0.6971	0.6976	0.9986	0.104
Mof_C 	C 	0.7147	0.975	0.2543	-0.136
Mof_H 	H 	0.6962	0.9739	0.3009	0.102
Mof_C 	C 	0.6613	0.8062	0.9987	0.432
Mof_Y 	Y 	0.4877	0.85358	0.98683	1.776
Mof_O 	O 	0.5555	0.9204	0.0674	-0.594
Mof_O 	O 	0.2911	0.9056	0.9761	-0.438
Mof_O 	O 	0.51	0.9044	0.7897	-0.442
Mof_O 	O 	0.4932	0.8114	0.8691	-0.44
Mof_O 	O 	0.37	0.8112	0.9758	-0.451
Mof_C 	C 	0.309	0.838	0.9766	0.434
Mof_C 	C 	0.5014	0.7855	0.7446	-0.139
Mof_H 	H 	0.5014	0.8029	0.6976	0.104
Mof_C 	C 	0.2457	0.7853	0.975	-0.136
Mof_H 	H 	0.1991	0.8038	0.9739	0.102
Mof_C 	C 	0.5013	0.8387	0.8062	0.428
Mof_Y 	Y 	0.0123	0.85358	0.51317	1.769
Mof_O 	O 	0.9445	0.9204	0.4326	-0.592
Mof_O 	O 	0.2089	0.9056	0.5239	-0.44
Mof_O 	O 	0.99	0.9044	0.7103	-0.44
Mof_O 	O 	0.0068	0.8114	0.6309	-0.442
Mof_O 	O 	0.13	0.8112	0.5242	-0.452
Mof_C 	C 	0.191	0.838	0.5234	0.434
Mof_C 	C 	0.9986	0.7855	0.7554	-0.139
Mof_H 	H 	0.9986	0.8029	0.8024	0.105
Mof_C 	C 	0.2543	0.7853	0.525	-0.137
Mof_H 	H 	0.3009	0.8038	0.5261	0.102
Mof_C 	C 	0.9987	0.8387	0.6938	0.431
Mof_Y 	Y 	0.4877	0.64642	0.51317	1.771
Mof_O 	O 	0.5555	0.5796	0.4326	-0.593
Mof_O 	O 	0.2911	0.5944	0.5239	-0.439
Mof_O 	O 	0.51	0.5956	0.7103	-0.442
Mof_O 	O 	0.4932	0.6886	0.6309	-0.439
Mof_O 	O 	0.37	0.6888	0.5242	-0.452
Mof_C 	C 	0.309	0.662	0.5234	0.434
Mof_C 	C 	0.5014	0.7145	0.7554	-0.139
Mof_H 	H 	0.5014	0.6971	0.8024	0.104
Mof_C 	C 	0.2457	0.7147	0.525	-0.136
Mof_H 	H 	0.1991	0.6962	0.5261	0.102
Mof_C 	C 	0.5013	0.6613	0.6938	0.428
Mof_Y 	Y 	0.0123	0.64642	0.98683	1.768
Mof_O 	O 	0.9445	0.5796	0.0674	-0.594
Mof_O 	O 	0.2089	0.5944	0.9761	-0.439
Mof_O 	O 	0.99	0.5956	0.7897	-0.443
Mof_O 	O 	0.0068	0.6886	0.8691	-0.442
Mof_O 	O 	0.13	0.6888	0.9758	-0.451
Mof_C 	C 	0.191	0.662	0.9766	0.434
Mof_C 	C 	0.9986	0.7145	0.7446	-0.139
Mof_H 	H 	0.9986	0.6971	0.6976	0.104
Mof_C 	C 	0.2543	0.7147	0.975	-0.136
Mof_H 	H 	0.3009	0.6962	0.9739	0.102
Mof_C 	C 	0.9987	0.6613	0.8062	0.432
Mof_Y 	Y 	0.01317	0.5123	0.14642	1.776
Mof_O 	O 	0.9326	0.4445	0.0796	-0.594
Mof_O 	O 	0.0239	0.7089	0.0944	-0.438
Mof_O 	O 	0.2103	0.49	0.0956	-0.442
Mof_O 	O 	0.1309	0.5068	0.1886	-0.44
Mof_O 	O 	0.0242	0.63	0.1888	-0.451
Mof_C 	C 	0.0234	0.691	0.162	0.434
Mof_C 	C 	0.2554	0.4986	0.2145	-0.139
Mof_H 	H 	0.3024	0.4986	0.1971	0.104
Mof_C 	C 	0.025	0.7543	0.2147	-0.136
Mof_H 	H 	0.0261	0.8009	0.1962	0.102
Mof_C 	C 	0.1938	0.4987	0.1613	0.428
Mof_Y 	Y 	0.48683	0.9877	0.14642	1.769
Mof_O 	O 	0.5674	0.0555	0.0796	-0.592
Mof_O 	O 	0.4761	0.7911	0.0944	-0.44
Mof_O 	O 	0.2897	0.01	0.0956	-0.44
Mof_O 	O 	0.3691	0.9932	0.1886	-0.442
Mof_O 	O 	0.4758	0.87	0.1888	-0.452
Mof_C 	C 	0.4766	0.809	0.162	0.434
Mof_C 	C 	0.2446	0.0014	0.2145	-0.139
Mof_H 	H 	0.1976	0.0014	0.1971	0.105
Mof_C 	C 	0.475	0.7457	0.2147	-0.137
Mof_H 	H 	0.4739	0.6991	0.1962	0.102
Mof_C 	C 	0.3062	0.0013	0.1613	0.431
Mof_Y 	Y 	0.48683	0.5123	0.35358	1.771
Mof_O 	O 	0.5674	0.4445	0.4204	-0.593
Mof_O 	O 	0.4761	0.7089	0.4056	-0.439
Mof_O 	O 	0.2897	0.49	0.4044	-0.442
Mof_O 	O 	0.3691	0.5068	0.3114	-0.439
Mof_O 	O 	0.4758	0.63	0.3112	-0.452
Mof_C 	C 	0.4766	0.691	0.338	0.434
Mof_C 	C 	0.2446	0.4986	0.2855	-0.139
Mof_H 	H 	0.1976	0.4986	0.3029	0.104
Mof_C 	C 	0.475	0.7543	0.2853	-0.136
Mof_H 	H 	0.4739	0.8009	0.3038	0.102
Mof_C 	C 	0.3062	0.4987	0.3387	0.428
Mof_Y 	Y 	0.01317	0.9877	0.35358	1.768
Mof_O 	O 	0.9326	0.0555	0.4204	-0.594
Mof_O 	O 	0.0239	0.7911	0.4056	-0.439
Mof_O 	O 	0.2103	0.01	0.4044	-0.443
Mof_O 	O 	0.1309	0.9932	0.3114	-0.442
Mof_O 	O 	0.0242	0.87	0.3112	-0.451
Mof_C 	C 	0.0234	0.809	0.338	0.434
Mof_C 	C 	0.2554	0.0014	0.2855	-0.139
Mof_H 	H 	0.3024	0.0014	0.3029	0.104
Mof_C 	C 	0.025	0.7457	0.2853	-0.136
Mof_H 	H 	0.0261	0.6991	0.3038	0.102
Mof_C 	C 	0.1938	0.0013	0.3387	0.432
Mof_Y 	Y 	0.14642	0.01317	0.5123	1.776
Mof_O 	O 	0.0796	0.9326	0.4445	-0.594
Mof_O 	O 	0.0944	0.0239	0.7089	-0.438
Mof_O 	O 	0.0956	0.2103	0.49	-0.442
Mof_O 	O 	0.1886	0.1309	0.5068	-0.44
Mof_O 	O 	0.1888	0.0242	0.63	-0.451
Mof_C 	C 	0.162	0.0234	0.691	0.434
Mof_C 	C 	0.2145	0.2554	0.4986	-0.139
Mof_H 	H 	0.1971	0.3024	0.4986	0.104
Mof_C 	C 	0.2147	0.025	0.7543	-0.136
Mof_H 	H 	0.1962	0.0261	0.8009	0.102
Mof_C 	C 	0.1613	0.1938	0.4987	0.428
Mof_Y 	Y 	0.14642	0.48683	0.9877	1.769
Mof_O 	O 	0.0796	0.5674	0.0555	-0.592
Mof_O 	O 	0.0944	0.4761	0.7911	-0.44
Mof_O 	O 	0.0956	0.2897	0.01	-0.44
Mof_O 	O 	0.1886	0.3691	0.9932	-0.442
Mof_O 	O 	0.1888	0.4758	0.87	-0.452
Mof_C 	C 	0.162	0.4766	0.809	0.434
Mof_C 	C 	0.2145	0.2446	0.0014	-0.139
Mof_H 	H 	0.1971	0.1976	0.0014	0.105
Mof_C 	C 	0.2147	0.475	0.7457	-0.137
Mof_H 	H 	0.1962	0.4739	0.6991	0.102
Mof_C 	C 	0.1613	0.3062	0.0013	0.431
Mof_Y 	Y 	0.35358	0.48683	0.5123	1.771
Mof_O 	O 	0.4204	0.5674	0.4445	-0.593
Mof_O 	O 	0.4056	0.4761	0.7089	-0.439
Mof_O 	O 	0.4044	0.2897	0.49	-0.442
Mof_O 	O 	0.3114	0.3691	0.5068	-0.439
Mof_O 	O 	0.3112	0.4758	0.63	-0.452
Mof_C 	C 	0.338	0.4766	0.691	0.434
Mof_C 	C 	0.2855	0.2446	0.4986	-0.139
Mof_H 	H 	0.3029	0.1976	0.4986	0.104
Mof_C 	C 	0.2853	0.475	0.7543	-0.136
Mof_H 	H 	0.3038	0.4739	0.8009	0.102
Mof_C 	C 	0.3387	0.3062	0.4987	0.428
Mof_Y 	Y 	0.35358	0.01317	0.9877	1.768
Mof_O 	O 	0.4204	0.9326	0.0555	-0.594
Mof_O 	O 	0.4056	0.0239	0.7911	-0.439
Mof_O 	O 	0.4044	0.2103	0.01	-0.443
Mof_O 	O 	0.3114	0.1309	0.9932	-0.442
Mof_O 	O 	0.3112	0.0242	0.87	-0.451
Mof_C 	C 	0.338	0.0234	0.809	0.434
Mof_C 	C 	0.2855	0.2554	0.0014	-0.139
Mof_H 	H 	0.3029	0.3024	0.0014	0.104
Mof_C 	C 	0.2853	0.025	0.7457	-0.136
Mof_H 	H 	0.3038	0.0261	0.6991	0.102
Mof_C 	C 	0.3387	0.1938	0.0013	0.432
Mof_Y 	Y 	0.5123	0.14642	0.01317	1.776
Mof_O 	O 	0.4445	0.0796	0.9326	-0.594
Mof_O 	O 	0.7089	0.0944	0.0239	-0.438
Mof_O 	O 	0.49	0.0956	0.2103	-0.442
Mof_O 	O 	0.5068	0.1886	0.1309	-0.44
Mof_O 	O 	0.63	0.1888	0.0242	-0.451
Mof_C 	C 	0.691	0.162	0.0234	0.434
Mof_C 	C 	0.4986	0.2145	0.2554	-0.139
Mof_H 	H 	0.4986	0.1971	0.3024	0.104
Mof_C 	C 	0.7543	0.2147	0.025	-0.136
Mof_H 	H 	0.8009	0.1962	0.0261	0.102
Mof_C 	C 	0.4987	0.1613	0.1938	0.428
Mof_Y 	Y 	0.9877	0.14642	0.48683	1.769
Mof_O 	O 	0.0555	0.0796	0.5674	-0.592
Mof_O 	O 	0.7911	0.0944	0.4761	-0.44
Mof_O 	O 	0.01	0.0956	0.2897	-0.44
Mof_O 	O 	0.9932	0.1886	0.3691	-0.442
Mof_O 	O 	0.87	0.1888	0.4758	-0.452
Mof_C 	C 	0.809	0.162	0.4766	0.434
Mof_C 	C 	0.0014	0.2145	0.2446	-0.139
Mof_H 	H 	0.0014	0.1971	0.1976	0.105
Mof_C 	C 	0.7457	0.2147	0.475	-0.137
Mof_H 	H 	0.6991	0.1962	0.4739	0.102
Mof_C 	C 	0.0013	0.1613	0.3062	0.431
Mof_Y 	Y 	0.5123	0.35358	0.48683	1.771
Mof_O 	O 	0.4445	0.4204	0.5674	-0.593
Mof_O 	O 	0.7089	0.4056	0.4761	-0.439
Mof_O 	O 	0.49	0.4044	0.2897	-0.442
Mof_O 	O 	0.5068	0.3114	0.3691	-0.439
Mof_O 	O 	0.63	0.3112	0.4758	-0.452
Mof_C 	C 	0.691	0.338	0.4766	0.434
Mof_C 	C 	0.4986	0.2855	0.2446	-0.139
Mof_H 	H 	0.4986	0.3029	0.1976	0.104
Mof_C 	C 	0.7543	0.2853	0.475	-0.136
Mof_H 	H 	0.8009	0.3038	0.4739	0.102
Mof_C 	C 	0.4987	0.3387	0.3062	0.428
Mof_Y 	Y 	0.9877	0.35358	0.01317	1.768
Mof_O 	O 	0.0555	0.4204	0.9326	-0.594
Mof_O 	O 	0.7911	0.4056	0.0239	-0.439
Mof_O 	O 	0.01	0.4044	0.2103	-0.443
Mof_O 	O 	0.9932	0.3114	0.1309	-0.442
Mof_O 	O 	0.87	0.3112	0.0242	-0.451
Mof_C 	C 	0.809	0.338	0.0234	0.434
Mof_C 	C 	0.0014	0.2855	0.2554	-0.139
Mof_H 	H 	0.0014	0.3029	0.3024	0.104
Mof_C 	C 	0.7457	0.2853	0.025	-0.136
Mof_H 	H 	0.6991	0.3038	0.0261	0.102
Mof_C 	C 	0.0013	0.3387	0.1938	0.432
Mof_O 	O 	0.9329	0.5671	0.9329	-0.597
Mof_O 	O 	0.5671	0.9329	0.9329	-0.597
Mof_O 	O 	0.5671	0.5671	0.5671	-0.599
Mof_O 	O 	0.9329	0.9329	0.5671	-0.597
Mof_O 	O 	0.0671	0.4329	0.0671	-0.597
Mof_O 	O 	0.4329	0.0671	0.0671	-0.597
Mof_O 	O 	0.4329	0.4329	0.4329	-0.599
Mof_O 	O 	0.0671	0.0671	0.4329	-0.597
_end
