# CIF file generated by openbabel 3.1.0, see https://openbabel.org
data_I
_chemical_name_common 'image0'
_cell_length_a 10.6546
_cell_length_b 10.6545
_cell_length_c 9.1303
_cell_angle_alpha 89.9957
_cell_angle_beta 89.9997
_cell_angle_gamma 84.4844
_space_group_name_H-M_alt 'P 1'
_space_group_name_Hall 'P 1'
loop_
    _symmetry_equiv_pos_as_xyz
    x,y,z
loop_
    _atom_site_label
    _atom_site_type_symbol
    _atom_site_fract_x
    _atom_site_fract_y
    _atom_site_fract_z
    _atom_site_occupancy
    O1       O        0.66784    0.17640    0.87831    1.000
    O2       O        0.30236    0.19320    0.87828    1.000
    O3       O        0.49350    0.00206    0.87831    1.000
    O4       O        0.47669    0.36754    0.87829    1.000
    O5       O        0.49349    0.00206    0.12191    1.000
    O6       O        0.30235    0.19320    0.12188    1.000
    O7       O        0.66783    0.17639    0.12191    1.000
    Cu1      Cu       0.48508    0.18480    0.14414    1.000
    Cu2      Cu       0.48510    0.18480    0.85605    1.000
    O8       O        0.47668    0.36754    0.12189    1.000
    C1       C        0.25555    0.19197    0.00008    1.000
    C2       C        0.11611    0.18828    0.00007    1.000
    C3       C        0.03662    0.30082    0.00007    1.000
    C4       C        0.90560    0.29734    0.00009    1.000
    C5       C        0.93357    0.06877    0.00012    1.000
    C6       C        0.06459    0.07225    0.00010    1.000
    C7       C        0.49226    0.95526    0.00011    1.000
    C8       C        0.48857    0.81582    0.00010    1.000
    C9       C        0.71714    0.78785    0.00014    1.000
    C10      C        0.82968    0.70835    0.00016    1.000
    C11      C        0.82620    0.57734    0.00015    1.000
    C12      C        0.71017    0.52581    0.00012    1.000
    C13      C        0.59763    0.60530    0.00010    1.000
    C14      C        0.60112    0.73632    0.00011    1.000
    C15      C        0.36907    0.63328    0.00006    1.000
    C16      C        0.37254    0.76429    0.00007    1.000
    C17      C        0.25304    0.58175    0.00003    1.000
    C18      C        0.14049    0.66124    0.00002    1.000
    C19      C        0.14397    0.79227    0.00002    1.000
    C20      C        0.26000    0.84379    0.00005    1.000
    C21      C        0.71463    0.17763    0.00011    1.000
    C22      C        0.85407    0.18132    0.00011    1.000
    C23      C        0.47792    0.41434    0.00009    1.000
    C24      C        0.48161    0.55378    0.00008    1.000
    N1       N        0.48508    0.18479    0.34676    1.000
    N2       N        0.48511    0.18480    0.65343    1.000
    C25      C        0.56975    0.10019    0.42342    1.000
    C26      C        0.56976    0.10019    0.57676    1.000
    C27      C        0.40043    0.26940    0.57676    1.000
    C28      C        0.40042    0.26940    0.42343    1.000
    H1       H        0.12931    0.98060    0.00011    1.000
    Br1      Br       0.98714    0.77829    0.00018    1.000
    Br2      Br       0.98304    0.59131    0.99995    1.000
    H2       H        0.33150    0.33829    0.63920    1.000
    H3       H        0.33146    0.33829    0.36100    1.000
    Br3      Br       0.10655    0.45828    0.00003    1.000
    H4       H        0.84089    0.38899    0.00009    1.000
    Br4      Br       0.86364    0.91131    0.00015    1.000
    Br5      Br       0.97894    0.46944    0.00016    1.000
    Br6      Br       0.70546    0.34800    0.00000    1.000
    Br7      Br       0.72186    0.96566    0.00019    1.000
    H5       H        0.25022    0.47507    0.00002    1.000
    Br8      Br       0.99123    0.90015    0.99998    1.000
    Br9      Br       0.26473    0.02160    0.00008    1.000
    H6       H        0.63870    0.03130    0.63917    1.000
    H7       H        0.63869    0.03129    0.36101    1.000
