data_functionalizedCrystal
_audit_creation_method	'EQeq! by Chris Wilmer'
_symmetry_space_group_name_H-M	'P1'
_symmetry_Int_Tables_number	1
_symmetry_cell_setting	triclinic
loop_
_symmetry_equiv_pos_as_xyz
  x,y,z
_cell_length_a	32.968
_cell_length_b	32.968
_cell_length_c	32.9757
_cell_angle_alpha	60.0077
_cell_angle_beta	60.0077
_cell_angle_gamma	60
loop_
_atom_site_label
_atom_site_type_symbol
_atom_site_fract_x
_atom_site_fract_y
_atom_site_fract_z
_atom_site_charge
Mof_Cu	Cu	0.36339	0.4437	0.29014	0.906
Mof_Cu	Cu	0.4437	0.90277	0.29014	0.906
Mof_Cu	Cu	0.90277	0.36339	0.29014	0.906
Mof_Cu	Cu	0.36339	0.90277	0.29014	0.906
Mof_Cu	Cu	0.4437	0.36339	0.29014	0.906
Mof_Cu	Cu	0.90277	0.4437	0.29014	0.906
Mof_Cu	Cu	0.90361	0.44306	0.74972	0.906
Mof_Cu	Cu	0.90327	0.36302	0.83044	0.906
Mof_Cu	Cu	0.44306	0.90361	0.74972	0.906
Mof_Cu	Cu	0.36301	0.90327	0.83045	0.906
Mof_Cu	Cu	0.90361	0.90361	0.74972	0.906
Mof_Cu	Cu	0.90327	0.90327	0.83044	0.906
Mof_H 	H 	0.0599	0.2811	0.7852	0.031
Mof_H 	H 	0.143	0.2415	0.7489	0.08
Mof_H 	H 	0.1426	0.3569	0.6256	0.082
Mof_H 	H 	0.0602	0.3962	0.6613	0.029
Mof_H 	H 	0.3657	0.2391	0.5275	0.074
Mof_H 	H 	0.3984	0.2782	0.4435	0.037
Mof_H 	H 	0.275	0.3962	0.2725	0.034
Mof_H 	H 	0.2362	0.3567	0.2698	0.077
Mof_H 	H 	0.751	0.412	0.9163	0.02
Mof_H 	H 	0.6695	0.4466	0.9541	0.09
Mof_H 	H 	0.6643	0.5641	0.8317	0.095
Mof_H 	H 	0.7464	0.529	0.7951	0.021
Mof_H 	H 	0.4501	0.5653	0.051	0.082
Mof_H 	H 	0.4082	0.5288	0.1335	0.035
Mof_H 	H 	0.4092	0.5301	0.3157	0.031
Mof_H 	H 	0.447	0.5681	0.319	0.083
Mof_H 	H 	0.2811	0.8738	0.7852	0.031
Mof_H 	H 	0.2415	0.8666	0.7489	0.08
Mof_H 	H 	0.3569	0.8749	0.6256	0.082
Mof_H 	H 	0.3962	0.8823	0.6613	0.029
Mof_H 	H 	0.2391	0.8677	0.5275	0.074
Mof_H 	H 	0.2782	0.8799	0.4435	0.037
Mof_H 	H 	0.3962	0.0563	0.2725	0.034
Mof_H 	H 	0.3567	0.1373	0.2698	0.077
Mof_H 	H 	0.412	0.9207	0.9163	0.02
Mof_H 	H 	0.4466	0.9298	0.9541	0.09
Mof_H 	H 	0.5641	0.9399	0.8317	0.095
Mof_H 	H 	0.529	0.9295	0.7951	0.021
Mof_H 	H 	0.5653	0.9336	0.051	0.082
Mof_H 	H 	0.5288	0.9295	0.1335	0.035
Mof_H 	H 	0.5301	0.745	0.3157	0.031
Mof_H 	H 	0.5681	0.6659	0.319	0.083
Mof_H 	H 	0.8738	0.0599	0.7852	0.031
Mof_H 	H 	0.8666	0.143	0.7489	0.08
Mof_H 	H 	0.8749	0.1426	0.6256	0.082
Mof_H 	H 	0.8823	0.0602	0.6613	0.029
Mof_H 	H 	0.8677	0.3657	0.5275	0.074
Mof_H 	H 	0.8799	0.3984	0.4435	0.037
Mof_H 	H 	0.0563	0.275	0.2725	0.034
Mof_H 	H 	0.1373	0.2362	0.2698	0.077
Mof_H 	H 	0.9207	0.751	0.9163	0.02
Mof_H 	H 	0.9298	0.6695	0.9541	0.089
Mof_H 	H 	0.9399	0.6643	0.8317	0.094
Mof_H 	H 	0.9295	0.7464	0.7951	0.02
Mof_H 	H 	0.9336	0.4501	0.051	0.081
Mof_H 	H 	0.9295	0.4082	0.1335	0.034
Mof_H 	H 	0.745	0.4092	0.3157	0.03
Mof_H 	H 	0.6659	0.447	0.319	0.082
Mof_H 	H 	0.0599	0.8738	0.7852	0.03
Mof_H 	H 	0.143	0.8666	0.7489	0.079
Mof_H 	H 	0.1426	0.8749	0.6256	0.081
Mof_H 	H 	0.0602	0.8823	0.6613	0.028
Mof_H 	H 	0.3657	0.8677	0.5275	0.073
Mof_H 	H 	0.3984	0.8799	0.4435	0.036
Mof_H 	H 	0.275	0.0563	0.2725	0.033
Mof_H 	H 	0.2362	0.1373	0.2698	0.076
Mof_H 	H 	0.751	0.9207	0.9163	0.019
Mof_H 	H 	0.6695	0.9298	0.9541	0.089
Mof_H 	H 	0.6643	0.9399	0.8317	0.094
Mof_H 	H 	0.7464	0.9295	0.7951	0.02
Mof_H 	H 	0.4501	0.9336	0.051	0.081
Mof_H 	H 	0.4082	0.9295	0.1335	0.034
Mof_H 	H 	0.4092	0.745	0.3157	0.03
Mof_H 	H 	0.447	0.6659	0.319	0.082
Mof_H 	H 	0.2811	0.0599	0.7852	0.03
Mof_H 	H 	0.2415	0.143	0.7489	0.079
Mof_H 	H 	0.3569	0.1426	0.6256	0.081
Mof_H 	H 	0.3962	0.0602	0.6613	0.028
Mof_H 	H 	0.2391	0.3657	0.5275	0.073
Mof_H 	H 	0.2782	0.3984	0.4435	0.036
Mof_H 	H 	0.3962	0.275	0.2725	0.033
Mof_H 	H 	0.3567	0.2362	0.2698	0.076
Mof_H 	H 	0.412	0.751	0.9163	0.019
Mof_H 	H 	0.4466	0.6695	0.9541	0.089
Mof_H 	H 	0.5641	0.6643	0.8317	0.094
Mof_H 	H 	0.529	0.7464	0.7951	0.02
Mof_H 	H 	0.5653	0.4501	0.051	0.081
Mof_H 	H 	0.5288	0.4082	0.1335	0.034
Mof_H 	H 	0.5301	0.4092	0.3157	0.03
Mof_H 	H 	0.5681	0.447	0.319	0.082
Mof_H 	H 	0.8738	0.2811	0.7852	0.03
Mof_H 	H 	0.8666	0.2415	0.7489	0.079
Mof_H 	H 	0.8749	0.3569	0.6256	0.081
Mof_H 	H 	0.8823	0.3962	0.6613	0.028
Mof_H 	H 	0.8677	0.2391	0.5275	0.073
Mof_H 	H 	0.8799	0.2782	0.4435	0.036
Mof_H 	H 	0.0563	0.3962	0.2725	0.033
Mof_H 	H 	0.1373	0.3567	0.2698	0.076
Mof_H 	H 	0.9207	0.412	0.9163	0.019
Mof_H 	H 	0.9298	0.4466	0.9541	0.089
Mof_H 	H 	0.9399	0.5641	0.8317	0.094
Mof_H 	H 	0.9295	0.529	0.7951	0.02
Mof_H 	H 	0.9336	0.5653	0.051	0.081
Mof_H 	H 	0.9295	0.5288	0.1335	0.034
Mof_H 	H 	0.745	0.5301	0.3157	0.03
Mof_H 	H 	0.6659	0.5681	0.319	0.082
Mof_C 	C 	0.99527	0.36437	0.75199	0.385
Mof_C 	C 	0.04943	0.34193	0.72811	-0.125
Mof_C 	C 	0.07595	0.29695	0.75235	0.053
Mof_C 	C 	0.12647	0.27277	0.73069	-0.113
Mof_C 	C 	0.15059	0.29569	0.68323	0.05
Mof_C 	C 	0.12589	0.34109	0.65803	-0.116
Mof_C 	C 	0.07627	0.36467	0.67939	0.053
Mof_C 	C 	0.20251	0.27201	0.65677	0.114
Mof_C 	C 	0.34784	0.27074	0.51118	-0.095
Mof_C 	C 	0.36665	0.29415	0.46165	0.037
Mof_C 	C 	0.29145	0.36385	0.27205	0.038
Mof_C 	C 	0.26874	0.34034	0.26968	-0.101
Mof_C 	C 	0.81204	0.44094	0.82948	0.384
Mof_C 	C 	0.75754	0.46514	0.85228	-0.144
Mof_C 	C 	0.73354	0.44294	0.89878	0.085
Mof_C 	C 	0.68476	0.46366	0.92152	-0.143
Mof_C 	C 	0.65737	0.50887	0.89779	0.073
Mof_C 	C 	0.68158	0.53308	0.84946	-0.137
Mof_C 	C 	0.73047	0.51187	0.82759	0.079
Mof_C 	C 	0.60354	0.53774	0.92128	0.099
Mof_C 	C 	0.46641	0.53301	0.06777	-0.114
Mof_C 	C 	0.44054	0.51144	0.11808	0.045
Mof_C 	C 	0.44161	0.51311	0.31627	0.053
Mof_C 	C 	0.46309	0.53529	0.31963	-0.119
Mof_C 	C 	0.36437	0.88837	0.75199	0.385
Mof_C 	C 	0.34193	0.88053	0.72811	-0.125
Mof_C 	C 	0.29695	0.87475	0.75235	0.053
Mof_C 	C 	0.27277	0.87007	0.73069	-0.113
Mof_C 	C 	0.29569	0.87049	0.68323	0.05
Mof_C 	C 	0.34109	0.87499	0.65803	-0.116
Mof_C 	C 	0.36467	0.87967	0.67939	0.053
Mof_C 	C 	0.27201	0.86871	0.65677	0.114
Mof_C 	C 	0.27074	0.87024	0.51118	-0.095
Mof_C 	C 	0.29415	0.87755	0.46165	0.037
Mof_C 	C 	0.36385	0.07265	0.27205	0.038
Mof_C 	C 	0.34034	0.12124	0.26968	-0.101
Mof_C 	C 	0.44094	0.91754	0.82948	0.384
Mof_C 	C 	0.46514	0.92504	0.85228	-0.144
Mof_C 	C 	0.44294	0.92474	0.89878	0.085
Mof_C 	C 	0.46366	0.93006	0.92152	-0.143
Mof_C 	C 	0.50887	0.93597	0.89779	0.073
Mof_C 	C 	0.53308	0.93588	0.84946	-0.137
Mof_C 	C 	0.51187	0.93007	0.82759	0.079
Mof_C 	C 	0.53774	0.93744	0.92128	0.099
Mof_C 	C 	0.53301	0.93281	0.06777	-0.114
Mof_C 	C 	0.51144	0.92994	0.11808	0.044
Mof_C 	C 	0.51311	0.72901	0.31627	0.053
Mof_C 	C 	0.53529	0.68199	0.31963	-0.119
Mof_C 	C 	0.88837	0.99527	0.75199	0.385
Mof_C 	C 	0.88053	0.04943	0.72811	-0.125
Mof_C 	C 	0.87475	0.07595	0.75235	0.053
Mof_C 	C 	0.87007	0.12647	0.73069	-0.113
Mof_C 	C 	0.87049	0.15059	0.68323	0.05
Mof_C 	C 	0.87499	0.12589	0.65803	-0.116
Mof_C 	C 	0.87967	0.07627	0.67939	0.053
Mof_C 	C 	0.86871	0.20251	0.65677	0.114
Mof_C 	C 	0.87024	0.34784	0.51118	-0.095
Mof_C 	C 	0.87755	0.36665	0.46165	0.037
Mof_C 	C 	0.07265	0.29145	0.27205	0.038
Mof_C 	C 	0.12124	0.26874	0.26968	-0.101
Mof_C 	C 	0.91754	0.81204	0.82948	0.384
Mof_C 	C 	0.92504	0.75754	0.85228	-0.144
Mof_C 	C 	0.92474	0.73354	0.89878	0.085
Mof_C 	C 	0.93006	0.68476	0.92152	-0.143
Mof_C 	C 	0.93597	0.65737	0.89779	0.073
Mof_C 	C 	0.93588	0.68158	0.84946	-0.137
Mof_C 	C 	0.93007	0.73047	0.82759	0.079
Mof_C 	C 	0.93744	0.60354	0.92128	0.099
Mof_C 	C 	0.93281	0.46641	0.06777	-0.114
Mof_C 	C 	0.92994	0.44054	0.11808	0.044
Mof_C 	C 	0.72901	0.44161	0.31627	0.053
Mof_C 	C 	0.68199	0.46309	0.31963	-0.119
Mof_C 	C 	0.99527	0.88837	0.75199	0.385
Mof_C 	C 	0.04943	0.88053	0.72811	-0.125
Mof_C 	C 	0.07595	0.87475	0.75235	0.053
Mof_C 	C 	0.12647	0.87007	0.73069	-0.113
Mof_C 	C 	0.15059	0.87049	0.68323	0.05
Mof_C 	C 	0.12589	0.87499	0.65803	-0.116
Mof_C 	C 	0.07627	0.87967	0.67939	0.053
Mof_C 	C 	0.20251	0.86871	0.65677	0.114
Mof_C 	C 	0.34784	0.87024	0.51118	-0.095
Mof_C 	C 	0.36665	0.87755	0.46165	0.037
Mof_C 	C 	0.29145	0.07265	0.27205	0.038
Mof_C 	C 	0.26874	0.12124	0.26968	-0.101
Mof_C 	C 	0.81204	0.91754	0.82948	0.384
Mof_C 	C 	0.75754	0.92504	0.85228	-0.144
Mof_C 	C 	0.73354	0.92474	0.89878	0.085
Mof_C 	C 	0.68476	0.93006	0.92152	-0.143
Mof_C 	C 	0.65737	0.93597	0.89779	0.073
Mof_C 	C 	0.68158	0.93588	0.84946	-0.137
Mof_C 	C 	0.73047	0.93007	0.82759	0.079
Mof_C 	C 	0.60354	0.93744	0.92128	0.099
Mof_C 	C 	0.46641	0.93281	0.06777	-0.114
Mof_C 	C 	0.44054	0.92994	0.11808	0.044
Mof_C 	C 	0.44161	0.72901	0.31627	0.053
Mof_C 	C 	0.46309	0.68199	0.31963	-0.119
Mof_C 	C 	0.36437	0.99527	0.75199	0.385
Mof_C 	C 	0.34193	0.04943	0.72811	-0.125
Mof_C 	C 	0.29695	0.07595	0.75235	0.053
Mof_C 	C 	0.27277	0.12647	0.73069	-0.113
Mof_C 	C 	0.29569	0.15059	0.68323	0.05
Mof_C 	C 	0.34109	0.12589	0.65803	-0.116
Mof_C 	C 	0.36467	0.07627	0.67939	0.053
Mof_C 	C 	0.27201	0.20251	0.65677	0.114
Mof_C 	C 	0.27074	0.34784	0.51118	-0.095
Mof_C 	C 	0.29415	0.36665	0.46165	0.037
Mof_C 	C 	0.36385	0.29145	0.27205	0.038
Mof_C 	C 	0.34034	0.26874	0.26968	-0.101
Mof_C 	C 	0.44094	0.81204	0.82948	0.384
Mof_C 	C 	0.46514	0.75754	0.85228	-0.144
Mof_C 	C 	0.44294	0.73354	0.89878	0.085
Mof_C 	C 	0.46366	0.68476	0.92152	-0.143
Mof_C 	C 	0.50887	0.65737	0.89779	0.073
Mof_C 	C 	0.53308	0.68158	0.84946	-0.137
Mof_C 	C 	0.51187	0.73047	0.82759	0.079
Mof_C 	C 	0.53774	0.60354	0.92128	0.099
Mof_C 	C 	0.53301	0.46641	0.06777	-0.114
Mof_C 	C 	0.51144	0.44054	0.11808	0.045
Mof_C 	C 	0.51311	0.44161	0.31627	0.053
Mof_C 	C 	0.53529	0.46309	0.31963	-0.119
Mof_C 	C 	0.88837	0.36437	0.75199	0.385
Mof_C 	C 	0.88053	0.34193	0.72811	-0.125
Mof_C 	C 	0.87475	0.29695	0.75235	0.053
Mof_C 	C 	0.87007	0.27277	0.73069	-0.113
Mof_C 	C 	0.87049	0.29569	0.68323	0.05
Mof_C 	C 	0.87499	0.34109	0.65803	-0.116
Mof_C 	C 	0.87967	0.36467	0.67939	0.053
Mof_C 	C 	0.86871	0.27201	0.65677	0.114
Mof_C 	C 	0.87024	0.27074	0.51118	-0.095
Mof_C 	C 	0.87755	0.29415	0.46165	0.037
Mof_C 	C 	0.07265	0.36385	0.27205	0.038
Mof_C 	C 	0.12124	0.34034	0.26968	-0.101
Mof_C 	C 	0.91754	0.44094	0.82948	0.384
Mof_C 	C 	0.92504	0.46514	0.85228	-0.144
Mof_C 	C 	0.92474	0.44294	0.89878	0.085
Mof_C 	C 	0.93006	0.46366	0.92152	-0.143
Mof_C 	C 	0.93597	0.50887	0.89779	0.073
Mof_C 	C 	0.93588	0.53308	0.84946	-0.137
Mof_C 	C 	0.93007	0.51187	0.82759	0.079
Mof_C 	C 	0.93744	0.53774	0.92128	0.099
Mof_C 	C 	0.93281	0.53301	0.06777	-0.114
Mof_C 	C 	0.92994	0.51144	0.11808	0.044
Mof_C 	C 	0.72901	0.51311	0.31627	0.053
Mof_C 	C 	0.68199	0.53529	0.31963	-0.119
Mof_C 	C 	0.27035	0.27035	0.5926	0.121
Mof_C 	C 	0.29824	0.29824	0.53683	0.032
Mof_C 	C 	0.34016	0.34016	0.43807	-0.105
Mof_C 	C 	0.36485	0.36485	0.3829	0.369
Mof_C 	C 	0.36342	0.36342	0.27874	0.357
Mof_C 	C 	0.33888	0.33888	0.27391	-0.111
Mof_C 	C 	0.2929	0.2929	0.26725	0.039
Mof_C 	C 	0.26742	0.26742	0.26524	0.116
Mof_C 	C 	0.44149	0.44149	0.30358	0.386
Mof_C 	C 	0.46521	0.46521	0.31357	-0.107
Mof_C 	C 	0.50962	0.50962	0.32404	0.054
Mof_C 	C 	0.53506	0.53506	0.32827	0.115
Mof_C 	C 	0.27035	0.8667	0.5926	0.121
Mof_C 	C 	0.29824	0.86669	0.53683	0.032
Mof_C 	C 	0.34016	0.88161	0.43807	-0.105
Mof_C 	C 	0.36485	0.8874	0.3829	0.369
Mof_C 	C 	0.36342	0.99442	0.27874	0.357
Mof_C 	C 	0.33888	0.04833	0.27391	-0.111
Mof_C 	C 	0.2929	0.14695	0.26725	0.039
Mof_C 	C 	0.26742	0.19992	0.26524	0.116
Mof_C 	C 	0.44149	0.81344	0.30358	0.386
Mof_C 	C 	0.46521	0.75601	0.31357	-0.107
Mof_C 	C 	0.50962	0.65672	0.32404	0.054
Mof_C 	C 	0.53506	0.60161	0.32827	0.115
Mof_C 	C 	0.8667	0.27035	0.5926	0.121
Mof_C 	C 	0.86669	0.29824	0.53683	0.032
Mof_C 	C 	0.88161	0.34016	0.43807	-0.105
Mof_C 	C 	0.8874	0.36485	0.3829	0.369
Mof_C 	C 	0.99442	0.36342	0.27874	0.357
Mof_C 	C 	0.04833	0.33888	0.27391	-0.111
Mof_C 	C 	0.14695	0.2929	0.26725	0.039
Mof_C 	C 	0.19992	0.26742	0.26524	0.116
Mof_C 	C 	0.81344	0.44149	0.30358	0.386
Mof_C 	C 	0.75601	0.46521	0.31357	-0.107
Mof_C 	C 	0.65672	0.50962	0.32404	0.054
Mof_C 	C 	0.60161	0.53506	0.32827	0.115
Mof_C 	C 	0.53718	0.53718	0.99106	0.101
Mof_C 	C 	0.51109	0.51109	0.04353	0.064
Mof_C 	C 	0.46449	0.46449	0.14313	-0.104
Mof_C 	C 	0.44096	0.44096	0.19902	0.369
Mof_C 	C 	0.53718	0.93458	0.99106	0.102
Mof_C 	C 	0.51109	0.93429	0.04353	0.064
Mof_C 	C 	0.46449	0.92789	0.14313	-0.104
Mof_C 	C 	0.44096	0.91906	0.19902	0.369
Mof_C 	C 	0.93458	0.53718	0.99106	0.102
Mof_C 	C 	0.93429	0.51109	0.04353	0.064
Mof_C 	C 	0.92789	0.46449	0.14313	-0.104
Mof_C 	C 	0.91906	0.44096	0.19902	0.369
Mof_N 	N 	0.22409	0.29569	0.61213	-0.15
Mof_N 	N 	0.58325	0.51172	0.96964	-0.139
Mof_N 	N 	0.29569	0.86809	0.61213	-0.15
Mof_N 	N 	0.51172	0.93539	0.96964	-0.139
Mof_N 	N 	0.86809	0.22409	0.61213	-0.15
Mof_N 	N 	0.93539	0.58325	0.96964	-0.139
Mof_N 	N 	0.22409	0.86809	0.61213	-0.15
Mof_N 	N 	0.58325	0.93539	0.96964	-0.139
Mof_N 	N 	0.29569	0.22409	0.61213	-0.15
Mof_N 	N 	0.51172	0.58325	0.96964	-0.139
Mof_N 	N 	0.86809	0.29569	0.61213	-0.15
Mof_N 	N 	0.93539	0.51172	0.96964	-0.139
Mof_N 	N 	0.22156	0.29194	0.26494	-0.147
Mof_N 	N 	0.29194	0.22156	0.26494	-0.147
Mof_N 	N 	0.22156	0.22156	0.26494	-0.147
Mof_N 	N 	0.226	0.226	0.6805	-0.145
Mof_N 	N 	0.226	0.8675	0.6805	-0.145
Mof_N 	N 	0.8675	0.226	0.6805	-0.145
Mof_N 	N 	0.5834	0.5834	0.89575	-0.14
Mof_N 	N 	0.5834	0.93745	0.89575	-0.14
Mof_N 	N 	0.93745	0.5834	0.89575	-0.14
Mof_N 	N 	0.58094	0.51063	0.32749	-0.148
Mof_N 	N 	0.51063	0.58094	0.32749	-0.148
Mof_N 	N 	0.58094	0.58094	0.32749	-0.148
Mof_O 	O 	0.97528	0.33922	0.7945	-0.414
Mof_O 	O 	0.97485	0.40668	0.72658	-0.416
Mof_O 	O 	0.34043	0.40789	0.36244	-0.407
Mof_O 	O 	0.33891	0.40701	0.28048	-0.406
Mof_O 	O 	0.83211	0.39877	0.85363	-0.422
Mof_O 	O 	0.83252	0.46672	0.78562	-0.409
Mof_O 	O 	0.39819	0.46646	0.2184	-0.411
Mof_O 	O 	0.39955	0.46743	0.30073	-0.424
Mof_O 	O 	0.33922	0.891	0.7945	-0.414
Mof_O 	O 	0.40668	0.89189	0.72658	-0.416
Mof_O 	O 	0.40789	0.88924	0.36244	-0.407
Mof_O 	O 	0.40701	0.9736	0.28048	-0.406
Mof_O 	O 	0.39877	0.91549	0.85363	-0.422
Mof_O 	O 	0.46672	0.91514	0.78562	-0.409
Mof_O 	O 	0.46646	0.91695	0.2184	-0.411
Mof_O 	O 	0.46743	0.83229	0.30073	-0.424
Mof_O 	O 	0.891	0.97528	0.7945	-0.414
Mof_O 	O 	0.89189	0.97485	0.72658	-0.416
Mof_O 	O 	0.88924	0.34043	0.36244	-0.407
Mof_O 	O 	0.9736	0.33891	0.28048	-0.406
Mof_O 	O 	0.91549	0.83211	0.85363	-0.422
Mof_O 	O 	0.91514	0.83252	0.78562	-0.409
Mof_O 	O 	0.91695	0.39819	0.2184	-0.411
Mof_O 	O 	0.83229	0.39955	0.30073	-0.424
Mof_O 	O 	0.97528	0.891	0.7945	-0.414
Mof_O 	O 	0.97485	0.89189	0.72658	-0.416
Mof_O 	O 	0.34043	0.88924	0.36244	-0.407
Mof_O 	O 	0.33891	0.9736	0.28048	-0.406
Mof_O 	O 	0.83211	0.91549	0.85363	-0.422
Mof_O 	O 	0.83252	0.91514	0.78562	-0.409
Mof_O 	O 	0.39819	0.91695	0.2184	-0.411
Mof_O 	O 	0.39955	0.83229	0.30073	-0.424
Mof_O 	O 	0.33922	0.97528	0.7945	-0.414
Mof_O 	O 	0.40668	0.97485	0.72658	-0.416
Mof_O 	O 	0.40789	0.34043	0.36244	-0.407
Mof_O 	O 	0.40701	0.33891	0.28048	-0.406
Mof_O 	O 	0.39877	0.83211	0.85363	-0.422
Mof_O 	O 	0.46672	0.83252	0.78562	-0.409
Mof_O 	O 	0.46646	0.39819	0.2184	-0.411
Mof_O 	O 	0.46743	0.39955	0.30073	-0.424
Mof_O 	O 	0.891	0.33922	0.7945	-0.414
Mof_O 	O 	0.89189	0.40668	0.72658	-0.416
Mof_O 	O 	0.88924	0.40789	0.36244	-0.407
Mof_O 	O 	0.9736	0.40701	0.28048	-0.406
Mof_O 	O 	0.91549	0.39877	0.85363	-0.422
Mof_O 	O 	0.91514	0.46672	0.78562	-0.409
Mof_O 	O 	0.91695	0.46646	0.2184	-0.411
Mof_O 	O 	0.83229	0.46743	0.30073	-0.424
Mof_Cu	Cu	0.63661	0.09723	0.70986	0.905
Mof_Cu	Cu	0.5563	0.63661	0.70986	0.905
Mof_Cu	Cu	0.09723	0.5563	0.70986	0.905
Mof_Cu	Cu	0.63661	0.5563	0.70986	0.905
Mof_Cu	Cu	0.5563	0.09723	0.70986	0.905
Mof_Cu	Cu	0.09723	0.63661	0.70986	0.905
Mof_Cu	Cu	0.09639	0.09639	0.25028	0.905
Mof_Cu	Cu	0.09673	0.09673	0.16955	0.905
Mof_Cu	Cu	0.55694	0.09639	0.25028	0.905
Mof_Cu	Cu	0.63698	0.09673	0.16956	0.905
Mof_Cu	Cu	0.09639	0.55694	0.25028	0.905
Mof_Cu	Cu	0.09673	0.63699	0.16955	0.905
Mof_H 	H 	0.9401	0.1262	0.2148	0.03
Mof_H 	H 	0.857	0.1334	0.2511	0.079
Mof_H 	H 	0.8574	0.1251	0.3744	0.081
Mof_H 	H 	0.9398	0.1177	0.3387	0.028
Mof_H 	H 	0.6343	0.1323	0.4725	0.073
Mof_H 	H 	0.6016	0.1201	0.5565	0.036
Mof_H 	H 	0.725	0.9437	0.7275	0.033
Mof_H 	H 	0.7638	0.8627	0.7302	0.076
Mof_H 	H 	0.249	0.0793	0.0837	0.019
Mof_H 	H 	0.3305	0.0702	0.0459	0.089
Mof_H 	H 	0.3357	0.0601	0.1683	0.094
Mof_H 	H 	0.2536	0.0705	0.2049	0.02
Mof_H 	H 	0.5499	0.0664	0.949	0.081
Mof_H 	H 	0.5918	0.0705	0.8665	0.034
Mof_H 	H 	0.5908	0.255	0.6843	0.03
Mof_H 	H 	0.553	0.3341	0.681	0.082
Mof_H 	H 	0.7189	0.9401	0.2148	0.03
Mof_H 	H 	0.7585	0.857	0.2511	0.079
Mof_H 	H 	0.6431	0.8574	0.3744	0.081
Mof_H 	H 	0.6038	0.9398	0.3387	0.028
Mof_H 	H 	0.7609	0.6343	0.4725	0.073
Mof_H 	H 	0.7218	0.6016	0.5565	0.036
Mof_H 	H 	0.6038	0.725	0.7275	0.033
Mof_H 	H 	0.6433	0.7638	0.7302	0.076
Mof_H 	H 	0.588	0.249	0.0837	0.019
Mof_H 	H 	0.5534	0.3305	0.0459	0.089
Mof_H 	H 	0.4359	0.3357	0.1683	0.094
Mof_H 	H 	0.471	0.2536	0.2049	0.02
Mof_H 	H 	0.4347	0.5499	0.949	0.081
Mof_H 	H 	0.4712	0.5918	0.8665	0.034
Mof_H 	H 	0.4699	0.5908	0.6843	0.03
Mof_H 	H 	0.4319	0.553	0.681	0.082
Mof_H 	H 	0.1262	0.7189	0.2148	0.03
Mof_H 	H 	0.1334	0.7585	0.2511	0.079
Mof_H 	H 	0.1251	0.6431	0.3744	0.081
Mof_H 	H 	0.1177	0.6038	0.3387	0.028
Mof_H 	H 	0.1323	0.7609	0.4725	0.073
Mof_H 	H 	0.1201	0.7218	0.5565	0.036
Mof_H 	H 	0.9437	0.6038	0.7275	0.033
Mof_H 	H 	0.8627	0.6433	0.7302	0.076
Mof_H 	H 	0.0793	0.588	0.0837	0.019
Mof_H 	H 	0.0702	0.5534	0.0459	0.089
Mof_H 	H 	0.0601	0.4359	0.1683	0.094
Mof_H 	H 	0.0705	0.471	0.2049	0.02
Mof_H 	H 	0.0664	0.4347	0.949	0.081
Mof_H 	H 	0.0705	0.4712	0.8665	0.034
Mof_H 	H 	0.255	0.4699	0.6843	0.03
Mof_H 	H 	0.3341	0.4319	0.681	0.082
Mof_H 	H 	0.9401	0.7189	0.2148	0.03
Mof_H 	H 	0.857	0.7585	0.2511	0.079
Mof_H 	H 	0.8574	0.6431	0.3744	0.081
Mof_H 	H 	0.9398	0.6038	0.3387	0.028
Mof_H 	H 	0.6343	0.7609	0.4725	0.073
Mof_H 	H 	0.6016	0.7218	0.5565	0.036
Mof_H 	H 	0.725	0.6038	0.7275	0.033
Mof_H 	H 	0.7638	0.6433	0.7302	0.076
Mof_H 	H 	0.249	0.588	0.0837	0.019
Mof_H 	H 	0.3305	0.5534	0.0459	0.089
Mof_H 	H 	0.3357	0.4359	0.1683	0.094
Mof_H 	H 	0.2536	0.471	0.2049	0.02
Mof_H 	H 	0.5499	0.4347	0.949	0.081
Mof_H 	H 	0.5918	0.4712	0.8665	0.034
Mof_H 	H 	0.5908	0.4699	0.6843	0.03
Mof_H 	H 	0.553	0.4319	0.681	0.082
Mof_H 	H 	0.7189	0.1262	0.2148	0.03
Mof_H 	H 	0.7585	0.1334	0.2511	0.079
Mof_H 	H 	0.6431	0.1251	0.3744	0.081
Mof_H 	H 	0.6038	0.1177	0.3387	0.028
Mof_H 	H 	0.7609	0.1323	0.4725	0.073
Mof_H 	H 	0.7218	0.1201	0.5565	0.036
Mof_H 	H 	0.6038	0.9437	0.7275	0.033
Mof_H 	H 	0.6433	0.8627	0.7302	0.076
Mof_H 	H 	0.588	0.0793	0.0837	0.019
Mof_H 	H 	0.5534	0.0702	0.0459	0.089
Mof_H 	H 	0.4359	0.0601	0.1683	0.094
Mof_H 	H 	0.471	0.0705	0.2049	0.02
Mof_H 	H 	0.4347	0.0664	0.949	0.081
Mof_H 	H 	0.4712	0.0705	0.8665	0.034
Mof_H 	H 	0.4699	0.255	0.6843	0.03
Mof_H 	H 	0.4319	0.3341	0.681	0.082
Mof_H 	H 	0.1262	0.9401	0.2148	0.03
Mof_H 	H 	0.1334	0.857	0.2511	0.079
Mof_H 	H 	0.1251	0.8574	0.3744	0.081
Mof_H 	H 	0.1177	0.9398	0.3387	0.028
Mof_H 	H 	0.1323	0.6343	0.4725	0.073
Mof_H 	H 	0.1201	0.6016	0.5565	0.036
Mof_H 	H 	0.9437	0.725	0.7275	0.033
Mof_H 	H 	0.8627	0.7638	0.7302	0.076
Mof_H 	H 	0.0793	0.249	0.0837	0.019
Mof_H 	H 	0.0702	0.3305	0.0459	0.089
Mof_H 	H 	0.0601	0.3357	0.1683	0.094
Mof_H 	H 	0.0705	0.2536	0.2049	0.02
Mof_H 	H 	0.0664	0.5499	0.949	0.081
Mof_H 	H 	0.0705	0.5918	0.8665	0.034
Mof_H 	H 	0.255	0.5908	0.6843	0.03
Mof_H 	H 	0.3341	0.553	0.681	0.082
Mof_C 	C 	0.00473	0.11163	0.24801	0.385
Mof_C 	C 	0.95057	0.11947	0.27189	-0.125
Mof_C 	C 	0.92405	0.12525	0.24765	0.053
Mof_C 	C 	0.87353	0.12993	0.26931	-0.113
Mof_C 	C 	0.84941	0.12951	0.31677	0.05
Mof_C 	C 	0.87411	0.12501	0.34197	-0.116
Mof_C 	C 	0.92373	0.12033	0.32061	0.053
Mof_C 	C 	0.79749	0.13129	0.34323	0.114
Mof_C 	C 	0.65216	0.12976	0.48882	-0.095
Mof_C 	C 	0.63335	0.12245	0.53835	0.037
Mof_C 	C 	0.70855	0.92735	0.72795	0.038
Mof_C 	C 	0.73126	0.87876	0.73032	-0.101
Mof_C 	C 	0.18796	0.08246	0.17052	0.384
Mof_C 	C 	0.24246	0.07496	0.14772	-0.144
Mof_C 	C 	0.26646	0.07526	0.10122	0.085
Mof_C 	C 	0.31524	0.06994	0.07848	-0.143
Mof_C 	C 	0.34263	0.06403	0.10221	0.073
Mof_C 	C 	0.31842	0.06412	0.15054	-0.137
Mof_C 	C 	0.26953	0.06993	0.17241	0.079
Mof_C 	C 	0.39646	0.06256	0.07872	0.099
Mof_C 	C 	0.53359	0.06719	0.93223	-0.114
Mof_C 	C 	0.55946	0.07006	0.88192	0.044
Mof_C 	C 	0.55839	0.27099	0.68373	0.053
Mof_C 	C 	0.53691	0.31801	0.68037	-0.119
Mof_C 	C 	0.63563	0.00473	0.24801	0.385
Mof_C 	C 	0.65807	0.95057	0.27189	-0.125
Mof_C 	C 	0.70305	0.92405	0.24765	0.053
Mof_C 	C 	0.72723	0.87353	0.26931	-0.113
Mof_C 	C 	0.70431	0.84941	0.31677	0.05
Mof_C 	C 	0.65891	0.87411	0.34197	-0.116
Mof_C 	C 	0.63533	0.92373	0.32061	0.053
Mof_C 	C 	0.72799	0.79749	0.34323	0.114
Mof_C 	C 	0.72926	0.65216	0.48882	-0.095
Mof_C 	C 	0.70585	0.63335	0.53835	0.037
Mof_C 	C 	0.63615	0.70855	0.72795	0.038
Mof_C 	C 	0.65966	0.73126	0.73032	-0.101
Mof_C 	C 	0.55906	0.18796	0.17052	0.384
Mof_C 	C 	0.53486	0.24246	0.14772	-0.144
Mof_C 	C 	0.55706	0.26646	0.10122	0.085
Mof_C 	C 	0.53634	0.31524	0.07848	-0.143
Mof_C 	C 	0.49113	0.34263	0.10221	0.073
Mof_C 	C 	0.46692	0.31842	0.15054	-0.137
Mof_C 	C 	0.48813	0.26953	0.17241	0.079
Mof_C 	C 	0.46226	0.39646	0.07872	0.099
Mof_C 	C 	0.46699	0.53359	0.93223	-0.114
Mof_C 	C 	0.48856	0.55946	0.88192	0.045
Mof_C 	C 	0.48689	0.55839	0.68373	0.053
Mof_C 	C 	0.46471	0.53691	0.68037	-0.119
Mof_C 	C 	0.11163	0.63563	0.24801	0.385
Mof_C 	C 	0.11947	0.65807	0.27189	-0.125
Mof_C 	C 	0.12525	0.70305	0.24765	0.053
Mof_C 	C 	0.12993	0.72723	0.26931	-0.113
Mof_C 	C 	0.12951	0.70431	0.31677	0.05
Mof_C 	C 	0.12501	0.65891	0.34197	-0.116
Mof_C 	C 	0.12033	0.63533	0.32061	0.053
Mof_C 	C 	0.13129	0.72799	0.34323	0.114
Mof_C 	C 	0.12976	0.72926	0.48882	-0.095
Mof_C 	C 	0.12245	0.70585	0.53835	0.037
Mof_C 	C 	0.92735	0.63615	0.72795	0.038
Mof_C 	C 	0.87876	0.65966	0.73032	-0.101
Mof_C 	C 	0.08246	0.55906	0.17052	0.384
Mof_C 	C 	0.07496	0.53486	0.14772	-0.144
Mof_C 	C 	0.07526	0.55706	0.10122	0.085
Mof_C 	C 	0.06994	0.53634	0.07848	-0.143
Mof_C 	C 	0.06403	0.49113	0.10221	0.073
Mof_C 	C 	0.06412	0.46692	0.15054	-0.137
Mof_C 	C 	0.06993	0.48813	0.17241	0.079
Mof_C 	C 	0.06256	0.46226	0.07872	0.099
Mof_C 	C 	0.06719	0.46699	0.93223	-0.114
Mof_C 	C 	0.07006	0.48856	0.88192	0.044
Mof_C 	C 	0.27099	0.48689	0.68373	0.053
Mof_C 	C 	0.31801	0.46471	0.68037	-0.119
Mof_C 	C 	0.00473	0.63563	0.24801	0.385
Mof_C 	C 	0.95057	0.65807	0.27189	-0.125
Mof_C 	C 	0.92405	0.70305	0.24765	0.053
Mof_C 	C 	0.87353	0.72723	0.26931	-0.113
Mof_C 	C 	0.84941	0.70431	0.31677	0.05
Mof_C 	C 	0.87411	0.65891	0.34197	-0.116
Mof_C 	C 	0.92373	0.63533	0.32061	0.053
Mof_C 	C 	0.79749	0.72799	0.34323	0.114
Mof_C 	C 	0.65216	0.72926	0.48882	-0.095
Mof_C 	C 	0.63335	0.70585	0.53835	0.037
Mof_C 	C 	0.70855	0.63615	0.72795	0.038
Mof_C 	C 	0.73126	0.65966	0.73032	-0.101
Mof_C 	C 	0.18796	0.55906	0.17052	0.384
Mof_C 	C 	0.24246	0.53486	0.14772	-0.144
Mof_C 	C 	0.26646	0.55706	0.10122	0.085
Mof_C 	C 	0.31524	0.53634	0.07848	-0.143
Mof_C 	C 	0.34263	0.49113	0.10221	0.073
Mof_C 	C 	0.31842	0.46692	0.15054	-0.137
Mof_C 	C 	0.26953	0.48813	0.17241	0.079
Mof_C 	C 	0.39646	0.46226	0.07872	0.099
Mof_C 	C 	0.53359	0.46699	0.93223	-0.114
Mof_C 	C 	0.55946	0.48856	0.88192	0.045
Mof_C 	C 	0.55839	0.48689	0.68373	0.053
Mof_C 	C 	0.53691	0.46471	0.68037	-0.119
Mof_C 	C 	0.63563	0.11163	0.24801	0.385
Mof_C 	C 	0.65807	0.11947	0.27189	-0.125
Mof_C 	C 	0.70305	0.12525	0.24765	0.053
Mof_C 	C 	0.72723	0.12993	0.26931	-0.113
Mof_C 	C 	0.70431	0.12951	0.31677	0.05
Mof_C 	C 	0.65891	0.12501	0.34197	-0.116
Mof_C 	C 	0.63533	0.12033	0.32061	0.053
Mof_C 	C 	0.72799	0.13129	0.34323	0.114
Mof_C 	C 	0.72926	0.12976	0.48882	-0.095
Mof_C 	C 	0.70585	0.12245	0.53835	0.037
Mof_C 	C 	0.63615	0.92735	0.72795	0.038
Mof_C 	C 	0.65966	0.87876	0.73032	-0.101
Mof_C 	C 	0.55906	0.08246	0.17052	0.384
Mof_C 	C 	0.53486	0.07496	0.14772	-0.144
Mof_C 	C 	0.55706	0.07526	0.10122	0.085
Mof_C 	C 	0.53634	0.06994	0.07848	-0.143
Mof_C 	C 	0.49113	0.06403	0.10221	0.073
Mof_C 	C 	0.46692	0.06412	0.15054	-0.137
Mof_C 	C 	0.48813	0.06993	0.17241	0.079
Mof_C 	C 	0.46226	0.06256	0.07872	0.099
Mof_C 	C 	0.46699	0.06719	0.93223	-0.114
Mof_C 	C 	0.48856	0.07006	0.88192	0.044
Mof_C 	C 	0.48689	0.27099	0.68373	0.053
Mof_C 	C 	0.46471	0.31801	0.68037	-0.119
Mof_C 	C 	0.11163	0.00473	0.24801	0.385
Mof_C 	C 	0.11947	0.95057	0.27189	-0.125
Mof_C 	C 	0.12525	0.92405	0.24765	0.053
Mof_C 	C 	0.12993	0.87353	0.26931	-0.113
Mof_C 	C 	0.12951	0.84941	0.31677	0.05
Mof_C 	C 	0.12501	0.87411	0.34197	-0.116
Mof_C 	C 	0.12033	0.92373	0.32061	0.053
Mof_C 	C 	0.13129	0.79749	0.34323	0.114
Mof_C 	C 	0.12976	0.65216	0.48882	-0.095
Mof_C 	C 	0.12245	0.63335	0.53835	0.037
Mof_C 	C 	0.92735	0.70855	0.72795	0.038
Mof_C 	C 	0.87876	0.73126	0.73032	-0.101
Mof_C 	C 	0.08246	0.18796	0.17052	0.384
Mof_C 	C 	0.07496	0.24246	0.14772	-0.144
Mof_C 	C 	0.07526	0.26646	0.10122	0.085
Mof_C 	C 	0.06994	0.31524	0.07848	-0.143
Mof_C 	C 	0.06403	0.34263	0.10221	0.073
Mof_C 	C 	0.06412	0.31842	0.15054	-0.137
Mof_C 	C 	0.06993	0.26953	0.17241	0.079
Mof_C 	C 	0.06256	0.39646	0.07872	0.099
Mof_C 	C 	0.06719	0.53359	0.93223	-0.114
Mof_C 	C 	0.07006	0.55946	0.88192	0.044
Mof_C 	C 	0.27099	0.55839	0.68373	0.053
Mof_C 	C 	0.31801	0.53691	0.68037	-0.119
Mof_C 	C 	0.72965	0.1333	0.4074	0.121
Mof_C 	C 	0.70176	0.13331	0.46317	0.032
Mof_C 	C 	0.65984	0.11839	0.56193	-0.105
Mof_C 	C 	0.63515	0.1126	0.6171	0.369
Mof_C 	C 	0.63658	0.00558	0.72126	0.357
Mof_C 	C 	0.66112	0.95167	0.72609	-0.111
Mof_C 	C 	0.7071	0.85305	0.73275	0.039
Mof_C 	C 	0.73258	0.80008	0.73476	0.116
Mof_C 	C 	0.55851	0.18656	0.69642	0.386
Mof_C 	C 	0.53479	0.24399	0.68643	-0.107
Mof_C 	C 	0.49038	0.34328	0.67596	0.054
Mof_C 	C 	0.46494	0.39839	0.67173	0.115
Mof_C 	C 	0.72965	0.72965	0.4074	0.121
Mof_C 	C 	0.70176	0.70176	0.46317	0.032
Mof_C 	C 	0.65984	0.65984	0.56193	-0.105
Mof_C 	C 	0.63515	0.63515	0.6171	0.369
Mof_C 	C 	0.63658	0.63658	0.72126	0.357
Mof_C 	C 	0.66112	0.66112	0.72609	-0.111
Mof_C 	C 	0.7071	0.7071	0.73275	0.039
Mof_C 	C 	0.73258	0.73258	0.73476	0.116
Mof_C 	C 	0.55851	0.55851	0.69642	0.386
Mof_C 	C 	0.53479	0.53479	0.68643	-0.107
Mof_C 	C 	0.49038	0.49038	0.67596	0.054
Mof_C 	C 	0.46494	0.46494	0.67173	0.115
Mof_C 	C 	0.1333	0.72965	0.4074	0.121
Mof_C 	C 	0.13331	0.70176	0.46317	0.032
Mof_C 	C 	0.11839	0.65984	0.56193	-0.105
Mof_C 	C 	0.1126	0.63515	0.6171	0.369
Mof_C 	C 	0.00558	0.63658	0.72126	0.356
Mof_C 	C 	0.95167	0.66112	0.72609	-0.111
Mof_C 	C 	0.85305	0.7071	0.73275	0.039
Mof_C 	C 	0.80008	0.73258	0.73476	0.116
Mof_C 	C 	0.18656	0.55851	0.69642	0.386
Mof_C 	C 	0.24399	0.53479	0.68643	-0.107
Mof_C 	C 	0.34328	0.49038	0.67596	0.054
Mof_C 	C 	0.39839	0.46494	0.67173	0.115
Mof_C 	C 	0.46282	0.06542	0.00894	0.102
Mof_C 	C 	0.48891	0.06571	0.95647	0.064
Mof_C 	C 	0.53551	0.07211	0.85687	-0.104
Mof_C 	C 	0.55904	0.08094	0.80098	0.369
Mof_C 	C 	0.46282	0.46282	0.00894	0.101
Mof_C 	C 	0.48891	0.48891	0.95647	0.064
Mof_C 	C 	0.53551	0.53551	0.85687	-0.104
Mof_C 	C 	0.55904	0.55904	0.80098	0.369
Mof_C 	C 	0.06542	0.46282	0.00894	0.102
Mof_C 	C 	0.06571	0.48891	0.95647	0.064
Mof_C 	C 	0.07211	0.53551	0.85687	-0.104
Mof_C 	C 	0.08094	0.55904	0.80098	0.369
Mof_N 	N 	0.77591	0.13191	0.38787	-0.15
Mof_N 	N 	0.41675	0.06461	0.03036	-0.139
Mof_N 	N 	0.70431	0.77591	0.38787	-0.15
Mof_N 	N 	0.48828	0.41675	0.03036	-0.139
Mof_N 	N 	0.13191	0.70431	0.38787	-0.15
Mof_N 	N 	0.06461	0.48828	0.03036	-0.139
Mof_N 	N 	0.77591	0.70431	0.38787	-0.15
Mof_N 	N 	0.41675	0.48828	0.03036	-0.139
Mof_N 	N 	0.70431	0.13191	0.38787	-0.15
Mof_N 	N 	0.48828	0.06461	0.03036	-0.139
Mof_N 	N 	0.13191	0.77591	0.38787	-0.15
Mof_N 	N 	0.06461	0.41675	0.03036	-0.139
Mof_N 	N 	0.77844	0.77844	0.73506	-0.147
Mof_N 	N 	0.70806	0.77844	0.73506	-0.147
Mof_N 	N 	0.77844	0.70806	0.73506	-0.147
Mof_N 	N 	0.774	0.1325	0.3195	-0.145
Mof_N 	N 	0.774	0.774	0.3195	-0.145
Mof_N 	N 	0.1325	0.774	0.3195	-0.145
Mof_N 	N 	0.4166	0.06255	0.10425	-0.14
Mof_N 	N 	0.4166	0.4166	0.10425	-0.14
Mof_N 	N 	0.06255	0.4166	0.10425	-0.14
Mof_N 	N 	0.41906	0.41906	0.67251	-0.148
Mof_N 	N 	0.48937	0.41906	0.67251	-0.148
Mof_N 	N 	0.41906	0.48937	0.67251	-0.148
Mof_O 	O 	0.02472	0.109	0.2055	-0.414
Mof_O 	O 	0.02515	0.10811	0.27342	-0.416
Mof_O 	O 	0.65957	0.11076	0.63756	-0.407
Mof_O 	O 	0.66109	0.0264	0.71952	-0.406
Mof_O 	O 	0.16789	0.08451	0.14637	-0.422
Mof_O 	O 	0.16748	0.08486	0.21438	-0.409
Mof_O 	O 	0.60181	0.08305	0.7816	-0.411
Mof_O 	O 	0.60045	0.16771	0.69927	-0.424
Mof_O 	O 	0.66078	0.02472	0.2055	-0.414
Mof_O 	O 	0.59332	0.02515	0.27342	-0.416
Mof_O 	O 	0.59211	0.65957	0.63756	-0.407
Mof_O 	O 	0.59299	0.66109	0.71952	-0.406
Mof_O 	O 	0.60123	0.16789	0.14637	-0.422
Mof_O 	O 	0.53328	0.16748	0.21438	-0.409
Mof_O 	O 	0.53354	0.60181	0.7816	-0.411
Mof_O 	O 	0.53257	0.60045	0.69927	-0.424
Mof_O 	O 	0.109	0.66078	0.2055	-0.414
Mof_O 	O 	0.10811	0.59332	0.27342	-0.416
Mof_O 	O 	0.11076	0.59211	0.63756	-0.407
Mof_O 	O 	0.0264	0.59299	0.71952	-0.406
Mof_O 	O 	0.08451	0.60123	0.14637	-0.422
Mof_O 	O 	0.08486	0.53328	0.21438	-0.409
Mof_O 	O 	0.08305	0.53354	0.7816	-0.411
Mof_O 	O 	0.16771	0.53257	0.69927	-0.424
Mof_O 	O 	0.02472	0.66078	0.2055	-0.414
Mof_O 	O 	0.02515	0.59332	0.27342	-0.416
Mof_O 	O 	0.65957	0.59211	0.63756	-0.407
Mof_O 	O 	0.66109	0.59299	0.71952	-0.406
Mof_O 	O 	0.16789	0.60123	0.14637	-0.422
Mof_O 	O 	0.16748	0.53328	0.21438	-0.409
Mof_O 	O 	0.60181	0.53354	0.7816	-0.411
Mof_O 	O 	0.60045	0.53257	0.69927	-0.424
Mof_O 	O 	0.66078	0.109	0.2055	-0.414
Mof_O 	O 	0.59332	0.10811	0.27342	-0.416
Mof_O 	O 	0.59211	0.11076	0.63756	-0.407
Mof_O 	O 	0.59299	0.0264	0.71952	-0.406
Mof_O 	O 	0.60123	0.08451	0.14637	-0.422
Mof_O 	O 	0.53328	0.08486	0.21438	-0.409
Mof_O 	O 	0.53354	0.08305	0.7816	-0.411
Mof_O 	O 	0.53257	0.16771	0.69927	-0.424
Mof_O 	O 	0.109	0.02472	0.2055	-0.414
Mof_O 	O 	0.10811	0.02515	0.27342	-0.416
Mof_O 	O 	0.11076	0.65957	0.63756	-0.407
Mof_O 	O 	0.0264	0.66109	0.71952	-0.406
Mof_O 	O 	0.08451	0.16789	0.14637	-0.422
Mof_O 	O 	0.08486	0.16748	0.21438	-0.409
Mof_O 	O 	0.08305	0.60181	0.7816	-0.411
Mof_O 	O 	0.16771	0.60045	0.69927	-0.424
_end
