data_functionalizedCrystal
_audit_creation_method	'EQeq! by Chris Wilmer'
_symmetry_space_group_name_H-M	'P1'
_symmetry_Int_Tables_number	1
_symmetry_cell_setting	triclinic
loop_
_symmetry_equiv_pos_as_xyz
  x,y,z
_cell_length_a	9.1265
_cell_length_b	9.1265
_cell_length_c	14.4002
_cell_angle_alpha	100.235
_cell_angle_beta	100.235
_cell_angle_gamma	116.058
loop_
_atom_site_label
_atom_site_type_symbol
_atom_site_fract_x
_atom_site_fract_y
_atom_site_fract_z
_atom_site_charge
Mof_Tb	Tb	0.7407	0.9907	0.9814	1.99
Mof_Tb	Tb	0.5093	0.7593	0.5186	2.009
Mof_Tb	Tb	0.2593	0.0093	0.0186	1.989
Mof_Tb	Tb	0.4907	0.2407	0.4814	2.008
Mof_H 	H 	0.8826	0.457	0.068	0.079
Mof_H 	H 	0.6854	0.611	0.068	0.078
Mof_H 	H 	0.043	0.6174	0.432	0.077
Mof_H 	H 	0.889	0.8146	0.432	0.079
Mof_H 	H 	0.1174	0.543	0.932	0.079
Mof_H 	H 	0.3146	0.389	0.932	0.078
Mof_H 	H 	0.957	0.3826	0.568	0.077
Mof_H 	H 	0.111	0.1854	0.568	0.079
Mof_C 	C 	0.62564	0.30204	0.05808	0.446
Mof_C 	C 	0.78146	0.46066	0.06412	-0.161
Mof_C 	C 	0.93244	0.75604	0.05808	0.443
Mof_C 	C 	0.78266	0.60346	0.06412	-0.157
Mof_C 	C 	0.19796	0.87436	0.44192	0.451
Mof_C 	C 	0.03934	0.71854	0.43588	-0.157
Mof_C 	C 	0.74396	0.56756	0.44192	0.448
Mof_C 	C 	0.89654	0.71734	0.43588	-0.164
Mof_C 	C 	0.37436	0.69796	0.94192	0.446
Mof_C 	C 	0.21854	0.53934	0.93588	-0.161
Mof_C 	C 	0.06756	0.24396	0.94192	0.443
Mof_C 	C 	0.21734	0.39654	0.93588	-0.157
Mof_C 	C 	0.80204	0.12564	0.55808	0.451
Mof_C 	C 	0.96066	0.28146	0.56412	-0.157
Mof_C 	C 	0.25604	0.43244	0.55808	0.448
Mof_C 	C 	0.10346	0.28266	0.56412	-0.164
Mof_C 	C 	0.6749	0.8251	0.75	0.279
Mof_C 	C 	0.5751	0.9249	0.75	0.279
Mof_C 	C 	0.3251	0.1749	0.25	0.279
Mof_C 	C 	0.4249	0.0751	0.25	0.279
Mof_O 	O 	0.63083	0.16741	0.03344	-0.598
Mof_O 	O 	0.4957	0.3034	0.0759	-0.476
Mof_O 	O 	0.76169	0.83953	0.83182	-0.431
Mof_O 	O 	0.90261	0.86603	0.03344	-0.593
Mof_O 	O 	0.0802	0.7725	0.0759	-0.471
Mof_O 	O 	0.57013	0.99229	0.83182	-0.429
Mof_O 	O 	0.33259	0.86917	0.46656	-0.601
Mof_O 	O 	0.1966	0.0043	0.4241	-0.48
Mof_O 	O 	0.66047	0.73831	0.66818	-0.43
Mof_O 	O 	0.63397	0.59739	0.46656	-0.602
Mof_O 	O 	0.7275	0.4198	0.4241	-0.478
Mof_O 	O 	0.50771	0.92987	0.66818	-0.429
Mof_O 	O 	0.36917	0.83259	0.96656	-0.598
Mof_O 	O 	0.5043	0.6966	0.9241	-0.476
Mof_O 	O 	0.23831	0.16047	0.16818	-0.431
Mof_O 	O 	0.09739	0.13397	0.96656	-0.593
Mof_O 	O 	0.9198	0.2275	0.9241	-0.471
Mof_O 	O 	0.42987	0.00771	0.16818	-0.429
Mof_O 	O 	0.66741	0.13083	0.53344	-0.601
Mof_O 	O 	0.8034	0.9957	0.5759	-0.48
Mof_O 	O 	0.33953	0.26169	0.33182	-0.43
Mof_O 	O 	0.36603	0.40261	0.53344	-0.602
Mof_O 	O 	0.2725	0.5802	0.5759	-0.478
Mof_O 	O 	0.49229	0.07013	0.33182	-0.429
_end
