data_functionalizedCrystal
_audit_creation_method	'EQeq! by Chris Wilmer'
_symmetry_space_group_name_H-M	'P1'
_symmetry_Int_Tables_number	1
_symmetry_cell_setting	triclinic
loop_
_symmetry_equiv_pos_as_xyz
  x,y,z
_cell_length_a	19.265
_cell_length_b	19.265
_cell_length_c	15.913
_cell_angle_alpha	90
_cell_angle_beta	90
_cell_angle_gamma	90
loop_
_atom_site_label
_atom_site_type_symbol
_atom_site_fract_x
_atom_site_fract_y
_atom_site_fract_z
_atom_site_charge
Mof_N 	N 	0.7037	0.3135	0.5574	-0.12
Mof_O 	O 	0.5962	0.2399	0.8214	-0.392
Mof_O 	O 	0.545	0.3142	0.7382	-0.298
Mof_C 	C 	0.5953	0.2783	0.7581	0.33
Mof_C 	C 	0.6594	0.279	0.7031	-0.061
Mof_C 	C 	0.6444	0.3161	0.6209	0.085
Mof_C 	C 	0.7198	0.2401	0.5306	0.052
Mof_C 	C 	0.6797	0.3525	0.483	0.049
Mof_C 	C 	0.7686	0.3454	0.5897	0.045
Mof_N 	N 	0.2037	0.8135	0.0574	-0.119
Mof_O 	O 	0.0962	0.7399	0.3214	-0.404
Mof_O 	O 	0.045	0.8142	0.2382	-0.334
Mof_C 	C 	0.0953	0.7783	0.2581	0.333
Mof_C 	C 	0.1594	0.779	0.2031	-0.063
Mof_C 	C 	0.1444	0.8161	0.1209	0.073
Mof_C 	C 	0.2198	0.7401	0.0306	0.051
Mof_C 	C 	0.1797	0.8525	0.983	0.042
Mof_C 	C 	0.2686	0.8454	0.0897	0.046
Mof_N 	N 	0.7963	0.6865	0.0574	-0.122
Mof_O 	O 	0.9038	0.7601	0.3214	-0.372
Mof_O 	O 	0.955	0.6858	0.2382	-0.257
Mof_C 	C 	0.9047	0.7217	0.2581	0.326
Mof_C 	C 	0.8406	0.721	0.2031	-0.059
Mof_C 	C 	0.8556	0.6839	0.1209	0.097
Mof_C 	C 	0.7802	0.7599	0.0306	0.054
Mof_C 	C 	0.8203	0.6475	0.983	0.055
Mof_C 	C 	0.7314	0.6546	0.0897	0.047
Mof_N 	N 	0.2963	0.1865	0.5574	-0.12
Mof_O 	O 	0.4038	0.2601	0.8214	-0.392
Mof_O 	O 	0.455	0.1858	0.7382	-0.298
Mof_C 	C 	0.4047	0.2217	0.7581	0.33
Mof_C 	C 	0.3406	0.221	0.7031	-0.061
Mof_C 	C 	0.3556	0.1839	0.6209	0.085
Mof_C 	C 	0.2802	0.2599	0.5306	0.052
Mof_C 	C 	0.3203	0.1475	0.483	0.049
Mof_C 	C 	0.2314	0.1546	0.5897	0.047
Mof_N 	N 	0.9365	0.4537	0.8074	-0.094
Mof_O 	O 	0.0101	0.3462	0.0714	-0.481
Mof_O 	O 	0.9358	0.295	0.9882	-0.303
Mof_C 	C 	0.9717	0.3453	0.0081	0.429
Mof_C 	C 	0.971	0.4094	0.9531	-0.043
Mof_C 	C 	0.9339	0.3944	0.8709	0.103
Mof_C 	C 	0.0099	0.4698	0.7806	-0.006
Mof_C 	C 	0.8975	0.4297	0.733	0.059
Mof_C 	C 	0.9046	0.5186	0.8397	0.061
Mof_N 	N 	0.4365	0.9537	0.3074	-0.12
Mof_O 	O 	0.5101	0.8462	0.5714	-0.392
Mof_O 	O 	0.4358	0.795	0.4882	-0.298
Mof_C 	C 	0.4717	0.8453	0.5081	0.33
Mof_C 	C 	0.471	0.9094	0.4531	-0.061
Mof_C 	C 	0.4339	0.8944	0.3709	0.085
Mof_C 	C 	0.5099	0.9698	0.2806	0.052
Mof_C 	C 	0.3975	0.9297	0.233	0.048
Mof_C 	C 	0.4046	0.0186	0.3397	0.046
Mof_N 	N 	0.5635	0.5463	0.3074	-0.12
Mof_O 	O 	0.4899	0.6538	0.5714	-0.392
Mof_O 	O 	0.5642	0.705	0.4882	-0.298
Mof_C 	C 	0.5283	0.6547	0.5081	0.33
Mof_C 	C 	0.529	0.5906	0.4531	-0.061
Mof_C 	C 	0.5661	0.6056	0.3709	0.085
Mof_C 	C 	0.4901	0.5302	0.2806	0.052
Mof_C 	C 	0.6025	0.5703	0.233	0.049
Mof_C 	C 	0.5954	0.4814	0.3397	0.046
Mof_N 	N 	0.0635	0.0463	0.8074	-0.146
Mof_O 	O 	0.9899	0.1538	0.0714	-0.295
Mof_O 	O 	0.0642	0.205	0.9882	-0.288
Mof_C 	C 	0.0283	0.1547	0.0081	0.231
Mof_C 	C 	0.029	0.0906	0.9531	-0.079
Mof_C 	C 	0.0661	0.1056	0.8709	0.068
Mof_C 	C 	0.9901	0.0302	0.7806	0.111
Mof_C 	C 	0.1025	0.0703	0.733	0.039
Mof_C 	C 	0.0954	0.9814	0.8397	0.032
Mof_N 	N 	0.7963	0.3135	0.4426	-0.122
Mof_O 	O 	0.9038	0.2399	0.1786	-0.372
Mof_O 	O 	0.955	0.3142	0.2618	-0.257
Mof_C 	C 	0.9047	0.2783	0.2419	0.326
Mof_C 	C 	0.8406	0.279	0.2969	-0.059
Mof_C 	C 	0.8556	0.3161	0.3791	0.097
Mof_C 	C 	0.7802	0.2401	0.4694	0.054
Mof_C 	C 	0.8203	0.3525	0.517	0.056
Mof_C 	C 	0.7314	0.3454	0.4103	0.047
Mof_N 	N 	0.2963	0.8135	0.9426	-0.12
Mof_O 	O 	0.4038	0.7399	0.6786	-0.392
Mof_O 	O 	0.455	0.8142	0.7618	-0.298
Mof_C 	C 	0.4047	0.7783	0.7419	0.33
Mof_C 	C 	0.3406	0.779	0.7969	-0.061
Mof_C 	C 	0.3556	0.8161	0.8791	0.085
Mof_C 	C 	0.2802	0.7401	0.9694	0.052
Mof_C 	C 	0.3203	0.8525	0.017	0.049
Mof_C 	C 	0.2314	0.8454	0.9103	0.047
Mof_N 	N 	0.7037	0.6865	0.9426	-0.12
Mof_O 	O 	0.5962	0.7601	0.6786	-0.392
Mof_O 	O 	0.545	0.6858	0.7618	-0.298
Mof_C 	C 	0.5953	0.7217	0.7419	0.33
Mof_C 	C 	0.6594	0.721	0.7969	-0.061
Mof_C 	C 	0.6444	0.6839	0.8791	0.085
Mof_C 	C 	0.7198	0.7599	0.9694	0.052
Mof_C 	C 	0.6797	0.6475	0.017	0.048
Mof_C 	C 	0.7686	0.6546	0.9103	0.045
Mof_N 	N 	0.2037	0.1865	0.4426	-0.119
Mof_O 	O 	0.0962	0.2601	0.1786	-0.404
Mof_O 	O 	0.045	0.1858	0.2618	-0.334
Mof_C 	C 	0.0953	0.2217	0.2419	0.333
Mof_C 	C 	0.1594	0.221	0.2969	-0.063
Mof_C 	C 	0.1444	0.1839	0.3791	0.073
Mof_C 	C 	0.2198	0.2599	0.4694	0.051
Mof_C 	C 	0.1797	0.1475	0.517	0.042
Mof_C 	C 	0.2686	0.1546	0.4103	0.046
Mof_N 	N 	0.5635	0.4537	0.1926	-0.12
Mof_O 	O 	0.4899	0.3462	0.9286	-0.392
Mof_O 	O 	0.5642	0.295	0.0118	-0.298
Mof_C 	C 	0.5283	0.3453	0.9919	0.33
Mof_C 	C 	0.529	0.4094	0.0469	-0.061
Mof_C 	C 	0.5661	0.3944	0.1291	0.085
Mof_C 	C 	0.4901	0.4698	0.2194	0.052
Mof_C 	C 	0.6025	0.4297	0.267	0.049
Mof_C 	C 	0.5954	0.5186	0.1603	0.046
Mof_N 	N 	0.0635	0.9537	0.6926	-0.146
Mof_O 	O 	0.9899	0.8462	0.4286	-0.294
Mof_O 	O 	0.0642	0.795	0.5118	-0.288
Mof_C 	C 	0.0283	0.8453	0.4919	0.229
Mof_C 	C 	0.029	0.9094	0.5469	-0.079
Mof_C 	C 	0.0661	0.8944	0.6291	0.068
Mof_C 	C 	0.9901	0.9698	0.7194	0.111
Mof_C 	C 	0.1025	0.9297	0.767	0.039
Mof_C 	C 	0.0954	0.0186	0.6603	0.032
Mof_N 	N 	0.9365	0.5463	0.6926	-0.094
Mof_O 	O 	0.0101	0.6538	0.4286	-0.482
Mof_O 	O 	0.9358	0.705	0.5118	-0.303
Mof_C 	C 	0.9717	0.6547	0.4919	0.43
Mof_C 	C 	0.971	0.5906	0.5469	-0.042
Mof_C 	C 	0.9339	0.6056	0.6291	0.103
Mof_C 	C 	0.0099	0.5302	0.7194	-0.007
Mof_C 	C 	0.8975	0.5703	0.767	0.059
Mof_C 	C 	0.9046	0.4814	0.6603	0.061
Mof_N 	N 	0.4365	0.0463	0.1926	-0.12
Mof_O 	O 	0.5101	0.1538	0.9286	-0.392
Mof_O 	O 	0.4358	0.205	0.0118	-0.298
Mof_C 	C 	0.4717	0.1547	0.9919	0.33
Mof_C 	C 	0.471	0.0906	0.0469	-0.061
Mof_C 	C 	0.4339	0.1056	0.1291	0.085
Mof_C 	C 	0.5099	0.0302	0.2194	0.052
Mof_C 	C 	0.3975	0.0703	0.267	0.048
Mof_C 	C 	0.4046	0.9814	0.1603	0.046
Mof_Zn	Zn	0.5	0.25	0.875	1.236
Mof_Zn	Zn	1.16138e-33	0.75	0.375	1.211
Mof_Zn	Zn	-6.81435e-34	0.25	0.125	1.211
Mof_Zn	Zn	0.5	0.75	0.625	1.236
Mof_N 	N 	0.2963	0.6865	0.4426	-0.12
Mof_O 	O 	0.4038	0.7601	0.1786	-0.392
Mof_O 	O 	0.455	0.6858	0.2618	-0.298
Mof_C 	C 	0.4047	0.7217	0.2419	0.33
Mof_C 	C 	0.3406	0.721	0.2969	-0.061
Mof_C 	C 	0.3556	0.6839	0.3791	0.085
Mof_C 	C 	0.2802	0.7599	0.4694	0.052
Mof_C 	C 	0.3203	0.6475	0.517	0.049
Mof_C 	C 	0.2314	0.6546	0.4103	0.047
Mof_N 	N 	0.7963	0.1865	0.9426	-0.122
Mof_O 	O 	0.9038	0.2601	0.6786	-0.372
Mof_O 	O 	0.955	0.1858	0.7618	-0.257
Mof_C 	C 	0.9047	0.2217	0.7419	0.326
Mof_C 	C 	0.8406	0.221	0.7969	-0.059
Mof_C 	C 	0.8556	0.1839	0.8791	0.097
Mof_C 	C 	0.7802	0.2599	0.9694	0.054
Mof_C 	C 	0.8203	0.1475	0.017	0.055
Mof_C 	C 	0.7314	0.1546	0.9103	0.047
Mof_N 	N 	0.2037	0.3135	0.9426	-0.119
Mof_O 	O 	0.0962	0.2399	0.6786	-0.404
Mof_O 	O 	0.045	0.3142	0.7618	-0.334
Mof_C 	C 	0.0953	0.2783	0.7419	0.333
Mof_C 	C 	0.1594	0.279	0.7969	-0.063
Mof_C 	C 	0.1444	0.3161	0.8791	0.073
Mof_C 	C 	0.2198	0.2401	0.9694	0.051
Mof_C 	C 	0.1797	0.3525	0.017	0.042
Mof_C 	C 	0.2686	0.3454	0.9103	0.045
Mof_N 	N 	0.7037	0.8135	0.4426	-0.12
Mof_O 	O 	0.5962	0.7399	0.1786	-0.392
Mof_O 	O 	0.545	0.8142	0.2618	-0.298
Mof_C 	C 	0.5953	0.7783	0.2419	0.33
Mof_C 	C 	0.6594	0.779	0.2969	-0.061
Mof_C 	C 	0.6444	0.8161	0.3791	0.085
Mof_C 	C 	0.7198	0.7401	0.4694	0.052
Mof_C 	C 	0.6797	0.8525	0.517	0.049
Mof_C 	C 	0.7686	0.8454	0.4103	0.045
Mof_N 	N 	0.0635	0.5463	0.1926	-0.146
Mof_O 	O 	0.9899	0.6538	0.9286	-0.295
Mof_O 	O 	0.0642	0.705	0.0118	-0.288
Mof_C 	C 	0.0283	0.6547	0.9919	0.23
Mof_C 	C 	0.029	0.5906	0.0469	-0.079
Mof_C 	C 	0.0661	0.6056	0.1291	0.068
Mof_C 	C 	0.9901	0.5302	0.2194	0.112
Mof_C 	C 	0.1025	0.5703	0.267	0.039
Mof_C 	C 	0.0954	0.4814	0.1603	0.031
Mof_N 	N 	0.5635	0.0463	0.6926	-0.12
Mof_O 	O 	0.4899	0.1538	0.4286	-0.392
Mof_O 	O 	0.5642	0.205	0.5118	-0.298
Mof_C 	C 	0.5283	0.1547	0.4919	0.33
Mof_C 	C 	0.529	0.0906	0.5469	-0.061
Mof_C 	C 	0.5661	0.1056	0.6291	0.085
Mof_C 	C 	0.4901	0.0302	0.7194	0.052
Mof_C 	C 	0.6025	0.0703	0.767	0.049
Mof_C 	C 	0.5954	0.9814	0.6603	0.046
Mof_N 	N 	0.4365	0.4537	0.6926	-0.12
Mof_O 	O 	0.5101	0.3462	0.4286	-0.392
Mof_O 	O 	0.4358	0.295	0.5118	-0.298
Mof_C 	C 	0.4717	0.3453	0.4919	0.33
Mof_C 	C 	0.471	0.4094	0.5469	-0.061
Mof_C 	C 	0.4339	0.3944	0.6291	0.085
Mof_C 	C 	0.5099	0.4698	0.7194	0.052
Mof_C 	C 	0.3975	0.4297	0.767	0.048
Mof_C 	C 	0.4046	0.5186	0.6603	0.046
Mof_N 	N 	0.9365	0.9537	0.1926	-0.095
Mof_O 	O 	0.0101	0.8462	0.9286	-0.48
Mof_O 	O 	0.9358	0.795	0.0118	-0.303
Mof_C 	C 	0.9717	0.8453	0.9919	0.428
Mof_C 	C 	0.971	0.9094	0.0469	-0.043
Mof_C 	C 	0.9339	0.8944	0.1291	0.102
Mof_C 	C 	0.0099	0.9698	0.2194	-0.006
Mof_C 	C 	0.8975	0.9297	0.267	0.059
Mof_C 	C 	0.9046	0.0186	0.1603	0.06
Mof_N 	N 	0.2037	0.6865	0.5574	-0.119
Mof_O 	O 	0.0962	0.7601	0.8214	-0.404
Mof_O 	O 	0.045	0.6858	0.7382	-0.334
Mof_C 	C 	0.0953	0.7217	0.7581	0.333
Mof_C 	C 	0.1594	0.721	0.7031	-0.063
Mof_C 	C 	0.1444	0.6839	0.6209	0.073
Mof_C 	C 	0.2198	0.7599	0.5306	0.051
Mof_C 	C 	0.1797	0.6475	0.483	0.042
Mof_C 	C 	0.2686	0.6546	0.5897	0.045
Mof_N 	N 	0.7037	0.1865	0.0574	-0.12
Mof_O 	O 	0.5962	0.2601	0.3214	-0.392
Mof_O 	O 	0.545	0.1858	0.2382	-0.298
Mof_C 	C 	0.5953	0.2217	0.2581	0.33
Mof_C 	C 	0.6594	0.221	0.2031	-0.061
Mof_C 	C 	0.6444	0.1839	0.1209	0.085
Mof_C 	C 	0.7198	0.2599	0.0306	0.052
Mof_C 	C 	0.6797	0.1475	0.983	0.048
Mof_C 	C 	0.7686	0.1546	0.0897	0.045
Mof_N 	N 	0.2963	0.3135	0.0574	-0.12
Mof_O 	O 	0.4038	0.2399	0.3214	-0.392
Mof_O 	O 	0.455	0.3142	0.2382	-0.298
Mof_C 	C 	0.4047	0.2783	0.2581	0.33
Mof_C 	C 	0.3406	0.279	0.2031	-0.061
Mof_C 	C 	0.3556	0.3161	0.1209	0.085
Mof_C 	C 	0.2802	0.2401	0.0306	0.052
Mof_C 	C 	0.3203	0.3525	0.983	0.049
Mof_C 	C 	0.2314	0.3454	0.0897	0.047
Mof_N 	N 	0.7963	0.8135	0.5574	-0.122
Mof_O 	O 	0.9038	0.7399	0.8214	-0.372
Mof_O 	O 	0.955	0.8142	0.7382	-0.257
Mof_C 	C 	0.9047	0.7783	0.7581	0.326
Mof_C 	C 	0.8406	0.779	0.7031	-0.059
Mof_C 	C 	0.8556	0.8161	0.6209	0.097
Mof_C 	C 	0.7802	0.7401	0.5306	0.054
Mof_C 	C 	0.8203	0.8525	0.483	0.056
Mof_C 	C 	0.7314	0.8454	0.5897	0.047
Mof_N 	N 	0.4365	0.5463	0.8074	-0.12
Mof_O 	O 	0.5101	0.6538	0.0714	-0.392
Mof_O 	O 	0.4358	0.705	0.9882	-0.298
Mof_C 	C 	0.4717	0.6547	0.0081	0.33
Mof_C 	C 	0.471	0.5906	0.9531	-0.061
Mof_C 	C 	0.4339	0.6056	0.8709	0.085
Mof_C 	C 	0.5099	0.5302	0.7806	0.052
Mof_C 	C 	0.3975	0.5703	0.733	0.048
Mof_C 	C 	0.4046	0.4814	0.8397	0.046
Mof_N 	N 	0.9365	0.0463	0.3074	-0.094
Mof_O 	O 	0.0101	0.1538	0.5714	-0.481
Mof_O 	O 	0.9358	0.205	0.4882	-0.303
Mof_C 	C 	0.9717	0.1547	0.5081	0.43
Mof_C 	C 	0.971	0.0906	0.4531	-0.043
Mof_C 	C 	0.9339	0.1056	0.3709	0.103
Mof_C 	C 	0.0099	0.0302	0.2806	-0.006
Mof_C 	C 	0.8975	0.0703	0.233	0.059
Mof_C 	C 	0.9046	0.9814	0.3397	0.061
Mof_N 	N 	0.0635	0.4537	0.3074	-0.146
Mof_O 	O 	0.9899	0.3462	0.5714	-0.293
Mof_O 	O 	0.0642	0.295	0.4882	-0.288
Mof_C 	C 	0.0283	0.3453	0.5081	0.228
Mof_C 	C 	0.029	0.4094	0.4531	-0.08
Mof_C 	C 	0.0661	0.3944	0.3709	0.068
Mof_C 	C 	0.9901	0.4698	0.2806	0.112
Mof_C 	C 	0.1025	0.4297	0.233	0.039
Mof_C 	C 	0.0954	0.5186	0.3397	0.031
Mof_N 	N 	0.5635	0.9537	0.8074	-0.12
Mof_O 	O 	0.4899	0.8462	0.0714	-0.392
Mof_O 	O 	0.5642	0.795	0.9882	-0.298
Mof_C 	C 	0.5283	0.8453	0.0081	0.33
Mof_C 	C 	0.529	0.9094	0.9531	-0.061
Mof_C 	C 	0.5661	0.8944	0.8709	0.085
Mof_C 	C 	0.4901	0.9698	0.7806	0.052
Mof_C 	C 	0.6025	0.9297	0.733	0.049
Mof_C 	C 	0.5954	0.0186	0.8397	0.046
Mof_Zn	Zn	0.5	0.75	0.125	1.236
Mof_Zn	Zn	-6.61287e-33	0.25	0.625	1.211
Mof_Zn	Zn	2.7099e-33	0.75	0.875	1.211
Mof_Zn	Zn	0.5	0.25	0.375	1.236
_end
