# CIF file generated by openbabel 3.1.0, see https://openbabel.org
data_I
_chemical_name_common 'image0'
_cell_length_a 24.0431
_cell_length_b 9.0516
_cell_length_c 18.7594
_cell_angle_alpha 90
_cell_angle_beta 114.506
_cell_angle_gamma 90
_space_group_name_H-M_alt 'P 1'
_space_group_name_Hall 'P 1'
loop_
    _symmetry_equiv_pos_as_xyz
    x,y,z
loop_
    _atom_site_label
    _atom_site_type_symbol
    _atom_site_fract_x
    _atom_site_fract_y
    _atom_site_fract_z
    _atom_site_occupancy
    Er1      Er       0.45715    0.69334    0.50415    1.000
    Co1      Co       0.28823    0.50929    0.16219    1.000
    O1       O        0.42150    0.62740    0.37680    1.000
    O2       O        0.37680    0.53880    0.25800    1.000
    O3       O        0.39120    0.87430    0.44500    1.000
    O4       O        0.30290    0.97930    0.42560    1.000
    O5       O        0.53960    0.80440    0.48160    1.000
    O6       O        0.54680    0.56770    0.49610    1.000
    O7       O        0.61640    0.35350    0.45920    1.000
    O8       O        0.66830    0.36810    0.38730    1.000
    N1       N        0.26980    0.66220    0.23050    1.000
    N2       N        0.24150    0.83450    0.29370    1.000
    N3       N        0.64120    0.82300    0.44850    1.000
    H1       H        0.63240    0.90810    0.46130    1.000
    N4       N        0.68400    0.65470    0.40450    1.000
    C1       C        0.37590    0.61890    0.31130    1.000
    C2       C        0.31890    0.69820    0.29660    1.000
    C3       C        0.30170    0.80170    0.33640    1.000
    C4       C        0.33390    0.89060    0.40650    1.000
    C5       C        0.22480    0.74700    0.23110    1.000
    C6       C        0.16190    0.74670    0.16840    1.000
    H2       H        0.14530    0.64860    0.16220    1.000
    H3       H        0.16280    0.77830    0.12010    1.000
    H4       H        0.13680    0.81290    0.18230    1.000
    C7       C        0.56550    0.68620    0.47980    1.000
    C8       C        0.61700    0.69070    0.45680    1.000
    C9       C        0.64460    0.58800    0.43000    1.000
    C10      C        0.64190    0.42570    0.42450    1.000
    C11      C        0.68100    0.79710    0.41720    1.000
    C12      C        0.71660    0.91640    0.40020    1.000
    H5       H        0.75830    0.88510    0.41660    1.000
    H6       H        0.71540    0.00430    0.42810    1.000
    H7       H        0.69910    0.93630    0.34500    1.000
    Er2      Er       0.95715    0.19334    0.50415    1.000
    Co2      Co       0.78823    0.00929    0.16219    1.000
    O9       O        0.92150    0.12740    0.37680    1.000
    O10      O        0.87680    0.03880    0.25800    1.000
    O11      O        0.89120    0.37430    0.44500    1.000
    O12      O        0.80290    0.47930    0.42560    1.000
    O13      O        0.03960    0.30440    0.48160    1.000
    O14      O        0.04680    0.06770    0.49610    1.000
    O15      O        0.11640    0.85350    0.45920    1.000
    O16      O        0.16830    0.86810    0.38730    1.000
    N5       N        0.76980    0.16220    0.23050    1.000
    N6       N        0.74150    0.33450    0.29370    1.000
    N7       N        0.14120    0.32300    0.44850    1.000
    H8       H        0.13240    0.40810    0.46130    1.000
    N8       N        0.18400    0.15470    0.40450    1.000
    C13      C        0.87590    0.11890    0.31130    1.000
    C14      C        0.81890    0.19820    0.29660    1.000
    C15      C        0.80170    0.30170    0.33640    1.000
    C16      C        0.83390    0.39060    0.40650    1.000
    C17      C        0.72480    0.24700    0.23110    1.000
    C18      C        0.66190    0.24670    0.16840    1.000
    H9       H        0.64530    0.14860    0.16220    1.000
    H10      H        0.66280    0.27830    0.12010    1.000
    H11      H        0.63680    0.31290    0.18230    1.000
    C19      C        0.06550    0.18620    0.47980    1.000
    C20      C        0.11700    0.19070    0.45680    1.000
    C21      C        0.14460    0.08800    0.43000    1.000
    C22      C        0.14190    0.92570    0.42450    1.000
    C23      C        0.18100    0.29710    0.41720    1.000
    C24      C        0.21660    0.41640    0.40020    1.000
    H12      H        0.25830    0.38510    0.41660    1.000
    H13      H        0.21540    0.50430    0.42810    1.000
    H14      H        0.19910    0.43630    0.34500    1.000
    Er3      Er       0.54285    0.69334    0.99585    1.000
    Co3      Co       0.71177    0.50929    0.33781    1.000
    O17      O        0.57850    0.62740    0.12320    1.000
    O18      O        0.62320    0.53880    0.24200    1.000
    O19      O        0.60880    0.87430    0.05500    1.000
    O20      O        0.69710    0.97930    0.07440    1.000
    O21      O        0.46040    0.80440    0.01840    1.000
    O22      O        0.45320    0.56770    0.00390    1.000
    O23      O        0.38360    0.35350    0.04080    1.000
    O24      O        0.33170    0.36810    0.11270    1.000
    N9       N        0.73020    0.66220    0.26950    1.000
    N10      N        0.75850    0.83450    0.20630    1.000
    N11      N        0.35880    0.82300    0.05150    1.000
    H15      H        0.36760    0.90810    0.03870    1.000
    N12      N        0.31600    0.65470    0.09550    1.000
    C25      C        0.62410    0.61890    0.18870    1.000
    C26      C        0.68110    0.69820    0.20340    1.000
    C27      C        0.69830    0.80170    0.16360    1.000
    C28      C        0.66610    0.89060    0.09350    1.000
    C29      C        0.77520    0.74700    0.26890    1.000
    C30      C        0.83810    0.74670    0.33160    1.000
    H16      H        0.85470    0.64860    0.33780    1.000
    H17      H        0.83720    0.77830    0.37990    1.000
    H18      H        0.86320    0.81290    0.31770    1.000
    C31      C        0.43450    0.68620    0.02020    1.000
    C32      C        0.38300    0.69070    0.04320    1.000
    C33      C        0.35540    0.58800    0.07000    1.000
    C34      C        0.35810    0.42570    0.07550    1.000
    C35      C        0.31900    0.79710    0.08280    1.000
    C36      C        0.28340    0.91640    0.09980    1.000
    H19      H        0.24170    0.88510    0.08340    1.000
    H20      H        0.28460    0.00430    0.07190    1.000
    H21      H        0.30090    0.93630    0.15500    1.000
    Er4      Er       0.04285    0.19334    0.99585    1.000
    Co4      Co       0.21177    0.00929    0.33781    1.000
    O25      O        0.07850    0.12740    0.12320    1.000
    O26      O        0.12320    0.03880    0.24200    1.000
    O27      O        0.10880    0.37430    0.05500    1.000
    O28      O        0.19710    0.47930    0.07440    1.000
    O29      O        0.96040    0.30440    0.01840    1.000
    O30      O        0.95320    0.06770    0.00390    1.000
    O31      O        0.88360    0.85350    0.04080    1.000
    O32      O        0.83170    0.86810    0.11270    1.000
    N13      N        0.23020    0.16220    0.26950    1.000
    N14      N        0.25850    0.33450    0.20630    1.000
    N15      N        0.85880    0.32300    0.05150    1.000
    H22      H        0.86760    0.40810    0.03870    1.000
    N16      N        0.81600    0.15470    0.09550    1.000
    C37      C        0.12410    0.11890    0.18870    1.000
    C38      C        0.18110    0.19820    0.20340    1.000
    C39      C        0.19830    0.30170    0.16360    1.000
    C40      C        0.16610    0.39060    0.09350    1.000
    C41      C        0.27520    0.24700    0.26890    1.000
    C42      C        0.33810    0.24670    0.33160    1.000
    H23      H        0.35470    0.14860    0.33780    1.000
    H24      H        0.33720    0.27830    0.37990    1.000
    H25      H        0.36320    0.31290    0.31770    1.000
    C43      C        0.93450    0.18620    0.02020    1.000
    C44      C        0.88300    0.19070    0.04320    1.000
    C45      C        0.85540    0.08800    0.07000    1.000
    C46      C        0.85810    0.92570    0.07550    1.000
    C47      C        0.81900    0.29710    0.08280    1.000
    C48      C        0.78340    0.41640    0.09980    1.000
    H26      H        0.74170    0.38510    0.08340    1.000
    H27      H        0.78460    0.50430    0.07190    1.000
    H28      H        0.80090    0.43630    0.15500    1.000
    Er5      Er       0.54285    0.30666    0.49585    1.000
    Co5      Co       0.71177    0.49071    0.83781    1.000
    O33      O        0.57850    0.37260    0.62320    1.000
    O34      O        0.62320    0.46120    0.74200    1.000
    O35      O        0.60880    0.12570    0.55500    1.000
    O36      O        0.69710    0.02070    0.57440    1.000
    O37      O        0.46040    0.19560    0.51840    1.000
    O38      O        0.45320    0.43230    0.50390    1.000
    O39      O        0.38360    0.64650    0.54080    1.000
    O40      O        0.33170    0.63190    0.61270    1.000
    N17      N        0.73020    0.33780    0.76950    1.000
    N18      N        0.75850    0.16550    0.70630    1.000
    N19      N        0.35880    0.17700    0.55150    1.000
    H29      H        0.36760    0.09190    0.53870    1.000
    N20      N        0.31600    0.34530    0.59550    1.000
    C49      C        0.62410    0.38110    0.68870    1.000
    C50      C        0.68110    0.30180    0.70340    1.000
    C51      C        0.69830    0.19830    0.66360    1.000
    C52      C        0.66610    0.10940    0.59350    1.000
    C53      C        0.77520    0.25300    0.76890    1.000
    C54      C        0.83810    0.25330    0.83160    1.000
    H30      H        0.85470    0.35140    0.83780    1.000
    H31      H        0.83720    0.22170    0.87990    1.000
    H32      H        0.86320    0.18710    0.81770    1.000
    C55      C        0.43450    0.31380    0.52020    1.000
    C56      C        0.38300    0.30930    0.54320    1.000
    C57      C        0.35540    0.41200    0.57000    1.000
    C58      C        0.35810    0.57430    0.57550    1.000
    C59      C        0.31900    0.20290    0.58280    1.000
    C60      C        0.28340    0.08360    0.59980    1.000
    H33      H        0.24170    0.11490    0.58340    1.000
    H34      H        0.28460    0.99570    0.57190    1.000
    H35      H        0.30090    0.06370    0.65500    1.000
    Er6      Er       0.04285    0.80666    0.49585    1.000
    Co6      Co       0.21177    0.99071    0.83781    1.000
    O41      O        0.07850    0.87260    0.62320    1.000
    O42      O        0.12320    0.96120    0.74200    1.000
    O43      O        0.10880    0.62570    0.55500    1.000
    O44      O        0.19710    0.52070    0.57440    1.000
    O45      O        0.96040    0.69560    0.51840    1.000
    O46      O        0.95320    0.93230    0.50390    1.000
    O47      O        0.88360    0.14650    0.54080    1.000
    O48      O        0.83170    0.13190    0.61270    1.000
    N21      N        0.23020    0.83780    0.76950    1.000
    N22      N        0.25850    0.66550    0.70630    1.000
    N23      N        0.85880    0.67700    0.55150    1.000
    H36      H        0.86760    0.59190    0.53870    1.000
    N24      N        0.81600    0.84530    0.59550    1.000
    C61      C        0.12410    0.88110    0.68870    1.000
    C62      C        0.18110    0.80180    0.70340    1.000
    C63      C        0.19830    0.69830    0.66360    1.000
    C64      C        0.16610    0.60940    0.59350    1.000
    C65      C        0.27520    0.75300    0.76890    1.000
    C66      C        0.33810    0.75330    0.83160    1.000
    H37      H        0.35470    0.85140    0.83780    1.000
    H38      H        0.33720    0.72170    0.87990    1.000
    H39      H        0.36320    0.68710    0.81770    1.000
    C67      C        0.93450    0.81380    0.52020    1.000
    C68      C        0.88300    0.80930    0.54320    1.000
    C69      C        0.85540    0.91200    0.57000    1.000
    C70      C        0.85810    0.07430    0.57550    1.000
    C71      C        0.81900    0.70290    0.58280    1.000
    C72      C        0.78340    0.58360    0.59980    1.000
    H40      H        0.74170    0.61490    0.58340    1.000
    H41      H        0.78460    0.49570    0.57190    1.000
    H42      H        0.80090    0.56370    0.65500    1.000
    Er7      Er       0.45715    0.30666    0.00415    1.000
    Co7      Co       0.28823    0.49071    0.66219    1.000
    O49      O        0.42150    0.37260    0.87680    1.000
    O50      O        0.37680    0.46120    0.75800    1.000
    O51      O        0.39120    0.12570    0.94500    1.000
    O52      O        0.30290    0.02070    0.92560    1.000
    O53      O        0.53960    0.19560    0.98160    1.000
    O54      O        0.54680    0.43230    0.99610    1.000
    O55      O        0.61640    0.64650    0.95920    1.000
    O56      O        0.66830    0.63190    0.88730    1.000
    N25      N        0.26980    0.33780    0.73050    1.000
    N26      N        0.24150    0.16550    0.79370    1.000
    N27      N        0.64120    0.17700    0.94850    1.000
    H43      H        0.63240    0.09190    0.96130    1.000
    N28      N        0.68400    0.34530    0.90450    1.000
    C73      C        0.37590    0.38110    0.81130    1.000
    C74      C        0.31890    0.30180    0.79660    1.000
    C75      C        0.30170    0.19830    0.83640    1.000
    C76      C        0.33390    0.10940    0.90650    1.000
    C77      C        0.22480    0.25300    0.73110    1.000
    C78      C        0.16190    0.25330    0.66840    1.000
    H44      H        0.14530    0.35140    0.66220    1.000
    H45      H        0.16280    0.22170    0.62010    1.000
    H46      H        0.13680    0.18710    0.68230    1.000
    C79      C        0.56550    0.31380    0.97980    1.000
    C80      C        0.61700    0.30930    0.95680    1.000
    C81      C        0.64460    0.41200    0.93000    1.000
    C82      C        0.64190    0.57430    0.92450    1.000
    C83      C        0.68100    0.20290    0.91720    1.000
    C84      C        0.71660    0.08360    0.90020    1.000
    H47      H        0.75830    0.11490    0.91660    1.000
    H48      H        0.71540    0.99570    0.92810    1.000
    H49      H        0.69910    0.06370    0.84500    1.000
    Er8      Er       0.95715    0.80666    0.00415    1.000
    Co8      Co       0.78823    0.99071    0.66219    1.000
    O57      O        0.92150    0.87260    0.87680    1.000
    O58      O        0.87680    0.96120    0.75800    1.000
    O59      O        0.89120    0.62570    0.94500    1.000
    O60      O        0.80290    0.52070    0.92560    1.000
    O61      O        0.03960    0.69560    0.98160    1.000
    O62      O        0.04680    0.93230    0.99610    1.000
    O63      O        0.11640    0.14650    0.95920    1.000
    O64      O        0.16830    0.13190    0.88730    1.000
    N29      N        0.76980    0.83780    0.73050    1.000
    N30      N        0.74150    0.66550    0.79370    1.000
    N31      N        0.14120    0.67700    0.94850    1.000
    H50      H        0.13240    0.59190    0.96130    1.000
    N32      N        0.18400    0.84530    0.90450    1.000
    C85      C        0.87590    0.88110    0.81130    1.000
    C86      C        0.81890    0.80180    0.79660    1.000
    C87      C        0.80170    0.69830    0.83640    1.000
    C88      C        0.83390    0.60940    0.90650    1.000
    C89      C        0.72480    0.75300    0.73110    1.000
    C90      C        0.66190    0.75330    0.66840    1.000
    H51      H        0.64530    0.85140    0.66220    1.000
    H52      H        0.66280    0.72170    0.62010    1.000
    H53      H        0.63680    0.68710    0.68230    1.000
    C91      C        0.06550    0.81380    0.97980    1.000
    C92      C        0.11700    0.80930    0.95680    1.000
    C93      C        0.14460    0.91200    0.93000    1.000
    C94      C        0.14190    0.07430    0.92450    1.000
    C95      C        0.18100    0.70290    0.91720    1.000
    C96      C        0.21660    0.58360    0.90020    1.000
    H54      H        0.25830    0.61490    0.91660    1.000
    H55      H        0.21540    0.49570    0.92810    1.000
    H56      H        0.19910    0.56370    0.84500    1.000
