data_functionalizedCrystal
_audit_creation_method	'EQeq! by Chris Wilmer'
_symmetry_space_group_name_H-M	'P1'
_symmetry_Int_Tables_number	1
_symmetry_cell_setting	triclinic
loop_
_symmetry_equiv_pos_as_xyz
  x,y,z
_cell_length_a	35.2839
_cell_length_b	15.1592
_cell_length_c	30.6904
_cell_angle_alpha	90
_cell_angle_beta	102.222
_cell_angle_gamma	90
loop_
_atom_site_label
_atom_site_type_symbol
_atom_site_fract_x
_atom_site_fract_y
_atom_site_fract_z
_atom_site_charge
Mof_I 	I 	0.024	0.3535	0.13801	-0.35
Mof_I 	I 	0.74293	0.72234	0.31375	-0.379
Mof_I 	I 	0.63609	0.67692	0.20766	-0.392
Mof_I 	I 	0.11335	0.26232	0.06256	-0.378
Mof_I 	I 	0.39677	0.27072	0.40304	-0.382
Mof_I 	I 	0.35444	0.41561	0.51082	-0.369
Mof_Zn	Zn	0.07791	0.38028	0.09608	1.164
Mof_Zn	Zn	0.67982	0.64056	0.28314	1.162
Mof_Zn	Zn	0.37568	0.41014	0.43697	1.164
Mof_N 	N 	0.56292	0.0221	0.54892	-0.277
Mof_N 	N 	0.19017	0.0064	0.2825	-0.283
Mof_N 	N 	0.42052	0.4986	0.44	-0.275
Mof_N 	N 	0.18222	0.6832	0.2484	-0.133
Mof_N 	N 	0.33322	0.4717	0.3908	-0.278
Mof_N 	N 	0.11788	0.4525	0.1413	-0.276
Mof_N 	N 	0.52028	0.737	0.47046	-0.147
Mof_N 	N 	0.21936	0.5555	0.2718	-0.141
Mof_N 	N 	0.64498	0.6579	0.3287	-0.276
Mof_N 	N 	0.57349	0.7828	0.43976	-0.135
Mof_N 	N 	0.53745	0.6551	0.41146	-0.133
Mof_C 	C 	0.19011	0.598	0.2457	0.097
Mof_N 	N 	0.23802	0.693	0.3071	-0.139
Mof_C 	C 	0.16516	0.547	0.2095	0.074
Mof_C 	C 	0.24208	0.6058	0.3025	0.083
Mof_C 	C 	0.27399	0.5601	0.3335	0.06
Mof_C 	C 	0.54889	0.7929	0.4668	0.089
Mof_C 	C 	0.2216	0.9696	0.306	0.094
Mof_H 	H 	0.24	0.0057	0.3236	-0.021
Mof_C 	C 	0.20784	0.7276	0.279	0.097
Mof_C 	C 	0.56663	0.7113	0.4132	0.103
Mof_C 	C 	0.2286	0.8805	0.3058	-0.149
Mof_H 	H 	0.2514	0.8576	0.3228	0.09
Mof_C 	C 	0.48231	0.6116	0.4408	0.061
Mof_C 	C 	0.55318	0.8727	0.4951	0.061
Mof_C 	C 	0.164	0.9533	0.2576	0.081
Mof_H 	H 	0.1415	0.9783	0.2409	-0.019
Mof_C 	C 	0.51525	0.6715	0.4411	0.087
Mof_C 	C 	0.53375	0.9654	0.5494	0.077
Mof_H 	H 	0.517	0.9766	0.5683	-0.012
Mof_C 	C 	0.172	0.4589	0.2024	-0.142
Mof_H 	H 	0.1927	0.4298	0.2205	0.085
Mof_C 	C 	0.59367	0.694	0.3835	0.07
Mof_C 	C 	0.3096	0.4293	0.3575	0.081
Mof_H 	H 	0.3135	0.3693	0.354	-0.006
Mof_C 	C 	0.5277	0.8911	0.5228	-0.13
Mof_H 	H 	0.5069	0.8538	0.5235	0.08
Mof_C 	C 	0.2986	0.6047	0.367	-0.133
Mof_H 	H 	0.2961	0.6652	0.3707	0.094
Mof_C 	C 	0.148	0.4149	0.1684	0.083
Mof_H 	H 	0.1531	0.3558	0.164	-0.013
Mof_C 	C 	0.2014	0.825	0.2805	0.076
Mof_C 	C 	0.6551	0.7114	0.3638	0.078
Mof_H 	H 	0.6797	0.7363	0.3696	-0.012
Mof_C 	C 	0.4384	0.538	0.4775	0.086
Mof_H 	H 	0.4299	0.5263	0.5036	-0.011
Mof_C 	C 	0.6303	0.7313	0.3918	-0.126
Mof_H 	H 	0.6381	0.7691	0.4159	0.09
Mof_C 	C 	0.1118	0.5373	0.1481	0.093
Mof_H 	H 	0.091	0.565	0.1295	-0.01
Mof_C 	C 	0.5863	0.0059	0.5212	0.076
Mof_H 	H 	0.606	0.0458	0.5199	-0.016
Mof_C 	C 	0.5829	0.6378	0.3466	-0.127
Mof_H 	H 	0.5585	0.6115	0.3402	0.089
Mof_C 	C 	0.3275	0.5571	0.3951	0.083
Mof_H 	H 	0.3438	0.587	0.4182	-0.005
Mof_C 	C 	0.6093	0.6225	0.3203	0.079
Mof_H 	H 	0.602	0.586	0.2955	-0.019
Mof_C 	C 	0.5825	0.9318	0.494	-0.13
Mof_H 	H 	0.5997	0.9223	0.4753	0.088
Mof_C 	C 	0.1687	0.8631	0.2554	-0.141
Mof_H 	H 	0.1499	0.8287	0.2372	0.092
Mof_C 	C 	0.2799	0.4702	0.3283	-0.138
Mof_H 	H 	0.2641	0.4385	0.3056	0.096
Mof_C 	C 	0.1346	0.5863	0.181	-0.143
Mof_H 	H 	0.1294	0.6459	0.184	0.104
Mof_C 	C 	0.4691	0.5952	0.4793	-0.136
Mof_H 	H 	0.4806	0.6225	0.5059	0.086
Mof_C 	C 	0.4327	0.5172	0.402	0.079
Mof_H 	H 	0.4197	0.4919	0.3754	-0.016
Mof_C 	C 	0.4634	0.572	0.4014	-0.134
Mof_H 	H 	0.4714	0.5825	0.3749	0.091
Mof_I 	I 	0.524	0.8535	0.13801	-0.349
Mof_I 	I 	0.24293	0.22234	0.31375	-0.378
Mof_I 	I 	0.13609	0.17692	0.20766	-0.391
Mof_I 	I 	0.61335	0.76232	0.06256	-0.377
Mof_I 	I 	0.89677	0.77072	0.40304	-0.381
Mof_I 	I 	0.85444	0.91561	0.51082	-0.368
Mof_Zn	Zn	0.57791	0.88028	0.09608	1.165
Mof_Zn	Zn	0.17982	0.14056	0.28314	1.163
Mof_Zn	Zn	0.87568	0.91014	0.43697	1.165
Mof_N 	N 	0.06292	0.5221	0.54892	-0.276
Mof_N 	N 	0.69017	0.5064	0.2825	-0.282
Mof_N 	N 	0.92052	0.9986	0.44	-0.274
Mof_N 	N 	0.68222	0.1832	0.2484	-0.133
Mof_N 	N 	0.83322	0.9717	0.3908	-0.278
Mof_N 	N 	0.61788	0.9525	0.1413	-0.276
Mof_N 	N 	0.02028	0.237	0.47046	-0.147
Mof_N 	N 	0.71936	0.0555	0.2718	-0.141
Mof_N 	N 	0.14498	0.1579	0.3287	-0.276
Mof_N 	N 	0.07349	0.2828	0.43976	-0.135
Mof_N 	N 	0.03745	0.1551	0.41146	-0.133
Mof_C 	C 	0.69011	0.098	0.2457	0.097
Mof_N 	N 	0.73802	0.193	0.3071	-0.139
Mof_C 	C 	0.66516	0.047	0.2095	0.074
Mof_C 	C 	0.74208	0.1058	0.3025	0.083
Mof_C 	C 	0.77399	0.0601	0.3335	0.06
Mof_C 	C 	0.04889	0.2929	0.4668	0.089
Mof_C 	C 	0.7216	0.4696	0.306	0.095
Mof_H 	H 	0.74	0.5057	0.3236	-0.021
Mof_C 	C 	0.70784	0.2276	0.279	0.097
Mof_C 	C 	0.06663	0.2113	0.4132	0.103
Mof_C 	C 	0.7286	0.3805	0.3058	-0.15
Mof_H 	H 	0.7514	0.3576	0.3228	0.09
Mof_C 	C 	0.98231	0.1116	0.4408	0.061
Mof_C 	C 	0.05318	0.3727	0.4951	0.061
Mof_C 	C 	0.664	0.4533	0.2576	0.081
Mof_H 	H 	0.6415	0.4783	0.2409	-0.019
Mof_C 	C 	0.01525	0.1715	0.4411	0.087
Mof_C 	C 	0.03375	0.4654	0.5494	0.077
Mof_H 	H 	0.017	0.4766	0.5683	-0.012
Mof_C 	C 	0.672	0.9589	0.2024	-0.143
Mof_H 	H 	0.6927	0.9298	0.2205	0.086
Mof_C 	C 	0.09367	0.194	0.3835	0.07
Mof_C 	C 	0.8096	0.9293	0.3575	0.081
Mof_H 	H 	0.8135	0.8693	0.354	-0.006
Mof_C 	C 	0.0277	0.3911	0.5228	-0.13
Mof_H 	H 	0.0069	0.3538	0.5235	0.08
Mof_C 	C 	0.7986	0.1047	0.367	-0.133
Mof_H 	H 	0.7961	0.1652	0.3707	0.094
Mof_C 	C 	0.648	0.9149	0.1684	0.083
Mof_H 	H 	0.6531	0.8558	0.164	-0.013
Mof_C 	C 	0.7014	0.325	0.2805	0.076
Mof_C 	C 	0.1551	0.2114	0.3638	0.078
Mof_H 	H 	0.1797	0.2363	0.3696	-0.012
Mof_C 	C 	0.9384	0.038	0.4775	0.086
Mof_H 	H 	0.9299	0.0263	0.5036	-0.011
Mof_C 	C 	0.1303	0.2313	0.3918	-0.126
Mof_H 	H 	0.1381	0.2691	0.4159	0.09
Mof_C 	C 	0.6118	0.0373	0.1481	0.093
Mof_H 	H 	0.591	0.065	0.1295	-0.01
Mof_C 	C 	0.0863	0.5059	0.5212	0.076
Mof_H 	H 	0.106	0.5458	0.5199	-0.016
Mof_C 	C 	0.0829	0.1378	0.3466	-0.127
Mof_H 	H 	0.0585	0.1115	0.3402	0.089
Mof_C 	C 	0.8275	0.0571	0.3951	0.083
Mof_H 	H 	0.8438	0.087	0.4182	-0.005
Mof_C 	C 	0.1093	0.1225	0.3203	0.079
Mof_H 	H 	0.102	0.086	0.2955	-0.019
Mof_C 	C 	0.0825	0.4318	0.494	-0.13
Mof_H 	H 	0.0997	0.4223	0.4753	0.088
Mof_C 	C 	0.6687	0.3631	0.2554	-0.141
Mof_H 	H 	0.6499	0.3287	0.2372	0.092
Mof_C 	C 	0.7799	0.9702	0.3283	-0.139
Mof_H 	H 	0.7641	0.9385	0.3056	0.096
Mof_C 	C 	0.6346	0.0863	0.181	-0.143
Mof_H 	H 	0.6294	0.1459	0.184	0.104
Mof_C 	C 	0.9691	0.0952	0.4793	-0.136
Mof_H 	H 	0.9806	0.1225	0.5059	0.086
Mof_C 	C 	0.9327	0.0172	0.402	0.079
Mof_H 	H 	0.9197	0.9919	0.3754	-0.016
Mof_C 	C 	0.9634	0.072	0.4014	-0.135
Mof_H 	H 	0.9714	0.0825	0.3749	0.091
Mof_I 	I 	0.024	0.6465	0.63801	-0.349
Mof_I 	I 	0.74293	0.27766	0.81375	-0.378
Mof_I 	I 	0.63609	0.32308	0.70766	-0.391
Mof_I 	I 	0.11335	0.73768	0.56256	-0.377
Mof_I 	I 	0.39677	0.72928	0.90304	-0.381
Mof_I 	I 	0.35444	0.58439	0.01082	-0.368
Mof_Zn	Zn	0.07791	0.61972	0.59608	1.165
Mof_Zn	Zn	0.67982	0.35944	0.78314	1.163
Mof_Zn	Zn	0.37568	0.58986	0.93697	1.165
Mof_N 	N 	0.56292	0.9779	0.04892	-0.277
Mof_N 	N 	0.19017	0.9936	0.7825	-0.282
Mof_N 	N 	0.42052	0.5014	0.94	-0.274
Mof_N 	N 	0.18222	0.3168	0.7484	-0.133
Mof_N 	N 	0.33322	0.5283	0.8908	-0.278
Mof_N 	N 	0.11788	0.5475	0.6413	-0.276
Mof_N 	N 	0.52028	0.263	0.97046	-0.147
Mof_N 	N 	0.21936	0.4445	0.7718	-0.141
Mof_N 	N 	0.64498	0.3421	0.8287	-0.276
Mof_N 	N 	0.57349	0.2172	0.93976	-0.135
Mof_N 	N 	0.53745	0.3449	0.91146	-0.133
Mof_C 	C 	0.19011	0.402	0.7457	0.097
Mof_N 	N 	0.23802	0.307	0.8071	-0.139
Mof_C 	C 	0.16516	0.453	0.7095	0.074
Mof_C 	C 	0.24208	0.3942	0.8025	0.083
Mof_C 	C 	0.27399	0.4399	0.8335	0.06
Mof_C 	C 	0.54889	0.2071	0.9668	0.089
Mof_C 	C 	0.2216	0.0304	0.806	0.094
Mof_H 	H 	0.24	0.9943	0.8236	-0.021
Mof_C 	C 	0.20784	0.2724	0.779	0.097
Mof_C 	C 	0.56663	0.2887	0.9132	0.103
Mof_C 	C 	0.2286	0.1195	0.8058	-0.149
Mof_H 	H 	0.2514	0.1424	0.8228	0.09
Mof_C 	C 	0.48231	0.3884	0.9408	0.061
Mof_C 	C 	0.55318	0.1273	0.9951	0.06
Mof_C 	C 	0.164	0.0467	0.7576	0.081
Mof_H 	H 	0.1415	0.0217	0.7409	-0.019
Mof_C 	C 	0.51525	0.3285	0.9411	0.087
Mof_C 	C 	0.53375	0.0346	0.0494	0.077
Mof_H 	H 	0.517	0.0234	0.0683	-0.012
Mof_C 	C 	0.172	0.5411	0.7024	-0.142
Mof_H 	H 	0.1927	0.5702	0.7205	0.085
Mof_C 	C 	0.59367	0.306	0.8835	0.07
Mof_C 	C 	0.3096	0.5707	0.8575	0.081
Mof_H 	H 	0.3135	0.6307	0.854	-0.006
Mof_C 	C 	0.5277	0.1089	0.0228	-0.129
Mof_H 	H 	0.5069	0.1462	0.0235	0.08
Mof_C 	C 	0.2986	0.3953	0.867	-0.133
Mof_H 	H 	0.2961	0.3348	0.8707	0.094
Mof_C 	C 	0.148	0.5851	0.6684	0.083
Mof_H 	H 	0.1531	0.6442	0.664	-0.013
Mof_C 	C 	0.2014	0.175	0.7805	0.075
Mof_C 	C 	0.6551	0.2886	0.8638	0.078
Mof_H 	H 	0.6797	0.2637	0.8696	-0.012
Mof_C 	C 	0.4384	0.462	0.9775	0.086
Mof_H 	H 	0.4299	0.4737	0.0036	-0.011
Mof_C 	C 	0.6303	0.2687	0.8918	-0.126
Mof_H 	H 	0.6381	0.2309	0.9159	0.09
Mof_C 	C 	0.1118	0.4627	0.6481	0.093
Mof_H 	H 	0.091	0.435	0.6295	-0.01
Mof_C 	C 	0.5863	0.9941	0.0212	0.076
Mof_H 	H 	0.606	0.9542	0.0199	-0.016
Mof_C 	C 	0.5829	0.3622	0.8466	-0.127
Mof_H 	H 	0.5585	0.3885	0.8402	0.089
Mof_C 	C 	0.3275	0.4429	0.8951	0.083
Mof_H 	H 	0.3438	0.413	0.9182	-0.005
Mof_C 	C 	0.6093	0.3775	0.8203	0.079
Mof_H 	H 	0.602	0.414	0.7955	-0.019
Mof_C 	C 	0.5825	0.0682	0.994	-0.13
Mof_H 	H 	0.5997	0.0777	0.9753	0.088
Mof_C 	C 	0.1687	0.1369	0.7554	-0.141
Mof_H 	H 	0.1499	0.1713	0.7372	0.092
Mof_C 	C 	0.2799	0.5298	0.8283	-0.138
Mof_H 	H 	0.2641	0.5615	0.8056	0.096
Mof_C 	C 	0.1346	0.4137	0.681	-0.143
Mof_H 	H 	0.1294	0.3541	0.684	0.104
Mof_C 	C 	0.4691	0.4048	0.9793	-0.137
Mof_H 	H 	0.4806	0.3775	0.0059	0.086
Mof_C 	C 	0.4327	0.4828	0.902	0.079
Mof_H 	H 	0.4197	0.5081	0.8754	-0.016
Mof_C 	C 	0.4634	0.428	0.9014	-0.134
Mof_H 	H 	0.4714	0.4175	0.8749	0.091
Mof_I 	I 	0.524	0.1465	0.63801	-0.349
Mof_I 	I 	0.24293	0.77766	0.81375	-0.378
Mof_I 	I 	0.13609	0.82308	0.70766	-0.391
Mof_I 	I 	0.61335	0.23768	0.56256	-0.377
Mof_I 	I 	0.89677	0.22928	0.90304	-0.381
Mof_I 	I 	0.85444	0.08439	0.01082	-0.368
Mof_Zn	Zn	0.57791	0.11972	0.59608	1.165
Mof_Zn	Zn	0.17982	0.85944	0.78314	1.163
Mof_Zn	Zn	0.87568	0.08986	0.93697	1.165
Mof_N 	N 	0.06292	0.4779	0.04892	-0.276
Mof_N 	N 	0.69017	0.4936	0.7825	-0.282
Mof_N 	N 	0.92052	0.0014	0.94	-0.275
Mof_N 	N 	0.68222	0.8168	0.7484	-0.133
Mof_N 	N 	0.83322	0.0283	0.8908	-0.278
Mof_N 	N 	0.61788	0.0475	0.6413	-0.276
Mof_N 	N 	0.02028	0.763	0.97046	-0.147
Mof_N 	N 	0.71936	0.9445	0.7718	-0.141
Mof_N 	N 	0.14498	0.8421	0.8287	-0.276
Mof_N 	N 	0.07349	0.7172	0.93976	-0.135
Mof_N 	N 	0.03745	0.8449	0.91146	-0.133
Mof_C 	C 	0.69011	0.902	0.7457	0.097
Mof_N 	N 	0.73802	0.807	0.8071	-0.139
Mof_C 	C 	0.66516	0.953	0.7095	0.074
Mof_C 	C 	0.74208	0.8942	0.8025	0.083
Mof_C 	C 	0.77399	0.9399	0.8335	0.06
Mof_C 	C 	0.04889	0.7071	0.9668	0.089
Mof_C 	C 	0.7216	0.5304	0.806	0.095
Mof_H 	H 	0.74	0.4943	0.8236	-0.021
Mof_C 	C 	0.70784	0.7724	0.779	0.097
Mof_C 	C 	0.06663	0.7887	0.9132	0.103
Mof_C 	C 	0.7286	0.6195	0.8058	-0.15
Mof_H 	H 	0.7514	0.6424	0.8228	0.09
Mof_C 	C 	0.98231	0.8884	0.9408	0.061
Mof_C 	C 	0.05318	0.6273	0.9951	0.061
Mof_C 	C 	0.664	0.5467	0.7576	0.081
Mof_H 	H 	0.6415	0.5217	0.7409	-0.019
Mof_C 	C 	0.01525	0.8285	0.9411	0.087
Mof_C 	C 	0.03375	0.5346	0.0494	0.077
Mof_H 	H 	0.017	0.5234	0.0683	-0.012
Mof_C 	C 	0.672	0.0411	0.7024	-0.143
Mof_H 	H 	0.6927	0.0702	0.7205	0.086
Mof_C 	C 	0.09367	0.806	0.8835	0.07
Mof_C 	C 	0.8096	0.0707	0.8575	0.081
Mof_H 	H 	0.8135	0.1307	0.854	-0.006
Mof_C 	C 	0.0277	0.6089	0.0228	-0.13
Mof_H 	H 	0.0069	0.6462	0.0235	0.08
Mof_C 	C 	0.7986	0.8953	0.867	-0.133
Mof_H 	H 	0.7961	0.8348	0.8707	0.094
Mof_C 	C 	0.648	0.0851	0.6684	0.083
Mof_H 	H 	0.6531	0.1442	0.664	-0.013
Mof_C 	C 	0.7014	0.675	0.7805	0.076
Mof_C 	C 	0.1551	0.7886	0.8638	0.078
Mof_H 	H 	0.1797	0.7637	0.8696	-0.012
Mof_C 	C 	0.9384	0.962	0.9775	0.087
Mof_H 	H 	0.9299	0.9737	0.0036	-0.011
Mof_C 	C 	0.1303	0.7687	0.8918	-0.126
Mof_H 	H 	0.1381	0.7309	0.9159	0.09
Mof_C 	C 	0.6118	0.9627	0.6481	0.093
Mof_H 	H 	0.591	0.935	0.6295	-0.01
Mof_C 	C 	0.0863	0.4941	0.0212	0.076
Mof_H 	H 	0.106	0.4542	0.0199	-0.016
Mof_C 	C 	0.0829	0.8622	0.8466	-0.127
Mof_H 	H 	0.0585	0.8885	0.8402	0.089
Mof_C 	C 	0.8275	0.9429	0.8951	0.084
Mof_H 	H 	0.8438	0.913	0.9182	-0.005
Mof_C 	C 	0.1093	0.8775	0.8203	0.079
Mof_H 	H 	0.102	0.914	0.7955	-0.019
Mof_C 	C 	0.0825	0.5682	0.994	-0.13
Mof_H 	H 	0.0997	0.5777	0.9753	0.088
Mof_C 	C 	0.6687	0.6369	0.7554	-0.141
Mof_H 	H 	0.6499	0.6713	0.7372	0.092
Mof_C 	C 	0.7799	0.0298	0.8283	-0.139
Mof_H 	H 	0.7641	0.0615	0.8056	0.096
Mof_C 	C 	0.6346	0.9137	0.681	-0.143
Mof_H 	H 	0.6294	0.8541	0.684	0.104
Mof_C 	C 	0.9691	0.9048	0.9793	-0.137
Mof_H 	H 	0.9806	0.8775	0.0059	0.086
Mof_C 	C 	0.9327	0.9828	0.902	0.08
Mof_H 	H 	0.9197	0.0081	0.8754	-0.017
Mof_C 	C 	0.9634	0.928	0.9014	-0.135
Mof_H 	H 	0.9714	0.9175	0.8749	0.092
Mof_I 	I 	0.976	0.3535	0.36199	-0.349
Mof_I 	I 	0.25707	0.72234	0.18625	-0.378
Mof_I 	I 	0.36391	0.67692	0.29234	-0.391
Mof_I 	I 	0.88665	0.26232	0.43744	-0.377
Mof_I 	I 	0.60323	0.27072	0.09696	-0.381
Mof_I 	I 	0.64556	0.41561	0.98918	-0.368
Mof_Zn	Zn	0.92209	0.38028	0.40392	1.165
Mof_Zn	Zn	0.32018	0.64056	0.21686	1.163
Mof_Zn	Zn	0.62432	0.41014	0.06303	1.165
Mof_N 	N 	0.43708	0.0221	0.95108	-0.277
Mof_N 	N 	0.80983	0.0064	0.2175	-0.282
Mof_N 	N 	0.57948	0.4986	0.06	-0.274
Mof_N 	N 	0.81778	0.6832	0.2516	-0.133
Mof_N 	N 	0.66678	0.4717	0.1092	-0.278
Mof_N 	N 	0.88212	0.4525	0.3587	-0.276
Mof_N 	N 	0.47972	0.737	0.02954	-0.147
Mof_N 	N 	0.78064	0.5555	0.2282	-0.141
Mof_N 	N 	0.35502	0.6579	0.1713	-0.276
Mof_N 	N 	0.42651	0.7828	0.06024	-0.135
Mof_N 	N 	0.46255	0.6551	0.08854	-0.133
Mof_C 	C 	0.80989	0.598	0.2543	0.097
Mof_N 	N 	0.76198	0.693	0.1929	-0.139
Mof_C 	C 	0.83484	0.547	0.2905	0.074
Mof_C 	C 	0.75792	0.6058	0.1975	0.083
Mof_C 	C 	0.72601	0.5601	0.1665	0.06
Mof_C 	C 	0.45111	0.7929	0.0332	0.089
Mof_C 	C 	0.7784	0.9696	0.194	0.094
Mof_H 	H 	0.76	0.0057	0.1764	-0.021
Mof_C 	C 	0.79216	0.7276	0.221	0.097
Mof_C 	C 	0.43337	0.7113	0.0868	0.103
Mof_C 	C 	0.7714	0.8805	0.1942	-0.149
Mof_H 	H 	0.7486	0.8576	0.1772	0.09
Mof_C 	C 	0.51769	0.6116	0.0592	0.061
Mof_C 	C 	0.44682	0.8727	0.0049	0.06
Mof_C 	C 	0.836	0.9533	0.2424	0.081
Mof_H 	H 	0.8585	0.9783	0.2591	-0.019
Mof_C 	C 	0.48475	0.6715	0.0589	0.087
Mof_C 	C 	0.46625	0.9654	0.9506	0.077
Mof_H 	H 	0.483	0.9766	0.9317	-0.012
Mof_C 	C 	0.828	0.4589	0.2976	-0.142
Mof_H 	H 	0.8073	0.4298	0.2795	0.085
Mof_C 	C 	0.40633	0.694	0.1165	0.07
Mof_C 	C 	0.6904	0.4293	0.1425	0.081
Mof_H 	H 	0.6865	0.3693	0.146	-0.006
Mof_C 	C 	0.4723	0.8911	0.9772	-0.129
Mof_H 	H 	0.4931	0.8538	0.9765	0.08
Mof_C 	C 	0.7014	0.6047	0.133	-0.133
Mof_H 	H 	0.7039	0.6652	0.1293	0.094
Mof_C 	C 	0.852	0.4149	0.3316	0.083
Mof_H 	H 	0.8469	0.3558	0.336	-0.013
Mof_C 	C 	0.7986	0.825	0.2195	0.075
Mof_C 	C 	0.3449	0.7114	0.1362	0.078
Mof_H 	H 	0.3203	0.7363	0.1304	-0.012
Mof_C 	C 	0.5616	0.538	0.0225	0.086
Mof_H 	H 	0.5701	0.5263	0.9964	-0.011
Mof_C 	C 	0.3697	0.7313	0.1082	-0.126
Mof_H 	H 	0.3619	0.7691	0.0841	0.09
Mof_C 	C 	0.8882	0.5373	0.3519	0.093
Mof_H 	H 	0.909	0.565	0.3705	-0.01
Mof_C 	C 	0.4137	0.0059	0.9788	0.076
Mof_H 	H 	0.394	0.0458	0.9801	-0.016
Mof_C 	C 	0.4171	0.6378	0.1534	-0.127
Mof_H 	H 	0.4415	0.6115	0.1598	0.089
Mof_C 	C 	0.6725	0.5571	0.1049	0.083
Mof_H 	H 	0.6562	0.587	0.0818	-0.005
Mof_C 	C 	0.3907	0.6225	0.1797	0.079
Mof_H 	H 	0.398	0.586	0.2045	-0.019
Mof_C 	C 	0.4175	0.9318	0.006	-0.13
Mof_H 	H 	0.4003	0.9223	0.0247	0.088
Mof_C 	C 	0.8313	0.8631	0.2446	-0.141
Mof_H 	H 	0.8501	0.8287	0.2628	0.092
Mof_C 	C 	0.7201	0.4702	0.1717	-0.138
Mof_H 	H 	0.7359	0.4385	0.1944	0.096
Mof_C 	C 	0.8654	0.5863	0.319	-0.143
Mof_H 	H 	0.8706	0.6459	0.316	0.104
Mof_C 	C 	0.5309	0.5952	0.0207	-0.137
Mof_H 	H 	0.5194	0.6225	0.9941	0.086
Mof_C 	C 	0.5673	0.5172	0.098	0.079
Mof_H 	H 	0.5803	0.4919	0.1246	-0.016
Mof_C 	C 	0.5366	0.572	0.0986	-0.134
Mof_H 	H 	0.5286	0.5825	0.1251	0.091
Mof_I 	I 	0.476	0.8535	0.36199	-0.349
Mof_I 	I 	0.75707	0.22234	0.18625	-0.378
Mof_I 	I 	0.86391	0.17692	0.29234	-0.391
Mof_I 	I 	0.38665	0.76232	0.43744	-0.377
Mof_I 	I 	0.10323	0.77072	0.09696	-0.381
Mof_I 	I 	0.14556	0.91561	0.98918	-0.368
Mof_Zn	Zn	0.42209	0.88028	0.40392	1.165
Mof_Zn	Zn	0.82018	0.14056	0.21686	1.163
Mof_Zn	Zn	0.12432	0.91014	0.06303	1.165
Mof_N 	N 	0.93708	0.5221	0.95108	-0.276
Mof_N 	N 	0.30983	0.5064	0.2175	-0.282
Mof_N 	N 	0.07948	0.9986	0.06	-0.275
Mof_N 	N 	0.31778	0.1832	0.2516	-0.133
Mof_N 	N 	0.16678	0.9717	0.1092	-0.278
Mof_N 	N 	0.38212	0.9525	0.3587	-0.276
Mof_N 	N 	0.97972	0.237	0.02954	-0.147
Mof_N 	N 	0.28064	0.0555	0.2282	-0.141
Mof_N 	N 	0.85502	0.1579	0.1713	-0.276
Mof_N 	N 	0.92651	0.2828	0.06024	-0.135
Mof_N 	N 	0.96255	0.1551	0.08854	-0.133
Mof_C 	C 	0.30989	0.098	0.2543	0.097
Mof_N 	N 	0.26198	0.193	0.1929	-0.139
Mof_C 	C 	0.33484	0.047	0.2905	0.074
Mof_C 	C 	0.25792	0.1058	0.1975	0.083
Mof_C 	C 	0.22601	0.0601	0.1665	0.06
Mof_C 	C 	0.95111	0.2929	0.0332	0.089
Mof_C 	C 	0.2784	0.4696	0.194	0.095
Mof_H 	H 	0.26	0.5057	0.1764	-0.021
Mof_C 	C 	0.29216	0.2276	0.221	0.097
Mof_C 	C 	0.93337	0.2113	0.0868	0.103
Mof_C 	C 	0.2714	0.3805	0.1942	-0.15
Mof_H 	H 	0.2486	0.3576	0.1772	0.09
Mof_C 	C 	0.01769	0.1116	0.0592	0.061
Mof_C 	C 	0.94682	0.3727	0.0049	0.061
Mof_C 	C 	0.336	0.4533	0.2424	0.081
Mof_H 	H 	0.3585	0.4783	0.2591	-0.019
Mof_C 	C 	0.98475	0.1715	0.0589	0.087
Mof_C 	C 	0.96625	0.4654	0.9506	0.077
Mof_H 	H 	0.983	0.4766	0.9317	-0.012
Mof_C 	C 	0.328	0.9589	0.2976	-0.143
Mof_H 	H 	0.3073	0.9298	0.2795	0.086
Mof_C 	C 	0.90633	0.194	0.1165	0.07
Mof_C 	C 	0.1904	0.9293	0.1425	0.081
Mof_H 	H 	0.1865	0.8693	0.146	-0.006
Mof_C 	C 	0.9723	0.3911	0.9772	-0.13
Mof_H 	H 	0.9931	0.3538	0.9765	0.08
Mof_C 	C 	0.2014	0.1047	0.133	-0.133
Mof_H 	H 	0.2039	0.1652	0.1293	0.094
Mof_C 	C 	0.352	0.9149	0.3316	0.083
Mof_H 	H 	0.3469	0.8558	0.336	-0.013
Mof_C 	C 	0.2986	0.325	0.2195	0.076
Mof_C 	C 	0.8449	0.2114	0.1362	0.078
Mof_H 	H 	0.8203	0.2363	0.1304	-0.012
Mof_C 	C 	0.0616	0.038	0.0225	0.087
Mof_H 	H 	0.0701	0.0263	0.9964	-0.011
Mof_C 	C 	0.8697	0.2313	0.1082	-0.126
Mof_H 	H 	0.8619	0.2691	0.0841	0.09
Mof_C 	C 	0.3882	0.0373	0.3519	0.093
Mof_H 	H 	0.409	0.065	0.3705	-0.01
Mof_C 	C 	0.9137	0.5059	0.9788	0.076
Mof_H 	H 	0.894	0.5458	0.9801	-0.016
Mof_C 	C 	0.9171	0.1378	0.1534	-0.127
Mof_H 	H 	0.9415	0.1115	0.1598	0.089
Mof_C 	C 	0.1725	0.0571	0.1049	0.084
Mof_H 	H 	0.1562	0.087	0.0818	-0.005
Mof_C 	C 	0.8907	0.1225	0.1797	0.079
Mof_H 	H 	0.898	0.086	0.2045	-0.019
Mof_C 	C 	0.9175	0.4318	0.006	-0.13
Mof_H 	H 	0.9003	0.4223	0.0247	0.088
Mof_C 	C 	0.3313	0.3631	0.2446	-0.141
Mof_H 	H 	0.3501	0.3287	0.2628	0.092
Mof_C 	C 	0.2201	0.9702	0.1717	-0.139
Mof_H 	H 	0.2359	0.9385	0.1944	0.096
Mof_C 	C 	0.3654	0.0863	0.319	-0.143
Mof_H 	H 	0.3706	0.1459	0.316	0.104
Mof_C 	C 	0.0309	0.0952	0.0207	-0.137
Mof_H 	H 	0.0194	0.1225	0.9941	0.086
Mof_C 	C 	0.0673	0.0172	0.098	0.08
Mof_H 	H 	0.0803	0.9919	0.1246	-0.017
Mof_C 	C 	0.0366	0.072	0.0986	-0.135
Mof_H 	H 	0.0286	0.0825	0.1251	0.092
Mof_I 	I 	0.976	0.6465	0.86199	-0.349
Mof_I 	I 	0.25707	0.27766	0.68625	-0.378
Mof_I 	I 	0.36391	0.32308	0.79234	-0.391
Mof_I 	I 	0.88665	0.73768	0.93744	-0.377
Mof_I 	I 	0.60323	0.72928	0.59696	-0.381
Mof_I 	I 	0.64556	0.58439	0.48918	-0.368
Mof_Zn	Zn	0.92209	0.61972	0.90392	1.165
Mof_Zn	Zn	0.32018	0.35944	0.71686	1.163
Mof_Zn	Zn	0.62432	0.58986	0.56303	1.165
Mof_N 	N 	0.43708	0.9779	0.45108	-0.276
Mof_N 	N 	0.80983	0.9936	0.7175	-0.282
Mof_N 	N 	0.57948	0.5014	0.56	-0.274
Mof_N 	N 	0.81778	0.3168	0.7516	-0.133
Mof_N 	N 	0.66678	0.5283	0.6092	-0.278
Mof_N 	N 	0.88212	0.5475	0.8587	-0.276
Mof_N 	N 	0.47972	0.263	0.52954	-0.147
Mof_N 	N 	0.78064	0.4445	0.7282	-0.141
Mof_N 	N 	0.35502	0.3421	0.6713	-0.276
Mof_N 	N 	0.42651	0.2172	0.56024	-0.135
Mof_N 	N 	0.46255	0.3449	0.58854	-0.133
Mof_C 	C 	0.80989	0.402	0.7543	0.097
Mof_N 	N 	0.76198	0.307	0.6929	-0.139
Mof_C 	C 	0.83484	0.453	0.7905	0.074
Mof_C 	C 	0.75792	0.3942	0.6975	0.083
Mof_C 	C 	0.72601	0.4399	0.6665	0.06
Mof_C 	C 	0.45111	0.2071	0.5332	0.089
Mof_C 	C 	0.7784	0.0304	0.694	0.094
Mof_H 	H 	0.76	0.9943	0.6764	-0.021
Mof_C 	C 	0.79216	0.2724	0.721	0.097
Mof_C 	C 	0.43337	0.2887	0.5868	0.103
Mof_C 	C 	0.7714	0.1195	0.6942	-0.149
Mof_H 	H 	0.7486	0.1424	0.6772	0.09
Mof_C 	C 	0.51769	0.3884	0.5592	0.061
Mof_C 	C 	0.44682	0.1273	0.5049	0.061
Mof_C 	C 	0.836	0.0467	0.7424	0.081
Mof_H 	H 	0.8585	0.0217	0.7591	-0.019
Mof_C 	C 	0.48475	0.3285	0.5589	0.087
Mof_C 	C 	0.46625	0.0346	0.4506	0.077
Mof_H 	H 	0.483	0.0234	0.4317	-0.012
Mof_C 	C 	0.828	0.5411	0.7976	-0.142
Mof_H 	H 	0.8073	0.5702	0.7795	0.085
Mof_C 	C 	0.40633	0.306	0.6165	0.07
Mof_C 	C 	0.6904	0.5707	0.6425	0.081
Mof_H 	H 	0.6865	0.6307	0.646	-0.006
Mof_C 	C 	0.4723	0.1089	0.4772	-0.13
Mof_H 	H 	0.4931	0.1462	0.4765	0.08
Mof_C 	C 	0.7014	0.3953	0.633	-0.133
Mof_H 	H 	0.7039	0.3348	0.6293	0.094
Mof_C 	C 	0.852	0.5851	0.8316	0.083
Mof_H 	H 	0.8469	0.6442	0.836	-0.013
Mof_C 	C 	0.7986	0.175	0.7195	0.076
Mof_C 	C 	0.3449	0.2886	0.6362	0.078
Mof_H 	H 	0.3203	0.2637	0.6304	-0.012
Mof_C 	C 	0.5616	0.462	0.5225	0.086
Mof_H 	H 	0.5701	0.4737	0.4964	-0.011
Mof_C 	C 	0.3697	0.2687	0.6082	-0.126
Mof_H 	H 	0.3619	0.2309	0.5841	0.09
Mof_C 	C 	0.8882	0.4627	0.8519	0.093
Mof_H 	H 	0.909	0.435	0.8705	-0.01
Mof_C 	C 	0.4137	0.9941	0.4788	0.076
Mof_H 	H 	0.394	0.9542	0.4801	-0.016
Mof_C 	C 	0.4171	0.3622	0.6534	-0.127
Mof_H 	H 	0.4415	0.3885	0.6598	0.089
Mof_C 	C 	0.6725	0.4429	0.6049	0.083
Mof_H 	H 	0.6562	0.413	0.5818	-0.005
Mof_C 	C 	0.3907	0.3775	0.6797	0.079
Mof_H 	H 	0.398	0.414	0.7045	-0.019
Mof_C 	C 	0.4175	0.0682	0.506	-0.13
Mof_H 	H 	0.4003	0.0777	0.5247	0.088
Mof_C 	C 	0.8313	0.1369	0.7446	-0.141
Mof_H 	H 	0.8501	0.1713	0.7628	0.092
Mof_C 	C 	0.7201	0.5298	0.6717	-0.138
Mof_H 	H 	0.7359	0.5615	0.6944	0.096
Mof_C 	C 	0.8654	0.4137	0.819	-0.143
Mof_H 	H 	0.8706	0.3541	0.816	0.104
Mof_C 	C 	0.5309	0.4048	0.5207	-0.136
Mof_H 	H 	0.5194	0.3775	0.4941	0.086
Mof_C 	C 	0.5673	0.4828	0.598	0.079
Mof_H 	H 	0.5803	0.5081	0.6246	-0.016
Mof_C 	C 	0.5366	0.428	0.5986	-0.134
Mof_H 	H 	0.5286	0.4175	0.6251	0.091
Mof_I 	I 	0.476	0.1465	0.86199	-0.349
Mof_I 	I 	0.75707	0.77766	0.68625	-0.378
Mof_I 	I 	0.86391	0.82308	0.79234	-0.391
Mof_I 	I 	0.38665	0.23768	0.93744	-0.377
Mof_I 	I 	0.10323	0.22928	0.59696	-0.381
Mof_I 	I 	0.14556	0.08439	0.48918	-0.368
Mof_Zn	Zn	0.42209	0.11972	0.90392	1.165
Mof_Zn	Zn	0.82018	0.85944	0.71686	1.163
Mof_Zn	Zn	0.12432	0.08986	0.56303	1.165
Mof_N 	N 	0.93708	0.4779	0.45108	-0.276
Mof_N 	N 	0.30983	0.4936	0.7175	-0.282
Mof_N 	N 	0.07948	0.0014	0.56	-0.274
Mof_N 	N 	0.31778	0.8168	0.7516	-0.133
Mof_N 	N 	0.16678	0.0283	0.6092	-0.278
Mof_N 	N 	0.38212	0.0475	0.8587	-0.276
Mof_N 	N 	0.97972	0.763	0.52954	-0.147
Mof_N 	N 	0.28064	0.9445	0.7282	-0.141
Mof_N 	N 	0.85502	0.8421	0.6713	-0.276
Mof_N 	N 	0.92651	0.7172	0.56024	-0.135
Mof_N 	N 	0.96255	0.8449	0.58854	-0.133
Mof_C 	C 	0.30989	0.902	0.7543	0.097
Mof_N 	N 	0.26198	0.807	0.6929	-0.139
Mof_C 	C 	0.33484	0.953	0.7905	0.074
Mof_C 	C 	0.25792	0.8942	0.6975	0.083
Mof_C 	C 	0.22601	0.9399	0.6665	0.06
Mof_C 	C 	0.95111	0.7071	0.5332	0.089
Mof_C 	C 	0.2784	0.5304	0.694	0.095
Mof_H 	H 	0.26	0.4943	0.6764	-0.021
Mof_C 	C 	0.29216	0.7724	0.721	0.097
Mof_C 	C 	0.93337	0.7887	0.5868	0.103
Mof_C 	C 	0.2714	0.6195	0.6942	-0.15
Mof_H 	H 	0.2486	0.6424	0.6772	0.09
Mof_C 	C 	0.01769	0.8884	0.5592	0.061
Mof_C 	C 	0.94682	0.6273	0.5049	0.061
Mof_C 	C 	0.336	0.5467	0.7424	0.081
Mof_H 	H 	0.3585	0.5217	0.7591	-0.019
Mof_C 	C 	0.98475	0.8285	0.5589	0.087
Mof_C 	C 	0.96625	0.5346	0.4506	0.077
Mof_H 	H 	0.983	0.5234	0.4317	-0.012
Mof_C 	C 	0.328	0.0411	0.7976	-0.143
Mof_H 	H 	0.3073	0.0702	0.7795	0.086
Mof_C 	C 	0.90633	0.806	0.6165	0.07
Mof_C 	C 	0.1904	0.0707	0.6425	0.081
Mof_H 	H 	0.1865	0.1307	0.646	-0.006
Mof_C 	C 	0.9723	0.6089	0.4772	-0.13
Mof_H 	H 	0.9931	0.6462	0.4765	0.08
Mof_C 	C 	0.2014	0.8953	0.633	-0.133
Mof_H 	H 	0.2039	0.8348	0.6293	0.094
Mof_C 	C 	0.352	0.0851	0.8316	0.083
Mof_H 	H 	0.3469	0.1442	0.836	-0.013
Mof_C 	C 	0.2986	0.675	0.7195	0.076
Mof_C 	C 	0.8449	0.7886	0.6362	0.078
Mof_H 	H 	0.8203	0.7637	0.6304	-0.012
Mof_C 	C 	0.0616	0.962	0.5225	0.086
Mof_H 	H 	0.0701	0.9737	0.4964	-0.011
Mof_C 	C 	0.8697	0.7687	0.6082	-0.126
Mof_H 	H 	0.8619	0.7309	0.5841	0.09
Mof_C 	C 	0.3882	0.9627	0.8519	0.093
Mof_H 	H 	0.409	0.935	0.8705	-0.01
Mof_C 	C 	0.9137	0.4941	0.4788	0.076
Mof_H 	H 	0.894	0.4542	0.4801	-0.016
Mof_C 	C 	0.9171	0.8622	0.6534	-0.127
Mof_H 	H 	0.9415	0.8885	0.6598	0.089
Mof_C 	C 	0.1725	0.9429	0.6049	0.083
Mof_H 	H 	0.1562	0.913	0.5818	-0.005
Mof_C 	C 	0.8907	0.8775	0.6797	0.079
Mof_H 	H 	0.898	0.914	0.7045	-0.019
Mof_C 	C 	0.9175	0.5682	0.506	-0.13
Mof_H 	H 	0.9003	0.5777	0.5247	0.088
Mof_C 	C 	0.3313	0.6369	0.7446	-0.141
Mof_H 	H 	0.3501	0.6713	0.7628	0.092
Mof_C 	C 	0.2201	0.0298	0.6717	-0.139
Mof_H 	H 	0.2359	0.0615	0.6944	0.096
Mof_C 	C 	0.3654	0.9137	0.819	-0.143
Mof_H 	H 	0.3706	0.8541	0.816	0.104
Mof_C 	C 	0.0309	0.9048	0.5207	-0.136
Mof_H 	H 	0.0194	0.8775	0.4941	0.086
Mof_C 	C 	0.0673	0.9828	0.598	0.079
Mof_H 	H 	0.0803	0.0081	0.6246	-0.016
Mof_C 	C 	0.0366	0.928	0.5986	-0.135
Mof_H 	H 	0.0286	0.9175	0.6251	0.091
_end
