data_functionalizedCrystal
_audit_creation_method	'EQeq! by Chris Wilmer'
_symmetry_space_group_name_H-M	'P1'
_symmetry_Int_Tables_number	1
_symmetry_cell_setting	triclinic
loop_
_symmetry_equiv_pos_as_xyz
  x,y,z
_cell_length_a	30.514
_cell_length_b	15.6715
_cell_length_c	22.003
_cell_angle_alpha	90
_cell_angle_beta	133.025
_cell_angle_gamma	90
loop_
_atom_site_label
_atom_site_type_symbol
_atom_site_fract_x
_atom_site_fract_y
_atom_site_fract_z
_atom_site_charge
Mof_Nd	Nd	0.89001	0.63619	0.32591	2.265
Mof_Nd	Nd	0.83078	0.62795	0.98548	1.864
Mof_N 	N 	0.8381	0.4974	0.2418	-0.202
Mof_N 	N 	0.634	0.7342	0.0358	-0.187
Mof_O 	O 	0.8669	0.5303	0.3828	-0.574
Mof_O 	O 	0.8281	0.4041	0.3755	-0.545
Mof_O 	O 	0.8762	0.6154	0.2034	-0.552
Mof_O 	O 	0.8404	0.5475	0.0888	-0.573
Mof_O 	O 	0.749	0.7687	0.1291	-0.535
Mof_O 	O 	0.7772	0.6531	0.2041	-0.506
Mof_O 	O 	0.56	0.8558	0.9303	-0.563
Mof_O 	O 	0.481	0.7848	0.888	-0.583
Mof_O 	O 	0.8412	0.7042	0.3685	-0.856
Mof_H 	H 	0.8569	0.7506	0.3713	0.241
Mof_H 	H 	0.8034	0.7114	0.3334	0.335
Mof_O 	O 	0.8675	0.781	0.2636	-0.825
Mof_H 	H 	0.8308	0.795	0.2325	0.327
Mof_H 	H 	0.8862	0.8023	0.3113	0.255
Mof_C 	C 	0.838	0.4605	0.3471	0.421
Mof_C 	C 	0.8147	0.4444	0.2617	-0.114
Mof_C 	C 	0.7747	0.3818	0.2082	0.046
Mof_H 	H 	0.7594	0.3455	0.2234	-0.015
Mof_C 	C 	0.7572	0.3726	0.1324	-0.135
Mof_H 	H 	0.7274	0.3343	0.0929	0.052
Mof_C 	C 	0.7872	0.4248	0.1171	0.039
Mof_H 	H 	0.7806	0.416	0.0696	-0.012
Mof_C 	C 	0.8259	0.4883	0.1726	-0.126
Mof_C 	C 	0.8494	0.5536	0.1534	0.433
Mof_C 	C 	0.7377	0.6991	0.1468	0.423
Mof_C 	C 	0.6738	0.6781	0.0932	-0.111
Mof_C 	C 	0.6556	0.6012	0.1056	0.013
Mof_H 	H 	0.6835	0.5625	0.147	0.011
Mof_C 	C 	0.5944	0.587	0.0532	-0.107
Mof_H 	H 	0.5809	0.5362	0.0575	0.041
Mof_C 	C 	0.5528	0.6475	0.9944	0.018
Mof_H 	H 	0.5118	0.6397	0.9608	-0.003
Mof_C 	C 	0.5765	0.7211	0.9886	-0.113
Mof_C 	C 	0.5357	0.7925	0.9291	0.453
Mof_Nd	Nd	0.39001	0.13619	0.32591	2.267
Mof_Nd	Nd	0.33078	0.12795	0.98548	1.859
Mof_N 	N 	0.3381	0.9974	0.2418	-0.201
Mof_N 	N 	0.134	0.2342	0.0358	-0.185
Mof_O 	O 	0.3669	0.0303	0.3828	-0.572
Mof_O 	O 	0.3281	0.9041	0.3755	-0.544
Mof_O 	O 	0.3762	0.1154	0.2034	-0.552
Mof_O 	O 	0.3404	0.0475	0.0888	-0.572
Mof_O 	O 	0.249	0.2687	0.1291	-0.535
Mof_O 	O 	0.2772	0.1531	0.2041	-0.505
Mof_O 	O 	0.06	0.3558	0.9303	-0.565
Mof_O 	O 	0.981	0.2848	0.888	-0.584
Mof_O 	O 	0.3412	0.2042	0.3685	-0.856
Mof_H 	H 	0.3569	0.2506	0.3713	0.241
Mof_H 	H 	0.3034	0.2114	0.3334	0.335
Mof_O 	O 	0.3675	0.281	0.2636	-0.825
Mof_H 	H 	0.3308	0.295	0.2325	0.327
Mof_H 	H 	0.3862	0.3023	0.3113	0.256
Mof_C 	C 	0.338	0.9605	0.3471	0.42
Mof_C 	C 	0.3147	0.9444	0.2617	-0.114
Mof_C 	C 	0.2747	0.8818	0.2082	0.047
Mof_H 	H 	0.2594	0.8455	0.2234	-0.015
Mof_C 	C 	0.2572	0.8726	0.1324	-0.136
Mof_H 	H 	0.2274	0.8343	0.0929	0.052
Mof_C 	C 	0.2872	0.9248	0.1171	0.039
Mof_H 	H 	0.2806	0.916	0.0696	-0.013
Mof_C 	C 	0.3259	0.9883	0.1726	-0.128
Mof_C 	C 	0.3494	0.0536	0.1534	0.434
Mof_C 	C 	0.2377	0.1991	0.1468	0.423
Mof_C 	C 	0.1738	0.1781	0.0932	-0.11
Mof_C 	C 	0.1556	0.1012	0.1056	0.011
Mof_H 	H 	0.1835	0.0625	0.147	0.011
Mof_C 	C 	0.0944	0.087	0.0532	-0.103
Mof_H 	H 	0.0809	0.0362	0.0575	0.04
Mof_C 	C 	0.0528	0.1475	0.9944	0.015
Mof_H 	H 	0.0118	0.1397	0.9608	-0.003
Mof_C 	C 	0.0765	0.2211	0.9886	-0.114
Mof_C 	C 	0.0357	0.2925	0.9291	0.453
Mof_Nd	Nd	0.10999	0.63619	0.17409	2.266
Mof_Nd	Nd	0.16922	0.62795	0.51452	1.861
Mof_N 	N 	0.1619	0.4974	0.2582	-0.201
Mof_N 	N 	0.366	0.7342	0.4642	-0.185
Mof_O 	O 	0.1331	0.5303	0.1172	-0.573
Mof_O 	O 	0.1719	0.4041	0.1245	-0.544
Mof_O 	O 	0.1238	0.6154	0.2966	-0.552
Mof_O 	O 	0.1596	0.5475	0.4112	-0.573
Mof_O 	O 	0.251	0.7687	0.3709	-0.535
Mof_O 	O 	0.2228	0.6531	0.2959	-0.506
Mof_O 	O 	0.44	0.8558	0.5697	-0.564
Mof_O 	O 	0.519	0.7848	0.612	-0.583
Mof_O 	O 	0.1588	0.7042	0.1315	-0.856
Mof_H 	H 	0.1431	0.7506	0.1287	0.241
Mof_H 	H 	0.1966	0.7114	0.1666	0.335
Mof_O 	O 	0.1325	0.781	0.2364	-0.825
Mof_H 	H 	0.1692	0.795	0.2675	0.327
Mof_H 	H 	0.1138	0.8023	0.1887	0.255
Mof_C 	C 	0.162	0.4605	0.1529	0.421
Mof_C 	C 	0.1853	0.4444	0.2383	-0.114
Mof_C 	C 	0.2253	0.3818	0.2918	0.046
Mof_H 	H 	0.2406	0.3455	0.2766	-0.015
Mof_C 	C 	0.2428	0.3726	0.3676	-0.136
Mof_H 	H 	0.2726	0.3343	0.4071	0.052
Mof_C 	C 	0.2128	0.4248	0.3829	0.039
Mof_H 	H 	0.2194	0.416	0.4304	-0.012
Mof_C 	C 	0.1741	0.4883	0.3274	-0.126
Mof_C 	C 	0.1506	0.5536	0.3466	0.433
Mof_C 	C 	0.2623	0.6991	0.3532	0.423
Mof_C 	C 	0.3262	0.6781	0.4068	-0.11
Mof_C 	C 	0.3444	0.6012	0.3944	0.012
Mof_H 	H 	0.3165	0.5625	0.353	0.011
Mof_C 	C 	0.4056	0.587	0.4468	-0.106
Mof_H 	H 	0.4191	0.5362	0.4425	0.04
Mof_C 	C 	0.4472	0.6475	0.5056	0.017
Mof_H 	H 	0.4882	0.6397	0.5392	-0.003
Mof_C 	C 	0.4235	0.7211	0.5114	-0.114
Mof_C 	C 	0.4643	0.7925	0.5709	0.453
Mof_Nd	Nd	0.60999	0.13619	0.17409	2.268
Mof_Nd	Nd	0.66922	0.12795	0.51452	1.861
Mof_N 	N 	0.6619	0.9974	0.2582	-0.201
Mof_N 	N 	0.866	0.2342	0.4642	-0.185
Mof_O 	O 	0.6331	0.0303	0.1172	-0.571
Mof_O 	O 	0.6719	0.9041	0.1245	-0.543
Mof_O 	O 	0.6238	0.1154	0.2966	-0.553
Mof_O 	O 	0.6596	0.0475	0.4112	-0.573
Mof_O 	O 	0.751	0.2687	0.3709	-0.535
Mof_O 	O 	0.7228	0.1531	0.2959	-0.506
Mof_O 	O 	0.94	0.3558	0.5697	-0.565
Mof_O 	O 	0.019	0.2848	0.612	-0.584
Mof_O 	O 	0.6588	0.2042	0.1315	-0.855
Mof_H 	H 	0.6431	0.2506	0.1287	0.241
Mof_H 	H 	0.6966	0.2114	0.1666	0.335
Mof_O 	O 	0.6325	0.281	0.2364	-0.825
Mof_H 	H 	0.6692	0.295	0.2675	0.327
Mof_H 	H 	0.6138	0.3023	0.1887	0.256
Mof_C 	C 	0.662	0.9605	0.1529	0.418
Mof_C 	C 	0.6853	0.9444	0.2383	-0.113
Mof_C 	C 	0.7253	0.8818	0.2918	0.046
Mof_H 	H 	0.7406	0.8455	0.2766	-0.015
Mof_C 	C 	0.7428	0.8726	0.3676	-0.136
Mof_H 	H 	0.7726	0.8343	0.4071	0.052
Mof_C 	C 	0.7128	0.9248	0.3829	0.039
Mof_H 	H 	0.7194	0.916	0.4304	-0.013
Mof_C 	C 	0.6741	0.9883	0.3274	-0.127
Mof_C 	C 	0.6506	0.0536	0.3466	0.434
Mof_C 	C 	0.7623	0.1991	0.3532	0.423
Mof_C 	C 	0.8262	0.1781	0.4068	-0.11
Mof_C 	C 	0.8444	0.1012	0.3944	0.012
Mof_H 	H 	0.8165	0.0625	0.353	0.011
Mof_C 	C 	0.9056	0.087	0.4468	-0.106
Mof_H 	H 	0.9191	0.0362	0.4425	0.04
Mof_C 	C 	0.9472	0.1475	0.5056	0.017
Mof_H 	H 	0.9882	0.1397	0.5392	-0.003
Mof_C 	C 	0.9235	0.2211	0.5114	-0.114
Mof_C 	C 	0.9643	0.2925	0.5709	0.453
Mof_Nd	Nd	0.10999	0.36381	0.67409	2.266
Mof_Nd	Nd	0.16922	0.37205	0.01452	1.865
Mof_N 	N 	0.1619	0.5026	0.7582	-0.201
Mof_N 	N 	0.366	0.2658	0.9642	-0.186
Mof_O 	O 	0.1331	0.4697	0.6172	-0.573
Mof_O 	O 	0.1719	0.5959	0.6245	-0.544
Mof_O 	O 	0.1238	0.3846	0.7966	-0.552
Mof_O 	O 	0.1596	0.4525	0.9112	-0.573
Mof_O 	O 	0.251	0.2313	0.8709	-0.535
Mof_O 	O 	0.2228	0.3469	0.7959	-0.506
Mof_O 	O 	0.44	0.1442	0.0697	-0.563
Mof_O 	O 	0.519	0.2152	0.112	-0.583
Mof_O 	O 	0.1588	0.2958	0.6315	-0.856
Mof_H 	H 	0.1431	0.2494	0.6287	0.241
Mof_H 	H 	0.1966	0.2886	0.6666	0.335
Mof_O 	O 	0.1325	0.219	0.7364	-0.825
Mof_H 	H 	0.1692	0.205	0.7675	0.327
Mof_H 	H 	0.1138	0.1977	0.6887	0.255
Mof_C 	C 	0.162	0.5395	0.6529	0.421
Mof_C 	C 	0.1853	0.5556	0.7383	-0.114
Mof_C 	C 	0.2253	0.6182	0.7918	0.046
Mof_H 	H 	0.2406	0.6545	0.7766	-0.015
Mof_C 	C 	0.2428	0.6274	0.8676	-0.135
Mof_H 	H 	0.2726	0.6657	0.9071	0.052
Mof_C 	C 	0.2128	0.5752	0.8829	0.039
Mof_H 	H 	0.2194	0.584	0.9304	-0.012
Mof_C 	C 	0.1741	0.5117	0.8274	-0.126
Mof_C 	C 	0.1506	0.4464	0.8466	0.433
Mof_C 	C 	0.2623	0.3009	0.8532	0.423
Mof_C 	C 	0.3262	0.3219	0.9068	-0.111
Mof_C 	C 	0.3444	0.3988	0.8944	0.013
Mof_H 	H 	0.3165	0.4375	0.853	0.011
Mof_C 	C 	0.4056	0.413	0.9468	-0.107
Mof_H 	H 	0.4191	0.4638	0.9425	0.041
Mof_C 	C 	0.4472	0.3525	0.0056	0.018
Mof_H 	H 	0.4882	0.3603	0.0392	-0.003
Mof_C 	C 	0.4235	0.2789	0.0114	-0.113
Mof_C 	C 	0.4643	0.2075	0.0709	0.453
Mof_Nd	Nd	0.60999	0.86381	0.67409	2.267
Mof_Nd	Nd	0.66922	0.87205	0.01452	1.859
Mof_N 	N 	0.6619	0.0026	0.7582	-0.201
Mof_N 	N 	0.866	0.7658	0.9642	-0.185
Mof_O 	O 	0.6331	0.9697	0.6172	-0.572
Mof_O 	O 	0.6719	0.0959	0.6245	-0.544
Mof_O 	O 	0.6238	0.8846	0.7966	-0.552
Mof_O 	O 	0.6596	0.9525	0.9112	-0.572
Mof_O 	O 	0.751	0.7313	0.8709	-0.535
Mof_O 	O 	0.7228	0.8469	0.7959	-0.505
Mof_O 	O 	0.94	0.6442	0.0697	-0.565
Mof_O 	O 	0.019	0.7152	0.112	-0.584
Mof_O 	O 	0.6588	0.7958	0.6315	-0.856
Mof_H 	H 	0.6431	0.7494	0.6287	0.241
Mof_H 	H 	0.6966	0.7886	0.6666	0.335
Mof_O 	O 	0.6325	0.719	0.7364	-0.825
Mof_H 	H 	0.6692	0.705	0.7675	0.327
Mof_H 	H 	0.6138	0.6977	0.6887	0.256
Mof_C 	C 	0.662	0.0395	0.6529	0.42
Mof_C 	C 	0.6853	0.0556	0.7383	-0.114
Mof_C 	C 	0.7253	0.1182	0.7918	0.047
Mof_H 	H 	0.7406	0.1545	0.7766	-0.015
Mof_C 	C 	0.7428	0.1274	0.8676	-0.136
Mof_H 	H 	0.7726	0.1657	0.9071	0.052
Mof_C 	C 	0.7128	0.0752	0.8829	0.039
Mof_H 	H 	0.7194	0.084	0.9304	-0.013
Mof_C 	C 	0.6741	0.0117	0.8274	-0.128
Mof_C 	C 	0.6506	0.9464	0.8466	0.434
Mof_C 	C 	0.7623	0.8009	0.8532	0.423
Mof_C 	C 	0.8262	0.8219	0.9068	-0.11
Mof_C 	C 	0.8444	0.8988	0.8944	0.011
Mof_H 	H 	0.8165	0.9375	0.853	0.011
Mof_C 	C 	0.9056	0.913	0.9468	-0.103
Mof_H 	H 	0.9191	0.9638	0.9425	0.04
Mof_C 	C 	0.9472	0.8525	0.0056	0.015
Mof_H 	H 	0.9882	0.8603	0.0392	-0.003
Mof_C 	C 	0.9235	0.7789	0.0114	-0.114
Mof_C 	C 	0.9643	0.7075	0.0709	0.453
Mof_Nd	Nd	0.89001	0.36381	0.82591	2.266
Mof_Nd	Nd	0.83078	0.37205	0.48548	1.861
Mof_N 	N 	0.8381	0.5026	0.7418	-0.201
Mof_N 	N 	0.634	0.2658	0.5358	-0.185
Mof_O 	O 	0.8669	0.4697	0.8828	-0.573
Mof_O 	O 	0.8281	0.5959	0.8755	-0.544
Mof_O 	O 	0.8762	0.3846	0.7034	-0.552
Mof_O 	O 	0.8404	0.4525	0.5888	-0.573
Mof_O 	O 	0.749	0.2313	0.6291	-0.535
Mof_O 	O 	0.7772	0.3469	0.7041	-0.506
Mof_O 	O 	0.56	0.1442	0.4303	-0.564
Mof_O 	O 	0.481	0.2152	0.388	-0.583
Mof_O 	O 	0.8412	0.2958	0.8685	-0.856
Mof_H 	H 	0.8569	0.2494	0.8713	0.241
Mof_H 	H 	0.8034	0.2886	0.8334	0.335
Mof_O 	O 	0.8675	0.219	0.7636	-0.825
Mof_H 	H 	0.8308	0.205	0.7325	0.327
Mof_H 	H 	0.8862	0.1977	0.8113	0.255
Mof_C 	C 	0.838	0.5395	0.8471	0.421
Mof_C 	C 	0.8147	0.5556	0.7617	-0.114
Mof_C 	C 	0.7747	0.6182	0.7082	0.046
Mof_H 	H 	0.7594	0.6545	0.7234	-0.015
Mof_C 	C 	0.7572	0.6274	0.6324	-0.136
Mof_H 	H 	0.7274	0.6657	0.5929	0.052
Mof_C 	C 	0.7872	0.5752	0.6171	0.039
Mof_H 	H 	0.7806	0.584	0.5696	-0.012
Mof_C 	C 	0.8259	0.5117	0.6726	-0.126
Mof_C 	C 	0.8494	0.4464	0.6534	0.433
Mof_C 	C 	0.7377	0.3009	0.6468	0.423
Mof_C 	C 	0.6738	0.3219	0.5932	-0.11
Mof_C 	C 	0.6556	0.3988	0.6056	0.012
Mof_H 	H 	0.6835	0.4375	0.647	0.011
Mof_C 	C 	0.5944	0.413	0.5532	-0.106
Mof_H 	H 	0.5809	0.4638	0.5575	0.04
Mof_C 	C 	0.5528	0.3525	0.4944	0.017
Mof_H 	H 	0.5118	0.3603	0.4608	-0.003
Mof_C 	C 	0.5765	0.2789	0.4886	-0.114
Mof_C 	C 	0.5357	0.2075	0.4291	0.453
Mof_Nd	Nd	0.39001	0.86381	0.82591	2.268
Mof_Nd	Nd	0.33078	0.87205	0.48548	1.861
Mof_N 	N 	0.3381	0.0026	0.7418	-0.201
Mof_N 	N 	0.134	0.7658	0.5358	-0.185
Mof_O 	O 	0.3669	0.9697	0.8828	-0.571
Mof_O 	O 	0.3281	0.0959	0.8755	-0.543
Mof_O 	O 	0.3762	0.8846	0.7034	-0.553
Mof_O 	O 	0.3404	0.9525	0.5888	-0.573
Mof_O 	O 	0.249	0.7313	0.6291	-0.535
Mof_O 	O 	0.2772	0.8469	0.7041	-0.506
Mof_O 	O 	0.06	0.6442	0.4303	-0.565
Mof_O 	O 	0.981	0.7152	0.388	-0.584
Mof_O 	O 	0.3412	0.7958	0.8685	-0.855
Mof_H 	H 	0.3569	0.7494	0.8713	0.241
Mof_H 	H 	0.3034	0.7886	0.8334	0.335
Mof_O 	O 	0.3675	0.719	0.7636	-0.825
Mof_H 	H 	0.3308	0.705	0.7325	0.327
Mof_H 	H 	0.3862	0.6977	0.8113	0.256
Mof_C 	C 	0.338	0.0395	0.8471	0.418
Mof_C 	C 	0.3147	0.0556	0.7617	-0.113
Mof_C 	C 	0.2747	0.1182	0.7082	0.046
Mof_H 	H 	0.2594	0.1545	0.7234	-0.015
Mof_C 	C 	0.2572	0.1274	0.6324	-0.136
Mof_H 	H 	0.2274	0.1657	0.5929	0.052
Mof_C 	C 	0.2872	0.0752	0.6171	0.039
Mof_H 	H 	0.2806	0.084	0.5696	-0.013
Mof_C 	C 	0.3259	0.0117	0.6726	-0.127
Mof_C 	C 	0.3494	0.9464	0.6534	0.434
Mof_C 	C 	0.2377	0.8009	0.6468	0.423
Mof_C 	C 	0.1738	0.8219	0.5932	-0.11
Mof_C 	C 	0.1556	0.8988	0.6056	0.012
Mof_H 	H 	0.1835	0.9375	0.647	0.011
Mof_C 	C 	0.0944	0.913	0.5532	-0.106
Mof_H 	H 	0.0809	0.9638	0.5575	0.04
Mof_C 	C 	0.0528	0.8525	0.4944	0.017
Mof_H 	H 	0.0118	0.8603	0.4608	-0.003
Mof_C 	C 	0.0765	0.7789	0.4886	-0.114
Mof_C 	C 	0.0357	0.7075	0.4291	0.453
_end
