# CIF file generated by openbabel 3.1.0, see https://openbabel.org
data_I
_chemical_name_common 'image0'
_cell_length_a 23.404
_cell_length_b 11.0971
_cell_length_c 20.766
_cell_angle_alpha 90
_cell_angle_beta 120.476
_cell_angle_gamma 90
_space_group_name_H-M_alt 'P 1'
_space_group_name_Hall 'P 1'
loop_
    _symmetry_equiv_pos_as_xyz
    x,y,z
loop_
    _atom_site_label
    _atom_site_type_symbol
    _atom_site_fract_x
    _atom_site_fract_y
    _atom_site_fract_z
    _atom_site_occupancy
    O1       O        0.50613    0.34240    0.33160    1.000
    N1       N        0.47268    0.88350    0.30229    1.000
    N2       N        0.55943    0.16760    0.37505    1.000
    H1       H        0.59760    0.13600    0.40440    1.000
    C1       C        0.50573    0.08940    0.33938    1.000
    C2       C        0.51898    0.96730    0.33707    1.000
    H2       H        0.56310    0.94300    0.36150    1.000
    C3       C        0.40875    0.91890    0.26822    1.000
    H3       H        0.37560    0.86140    0.24400    1.000
    C4       C        0.39091    0.03600    0.26802    1.000
    H4       H        0.34630    0.05690    0.24400    1.000
    C5       C        0.43911    0.12420    0.30357    1.000
    H5       H        0.42740    0.20430    0.30350    1.000
    C6       C        0.62110    0.35670    0.40040    1.000
    H6       H        0.61700    0.42470    0.42720    1.000
    H7       H        0.62350    0.38980    0.35860    1.000
    C7       C        0.68730    0.29910    0.45180    1.000
    C8       C        0.72240    0.24450    0.42480    1.000
    H8       H        0.70430    0.23890    0.37340    1.000
    C9       C        0.71570    0.30300    0.52860    1.000
    H9       H        0.69260    0.33840    0.54910    1.000
    C10      C        0.55700    0.28780    0.36780    1.000
    N3       N        0.60377    0.69280    0.35706    1.000
    N4       N        0.76173    0.56250    0.40165    1.000
    H10      H        0.75350    0.56980    0.35650    1.000
    C11      C        0.71314    0.60770    0.41575    1.000
    C12      C        0.65544    0.64820    0.35372    1.000
    H11      H        0.65240    0.64430    0.30730    1.000
    C13      C        0.60948    0.70030    0.42450    1.000
    H12      H        0.57450    0.73250    0.42810    1.000
    C14      C        0.66534    0.66210    0.48871    1.000
    H13      H        0.66750    0.66810    0.53460    1.000
    C15      C        0.71838    0.61450    0.48482    1.000
    H14      H        0.75640    0.58790    0.52760    1.000
    O2       O        0.83991    0.49880    0.51704    1.000
    C16      C        0.85746    0.45910    0.41420    1.000
    H15      H        0.84920    0.37320    0.40650    1.000
    H16      H        0.84030    0.49640    0.36560    1.000
    C17      C        0.93122    0.48000    0.45949    1.000
    C18      C        0.97471    0.38410    0.48197    1.000
    H17      H        0.95840    0.30590    0.46980    1.000
    C19      C        0.04292    0.40350    0.52268    1.000
    H18      H        0.07160    0.33800    0.53820    1.000
    C20      C        0.82030    0.50850    0.45037    1.000
    O3       O        0.00613    0.84240    0.33160    1.000
    N5       N        0.97268    0.38350    0.30229    1.000
    N6       N        0.05943    0.66760    0.37505    1.000
    H19      H        0.09760    0.63600    0.40440    1.000
    C21      C        0.00573    0.58940    0.33938    1.000
    C22      C        0.01898    0.46730    0.33707    1.000
    H20      H        0.06310    0.44300    0.36150    1.000
    C23      C        0.90875    0.41890    0.26822    1.000
    H21      H        0.87560    0.36140    0.24400    1.000
    C24      C        0.89091    0.53600    0.26802    1.000
    H22      H        0.84630    0.55690    0.24400    1.000
    C25      C        0.93911    0.62420    0.30357    1.000
    H23      H        0.92740    0.70430    0.30350    1.000
    C26      C        0.12110    0.85670    0.40040    1.000
    H24      H        0.11700    0.92470    0.42720    1.000
    H25      H        0.12350    0.88980    0.35860    1.000
    C27      C        0.18730    0.79910    0.45180    1.000
    C28      C        0.22240    0.74450    0.42480    1.000
    H26      H        0.20430    0.73890    0.37340    1.000
    C29      C        0.21570    0.80300    0.52860    1.000
    H27      H        0.19260    0.83840    0.54910    1.000
    C30      C        0.05700    0.78780    0.36780    1.000
    N7       N        0.10377    0.19280    0.35706    1.000
    N8       N        0.26173    0.06250    0.40165    1.000
    H28      H        0.25350    0.06980    0.35650    1.000
    C31      C        0.21314    0.10770    0.41575    1.000
    C32      C        0.15544    0.14820    0.35372    1.000
    H29      H        0.15240    0.14430    0.30730    1.000
    C33      C        0.10948    0.20030    0.42450    1.000
    H30      H        0.07450    0.23250    0.42810    1.000
    C34      C        0.16534    0.16210    0.48871    1.000
    H31      H        0.16750    0.16810    0.53460    1.000
    C35      C        0.21838    0.11450    0.48482    1.000
    H32      H        0.25640    0.08790    0.52760    1.000
    O4       O        0.33991    0.99880    0.51704    1.000
    C36      C        0.35746    0.95910    0.41420    1.000
    H33      H        0.34920    0.87320    0.40650    1.000
    H34      H        0.34030    0.99640    0.36560    1.000
    C37      C        0.43122    0.98000    0.45949    1.000
    C38      C        0.47471    0.88410    0.48197    1.000
    H35      H        0.45840    0.80590    0.46980    1.000
    C39      C        0.54292    0.90350    0.52268    1.000
    H36      H        0.57160    0.83800    0.53820    1.000
    C40      C        0.32030    0.00850    0.45037    1.000
    O5       O        0.49387    0.34240    0.16840    1.000
    N9       N        0.52732    0.88350    0.19771    1.000
    N10      N        0.44057    0.16760    0.12495    1.000
    H37      H        0.40240    0.13600    0.09560    1.000
    C41      C        0.49427    0.08940    0.16062    1.000
    C42      C        0.48102    0.96730    0.16293    1.000
    H38      H        0.43690    0.94300    0.13850    1.000
    C43      C        0.59125    0.91890    0.23178    1.000
    H39      H        0.62440    0.86140    0.25600    1.000
    C44      C        0.60909    0.03600    0.23198    1.000
    H40      H        0.65370    0.05690    0.25600    1.000
    C45      C        0.56089    0.12420    0.19643    1.000
    H41      H        0.57260    0.20430    0.19650    1.000
    C46      C        0.37890    0.35670    0.09960    1.000
    H42      H        0.38300    0.42470    0.07280    1.000
    H43      H        0.37650    0.38980    0.14140    1.000
    C47      C        0.31270    0.29910    0.04820    1.000
    C48      C        0.27760    0.24450    0.07520    1.000
    H44      H        0.29570    0.23890    0.12660    1.000
    C49      C        0.28430    0.30300    0.97140    1.000
    H45      H        0.30740    0.33840    0.95090    1.000
    C50      C        0.44300    0.28780    0.13220    1.000
    N11      N        0.39623    0.69280    0.14294    1.000
    N12      N        0.23827    0.56250    0.09835    1.000
    H46      H        0.24650    0.56980    0.14350    1.000
    C51      C        0.28686    0.60770    0.08425    1.000
    C52      C        0.34456    0.64820    0.14628    1.000
    H47      H        0.34760    0.64430    0.19270    1.000
    C53      C        0.39052    0.70030    0.07550    1.000
    H48      H        0.42550    0.73250    0.07190    1.000
    C54      C        0.33466    0.66210    0.01129    1.000
    H49      H        0.33250    0.66810    0.96540    1.000
    C55      C        0.28162    0.61450    0.01518    1.000
    H50      H        0.24360    0.58790    0.97240    1.000
    O6       O        0.16009    0.49880    0.98296    1.000
    C56      C        0.14254    0.45910    0.08580    1.000
    H51      H        0.15080    0.37320    0.09350    1.000
    H52      H        0.15970    0.49640    0.13440    1.000
    C57      C        0.06878    0.48000    0.04051    1.000
    C58      C        0.02529    0.38410    0.01803    1.000
    H53      H        0.04160    0.30590    0.03020    1.000
    C59      C        0.95708    0.40350    0.97732    1.000
    H54      H        0.92840    0.33800    0.96180    1.000
    C60      C        0.17970    0.50850    0.04963    1.000
    O7       O        0.99387    0.84240    0.16840    1.000
    N13      N        0.02732    0.38350    0.19771    1.000
    N14      N        0.94057    0.66760    0.12495    1.000
    H55      H        0.90240    0.63600    0.09560    1.000
    C61      C        0.99427    0.58940    0.16062    1.000
    C62      C        0.98102    0.46730    0.16293    1.000
    H56      H        0.93690    0.44300    0.13850    1.000
    C63      C        0.09125    0.41890    0.23178    1.000
    H57      H        0.12440    0.36140    0.25600    1.000
    C64      C        0.10909    0.53600    0.23198    1.000
    H58      H        0.15370    0.55690    0.25600    1.000
    C65      C        0.06089    0.62420    0.19643    1.000
    H59      H        0.07260    0.70430    0.19650    1.000
    C66      C        0.87890    0.85670    0.09960    1.000
    H60      H        0.88300    0.92470    0.07280    1.000
    H61      H        0.87650    0.88980    0.14140    1.000
    C67      C        0.81270    0.79910    0.04820    1.000
    C68      C        0.77760    0.74450    0.07520    1.000
    H62      H        0.79570    0.73890    0.12660    1.000
    C69      C        0.78430    0.80300    0.97140    1.000
    H63      H        0.80740    0.83840    0.95090    1.000
    C70      C        0.94300    0.78780    0.13220    1.000
    N15      N        0.89623    0.19280    0.14294    1.000
    N16      N        0.73827    0.06250    0.09835    1.000
    H64      H        0.74650    0.06980    0.14350    1.000
    C71      C        0.78686    0.10770    0.08425    1.000
    C72      C        0.84456    0.14820    0.14628    1.000
    H65      H        0.84760    0.14430    0.19270    1.000
    C73      C        0.89052    0.20030    0.07550    1.000
    H66      H        0.92550    0.23250    0.07190    1.000
    C74      C        0.83466    0.16210    0.01129    1.000
    H67      H        0.83250    0.16810    0.96540    1.000
    C75      C        0.78162    0.11450    0.01518    1.000
    H68      H        0.74360    0.08790    0.97240    1.000
    O8       O        0.66009    0.99880    0.98296    1.000
    C76      C        0.64254    0.95910    0.08580    1.000
    H69      H        0.65080    0.87320    0.09350    1.000
    H70      H        0.65970    0.99640    0.13440    1.000
    C77      C        0.56878    0.98000    0.04051    1.000
    C78      C        0.52529    0.88410    0.01803    1.000
    H71      H        0.54160    0.80590    0.03020    1.000
    C79      C        0.45708    0.90350    0.97732    1.000
    H72      H        0.42840    0.83800    0.96180    1.000
    C80      C        0.67970    0.00850    0.04963    1.000
    O9       O        0.49387    0.65760    0.66840    1.000
    N17      N        0.52732    0.11650    0.69771    1.000
    N18      N        0.44057    0.83240    0.62495    1.000
    H73      H        0.40240    0.86400    0.59560    1.000
    C81      C        0.49427    0.91060    0.66062    1.000
    C82      C        0.48102    0.03270    0.66293    1.000
    H74      H        0.43690    0.05700    0.63850    1.000
    C83      C        0.59125    0.08110    0.73178    1.000
    H75      H        0.62440    0.13860    0.75600    1.000
    C84      C        0.60909    0.96400    0.73198    1.000
    H76      H        0.65370    0.94310    0.75600    1.000
    C85      C        0.56089    0.87580    0.69643    1.000
    H77      H        0.57260    0.79570    0.69650    1.000
    C86      C        0.37890    0.64330    0.59960    1.000
    H78      H        0.38300    0.57530    0.57280    1.000
    H79      H        0.37650    0.61020    0.64140    1.000
    C87      C        0.31270    0.70090    0.54820    1.000
    C88      C        0.27760    0.75550    0.57520    1.000
    H80      H        0.29570    0.76110    0.62660    1.000
    C89      C        0.28430    0.69700    0.47140    1.000
    H81      H        0.30740    0.66160    0.45090    1.000
    C90      C        0.44300    0.71220    0.63220    1.000
    N19      N        0.39623    0.30720    0.64294    1.000
    N20      N        0.23827    0.43750    0.59835    1.000
    H82      H        0.24650    0.43020    0.64350    1.000
    C91      C        0.28686    0.39230    0.58425    1.000
    C92      C        0.34456    0.35180    0.64628    1.000
    H83      H        0.34760    0.35570    0.69270    1.000
    C93      C        0.39052    0.29970    0.57550    1.000
    H84      H        0.42550    0.26750    0.57190    1.000
    C94      C        0.33466    0.33790    0.51129    1.000
    H85      H        0.33250    0.33190    0.46540    1.000
    C95      C        0.28162    0.38550    0.51518    1.000
    H86      H        0.24360    0.41210    0.47240    1.000
    O10      O        0.16009    0.50120    0.48296    1.000
    C96      C        0.14254    0.54090    0.58580    1.000
    H87      H        0.15080    0.62680    0.59350    1.000
    H88      H        0.15970    0.50360    0.63440    1.000
    C97      C        0.06878    0.52000    0.54051    1.000
    C98      C        0.02529    0.61590    0.51803    1.000
    H89      H        0.04160    0.69410    0.53020    1.000
    C99      C        0.95708    0.59650    0.47732    1.000
    H90      H        0.92840    0.66200    0.46180    1.000
    C100     C        0.17970    0.49150    0.54963    1.000
    O11      O        0.99387    0.15760    0.66840    1.000
    N21      N        0.02732    0.61650    0.69771    1.000
    N22      N        0.94057    0.33240    0.62495    1.000
    H91      H        0.90240    0.36400    0.59560    1.000
    C101     C        0.99427    0.41060    0.66062    1.000
    C102     C        0.98102    0.53270    0.66293    1.000
    H92      H        0.93690    0.55700    0.63850    1.000
    C103     C        0.09125    0.58110    0.73178    1.000
    H93      H        0.12440    0.63860    0.75600    1.000
    C104     C        0.10909    0.46400    0.73198    1.000
    H94      H        0.15370    0.44310    0.75600    1.000
    C105     C        0.06089    0.37580    0.69643    1.000
    H95      H        0.07260    0.29570    0.69650    1.000
    C106     C        0.87890    0.14330    0.59960    1.000
    H96      H        0.88300    0.07530    0.57280    1.000
    H97      H        0.87650    0.11020    0.64140    1.000
    C107     C        0.81270    0.20090    0.54820    1.000
    C108     C        0.77760    0.25550    0.57520    1.000
    H98      H        0.79570    0.26110    0.62660    1.000
    C109     C        0.78430    0.19700    0.47140    1.000
    H99      H        0.80740    0.16160    0.45090    1.000
    C110     C        0.94300    0.21220    0.63220    1.000
    N23      N        0.89623    0.80720    0.64294    1.000
    N24      N        0.73827    0.93750    0.59835    1.000
    H100     H        0.74650    0.93020    0.64350    1.000
    C111     C        0.78686    0.89230    0.58425    1.000
    C112     C        0.84456    0.85180    0.64628    1.000
    H101     H        0.84760    0.85570    0.69270    1.000
    C113     C        0.89052    0.79970    0.57550    1.000
    H102     H        0.92550    0.76750    0.57190    1.000
    C114     C        0.83466    0.83790    0.51129    1.000
    H103     H        0.83250    0.83190    0.46540    1.000
    C115     C        0.78162    0.88550    0.51518    1.000
    H104     H        0.74360    0.91210    0.47240    1.000
    O12      O        0.66009    0.00120    0.48296    1.000
    C116     C        0.64254    0.04090    0.58580    1.000
    H105     H        0.65080    0.12680    0.59350    1.000
    H106     H        0.65970    0.00360    0.63440    1.000
    C117     C        0.56878    0.02000    0.54051    1.000
    C118     C        0.52529    0.11590    0.51803    1.000
    H107     H        0.54160    0.19410    0.53020    1.000
    C119     C        0.45708    0.09650    0.47732    1.000
    H108     H        0.42840    0.16200    0.46180    1.000
    C120     C        0.67970    0.99150    0.54963    1.000
    O13      O        0.50613    0.65760    0.83160    1.000
    N25      N        0.47268    0.11650    0.80229    1.000
    N26      N        0.55943    0.83240    0.87505    1.000
    H109     H        0.59760    0.86400    0.90440    1.000
    C121     C        0.50573    0.91060    0.83938    1.000
    C122     C        0.51898    0.03270    0.83707    1.000
    H110     H        0.56310    0.05700    0.86150    1.000
    C123     C        0.40875    0.08110    0.76822    1.000
    H111     H        0.37560    0.13860    0.74400    1.000
    C124     C        0.39091    0.96400    0.76802    1.000
    H112     H        0.34630    0.94310    0.74400    1.000
    C125     C        0.43911    0.87580    0.80357    1.000
    H113     H        0.42740    0.79570    0.80350    1.000
    C126     C        0.62110    0.64330    0.90040    1.000
    H114     H        0.61700    0.57530    0.92720    1.000
    H115     H        0.62350    0.61020    0.85860    1.000
    C127     C        0.68730    0.70090    0.95180    1.000
    C128     C        0.72240    0.75550    0.92480    1.000
    H116     H        0.70430    0.76110    0.87340    1.000
    C129     C        0.71570    0.69700    0.02860    1.000
    H117     H        0.69260    0.66160    0.04910    1.000
    C130     C        0.55700    0.71220    0.86780    1.000
    N27      N        0.60377    0.30720    0.85706    1.000
    N28      N        0.76173    0.43750    0.90165    1.000
    H118     H        0.75350    0.43020    0.85650    1.000
    C131     C        0.71314    0.39230    0.91575    1.000
    C132     C        0.65544    0.35180    0.85372    1.000
    H119     H        0.65240    0.35570    0.80730    1.000
    C133     C        0.60948    0.29970    0.92450    1.000
    H120     H        0.57450    0.26750    0.92810    1.000
    C134     C        0.66534    0.33790    0.98871    1.000
    H121     H        0.66750    0.33190    0.03460    1.000
    C135     C        0.71838    0.38550    0.98482    1.000
    H122     H        0.75640    0.41210    0.02760    1.000
    O14      O        0.83991    0.50120    0.01704    1.000
    C136     C        0.85746    0.54090    0.91420    1.000
    H123     H        0.84920    0.62680    0.90650    1.000
    H124     H        0.84030    0.50360    0.86560    1.000
    C137     C        0.93122    0.52000    0.95949    1.000
    C138     C        0.97471    0.61590    0.98197    1.000
    H125     H        0.95840    0.69410    0.96980    1.000
    C139     C        0.04292    0.59650    0.02268    1.000
    H126     H        0.07160    0.66200    0.03820    1.000
    C140     C        0.82030    0.49150    0.95037    1.000
    O15      O        0.00613    0.15760    0.83160    1.000
    N29      N        0.97268    0.61650    0.80229    1.000
    N30      N        0.05943    0.33240    0.87505    1.000
    H127     H        0.09760    0.36400    0.90440    1.000
    C141     C        0.00573    0.41060    0.83938    1.000
    C142     C        0.01898    0.53270    0.83707    1.000
    H128     H        0.06310    0.55700    0.86150    1.000
    C143     C        0.90875    0.58110    0.76822    1.000
    H129     H        0.87560    0.63860    0.74400    1.000
    C144     C        0.89091    0.46400    0.76802    1.000
    H130     H        0.84630    0.44310    0.74400    1.000
    C145     C        0.93911    0.37580    0.80357    1.000
    H131     H        0.92740    0.29570    0.80350    1.000
    C146     C        0.12110    0.14330    0.90040    1.000
    H132     H        0.11700    0.07530    0.92720    1.000
    H133     H        0.12350    0.11020    0.85860    1.000
    C147     C        0.18730    0.20090    0.95180    1.000
    C148     C        0.22240    0.25550    0.92480    1.000
    H134     H        0.20430    0.26110    0.87340    1.000
    C149     C        0.21570    0.19700    0.02860    1.000
    H135     H        0.19260    0.16160    0.04910    1.000
    C150     C        0.05700    0.21220    0.86780    1.000
    N31      N        0.10377    0.80720    0.85706    1.000
    N32      N        0.26173    0.93750    0.90165    1.000
    H136     H        0.25350    0.93020    0.85650    1.000
    C151     C        0.21314    0.89230    0.91575    1.000
    C152     C        0.15544    0.85180    0.85372    1.000
    H137     H        0.15240    0.85570    0.80730    1.000
    C153     C        0.10948    0.79970    0.92450    1.000
    H138     H        0.07450    0.76750    0.92810    1.000
    C154     C        0.16534    0.83790    0.98871    1.000
    H139     H        0.16750    0.83190    0.03460    1.000
    C155     C        0.21838    0.88550    0.98482    1.000
    H140     H        0.25640    0.91210    0.02760    1.000
    O16      O        0.33991    0.00120    0.01704    1.000
    C156     C        0.35746    0.04090    0.91420    1.000
    H141     H        0.34920    0.12680    0.90650    1.000
    H142     H        0.34030    0.00360    0.86560    1.000
    C157     C        0.43122    0.02000    0.95949    1.000
    C158     C        0.47471    0.11590    0.98197    1.000
    H143     H        0.45840    0.19410    0.96980    1.000
    C159     C        0.54292    0.09650    0.02268    1.000
    H144     H        0.57160    0.16200    0.03820    1.000
    C160     C        0.32030    0.99150    0.95037    1.000
    Cd1      Cd       0.50000    0.71802    0.25000    1.000
    Cd2      Cd       0.00000    0.21802    0.25000    1.000
    Cd3      Cd       0.50000    0.28198    0.75000    1.000
    Cd4      Cd       0.00000    0.78198    0.75000    1.000
