# CIF file generated by openbabel 3.1.0, see https://openbabel.org
data_I
_chemical_name_common 'image0'
_cell_length_a 30.438
_cell_length_b 44.985
_cell_length_c 30.3992
_cell_angle_alpha 90
_cell_angle_beta 90
_cell_angle_gamma 90
_space_group_name_H-M_alt 'P 1'
_space_group_name_Hall 'P 1'
loop_
    _symmetry_equiv_pos_as_xyz
    x,y,z
loop_
    _atom_site_label
    _atom_site_type_symbol
    _atom_site_fract_x
    _atom_site_fract_y
    _atom_site_fract_z
    _atom_site_occupancy
    Cu1      Cu       0.49870    0.25012    0.61646    1.000
    N1       N        0.26640    0.45300    0.43840    1.000
    N2       N        0.41810    0.28970    0.59440    1.000
    N3       N        0.52290    0.21120    0.53540    1.000
    N4       N        0.68110    0.04930    0.38570    1.000
    C1       C        0.25760    0.47100    0.41540    1.000
    C2       C        0.28610    0.42890    0.46300    1.000
    C3       C        0.32870    0.41970    0.44910    1.000
    C4       C        0.34740    0.39700    0.47010    1.000
    H1       H        0.37580    0.39060    0.46100    1.000
    C5       C        0.32740    0.38240    0.50410    1.000
    C6       C        0.28470    0.39110    0.51670    1.000
    H2       H        0.27000    0.38010    0.53900    1.000
    C7       C        0.26410    0.41450    0.49800    1.000
    C8       C        0.22130    0.42580    0.51550    1.000
    C9       C        0.22340    0.44810    0.54960    1.000
    C10      C        0.18140    0.45720    0.56990    1.000
    H3       H        0.18140    0.47130    0.59310    1.000
    C11      C        0.14370    0.44580    0.55600    1.000
    C12      C        0.14160    0.42150    0.52530    1.000
    H4       H        0.11470    0.41240    0.51710    1.000
    C13      C        0.18430    0.41190    0.50750    1.000
    C14      C        0.17980    0.38450    0.47840    1.000
    H5       H        0.14890    0.37820    0.47760    1.000
    H6       H        0.18960    0.38930    0.44850    1.000
    H7       H        0.19780    0.36840    0.49020    1.000
    C15      C        0.26680    0.46070    0.56470    1.000
    H8       H        0.26170    0.47540    0.58790    1.000
    H9       H        0.28530    0.44470    0.57610    1.000
    H10      H        0.28160    0.47030    0.53980    1.000
    C16      C        0.09840    0.45590    0.57460    1.000
    H11      H        0.07490    0.44480    0.56000    1.000
    H12      H        0.09750    0.45210    0.60640    1.000
    H13      H        0.09450    0.47720    0.56920    1.000
    C17      C        0.35080    0.43450    0.41020    1.000
    C18      C        0.36040    0.41590    0.37240    1.000
    C19      C        0.38490    0.42810    0.33850    1.000
    H14      H        0.39420    0.41560    0.31510    1.000
    C20      C        0.39660    0.45890    0.33730    1.000
    C21      C        0.39050    0.47360    0.37440    1.000
    H15      H        0.40130    0.49330    0.37610    1.000
    C22      C        0.36870    0.46180    0.41170    1.000
    C23      C        0.36280    0.48200    0.45210    1.000
    H16      H        0.37810    0.50090    0.44720    1.000
    H17      H        0.33140    0.48580    0.45680    1.000
    H18      H        0.37510    0.47220    0.47810    1.000
    C24      C        0.41480    0.47210    0.29770    1.000
    H19      H        0.41630    0.45700    0.27450    1.000
    H20      H        0.39600    0.48850    0.28810    1.000
    H21      H        0.44440    0.47960    0.30390    1.000
    C25      C        0.34490    0.38390    0.36990    1.000
    H22      H        0.32820    0.37900    0.39650    1.000
    H23      H        0.32620    0.38130    0.34400    1.000
    H24      H        0.37040    0.37070    0.36760    1.000
    C26      C        0.34910    0.35700    0.52760    1.000
    C27      C        0.38760    0.34430    0.51010    1.000
    H25      H        0.39820    0.35080    0.48240    1.000
    C28      C        0.40990    0.32270    0.53300    1.000
    C29      C        0.39350    0.31160    0.57210    1.000
    C30      C        0.35460    0.32310    0.59080    1.000
    C31      C        0.33470    0.34600    0.56820    1.000
    C32      C        0.33760    0.31320    0.63420    1.000
    C33      C        0.35860    0.32110    0.67130    1.000
    C34      C        0.34310    0.31390    0.71320    1.000
    H26      H        0.35960    0.31930    0.73850    1.000
    C35      C        0.30660    0.30000    0.71720    1.000
    C36      C        0.28320    0.29190    0.67970    1.000
    H27      H        0.25690    0.28080    0.68350    1.000
    C37      C        0.29650    0.29940    0.63520    1.000
    C38      C        0.26980    0.29260    0.59780    1.000
    H28      H        0.24260    0.28290    0.60750    1.000
    H29      H        0.26270    0.31090    0.58200    1.000
    H30      H        0.28590    0.27910    0.57820    1.000
    C39      C        0.40250    0.33980    0.66910    1.000
    H31      H        0.41320    0.34350    0.69900    1.000
    H32      H        0.42470    0.32860    0.65260    1.000
    H33      H        0.39680    0.35880    0.65430    1.000
    C40      C        0.28960    0.29000    0.76410    1.000
    H34      H        0.26140    0.27970    0.76100    1.000
    H35      H        0.31110    0.27650    0.77750    1.000
    H36      H        0.28590    0.30750    0.78290    1.000
    C41      C        0.45000    0.28890    0.48070    1.000
    C42      C        0.48880    0.27670    0.46460    1.000
    H37      H        0.48780    0.26240    0.44160    1.000
    C43      C        0.52890    0.28530    0.48220    1.000
    C44      C        0.53040    0.30620    0.51580    1.000
    H38      H        0.55780    0.31220    0.52790    1.000
    C45      C        0.49160    0.31850    0.53190    1.000
    C46      C        0.45150    0.30980    0.51440    1.000
    C47      C        0.40580    0.27930    0.45890    1.000
    H39      H        0.38130    0.28950    0.47340    1.000
    H40      H        0.40620    0.28450    0.42760    1.000
    H41      H        0.40200    0.25770    0.46210    1.000
    C48      C        0.57100    0.27110    0.46150    1.000
    H42      H        0.56240    0.25700    0.43840    1.000
    H43      H        0.58950    0.28670    0.44870    1.000
    H44      H        0.58760    0.26060    0.48440    1.000
    C49      C        0.49270    0.33960    0.56910    1.000
    H45      H        0.46260    0.34600    0.57610    1.000
    H46      H        0.50570    0.32990    0.59490    1.000
    H47      H        0.51030    0.35700    0.56100    1.000
    C50      C        0.44550    0.27380    0.60580    1.000
    C51      C        0.51200    0.22740    0.56350    1.000
    C52      C        0.54430    0.18830    0.51200    1.000
    C53      C        0.58500    0.17890    0.53020    1.000
    C54      C        0.60620    0.15680    0.50690    1.000
    H48      H        0.63360    0.14990    0.51780    1.000
    C55      C        0.59020    0.14410    0.46870    1.000
    C56      C        0.55010    0.15490    0.45110    1.000
    H49      H        0.53830    0.14680    0.42480    1.000
    C57      C        0.52840    0.17750    0.47290    1.000
    C58      C        0.48490    0.18800    0.45410    1.000
    C59      C        0.48080    0.20190    0.41510    1.000
    C60      C        0.43960    0.21080    0.39900    1.000
    H50      H        0.43780    0.22260    0.37310    1.000
    C61      C        0.40180    0.20250    0.42050    1.000
    C62      C        0.40520    0.18630    0.45840    1.000
    H51      H        0.37900    0.18050    0.47310    1.000
    C63      C        0.44410    0.17830    0.47590    1.000
    C64      C        0.44610    0.15850    0.51430    1.000
    H52      H        0.47690    0.15510    0.52240    1.000
    H53      H        0.43060    0.16770    0.53900    1.000
    H54      H        0.43220    0.13950    0.50700    1.000
    C65      C        0.52240    0.21000    0.39020    1.000
    H55      H        0.51450    0.21990    0.36260    1.000
    H56      H        0.54030    0.22340    0.40810    1.000
    H57      H        0.53910    0.19190    0.38370    1.000
    C66      C        0.36270    0.21140    0.39260    1.000
    H58      H        0.37290    0.22310    0.36740    1.000
    H59      H        0.34770    0.19350    0.38200    1.000
    H60      H        0.34230    0.22320    0.41030    1.000
    C67      C        0.60470    0.19040    0.57290    1.000
    C68      C        0.58420    0.18220    0.61040    1.000
    C69      C        0.54450    0.16100    0.61240    1.000
    H61      H        0.53540    0.15840    0.64310    1.000
    H62      H        0.52010    0.16950    0.59550    1.000
    H63      H        0.55270    0.14170    0.59990    1.000
    C70      C        0.60310    0.19150    0.65010    1.000
    H64      H        0.58920    0.18650    0.67710    1.000
    C71      C        0.64340    0.20850    0.65110    1.000
    C72      C        0.65480    0.21780    0.61470    1.000
    H65      H        0.67410    0.23440    0.61450    1.000
    C73      C        0.64210    0.20620    0.57280    1.000
    C74      C        0.66450    0.21580    0.52940    1.000
    H66      H        0.69120    0.22710    0.53610    1.000
    H67      H        0.67210    0.19820    0.51220    1.000
    H68      H        0.64430    0.22830    0.51250    1.000
    C75      C        0.66830    0.21680    0.68970    1.000
    H69      H        0.65510    0.20770    0.71580    1.000
    H70      H        0.69870    0.20990    0.68650    1.000
    H71      H        0.66810    0.23850    0.69290    1.000
    C76      C        0.61330    0.12000    0.44520    1.000
    C77      C        0.60560    0.11140    0.40510    1.000
    H72      H        0.58350    0.12200    0.38940    1.000
    C78      C        0.62620    0.08880    0.38310    1.000
    C79      C        0.66040    0.07350    0.40500    1.000
    C80      C        0.67160    0.08180    0.44780    1.000
    C81      C        0.64650    0.10410    0.46880    1.000
    H73      H        0.65180    0.10850    0.49890    1.000
    C82      C        0.70810    0.06860    0.47210    1.000
    C83      C        0.70790    0.03970    0.48550    1.000
    C84      C        0.74280    0.03040    0.51330    1.000
    H74      H        0.73920    0.01280    0.53030    1.000
    C85      C        0.78090    0.04550    0.51650    1.000
    C86      C        0.78070    0.07360    0.50400    1.000
    H75      H        0.80550    0.08550    0.51110    1.000
    C87      C        0.74660    0.08670    0.48100    1.000
    C88      C        0.75010    0.11740    0.46460    1.000
    H76      H        0.72300    0.12280    0.44920    1.000
    H77      H        0.75480    0.13090    0.48940    1.000
    H78      H        0.77500    0.11880    0.44420    1.000
    C89      C        0.66970    0.01880    0.48010    1.000
    H79      H        0.67740    0.99930    0.49220    1.000
    H80      H        0.64410    0.02680    0.49570    1.000
    H81      H        0.66270    0.01680    0.44870    1.000
    C90      C        0.82420    0.03170    0.53870    1.000
    H82      H        0.81890    0.01080    0.54600    1.000
    H83      H        0.84880    0.03310    0.51800    1.000
    H84      H        0.83130    0.04280    0.56550    1.000
    C91      C        0.60710    0.07820    0.33980    1.000
    C92      C        0.61670    0.09190    0.30000    1.000
    C93      C        0.59710    0.08190    0.26140    1.000
    H85      H        0.60370    0.09130    0.23420    1.000
    C94      C        0.56790    0.05820    0.26270    1.000
    C95      C        0.55830    0.04450    0.30250    1.000
    H86      H        0.53830    0.02820    0.30340    1.000
    C96      C        0.57790    0.05450    0.34100    1.000
    C97      C        0.64480    0.11850    0.30150    1.000
    H87      H        0.63810    0.13130    0.27630    1.000
    H88      H        0.67570    0.11250    0.30030    1.000
    H89      H        0.63930    0.12940    0.32890    1.000
    C98      C        0.56740    0.03760    0.38090    1.000
    H90      H        0.55580    0.05250    0.39840    1.000
    H91      H        0.54620    0.02120    0.37530    1.000
    H92      H        0.59370    0.02800    0.39540    1.000
    C99      C        0.54710    0.04910    0.21760    1.000
    H93      H        0.52710    0.03220    0.22210    1.000
    H94      H        0.53070    0.06590    0.20550    1.000
    H95      H        0.57040    0.04330    0.19710    1.000
    C100     C        0.70500    0.02970    0.37740    1.000
    Cu2      Cu       0.49870    0.75012    0.11646    1.000
    N5       N        0.26640    0.95300    0.93840    1.000
    N6       N        0.41810    0.78970    0.09440    1.000
    N7       N        0.52290    0.71120    0.03540    1.000
    N8       N        0.68110    0.54930    0.88570    1.000
    C101     C        0.25760    0.97100    0.91540    1.000
    C102     C        0.28610    0.92890    0.96300    1.000
    C103     C        0.32870    0.91970    0.94910    1.000
    C104     C        0.34740    0.89700    0.97010    1.000
    H96      H        0.37580    0.89060    0.96100    1.000
    C105     C        0.32740    0.88240    0.00410    1.000
    C106     C        0.28470    0.89110    0.01670    1.000
    H97      H        0.27000    0.88010    0.03900    1.000
    C107     C        0.26410    0.91450    0.99800    1.000
    C108     C        0.22130    0.92580    0.01550    1.000
    C109     C        0.22340    0.94810    0.04960    1.000
    C110     C        0.18140    0.95720    0.06990    1.000
    H98      H        0.18140    0.97130    0.09310    1.000
    C111     C        0.14370    0.94580    0.05600    1.000
    C112     C        0.14160    0.92150    0.02530    1.000
    H99      H        0.11470    0.91240    0.01710    1.000
    C113     C        0.18430    0.91190    0.00750    1.000
    C114     C        0.17980    0.88450    0.97840    1.000
    H100     H        0.14890    0.87820    0.97760    1.000
    H101     H        0.18960    0.88930    0.94850    1.000
    H102     H        0.19780    0.86840    0.99020    1.000
    C115     C        0.26680    0.96070    0.06470    1.000
    H103     H        0.26170    0.97540    0.08790    1.000
    H104     H        0.28530    0.94470    0.07610    1.000
    H105     H        0.28160    0.97030    0.03980    1.000
    C116     C        0.09840    0.95590    0.07460    1.000
    H106     H        0.07490    0.94480    0.06000    1.000
    H107     H        0.09750    0.95210    0.10640    1.000
    H108     H        0.09450    0.97720    0.06920    1.000
    C117     C        0.35080    0.93450    0.91020    1.000
    C118     C        0.36040    0.91590    0.87240    1.000
    C119     C        0.38490    0.92810    0.83850    1.000
    H109     H        0.39420    0.91560    0.81510    1.000
    C120     C        0.39660    0.95890    0.83730    1.000
    C121     C        0.39050    0.97360    0.87440    1.000
    H110     H        0.40130    0.99330    0.87610    1.000
    C122     C        0.36870    0.96180    0.91170    1.000
    C123     C        0.36280    0.98200    0.95210    1.000
    H111     H        0.37810    0.00090    0.94720    1.000
    H112     H        0.33140    0.98580    0.95680    1.000
    H113     H        0.37510    0.97220    0.97810    1.000
    C124     C        0.41480    0.97210    0.79770    1.000
    H114     H        0.41630    0.95700    0.77450    1.000
    H115     H        0.39600    0.98850    0.78810    1.000
    H116     H        0.44440    0.97960    0.80390    1.000
    C125     C        0.34490    0.88390    0.86990    1.000
    H117     H        0.32820    0.87900    0.89650    1.000
    H118     H        0.32620    0.88130    0.84400    1.000
    H119     H        0.37040    0.87070    0.86760    1.000
    C126     C        0.34910    0.85700    0.02760    1.000
    C127     C        0.38760    0.84430    0.01010    1.000
    H120     H        0.39820    0.85080    0.98240    1.000
    C128     C        0.40990    0.82270    0.03300    1.000
    C129     C        0.39350    0.81160    0.07210    1.000
    C130     C        0.35460    0.82310    0.09080    1.000
    C131     C        0.33470    0.84600    0.06820    1.000
    C132     C        0.33760    0.81320    0.13420    1.000
    C133     C        0.35860    0.82110    0.17130    1.000
    C134     C        0.34310    0.81390    0.21320    1.000
    H121     H        0.35960    0.81930    0.23850    1.000
    C135     C        0.30660    0.80000    0.21720    1.000
    C136     C        0.28320    0.79190    0.17970    1.000
    H122     H        0.25690    0.78080    0.18350    1.000
    C137     C        0.29650    0.79940    0.13520    1.000
    C138     C        0.26980    0.79260    0.09780    1.000
    H123     H        0.24260    0.78290    0.10750    1.000
    H124     H        0.26270    0.81090    0.08200    1.000
    H125     H        0.28590    0.77910    0.07820    1.000
    C139     C        0.40250    0.83980    0.16910    1.000
    H126     H        0.41320    0.84350    0.19900    1.000
    H127     H        0.42470    0.82860    0.15260    1.000
    H128     H        0.39680    0.85880    0.15430    1.000
    C140     C        0.28960    0.79000    0.26410    1.000
    H129     H        0.26140    0.77970    0.26100    1.000
    H130     H        0.31110    0.77650    0.27750    1.000
    H131     H        0.28590    0.80750    0.28290    1.000
    C141     C        0.45000    0.78890    0.98070    1.000
    C142     C        0.48880    0.77670    0.96460    1.000
    H132     H        0.48780    0.76240    0.94160    1.000
    C143     C        0.52890    0.78530    0.98220    1.000
    C144     C        0.53040    0.80620    0.01580    1.000
    H133     H        0.55780    0.81220    0.02790    1.000
    C145     C        0.49160    0.81850    0.03190    1.000
    C146     C        0.45150    0.80980    0.01440    1.000
    C147     C        0.40580    0.77930    0.95890    1.000
    H134     H        0.38130    0.78950    0.97340    1.000
    H135     H        0.40620    0.78450    0.92760    1.000
    H136     H        0.40200    0.75770    0.96210    1.000
    C148     C        0.57100    0.77110    0.96150    1.000
    H137     H        0.56240    0.75700    0.93840    1.000
    H138     H        0.58950    0.78670    0.94870    1.000
    H139     H        0.58760    0.76060    0.98440    1.000
    C149     C        0.49270    0.83960    0.06910    1.000
    H140     H        0.46260    0.84600    0.07610    1.000
    H141     H        0.50570    0.82990    0.09490    1.000
    H142     H        0.51030    0.85700    0.06100    1.000
    C150     C        0.44550    0.77380    0.10580    1.000
    C151     C        0.51200    0.72740    0.06350    1.000
    C152     C        0.54430    0.68830    0.01200    1.000
    C153     C        0.58500    0.67890    0.03020    1.000
    C154     C        0.60620    0.65680    0.00690    1.000
    H143     H        0.63360    0.64990    0.01780    1.000
    C155     C        0.59020    0.64410    0.96870    1.000
    C156     C        0.55010    0.65490    0.95110    1.000
    H144     H        0.53830    0.64680    0.92480    1.000
    C157     C        0.52840    0.67750    0.97290    1.000
    C158     C        0.48490    0.68800    0.95410    1.000
    C159     C        0.48080    0.70190    0.91510    1.000
    C160     C        0.43960    0.71080    0.89900    1.000
    H145     H        0.43780    0.72260    0.87310    1.000
    C161     C        0.40180    0.70250    0.92050    1.000
    C162     C        0.40520    0.68630    0.95840    1.000
    H146     H        0.37900    0.68050    0.97310    1.000
    C163     C        0.44410    0.67830    0.97590    1.000
    C164     C        0.44610    0.65850    0.01430    1.000
    H147     H        0.47690    0.65510    0.02240    1.000
    H148     H        0.43060    0.66770    0.03900    1.000
    H149     H        0.43220    0.63950    0.00700    1.000
    C165     C        0.52240    0.71000    0.89020    1.000
    H150     H        0.51450    0.71990    0.86260    1.000
    H151     H        0.54030    0.72340    0.90810    1.000
    H152     H        0.53910    0.69190    0.88370    1.000
    C166     C        0.36270    0.71140    0.89260    1.000
    H153     H        0.37290    0.72310    0.86740    1.000
    H154     H        0.34770    0.69350    0.88200    1.000
    H155     H        0.34230    0.72320    0.91030    1.000
    C167     C        0.60470    0.69040    0.07290    1.000
    C168     C        0.58420    0.68220    0.11040    1.000
    C169     C        0.54450    0.66100    0.11240    1.000
    H156     H        0.53540    0.65840    0.14310    1.000
    H157     H        0.52010    0.66950    0.09550    1.000
    H158     H        0.55270    0.64170    0.09990    1.000
    C170     C        0.60310    0.69150    0.15010    1.000
    H159     H        0.58920    0.68650    0.17710    1.000
    C171     C        0.64340    0.70850    0.15110    1.000
    C172     C        0.65480    0.71780    0.11470    1.000
    H160     H        0.67410    0.73440    0.11450    1.000
    C173     C        0.64210    0.70620    0.07280    1.000
    C174     C        0.66450    0.71580    0.02940    1.000
    H161     H        0.69120    0.72710    0.03610    1.000
    H162     H        0.67210    0.69820    0.01220    1.000
    H163     H        0.64430    0.72830    0.01250    1.000
    C175     C        0.66830    0.71680    0.18970    1.000
    H164     H        0.65510    0.70770    0.21580    1.000
    H165     H        0.69870    0.70990    0.18650    1.000
    H166     H        0.66810    0.73850    0.19290    1.000
    C176     C        0.61330    0.62000    0.94520    1.000
    C177     C        0.60560    0.61140    0.90510    1.000
    H167     H        0.58350    0.62200    0.88940    1.000
    C178     C        0.62620    0.58880    0.88310    1.000
    C179     C        0.66040    0.57350    0.90500    1.000
    C180     C        0.67160    0.58180    0.94780    1.000
    C181     C        0.64650    0.60410    0.96880    1.000
    H168     H        0.65180    0.60850    0.99890    1.000
    C182     C        0.70810    0.56860    0.97210    1.000
    C183     C        0.70790    0.53970    0.98550    1.000
    C184     C        0.74280    0.53040    0.01330    1.000
    H169     H        0.73920    0.51280    0.03030    1.000
    C185     C        0.78090    0.54550    0.01650    1.000
    C186     C        0.78070    0.57360    0.00400    1.000
    H170     H        0.80550    0.58550    0.01110    1.000
    C187     C        0.74660    0.58670    0.98100    1.000
    C188     C        0.75010    0.61740    0.96460    1.000
    H171     H        0.72300    0.62280    0.94920    1.000
    H172     H        0.75480    0.63090    0.98940    1.000
    H173     H        0.77500    0.61880    0.94420    1.000
    C189     C        0.66970    0.51880    0.98010    1.000
    H174     H        0.67740    0.49930    0.99220    1.000
    H175     H        0.64410    0.52680    0.99570    1.000
    H176     H        0.66270    0.51680    0.94870    1.000
    C190     C        0.82420    0.53170    0.03870    1.000
    H177     H        0.81890    0.51080    0.04600    1.000
    H178     H        0.84880    0.53310    0.01800    1.000
    H179     H        0.83130    0.54280    0.06550    1.000
    C191     C        0.60710    0.57820    0.83980    1.000
    C192     C        0.61670    0.59190    0.80000    1.000
    C193     C        0.59710    0.58190    0.76140    1.000
    H180     H        0.60370    0.59130    0.73420    1.000
    C194     C        0.56790    0.55820    0.76270    1.000
    C195     C        0.55830    0.54450    0.80250    1.000
    H181     H        0.53830    0.52820    0.80340    1.000
    C196     C        0.57790    0.55450    0.84100    1.000
    C197     C        0.64480    0.61850    0.80150    1.000
    H182     H        0.63810    0.63130    0.77630    1.000
    H183     H        0.67570    0.61250    0.80030    1.000
    H184     H        0.63930    0.62940    0.82890    1.000
    C198     C        0.56740    0.53760    0.88090    1.000
    H185     H        0.55580    0.55250    0.89840    1.000
    H186     H        0.54620    0.52120    0.87530    1.000
    H187     H        0.59370    0.52800    0.89540    1.000
    C199     C        0.54710    0.54910    0.71760    1.000
    H188     H        0.52710    0.53220    0.72210    1.000
    H189     H        0.53070    0.56590    0.70550    1.000
    H190     H        0.57040    0.54330    0.69710    1.000
    C200     C        0.70500    0.52970    0.87740    1.000
    Cu3      Cu       0.99870    0.25012    0.11646    1.000
    N9       N        0.76640    0.45300    0.93840    1.000
    N10      N        0.91810    0.28970    0.09440    1.000
    N11      N        0.02290    0.21120    0.03540    1.000
    N12      N        0.18110    0.04930    0.88570    1.000
    C201     C        0.75760    0.47100    0.91540    1.000
    C202     C        0.78610    0.42890    0.96300    1.000
    C203     C        0.82870    0.41970    0.94910    1.000
    C204     C        0.84740    0.39700    0.97010    1.000
    H191     H        0.87580    0.39060    0.96100    1.000
    C205     C        0.82740    0.38240    0.00410    1.000
    C206     C        0.78470    0.39110    0.01670    1.000
    H192     H        0.77000    0.38010    0.03900    1.000
    C207     C        0.76410    0.41450    0.99800    1.000
    C208     C        0.72130    0.42580    0.01550    1.000
    C209     C        0.72340    0.44810    0.04960    1.000
    C210     C        0.68140    0.45720    0.06990    1.000
    H193     H        0.68140    0.47130    0.09310    1.000
    C211     C        0.64370    0.44580    0.05600    1.000
    C212     C        0.64160    0.42150    0.02530    1.000
    H194     H        0.61470    0.41240    0.01710    1.000
    C213     C        0.68430    0.41190    0.00750    1.000
    C214     C        0.67980    0.38450    0.97840    1.000
    H195     H        0.64890    0.37820    0.97760    1.000
    H196     H        0.68960    0.38930    0.94850    1.000
    H197     H        0.69780    0.36840    0.99020    1.000
    C215     C        0.76680    0.46070    0.06470    1.000
    H198     H        0.76170    0.47540    0.08790    1.000
    H199     H        0.78530    0.44470    0.07610    1.000
    H200     H        0.78160    0.47030    0.03980    1.000
    C216     C        0.59840    0.45590    0.07460    1.000
    H201     H        0.57490    0.44480    0.06000    1.000
    H202     H        0.59750    0.45210    0.10640    1.000
    H203     H        0.59450    0.47720    0.06920    1.000
    C217     C        0.85080    0.43450    0.91020    1.000
    C218     C        0.86040    0.41590    0.87240    1.000
    C219     C        0.88490    0.42810    0.83850    1.000
    H204     H        0.89420    0.41560    0.81510    1.000
    C220     C        0.89660    0.45890    0.83730    1.000
    C221     C        0.89050    0.47360    0.87440    1.000
    H205     H        0.90130    0.49330    0.87610    1.000
    C222     C        0.86870    0.46180    0.91170    1.000
    C223     C        0.86280    0.48200    0.95210    1.000
    H206     H        0.87810    0.50090    0.94720    1.000
    H207     H        0.83140    0.48580    0.95680    1.000
    H208     H        0.87510    0.47220    0.97810    1.000
    C224     C        0.91480    0.47210    0.79770    1.000
    H209     H        0.91630    0.45700    0.77450    1.000
    H210     H        0.89600    0.48850    0.78810    1.000
    H211     H        0.94440    0.47960    0.80390    1.000
    C225     C        0.84490    0.38390    0.86990    1.000
    H212     H        0.82820    0.37900    0.89650    1.000
    H213     H        0.82620    0.38130    0.84400    1.000
    H214     H        0.87040    0.37070    0.86760    1.000
    C226     C        0.84910    0.35700    0.02760    1.000
    C227     C        0.88760    0.34430    0.01010    1.000
    H215     H        0.89820    0.35080    0.98240    1.000
    C228     C        0.90990    0.32270    0.03300    1.000
    C229     C        0.89350    0.31160    0.07210    1.000
    C230     C        0.85460    0.32310    0.09080    1.000
    C231     C        0.83470    0.34600    0.06820    1.000
    C232     C        0.83760    0.31320    0.13420    1.000
    C233     C        0.85860    0.32110    0.17130    1.000
    C234     C        0.84310    0.31390    0.21320    1.000
    H216     H        0.85960    0.31930    0.23850    1.000
    C235     C        0.80660    0.30000    0.21720    1.000
    C236     C        0.78320    0.29190    0.17970    1.000
    H217     H        0.75690    0.28080    0.18350    1.000
    C237     C        0.79650    0.29940    0.13520    1.000
    C238     C        0.76980    0.29260    0.09780    1.000
    H218     H        0.74260    0.28290    0.10750    1.000
    H219     H        0.76270    0.31090    0.08200    1.000
    H220     H        0.78590    0.27910    0.07820    1.000
    C239     C        0.90250    0.33980    0.16910    1.000
    H221     H        0.91320    0.34350    0.19900    1.000
    H222     H        0.92470    0.32860    0.15260    1.000
    H223     H        0.89680    0.35880    0.15430    1.000
    C240     C        0.78960    0.29000    0.26410    1.000
    H224     H        0.76140    0.27970    0.26100    1.000
    H225     H        0.81110    0.27650    0.27750    1.000
    H226     H        0.78590    0.30750    0.28290    1.000
    C241     C        0.95000    0.28890    0.98070    1.000
    C242     C        0.98880    0.27670    0.96460    1.000
    H227     H        0.98780    0.26240    0.94160    1.000
    C243     C        0.02890    0.28530    0.98220    1.000
    C244     C        0.03040    0.30620    0.01580    1.000
    H228     H        0.05780    0.31220    0.02790    1.000
    C245     C        0.99160    0.31850    0.03190    1.000
    C246     C        0.95150    0.30980    0.01440    1.000
    C247     C        0.90580    0.27930    0.95890    1.000
    H229     H        0.88130    0.28950    0.97340    1.000
    H230     H        0.90620    0.28450    0.92760    1.000
    H231     H        0.90200    0.25770    0.96210    1.000
    C248     C        0.07100    0.27110    0.96150    1.000
    H232     H        0.06240    0.25700    0.93840    1.000
    H233     H        0.08950    0.28670    0.94870    1.000
    H234     H        0.08760    0.26060    0.98440    1.000
    C249     C        0.99270    0.33960    0.06910    1.000
    H235     H        0.96260    0.34600    0.07610    1.000
    H236     H        0.00570    0.32990    0.09490    1.000
    H237     H        0.01030    0.35700    0.06100    1.000
    C250     C        0.94550    0.27380    0.10580    1.000
    C251     C        0.01200    0.22740    0.06350    1.000
    C252     C        0.04430    0.18830    0.01200    1.000
    C253     C        0.08500    0.17890    0.03020    1.000
    C254     C        0.10620    0.15680    0.00690    1.000
    H238     H        0.13360    0.14990    0.01780    1.000
    C255     C        0.09020    0.14410    0.96870    1.000
    C256     C        0.05010    0.15490    0.95110    1.000
    H239     H        0.03830    0.14680    0.92480    1.000
    C257     C        0.02840    0.17750    0.97290    1.000
    C258     C        0.98490    0.18800    0.95410    1.000
    C259     C        0.98080    0.20190    0.91510    1.000
    C260     C        0.93960    0.21080    0.89900    1.000
    H240     H        0.93780    0.22260    0.87310    1.000
    C261     C        0.90180    0.20250    0.92050    1.000
    C262     C        0.90520    0.18630    0.95840    1.000
    H241     H        0.87900    0.18050    0.97310    1.000
    C263     C        0.94410    0.17830    0.97590    1.000
    C264     C        0.94610    0.15850    0.01430    1.000
    H242     H        0.97690    0.15510    0.02240    1.000
    H243     H        0.93060    0.16770    0.03900    1.000
    H244     H        0.93220    0.13950    0.00700    1.000
    C265     C        0.02240    0.21000    0.89020    1.000
    H245     H        0.01450    0.21990    0.86260    1.000
    H246     H        0.04030    0.22340    0.90810    1.000
    H247     H        0.03910    0.19190    0.88370    1.000
    C266     C        0.86270    0.21140    0.89260    1.000
    H248     H        0.87290    0.22310    0.86740    1.000
    H249     H        0.84770    0.19350    0.88200    1.000
    H250     H        0.84230    0.22320    0.91030    1.000
    C267     C        0.10470    0.19040    0.07290    1.000
    C268     C        0.08420    0.18220    0.11040    1.000
    C269     C        0.04450    0.16100    0.11240    1.000
    H251     H        0.03540    0.15840    0.14310    1.000
    H252     H        0.02010    0.16950    0.09550    1.000
    H253     H        0.05270    0.14170    0.09990    1.000
    C270     C        0.10310    0.19150    0.15010    1.000
    H254     H        0.08920    0.18650    0.17710    1.000
    C271     C        0.14340    0.20850    0.15110    1.000
    C272     C        0.15480    0.21780    0.11470    1.000
    H255     H        0.17410    0.23440    0.11450    1.000
    C273     C        0.14210    0.20620    0.07280    1.000
    C274     C        0.16450    0.21580    0.02940    1.000
    H256     H        0.19120    0.22710    0.03610    1.000
    H257     H        0.17210    0.19820    0.01220    1.000
    H258     H        0.14430    0.22830    0.01250    1.000
    C275     C        0.16830    0.21680    0.18970    1.000
    H259     H        0.15510    0.20770    0.21580    1.000
    H260     H        0.19870    0.20990    0.18650    1.000
    H261     H        0.16810    0.23850    0.19290    1.000
    C276     C        0.11330    0.12000    0.94520    1.000
    C277     C        0.10560    0.11140    0.90510    1.000
    H262     H        0.08350    0.12200    0.88940    1.000
    C278     C        0.12620    0.08880    0.88310    1.000
    C279     C        0.16040    0.07350    0.90500    1.000
    C280     C        0.17160    0.08180    0.94780    1.000
    C281     C        0.14650    0.10410    0.96880    1.000
    H263     H        0.15180    0.10850    0.99890    1.000
    C282     C        0.20810    0.06860    0.97210    1.000
    C283     C        0.20790    0.03970    0.98550    1.000
    C284     C        0.24280    0.03040    0.01330    1.000
    H264     H        0.23920    0.01280    0.03030    1.000
    C285     C        0.28090    0.04550    0.01650    1.000
    C286     C        0.28070    0.07360    0.00400    1.000
    H265     H        0.30550    0.08550    0.01110    1.000
    C287     C        0.24660    0.08670    0.98100    1.000
    C288     C        0.25010    0.11740    0.96460    1.000
    H266     H        0.22300    0.12280    0.94920    1.000
    H267     H        0.25480    0.13090    0.98940    1.000
    H268     H        0.27500    0.11880    0.94420    1.000
    C289     C        0.16970    0.01880    0.98010    1.000
    H269     H        0.17740    0.99930    0.99220    1.000
    H270     H        0.14410    0.02680    0.99570    1.000
    H271     H        0.16270    0.01680    0.94870    1.000
    C290     C        0.32420    0.03170    0.03870    1.000
    H272     H        0.31890    0.01080    0.04600    1.000
    H273     H        0.34880    0.03310    0.01800    1.000
    H274     H        0.33130    0.04280    0.06550    1.000
    C291     C        0.10710    0.07820    0.83980    1.000
    C292     C        0.11670    0.09190    0.80000    1.000
    C293     C        0.09710    0.08190    0.76140    1.000
    H275     H        0.10370    0.09130    0.73420    1.000
    C294     C        0.06790    0.05820    0.76270    1.000
    C295     C        0.05830    0.04450    0.80250    1.000
    H276     H        0.03830    0.02820    0.80340    1.000
    C296     C        0.07790    0.05450    0.84100    1.000
    C297     C        0.14480    0.11850    0.80150    1.000
    H277     H        0.13810    0.13130    0.77630    1.000
    H278     H        0.17570    0.11250    0.80030    1.000
    H279     H        0.13930    0.12940    0.82890    1.000
    C298     C        0.06740    0.03760    0.88090    1.000
    H280     H        0.05580    0.05250    0.89840    1.000
    H281     H        0.04620    0.02120    0.87530    1.000
    H282     H        0.09370    0.02800    0.89540    1.000
    C299     C        0.04710    0.04910    0.71760    1.000
    H283     H        0.02710    0.03220    0.72210    1.000
    H284     H        0.03070    0.06590    0.70550    1.000
    H285     H        0.07040    0.04330    0.69710    1.000
    C300     C        0.20500    0.02970    0.87740    1.000
    Cu4      Cu       0.99870    0.75012    0.61646    1.000
    N13      N        0.76640    0.95300    0.43840    1.000
    N14      N        0.91810    0.78970    0.59440    1.000
    N15      N        0.02290    0.71120    0.53540    1.000
    N16      N        0.18110    0.54930    0.38570    1.000
    C301     C        0.75760    0.97100    0.41540    1.000
    C302     C        0.78610    0.92890    0.46300    1.000
    C303     C        0.82870    0.91970    0.44910    1.000
    C304     C        0.84740    0.89700    0.47010    1.000
    H286     H        0.87580    0.89060    0.46100    1.000
    C305     C        0.82740    0.88240    0.50410    1.000
    C306     C        0.78470    0.89110    0.51670    1.000
    H287     H        0.77000    0.88010    0.53900    1.000
    C307     C        0.76410    0.91450    0.49800    1.000
    C308     C        0.72130    0.92580    0.51550    1.000
    C309     C        0.72340    0.94810    0.54960    1.000
    C310     C        0.68140    0.95720    0.56990    1.000
    H288     H        0.68140    0.97130    0.59310    1.000
    C311     C        0.64370    0.94580    0.55600    1.000
    C312     C        0.64160    0.92150    0.52530    1.000
    H289     H        0.61470    0.91240    0.51710    1.000
    C313     C        0.68430    0.91190    0.50750    1.000
    C314     C        0.67980    0.88450    0.47840    1.000
    H290     H        0.64890    0.87820    0.47760    1.000
    H291     H        0.68960    0.88930    0.44850    1.000
    H292     H        0.69780    0.86840    0.49020    1.000
    C315     C        0.76680    0.96070    0.56470    1.000
    H293     H        0.76170    0.97540    0.58790    1.000
    H294     H        0.78530    0.94470    0.57610    1.000
    H295     H        0.78160    0.97030    0.53980    1.000
    C316     C        0.59840    0.95590    0.57460    1.000
    H296     H        0.57490    0.94480    0.56000    1.000
    H297     H        0.59750    0.95210    0.60640    1.000
    H298     H        0.59450    0.97720    0.56920    1.000
    C317     C        0.85080    0.93450    0.41020    1.000
    C318     C        0.86040    0.91590    0.37240    1.000
    C319     C        0.88490    0.92810    0.33850    1.000
    H299     H        0.89420    0.91560    0.31510    1.000
    C320     C        0.89660    0.95890    0.33730    1.000
    C321     C        0.89050    0.97360    0.37440    1.000
    H300     H        0.90130    0.99330    0.37610    1.000
    C322     C        0.86870    0.96180    0.41170    1.000
    C323     C        0.86280    0.98200    0.45210    1.000
    H301     H        0.87810    0.00090    0.44720    1.000
    H302     H        0.83140    0.98580    0.45680    1.000
    H303     H        0.87510    0.97220    0.47810    1.000
    C324     C        0.91480    0.97210    0.29770    1.000
    H304     H        0.91630    0.95700    0.27450    1.000
    H305     H        0.89600    0.98850    0.28810    1.000
    H306     H        0.94440    0.97960    0.30390    1.000
    C325     C        0.84490    0.88390    0.36990    1.000
    H307     H        0.82820    0.87900    0.39650    1.000
    H308     H        0.82620    0.88130    0.34400    1.000
    H309     H        0.87040    0.87070    0.36760    1.000
    C326     C        0.84910    0.85700    0.52760    1.000
    C327     C        0.88760    0.84430    0.51010    1.000
    H310     H        0.89820    0.85080    0.48240    1.000
    C328     C        0.90990    0.82270    0.53300    1.000
    C329     C        0.89350    0.81160    0.57210    1.000
    C330     C        0.85460    0.82310    0.59080    1.000
    C331     C        0.83470    0.84600    0.56820    1.000
    C332     C        0.83760    0.81320    0.63420    1.000
    C333     C        0.85860    0.82110    0.67130    1.000
    C334     C        0.84310    0.81390    0.71320    1.000
    H311     H        0.85960    0.81930    0.73850    1.000
    C335     C        0.80660    0.80000    0.71720    1.000
    C336     C        0.78320    0.79190    0.67970    1.000
    H312     H        0.75690    0.78080    0.68350    1.000
    C337     C        0.79650    0.79940    0.63520    1.000
    C338     C        0.76980    0.79260    0.59780    1.000
    H313     H        0.74260    0.78290    0.60750    1.000
    H314     H        0.76270    0.81090    0.58200    1.000
    H315     H        0.78590    0.77910    0.57820    1.000
    C339     C        0.90250    0.83980    0.66910    1.000
    H316     H        0.91320    0.84350    0.69900    1.000
    H317     H        0.92470    0.82860    0.65260    1.000
    H318     H        0.89680    0.85880    0.65430    1.000
    C340     C        0.78960    0.79000    0.76410    1.000
    H319     H        0.76140    0.77970    0.76100    1.000
    H320     H        0.81110    0.77650    0.77750    1.000
    H321     H        0.78590    0.80750    0.78290    1.000
    C341     C        0.95000    0.78890    0.48070    1.000
    C342     C        0.98880    0.77670    0.46460    1.000
    H322     H        0.98780    0.76240    0.44160    1.000
    C343     C        0.02890    0.78530    0.48220    1.000
    C344     C        0.03040    0.80620    0.51580    1.000
    H323     H        0.05780    0.81220    0.52790    1.000
    C345     C        0.99160    0.81850    0.53190    1.000
    C346     C        0.95150    0.80980    0.51440    1.000
    C347     C        0.90580    0.77930    0.45890    1.000
    H324     H        0.88130    0.78950    0.47340    1.000
    H325     H        0.90620    0.78450    0.42760    1.000
    H326     H        0.90200    0.75770    0.46210    1.000
    C348     C        0.07100    0.77110    0.46150    1.000
    H327     H        0.06240    0.75700    0.43840    1.000
    H328     H        0.08950    0.78670    0.44870    1.000
    H329     H        0.08760    0.76060    0.48440    1.000
    C349     C        0.99270    0.83960    0.56910    1.000
    H330     H        0.96260    0.84600    0.57610    1.000
    H331     H        0.00570    0.82990    0.59490    1.000
    H332     H        0.01030    0.85700    0.56100    1.000
    C350     C        0.94550    0.77380    0.60580    1.000
    C351     C        0.01200    0.72740    0.56350    1.000
    C352     C        0.04430    0.68830    0.51200    1.000
    C353     C        0.08500    0.67890    0.53020    1.000
    C354     C        0.10620    0.65680    0.50690    1.000
    H333     H        0.13360    0.64990    0.51780    1.000
    C355     C        0.09020    0.64410    0.46870    1.000
    C356     C        0.05010    0.65490    0.45110    1.000
    H334     H        0.03830    0.64680    0.42480    1.000
    C357     C        0.02840    0.67750    0.47290    1.000
    C358     C        0.98490    0.68800    0.45410    1.000
    C359     C        0.98080    0.70190    0.41510    1.000
    C360     C        0.93960    0.71080    0.39900    1.000
    H335     H        0.93780    0.72260    0.37310    1.000
    C361     C        0.90180    0.70250    0.42050    1.000
    C362     C        0.90520    0.68630    0.45840    1.000
    H336     H        0.87900    0.68050    0.47310    1.000
    C363     C        0.94410    0.67830    0.47590    1.000
    C364     C        0.94610    0.65850    0.51430    1.000
    H337     H        0.97690    0.65510    0.52240    1.000
    H338     H        0.93060    0.66770    0.53900    1.000
    H339     H        0.93220    0.63950    0.50700    1.000
    C365     C        0.02240    0.71000    0.39020    1.000
    H340     H        0.01450    0.71990    0.36260    1.000
    H341     H        0.04030    0.72340    0.40810    1.000
    H342     H        0.03910    0.69190    0.38370    1.000
    C366     C        0.86270    0.71140    0.39260    1.000
    H343     H        0.87290    0.72310    0.36740    1.000
    H344     H        0.84770    0.69350    0.38200    1.000
    H345     H        0.84230    0.72320    0.41030    1.000
    C367     C        0.10470    0.69040    0.57290    1.000
    C368     C        0.08420    0.68220    0.61040    1.000
    C369     C        0.04450    0.66100    0.61240    1.000
    H346     H        0.03540    0.65840    0.64310    1.000
    H347     H        0.02010    0.66950    0.59550    1.000
    H348     H        0.05270    0.64170    0.59990    1.000
    C370     C        0.10310    0.69150    0.65010    1.000
    H349     H        0.08920    0.68650    0.67710    1.000
    C371     C        0.14340    0.70850    0.65110    1.000
    C372     C        0.15480    0.71780    0.61470    1.000
    H350     H        0.17410    0.73440    0.61450    1.000
    C373     C        0.14210    0.70620    0.57280    1.000
    C374     C        0.16450    0.71580    0.52940    1.000
    H351     H        0.19120    0.72710    0.53610    1.000
    H352     H        0.17210    0.69820    0.51220    1.000
    H353     H        0.14430    0.72830    0.51250    1.000
    C375     C        0.16830    0.71680    0.68970    1.000
    H354     H        0.15510    0.70770    0.71580    1.000
    H355     H        0.19870    0.70990    0.68650    1.000
    H356     H        0.16810    0.73850    0.69290    1.000
    C376     C        0.11330    0.62000    0.44520    1.000
    C377     C        0.10560    0.61140    0.40510    1.000
    H357     H        0.08350    0.62200    0.38940    1.000
    C378     C        0.12620    0.58880    0.38310    1.000
    C379     C        0.16040    0.57350    0.40500    1.000
    C380     C        0.17160    0.58180    0.44780    1.000
    C381     C        0.14650    0.60410    0.46880    1.000
    H358     H        0.15180    0.60850    0.49890    1.000
    C382     C        0.20810    0.56860    0.47210    1.000
    C383     C        0.20790    0.53970    0.48550    1.000
    C384     C        0.24280    0.53040    0.51330    1.000
    H359     H        0.23920    0.51280    0.53030    1.000
    C385     C        0.28090    0.54550    0.51650    1.000
    C386     C        0.28070    0.57360    0.50400    1.000
    H360     H        0.30550    0.58550    0.51110    1.000
    C387     C        0.24660    0.58670    0.48100    1.000
    C388     C        0.25010    0.61740    0.46460    1.000
    H361     H        0.22300    0.62280    0.44920    1.000
    H362     H        0.25480    0.63090    0.48940    1.000
    H363     H        0.27500    0.61880    0.44420    1.000
    C389     C        0.16970    0.51880    0.48010    1.000
    H364     H        0.17740    0.49930    0.49220    1.000
    H365     H        0.14410    0.52680    0.49570    1.000
    H366     H        0.16270    0.51680    0.44870    1.000
    C390     C        0.32420    0.53170    0.53870    1.000
    H367     H        0.31890    0.51080    0.54600    1.000
    H368     H        0.34880    0.53310    0.51800    1.000
    H369     H        0.33130    0.54280    0.56550    1.000
    C391     C        0.10710    0.57820    0.33980    1.000
    C392     C        0.11670    0.59190    0.30000    1.000
    C393     C        0.09710    0.58190    0.26140    1.000
    H370     H        0.10370    0.59130    0.23420    1.000
    C394     C        0.06790    0.55820    0.26270    1.000
    C395     C        0.05830    0.54450    0.30250    1.000
    H371     H        0.03830    0.52820    0.30340    1.000
    C396     C        0.07790    0.55450    0.34100    1.000
    C397     C        0.14480    0.61850    0.30150    1.000
    H372     H        0.13810    0.63130    0.27630    1.000
    H373     H        0.17570    0.61250    0.30030    1.000
    H374     H        0.13930    0.62940    0.32890    1.000
    C398     C        0.06740    0.53760    0.38090    1.000
    H375     H        0.05580    0.55250    0.39840    1.000
    H376     H        0.04620    0.52120    0.37530    1.000
    H377     H        0.09370    0.52800    0.39540    1.000
    C399     C        0.04710    0.54910    0.21760    1.000
    H378     H        0.02710    0.53220    0.22210    1.000
    H379     H        0.03070    0.56590    0.20550    1.000
    H380     H        0.07040    0.54330    0.19710    1.000
    C400     C        0.20500    0.52970    0.37740    1.000
    Cu5      Cu       0.75130    0.50012    0.86646    1.000
    N17      N        0.98360    0.70300    0.68840    1.000
    N18      N        0.83190    0.53970    0.84440    1.000
    N19      N        0.72710    0.46120    0.78540    1.000
    N20      N        0.56890    0.29930    0.63570    1.000
    C401     C        0.99240    0.72100    0.66540    1.000
    C402     C        0.96390    0.67890    0.71300    1.000
    C403     C        0.92130    0.66970    0.69910    1.000
    C404     C        0.90260    0.64700    0.72010    1.000
    H381     H        0.87420    0.64060    0.71100    1.000
    C405     C        0.92260    0.63240    0.75410    1.000
    C406     C        0.96530    0.64110    0.76670    1.000
    H382     H        0.98000    0.63010    0.78900    1.000
    C407     C        0.98590    0.66450    0.74800    1.000
    C408     C        0.02870    0.67580    0.76550    1.000
    C409     C        0.02660    0.69810    0.79960    1.000
    C410     C        0.06860    0.70720    0.81990    1.000
    H383     H        0.06860    0.72130    0.84310    1.000
    C411     C        0.10630    0.69580    0.80600    1.000
    C412     C        0.10840    0.67150    0.77530    1.000
    H384     H        0.13530    0.66240    0.76710    1.000
    C413     C        0.06570    0.66190    0.75750    1.000
    C414     C        0.07020    0.63450    0.72840    1.000
    H385     H        0.10110    0.62820    0.72760    1.000
    H386     H        0.06040    0.63930    0.69850    1.000
    H387     H        0.05220    0.61840    0.74020    1.000
    C415     C        0.98320    0.71070    0.81470    1.000
    H388     H        0.98830    0.72540    0.83790    1.000
    H389     H        0.96470    0.69470    0.82610    1.000
    H390     H        0.96840    0.72030    0.78980    1.000
    C416     C        0.15160    0.70590    0.82460    1.000
    H391     H        0.17510    0.69480    0.81000    1.000
    H392     H        0.15250    0.70210    0.85640    1.000
    H393     H        0.15550    0.72720    0.81920    1.000
    C417     C        0.89920    0.68450    0.66020    1.000
    C418     C        0.88960    0.66590    0.62240    1.000
    C419     C        0.86510    0.67810    0.58850    1.000
    H394     H        0.85580    0.66560    0.56510    1.000
    C420     C        0.85340    0.70890    0.58730    1.000
    C421     C        0.85950    0.72360    0.62440    1.000
    H395     H        0.84870    0.74330    0.62610    1.000
    C422     C        0.88130    0.71180    0.66170    1.000
    C423     C        0.88720    0.73200    0.70210    1.000
    H396     H        0.87190    0.75090    0.69720    1.000
    H397     H        0.91860    0.73580    0.70680    1.000
    H398     H        0.87490    0.72220    0.72810    1.000
    C424     C        0.83520    0.72210    0.54770    1.000
    H399     H        0.83370    0.70700    0.52450    1.000
    H400     H        0.85400    0.73850    0.53810    1.000
    H401     H        0.80560    0.72960    0.55390    1.000
    C425     C        0.90510    0.63390    0.61990    1.000
    H402     H        0.92180    0.62900    0.64650    1.000
    H403     H        0.92380    0.63130    0.59400    1.000
    H404     H        0.87960    0.62070    0.61760    1.000
    C426     C        0.90090    0.60700    0.77760    1.000
    C427     C        0.86240    0.59430    0.76010    1.000
    H405     H        0.85180    0.60080    0.73240    1.000
    C428     C        0.84010    0.57270    0.78300    1.000
    C429     C        0.85650    0.56160    0.82210    1.000
    C430     C        0.89540    0.57310    0.84080    1.000
    C431     C        0.91530    0.59600    0.81820    1.000
    C432     C        0.91240    0.56320    0.88420    1.000
    C433     C        0.89140    0.57110    0.92130    1.000
    C434     C        0.90690    0.56390    0.96320    1.000
    H406     H        0.89040    0.56930    0.98850    1.000
    C435     C        0.94340    0.55000    0.96720    1.000
    C436     C        0.96680    0.54190    0.92970    1.000
    H407     H        0.99310    0.53080    0.93350    1.000
    C437     C        0.95350    0.54940    0.88520    1.000
    C438     C        0.98020    0.54260    0.84780    1.000
    H408     H        0.00740    0.53290    0.85750    1.000
    H409     H        0.98730    0.56090    0.83200    1.000
    H410     H        0.96410    0.52910    0.82820    1.000
    C439     C        0.84750    0.58980    0.91910    1.000
    H411     H        0.83680    0.59350    0.94900    1.000
    H412     H        0.82530    0.57860    0.90260    1.000
    H413     H        0.85320    0.60880    0.90430    1.000
    C440     C        0.96040    0.54000    0.01410    1.000
    H414     H        0.98860    0.52970    0.01100    1.000
    H415     H        0.93890    0.52650    0.02750    1.000
    H416     H        0.96410    0.55750    0.03290    1.000
    C441     C        0.80000    0.53890    0.73070    1.000
    C442     C        0.76120    0.52670    0.71460    1.000
    H417     H        0.76220    0.51240    0.69160    1.000
    C443     C        0.72110    0.53530    0.73220    1.000
    C444     C        0.71960    0.55620    0.76580    1.000
    H418     H        0.69220    0.56220    0.77790    1.000
    C445     C        0.75840    0.56850    0.78190    1.000
    C446     C        0.79850    0.55980    0.76440    1.000
    C447     C        0.84420    0.52930    0.70890    1.000
    H419     H        0.86870    0.53950    0.72340    1.000
    H420     H        0.84380    0.53450    0.67760    1.000
    H421     H        0.84800    0.50770    0.71210    1.000
    C448     C        0.67900    0.52110    0.71150    1.000
    H422     H        0.68760    0.50700    0.68840    1.000
    H423     H        0.66050    0.53670    0.69870    1.000
    H424     H        0.66240    0.51060    0.73440    1.000
    C449     C        0.75730    0.58960    0.81910    1.000
    H425     H        0.78740    0.59600    0.82610    1.000
    H426     H        0.74430    0.57990    0.84490    1.000
    H427     H        0.73970    0.60700    0.81100    1.000
    C450     C        0.80450    0.52380    0.85580    1.000
    C451     C        0.73800    0.47740    0.81350    1.000
    C452     C        0.70570    0.43830    0.76200    1.000
    C453     C        0.66500    0.42890    0.78020    1.000
    C454     C        0.64380    0.40680    0.75690    1.000
    H428     H        0.61640    0.39990    0.76780    1.000
    C455     C        0.65980    0.39410    0.71870    1.000
    C456     C        0.69990    0.40490    0.70110    1.000
    H429     H        0.71170    0.39680    0.67480    1.000
    C457     C        0.72160    0.42750    0.72290    1.000
    C458     C        0.76510    0.43800    0.70410    1.000
    C459     C        0.76920    0.45190    0.66510    1.000
    C460     C        0.81040    0.46080    0.64900    1.000
    H430     H        0.81220    0.47260    0.62310    1.000
    C461     C        0.84820    0.45250    0.67050    1.000
    C462     C        0.84480    0.43630    0.70840    1.000
    H431     H        0.87100    0.43050    0.72310    1.000
    C463     C        0.80590    0.42830    0.72590    1.000
    C464     C        0.80390    0.40850    0.76430    1.000
    H432     H        0.77310    0.40510    0.77240    1.000
    H433     H        0.81940    0.41770    0.78900    1.000
    H434     H        0.81780    0.38950    0.75700    1.000
    C465     C        0.72760    0.46000    0.64020    1.000
    H435     H        0.73550    0.46990    0.61260    1.000
    H436     H        0.70970    0.47340    0.65810    1.000
    H437     H        0.71090    0.44190    0.63370    1.000
    C466     C        0.88730    0.46140    0.64260    1.000
    H438     H        0.87710    0.47310    0.61740    1.000
    H439     H        0.90230    0.44350    0.63200    1.000
    H440     H        0.90770    0.47320    0.66030    1.000
    C467     C        0.64530    0.44040    0.82290    1.000
    C468     C        0.66580    0.43220    0.86040    1.000
    C469     C        0.70550    0.41100    0.86240    1.000
    H441     H        0.71460    0.40840    0.89310    1.000
    H442     H        0.72990    0.41950    0.84550    1.000
    H443     H        0.69730    0.39170    0.84990    1.000
    C470     C        0.64690    0.44150    0.90010    1.000
    H444     H        0.66080    0.43650    0.92710    1.000
    C471     C        0.60660    0.45850    0.90110    1.000
    C472     C        0.59520    0.46780    0.86470    1.000
    H445     H        0.57590    0.48440    0.86450    1.000
    C473     C        0.60790    0.45620    0.82280    1.000
    C474     C        0.58550    0.46580    0.77940    1.000
    H446     H        0.55880    0.47710    0.78610    1.000
    H447     H        0.57790    0.44820    0.76220    1.000
    H448     H        0.60570    0.47830    0.76250    1.000
    C475     C        0.58170    0.46680    0.93970    1.000
    H449     H        0.59490    0.45770    0.96580    1.000
    H450     H        0.55130    0.45990    0.93650    1.000
    H451     H        0.58190    0.48850    0.94290    1.000
    C476     C        0.63670    0.37000    0.69520    1.000
    C477     C        0.64440    0.36140    0.65510    1.000
    H452     H        0.66650    0.37200    0.63940    1.000
    C478     C        0.62380    0.33880    0.63310    1.000
    C479     C        0.58960    0.32350    0.65500    1.000
    C480     C        0.57840    0.33180    0.69780    1.000
    C481     C        0.60350    0.35410    0.71880    1.000
    H453     H        0.59820    0.35850    0.74890    1.000
    C482     C        0.54190    0.31860    0.72210    1.000
    C483     C        0.54210    0.28970    0.73550    1.000
    C484     C        0.50720    0.28040    0.76330    1.000
    H454     H        0.51080    0.26280    0.78030    1.000
    C485     C        0.46910    0.29550    0.76650    1.000
    C486     C        0.46930    0.32360    0.75400    1.000
    H455     H        0.44450    0.33550    0.76110    1.000
    C487     C        0.50340    0.33670    0.73100    1.000
    C488     C        0.49990    0.36740    0.71460    1.000
    H456     H        0.52700    0.37280    0.69920    1.000
    H457     H        0.49520    0.38090    0.73940    1.000
    H458     H        0.47500    0.36880    0.69420    1.000
    C489     C        0.58030    0.26880    0.73010    1.000
    H459     H        0.57260    0.24930    0.74220    1.000
    H460     H        0.60590    0.27680    0.74570    1.000
    H461     H        0.58730    0.26680    0.69870    1.000
    C490     C        0.42580    0.28170    0.78870    1.000
    H462     H        0.43110    0.26080    0.79600    1.000
    H463     H        0.40120    0.28310    0.76800    1.000
    H464     H        0.41870    0.29280    0.81550    1.000
    C491     C        0.64290    0.32820    0.58980    1.000
    C492     C        0.63330    0.34190    0.55000    1.000
    C493     C        0.65290    0.33190    0.51140    1.000
    H465     H        0.64630    0.34130    0.48420    1.000
    C494     C        0.68210    0.30820    0.51270    1.000
    C495     C        0.69170    0.29450    0.55250    1.000
    H466     H        0.71170    0.27820    0.55340    1.000
    C496     C        0.67210    0.30450    0.59100    1.000
    C497     C        0.60520    0.36850    0.55150    1.000
    H467     H        0.61190    0.38130    0.52630    1.000
    H468     H        0.57430    0.36250    0.55030    1.000
    H469     H        0.61070    0.37940    0.57890    1.000
    C498     C        0.68260    0.28760    0.63090    1.000
    H470     H        0.69420    0.30250    0.64840    1.000
    H471     H        0.70380    0.27120    0.62530    1.000
    H472     H        0.65630    0.27800    0.64540    1.000
    C499     C        0.70290    0.29910    0.46760    1.000
    H473     H        0.72290    0.28220    0.47210    1.000
    H474     H        0.71930    0.31590    0.45550    1.000
    H475     H        0.67960    0.29330    0.44710    1.000
    C500     C        0.54500    0.27970    0.62740    1.000
    Cu6      Cu       0.75130    0.00012    0.36646    1.000
    N21      N        0.98360    0.20300    0.18840    1.000
    N22      N        0.83190    0.03970    0.34440    1.000
    N23      N        0.72710    0.96120    0.28540    1.000
    N24      N        0.56890    0.79930    0.13570    1.000
    C501     C        0.99240    0.22100    0.16540    1.000
    C502     C        0.96390    0.17890    0.21300    1.000
    C503     C        0.92130    0.16970    0.19910    1.000
    C504     C        0.90260    0.14700    0.22010    1.000
    H476     H        0.87420    0.14060    0.21100    1.000
    C505     C        0.92260    0.13240    0.25410    1.000
    C506     C        0.96530    0.14110    0.26670    1.000
    H477     H        0.98000    0.13010    0.28900    1.000
    C507     C        0.98590    0.16450    0.24800    1.000
    C508     C        0.02870    0.17580    0.26550    1.000
    C509     C        0.02660    0.19810    0.29960    1.000
    C510     C        0.06860    0.20720    0.31990    1.000
    H478     H        0.06860    0.22130    0.34310    1.000
    C511     C        0.10630    0.19580    0.30600    1.000
    C512     C        0.10840    0.17150    0.27530    1.000
    H479     H        0.13530    0.16240    0.26710    1.000
    C513     C        0.06570    0.16190    0.25750    1.000
    C514     C        0.07020    0.13450    0.22840    1.000
    H480     H        0.10110    0.12820    0.22760    1.000
    H481     H        0.06040    0.13930    0.19850    1.000
    H482     H        0.05220    0.11840    0.24020    1.000
    C515     C        0.98320    0.21070    0.31470    1.000
    H483     H        0.98830    0.22540    0.33790    1.000
    H484     H        0.96470    0.19470    0.32610    1.000
    H485     H        0.96840    0.22030    0.28980    1.000
    C516     C        0.15160    0.20590    0.32460    1.000
    H486     H        0.17510    0.19480    0.31000    1.000
    H487     H        0.15250    0.20210    0.35640    1.000
    H488     H        0.15550    0.22720    0.31920    1.000
    C517     C        0.89920    0.18450    0.16020    1.000
    C518     C        0.88960    0.16590    0.12240    1.000
    C519     C        0.86510    0.17810    0.08850    1.000
    H489     H        0.85580    0.16560    0.06510    1.000
    C520     C        0.85340    0.20890    0.08730    1.000
    C521     C        0.85950    0.22360    0.12440    1.000
    H490     H        0.84870    0.24330    0.12610    1.000
    C522     C        0.88130    0.21180    0.16170    1.000
    C523     C        0.88720    0.23200    0.20210    1.000
    H491     H        0.87190    0.25090    0.19720    1.000
    H492     H        0.91860    0.23580    0.20680    1.000
    H493     H        0.87490    0.22220    0.22810    1.000
    C524     C        0.83520    0.22210    0.04770    1.000
    H494     H        0.83370    0.20700    0.02450    1.000
    H495     H        0.85400    0.23850    0.03810    1.000
    H496     H        0.80560    0.22960    0.05390    1.000
    C525     C        0.90510    0.13390    0.11990    1.000
    H497     H        0.92180    0.12900    0.14650    1.000
    H498     H        0.92380    0.13130    0.09400    1.000
    H499     H        0.87960    0.12070    0.11760    1.000
    C526     C        0.90090    0.10700    0.27760    1.000
    C527     C        0.86240    0.09430    0.26010    1.000
    H500     H        0.85180    0.10080    0.23240    1.000
    C528     C        0.84010    0.07270    0.28300    1.000
    C529     C        0.85650    0.06160    0.32210    1.000
    C530     C        0.89540    0.07310    0.34080    1.000
    C531     C        0.91530    0.09600    0.31820    1.000
    C532     C        0.91240    0.06320    0.38420    1.000
    C533     C        0.89140    0.07110    0.42130    1.000
    C534     C        0.90690    0.06390    0.46320    1.000
    H501     H        0.89040    0.06930    0.48850    1.000
    C535     C        0.94340    0.05000    0.46720    1.000
    C536     C        0.96680    0.04190    0.42970    1.000
    H502     H        0.99310    0.03080    0.43350    1.000
    C537     C        0.95350    0.04940    0.38520    1.000
    C538     C        0.98020    0.04260    0.34780    1.000
    H503     H        0.00740    0.03290    0.35750    1.000
    H504     H        0.98730    0.06090    0.33200    1.000
    H505     H        0.96410    0.02910    0.32820    1.000
    C539     C        0.84750    0.08980    0.41910    1.000
    H506     H        0.83680    0.09350    0.44900    1.000
    H507     H        0.82530    0.07860    0.40260    1.000
    H508     H        0.85320    0.10880    0.40430    1.000
    C540     C        0.96040    0.04000    0.51410    1.000
    H509     H        0.98860    0.02970    0.51100    1.000
    H510     H        0.93890    0.02650    0.52750    1.000
    H511     H        0.96410    0.05750    0.53290    1.000
    C541     C        0.80000    0.03890    0.23070    1.000
    C542     C        0.76120    0.02670    0.21460    1.000
    H512     H        0.76220    0.01240    0.19160    1.000
    C543     C        0.72110    0.03530    0.23220    1.000
    C544     C        0.71960    0.05620    0.26580    1.000
    H513     H        0.69220    0.06220    0.27790    1.000
    C545     C        0.75840    0.06850    0.28190    1.000
    C546     C        0.79850    0.05980    0.26440    1.000
    C547     C        0.84420    0.02930    0.20890    1.000
    H514     H        0.86870    0.03950    0.22340    1.000
    H515     H        0.84380    0.03450    0.17760    1.000
    H516     H        0.84800    0.00770    0.21210    1.000
    C548     C        0.67900    0.02110    0.21150    1.000
    H517     H        0.68760    0.00700    0.18840    1.000
    H518     H        0.66050    0.03670    0.19870    1.000
    H519     H        0.66240    0.01060    0.23440    1.000
    C549     C        0.75730    0.08960    0.31910    1.000
    H520     H        0.78740    0.09600    0.32610    1.000
    H521     H        0.74430    0.07990    0.34490    1.000
    H522     H        0.73970    0.10700    0.31100    1.000
    C550     C        0.80450    0.02380    0.35580    1.000
    C551     C        0.73800    0.97740    0.31350    1.000
    C552     C        0.70570    0.93830    0.26200    1.000
    C553     C        0.66500    0.92890    0.28020    1.000
    C554     C        0.64380    0.90680    0.25690    1.000
    H523     H        0.61640    0.89990    0.26780    1.000
    C555     C        0.65980    0.89410    0.21870    1.000
    C556     C        0.69990    0.90490    0.20110    1.000
    H524     H        0.71170    0.89680    0.17480    1.000
    C557     C        0.72160    0.92750    0.22290    1.000
    C558     C        0.76510    0.93800    0.20410    1.000
    C559     C        0.76920    0.95190    0.16510    1.000
    C560     C        0.81040    0.96080    0.14900    1.000
    H525     H        0.81220    0.97260    0.12310    1.000
    C561     C        0.84820    0.95250    0.17050    1.000
    C562     C        0.84480    0.93630    0.20840    1.000
    H526     H        0.87100    0.93050    0.22310    1.000
    C563     C        0.80590    0.92830    0.22590    1.000
    C564     C        0.80390    0.90850    0.26430    1.000
    H527     H        0.77310    0.90510    0.27240    1.000
    H528     H        0.81940    0.91770    0.28900    1.000
    H529     H        0.81780    0.88950    0.25700    1.000
    C565     C        0.72760    0.96000    0.14020    1.000
    H530     H        0.73550    0.96990    0.11260    1.000
    H531     H        0.70970    0.97340    0.15810    1.000
    H532     H        0.71090    0.94190    0.13370    1.000
    C566     C        0.88730    0.96140    0.14260    1.000
    H533     H        0.87710    0.97310    0.11740    1.000
    H534     H        0.90230    0.94350    0.13200    1.000
    H535     H        0.90770    0.97320    0.16030    1.000
    C567     C        0.64530    0.94040    0.32290    1.000
    C568     C        0.66580    0.93220    0.36040    1.000
    C569     C        0.70550    0.91100    0.36240    1.000
    H536     H        0.71460    0.90840    0.39310    1.000
    H537     H        0.72990    0.91950    0.34550    1.000
    H538     H        0.69730    0.89170    0.34990    1.000
    C570     C        0.64690    0.94150    0.40010    1.000
    H539     H        0.66080    0.93650    0.42710    1.000
    C571     C        0.60660    0.95850    0.40110    1.000
    C572     C        0.59520    0.96780    0.36470    1.000
    H540     H        0.57590    0.98440    0.36450    1.000
    C573     C        0.60790    0.95620    0.32280    1.000
    C574     C        0.58550    0.96580    0.27940    1.000
    H541     H        0.55880    0.97710    0.28610    1.000
    H542     H        0.57790    0.94820    0.26220    1.000
    H543     H        0.60570    0.97830    0.26250    1.000
    C575     C        0.58170    0.96680    0.43970    1.000
    H544     H        0.59490    0.95770    0.46580    1.000
    H545     H        0.55130    0.95990    0.43650    1.000
    H546     H        0.58190    0.98850    0.44290    1.000
    C576     C        0.63670    0.87000    0.19520    1.000
    C577     C        0.64440    0.86140    0.15510    1.000
    H547     H        0.66650    0.87200    0.13940    1.000
    C578     C        0.62380    0.83880    0.13310    1.000
    C579     C        0.58960    0.82350    0.15500    1.000
    C580     C        0.57840    0.83180    0.19780    1.000
    C581     C        0.60350    0.85410    0.21880    1.000
    H548     H        0.59820    0.85850    0.24890    1.000
    C582     C        0.54190    0.81860    0.22210    1.000
    C583     C        0.54210    0.78970    0.23550    1.000
    C584     C        0.50720    0.78040    0.26330    1.000
    H549     H        0.51080    0.76280    0.28030    1.000
    C585     C        0.46910    0.79550    0.26650    1.000
    C586     C        0.46930    0.82360    0.25400    1.000
    H550     H        0.44450    0.83550    0.26110    1.000
    C587     C        0.50340    0.83670    0.23100    1.000
    C588     C        0.49990    0.86740    0.21460    1.000
    H551     H        0.52700    0.87280    0.19920    1.000
    H552     H        0.49520    0.88090    0.23940    1.000
    H553     H        0.47500    0.86880    0.19420    1.000
    C589     C        0.58030    0.76880    0.23010    1.000
    H554     H        0.57260    0.74930    0.24220    1.000
    H555     H        0.60590    0.77680    0.24570    1.000
    H556     H        0.58730    0.76680    0.19870    1.000
    C590     C        0.42580    0.78170    0.28870    1.000
    H557     H        0.43110    0.76080    0.29600    1.000
    H558     H        0.40120    0.78310    0.26800    1.000
    H559     H        0.41870    0.79280    0.31550    1.000
    C591     C        0.64290    0.82820    0.08980    1.000
    C592     C        0.63330    0.84190    0.05000    1.000
    C593     C        0.65290    0.83190    0.01140    1.000
    H560     H        0.64630    0.84130    0.98420    1.000
    C594     C        0.68210    0.80820    0.01270    1.000
    C595     C        0.69170    0.79450    0.05250    1.000
    H561     H        0.71170    0.77820    0.05340    1.000
    C596     C        0.67210    0.80450    0.09100    1.000
    C597     C        0.60520    0.86850    0.05150    1.000
    H562     H        0.61190    0.88130    0.02630    1.000
    H563     H        0.57430    0.86250    0.05030    1.000
    H564     H        0.61070    0.87940    0.07890    1.000
    C598     C        0.68260    0.78760    0.13090    1.000
    H565     H        0.69420    0.80250    0.14840    1.000
    H566     H        0.70380    0.77120    0.12530    1.000
    H567     H        0.65630    0.77800    0.14540    1.000
    C599     C        0.70290    0.79910    0.96760    1.000
    H568     H        0.72290    0.78220    0.97210    1.000
    H569     H        0.71930    0.81590    0.95550    1.000
    H570     H        0.67960    0.79330    0.94710    1.000
    C600     C        0.54500    0.77970    0.12740    1.000
    Cu7      Cu       0.25130    0.50012    0.36646    1.000
    N25      N        0.48360    0.70300    0.18840    1.000
    N26      N        0.33190    0.53970    0.34440    1.000
    N27      N        0.22710    0.46120    0.28540    1.000
    N28      N        0.06890    0.29930    0.13570    1.000
    C601     C        0.49240    0.72100    0.16540    1.000
    C602     C        0.46390    0.67890    0.21300    1.000
    C603     C        0.42130    0.66970    0.19910    1.000
    C604     C        0.40260    0.64700    0.22010    1.000
    H571     H        0.37420    0.64060    0.21100    1.000
    C605     C        0.42260    0.63240    0.25410    1.000
    C606     C        0.46530    0.64110    0.26670    1.000
    H572     H        0.48000    0.63010    0.28900    1.000
    C607     C        0.48590    0.66450    0.24800    1.000
    C608     C        0.52870    0.67580    0.26550    1.000
    C609     C        0.52660    0.69810    0.29960    1.000
    C610     C        0.56860    0.70720    0.31990    1.000
    H573     H        0.56860    0.72130    0.34310    1.000
    C611     C        0.60630    0.69580    0.30600    1.000
    C612     C        0.60840    0.67150    0.27530    1.000
    H574     H        0.63530    0.66240    0.26710    1.000
    C613     C        0.56570    0.66190    0.25750    1.000
    C614     C        0.57020    0.63450    0.22840    1.000
    H575     H        0.60110    0.62820    0.22760    1.000
    H576     H        0.56040    0.63930    0.19850    1.000
    H577     H        0.55220    0.61840    0.24020    1.000
    C615     C        0.48320    0.71070    0.31470    1.000
    H578     H        0.48830    0.72540    0.33790    1.000
    H579     H        0.46470    0.69470    0.32610    1.000
    H580     H        0.46840    0.72030    0.28980    1.000
    C616     C        0.65160    0.70590    0.32460    1.000
    H581     H        0.67510    0.69480    0.31000    1.000
    H582     H        0.65250    0.70210    0.35640    1.000
    H583     H        0.65550    0.72720    0.31920    1.000
    C617     C        0.39920    0.68450    0.16020    1.000
    C618     C        0.38960    0.66590    0.12240    1.000
    C619     C        0.36510    0.67810    0.08850    1.000
    H584     H        0.35580    0.66560    0.06510    1.000
    C620     C        0.35340    0.70890    0.08730    1.000
    C621     C        0.35950    0.72360    0.12440    1.000
    H585     H        0.34870    0.74330    0.12610    1.000
    C622     C        0.38130    0.71180    0.16170    1.000
    C623     C        0.38720    0.73200    0.20210    1.000
    H586     H        0.37190    0.75090    0.19720    1.000
    H587     H        0.41860    0.73580    0.20680    1.000
    H588     H        0.37490    0.72220    0.22810    1.000
    C624     C        0.33520    0.72210    0.04770    1.000
    H589     H        0.33370    0.70700    0.02450    1.000
    H590     H        0.35400    0.73850    0.03810    1.000
    H591     H        0.30560    0.72960    0.05390    1.000
    C625     C        0.40510    0.63390    0.11990    1.000
    H592     H        0.42180    0.62900    0.14650    1.000
    H593     H        0.42380    0.63130    0.09400    1.000
    H594     H        0.37960    0.62070    0.11760    1.000
    C626     C        0.40090    0.60700    0.27760    1.000
    C627     C        0.36240    0.59430    0.26010    1.000
    H595     H        0.35180    0.60080    0.23240    1.000
    C628     C        0.34010    0.57270    0.28300    1.000
    C629     C        0.35650    0.56160    0.32210    1.000
    C630     C        0.39540    0.57310    0.34080    1.000
    C631     C        0.41530    0.59600    0.31820    1.000
    C632     C        0.41240    0.56320    0.38420    1.000
    C633     C        0.39140    0.57110    0.42130    1.000
    C634     C        0.40690    0.56390    0.46320    1.000
    H596     H        0.39040    0.56930    0.48850    1.000
    C635     C        0.44340    0.55000    0.46720    1.000
    C636     C        0.46680    0.54190    0.42970    1.000
    H597     H        0.49310    0.53080    0.43350    1.000
    C637     C        0.45350    0.54940    0.38520    1.000
    C638     C        0.48020    0.54260    0.34780    1.000
    H598     H        0.50740    0.53290    0.35750    1.000
    H599     H        0.48730    0.56090    0.33200    1.000
    H600     H        0.46410    0.52910    0.32820    1.000
    C639     C        0.34750    0.58980    0.41910    1.000
    H601     H        0.33680    0.59350    0.44900    1.000
    H602     H        0.32530    0.57860    0.40260    1.000
    H603     H        0.35320    0.60880    0.40430    1.000
    C640     C        0.46040    0.54000    0.51410    1.000
    H604     H        0.48860    0.52970    0.51100    1.000
    H605     H        0.43890    0.52650    0.52750    1.000
    H606     H        0.46410    0.55750    0.53290    1.000
    C641     C        0.30000    0.53890    0.23070    1.000
    C642     C        0.26120    0.52670    0.21460    1.000
    H607     H        0.26220    0.51240    0.19160    1.000
    C643     C        0.22110    0.53530    0.23220    1.000
    C644     C        0.21960    0.55620    0.26580    1.000
    H608     H        0.19220    0.56220    0.27790    1.000
    C645     C        0.25840    0.56850    0.28190    1.000
    C646     C        0.29850    0.55980    0.26440    1.000
    C647     C        0.34420    0.52930    0.20890    1.000
    H609     H        0.36870    0.53950    0.22340    1.000
    H610     H        0.34380    0.53450    0.17760    1.000
    H611     H        0.34800    0.50770    0.21210    1.000
    C648     C        0.17900    0.52110    0.21150    1.000
    H612     H        0.18760    0.50700    0.18840    1.000
    H613     H        0.16050    0.53670    0.19870    1.000
    H614     H        0.16240    0.51060    0.23440    1.000
    C649     C        0.25730    0.58960    0.31910    1.000
    H615     H        0.28740    0.59600    0.32610    1.000
    H616     H        0.24430    0.57990    0.34490    1.000
    H617     H        0.23970    0.60700    0.31100    1.000
    C650     C        0.30450    0.52380    0.35580    1.000
    C651     C        0.23800    0.47740    0.31350    1.000
    C652     C        0.20570    0.43830    0.26200    1.000
    C653     C        0.16500    0.42890    0.28020    1.000
    C654     C        0.14380    0.40680    0.25690    1.000
    H618     H        0.11640    0.39990    0.26780    1.000
    C655     C        0.15980    0.39410    0.21870    1.000
    C656     C        0.19990    0.40490    0.20110    1.000
    H619     H        0.21170    0.39680    0.17480    1.000
    C657     C        0.22160    0.42750    0.22290    1.000
    C658     C        0.26510    0.43800    0.20410    1.000
    C659     C        0.26920    0.45190    0.16510    1.000
    C660     C        0.31040    0.46080    0.14900    1.000
    H620     H        0.31220    0.47260    0.12310    1.000
    C661     C        0.34820    0.45250    0.17050    1.000
    C662     C        0.34480    0.43630    0.20840    1.000
    H621     H        0.37100    0.43050    0.22310    1.000
    C663     C        0.30590    0.42830    0.22590    1.000
    C664     C        0.30390    0.40850    0.26430    1.000
    H622     H        0.27310    0.40510    0.27240    1.000
    H623     H        0.31940    0.41770    0.28900    1.000
    H624     H        0.31780    0.38950    0.25700    1.000
    C665     C        0.22760    0.46000    0.14020    1.000
    H625     H        0.23550    0.46990    0.11260    1.000
    H626     H        0.20970    0.47340    0.15810    1.000
    H627     H        0.21090    0.44190    0.13370    1.000
    C666     C        0.38730    0.46140    0.14260    1.000
    H628     H        0.37710    0.47310    0.11740    1.000
    H629     H        0.40230    0.44350    0.13200    1.000
    H630     H        0.40770    0.47320    0.16030    1.000
    C667     C        0.14530    0.44040    0.32290    1.000
    C668     C        0.16580    0.43220    0.36040    1.000
    C669     C        0.20550    0.41100    0.36240    1.000
    H631     H        0.21460    0.40840    0.39310    1.000
    H632     H        0.22990    0.41950    0.34550    1.000
    H633     H        0.19730    0.39170    0.34990    1.000
    C670     C        0.14690    0.44150    0.40010    1.000
    H634     H        0.16080    0.43650    0.42710    1.000
    C671     C        0.10660    0.45850    0.40110    1.000
    C672     C        0.09520    0.46780    0.36470    1.000
    H635     H        0.07590    0.48440    0.36450    1.000
    C673     C        0.10790    0.45620    0.32280    1.000
    C674     C        0.08550    0.46580    0.27940    1.000
    H636     H        0.05880    0.47710    0.28610    1.000
    H637     H        0.07790    0.44820    0.26220    1.000
    H638     H        0.10570    0.47830    0.26250    1.000
    C675     C        0.08170    0.46680    0.43970    1.000
    H639     H        0.09490    0.45770    0.46580    1.000
    H640     H        0.05130    0.45990    0.43650    1.000
    H641     H        0.08190    0.48850    0.44290    1.000
    C676     C        0.13670    0.37000    0.19520    1.000
    C677     C        0.14440    0.36140    0.15510    1.000
    H642     H        0.16650    0.37200    0.13940    1.000
    C678     C        0.12380    0.33880    0.13310    1.000
    C679     C        0.08960    0.32350    0.15500    1.000
    C680     C        0.07840    0.33180    0.19780    1.000
    C681     C        0.10350    0.35410    0.21880    1.000
    H643     H        0.09820    0.35850    0.24890    1.000
    C682     C        0.04190    0.31860    0.22210    1.000
    C683     C        0.04210    0.28970    0.23550    1.000
    C684     C        0.00720    0.28040    0.26330    1.000
    H644     H        0.01080    0.26280    0.28030    1.000
    C685     C        0.96910    0.29550    0.26650    1.000
    C686     C        0.96930    0.32360    0.25400    1.000
    H645     H        0.94450    0.33550    0.26110    1.000
    C687     C        0.00340    0.33670    0.23100    1.000
    C688     C        0.99990    0.36740    0.21460    1.000
    H646     H        0.02700    0.37280    0.19920    1.000
    H647     H        0.99520    0.38090    0.23940    1.000
    H648     H        0.97500    0.36880    0.19420    1.000
    C689     C        0.08030    0.26880    0.23010    1.000
    H649     H        0.07260    0.24930    0.24220    1.000
    H650     H        0.10590    0.27680    0.24570    1.000
    H651     H        0.08730    0.26680    0.19870    1.000
    C690     C        0.92580    0.28170    0.28870    1.000
    H652     H        0.93110    0.26080    0.29600    1.000
    H653     H        0.90120    0.28310    0.26800    1.000
    H654     H        0.91870    0.29280    0.31550    1.000
    C691     C        0.14290    0.32820    0.08980    1.000
    C692     C        0.13330    0.34190    0.05000    1.000
    C693     C        0.15290    0.33190    0.01140    1.000
    H655     H        0.14630    0.34130    0.98420    1.000
    C694     C        0.18210    0.30820    0.01270    1.000
    C695     C        0.19170    0.29450    0.05250    1.000
    H656     H        0.21170    0.27820    0.05340    1.000
    C696     C        0.17210    0.30450    0.09100    1.000
    C697     C        0.10520    0.36850    0.05150    1.000
    H657     H        0.11190    0.38130    0.02630    1.000
    H658     H        0.07430    0.36250    0.05030    1.000
    H659     H        0.11070    0.37940    0.07890    1.000
    C698     C        0.18260    0.28760    0.13090    1.000
    H660     H        0.19420    0.30250    0.14840    1.000
    H661     H        0.20380    0.27120    0.12530    1.000
    H662     H        0.15630    0.27800    0.14540    1.000
    C699     C        0.20290    0.29910    0.96760    1.000
    H663     H        0.22290    0.28220    0.97210    1.000
    H664     H        0.21930    0.31590    0.95550    1.000
    H665     H        0.17960    0.29330    0.94710    1.000
    C700     C        0.04500    0.27970    0.12740    1.000
    Cu8      Cu       0.25130    0.00012    0.86646    1.000
    N29      N        0.48360    0.20300    0.68840    1.000
    N30      N        0.33190    0.03970    0.84440    1.000
    N31      N        0.22710    0.96120    0.78540    1.000
    N32      N        0.06890    0.79930    0.63570    1.000
    C701     C        0.49240    0.22100    0.66540    1.000
    C702     C        0.46390    0.17890    0.71300    1.000
    C703     C        0.42130    0.16970    0.69910    1.000
    C704     C        0.40260    0.14700    0.72010    1.000
    H666     H        0.37420    0.14060    0.71100    1.000
    C705     C        0.42260    0.13240    0.75410    1.000
    C706     C        0.46530    0.14110    0.76670    1.000
    H667     H        0.48000    0.13010    0.78900    1.000
    C707     C        0.48590    0.16450    0.74800    1.000
    C708     C        0.52870    0.17580    0.76550    1.000
    C709     C        0.52660    0.19810    0.79960    1.000
    C710     C        0.56860    0.20720    0.81990    1.000
    H668     H        0.56860    0.22130    0.84310    1.000
    C711     C        0.60630    0.19580    0.80600    1.000
    C712     C        0.60840    0.17150    0.77530    1.000
    H669     H        0.63530    0.16240    0.76710    1.000
    C713     C        0.56570    0.16190    0.75750    1.000
    C714     C        0.57020    0.13450    0.72840    1.000
    H670     H        0.60110    0.12820    0.72760    1.000
    H671     H        0.56040    0.13930    0.69850    1.000
    H672     H        0.55220    0.11840    0.74020    1.000
    C715     C        0.48320    0.21070    0.81470    1.000
    H673     H        0.48830    0.22540    0.83790    1.000
    H674     H        0.46470    0.19470    0.82610    1.000
    H675     H        0.46840    0.22030    0.78980    1.000
    C716     C        0.65160    0.20590    0.82460    1.000
    H676     H        0.67510    0.19480    0.81000    1.000
    H677     H        0.65250    0.20210    0.85640    1.000
    H678     H        0.65550    0.22720    0.81920    1.000
    C717     C        0.39920    0.18450    0.66020    1.000
    C718     C        0.38960    0.16590    0.62240    1.000
    C719     C        0.36510    0.17810    0.58850    1.000
    H679     H        0.35580    0.16560    0.56510    1.000
    C720     C        0.35340    0.20890    0.58730    1.000
    C721     C        0.35950    0.22360    0.62440    1.000
    H680     H        0.34870    0.24330    0.62610    1.000
    C722     C        0.38130    0.21180    0.66170    1.000
    C723     C        0.38720    0.23200    0.70210    1.000
    H681     H        0.37190    0.25090    0.69720    1.000
    H682     H        0.41860    0.23580    0.70680    1.000
    H683     H        0.37490    0.22220    0.72810    1.000
    C724     C        0.33520    0.22210    0.54770    1.000
    H684     H        0.33370    0.20700    0.52450    1.000
    H685     H        0.35400    0.23850    0.53810    1.000
    H686     H        0.30560    0.22960    0.55390    1.000
    C725     C        0.40510    0.13390    0.61990    1.000
    H687     H        0.42180    0.12900    0.64650    1.000
    H688     H        0.42380    0.13130    0.59400    1.000
    H689     H        0.37960    0.12070    0.61760    1.000
    C726     C        0.40090    0.10700    0.77760    1.000
    C727     C        0.36240    0.09430    0.76010    1.000
    H690     H        0.35180    0.10080    0.73240    1.000
    C728     C        0.34010    0.07270    0.78300    1.000
    C729     C        0.35650    0.06160    0.82210    1.000
    C730     C        0.39540    0.07310    0.84080    1.000
    C731     C        0.41530    0.09600    0.81820    1.000
    C732     C        0.41240    0.06320    0.88420    1.000
    C733     C        0.39140    0.07110    0.92130    1.000
    C734     C        0.40690    0.06390    0.96320    1.000
    H691     H        0.39040    0.06930    0.98850    1.000
    C735     C        0.44340    0.05000    0.96720    1.000
    C736     C        0.46680    0.04190    0.92970    1.000
    H692     H        0.49310    0.03080    0.93350    1.000
    C737     C        0.45350    0.04940    0.88520    1.000
    C738     C        0.48020    0.04260    0.84780    1.000
    H693     H        0.50740    0.03290    0.85750    1.000
    H694     H        0.48730    0.06090    0.83200    1.000
    H695     H        0.46410    0.02910    0.82820    1.000
    C739     C        0.34750    0.08980    0.91910    1.000
    H696     H        0.33680    0.09350    0.94900    1.000
    H697     H        0.32530    0.07860    0.90260    1.000
    H698     H        0.35320    0.10880    0.90430    1.000
    C740     C        0.46040    0.04000    0.01410    1.000
    H699     H        0.48860    0.02970    0.01100    1.000
    H700     H        0.43890    0.02650    0.02750    1.000
    H701     H        0.46410    0.05750    0.03290    1.000
    C741     C        0.30000    0.03890    0.73070    1.000
    C742     C        0.26120    0.02670    0.71460    1.000
    H702     H        0.26220    0.01240    0.69160    1.000
    C743     C        0.22110    0.03530    0.73220    1.000
    C744     C        0.21960    0.05620    0.76580    1.000
    H703     H        0.19220    0.06220    0.77790    1.000
    C745     C        0.25840    0.06850    0.78190    1.000
    C746     C        0.29850    0.05980    0.76440    1.000
    C747     C        0.34420    0.02930    0.70890    1.000
    H704     H        0.36870    0.03950    0.72340    1.000
    H705     H        0.34380    0.03450    0.67760    1.000
    H706     H        0.34800    0.00770    0.71210    1.000
    C748     C        0.17900    0.02110    0.71150    1.000
    H707     H        0.18760    0.00700    0.68840    1.000
    H708     H        0.16050    0.03670    0.69870    1.000
    H709     H        0.16240    0.01060    0.73440    1.000
    C749     C        0.25730    0.08960    0.81910    1.000
    H710     H        0.28740    0.09600    0.82610    1.000
    H711     H        0.24430    0.07990    0.84490    1.000
    H712     H        0.23970    0.10700    0.81100    1.000
    C750     C        0.30450    0.02380    0.85580    1.000
    C751     C        0.23800    0.97740    0.81350    1.000
    C752     C        0.20570    0.93830    0.76200    1.000
    C753     C        0.16500    0.92890    0.78020    1.000
    C754     C        0.14380    0.90680    0.75690    1.000
    H713     H        0.11640    0.89990    0.76780    1.000
    C755     C        0.15980    0.89410    0.71870    1.000
    C756     C        0.19990    0.90490    0.70110    1.000
    H714     H        0.21170    0.89680    0.67480    1.000
    C757     C        0.22160    0.92750    0.72290    1.000
    C758     C        0.26510    0.93800    0.70410    1.000
    C759     C        0.26920    0.95190    0.66510    1.000
    C760     C        0.31040    0.96080    0.64900    1.000
    H715     H        0.31220    0.97260    0.62310    1.000
    C761     C        0.34820    0.95250    0.67050    1.000
    C762     C        0.34480    0.93630    0.70840    1.000
    H716     H        0.37100    0.93050    0.72310    1.000
    C763     C        0.30590    0.92830    0.72590    1.000
    C764     C        0.30390    0.90850    0.76430    1.000
    H717     H        0.27310    0.90510    0.77240    1.000
    H718     H        0.31940    0.91770    0.78900    1.000
    H719     H        0.31780    0.88950    0.75700    1.000
    C765     C        0.22760    0.96000    0.64020    1.000
    H720     H        0.23550    0.96990    0.61260    1.000
    H721     H        0.20970    0.97340    0.65810    1.000
    H722     H        0.21090    0.94190    0.63370    1.000
    C766     C        0.38730    0.96140    0.64260    1.000
    H723     H        0.37710    0.97310    0.61740    1.000
    H724     H        0.40230    0.94350    0.63200    1.000
    H725     H        0.40770    0.97320    0.66030    1.000
    C767     C        0.14530    0.94040    0.82290    1.000
    C768     C        0.16580    0.93220    0.86040    1.000
    C769     C        0.20550    0.91100    0.86240    1.000
    H726     H        0.21460    0.90840    0.89310    1.000
    H727     H        0.22990    0.91950    0.84550    1.000
    H728     H        0.19730    0.89170    0.84990    1.000
    C770     C        0.14690    0.94150    0.90010    1.000
    H729     H        0.16080    0.93650    0.92710    1.000
    C771     C        0.10660    0.95850    0.90110    1.000
    C772     C        0.09520    0.96780    0.86470    1.000
    H730     H        0.07590    0.98440    0.86450    1.000
    C773     C        0.10790    0.95620    0.82280    1.000
    C774     C        0.08550    0.96580    0.77940    1.000
    H731     H        0.05880    0.97710    0.78610    1.000
    H732     H        0.07790    0.94820    0.76220    1.000
    H733     H        0.10570    0.97830    0.76250    1.000
    C775     C        0.08170    0.96680    0.93970    1.000
    H734     H        0.09490    0.95770    0.96580    1.000
    H735     H        0.05130    0.95990    0.93650    1.000
    H736     H        0.08190    0.98850    0.94290    1.000
    C776     C        0.13670    0.87000    0.69520    1.000
    C777     C        0.14440    0.86140    0.65510    1.000
    H737     H        0.16650    0.87200    0.63940    1.000
    C778     C        0.12380    0.83880    0.63310    1.000
    C779     C        0.08960    0.82350    0.65500    1.000
    C780     C        0.07840    0.83180    0.69780    1.000
    C781     C        0.10350    0.85410    0.71880    1.000
    H738     H        0.09820    0.85850    0.74890    1.000
    C782     C        0.04190    0.81860    0.72210    1.000
    C783     C        0.04210    0.78970    0.73550    1.000
    C784     C        0.00720    0.78040    0.76330    1.000
    H739     H        0.01080    0.76280    0.78030    1.000
    C785     C        0.96910    0.79550    0.76650    1.000
    C786     C        0.96930    0.82360    0.75400    1.000
    H740     H        0.94450    0.83550    0.76110    1.000
    C787     C        0.00340    0.83670    0.73100    1.000
    C788     C        0.99990    0.86740    0.71460    1.000
    H741     H        0.02700    0.87280    0.69920    1.000
    H742     H        0.99520    0.88090    0.73940    1.000
    H743     H        0.97500    0.86880    0.69420    1.000
    C789     C        0.08030    0.76880    0.73010    1.000
    H744     H        0.07260    0.74930    0.74220    1.000
    H745     H        0.10590    0.77680    0.74570    1.000
    H746     H        0.08730    0.76680    0.69870    1.000
    C790     C        0.92580    0.78170    0.78870    1.000
    H747     H        0.93110    0.76080    0.79600    1.000
    H748     H        0.90120    0.78310    0.76800    1.000
    H749     H        0.91870    0.79280    0.81550    1.000
    C791     C        0.14290    0.82820    0.58980    1.000
    C792     C        0.13330    0.84190    0.55000    1.000
    C793     C        0.15290    0.83190    0.51140    1.000
    H750     H        0.14630    0.84130    0.48420    1.000
    C794     C        0.18210    0.80820    0.51270    1.000
    C795     C        0.19170    0.79450    0.55250    1.000
    H751     H        0.21170    0.77820    0.55340    1.000
    C796     C        0.17210    0.80450    0.59100    1.000
    C797     C        0.10520    0.86850    0.55150    1.000
    H752     H        0.11190    0.88130    0.52630    1.000
    H753     H        0.07430    0.86250    0.55030    1.000
    H754     H        0.11070    0.87940    0.57890    1.000
    C798     C        0.18260    0.78760    0.63090    1.000
    H755     H        0.19420    0.80250    0.64840    1.000
    H756     H        0.20380    0.77120    0.62530    1.000
    H757     H        0.15630    0.77800    0.64540    1.000
    C799     C        0.20290    0.79910    0.46760    1.000
    H758     H        0.22290    0.78220    0.47210    1.000
    H759     H        0.21930    0.81590    0.45550    1.000
    H760     H        0.17960    0.79330    0.44710    1.000
    C800     C        0.04500    0.77970    0.62740    1.000
    Cu9      Cu       0.50130    0.74988    0.61646    1.000
    N33      N        0.73360    0.54700    0.43840    1.000
    N34      N        0.58190    0.71030    0.59440    1.000
    N35      N        0.47710    0.78880    0.53540    1.000
    N36      N        0.31890    0.95070    0.38570    1.000
    C801     C        0.74240    0.52900    0.41540    1.000
    C802     C        0.71390    0.57110    0.46300    1.000
    C803     C        0.67130    0.58030    0.44910    1.000
    C804     C        0.65260    0.60300    0.47010    1.000
    H761     H        0.62420    0.60940    0.46100    1.000
    C805     C        0.67260    0.61760    0.50410    1.000
    C806     C        0.71530    0.60890    0.51670    1.000
    H762     H        0.73000    0.61990    0.53900    1.000
    C807     C        0.73590    0.58550    0.49800    1.000
    C808     C        0.77870    0.57420    0.51550    1.000
    C809     C        0.77660    0.55190    0.54960    1.000
    C810     C        0.81860    0.54280    0.56990    1.000
    H763     H        0.81860    0.52870    0.59310    1.000
    C811     C        0.85630    0.55420    0.55600    1.000
    C812     C        0.85840    0.57850    0.52530    1.000
    H764     H        0.88530    0.58760    0.51710    1.000
    C813     C        0.81570    0.58810    0.50750    1.000
    C814     C        0.82020    0.61550    0.47840    1.000
    H765     H        0.85110    0.62180    0.47760    1.000
    H766     H        0.81040    0.61070    0.44850    1.000
    H767     H        0.80220    0.63160    0.49020    1.000
    C815     C        0.73320    0.53930    0.56470    1.000
    H768     H        0.73830    0.52460    0.58790    1.000
    H769     H        0.71470    0.55530    0.57610    1.000
    H770     H        0.71840    0.52970    0.53980    1.000
    C816     C        0.90160    0.54410    0.57460    1.000
    H771     H        0.92510    0.55520    0.56000    1.000
    H772     H        0.90250    0.54790    0.60640    1.000
    H773     H        0.90550    0.52280    0.56920    1.000
    C817     C        0.64920    0.56550    0.41020    1.000
    C818     C        0.63960    0.58410    0.37240    1.000
    C819     C        0.61510    0.57190    0.33850    1.000
    H774     H        0.60580    0.58440    0.31510    1.000
    C820     C        0.60340    0.54110    0.33730    1.000
    C821     C        0.60950    0.52640    0.37440    1.000
    H775     H        0.59870    0.50670    0.37610    1.000
    C822     C        0.63130    0.53820    0.41170    1.000
    C823     C        0.63720    0.51800    0.45210    1.000
    H776     H        0.62190    0.49910    0.44720    1.000
    H777     H        0.66860    0.51420    0.45680    1.000
    H778     H        0.62490    0.52780    0.47810    1.000
    C824     C        0.58520    0.52790    0.29770    1.000
    H779     H        0.58370    0.54300    0.27450    1.000
    H780     H        0.60400    0.51150    0.28810    1.000
    H781     H        0.55560    0.52040    0.30390    1.000
    C825     C        0.65510    0.61610    0.36990    1.000
    H782     H        0.67180    0.62100    0.39650    1.000
    H783     H        0.67380    0.61870    0.34400    1.000
    H784     H        0.62960    0.62930    0.36760    1.000
    C826     C        0.65090    0.64300    0.52760    1.000
    C827     C        0.61240    0.65570    0.51010    1.000
    H785     H        0.60180    0.64920    0.48240    1.000
    C828     C        0.59010    0.67730    0.53300    1.000
    C829     C        0.60650    0.68840    0.57210    1.000
    C830     C        0.64540    0.67690    0.59080    1.000
    C831     C        0.66530    0.65400    0.56820    1.000
    C832     C        0.66240    0.68680    0.63420    1.000
    C833     C        0.64140    0.67890    0.67130    1.000
    C834     C        0.65690    0.68610    0.71320    1.000
    H786     H        0.64040    0.68070    0.73850    1.000
    C835     C        0.69340    0.70000    0.71720    1.000
    C836     C        0.71680    0.70810    0.67970    1.000
    H787     H        0.74310    0.71920    0.68350    1.000
    C837     C        0.70350    0.70060    0.63520    1.000
    C838     C        0.73020    0.70740    0.59780    1.000
    H788     H        0.75740    0.71710    0.60750    1.000
    H789     H        0.73730    0.68910    0.58200    1.000
    H790     H        0.71410    0.72090    0.57820    1.000
    C839     C        0.59750    0.66020    0.66910    1.000
    H791     H        0.58680    0.65650    0.69900    1.000
    H792     H        0.57530    0.67140    0.65260    1.000
    H793     H        0.60320    0.64120    0.65430    1.000
    C840     C        0.71040    0.71000    0.76410    1.000
    H794     H        0.73860    0.72030    0.76100    1.000
    H795     H        0.68890    0.72350    0.77750    1.000
    H796     H        0.71410    0.69250    0.78290    1.000
    C841     C        0.55000    0.71110    0.48070    1.000
    C842     C        0.51120    0.72330    0.46460    1.000
    H797     H        0.51220    0.73760    0.44160    1.000
    C843     C        0.47110    0.71470    0.48220    1.000
    C844     C        0.46960    0.69380    0.51580    1.000
    H798     H        0.44220    0.68780    0.52790    1.000
    C845     C        0.50840    0.68150    0.53190    1.000
    C846     C        0.54850    0.69020    0.51440    1.000
    C847     C        0.59420    0.72070    0.45890    1.000
    H799     H        0.61870    0.71050    0.47340    1.000
    H800     H        0.59380    0.71550    0.42760    1.000
    H801     H        0.59800    0.74230    0.46210    1.000
    C848     C        0.42900    0.72890    0.46150    1.000
    H802     H        0.43760    0.74300    0.43840    1.000
    H803     H        0.41050    0.71330    0.44870    1.000
    H804     H        0.41240    0.73940    0.48440    1.000
    C849     C        0.50730    0.66040    0.56910    1.000
    H805     H        0.53740    0.65400    0.57610    1.000
    H806     H        0.49430    0.67010    0.59490    1.000
    H807     H        0.48970    0.64300    0.56100    1.000
    C850     C        0.55450    0.72620    0.60580    1.000
    C851     C        0.48800    0.77260    0.56350    1.000
    C852     C        0.45570    0.81170    0.51200    1.000
    C853     C        0.41500    0.82110    0.53020    1.000
    C854     C        0.39380    0.84320    0.50690    1.000
    H808     H        0.36640    0.85010    0.51780    1.000
    C855     C        0.40980    0.85590    0.46870    1.000
    C856     C        0.44990    0.84510    0.45110    1.000
    H809     H        0.46170    0.85320    0.42480    1.000
    C857     C        0.47160    0.82250    0.47290    1.000
    C858     C        0.51510    0.81200    0.45410    1.000
    C859     C        0.51920    0.79810    0.41510    1.000
    C860     C        0.56040    0.78920    0.39900    1.000
    H810     H        0.56220    0.77740    0.37310    1.000
    C861     C        0.59820    0.79750    0.42050    1.000
    C862     C        0.59480    0.81370    0.45840    1.000
    H811     H        0.62100    0.81950    0.47310    1.000
    C863     C        0.55590    0.82170    0.47590    1.000
    C864     C        0.55390    0.84150    0.51430    1.000
    H812     H        0.52310    0.84490    0.52240    1.000
    H813     H        0.56940    0.83230    0.53900    1.000
    H814     H        0.56780    0.86050    0.50700    1.000
    C865     C        0.47760    0.79000    0.39020    1.000
    H815     H        0.48550    0.78010    0.36260    1.000
    H816     H        0.45970    0.77660    0.40810    1.000
    H817     H        0.46090    0.80810    0.38370    1.000
    C866     C        0.63730    0.78860    0.39260    1.000
    H818     H        0.62710    0.77690    0.36740    1.000
    H819     H        0.65230    0.80650    0.38200    1.000
    H820     H        0.65770    0.77680    0.41030    1.000
    C867     C        0.39530    0.80960    0.57290    1.000
    C868     C        0.41580    0.81780    0.61040    1.000
    C869     C        0.45550    0.83900    0.61240    1.000
    H821     H        0.46460    0.84160    0.64310    1.000
    H822     H        0.47990    0.83050    0.59550    1.000
    H823     H        0.44730    0.85830    0.59990    1.000
    C870     C        0.39690    0.80850    0.65010    1.000
    H824     H        0.41080    0.81350    0.67710    1.000
    C871     C        0.35660    0.79150    0.65110    1.000
    C872     C        0.34520    0.78220    0.61470    1.000
    H825     H        0.32590    0.76560    0.61450    1.000
    C873     C        0.35790    0.79380    0.57280    1.000
    C874     C        0.33550    0.78420    0.52940    1.000
    H826     H        0.30880    0.77290    0.53610    1.000
    H827     H        0.32790    0.80180    0.51220    1.000
    H828     H        0.35570    0.77170    0.51250    1.000
    C875     C        0.33170    0.78320    0.68970    1.000
    H829     H        0.34490    0.79230    0.71580    1.000
    H830     H        0.30130    0.79010    0.68650    1.000
    H831     H        0.33190    0.76150    0.69290    1.000
    C876     C        0.38670    0.88000    0.44520    1.000
    C877     C        0.39440    0.88860    0.40510    1.000
    H832     H        0.41650    0.87800    0.38940    1.000
    C878     C        0.37380    0.91120    0.38310    1.000
    C879     C        0.33960    0.92650    0.40500    1.000
    C880     C        0.32840    0.91820    0.44780    1.000
    C881     C        0.35350    0.89590    0.46880    1.000
    H833     H        0.34820    0.89150    0.49890    1.000
    C882     C        0.29190    0.93140    0.47210    1.000
    C883     C        0.29210    0.96030    0.48550    1.000
    C884     C        0.25720    0.96960    0.51330    1.000
    H834     H        0.26080    0.98720    0.53030    1.000
    C885     C        0.21910    0.95450    0.51650    1.000
    C886     C        0.21930    0.92640    0.50400    1.000
    H835     H        0.19450    0.91450    0.51110    1.000
    C887     C        0.25340    0.91330    0.48100    1.000
    C888     C        0.24990    0.88260    0.46460    1.000
    H836     H        0.27700    0.87720    0.44920    1.000
    H837     H        0.24520    0.86910    0.48940    1.000
    H838     H        0.22500    0.88120    0.44420    1.000
    C889     C        0.33030    0.98120    0.48010    1.000
    H839     H        0.32260    0.00070    0.49220    1.000
    H840     H        0.35590    0.97320    0.49570    1.000
    H841     H        0.33730    0.98320    0.44870    1.000
    C890     C        0.17580    0.96830    0.53870    1.000
    H842     H        0.18110    0.98920    0.54600    1.000
    H843     H        0.15120    0.96690    0.51800    1.000
    H844     H        0.16870    0.95720    0.56550    1.000
    C891     C        0.39290    0.92180    0.33980    1.000
    C892     C        0.38330    0.90810    0.30000    1.000
    C893     C        0.40290    0.91810    0.26140    1.000
    H845     H        0.39630    0.90870    0.23420    1.000
    C894     C        0.43210    0.94180    0.26270    1.000
    C895     C        0.44170    0.95550    0.30250    1.000
    H846     H        0.46170    0.97180    0.30340    1.000
    C896     C        0.42210    0.94550    0.34100    1.000
    C897     C        0.35520    0.88150    0.30150    1.000
    H847     H        0.36190    0.86870    0.27630    1.000
    H848     H        0.32430    0.88750    0.30030    1.000
    H849     H        0.36070    0.87060    0.32890    1.000
    C898     C        0.43260    0.96240    0.38090    1.000
    H850     H        0.44420    0.94750    0.39840    1.000
    H851     H        0.45380    0.97880    0.37530    1.000
    H852     H        0.40630    0.97200    0.39540    1.000
    C899     C        0.45290    0.95090    0.21760    1.000
    H853     H        0.47290    0.96780    0.22210    1.000
    H854     H        0.46930    0.93410    0.20550    1.000
    H855     H        0.42960    0.95670    0.19710    1.000
    C900     C        0.29500    0.97030    0.37740    1.000
    Cu10     Cu       0.50130    0.24988    0.11646    1.000
    N37      N        0.73360    0.04700    0.93840    1.000
    N38      N        0.58190    0.21030    0.09440    1.000
    N39      N        0.47710    0.28880    0.03540    1.000
    N40      N        0.31890    0.45070    0.88570    1.000
    C901     C        0.74240    0.02900    0.91540    1.000
    C902     C        0.71390    0.07110    0.96300    1.000
    C903     C        0.67130    0.08030    0.94910    1.000
    C904     C        0.65260    0.10300    0.97010    1.000
    H856     H        0.62420    0.10940    0.96100    1.000
    C905     C        0.67260    0.11760    0.00410    1.000
    C906     C        0.71530    0.10890    0.01670    1.000
    H857     H        0.73000    0.11990    0.03900    1.000
    C907     C        0.73590    0.08550    0.99800    1.000
    C908     C        0.77870    0.07420    0.01550    1.000
    C909     C        0.77660    0.05190    0.04960    1.000
    C910     C        0.81860    0.04280    0.06990    1.000
    H858     H        0.81860    0.02870    0.09310    1.000
    C911     C        0.85630    0.05420    0.05600    1.000
    C912     C        0.85840    0.07850    0.02530    1.000
    H859     H        0.88530    0.08760    0.01710    1.000
    C913     C        0.81570    0.08810    0.00750    1.000
    C914     C        0.82020    0.11550    0.97840    1.000
    H860     H        0.85110    0.12180    0.97760    1.000
    H861     H        0.81040    0.11070    0.94850    1.000
    H862     H        0.80220    0.13160    0.99020    1.000
    C915     C        0.73320    0.03930    0.06470    1.000
    H863     H        0.73830    0.02460    0.08790    1.000
    H864     H        0.71470    0.05530    0.07610    1.000
    H865     H        0.71840    0.02970    0.03980    1.000
    C916     C        0.90160    0.04410    0.07460    1.000
    H866     H        0.92510    0.05520    0.06000    1.000
    H867     H        0.90250    0.04790    0.10640    1.000
    H868     H        0.90550    0.02280    0.06920    1.000
    C917     C        0.64920    0.06550    0.91020    1.000
    C918     C        0.63960    0.08410    0.87240    1.000
    C919     C        0.61510    0.07190    0.83850    1.000
    H869     H        0.60580    0.08440    0.81510    1.000
    C920     C        0.60340    0.04110    0.83730    1.000
    C921     C        0.60950    0.02640    0.87440    1.000
    H870     H        0.59870    0.00670    0.87610    1.000
    C922     C        0.63130    0.03820    0.91170    1.000
    C923     C        0.63720    0.01800    0.95210    1.000
    H871     H        0.62190    0.99910    0.94720    1.000
    H872     H        0.66860    0.01420    0.95680    1.000
    H873     H        0.62490    0.02780    0.97810    1.000
    C924     C        0.58520    0.02790    0.79770    1.000
    H874     H        0.58370    0.04300    0.77450    1.000
    H875     H        0.60400    0.01150    0.78810    1.000
    H876     H        0.55560    0.02040    0.80390    1.000
    C925     C        0.65510    0.11610    0.86990    1.000
    H877     H        0.67180    0.12100    0.89650    1.000
    H878     H        0.67380    0.11870    0.84400    1.000
    H879     H        0.62960    0.12930    0.86760    1.000
    C926     C        0.65090    0.14300    0.02760    1.000
    C927     C        0.61240    0.15570    0.01010    1.000
    H880     H        0.60180    0.14920    0.98240    1.000
    C928     C        0.59010    0.17730    0.03300    1.000
    C929     C        0.60650    0.18840    0.07210    1.000
    C930     C        0.64540    0.17690    0.09080    1.000
    C931     C        0.66530    0.15400    0.06820    1.000
    C932     C        0.66240    0.18680    0.13420    1.000
    C933     C        0.64140    0.17890    0.17130    1.000
    C934     C        0.65690    0.18610    0.21320    1.000
    H881     H        0.64040    0.18070    0.23850    1.000
    C935     C        0.69340    0.20000    0.21720    1.000
    C936     C        0.71680    0.20810    0.17970    1.000
    H882     H        0.74310    0.21920    0.18350    1.000
    C937     C        0.70350    0.20060    0.13520    1.000
    C938     C        0.73020    0.20740    0.09780    1.000
    H883     H        0.75740    0.21710    0.10750    1.000
    H884     H        0.73730    0.18910    0.08200    1.000
    H885     H        0.71410    0.22090    0.07820    1.000
    C939     C        0.59750    0.16020    0.16910    1.000
    H886     H        0.58680    0.15650    0.19900    1.000
    H887     H        0.57530    0.17140    0.15260    1.000
    H888     H        0.60320    0.14120    0.15430    1.000
    C940     C        0.71040    0.21000    0.26410    1.000
    H889     H        0.73860    0.22030    0.26100    1.000
    H890     H        0.68890    0.22350    0.27750    1.000
    H891     H        0.71410    0.19250    0.28290    1.000
    C941     C        0.55000    0.21110    0.98070    1.000
    C942     C        0.51120    0.22330    0.96460    1.000
    H892     H        0.51220    0.23760    0.94160    1.000
    C943     C        0.47110    0.21470    0.98220    1.000
    C944     C        0.46960    0.19380    0.01580    1.000
    H893     H        0.44220    0.18780    0.02790    1.000
    C945     C        0.50840    0.18150    0.03190    1.000
    C946     C        0.54850    0.19020    0.01440    1.000
    C947     C        0.59420    0.22070    0.95890    1.000
    H894     H        0.61870    0.21050    0.97340    1.000
    H895     H        0.59380    0.21550    0.92760    1.000
    H896     H        0.59800    0.24230    0.96210    1.000
    C948     C        0.42900    0.22890    0.96150    1.000
    H897     H        0.43760    0.24300    0.93840    1.000
    H898     H        0.41050    0.21330    0.94870    1.000
    H899     H        0.41240    0.23940    0.98440    1.000
    C949     C        0.50730    0.16040    0.06910    1.000
    H900     H        0.53740    0.15400    0.07610    1.000
    H901     H        0.49430    0.17010    0.09490    1.000
    H902     H        0.48970    0.14300    0.06100    1.000
    C950     C        0.55450    0.22620    0.10580    1.000
    C951     C        0.48800    0.27260    0.06350    1.000
    C952     C        0.45570    0.31170    0.01200    1.000
    C953     C        0.41500    0.32110    0.03020    1.000
    C954     C        0.39380    0.34320    0.00690    1.000
    H903     H        0.36640    0.35010    0.01780    1.000
    C955     C        0.40980    0.35590    0.96870    1.000
    C956     C        0.44990    0.34510    0.95110    1.000
    H904     H        0.46170    0.35320    0.92480    1.000
    C957     C        0.47160    0.32250    0.97290    1.000
    C958     C        0.51510    0.31200    0.95410    1.000
    C959     C        0.51920    0.29810    0.91510    1.000
    C960     C        0.56040    0.28920    0.89900    1.000
    H905     H        0.56220    0.27740    0.87310    1.000
    C961     C        0.59820    0.29750    0.92050    1.000
    C962     C        0.59480    0.31370    0.95840    1.000
    H906     H        0.62100    0.31950    0.97310    1.000
    C963     C        0.55590    0.32170    0.97590    1.000
    C964     C        0.55390    0.34150    0.01430    1.000
    H907     H        0.52310    0.34490    0.02240    1.000
    H908     H        0.56940    0.33230    0.03900    1.000
    H909     H        0.56780    0.36050    0.00700    1.000
    C965     C        0.47760    0.29000    0.89020    1.000
    H910     H        0.48550    0.28010    0.86260    1.000
    H911     H        0.45970    0.27660    0.90810    1.000
    H912     H        0.46090    0.30810    0.88370    1.000
    C966     C        0.63730    0.28860    0.89260    1.000
    H913     H        0.62710    0.27690    0.86740    1.000
    H914     H        0.65230    0.30650    0.88200    1.000
    H915     H        0.65770    0.27680    0.91030    1.000
    C967     C        0.39530    0.30960    0.07290    1.000
    C968     C        0.41580    0.31780    0.11040    1.000
    C969     C        0.45550    0.33900    0.11240    1.000
    H916     H        0.46460    0.34160    0.14310    1.000
    H917     H        0.47990    0.33050    0.09550    1.000
    H918     H        0.44730    0.35830    0.09990    1.000
    C970     C        0.39690    0.30850    0.15010    1.000
    H919     H        0.41080    0.31350    0.17710    1.000
    C971     C        0.35660    0.29150    0.15110    1.000
    C972     C        0.34520    0.28220    0.11470    1.000
    H920     H        0.32590    0.26560    0.11450    1.000
    C973     C        0.35790    0.29380    0.07280    1.000
    C974     C        0.33550    0.28420    0.02940    1.000
    H921     H        0.30880    0.27290    0.03610    1.000
    H922     H        0.32790    0.30180    0.01220    1.000
    H923     H        0.35570    0.27170    0.01250    1.000
    C975     C        0.33170    0.28320    0.18970    1.000
    H924     H        0.34490    0.29230    0.21580    1.000
    H925     H        0.30130    0.29010    0.18650    1.000
    H926     H        0.33190    0.26150    0.19290    1.000
    C976     C        0.38670    0.38000    0.94520    1.000
    C977     C        0.39440    0.38860    0.90510    1.000
    H927     H        0.41650    0.37800    0.88940    1.000
    C978     C        0.37380    0.41120    0.88310    1.000
    C979     C        0.33960    0.42650    0.90500    1.000
    C980     C        0.32840    0.41820    0.94780    1.000
    C981     C        0.35350    0.39590    0.96880    1.000
    H928     H        0.34820    0.39150    0.99890    1.000
    C982     C        0.29190    0.43140    0.97210    1.000
    C983     C        0.29210    0.46030    0.98550    1.000
    C984     C        0.25720    0.46960    0.01330    1.000
    H929     H        0.26080    0.48720    0.03030    1.000
    C985     C        0.21910    0.45450    0.01650    1.000
    C986     C        0.21930    0.42640    0.00400    1.000
    H930     H        0.19450    0.41450    0.01110    1.000
    C987     C        0.25340    0.41330    0.98100    1.000
    C988     C        0.24990    0.38260    0.96460    1.000
    H931     H        0.27700    0.37720    0.94920    1.000
    H932     H        0.24520    0.36910    0.98940    1.000
    H933     H        0.22500    0.38120    0.94420    1.000
    C989     C        0.33030    0.48120    0.98010    1.000
    H934     H        0.32260    0.50070    0.99220    1.000
    H935     H        0.35590    0.47320    0.99570    1.000
    H936     H        0.33730    0.48320    0.94870    1.000
    C990     C        0.17580    0.46830    0.03870    1.000
    H937     H        0.18110    0.48920    0.04600    1.000
    H938     H        0.15120    0.46690    0.01800    1.000
    H939     H        0.16870    0.45720    0.06550    1.000
    C991     C        0.39290    0.42180    0.83980    1.000
    C992     C        0.38330    0.40810    0.80000    1.000
    C993     C        0.40290    0.41810    0.76140    1.000
    H940     H        0.39630    0.40870    0.73420    1.000
    C994     C        0.43210    0.44180    0.76270    1.000
    C995     C        0.44170    0.45550    0.80250    1.000
    H941     H        0.46170    0.47180    0.80340    1.000
    C996     C        0.42210    0.44550    0.84100    1.000
    C997     C        0.35520    0.38150    0.80150    1.000
    H942     H        0.36190    0.36870    0.77630    1.000
    H943     H        0.32430    0.38750    0.80030    1.000
    H944     H        0.36070    0.37060    0.82890    1.000
    C998     C        0.43260    0.46240    0.88090    1.000
    H945     H        0.44420    0.44750    0.89840    1.000
    H946     H        0.45380    0.47880    0.87530    1.000
    H947     H        0.40630    0.47200    0.89540    1.000
    C999     C        0.45290    0.45090    0.71760    1.000
    H948     H        0.47290    0.46780    0.72210    1.000
    H949     H        0.46930    0.43410    0.70550    1.000
    H950     H        0.42960    0.45670    0.69710    1.000
    C1000    C        0.29500    0.47030    0.87740    1.000
    Cu11     Cu       0.00130    0.74988    0.11646    1.000
    N41      N        0.23360    0.54700    0.93840    1.000
    N42      N        0.08190    0.71030    0.09440    1.000
    N43      N        0.97710    0.78880    0.03540    1.000
    N44      N        0.81890    0.95070    0.88570    1.000
    C1001    C        0.24240    0.52900    0.91540    1.000
    C1002    C        0.21390    0.57110    0.96300    1.000
    C1003    C        0.17130    0.58030    0.94910    1.000
    C1004    C        0.15260    0.60300    0.97010    1.000
    H951     H        0.12420    0.60940    0.96100    1.000
    C1005    C        0.17260    0.61760    0.00410    1.000
    C1006    C        0.21530    0.60890    0.01670    1.000
    H952     H        0.23000    0.61990    0.03900    1.000
    C1007    C        0.23590    0.58550    0.99800    1.000
    C1008    C        0.27870    0.57420    0.01550    1.000
    C1009    C        0.27660    0.55190    0.04960    1.000
    C1010    C        0.31860    0.54280    0.06990    1.000
    H953     H        0.31860    0.52870    0.09310    1.000
    C1011    C        0.35630    0.55420    0.05600    1.000
    C1012    C        0.35840    0.57850    0.02530    1.000
    H954     H        0.38530    0.58760    0.01710    1.000
    C1013    C        0.31570    0.58810    0.00750    1.000
    C1014    C        0.32020    0.61550    0.97840    1.000
    H955     H        0.35110    0.62180    0.97760    1.000
    H956     H        0.31040    0.61070    0.94850    1.000
    H957     H        0.30220    0.63160    0.99020    1.000
    C1015    C        0.23320    0.53930    0.06470    1.000
    H958     H        0.23830    0.52460    0.08790    1.000
    H959     H        0.21470    0.55530    0.07610    1.000
    H960     H        0.21840    0.52970    0.03980    1.000
    C1016    C        0.40160    0.54410    0.07460    1.000
    H961     H        0.42510    0.55520    0.06000    1.000
    H962     H        0.40250    0.54790    0.10640    1.000
    H963     H        0.40550    0.52280    0.06920    1.000
    C1017    C        0.14920    0.56550    0.91020    1.000
    C1018    C        0.13960    0.58410    0.87240    1.000
    C1019    C        0.11510    0.57190    0.83850    1.000
    H964     H        0.10580    0.58440    0.81510    1.000
    C1020    C        0.10340    0.54110    0.83730    1.000
    C1021    C        0.10950    0.52640    0.87440    1.000
    H965     H        0.09870    0.50670    0.87610    1.000
    C1022    C        0.13130    0.53820    0.91170    1.000
    C1023    C        0.13720    0.51800    0.95210    1.000
    H966     H        0.12190    0.49910    0.94720    1.000
    H967     H        0.16860    0.51420    0.95680    1.000
    H968     H        0.12490    0.52780    0.97810    1.000
    C1024    C        0.08520    0.52790    0.79770    1.000
    H969     H        0.08370    0.54300    0.77450    1.000
    H970     H        0.10400    0.51150    0.78810    1.000
    H971     H        0.05560    0.52040    0.80390    1.000
    C1025    C        0.15510    0.61610    0.86990    1.000
    H972     H        0.17180    0.62100    0.89650    1.000
    H973     H        0.17380    0.61870    0.84400    1.000
    H974     H        0.12960    0.62930    0.86760    1.000
    C1026    C        0.15090    0.64300    0.02760    1.000
    C1027    C        0.11240    0.65570    0.01010    1.000
    H975     H        0.10180    0.64920    0.98240    1.000
    C1028    C        0.09010    0.67730    0.03300    1.000
    C1029    C        0.10650    0.68840    0.07210    1.000
    C1030    C        0.14540    0.67690    0.09080    1.000
    C1031    C        0.16530    0.65400    0.06820    1.000
    C1032    C        0.16240    0.68680    0.13420    1.000
    C1033    C        0.14140    0.67890    0.17130    1.000
    C1034    C        0.15690    0.68610    0.21320    1.000
    H976     H        0.14040    0.68070    0.23850    1.000
    C1035    C        0.19340    0.70000    0.21720    1.000
    C1036    C        0.21680    0.70810    0.17970    1.000
    H977     H        0.24310    0.71920    0.18350    1.000
    C1037    C        0.20350    0.70060    0.13520    1.000
    C1038    C        0.23020    0.70740    0.09780    1.000
    H978     H        0.25740    0.71710    0.10750    1.000
    H979     H        0.23730    0.68910    0.08200    1.000
    H980     H        0.21410    0.72090    0.07820    1.000
    C1039    C        0.09750    0.66020    0.16910    1.000
    H981     H        0.08680    0.65650    0.19900    1.000
    H982     H        0.07530    0.67140    0.15260    1.000
    H983     H        0.10320    0.64120    0.15430    1.000
    C1040    C        0.21040    0.71000    0.26410    1.000
    H984     H        0.23860    0.72030    0.26100    1.000
    H985     H        0.18890    0.72350    0.27750    1.000
    H986     H        0.21410    0.69250    0.28290    1.000
    C1041    C        0.05000    0.71110    0.98070    1.000
    C1042    C        0.01120    0.72330    0.96460    1.000
    H987     H        0.01220    0.73760    0.94160    1.000
    C1043    C        0.97110    0.71470    0.98220    1.000
    C1044    C        0.96960    0.69380    0.01580    1.000
    H988     H        0.94220    0.68780    0.02790    1.000
    C1045    C        0.00840    0.68150    0.03190    1.000
    C1046    C        0.04850    0.69020    0.01440    1.000
    C1047    C        0.09420    0.72070    0.95890    1.000
    H989     H        0.11870    0.71050    0.97340    1.000
    H990     H        0.09380    0.71550    0.92760    1.000
    H991     H        0.09800    0.74230    0.96210    1.000
    C1048    C        0.92900    0.72890    0.96150    1.000
    H992     H        0.93760    0.74300    0.93840    1.000
    H993     H        0.91050    0.71330    0.94870    1.000
    H994     H        0.91240    0.73940    0.98440    1.000
    C1049    C        0.00730    0.66040    0.06910    1.000
    H995     H        0.03740    0.65400    0.07610    1.000
    H996     H        0.99430    0.67010    0.09490    1.000
    H997     H        0.98970    0.64300    0.06100    1.000
    C1050    C        0.05450    0.72620    0.10580    1.000
    C1051    C        0.98800    0.77260    0.06350    1.000
    C1052    C        0.95570    0.81170    0.01200    1.000
    C1053    C        0.91500    0.82110    0.03020    1.000
    C1054    C        0.89380    0.84320    0.00690    1.000
    H998     H        0.86640    0.85010    0.01780    1.000
    C1055    C        0.90980    0.85590    0.96870    1.000
    C1056    C        0.94990    0.84510    0.95110    1.000
    H999     H        0.96170    0.85320    0.92480    1.000
    C1057    C        0.97160    0.82250    0.97290    1.000
    C1058    C        0.01510    0.81200    0.95410    1.000
    C1059    C        0.01920    0.79810    0.91510    1.000
    C1060    C        0.06040    0.78920    0.89900    1.000
    H1000    H        0.06220    0.77740    0.87310    1.000
    C1061    C        0.09820    0.79750    0.92050    1.000
    C1062    C        0.09480    0.81370    0.95840    1.000
    H1001    H        0.12100    0.81950    0.97310    1.000
    C1063    C        0.05590    0.82170    0.97590    1.000
    C1064    C        0.05390    0.84150    0.01430    1.000
    H1002    H        0.02310    0.84490    0.02240    1.000
    H1003    H        0.06940    0.83230    0.03900    1.000
    H1004    H        0.06780    0.86050    0.00700    1.000
    C1065    C        0.97760    0.79000    0.89020    1.000
    H1005    H        0.98550    0.78010    0.86260    1.000
    H1006    H        0.95970    0.77660    0.90810    1.000
    H1007    H        0.96090    0.80810    0.88370    1.000
    C1066    C        0.13730    0.78860    0.89260    1.000
    H1008    H        0.12710    0.77690    0.86740    1.000
    H1009    H        0.15230    0.80650    0.88200    1.000
    H1010    H        0.15770    0.77680    0.91030    1.000
    C1067    C        0.89530    0.80960    0.07290    1.000
    C1068    C        0.91580    0.81780    0.11040    1.000
    C1069    C        0.95550    0.83900    0.11240    1.000
    H1011    H        0.96460    0.84160    0.14310    1.000
    H1012    H        0.97990    0.83050    0.09550    1.000
    H1013    H        0.94730    0.85830    0.09990    1.000
    C1070    C        0.89690    0.80850    0.15010    1.000
    H1014    H        0.91080    0.81350    0.17710    1.000
    C1071    C        0.85660    0.79150    0.15110    1.000
    C1072    C        0.84520    0.78220    0.11470    1.000
    H1015    H        0.82590    0.76560    0.11450    1.000
    C1073    C        0.85790    0.79380    0.07280    1.000
    C1074    C        0.83550    0.78420    0.02940    1.000
    H1016    H        0.80880    0.77290    0.03610    1.000
    H1017    H        0.82790    0.80180    0.01220    1.000
    H1018    H        0.85570    0.77170    0.01250    1.000
    C1075    C        0.83170    0.78320    0.18970    1.000
    H1019    H        0.84490    0.79230    0.21580    1.000
    H1020    H        0.80130    0.79010    0.18650    1.000
    H1021    H        0.83190    0.76150    0.19290    1.000
    C1076    C        0.88670    0.88000    0.94520    1.000
    C1077    C        0.89440    0.88860    0.90510    1.000
    H1022    H        0.91650    0.87800    0.88940    1.000
    C1078    C        0.87380    0.91120    0.88310    1.000
    C1079    C        0.83960    0.92650    0.90500    1.000
    C1080    C        0.82840    0.91820    0.94780    1.000
    C1081    C        0.85350    0.89590    0.96880    1.000
    H1023    H        0.84820    0.89150    0.99890    1.000
    C1082    C        0.79190    0.93140    0.97210    1.000
    C1083    C        0.79210    0.96030    0.98550    1.000
    C1084    C        0.75720    0.96960    0.01330    1.000
    H1024    H        0.76080    0.98720    0.03030    1.000
    C1085    C        0.71910    0.95450    0.01650    1.000
    C1086    C        0.71930    0.92640    0.00400    1.000
    H1025    H        0.69450    0.91450    0.01110    1.000
    C1087    C        0.75340    0.91330    0.98100    1.000
    C1088    C        0.74990    0.88260    0.96460    1.000
    H1026    H        0.77700    0.87720    0.94920    1.000
    H1027    H        0.74520    0.86910    0.98940    1.000
    H1028    H        0.72500    0.88120    0.94420    1.000
    C1089    C        0.83030    0.98120    0.98010    1.000
    H1029    H        0.82260    0.00070    0.99220    1.000
    H1030    H        0.85590    0.97320    0.99570    1.000
    H1031    H        0.83730    0.98320    0.94870    1.000
    C1090    C        0.67580    0.96830    0.03870    1.000
    H1032    H        0.68110    0.98920    0.04600    1.000
    H1033    H        0.65120    0.96690    0.01800    1.000
    H1034    H        0.66870    0.95720    0.06550    1.000
    C1091    C        0.89290    0.92180    0.83980    1.000
    C1092    C        0.88330    0.90810    0.80000    1.000
    C1093    C        0.90290    0.91810    0.76140    1.000
    H1035    H        0.89630    0.90870    0.73420    1.000
    C1094    C        0.93210    0.94180    0.76270    1.000
    C1095    C        0.94170    0.95550    0.80250    1.000
    H1036    H        0.96170    0.97180    0.80340    1.000
    C1096    C        0.92210    0.94550    0.84100    1.000
    C1097    C        0.85520    0.88150    0.80150    1.000
    H1037    H        0.86190    0.86870    0.77630    1.000
    H1038    H        0.82430    0.88750    0.80030    1.000
    H1039    H        0.86070    0.87060    0.82890    1.000
    C1098    C        0.93260    0.96240    0.88090    1.000
    H1040    H        0.94420    0.94750    0.89840    1.000
    H1041    H        0.95380    0.97880    0.87530    1.000
    H1042    H        0.90630    0.97200    0.89540    1.000
    C1099    C        0.95290    0.95090    0.71760    1.000
    H1043    H        0.97290    0.96780    0.72210    1.000
    H1044    H        0.96930    0.93410    0.70550    1.000
    H1045    H        0.92960    0.95670    0.69710    1.000
    C1100    C        0.79500    0.97030    0.87740    1.000
    Cu12     Cu       0.00130    0.24988    0.61646    1.000
    N45      N        0.23360    0.04700    0.43840    1.000
    N46      N        0.08190    0.21030    0.59440    1.000
    N47      N        0.97710    0.28880    0.53540    1.000
    N48      N        0.81890    0.45070    0.38570    1.000
    C1101    C        0.24240    0.02900    0.41540    1.000
    C1102    C        0.21390    0.07110    0.46300    1.000
    C1103    C        0.17130    0.08030    0.44910    1.000
    C1104    C        0.15260    0.10300    0.47010    1.000
    H1046    H        0.12420    0.10940    0.46100    1.000
    C1105    C        0.17260    0.11760    0.50410    1.000
    C1106    C        0.21530    0.10890    0.51670    1.000
    H1047    H        0.23000    0.11990    0.53900    1.000
    C1107    C        0.23590    0.08550    0.49800    1.000
    C1108    C        0.27870    0.07420    0.51550    1.000
    C1109    C        0.27660    0.05190    0.54960    1.000
    C1110    C        0.31860    0.04280    0.56990    1.000
    H1048    H        0.31860    0.02870    0.59310    1.000
    C1111    C        0.35630    0.05420    0.55600    1.000
    C1112    C        0.35840    0.07850    0.52530    1.000
    H1049    H        0.38530    0.08760    0.51710    1.000
    C1113    C        0.31570    0.08810    0.50750    1.000
    C1114    C        0.32020    0.11550    0.47840    1.000
    H1050    H        0.35110    0.12180    0.47760    1.000
    H1051    H        0.31040    0.11070    0.44850    1.000
    H1052    H        0.30220    0.13160    0.49020    1.000
    C1115    C        0.23320    0.03930    0.56470    1.000
    H1053    H        0.23830    0.02460    0.58790    1.000
    H1054    H        0.21470    0.05530    0.57610    1.000
    H1055    H        0.21840    0.02970    0.53980    1.000
    C1116    C        0.40160    0.04410    0.57460    1.000
    H1056    H        0.42510    0.05520    0.56000    1.000
    H1057    H        0.40250    0.04790    0.60640    1.000
    H1058    H        0.40550    0.02280    0.56920    1.000
    C1117    C        0.14920    0.06550    0.41020    1.000
    C1118    C        0.13960    0.08410    0.37240    1.000
    C1119    C        0.11510    0.07190    0.33850    1.000
    H1059    H        0.10580    0.08440    0.31510    1.000
    C1120    C        0.10340    0.04110    0.33730    1.000
    C1121    C        0.10950    0.02640    0.37440    1.000
    H1060    H        0.09870    0.00670    0.37610    1.000
    C1122    C        0.13130    0.03820    0.41170    1.000
    C1123    C        0.13720    0.01800    0.45210    1.000
    H1061    H        0.12190    0.99910    0.44720    1.000
    H1062    H        0.16860    0.01420    0.45680    1.000
    H1063    H        0.12490    0.02780    0.47810    1.000
    C1124    C        0.08520    0.02790    0.29770    1.000
    H1064    H        0.08370    0.04300    0.27450    1.000
    H1065    H        0.10400    0.01150    0.28810    1.000
    H1066    H        0.05560    0.02040    0.30390    1.000
    C1125    C        0.15510    0.11610    0.36990    1.000
    H1067    H        0.17180    0.12100    0.39650    1.000
    H1068    H        0.17380    0.11870    0.34400    1.000
    H1069    H        0.12960    0.12930    0.36760    1.000
    C1126    C        0.15090    0.14300    0.52760    1.000
    C1127    C        0.11240    0.15570    0.51010    1.000
    H1070    H        0.10180    0.14920    0.48240    1.000
    C1128    C        0.09010    0.17730    0.53300    1.000
    C1129    C        0.10650    0.18840    0.57210    1.000
    C1130    C        0.14540    0.17690    0.59080    1.000
    C1131    C        0.16530    0.15400    0.56820    1.000
    C1132    C        0.16240    0.18680    0.63420    1.000
    C1133    C        0.14140    0.17890    0.67130    1.000
    C1134    C        0.15690    0.18610    0.71320    1.000
    H1071    H        0.14040    0.18070    0.73850    1.000
    C1135    C        0.19340    0.20000    0.71720    1.000
    C1136    C        0.21680    0.20810    0.67970    1.000
    H1072    H        0.24310    0.21920    0.68350    1.000
    C1137    C        0.20350    0.20060    0.63520    1.000
    C1138    C        0.23020    0.20740    0.59780    1.000
    H1073    H        0.25740    0.21710    0.60750    1.000
    H1074    H        0.23730    0.18910    0.58200    1.000
    H1075    H        0.21410    0.22090    0.57820    1.000
    C1139    C        0.09750    0.16020    0.66910    1.000
    H1076    H        0.08680    0.15650    0.69900    1.000
    H1077    H        0.07530    0.17140    0.65260    1.000
    H1078    H        0.10320    0.14120    0.65430    1.000
    C1140    C        0.21040    0.21000    0.76410    1.000
    H1079    H        0.23860    0.22030    0.76100    1.000
    H1080    H        0.18890    0.22350    0.77750    1.000
    H1081    H        0.21410    0.19250    0.78290    1.000
    C1141    C        0.05000    0.21110    0.48070    1.000
    C1142    C        0.01120    0.22330    0.46460    1.000
    H1082    H        0.01220    0.23760    0.44160    1.000
    C1143    C        0.97110    0.21470    0.48220    1.000
    C1144    C        0.96960    0.19380    0.51580    1.000
    H1083    H        0.94220    0.18780    0.52790    1.000
    C1145    C        0.00840    0.18150    0.53190    1.000
    C1146    C        0.04850    0.19020    0.51440    1.000
    C1147    C        0.09420    0.22070    0.45890    1.000
    H1084    H        0.11870    0.21050    0.47340    1.000
    H1085    H        0.09380    0.21550    0.42760    1.000
    H1086    H        0.09800    0.24230    0.46210    1.000
    C1148    C        0.92900    0.22890    0.46150    1.000
    H1087    H        0.93760    0.24300    0.43840    1.000
    H1088    H        0.91050    0.21330    0.44870    1.000
    H1089    H        0.91240    0.23940    0.48440    1.000
    C1149    C        0.00730    0.16040    0.56910    1.000
    H1090    H        0.03740    0.15400    0.57610    1.000
    H1091    H        0.99430    0.17010    0.59490    1.000
    H1092    H        0.98970    0.14300    0.56100    1.000
    C1150    C        0.05450    0.22620    0.60580    1.000
    C1151    C        0.98800    0.27260    0.56350    1.000
    C1152    C        0.95570    0.31170    0.51200    1.000
    C1153    C        0.91500    0.32110    0.53020    1.000
    C1154    C        0.89380    0.34320    0.50690    1.000
    H1093    H        0.86640    0.35010    0.51780    1.000
    C1155    C        0.90980    0.35590    0.46870    1.000
    C1156    C        0.94990    0.34510    0.45110    1.000
    H1094    H        0.96170    0.35320    0.42480    1.000
    C1157    C        0.97160    0.32250    0.47290    1.000
    C1158    C        0.01510    0.31200    0.45410    1.000
    C1159    C        0.01920    0.29810    0.41510    1.000
    C1160    C        0.06040    0.28920    0.39900    1.000
    H1095    H        0.06220    0.27740    0.37310    1.000
    C1161    C        0.09820    0.29750    0.42050    1.000
    C1162    C        0.09480    0.31370    0.45840    1.000
    H1096    H        0.12100    0.31950    0.47310    1.000
    C1163    C        0.05590    0.32170    0.47590    1.000
    C1164    C        0.05390    0.34150    0.51430    1.000
    H1097    H        0.02310    0.34490    0.52240    1.000
    H1098    H        0.06940    0.33230    0.53900    1.000
    H1099    H        0.06780    0.36050    0.50700    1.000
    C1165    C        0.97760    0.29000    0.39020    1.000
    H1100    H        0.98550    0.28010    0.36260    1.000
    H1101    H        0.95970    0.27660    0.40810    1.000
    H1102    H        0.96090    0.30810    0.38370    1.000
    C1166    C        0.13730    0.28860    0.39260    1.000
    H1103    H        0.12710    0.27690    0.36740    1.000
    H1104    H        0.15230    0.30650    0.38200    1.000
    H1105    H        0.15770    0.27680    0.41030    1.000
    C1167    C        0.89530    0.30960    0.57290    1.000
    C1168    C        0.91580    0.31780    0.61040    1.000
    C1169    C        0.95550    0.33900    0.61240    1.000
    H1106    H        0.96460    0.34160    0.64310    1.000
    H1107    H        0.97990    0.33050    0.59550    1.000
    H1108    H        0.94730    0.35830    0.59990    1.000
    C1170    C        0.89690    0.30850    0.65010    1.000
    H1109    H        0.91080    0.31350    0.67710    1.000
    C1171    C        0.85660    0.29150    0.65110    1.000
    C1172    C        0.84520    0.28220    0.61470    1.000
    H1110    H        0.82590    0.26560    0.61450    1.000
    C1173    C        0.85790    0.29380    0.57280    1.000
    C1174    C        0.83550    0.28420    0.52940    1.000
    H1111    H        0.80880    0.27290    0.53610    1.000
    H1112    H        0.82790    0.30180    0.51220    1.000
    H1113    H        0.85570    0.27170    0.51250    1.000
    C1175    C        0.83170    0.28320    0.68970    1.000
    H1114    H        0.84490    0.29230    0.71580    1.000
    H1115    H        0.80130    0.29010    0.68650    1.000
    H1116    H        0.83190    0.26150    0.69290    1.000
    C1176    C        0.88670    0.38000    0.44520    1.000
    C1177    C        0.89440    0.38860    0.40510    1.000
    H1117    H        0.91650    0.37800    0.38940    1.000
    C1178    C        0.87380    0.41120    0.38310    1.000
    C1179    C        0.83960    0.42650    0.40500    1.000
    C1180    C        0.82840    0.41820    0.44780    1.000
    C1181    C        0.85350    0.39590    0.46880    1.000
    H1118    H        0.84820    0.39150    0.49890    1.000
    C1182    C        0.79190    0.43140    0.47210    1.000
    C1183    C        0.79210    0.46030    0.48550    1.000
    C1184    C        0.75720    0.46960    0.51330    1.000
    H1119    H        0.76080    0.48720    0.53030    1.000
    C1185    C        0.71910    0.45450    0.51650    1.000
    C1186    C        0.71930    0.42640    0.50400    1.000
    H1120    H        0.69450    0.41450    0.51110    1.000
    C1187    C        0.75340    0.41330    0.48100    1.000
    C1188    C        0.74990    0.38260    0.46460    1.000
    H1121    H        0.77700    0.37720    0.44920    1.000
    H1122    H        0.74520    0.36910    0.48940    1.000
    H1123    H        0.72500    0.38120    0.44420    1.000
    C1189    C        0.83030    0.48120    0.48010    1.000
    H1124    H        0.82260    0.50070    0.49220    1.000
    H1125    H        0.85590    0.47320    0.49570    1.000
    H1126    H        0.83730    0.48320    0.44870    1.000
    C1190    C        0.67580    0.46830    0.53870    1.000
    H1127    H        0.68110    0.48920    0.54600    1.000
    H1128    H        0.65120    0.46690    0.51800    1.000
    H1129    H        0.66870    0.45720    0.56550    1.000
    C1191    C        0.89290    0.42180    0.33980    1.000
    C1192    C        0.88330    0.40810    0.30000    1.000
    C1193    C        0.90290    0.41810    0.26140    1.000
    H1130    H        0.89630    0.40870    0.23420    1.000
    C1194    C        0.93210    0.44180    0.26270    1.000
    C1195    C        0.94170    0.45550    0.30250    1.000
    H1131    H        0.96170    0.47180    0.30340    1.000
    C1196    C        0.92210    0.44550    0.34100    1.000
    C1197    C        0.85520    0.38150    0.30150    1.000
    H1132    H        0.86190    0.36870    0.27630    1.000
    H1133    H        0.82430    0.38750    0.30030    1.000
    H1134    H        0.86070    0.37060    0.32890    1.000
    C1198    C        0.93260    0.46240    0.38090    1.000
    H1135    H        0.94420    0.44750    0.39840    1.000
    H1136    H        0.95380    0.47880    0.37530    1.000
    H1137    H        0.90630    0.47200    0.39540    1.000
    C1199    C        0.95290    0.45090    0.21760    1.000
    H1138    H        0.97290    0.46780    0.22210    1.000
    H1139    H        0.96930    0.43410    0.20550    1.000
    H1140    H        0.92960    0.45670    0.19710    1.000
    C1200    C        0.79500    0.47030    0.37740    1.000
    Cu13     Cu       0.74870    0.99988    0.86646    1.000
    N49      N        0.51640    0.79700    0.68840    1.000
    N50      N        0.66810    0.96030    0.84440    1.000
    N51      N        0.77290    0.03880    0.78540    1.000
    N52      N        0.93110    0.20070    0.63570    1.000
    C1201    C        0.50760    0.77900    0.66540    1.000
    C1202    C        0.53610    0.82110    0.71300    1.000
    C1203    C        0.57870    0.83030    0.69910    1.000
    C1204    C        0.59740    0.85300    0.72010    1.000
    H1141    H        0.62580    0.85940    0.71100    1.000
    C1205    C        0.57740    0.86760    0.75410    1.000
    C1206    C        0.53470    0.85890    0.76670    1.000
    H1142    H        0.52000    0.86990    0.78900    1.000
    C1207    C        0.51410    0.83550    0.74800    1.000
    C1208    C        0.47130    0.82420    0.76550    1.000
    C1209    C        0.47340    0.80190    0.79960    1.000
    C1210    C        0.43140    0.79280    0.81990    1.000
    H1143    H        0.43140    0.77870    0.84310    1.000
    C1211    C        0.39370    0.80420    0.80600    1.000
    C1212    C        0.39160    0.82850    0.77530    1.000
    H1144    H        0.36470    0.83760    0.76710    1.000
    C1213    C        0.43430    0.83810    0.75750    1.000
    C1214    C        0.42980    0.86550    0.72840    1.000
    H1145    H        0.39890    0.87180    0.72760    1.000
    H1146    H        0.43960    0.86070    0.69850    1.000
    H1147    H        0.44780    0.88160    0.74020    1.000
    C1215    C        0.51680    0.78930    0.81470    1.000
    H1148    H        0.51170    0.77460    0.83790    1.000
    H1149    H        0.53530    0.80530    0.82610    1.000
    H1150    H        0.53160    0.77970    0.78980    1.000
    C1216    C        0.34840    0.79410    0.82460    1.000
    H1151    H        0.32490    0.80520    0.81000    1.000
    H1152    H        0.34750    0.79790    0.85640    1.000
    H1153    H        0.34450    0.77280    0.81920    1.000
    C1217    C        0.60080    0.81550    0.66020    1.000
    C1218    C        0.61040    0.83410    0.62240    1.000
    C1219    C        0.63490    0.82190    0.58850    1.000
    H1154    H        0.64420    0.83440    0.56510    1.000
    C1220    C        0.64660    0.79110    0.58730    1.000
    C1221    C        0.64050    0.77640    0.62440    1.000
    H1155    H        0.65130    0.75670    0.62610    1.000
    C1222    C        0.61870    0.78820    0.66170    1.000
    C1223    C        0.61280    0.76800    0.70210    1.000
    H1156    H        0.62810    0.74910    0.69720    1.000
    H1157    H        0.58140    0.76420    0.70680    1.000
    H1158    H        0.62510    0.77780    0.72810    1.000
    C1224    C        0.66480    0.77790    0.54770    1.000
    H1159    H        0.66630    0.79300    0.52450    1.000
    H1160    H        0.64600    0.76150    0.53810    1.000
    H1161    H        0.69440    0.77040    0.55390    1.000
    C1225    C        0.59490    0.86610    0.61990    1.000
    H1162    H        0.57820    0.87100    0.64650    1.000
    H1163    H        0.57620    0.86870    0.59400    1.000
    H1164    H        0.62040    0.87930    0.61760    1.000
    C1226    C        0.59910    0.89300    0.77760    1.000
    C1227    C        0.63760    0.90570    0.76010    1.000
    H1165    H        0.64820    0.89920    0.73240    1.000
    C1228    C        0.65990    0.92730    0.78300    1.000
    C1229    C        0.64350    0.93840    0.82210    1.000
    C1230    C        0.60460    0.92690    0.84080    1.000
    C1231    C        0.58470    0.90400    0.81820    1.000
    C1232    C        0.58760    0.93680    0.88420    1.000
    C1233    C        0.60860    0.92890    0.92130    1.000
    C1234    C        0.59310    0.93610    0.96320    1.000
    H1166    H        0.60960    0.93070    0.98850    1.000
    C1235    C        0.55660    0.95000    0.96720    1.000
    C1236    C        0.53320    0.95810    0.92970    1.000
    H1167    H        0.50690    0.96920    0.93350    1.000
    C1237    C        0.54650    0.95060    0.88520    1.000
    C1238    C        0.51980    0.95740    0.84780    1.000
    H1168    H        0.49260    0.96710    0.85750    1.000
    H1169    H        0.51270    0.93910    0.83200    1.000
    H1170    H        0.53590    0.97090    0.82820    1.000
    C1239    C        0.65250    0.91020    0.91910    1.000
    H1171    H        0.66320    0.90650    0.94900    1.000
    H1172    H        0.67470    0.92140    0.90260    1.000
    H1173    H        0.64680    0.89120    0.90430    1.000
    C1240    C        0.53960    0.96000    0.01410    1.000
    H1174    H        0.51140    0.97030    0.01100    1.000
    H1175    H        0.56110    0.97350    0.02750    1.000
    H1176    H        0.53590    0.94250    0.03290    1.000
    C1241    C        0.70000    0.96110    0.73070    1.000
    C1242    C        0.73880    0.97330    0.71460    1.000
    H1177    H        0.73780    0.98760    0.69160    1.000
    C1243    C        0.77890    0.96470    0.73220    1.000
    C1244    C        0.78040    0.94380    0.76580    1.000
    H1178    H        0.80780    0.93780    0.77790    1.000
    C1245    C        0.74160    0.93150    0.78190    1.000
    C1246    C        0.70150    0.94020    0.76440    1.000
    C1247    C        0.65580    0.97070    0.70890    1.000
    H1179    H        0.63130    0.96050    0.72340    1.000
    H1180    H        0.65620    0.96550    0.67760    1.000
    H1181    H        0.65200    0.99230    0.71210    1.000
    C1248    C        0.82100    0.97890    0.71150    1.000
    H1182    H        0.81240    0.99300    0.68840    1.000
    H1183    H        0.83950    0.96330    0.69870    1.000
    H1184    H        0.83760    0.98940    0.73440    1.000
    C1249    C        0.74270    0.91040    0.81910    1.000
    H1185    H        0.71260    0.90400    0.82610    1.000
    H1186    H        0.75570    0.92010    0.84490    1.000
    H1187    H        0.76030    0.89300    0.81100    1.000
    C1250    C        0.69550    0.97620    0.85580    1.000
    C1251    C        0.76200    0.02260    0.81350    1.000
    C1252    C        0.79430    0.06170    0.76200    1.000
    C1253    C        0.83500    0.07110    0.78020    1.000
    C1254    C        0.85620    0.09320    0.75690    1.000
    H1188    H        0.88360    0.10010    0.76780    1.000
    C1255    C        0.84020    0.10590    0.71870    1.000
    C1256    C        0.80010    0.09510    0.70110    1.000
    H1189    H        0.78830    0.10320    0.67480    1.000
    C1257    C        0.77840    0.07250    0.72290    1.000
    C1258    C        0.73490    0.06200    0.70410    1.000
    C1259    C        0.73080    0.04810    0.66510    1.000
    C1260    C        0.68960    0.03920    0.64900    1.000
    H1190    H        0.68780    0.02740    0.62310    1.000
    C1261    C        0.65180    0.04750    0.67050    1.000
    C1262    C        0.65520    0.06370    0.70840    1.000
    H1191    H        0.62900    0.06950    0.72310    1.000
    C1263    C        0.69410    0.07170    0.72590    1.000
    C1264    C        0.69610    0.09150    0.76430    1.000
    H1192    H        0.72690    0.09490    0.77240    1.000
    H1193    H        0.68060    0.08230    0.78900    1.000
    H1194    H        0.68220    0.11050    0.75700    1.000
    C1265    C        0.77240    0.04000    0.64020    1.000
    H1195    H        0.76450    0.03010    0.61260    1.000
    H1196    H        0.79030    0.02660    0.65810    1.000
    H1197    H        0.78910    0.05810    0.63370    1.000
    C1266    C        0.61270    0.03860    0.64260    1.000
    H1198    H        0.62290    0.02690    0.61740    1.000
    H1199    H        0.59770    0.05650    0.63200    1.000
    H1200    H        0.59230    0.02680    0.66030    1.000
    C1267    C        0.85470    0.05960    0.82290    1.000
    C1268    C        0.83420    0.06780    0.86040    1.000
    C1269    C        0.79450    0.08900    0.86240    1.000
    H1201    H        0.78540    0.09160    0.89310    1.000
    H1202    H        0.77010    0.08050    0.84550    1.000
    H1203    H        0.80270    0.10830    0.84990    1.000
    C1270    C        0.85310    0.05850    0.90010    1.000
    H1204    H        0.83920    0.06350    0.92710    1.000
    C1271    C        0.89340    0.04150    0.90110    1.000
    C1272    C        0.90480    0.03220    0.86470    1.000
    H1205    H        0.92410    0.01560    0.86450    1.000
    C1273    C        0.89210    0.04380    0.82280    1.000
    C1274    C        0.91450    0.03420    0.77940    1.000
    H1206    H        0.94120    0.02290    0.78610    1.000
    H1207    H        0.92210    0.05180    0.76220    1.000
    H1208    H        0.89430    0.02170    0.76250    1.000
    C1275    C        0.91830    0.03320    0.93970    1.000
    H1209    H        0.90510    0.04230    0.96580    1.000
    H1210    H        0.94870    0.04010    0.93650    1.000
    H1211    H        0.91810    0.01150    0.94290    1.000
    C1276    C        0.86330    0.13000    0.69520    1.000
    C1277    C        0.85560    0.13860    0.65510    1.000
    H1212    H        0.83350    0.12800    0.63940    1.000
    C1278    C        0.87620    0.16120    0.63310    1.000
    C1279    C        0.91040    0.17650    0.65500    1.000
    C1280    C        0.92160    0.16820    0.69780    1.000
    C1281    C        0.89650    0.14590    0.71880    1.000
    H1213    H        0.90180    0.14150    0.74890    1.000
    C1282    C        0.95810    0.18140    0.72210    1.000
    C1283    C        0.95790    0.21030    0.73550    1.000
    C1284    C        0.99280    0.21960    0.76330    1.000
    H1214    H        0.98920    0.23720    0.78030    1.000
    C1285    C        0.03090    0.20450    0.76650    1.000
    C1286    C        0.03070    0.17640    0.75400    1.000
    H1215    H        0.05550    0.16450    0.76110    1.000
    C1287    C        0.99660    0.16330    0.73100    1.000
    C1288    C        0.00010    0.13260    0.71460    1.000
    H1216    H        0.97300    0.12720    0.69920    1.000
    H1217    H        0.00480    0.11910    0.73940    1.000
    H1218    H        0.02500    0.13120    0.69420    1.000
    C1289    C        0.91970    0.23120    0.73010    1.000
    H1219    H        0.92740    0.25070    0.74220    1.000
    H1220    H        0.89410    0.22320    0.74570    1.000
    H1221    H        0.91270    0.23320    0.69870    1.000
    C1290    C        0.07420    0.21830    0.78870    1.000
    H1222    H        0.06890    0.23920    0.79600    1.000
    H1223    H        0.09880    0.21690    0.76800    1.000
    H1224    H        0.08130    0.20720    0.81550    1.000
    C1291    C        0.85710    0.17180    0.58980    1.000
    C1292    C        0.86670    0.15810    0.55000    1.000
    C1293    C        0.84710    0.16810    0.51140    1.000
    H1225    H        0.85370    0.15870    0.48420    1.000
    C1294    C        0.81790    0.19180    0.51270    1.000
    C1295    C        0.80830    0.20550    0.55250    1.000
    H1226    H        0.78830    0.22180    0.55340    1.000
    C1296    C        0.82790    0.19550    0.59100    1.000
    C1297    C        0.89480    0.13150    0.55150    1.000
    H1227    H        0.88810    0.11870    0.52630    1.000
    H1228    H        0.92570    0.13750    0.55030    1.000
    H1229    H        0.88930    0.12060    0.57890    1.000
    C1298    C        0.81740    0.21240    0.63090    1.000
    H1230    H        0.80580    0.19750    0.64840    1.000
    H1231    H        0.79620    0.22880    0.62530    1.000
    H1232    H        0.84370    0.22200    0.64540    1.000
    C1299    C        0.79710    0.20090    0.46760    1.000
    H1233    H        0.77710    0.21780    0.47210    1.000
    H1234    H        0.78070    0.18410    0.45550    1.000
    H1235    H        0.82040    0.20670    0.44710    1.000
    C1300    C        0.95500    0.22030    0.62740    1.000
    Cu14     Cu       0.74870    0.49988    0.36646    1.000
    N53      N        0.51640    0.29700    0.18840    1.000
    N54      N        0.66810    0.46030    0.34440    1.000
    N55      N        0.77290    0.53880    0.28540    1.000
    N56      N        0.93110    0.70070    0.13570    1.000
    C1301    C        0.50760    0.27900    0.16540    1.000
    C1302    C        0.53610    0.32110    0.21300    1.000
    C1303    C        0.57870    0.33030    0.19910    1.000
    C1304    C        0.59740    0.35300    0.22010    1.000
    H1236    H        0.62580    0.35940    0.21100    1.000
    C1305    C        0.57740    0.36760    0.25410    1.000
    C1306    C        0.53470    0.35890    0.26670    1.000
    H1237    H        0.52000    0.36990    0.28900    1.000
    C1307    C        0.51410    0.33550    0.24800    1.000
    C1308    C        0.47130    0.32420    0.26550    1.000
    C1309    C        0.47340    0.30190    0.29960    1.000
    C1310    C        0.43140    0.29280    0.31990    1.000
    H1238    H        0.43140    0.27870    0.34310    1.000
    C1311    C        0.39370    0.30420    0.30600    1.000
    C1312    C        0.39160    0.32850    0.27530    1.000
    H1239    H        0.36470    0.33760    0.26710    1.000
    C1313    C        0.43430    0.33810    0.25750    1.000
    C1314    C        0.42980    0.36550    0.22840    1.000
    H1240    H        0.39890    0.37180    0.22760    1.000
    H1241    H        0.43960    0.36070    0.19850    1.000
    H1242    H        0.44780    0.38160    0.24020    1.000
    C1315    C        0.51680    0.28930    0.31470    1.000
    H1243    H        0.51170    0.27460    0.33790    1.000
    H1244    H        0.53530    0.30530    0.32610    1.000
    H1245    H        0.53160    0.27970    0.28980    1.000
    C1316    C        0.34840    0.29410    0.32460    1.000
    H1246    H        0.32490    0.30520    0.31000    1.000
    H1247    H        0.34750    0.29790    0.35640    1.000
    H1248    H        0.34450    0.27280    0.31920    1.000
    C1317    C        0.60080    0.31550    0.16020    1.000
    C1318    C        0.61040    0.33410    0.12240    1.000
    C1319    C        0.63490    0.32190    0.08850    1.000
    H1249    H        0.64420    0.33440    0.06510    1.000
    C1320    C        0.64660    0.29110    0.08730    1.000
    C1321    C        0.64050    0.27640    0.12440    1.000
    H1250    H        0.65130    0.25670    0.12610    1.000
    C1322    C        0.61870    0.28820    0.16170    1.000
    C1323    C        0.61280    0.26800    0.20210    1.000
    H1251    H        0.62810    0.24910    0.19720    1.000
    H1252    H        0.58140    0.26420    0.20680    1.000
    H1253    H        0.62510    0.27780    0.22810    1.000
    C1324    C        0.66480    0.27790    0.04770    1.000
    H1254    H        0.66630    0.29300    0.02450    1.000
    H1255    H        0.64600    0.26150    0.03810    1.000
    H1256    H        0.69440    0.27040    0.05390    1.000
    C1325    C        0.59490    0.36610    0.11990    1.000
    H1257    H        0.57820    0.37100    0.14650    1.000
    H1258    H        0.57620    0.36870    0.09400    1.000
    H1259    H        0.62040    0.37930    0.11760    1.000
    C1326    C        0.59910    0.39300    0.27760    1.000
    C1327    C        0.63760    0.40570    0.26010    1.000
    H1260    H        0.64820    0.39920    0.23240    1.000
    C1328    C        0.65990    0.42730    0.28300    1.000
    C1329    C        0.64350    0.43840    0.32210    1.000
    C1330    C        0.60460    0.42690    0.34080    1.000
    C1331    C        0.58470    0.40400    0.31820    1.000
    C1332    C        0.58760    0.43680    0.38420    1.000
    C1333    C        0.60860    0.42890    0.42130    1.000
    C1334    C        0.59310    0.43610    0.46320    1.000
    H1261    H        0.60960    0.43070    0.48850    1.000
    C1335    C        0.55660    0.45000    0.46720    1.000
    C1336    C        0.53320    0.45810    0.42970    1.000
    H1262    H        0.50690    0.46920    0.43350    1.000
    C1337    C        0.54650    0.45060    0.38520    1.000
    C1338    C        0.51980    0.45740    0.34780    1.000
    H1263    H        0.49260    0.46710    0.35750    1.000
    H1264    H        0.51270    0.43910    0.33200    1.000
    H1265    H        0.53590    0.47090    0.32820    1.000
    C1339    C        0.65250    0.41020    0.41910    1.000
    H1266    H        0.66320    0.40650    0.44900    1.000
    H1267    H        0.67470    0.42140    0.40260    1.000
    H1268    H        0.64680    0.39120    0.40430    1.000
    C1340    C        0.53960    0.46000    0.51410    1.000
    H1269    H        0.51140    0.47030    0.51100    1.000
    H1270    H        0.56110    0.47350    0.52750    1.000
    H1271    H        0.53590    0.44250    0.53290    1.000
    C1341    C        0.70000    0.46110    0.23070    1.000
    C1342    C        0.73880    0.47330    0.21460    1.000
    H1272    H        0.73780    0.48760    0.19160    1.000
    C1343    C        0.77890    0.46470    0.23220    1.000
    C1344    C        0.78040    0.44380    0.26580    1.000
    H1273    H        0.80780    0.43780    0.27790    1.000
    C1345    C        0.74160    0.43150    0.28190    1.000
    C1346    C        0.70150    0.44020    0.26440    1.000
    C1347    C        0.65580    0.47070    0.20890    1.000
    H1274    H        0.63130    0.46050    0.22340    1.000
    H1275    H        0.65620    0.46550    0.17760    1.000
    H1276    H        0.65200    0.49230    0.21210    1.000
    C1348    C        0.82100    0.47890    0.21150    1.000
    H1277    H        0.81240    0.49300    0.18840    1.000
    H1278    H        0.83950    0.46330    0.19870    1.000
    H1279    H        0.83760    0.48940    0.23440    1.000
    C1349    C        0.74270    0.41040    0.31910    1.000
    H1280    H        0.71260    0.40400    0.32610    1.000
    H1281    H        0.75570    0.42010    0.34490    1.000
    H1282    H        0.76030    0.39300    0.31100    1.000
    C1350    C        0.69550    0.47620    0.35580    1.000
    C1351    C        0.76200    0.52260    0.31350    1.000
    C1352    C        0.79430    0.56170    0.26200    1.000
    C1353    C        0.83500    0.57110    0.28020    1.000
    C1354    C        0.85620    0.59320    0.25690    1.000
    H1283    H        0.88360    0.60010    0.26780    1.000
    C1355    C        0.84020    0.60590    0.21870    1.000
    C1356    C        0.80010    0.59510    0.20110    1.000
    H1284    H        0.78830    0.60320    0.17480    1.000
    C1357    C        0.77840    0.57250    0.22290    1.000
    C1358    C        0.73490    0.56200    0.20410    1.000
    C1359    C        0.73080    0.54810    0.16510    1.000
    C1360    C        0.68960    0.53920    0.14900    1.000
    H1285    H        0.68780    0.52740    0.12310    1.000
    C1361    C        0.65180    0.54750    0.17050    1.000
    C1362    C        0.65520    0.56370    0.20840    1.000
    H1286    H        0.62900    0.56950    0.22310    1.000
    C1363    C        0.69410    0.57170    0.22590    1.000
    C1364    C        0.69610    0.59150    0.26430    1.000
    H1287    H        0.72690    0.59490    0.27240    1.000
    H1288    H        0.68060    0.58230    0.28900    1.000
    H1289    H        0.68220    0.61050    0.25700    1.000
    C1365    C        0.77240    0.54000    0.14020    1.000
    H1290    H        0.76450    0.53010    0.11260    1.000
    H1291    H        0.79030    0.52660    0.15810    1.000
    H1292    H        0.78910    0.55810    0.13370    1.000
    C1366    C        0.61270    0.53860    0.14260    1.000
    H1293    H        0.62290    0.52690    0.11740    1.000
    H1294    H        0.59770    0.55650    0.13200    1.000
    H1295    H        0.59230    0.52680    0.16030    1.000
    C1367    C        0.85470    0.55960    0.32290    1.000
    C1368    C        0.83420    0.56780    0.36040    1.000
    C1369    C        0.79450    0.58900    0.36240    1.000
    H1296    H        0.78540    0.59160    0.39310    1.000
    H1297    H        0.77010    0.58050    0.34550    1.000
    H1298    H        0.80270    0.60830    0.34990    1.000
    C1370    C        0.85310    0.55850    0.40010    1.000
    H1299    H        0.83920    0.56350    0.42710    1.000
    C1371    C        0.89340    0.54150    0.40110    1.000
    C1372    C        0.90480    0.53220    0.36470    1.000
    H1300    H        0.92410    0.51560    0.36450    1.000
    C1373    C        0.89210    0.54380    0.32280    1.000
    C1374    C        0.91450    0.53420    0.27940    1.000
    H1301    H        0.94120    0.52290    0.28610    1.000
    H1302    H        0.92210    0.55180    0.26220    1.000
    H1303    H        0.89430    0.52170    0.26250    1.000
    C1375    C        0.91830    0.53320    0.43970    1.000
    H1304    H        0.90510    0.54230    0.46580    1.000
    H1305    H        0.94870    0.54010    0.43650    1.000
    H1306    H        0.91810    0.51150    0.44290    1.000
    C1376    C        0.86330    0.63000    0.19520    1.000
    C1377    C        0.85560    0.63860    0.15510    1.000
    H1307    H        0.83350    0.62800    0.13940    1.000
    C1378    C        0.87620    0.66120    0.13310    1.000
    C1379    C        0.91040    0.67650    0.15500    1.000
    C1380    C        0.92160    0.66820    0.19780    1.000
    C1381    C        0.89650    0.64590    0.21880    1.000
    H1308    H        0.90180    0.64150    0.24890    1.000
    C1382    C        0.95810    0.68140    0.22210    1.000
    C1383    C        0.95790    0.71030    0.23550    1.000
    C1384    C        0.99280    0.71960    0.26330    1.000
    H1309    H        0.98920    0.73720    0.28030    1.000
    C1385    C        0.03090    0.70450    0.26650    1.000
    C1386    C        0.03070    0.67640    0.25400    1.000
    H1310    H        0.05550    0.66450    0.26110    1.000
    C1387    C        0.99660    0.66330    0.23100    1.000
    C1388    C        0.00010    0.63260    0.21460    1.000
    H1311    H        0.97300    0.62720    0.19920    1.000
    H1312    H        0.00480    0.61910    0.23940    1.000
    H1313    H        0.02500    0.63120    0.19420    1.000
    C1389    C        0.91970    0.73120    0.23010    1.000
    H1314    H        0.92740    0.75070    0.24220    1.000
    H1315    H        0.89410    0.72320    0.24570    1.000
    H1316    H        0.91270    0.73320    0.19870    1.000
    C1390    C        0.07420    0.71830    0.28870    1.000
    H1317    H        0.06890    0.73920    0.29600    1.000
    H1318    H        0.09880    0.71690    0.26800    1.000
    H1319    H        0.08130    0.70720    0.31550    1.000
    C1391    C        0.85710    0.67180    0.08980    1.000
    C1392    C        0.86670    0.65810    0.05000    1.000
    C1393    C        0.84710    0.66810    0.01140    1.000
    H1320    H        0.85370    0.65870    0.98420    1.000
    C1394    C        0.81790    0.69180    0.01270    1.000
    C1395    C        0.80830    0.70550    0.05250    1.000
    H1321    H        0.78830    0.72180    0.05340    1.000
    C1396    C        0.82790    0.69550    0.09100    1.000
    C1397    C        0.89480    0.63150    0.05150    1.000
    H1322    H        0.88810    0.61870    0.02630    1.000
    H1323    H        0.92570    0.63750    0.05030    1.000
    H1324    H        0.88930    0.62060    0.07890    1.000
    C1398    C        0.81740    0.71240    0.13090    1.000
    H1325    H        0.80580    0.69750    0.14840    1.000
    H1326    H        0.79620    0.72880    0.12530    1.000
    H1327    H        0.84370    0.72200    0.14540    1.000
    C1399    C        0.79710    0.70090    0.96760    1.000
    H1328    H        0.77710    0.71780    0.97210    1.000
    H1329    H        0.78070    0.68410    0.95550    1.000
    H1330    H        0.82040    0.70670    0.94710    1.000
    C1400    C        0.95500    0.72030    0.12740    1.000
    Cu15     Cu       0.24870    0.99988    0.36646    1.000
    N57      N        0.01640    0.79700    0.18840    1.000
    N58      N        0.16810    0.96030    0.34440    1.000
    N59      N        0.27290    0.03880    0.28540    1.000
    N60      N        0.43110    0.20070    0.13570    1.000
    C1401    C        0.00760    0.77900    0.16540    1.000
    C1402    C        0.03610    0.82110    0.21300    1.000
    C1403    C        0.07870    0.83030    0.19910    1.000
    C1404    C        0.09740    0.85300    0.22010    1.000
    H1331    H        0.12580    0.85940    0.21100    1.000
    C1405    C        0.07740    0.86760    0.25410    1.000
    C1406    C        0.03470    0.85890    0.26670    1.000
    H1332    H        0.02000    0.86990    0.28900    1.000
    C1407    C        0.01410    0.83550    0.24800    1.000
    C1408    C        0.97130    0.82420    0.26550    1.000
    C1409    C        0.97340    0.80190    0.29960    1.000
    C1410    C        0.93140    0.79280    0.31990    1.000
    H1333    H        0.93140    0.77870    0.34310    1.000
    C1411    C        0.89370    0.80420    0.30600    1.000
    C1412    C        0.89160    0.82850    0.27530    1.000
    H1334    H        0.86470    0.83760    0.26710    1.000
    C1413    C        0.93430    0.83810    0.25750    1.000
    C1414    C        0.92980    0.86550    0.22840    1.000
    H1335    H        0.89890    0.87180    0.22760    1.000
    H1336    H        0.93960    0.86070    0.19850    1.000
    H1337    H        0.94780    0.88160    0.24020    1.000
    C1415    C        0.01680    0.78930    0.31470    1.000
    H1338    H        0.01170    0.77460    0.33790    1.000
    H1339    H        0.03530    0.80530    0.32610    1.000
    H1340    H        0.03160    0.77970    0.28980    1.000
    C1416    C        0.84840    0.79410    0.32460    1.000
    H1341    H        0.82490    0.80520    0.31000    1.000
    H1342    H        0.84750    0.79790    0.35640    1.000
    H1343    H        0.84450    0.77280    0.31920    1.000
    C1417    C        0.10080    0.81550    0.16020    1.000
    C1418    C        0.11040    0.83410    0.12240    1.000
    C1419    C        0.13490    0.82190    0.08850    1.000
    H1344    H        0.14420    0.83440    0.06510    1.000
    C1420    C        0.14660    0.79110    0.08730    1.000
    C1421    C        0.14050    0.77640    0.12440    1.000
    H1345    H        0.15130    0.75670    0.12610    1.000
    C1422    C        0.11870    0.78820    0.16170    1.000
    C1423    C        0.11280    0.76800    0.20210    1.000
    H1346    H        0.12810    0.74910    0.19720    1.000
    H1347    H        0.08140    0.76420    0.20680    1.000
    H1348    H        0.12510    0.77780    0.22810    1.000
    C1424    C        0.16480    0.77790    0.04770    1.000
    H1349    H        0.16630    0.79300    0.02450    1.000
    H1350    H        0.14600    0.76150    0.03810    1.000
    H1351    H        0.19440    0.77040    0.05390    1.000
    C1425    C        0.09490    0.86610    0.11990    1.000
    H1352    H        0.07820    0.87100    0.14650    1.000
    H1353    H        0.07620    0.86870    0.09400    1.000
    H1354    H        0.12040    0.87930    0.11760    1.000
    C1426    C        0.09910    0.89300    0.27760    1.000
    C1427    C        0.13760    0.90570    0.26010    1.000
    H1355    H        0.14820    0.89920    0.23240    1.000
    C1428    C        0.15990    0.92730    0.28300    1.000
    C1429    C        0.14350    0.93840    0.32210    1.000
    C1430    C        0.10460    0.92690    0.34080    1.000
    C1431    C        0.08470    0.90400    0.31820    1.000
    C1432    C        0.08760    0.93680    0.38420    1.000
    C1433    C        0.10860    0.92890    0.42130    1.000
    C1434    C        0.09310    0.93610    0.46320    1.000
    H1356    H        0.10960    0.93070    0.48850    1.000
    C1435    C        0.05660    0.95000    0.46720    1.000
    C1436    C        0.03320    0.95810    0.42970    1.000
    H1357    H        0.00690    0.96920    0.43350    1.000
    C1437    C        0.04650    0.95060    0.38520    1.000
    C1438    C        0.01980    0.95740    0.34780    1.000
    H1358    H        0.99260    0.96710    0.35750    1.000
    H1359    H        0.01270    0.93910    0.33200    1.000
    H1360    H        0.03590    0.97090    0.32820    1.000
    C1439    C        0.15250    0.91020    0.41910    1.000
    H1361    H        0.16320    0.90650    0.44900    1.000
    H1362    H        0.17470    0.92140    0.40260    1.000
    H1363    H        0.14680    0.89120    0.40430    1.000
    C1440    C        0.03960    0.96000    0.51410    1.000
    H1364    H        0.01140    0.97030    0.51100    1.000
    H1365    H        0.06110    0.97350    0.52750    1.000
    H1366    H        0.03590    0.94250    0.53290    1.000
    C1441    C        0.20000    0.96110    0.23070    1.000
    C1442    C        0.23880    0.97330    0.21460    1.000
    H1367    H        0.23780    0.98760    0.19160    1.000
    C1443    C        0.27890    0.96470    0.23220    1.000
    C1444    C        0.28040    0.94380    0.26580    1.000
    H1368    H        0.30780    0.93780    0.27790    1.000
    C1445    C        0.24160    0.93150    0.28190    1.000
    C1446    C        0.20150    0.94020    0.26440    1.000
    C1447    C        0.15580    0.97070    0.20890    1.000
    H1369    H        0.13130    0.96050    0.22340    1.000
    H1370    H        0.15620    0.96550    0.17760    1.000
    H1371    H        0.15200    0.99230    0.21210    1.000
    C1448    C        0.32100    0.97890    0.21150    1.000
    H1372    H        0.31240    0.99300    0.18840    1.000
    H1373    H        0.33950    0.96330    0.19870    1.000
    H1374    H        0.33760    0.98940    0.23440    1.000
    C1449    C        0.24270    0.91040    0.31910    1.000
    H1375    H        0.21260    0.90400    0.32610    1.000
    H1376    H        0.25570    0.92010    0.34490    1.000
    H1377    H        0.26030    0.89300    0.31100    1.000
    C1450    C        0.19550    0.97620    0.35580    1.000
    C1451    C        0.26200    0.02260    0.31350    1.000
    C1452    C        0.29430    0.06170    0.26200    1.000
    C1453    C        0.33500    0.07110    0.28020    1.000
    C1454    C        0.35620    0.09320    0.25690    1.000
    H1378    H        0.38360    0.10010    0.26780    1.000
    C1455    C        0.34020    0.10590    0.21870    1.000
    C1456    C        0.30010    0.09510    0.20110    1.000
    H1379    H        0.28830    0.10320    0.17480    1.000
    C1457    C        0.27840    0.07250    0.22290    1.000
    C1458    C        0.23490    0.06200    0.20410    1.000
    C1459    C        0.23080    0.04810    0.16510    1.000
    C1460    C        0.18960    0.03920    0.14900    1.000
    H1380    H        0.18780    0.02740    0.12310    1.000
    C1461    C        0.15180    0.04750    0.17050    1.000
    C1462    C        0.15520    0.06370    0.20840    1.000
    H1381    H        0.12900    0.06950    0.22310    1.000
    C1463    C        0.19410    0.07170    0.22590    1.000
    C1464    C        0.19610    0.09150    0.26430    1.000
    H1382    H        0.22690    0.09490    0.27240    1.000
    H1383    H        0.18060    0.08230    0.28900    1.000
    H1384    H        0.18220    0.11050    0.25700    1.000
    C1465    C        0.27240    0.04000    0.14020    1.000
    H1385    H        0.26450    0.03010    0.11260    1.000
    H1386    H        0.29030    0.02660    0.15810    1.000
    H1387    H        0.28910    0.05810    0.13370    1.000
    C1466    C        0.11270    0.03860    0.14260    1.000
    H1388    H        0.12290    0.02690    0.11740    1.000
    H1389    H        0.09770    0.05650    0.13200    1.000
    H1390    H        0.09230    0.02680    0.16030    1.000
    C1467    C        0.35470    0.05960    0.32290    1.000
    C1468    C        0.33420    0.06780    0.36040    1.000
    C1469    C        0.29450    0.08900    0.36240    1.000
    H1391    H        0.28540    0.09160    0.39310    1.000
    H1392    H        0.27010    0.08050    0.34550    1.000
    H1393    H        0.30270    0.10830    0.34990    1.000
    C1470    C        0.35310    0.05850    0.40010    1.000
    H1394    H        0.33920    0.06350    0.42710    1.000
    C1471    C        0.39340    0.04150    0.40110    1.000
    C1472    C        0.40480    0.03220    0.36470    1.000
    H1395    H        0.42410    0.01560    0.36450    1.000
    C1473    C        0.39210    0.04380    0.32280    1.000
    C1474    C        0.41450    0.03420    0.27940    1.000
    H1396    H        0.44120    0.02290    0.28610    1.000
    H1397    H        0.42210    0.05180    0.26220    1.000
    H1398    H        0.39430    0.02170    0.26250    1.000
    C1475    C        0.41830    0.03320    0.43970    1.000
    H1399    H        0.40510    0.04230    0.46580    1.000
    H1400    H        0.44870    0.04010    0.43650    1.000
    H1401    H        0.41810    0.01150    0.44290    1.000
    C1476    C        0.36330    0.13000    0.19520    1.000
    C1477    C        0.35560    0.13860    0.15510    1.000
    H1402    H        0.33350    0.12800    0.13940    1.000
    C1478    C        0.37620    0.16120    0.13310    1.000
    C1479    C        0.41040    0.17650    0.15500    1.000
    C1480    C        0.42160    0.16820    0.19780    1.000
    C1481    C        0.39650    0.14590    0.21880    1.000
    H1403    H        0.40180    0.14150    0.24890    1.000
    C1482    C        0.45810    0.18140    0.22210    1.000
    C1483    C        0.45790    0.21030    0.23550    1.000
    C1484    C        0.49280    0.21960    0.26330    1.000
    H1404    H        0.48920    0.23720    0.28030    1.000
    C1485    C        0.53090    0.20450    0.26650    1.000
    C1486    C        0.53070    0.17640    0.25400    1.000
    H1405    H        0.55550    0.16450    0.26110    1.000
    C1487    C        0.49660    0.16330    0.23100    1.000
    C1488    C        0.50010    0.13260    0.21460    1.000
    H1406    H        0.47300    0.12720    0.19920    1.000
    H1407    H        0.50480    0.11910    0.23940    1.000
    H1408    H        0.52500    0.13120    0.19420    1.000
    C1489    C        0.41970    0.23120    0.23010    1.000
    H1409    H        0.42740    0.25070    0.24220    1.000
    H1410    H        0.39410    0.22320    0.24570    1.000
    H1411    H        0.41270    0.23320    0.19870    1.000
    C1490    C        0.57420    0.21830    0.28870    1.000
    H1412    H        0.56890    0.23920    0.29600    1.000
    H1413    H        0.59880    0.21690    0.26800    1.000
    H1414    H        0.58130    0.20720    0.31550    1.000
    C1491    C        0.35710    0.17180    0.08980    1.000
    C1492    C        0.36670    0.15810    0.05000    1.000
    C1493    C        0.34710    0.16810    0.01140    1.000
    H1415    H        0.35370    0.15870    0.98420    1.000
    C1494    C        0.31790    0.19180    0.01270    1.000
    C1495    C        0.30830    0.20550    0.05250    1.000
    H1416    H        0.28830    0.22180    0.05340    1.000
    C1496    C        0.32790    0.19550    0.09100    1.000
    C1497    C        0.39480    0.13150    0.05150    1.000
    H1417    H        0.38810    0.11870    0.02630    1.000
    H1418    H        0.42570    0.13750    0.05030    1.000
    H1419    H        0.38930    0.12060    0.07890    1.000
    C1498    C        0.31740    0.21240    0.13090    1.000
    H1420    H        0.30580    0.19750    0.14840    1.000
    H1421    H        0.29620    0.22880    0.12530    1.000
    H1422    H        0.34370    0.22200    0.14540    1.000
    C1499    C        0.29710    0.20090    0.96760    1.000
    H1423    H        0.27710    0.21780    0.97210    1.000
    H1424    H        0.28070    0.18410    0.95550    1.000
    H1425    H        0.32040    0.20670    0.94710    1.000
    C1500    C        0.45500    0.22030    0.12740    1.000
    Cu16     Cu       0.24870    0.49988    0.86646    1.000
    N61      N        0.01640    0.29700    0.68840    1.000
    N62      N        0.16810    0.46030    0.84440    1.000
    N63      N        0.27290    0.53880    0.78540    1.000
    N64      N        0.43110    0.70070    0.63570    1.000
    C1501    C        0.00760    0.27900    0.66540    1.000
    C1502    C        0.03610    0.32110    0.71300    1.000
    C1503    C        0.07870    0.33030    0.69910    1.000
    C1504    C        0.09740    0.35300    0.72010    1.000
    H1426    H        0.12580    0.35940    0.71100    1.000
    C1505    C        0.07740    0.36760    0.75410    1.000
    C1506    C        0.03470    0.35890    0.76670    1.000
    H1427    H        0.02000    0.36990    0.78900    1.000
    C1507    C        0.01410    0.33550    0.74800    1.000
    C1508    C        0.97130    0.32420    0.76550    1.000
    C1509    C        0.97340    0.30190    0.79960    1.000
    C1510    C        0.93140    0.29280    0.81990    1.000
    H1428    H        0.93140    0.27870    0.84310    1.000
    C1511    C        0.89370    0.30420    0.80600    1.000
    C1512    C        0.89160    0.32850    0.77530    1.000
    H1429    H        0.86470    0.33760    0.76710    1.000
    C1513    C        0.93430    0.33810    0.75750    1.000
    C1514    C        0.92980    0.36550    0.72840    1.000
    H1430    H        0.89890    0.37180    0.72760    1.000
    H1431    H        0.93960    0.36070    0.69850    1.000
    H1432    H        0.94780    0.38160    0.74020    1.000
    C1515    C        0.01680    0.28930    0.81470    1.000
    H1433    H        0.01170    0.27460    0.83790    1.000
    H1434    H        0.03530    0.30530    0.82610    1.000
    H1435    H        0.03160    0.27970    0.78980    1.000
    C1516    C        0.84840    0.29410    0.82460    1.000
    H1436    H        0.82490    0.30520    0.81000    1.000
    H1437    H        0.84750    0.29790    0.85640    1.000
    H1438    H        0.84450    0.27280    0.81920    1.000
    C1517    C        0.10080    0.31550    0.66020    1.000
    C1518    C        0.11040    0.33410    0.62240    1.000
    C1519    C        0.13490    0.32190    0.58850    1.000
    H1439    H        0.14420    0.33440    0.56510    1.000
    C1520    C        0.14660    0.29110    0.58730    1.000
    C1521    C        0.14050    0.27640    0.62440    1.000
    H1440    H        0.15130    0.25670    0.62610    1.000
    C1522    C        0.11870    0.28820    0.66170    1.000
    C1523    C        0.11280    0.26800    0.70210    1.000
    H1441    H        0.12810    0.24910    0.69720    1.000
    H1442    H        0.08140    0.26420    0.70680    1.000
    H1443    H        0.12510    0.27780    0.72810    1.000
    C1524    C        0.16480    0.27790    0.54770    1.000
    H1444    H        0.16630    0.29300    0.52450    1.000
    H1445    H        0.14600    0.26150    0.53810    1.000
    H1446    H        0.19440    0.27040    0.55390    1.000
    C1525    C        0.09490    0.36610    0.61990    1.000
    H1447    H        0.07820    0.37100    0.64650    1.000
    H1448    H        0.07620    0.36870    0.59400    1.000
    H1449    H        0.12040    0.37930    0.61760    1.000
    C1526    C        0.09910    0.39300    0.77760    1.000
    C1527    C        0.13760    0.40570    0.76010    1.000
    H1450    H        0.14820    0.39920    0.73240    1.000
    C1528    C        0.15990    0.42730    0.78300    1.000
    C1529    C        0.14350    0.43840    0.82210    1.000
    C1530    C        0.10460    0.42690    0.84080    1.000
    C1531    C        0.08470    0.40400    0.81820    1.000
    C1532    C        0.08760    0.43680    0.88420    1.000
    C1533    C        0.10860    0.42890    0.92130    1.000
    C1534    C        0.09310    0.43610    0.96320    1.000
    H1451    H        0.10960    0.43070    0.98850    1.000
    C1535    C        0.05660    0.45000    0.96720    1.000
    C1536    C        0.03320    0.45810    0.92970    1.000
    H1452    H        0.00690    0.46920    0.93350    1.000
    C1537    C        0.04650    0.45060    0.88520    1.000
    C1538    C        0.01980    0.45740    0.84780    1.000
    H1453    H        0.99260    0.46710    0.85750    1.000
    H1454    H        0.01270    0.43910    0.83200    1.000
    H1455    H        0.03590    0.47090    0.82820    1.000
    C1539    C        0.15250    0.41020    0.91910    1.000
    H1456    H        0.16320    0.40650    0.94900    1.000
    H1457    H        0.17470    0.42140    0.90260    1.000
    H1458    H        0.14680    0.39120    0.90430    1.000
    C1540    C        0.03960    0.46000    0.01410    1.000
    H1459    H        0.01140    0.47030    0.01100    1.000
    H1460    H        0.06110    0.47350    0.02750    1.000
    H1461    H        0.03590    0.44250    0.03290    1.000
    C1541    C        0.20000    0.46110    0.73070    1.000
    C1542    C        0.23880    0.47330    0.71460    1.000
    H1462    H        0.23780    0.48760    0.69160    1.000
    C1543    C        0.27890    0.46470    0.73220    1.000
    C1544    C        0.28040    0.44380    0.76580    1.000
    H1463    H        0.30780    0.43780    0.77790    1.000
    C1545    C        0.24160    0.43150    0.78190    1.000
    C1546    C        0.20150    0.44020    0.76440    1.000
    C1547    C        0.15580    0.47070    0.70890    1.000
    H1464    H        0.13130    0.46050    0.72340    1.000
    H1465    H        0.15620    0.46550    0.67760    1.000
    H1466    H        0.15200    0.49230    0.71210    1.000
    C1548    C        0.32100    0.47890    0.71150    1.000
    H1467    H        0.31240    0.49300    0.68840    1.000
    H1468    H        0.33950    0.46330    0.69870    1.000
    H1469    H        0.33760    0.48940    0.73440    1.000
    C1549    C        0.24270    0.41040    0.81910    1.000
    H1470    H        0.21260    0.40400    0.82610    1.000
    H1471    H        0.25570    0.42010    0.84490    1.000
    H1472    H        0.26030    0.39300    0.81100    1.000
    C1550    C        0.19550    0.47620    0.85580    1.000
    C1551    C        0.26200    0.52260    0.81350    1.000
    C1552    C        0.29430    0.56170    0.76200    1.000
    C1553    C        0.33500    0.57110    0.78020    1.000
    C1554    C        0.35620    0.59320    0.75690    1.000
    H1473    H        0.38360    0.60010    0.76780    1.000
    C1555    C        0.34020    0.60590    0.71870    1.000
    C1556    C        0.30010    0.59510    0.70110    1.000
    H1474    H        0.28830    0.60320    0.67480    1.000
    C1557    C        0.27840    0.57250    0.72290    1.000
    C1558    C        0.23490    0.56200    0.70410    1.000
    C1559    C        0.23080    0.54810    0.66510    1.000
    C1560    C        0.18960    0.53920    0.64900    1.000
    H1475    H        0.18780    0.52740    0.62310    1.000
    C1561    C        0.15180    0.54750    0.67050    1.000
    C1562    C        0.15520    0.56370    0.70840    1.000
    H1476    H        0.12900    0.56950    0.72310    1.000
    C1563    C        0.19410    0.57170    0.72590    1.000
    C1564    C        0.19610    0.59150    0.76430    1.000
    H1477    H        0.22690    0.59490    0.77240    1.000
    H1478    H        0.18060    0.58230    0.78900    1.000
    H1479    H        0.18220    0.61050    0.75700    1.000
    C1565    C        0.27240    0.54000    0.64020    1.000
    H1480    H        0.26450    0.53010    0.61260    1.000
    H1481    H        0.29030    0.52660    0.65810    1.000
    H1482    H        0.28910    0.55810    0.63370    1.000
    C1566    C        0.11270    0.53860    0.64260    1.000
    H1483    H        0.12290    0.52690    0.61740    1.000
    H1484    H        0.09770    0.55650    0.63200    1.000
    H1485    H        0.09230    0.52680    0.66030    1.000
    C1567    C        0.35470    0.55960    0.82290    1.000
    C1568    C        0.33420    0.56780    0.86040    1.000
    C1569    C        0.29450    0.58900    0.86240    1.000
    H1486    H        0.28540    0.59160    0.89310    1.000
    H1487    H        0.27010    0.58050    0.84550    1.000
    H1488    H        0.30270    0.60830    0.84990    1.000
    C1570    C        0.35310    0.55850    0.90010    1.000
    H1489    H        0.33920    0.56350    0.92710    1.000
    C1571    C        0.39340    0.54150    0.90110    1.000
    C1572    C        0.40480    0.53220    0.86470    1.000
    H1490    H        0.42410    0.51560    0.86450    1.000
    C1573    C        0.39210    0.54380    0.82280    1.000
    C1574    C        0.41450    0.53420    0.77940    1.000
    H1491    H        0.44120    0.52290    0.78610    1.000
    H1492    H        0.42210    0.55180    0.76220    1.000
    H1493    H        0.39430    0.52170    0.76250    1.000
    C1575    C        0.41830    0.53320    0.93970    1.000
    H1494    H        0.40510    0.54230    0.96580    1.000
    H1495    H        0.44870    0.54010    0.93650    1.000
    H1496    H        0.41810    0.51150    0.94290    1.000
    C1576    C        0.36330    0.63000    0.69520    1.000
    C1577    C        0.35560    0.63860    0.65510    1.000
    H1497    H        0.33350    0.62800    0.63940    1.000
    C1578    C        0.37620    0.66120    0.63310    1.000
    C1579    C        0.41040    0.67650    0.65500    1.000
    C1580    C        0.42160    0.66820    0.69780    1.000
    C1581    C        0.39650    0.64590    0.71880    1.000
    H1498    H        0.40180    0.64150    0.74890    1.000
    C1582    C        0.45810    0.68140    0.72210    1.000
    C1583    C        0.45790    0.71030    0.73550    1.000
    C1584    C        0.49280    0.71960    0.76330    1.000
    H1499    H        0.48920    0.73720    0.78030    1.000
    C1585    C        0.53090    0.70450    0.76650    1.000
    C1586    C        0.53070    0.67640    0.75400    1.000
    H1500    H        0.55550    0.66450    0.76110    1.000
    C1587    C        0.49660    0.66330    0.73100    1.000
    C1588    C        0.50010    0.63260    0.71460    1.000
    H1501    H        0.47300    0.62720    0.69920    1.000
    H1502    H        0.50480    0.61910    0.73940    1.000
    H1503    H        0.52500    0.63120    0.69420    1.000
    C1589    C        0.41970    0.73120    0.73010    1.000
    H1504    H        0.42740    0.75070    0.74220    1.000
    H1505    H        0.39410    0.72320    0.74570    1.000
    H1506    H        0.41270    0.73320    0.69870    1.000
    C1590    C        0.57420    0.71830    0.78870    1.000
    H1507    H        0.56890    0.73920    0.79600    1.000
    H1508    H        0.59880    0.71690    0.76800    1.000
    H1509    H        0.58130    0.70720    0.81550    1.000
    C1591    C        0.35710    0.67180    0.58980    1.000
    C1592    C        0.36670    0.65810    0.55000    1.000
    C1593    C        0.34710    0.66810    0.51140    1.000
    H1510    H        0.35370    0.65870    0.48420    1.000
    C1594    C        0.31790    0.69180    0.51270    1.000
    C1595    C        0.30830    0.70550    0.55250    1.000
    H1511    H        0.28830    0.72180    0.55340    1.000
    C1596    C        0.32790    0.69550    0.59100    1.000
    C1597    C        0.39480    0.63150    0.55150    1.000
    H1512    H        0.38810    0.61870    0.52630    1.000
    H1513    H        0.42570    0.63750    0.55030    1.000
    H1514    H        0.38930    0.62060    0.57890    1.000
    C1598    C        0.31740    0.71240    0.63090    1.000
    H1515    H        0.30580    0.69750    0.64840    1.000
    H1516    H        0.29620    0.72880    0.62530    1.000
    H1517    H        0.34370    0.72200    0.64540    1.000
    C1599    C        0.29710    0.70090    0.46760    1.000
    H1518    H        0.27710    0.71780    0.47210    1.000
    H1519    H        0.28070    0.68410    0.45550    1.000
    H1520    H        0.32040    0.70670    0.44710    1.000
    C1600    C        0.45500    0.72030    0.62740    1.000
