# CIF file generated by openbabel 3.1.0, see https://openbabel.org
data_I
_chemical_name_common 'PIHNUQ_clean'
_cell_length_a 10.363
_cell_length_b 12.7428
_cell_length_c 12.7428
_cell_angle_alpha 107.822
_cell_angle_beta 93.2049
_cell_angle_gamma 86.7951
_space_group_name_H-M_alt 'P 1'
_space_group_name_Hall 'P 1'
loop_
    _symmetry_equiv_pos_as_xyz
    x,y,z
loop_
    _atom_site_label
    _atom_site_type_symbol
    _atom_site_fract_x
    _atom_site_fract_y
    _atom_site_fract_z
    _atom_site_occupancy
    Zn1      Zn       0.89971    0.57995    0.97815    1.000
    Zn2      Zn       0.60029    0.97815    0.57995    1.000
    Zn3      Zn       0.10029    0.42005    0.02185    1.000
    Zn4      Zn       0.39971    0.02185    0.42005    1.000
    H1       H        0.77820    0.38210    0.64770    1.000
    H2       H        0.73830    0.25930    0.47590    1.000
    H3       H        0.07230    0.09300    0.50720    1.000
    H4       H        0.10680    0.21310    0.68170    1.000
    H5       H        0.74310    0.15380    0.30640    1.000
    H6       H        0.77220    0.02930    0.24290    1.000
    H7       H        0.73490    0.66840    0.82020    1.000
    H8       H        0.58160    0.80580    0.82440    1.000
    H9       H        0.56340    0.86190    0.14790    1.000
    H10      H        0.71840    0.72350    0.13630    1.000
    H11      H        0.40850    0.93210    0.92670    1.000
    H12      H        0.40870    0.95940    0.05560    1.000
    H13      H        0.72180    0.64770    0.38210    1.000
    H14      H        0.76170    0.47590    0.25930    1.000
    H15      H        0.42770    0.50720    0.09300    1.000
    H16      H        0.39320    0.68170    0.21310    1.000
    H17      H        0.75690    0.30640    0.15380    1.000
    H18      H        0.72780    0.24290    0.02930    1.000
    H19      H        0.76510    0.82020    0.66840    1.000
    H20      H        0.91840    0.82440    0.80580    1.000
    H21      H        0.93660    0.14790    0.86190    1.000
    H22      H        0.78160    0.13630    0.72350    1.000
    H23      H        0.09150    0.92670    0.93210    1.000
    H24      H        0.09130    0.05560    0.95940    1.000
    H25      H        0.22180    0.61790    0.35230    1.000
    H26      H        0.26170    0.74070    0.52410    1.000
    H27      H        0.92770    0.90700    0.49280    1.000
    H28      H        0.89320    0.78690    0.31830    1.000
    H29      H        0.25690    0.84620    0.69360    1.000
    H30      H        0.22780    0.97070    0.75710    1.000
    H31      H        0.26510    0.33160    0.17980    1.000
    H32      H        0.41840    0.19420    0.17560    1.000
    H33      H        0.43660    0.13810    0.85210    1.000
    H34      H        0.28160    0.27650    0.86370    1.000
    H35      H        0.59150    0.06790    0.07330    1.000
    H36      H        0.59130    0.04060    0.94440    1.000
    H37      H        0.27820    0.35230    0.61790    1.000
    H38      H        0.23830    0.52410    0.74070    1.000
    H39      H        0.57230    0.49280    0.90700    1.000
    H40      H        0.60680    0.31830    0.78690    1.000
    H41      H        0.24310    0.69360    0.84620    1.000
    H42      H        0.27220    0.75710    0.97070    1.000
    H43      H        0.23490    0.17980    0.33160    1.000
    H44      H        0.08160    0.17560    0.19420    1.000
    H45      H        0.06340    0.85210    0.13810    1.000
    H46      H        0.21840    0.86370    0.27650    1.000
    H47      H        0.90850    0.07330    0.06790    1.000
    H48      H        0.90870    0.94440    0.04060    1.000
    C1       C        0.96760    0.38800    0.79680    1.000
    C2       C        0.94630    0.31130    0.68410    1.000
    C3       C        0.83680    0.32330    0.62010    1.000
    C4       C        0.81290    0.25030    0.51690    1.000
    C5       C        0.90110    0.16280    0.47440    1.000
    C6       C        0.01220    0.15020    0.53580    1.000
    C7       C        0.03320    0.22310    0.64010    1.000
    C8       C        0.76540    0.08220    0.31580    1.000
    C9       C        0.65700    0.04990    0.37410    1.000
    C10      C        0.70170    0.70900    0.88760    1.000
    C11      C        0.60910    0.79130    0.88950    1.000
    C12      C        0.55760    0.85160    0.98720    1.000
    C13      C        0.59840    0.82450    0.08030    1.000
    C14      C        0.69180    0.74130    0.07270    1.000
    C15      C        0.46340    0.94800    0.99340    1.000
    C16      C        0.53240    0.79680    0.38800    1.000
    C17      C        0.55370    0.68410    0.31130    1.000
    C18      C        0.66320    0.62010    0.32330    1.000
    C19      C        0.68710    0.51690    0.25030    1.000
    C20      C        0.59890    0.47440    0.16280    1.000
    C21      C        0.48780    0.53580    0.15020    1.000
    C22      C        0.46680    0.64010    0.22310    1.000
    C23      C        0.73460    0.31580    0.08220    1.000
    C24      C        0.84300    0.37410    0.04990    1.000
    C25      C        0.79830    0.88760    0.70900    1.000
    C26      C        0.89090    0.88950    0.79130    1.000
    C27      C        0.94240    0.98720    0.85160    1.000
    C28      C        0.90160    0.08030    0.82450    1.000
    C29      C        0.80820    0.07270    0.74130    1.000
    C30      C        0.03660    0.99340    0.94800    1.000
    C31      C        0.03240    0.61200    0.20320    1.000
    C32      C        0.05370    0.68870    0.31590    1.000
    C33      C        0.16320    0.67670    0.37990    1.000
    C34      C        0.18710    0.74970    0.48310    1.000
    C35      C        0.09890    0.83720    0.52560    1.000
    C36      C        0.98780    0.84980    0.46420    1.000
    C37      C        0.96680    0.77690    0.35990    1.000
    C38      C        0.23460    0.91780    0.68420    1.000
    C39      C        0.34300    0.95010    0.62590    1.000
    C40      C        0.29830    0.29100    0.11240    1.000
    C41      C        0.39090    0.20870    0.11050    1.000
    C42      C        0.44240    0.14840    0.01280    1.000
    C43      C        0.40160    0.17550    0.91970    1.000
    C44      C        0.30820    0.25870    0.92730    1.000
    C45      C        0.53660    0.05200    0.00660    1.000
    C46      C        0.46760    0.20320    0.61200    1.000
    C47      C        0.44630    0.31590    0.68870    1.000
    C48      C        0.33680    0.37990    0.67670    1.000
    C49      C        0.31290    0.48310    0.74970    1.000
    C50      C        0.40110    0.52560    0.83720    1.000
    C51      C        0.51220    0.46420    0.84980    1.000
    C52      C        0.53320    0.35990    0.77690    1.000
    C53      C        0.26540    0.68420    0.91780    1.000
    C54      C        0.15700    0.62590    0.95010    1.000
    C55      C        0.20170    0.11240    0.29100    1.000
    C56      C        0.10910    0.11050    0.20870    1.000
    C57      C        0.05760    0.01280    0.14840    1.000
    C58      C        0.09840    0.91970    0.17550    1.000
    C59      C        0.19180    0.92730    0.25870    1.000
    C60      C        0.96340    0.00660    0.05200    1.000
    N1       N        0.74570    0.68509    0.97831    1.000
    N2       N        0.75430    0.97831    0.68509    1.000
    N3       N        0.25430    0.31491    0.02169    1.000
    N4       N        0.24570    0.02169    0.31491    1.000
    O1       O        0.90390    0.47864    0.82264    1.000
    O2       O        0.04820    0.35637    0.86033    1.000
    O3       O        0.88730    0.08679    0.37283    1.000
    O4       O        0.54490    0.05796    0.33284    1.000
    O5       O        0.68780    0.01642    0.45430    1.000
    O6       O        0.59610    0.82264    0.47864    1.000
    O7       O        0.45180    0.86033    0.35637    1.000
    O8       O        0.61270    0.37283    0.08679    1.000
    O9       O        0.95510    0.33284    0.05796    1.000
    O10      O        0.81220    0.45430    0.01642    1.000
    O11      O        0.09610    0.52136    0.17736    1.000
    O12      O        0.95180    0.64363    0.13967    1.000
    O13      O        0.11270    0.91321    0.62717    1.000
    O14      O        0.45510    0.94204    0.66716    1.000
    O15      O        0.31220    0.98358    0.54570    1.000
    O16      O        0.40390    0.17736    0.52136    1.000
    O17      O        0.54820    0.13967    0.64363    1.000
    O18      O        0.38730    0.62717    0.91321    1.000
    O19      O        0.04490    0.66716    0.94204    1.000
    O20      O        0.18780    0.54570    0.98358    1.000
