# CIF file generated by openbabel 3.1.0, see https://openbabel.org
data_I
_chemical_name_common 'image0'
_cell_length_a 27.7477
_cell_length_b 27.7477
_cell_length_c 3.7669
_cell_angle_alpha 90
_cell_angle_beta 90
_cell_angle_gamma 90
_space_group_name_H-M_alt 'P 1'
_space_group_name_Hall 'P 1'
loop_
    _symmetry_equiv_pos_as_xyz
    x,y,z
loop_
    _atom_site_label
    _atom_site_type_symbol
    _atom_site_fract_x
    _atom_site_fract_y
    _atom_site_fract_z
    _atom_site_occupancy
    Zn1      Zn       0.28308    0.21414    0.86890    1.000
    O1       O        0.21650    0.25480    0.89800    1.000
    H1       H        0.19380    0.26690    0.77500    1.000
    N1       N        0.25970    0.14560    0.81400    1.000
    C1       C        0.27940    0.10840    0.96900    1.000
    H2       H        0.30900    0.10980    0.08380    1.000
    N2       N        0.25270    0.06740    0.94800    1.000
    C2       C        0.21430    0.12920    0.67000    1.000
    O2       O        0.27780    0.85790    0.57300    1.000
    C3       C        0.17850    0.15240    0.48000    1.000
    H3       H        0.18130    0.18490    0.42330    1.000
    O3       O        0.34480    0.87680    0.64500    1.000
    C4       C        0.13830    0.12650    0.37800    1.000
    C5       C        0.10140    0.14750    0.18600    1.000
    H4       H        0.10390    0.17990    0.12670    1.000
    C6       C        0.06090    0.12250    0.08000    1.000
    H5       H        0.03640    0.13730    0.95200    1.000
    C7       C        0.05850    0.07420    0.17200    1.000
    H6       H        0.03180    0.05600    0.10580    1.000
    C8       C        0.09550    0.05280    0.36100    1.000
    H7       H        0.09320    0.02030    0.41760    1.000
    C9       C        0.13590    0.07810    0.46900    1.000
    C10      C        0.17150    0.05440    0.65900    1.000
    H8       H        0.16850    0.02190    0.71630    1.000
    C11      C        0.21160    0.08070    0.76200    1.000
    C12      C        0.24500    0.94440    0.31200    1.000
    H9       H        0.22180    0.92300    0.39540    1.000
    C13      C        0.29320    0.93090    0.30500    1.000
    C14      C        0.32780    0.96290    0.18000    1.000
    H10      H        0.36010    0.95380    0.17530    1.000
    C15      C        0.31420    0.00830    0.06100    1.000
    H11      H        0.33740    0.02970    0.97720    1.000
    C16      C        0.26600    0.02180    0.06800    1.000
    C17      C        0.23140    0.98990    0.19300    1.000
    H12      H        0.19910    0.99890    0.19730    1.000
    C18      C        0.30740    0.88120    0.43500    1.000
    O4       O        0.34180    0.86260    0.23900    1.000
    Zn2      Zn       0.78308    0.71414    0.36890    1.000
    O5       O        0.71650    0.75480    0.39800    1.000
    H13      H        0.69380    0.76690    0.27500    1.000
    N3       N        0.75970    0.64560    0.31400    1.000
    C19      C        0.77940    0.60840    0.46900    1.000
    H14      H        0.80900    0.60980    0.58380    1.000
    N4       N        0.75270    0.56740    0.44800    1.000
    C20      C        0.71430    0.62920    0.17000    1.000
    O6       O        0.77780    0.35790    0.07300    1.000
    C21      C        0.67850    0.65240    0.98000    1.000
    H15      H        0.68130    0.68490    0.92330    1.000
    O7       O        0.84480    0.37680    0.14500    1.000
    C22      C        0.63830    0.62650    0.87800    1.000
    C23      C        0.60140    0.64750    0.68600    1.000
    H16      H        0.60390    0.67990    0.62670    1.000
    C24      C        0.56090    0.62250    0.58000    1.000
    H17      H        0.53640    0.63730    0.45200    1.000
    C25      C        0.55850    0.57420    0.67200    1.000
    H18      H        0.53180    0.55600    0.60580    1.000
    C26      C        0.59550    0.55280    0.86100    1.000
    H19      H        0.59320    0.52030    0.91760    1.000
    C27      C        0.63590    0.57810    0.96900    1.000
    C28      C        0.67150    0.55440    0.15900    1.000
    H20      H        0.66850    0.52190    0.21630    1.000
    C29      C        0.71160    0.58070    0.26200    1.000
    C30      C        0.74500    0.44440    0.81200    1.000
    H21      H        0.72180    0.42300    0.89540    1.000
    C31      C        0.79320    0.43090    0.80500    1.000
    C32      C        0.82780    0.46290    0.68000    1.000
    H22      H        0.86010    0.45380    0.67530    1.000
    C33      C        0.81420    0.50830    0.56100    1.000
    H23      H        0.83740    0.52970    0.47720    1.000
    C34      C        0.76600    0.52180    0.56800    1.000
    C35      C        0.73140    0.48990    0.69300    1.000
    H24      H        0.69910    0.49890    0.69730    1.000
    C36      C        0.80740    0.38120    0.93500    1.000
    O8       O        0.84180    0.36260    0.73900    1.000
    Zn3      Zn       0.71692    0.78586    0.86890    1.000
    O9       O        0.78350    0.74520    0.89800    1.000
    H25      H        0.80620    0.73310    0.77500    1.000
    N5       N        0.74030    0.85440    0.81400    1.000
    C37      C        0.72060    0.89160    0.96900    1.000
    H26      H        0.69100    0.89020    0.08380    1.000
    N6       N        0.74730    0.93260    0.94800    1.000
    C38      C        0.78570    0.87080    0.67000    1.000
    O10      O        0.72220    0.14210    0.57300    1.000
    C39      C        0.82150    0.84760    0.48000    1.000
    H27      H        0.81870    0.81510    0.42330    1.000
    O11      O        0.65520    0.12320    0.64500    1.000
    C40      C        0.86170    0.87350    0.37800    1.000
    C41      C        0.89860    0.85250    0.18600    1.000
    H28      H        0.89610    0.82010    0.12670    1.000
    C42      C        0.93910    0.87750    0.08000    1.000
    H29      H        0.96360    0.86270    0.95200    1.000
    C43      C        0.94150    0.92580    0.17200    1.000
    H30      H        0.96820    0.94400    0.10580    1.000
    C44      C        0.90450    0.94720    0.36100    1.000
    H31      H        0.90680    0.97970    0.41760    1.000
    C45      C        0.86410    0.92190    0.46900    1.000
    C46      C        0.82850    0.94560    0.65900    1.000
    H32      H        0.83150    0.97810    0.71630    1.000
    C47      C        0.78840    0.91930    0.76200    1.000
    C48      C        0.75500    0.05560    0.31200    1.000
    H33      H        0.77820    0.07700    0.39540    1.000
    C49      C        0.70680    0.06910    0.30500    1.000
    C50      C        0.67220    0.03710    0.18000    1.000
    H34      H        0.63990    0.04620    0.17530    1.000
    C51      C        0.68580    0.99170    0.06100    1.000
    H35      H        0.66260    0.97030    0.97720    1.000
    C52      C        0.73400    0.97820    0.06800    1.000
    C53      C        0.76860    0.01010    0.19300    1.000
    H36      H        0.80090    0.00110    0.19730    1.000
    C54      C        0.69260    0.11880    0.43500    1.000
    O12      O        0.65820    0.13740    0.23900    1.000
    Zn4      Zn       0.21692    0.28586    0.36890    1.000
    O13      O        0.28350    0.24520    0.39800    1.000
    H37      H        0.30620    0.23310    0.27500    1.000
    N7       N        0.24030    0.35440    0.31400    1.000
    C55      C        0.22060    0.39160    0.46900    1.000
    H38      H        0.19100    0.39020    0.58380    1.000
    N8       N        0.24730    0.43260    0.44800    1.000
    C56      C        0.28570    0.37080    0.17000    1.000
    O14      O        0.22220    0.64210    0.07300    1.000
    C57      C        0.32150    0.34760    0.98000    1.000
    H39      H        0.31870    0.31510    0.92330    1.000
    O15      O        0.15520    0.62320    0.14500    1.000
    C58      C        0.36170    0.37350    0.87800    1.000
    C59      C        0.39860    0.35250    0.68600    1.000
    H40      H        0.39610    0.32010    0.62670    1.000
    C60      C        0.43910    0.37750    0.58000    1.000
    H41      H        0.46360    0.36270    0.45200    1.000
    C61      C        0.44150    0.42580    0.67200    1.000
    H42      H        0.46820    0.44400    0.60580    1.000
    C62      C        0.40450    0.44720    0.86100    1.000
    H43      H        0.40680    0.47970    0.91760    1.000
    C63      C        0.36410    0.42190    0.96900    1.000
    C64      C        0.32850    0.44560    0.15900    1.000
    H44      H        0.33150    0.47810    0.21630    1.000
    C65      C        0.28840    0.41930    0.26200    1.000
    C66      C        0.25500    0.55560    0.81200    1.000
    H45      H        0.27820    0.57700    0.89540    1.000
    C67      C        0.20680    0.56910    0.80500    1.000
    C68      C        0.17220    0.53710    0.68000    1.000
    H46      H        0.13990    0.54620    0.67530    1.000
    C69      C        0.18580    0.49170    0.56100    1.000
    H47      H        0.16260    0.47030    0.47720    1.000
    C70      C        0.23400    0.47820    0.56800    1.000
    C71      C        0.26860    0.51010    0.69300    1.000
    H48      H        0.30090    0.50110    0.69730    1.000
    C72      C        0.19260    0.61880    0.93500    1.000
    O16      O        0.15820    0.63740    0.73900    1.000
    Zn5      Zn       0.21414    0.71692    0.13110    1.000
    O17      O        0.25480    0.78350    0.10200    1.000
    H49      H        0.26690    0.80620    0.22500    1.000
    N9       N        0.14560    0.74030    0.18600    1.000
    C73      C        0.10840    0.72060    0.03100    1.000
    H50      H        0.10980    0.69100    0.91620    1.000
    N10      N        0.06740    0.74730    0.05200    1.000
    C74      C        0.12920    0.78570    0.33000    1.000
    O18      O        0.85790    0.72220    0.42700    1.000
    C75      C        0.15240    0.82150    0.52000    1.000
    H51      H        0.18490    0.81870    0.57670    1.000
    O19      O        0.87680    0.65520    0.35500    1.000
    C76      C        0.12650    0.86170    0.62200    1.000
    C77      C        0.14750    0.89860    0.81400    1.000
    H52      H        0.17990    0.89610    0.87330    1.000
    C78      C        0.12250    0.93910    0.92000    1.000
    H53      H        0.13730    0.96360    0.04800    1.000
    C79      C        0.07420    0.94150    0.82800    1.000
    H54      H        0.05600    0.96820    0.89420    1.000
    C80      C        0.05280    0.90450    0.63900    1.000
    H55      H        0.02030    0.90680    0.58240    1.000
    C81      C        0.07810    0.86410    0.53100    1.000
    C82      C        0.05440    0.82850    0.34100    1.000
    H56      H        0.02190    0.83150    0.28370    1.000
    C83      C        0.08070    0.78840    0.23800    1.000
    C84      C        0.94440    0.75500    0.68800    1.000
    H57      H        0.92300    0.77820    0.60460    1.000
    C85      C        0.93090    0.70680    0.69500    1.000
    C86      C        0.96290    0.67220    0.82000    1.000
    H58      H        0.95380    0.63990    0.82470    1.000
    C87      C        0.00830    0.68580    0.93900    1.000
    H59      H        0.02970    0.66260    0.02280    1.000
    C88      C        0.02180    0.73400    0.93200    1.000
    C89      C        0.98990    0.76860    0.80700    1.000
    H60      H        0.99890    0.80090    0.80270    1.000
    C90      C        0.88120    0.69260    0.56500    1.000
    O20      O        0.86260    0.65820    0.76100    1.000
    Zn6      Zn       0.71414    0.21692    0.63110    1.000
    O21      O        0.75480    0.28350    0.60200    1.000
    H61      H        0.76690    0.30620    0.72500    1.000
    N11      N        0.64560    0.24030    0.68600    1.000
    C91      C        0.60840    0.22060    0.53100    1.000
    H62      H        0.60980    0.19100    0.41620    1.000
    N12      N        0.56740    0.24730    0.55200    1.000
    C92      C        0.62920    0.28570    0.83000    1.000
    O22      O        0.35790    0.22220    0.92700    1.000
    C93      C        0.65240    0.32150    0.02000    1.000
    H63      H        0.68490    0.31870    0.07670    1.000
    O23      O        0.37680    0.15520    0.85500    1.000
    C94      C        0.62650    0.36170    0.12200    1.000
    C95      C        0.64750    0.39860    0.31400    1.000
    H64      H        0.67990    0.39610    0.37330    1.000
    C96      C        0.62250    0.43910    0.42000    1.000
    H65      H        0.63730    0.46360    0.54800    1.000
    C97      C        0.57420    0.44150    0.32800    1.000
    H66      H        0.55600    0.46820    0.39420    1.000
    C98      C        0.55280    0.40450    0.13900    1.000
    H67      H        0.52030    0.40680    0.08240    1.000
    C99      C        0.57810    0.36410    0.03100    1.000
    C100     C        0.55440    0.32850    0.84100    1.000
    H68      H        0.52190    0.33150    0.78370    1.000
    C101     C        0.58070    0.28840    0.73800    1.000
    C102     C        0.44440    0.25500    0.18800    1.000
    H69      H        0.42300    0.27820    0.10460    1.000
    C103     C        0.43090    0.20680    0.19500    1.000
    C104     C        0.46290    0.17220    0.32000    1.000
    H70      H        0.45380    0.13990    0.32470    1.000
    C105     C        0.50830    0.18580    0.43900    1.000
    H71      H        0.52970    0.16260    0.52280    1.000
    C106     C        0.52180    0.23400    0.43200    1.000
    C107     C        0.48990    0.26860    0.30700    1.000
    H72      H        0.49890    0.30090    0.30270    1.000
    C108     C        0.38120    0.19260    0.06500    1.000
    O24      O        0.36260    0.15820    0.26100    1.000
    Zn7      Zn       0.78586    0.28308    0.13110    1.000
    O25      O        0.74520    0.21650    0.10200    1.000
    H73      H        0.73310    0.19380    0.22500    1.000
    N13      N        0.85440    0.25970    0.18600    1.000
    C109     C        0.89160    0.27940    0.03100    1.000
    H74      H        0.89020    0.30900    0.91620    1.000
    N14      N        0.93260    0.25270    0.05200    1.000
    C110     C        0.87080    0.21430    0.33000    1.000
    O26      O        0.14210    0.27780    0.42700    1.000
    C111     C        0.84760    0.17850    0.52000    1.000
    H75      H        0.81510    0.18130    0.57670    1.000
    O27      O        0.12320    0.34480    0.35500    1.000
    C112     C        0.87350    0.13830    0.62200    1.000
    C113     C        0.85250    0.10140    0.81400    1.000
    H76      H        0.82010    0.10390    0.87330    1.000
    C114     C        0.87750    0.06090    0.92000    1.000
    H77      H        0.86270    0.03640    0.04800    1.000
    C115     C        0.92580    0.05850    0.82800    1.000
    H78      H        0.94400    0.03180    0.89420    1.000
    C116     C        0.94720    0.09550    0.63900    1.000
    H79      H        0.97970    0.09320    0.58240    1.000
    C117     C        0.92190    0.13590    0.53100    1.000
    C118     C        0.94560    0.17150    0.34100    1.000
    H80      H        0.97810    0.16850    0.28370    1.000
    C119     C        0.91930    0.21160    0.23800    1.000
    C120     C        0.05560    0.24500    0.68800    1.000
    H81      H        0.07700    0.22180    0.60460    1.000
    C121     C        0.06910    0.29320    0.69500    1.000
    C122     C        0.03710    0.32780    0.82000    1.000
    H82      H        0.04620    0.36010    0.82470    1.000
    C123     C        0.99170    0.31420    0.93900    1.000
    H83      H        0.97030    0.33740    0.02280    1.000
    C124     C        0.97820    0.26600    0.93200    1.000
    C125     C        0.01010    0.23140    0.80700    1.000
    H84      H        0.00110    0.19910    0.80270    1.000
    C126     C        0.11880    0.30740    0.56500    1.000
    O28      O        0.13740    0.34180    0.76100    1.000
    Zn8      Zn       0.28586    0.78308    0.63110    1.000
    O29      O        0.24520    0.71650    0.60200    1.000
    H85      H        0.23310    0.69380    0.72500    1.000
    N15      N        0.35440    0.75970    0.68600    1.000
    C127     C        0.39160    0.77940    0.53100    1.000
    H86      H        0.39020    0.80900    0.41620    1.000
    N16      N        0.43260    0.75270    0.55200    1.000
    C128     C        0.37080    0.71430    0.83000    1.000
    O30      O        0.64210    0.77780    0.92700    1.000
    C129     C        0.34760    0.67850    0.02000    1.000
    H87      H        0.31510    0.68130    0.07670    1.000
    O31      O        0.62320    0.84480    0.85500    1.000
    C130     C        0.37350    0.63830    0.12200    1.000
    C131     C        0.35250    0.60140    0.31400    1.000
    H88      H        0.32010    0.60390    0.37330    1.000
    C132     C        0.37750    0.56090    0.42000    1.000
    H89      H        0.36270    0.53640    0.54800    1.000
    C133     C        0.42580    0.55850    0.32800    1.000
    H90      H        0.44400    0.53180    0.39420    1.000
    C134     C        0.44720    0.59550    0.13900    1.000
    H91      H        0.47970    0.59320    0.08240    1.000
    C135     C        0.42190    0.63590    0.03100    1.000
    C136     C        0.44560    0.67150    0.84100    1.000
    H92      H        0.47810    0.66850    0.78370    1.000
    C137     C        0.41930    0.71160    0.73800    1.000
    C138     C        0.55560    0.74500    0.18800    1.000
    H93      H        0.57700    0.72180    0.10460    1.000
    C139     C        0.56910    0.79320    0.19500    1.000
    C140     C        0.53710    0.82780    0.32000    1.000
    H94      H        0.54620    0.86010    0.32470    1.000
    C141     C        0.49170    0.81420    0.43900    1.000
    H95      H        0.47030    0.83740    0.52280    1.000
    C142     C        0.47820    0.76600    0.43200    1.000
    C143     C        0.51010    0.73140    0.30700    1.000
    H96      H        0.50110    0.69910    0.30270    1.000
    C144     C        0.61880    0.80740    0.06500    1.000
    O32      O        0.63740    0.84180    0.26100    1.000
