data_functionalizedCrystal
_audit_creation_method	'EQeq! by Chris Wilmer'
_symmetry_space_group_name_H-M	'P1'
_symmetry_Int_Tables_number	1
_symmetry_cell_setting	triclinic
loop_
_symmetry_equiv_pos_as_xyz
  x,y,z
_cell_length_a	20.542
_cell_length_b	28.488
_cell_length_c	20.519
_cell_angle_alpha	90
_cell_angle_beta	99.776
_cell_angle_gamma	90
loop_
_atom_site_label
_atom_site_type_symbol
_atom_site_fract_x
_atom_site_fract_y
_atom_site_fract_z
_atom_site_charge
Mof_Cd	Cd	0.69783	0.8819	0.41284	0.433
Mof_Cd	Cd	0.81652	0.9177	0.6561	0.443
Mof_N 	N 	0.7655	0.8283	0.3703	-0.151
Mof_N 	N 	0.6337	0.8209	0.3643	-0.098
Mof_N 	N 	0.6621	0.9272	0.3144	-0.152
Mof_N 	N 	0.7624	0.9491	0.4135	-0.094
Mof_N 	N 	0.741	0.9746	0.6099	-0.098
Mof_N 	N 	0.8415	0.9906	0.7117	-0.15
Mof_C 	C 	0.8303	0.8327	0.3746	0.083
Mof_H 	H 	0.8506	0.8596	0.3942	0.01
Mof_C 	C 	0.8688	0.7993	0.3511	-0.137
Mof_H 	H 	0.9142	0.8034	0.3544	0.076
Mof_C 	C 	0.8373	0.7586	0.3219	0.063
Mof_H 	H 	0.8621	0.7349	0.307	0.01
Mof_C 	C 	0.7716	0.7542	0.3156	-0.134
Mof_H 	H 	0.7503	0.7282	0.2946	0.091
Mof_C 	C 	0.7354	0.7891	0.341	0.073
Mof_C 	C 	0.664	0.7863	0.3381	0.072
Mof_C 	C 	0.6172	0.7522	0.3125	-0.133
Mof_H 	H 	0.6251	0.7245	0.2912	0.092
Mof_C 	C 	0.5573	0.7679	0.3251	0.094
Mof_H 	H 	0.5166	0.753	0.3147	-0
Mof_N 	N 	0.5705	0.8098	0.3559	-0.17
Mof_H 	H 	0.5408	0.8273	0.3685	0.146
Mof_C 	C 	0.6129	0.9166	0.2662	0.098
Mof_H 	H 	0.593	0.8874	0.2676	0.012
Mof_C 	C 	0.5891	0.9455	0.2143	-0.167
Mof_H 	H 	0.5531	0.9368	0.1827	0.107
Mof_C 	C 	0.6197	0.9873	0.2104	0.082
Mof_H 	H 	0.6062	0.0072	0.1748	0.009
Mof_C 	C 	0.6707	0.0001	0.2591	-0.148
Mof_H 	H 	0.6911	0.0292	0.2578	0.087
Mof_C 	C 	0.6911	0.9694	0.3098	0.077
Mof_C 	C 	0.7458	0.9808	0.3647	0.078
Mof_C 	C 	0.7848	0.0201	0.3758	-0.159
Mof_H 	H 	0.7832	0.047	0.3499	0.092
Mof_C 	C 	0.8258	0.011	0.4327	0.125
Mof_H 	H 	0.8588	0.031	0.4531	-0.004
Mof_N 	N 	0.8123	0.9694	0.4553	-0.182
Mof_H 	H 	0.8323	0.9571	0.4915	0.162
Mof_C 	C 	0.7686	0.8441	0.5565	0.324
Mof_C 	C 	0.759	0.7953	0.5272	-0.11
Mof_C 	C 	0.6949	0.7759	0.5153	0.044
Mof_C 	C 	0.6383	0.7998	0.5304	-0.075
Mof_H 	H 	0.6432	0.8296	0.5493	0.068
Mof_C 	C 	0.5766	0.7795	0.5174	-0.026
Mof_H 	H 	0.5403	0.7957	0.5275	0.038
Mof_C 	C 	0.5681	0.7358	0.4897	-0.019
Mof_H 	H 	0.526	0.7227	0.4812	0.033
Mof_C 	C 	0.6206	0.7111	0.4744	-0.083
Mof_H 	H 	0.6134	0.6814	0.4555	0.072
Mof_C 	C 	0.8142	0.7705	0.5135	0.054
Mof_C 	C 	0.5594	0.9205	0.4424	0.32
Mof_C 	C 	0.5275	0.9618	0.4722	-0.108
Mof_C 	C 	0.5221	0.0046	0.4391	0.04
Mof_C 	C 	0.5461	0.0119	0.3773	-0.076
Mof_H 	H 	0.5643	0.9868	0.3577	0.069
Mof_C 	C 	0.5424	0.0547	0.3475	-0.033
Mof_H 	H 	0.5583	0.0589	0.3081	0.042
Mof_C 	C 	0.5143	0.0924	0.3771	-0.02
Mof_H 	H 	0.5114	0.1216	0.3565	0.031
Mof_C 	C 	0.4914	0.0875	0.4345	-0.087
Mof_H 	H 	0.4732	0.1134	0.4526	0.067
Mof_C 	C 	0.5056	0.9556	0.5325	0.048
Mof_C 	C 	0.9374	0.9493	0.5966	0.295
Mof_C 	C 	0.9702	0.9747	0.5464	-0.101
Mof_C 	C 	0.9734	0.0248	0.5493	0.038
Mof_C 	C 	0.9457	0.0517	0.5966	-0.082
Mof_H 	H 	0.9248	0.0361	0.6271	0.073
Mof_C 	C 	0.9489	0.0992	0.5983	-0.028
Mof_H 	H 	0.9303	0.1159	0.6295	0.037
Mof_C 	C 	0.9805	0.1228	0.5528	-0.026
Mof_H 	H 	0.9845	0.1553	0.5555	0.033
Mof_C 	C 	0.0054	0.0999	0.5051	-0.08
Mof_H 	H 	0.0238	0.1171	0.4742	0.066
Mof_C 	C 	0.9958	0.9505	0.4991	0.045
Mof_N 	N 	0.6914	0.9779	0.5575	-0.184
Mof_H 	H 	0.6738	0.9543	0.5348	0.159
Mof_C 	C 	0.6738	0.0213	0.5458	0.13
Mof_H 	H 	0.6404	0.0315	0.5124	-0.005
Mof_C 	C 	0.7115	0.0493	0.5898	-0.161
Mof_H 	H 	0.7099	0.0818	0.5929	0.089
Mof_C 	C 	0.7531	0.0188	0.6293	0.079
Mof_C 	C 	0.8069	0.0275	0.6868	0.076
Mof_C 	C 	0.8197	0.0726	0.7091	-0.138
Mof_H 	H 	0.7948	0.0978	0.6898	0.078
Mof_C 	C 	0.87	0.079	0.7605	0.059
Mof_H 	H 	0.8809	0.1091	0.7763	0.009
Mof_C 	C 	0.9059	0.0402	0.7899	-0.135
Mof_H 	H 	0.939	0.0436	0.8266	0.089
Mof_C 	C 	0.8898	0.997	0.762	0.082
Mof_H 	H 	0.9141	0.9711	0.7795	0.031
Mof_O 	O 	0.751	0.87884	0.5204	-0.283
Mof_O 	O 	0.7962	0.8462	0.6153	-0.288
Mof_O 	O 	0.6213	0.91632	0.4633	-0.288
Mof_O 	O 	0.5268	0.8948	0.4019	-0.276
Mof_O 	O 	0.877	0.93859	0.5779	-0.28
Mof_O 	O 	0.9697	0.942	0.6536	-0.243
Mof_N 	N 	0.8836	0.8796	0.7461	-0.095
Mof_N 	N 	0.9504	0.871	0.7666	-0.144
Mof_H 	H 	0.9819	0.8809	0.7475	0.098
Mof_C 	C 	0.9573	0.8436	0.8232	0.079
Mof_H 	H 	0.9969	0.8328	0.8472	0.01
Mof_C 	C 	0.8948	0.8353	0.8377	-0.127
Mof_H 	H 	0.8852	0.8179	0.8732	0.072
Mof_C 	C 	0.8493	0.8575	0.7901	0.062
Mof_N 	N 	0.7452	0.8865	0.7285	-0.136
Mof_C 	C 	0.7773	0.8603	0.7816	0.055
Mof_C 	C 	0.741	0.8322	0.8176	-0.114
Mof_H 	H 	0.7625	0.8147	0.8531	0.066
Mof_C 	C 	0.6726	0.8303	0.8006	0.028
Mof_H 	H 	0.6483	0.8115	0.8248	0.015
Mof_C 	C 	0.6405	0.8565	0.7476	-0.11
Mof_H 	H 	0.5947	0.8552	0.7362	0.063
Mof_C 	C 	0.6768	0.8846	0.7115	0.047
Mof_H 	H 	0.6553	0.9021	0.676	0.019
Mof_Cd	Cd	0.19783	0.3819	0.41284	0.432
Mof_Cd	Cd	0.31652	0.4177	0.6561	0.442
Mof_N 	N 	0.2655	0.3283	0.3703	-0.152
Mof_N 	N 	0.1337	0.3209	0.3643	-0.099
Mof_N 	N 	0.1621	0.4272	0.3144	-0.153
Mof_N 	N 	0.2624	0.4491	0.4135	-0.095
Mof_N 	N 	0.241	0.4746	0.6099	-0.099
Mof_N 	N 	0.3415	0.4906	0.7117	-0.151
Mof_C 	C 	0.3303	0.3327	0.3746	0.082
Mof_H 	H 	0.3506	0.3596	0.3942	0.009
Mof_C 	C 	0.3688	0.2993	0.3511	-0.138
Mof_H 	H 	0.4142	0.3034	0.3544	0.075
Mof_C 	C 	0.3373	0.2586	0.3219	0.062
Mof_H 	H 	0.3621	0.2349	0.307	0.009
Mof_C 	C 	0.2716	0.2542	0.3156	-0.135
Mof_H 	H 	0.2503	0.2282	0.2946	0.09
Mof_C 	C 	0.2354	0.2891	0.341	0.073
Mof_C 	C 	0.164	0.2863	0.3381	0.072
Mof_C 	C 	0.1172	0.2522	0.3125	-0.133
Mof_H 	H 	0.1251	0.2245	0.2912	0.092
Mof_C 	C 	0.0573	0.2679	0.3251	0.094
Mof_H 	H 	0.0166	0.253	0.3147	-0
Mof_N 	N 	0.0705	0.3098	0.3559	-0.17
Mof_H 	H 	0.0408	0.3273	0.3685	0.146
Mof_C 	C 	0.1129	0.4166	0.2662	0.099
Mof_H 	H 	0.093	0.3874	0.2676	0.012
Mof_C 	C 	0.0891	0.4455	0.2143	-0.169
Mof_H 	H 	0.0531	0.4368	0.1827	0.108
Mof_C 	C 	0.1197	0.4873	0.2104	0.085
Mof_H 	H 	0.1062	0.5072	0.1748	0.008
Mof_C 	C 	0.1707	0.5001	0.2591	-0.15
Mof_H 	H 	0.1911	0.5292	0.2578	0.087
Mof_C 	C 	0.1911	0.4694	0.3098	0.078
Mof_C 	C 	0.2458	0.4808	0.3647	0.078
Mof_C 	C 	0.2848	0.5201	0.3758	-0.159
Mof_H 	H 	0.2832	0.547	0.3499	0.092
Mof_C 	C 	0.3258	0.511	0.4327	0.125
Mof_H 	H 	0.3588	0.531	0.4531	-0.004
Mof_N 	N 	0.3123	0.4694	0.4553	-0.182
Mof_H 	H 	0.3323	0.4571	0.4915	0.162
Mof_C 	C 	0.2686	0.3441	0.5565	0.324
Mof_C 	C 	0.259	0.2953	0.5272	-0.11
Mof_C 	C 	0.1949	0.2759	0.5153	0.044
Mof_C 	C 	0.1383	0.2998	0.5304	-0.075
Mof_H 	H 	0.1432	0.3296	0.5493	0.068
Mof_C 	C 	0.0766	0.2795	0.5174	-0.026
Mof_H 	H 	0.0403	0.2957	0.5275	0.038
Mof_C 	C 	0.0681	0.2358	0.4897	-0.019
Mof_H 	H 	0.026	0.2227	0.4812	0.033
Mof_C 	C 	0.1206	0.2111	0.4744	-0.083
Mof_H 	H 	0.1134	0.1814	0.4555	0.072
Mof_C 	C 	0.3142	0.2705	0.5135	0.054
Mof_C 	C 	0.0594	0.4205	0.4424	0.32
Mof_C 	C 	0.0275	0.4618	0.4722	-0.108
Mof_C 	C 	0.0221	0.5046	0.4391	0.04
Mof_C 	C 	0.0461	0.5119	0.3773	-0.077
Mof_H 	H 	0.0643	0.4868	0.3577	0.069
Mof_C 	C 	0.0424	0.5547	0.3475	-0.032
Mof_H 	H 	0.0583	0.5589	0.3081	0.042
Mof_C 	C 	0.0143	0.5924	0.3771	-0.02
Mof_H 	H 	0.0114	0.6216	0.3565	0.031
Mof_C 	C 	0.9914	0.5875	0.4345	-0.087
Mof_H 	H 	0.9732	0.6134	0.4526	0.066
Mof_C 	C 	0.0056	0.4556	0.5325	0.048
Mof_C 	C 	0.4374	0.4493	0.5966	0.295
Mof_C 	C 	0.4702	0.4747	0.5464	-0.101
Mof_C 	C 	0.4734	0.5248	0.5493	0.038
Mof_C 	C 	0.4457	0.5517	0.5966	-0.082
Mof_H 	H 	0.4248	0.5361	0.6271	0.073
Mof_C 	C 	0.4489	0.5992	0.5983	-0.028
Mof_H 	H 	0.4303	0.6159	0.6295	0.037
Mof_C 	C 	0.4805	0.6228	0.5528	-0.026
Mof_H 	H 	0.4845	0.6553	0.5555	0.033
Mof_C 	C 	0.5054	0.5999	0.5051	-0.08
Mof_H 	H 	0.5238	0.6171	0.4742	0.066
Mof_C 	C 	0.4958	0.4505	0.4991	0.045
Mof_N 	N 	0.1914	0.4779	0.5575	-0.184
Mof_H 	H 	0.1738	0.4543	0.5348	0.159
Mof_C 	C 	0.1738	0.5213	0.5458	0.131
Mof_H 	H 	0.1404	0.5315	0.5124	-0.005
Mof_C 	C 	0.2115	0.5493	0.5898	-0.161
Mof_H 	H 	0.2099	0.5818	0.5929	0.089
Mof_C 	C 	0.2531	0.5188	0.6293	0.079
Mof_C 	C 	0.3069	0.5275	0.6868	0.076
Mof_C 	C 	0.3197	0.5726	0.7091	-0.137
Mof_H 	H 	0.2948	0.5978	0.6898	0.078
Mof_C 	C 	0.37	0.579	0.7605	0.059
Mof_H 	H 	0.3809	0.6091	0.7763	0.009
Mof_C 	C 	0.4059	0.5402	0.7899	-0.134
Mof_H 	H 	0.439	0.5436	0.8266	0.088
Mof_C 	C 	0.3898	0.497	0.762	0.082
Mof_H 	H 	0.4141	0.4711	0.7795	0.032
Mof_O 	O 	0.251	0.37884	0.5204	-0.283
Mof_O 	O 	0.2962	0.3462	0.6153	-0.288
Mof_O 	O 	0.1213	0.41632	0.4633	-0.288
Mof_O 	O 	0.0268	0.3948	0.4019	-0.276
Mof_O 	O 	0.377	0.43859	0.5779	-0.28
Mof_O 	O 	0.4697	0.442	0.6536	-0.243
Mof_N 	N 	0.3836	0.3796	0.7461	-0.095
Mof_N 	N 	0.4504	0.371	0.7666	-0.144
Mof_H 	H 	0.4819	0.3809	0.7475	0.099
Mof_C 	C 	0.4573	0.3436	0.8232	0.079
Mof_H 	H 	0.4969	0.3328	0.8472	0.011
Mof_C 	C 	0.3948	0.3353	0.8377	-0.127
Mof_H 	H 	0.3852	0.3179	0.8732	0.072
Mof_C 	C 	0.3493	0.3575	0.7901	0.062
Mof_N 	N 	0.2452	0.3865	0.7285	-0.136
Mof_C 	C 	0.2773	0.3603	0.7816	0.055
Mof_C 	C 	0.241	0.3322	0.8176	-0.114
Mof_H 	H 	0.2625	0.3147	0.8531	0.066
Mof_C 	C 	0.1726	0.3303	0.8006	0.028
Mof_H 	H 	0.1483	0.3115	0.8248	0.015
Mof_C 	C 	0.1405	0.3565	0.7476	-0.11
Mof_H 	H 	0.0947	0.3552	0.7362	0.063
Mof_C 	C 	0.1768	0.3846	0.7115	0.047
Mof_H 	H 	0.1553	0.4021	0.676	0.019
Mof_Cd	Cd	0.30217	0.8819	0.08716	0.432
Mof_Cd	Cd	0.18348	0.9177	0.8439	0.442
Mof_N 	N 	0.2345	0.8283	0.1297	-0.152
Mof_N 	N 	0.3663	0.8209	0.1357	-0.099
Mof_N 	N 	0.3379	0.9272	0.1856	-0.153
Mof_N 	N 	0.2376	0.9491	0.0865	-0.095
Mof_N 	N 	0.259	0.9746	0.8901	-0.098
Mof_N 	N 	0.1585	0.9906	0.7883	-0.151
Mof_C 	C 	0.1697	0.8327	0.1254	0.082
Mof_H 	H 	0.1494	0.8596	0.1058	0.009
Mof_C 	C 	0.1312	0.7993	0.1489	-0.138
Mof_H 	H 	0.0858	0.8034	0.1456	0.075
Mof_C 	C 	0.1627	0.7586	0.1781	0.062
Mof_H 	H 	0.1379	0.7349	0.193	0.009
Mof_C 	C 	0.2284	0.7542	0.1844	-0.135
Mof_H 	H 	0.2497	0.7282	0.2054	0.09
Mof_C 	C 	0.2646	0.7891	0.159	0.073
Mof_C 	C 	0.336	0.7863	0.1619	0.072
Mof_C 	C 	0.3828	0.7522	0.1875	-0.133
Mof_H 	H 	0.3749	0.7245	0.2088	0.092
Mof_C 	C 	0.4427	0.7679	0.1749	0.094
Mof_H 	H 	0.4834	0.753	0.1853	-0
Mof_N 	N 	0.4295	0.8098	0.1441	-0.17
Mof_H 	H 	0.4592	0.8273	0.1315	0.146
Mof_C 	C 	0.3871	0.9166	0.2338	0.099
Mof_H 	H 	0.407	0.8874	0.2324	0.012
Mof_C 	C 	0.4109	0.9455	0.2857	-0.167
Mof_H 	H 	0.4469	0.9368	0.3173	0.107
Mof_C 	C 	0.3803	0.9873	0.2896	0.083
Mof_H 	H 	0.3938	0.0072	0.3252	0.009
Mof_C 	C 	0.3293	0.0001	0.2409	-0.148
Mof_H 	H 	0.3089	0.0292	0.2422	0.087
Mof_C 	C 	0.3089	0.9694	0.1902	0.077
Mof_C 	C 	0.2542	0.9808	0.1353	0.078
Mof_C 	C 	0.2152	0.0201	0.1242	-0.158
Mof_H 	H 	0.2168	0.047	0.1501	0.092
Mof_C 	C 	0.1742	0.011	0.0673	0.125
Mof_H 	H 	0.1412	0.031	0.0469	-0.004
Mof_N 	N 	0.1877	0.9694	0.0447	-0.182
Mof_H 	H 	0.1677	0.9571	0.0085	0.161
Mof_C 	C 	0.2314	0.8441	0.9435	0.325
Mof_C 	C 	0.241	0.7953	0.9728	-0.111
Mof_C 	C 	0.3051	0.7759	0.9847	0.046
Mof_C 	C 	0.3617	0.7998	0.9696	-0.076
Mof_H 	H 	0.3568	0.8296	0.9507	0.068
Mof_C 	C 	0.4234	0.7795	0.9826	-0.024
Mof_H 	H 	0.4597	0.7957	0.9725	0.037
Mof_C 	C 	0.4319	0.7358	0.0103	-0.021
Mof_H 	H 	0.474	0.7227	0.0188	0.033
Mof_C 	C 	0.3794	0.7111	0.0256	-0.081
Mof_H 	H 	0.3866	0.6814	0.0445	0.072
Mof_C 	C 	0.1858	0.7705	0.9865	0.056
Mof_C 	C 	0.4406	0.9205	0.0576	0.32
Mof_C 	C 	0.4725	0.9618	0.0278	-0.109
Mof_C 	C 	0.4779	0.0046	0.0609	0.04
Mof_C 	C 	0.4539	0.0119	0.1227	-0.076
Mof_H 	H 	0.4357	0.9868	0.1423	0.069
Mof_C 	C 	0.4576	0.0547	0.1525	-0.033
Mof_H 	H 	0.4417	0.0589	0.1919	0.042
Mof_C 	C 	0.4857	0.0924	0.1229	-0.019
Mof_H 	H 	0.4886	0.1216	0.1435	0.031
Mof_C 	C 	0.5086	0.0875	0.0655	-0.087
Mof_H 	H 	0.5268	0.1134	0.0474	0.067
Mof_C 	C 	0.4944	0.9556	0.9675	0.049
Mof_C 	C 	0.0626	0.9493	0.9034	0.295
Mof_C 	C 	0.0298	0.9747	0.9536	-0.1
Mof_C 	C 	0.0266	0.0248	0.9507	0.038
Mof_C 	C 	0.0543	0.0517	0.9034	-0.081
Mof_H 	H 	0.0752	0.0361	0.8729	0.072
Mof_C 	C 	0.0511	0.0992	0.9017	-0.03
Mof_H 	H 	0.0697	0.1159	0.8705	0.038
Mof_C 	C 	0.0195	0.1228	0.9472	-0.024
Mof_H 	H 	0.0155	0.1553	0.9445	0.033
Mof_C 	C 	0.9946	0.0999	0.9949	-0.083
Mof_H 	H 	0.9762	0.1171	0.0258	0.067
Mof_C 	C 	0.0042	0.9505	0.0009	0.045
Mof_N 	N 	0.3086	0.9779	0.9425	-0.183
Mof_H 	H 	0.3262	0.9543	0.9652	0.159
Mof_C 	C 	0.3262	0.0213	0.9542	0.13
Mof_H 	H 	0.3596	0.0315	0.9876	-0.005
Mof_C 	C 	0.2885	0.0493	0.9102	-0.16
Mof_H 	H 	0.2901	0.0818	0.9071	0.088
Mof_C 	C 	0.2469	0.0188	0.8707	0.079
Mof_C 	C 	0.1931	0.0275	0.8132	0.076
Mof_C 	C 	0.1803	0.0726	0.7909	-0.138
Mof_H 	H 	0.2052	0.0978	0.8102	0.078
Mof_C 	C 	0.13	0.079	0.7395	0.059
Mof_H 	H 	0.1191	0.1091	0.7237	0.009
Mof_C 	C 	0.0941	0.0402	0.7101	-0.135
Mof_H 	H 	0.061	0.0436	0.6734	0.089
Mof_C 	C 	0.1102	0.997	0.738	0.082
Mof_H 	H 	0.0859	0.9711	0.7205	0.032
Mof_O 	O 	0.249	0.87884	0.9796	-0.283
Mof_O 	O 	0.2038	0.8462	0.8847	-0.288
Mof_O 	O 	0.3787	0.91632	0.0367	-0.289
Mof_O 	O 	0.4732	0.8948	0.0981	-0.276
Mof_O 	O 	0.123	0.93859	0.9221	-0.279
Mof_O 	O 	0.0303	0.942	0.8464	-0.243
Mof_N 	N 	0.1164	0.8796	0.7539	-0.095
Mof_N 	N 	0.0496	0.871	0.7334	-0.144
Mof_H 	H 	0.0181	0.8809	0.7525	0.099
Mof_C 	C 	0.0427	0.8436	0.6768	0.079
Mof_H 	H 	0.0031	0.8328	0.6528	0.011
Mof_C 	C 	0.1052	0.8353	0.6623	-0.127
Mof_H 	H 	0.1148	0.8179	0.6268	0.072
Mof_C 	C 	0.1507	0.8575	0.7099	0.062
Mof_N 	N 	0.2548	0.8865	0.7715	-0.136
Mof_C 	C 	0.2227	0.8603	0.7184	0.055
Mof_C 	C 	0.259	0.8322	0.6824	-0.114
Mof_H 	H 	0.2375	0.8147	0.6469	0.066
Mof_C 	C 	0.3274	0.8303	0.6994	0.028
Mof_H 	H 	0.3517	0.8115	0.6752	0.015
Mof_C 	C 	0.3595	0.8565	0.7524	-0.11
Mof_H 	H 	0.4053	0.8552	0.7638	0.063
Mof_C 	C 	0.3232	0.8846	0.7885	0.047
Mof_H 	H 	0.3447	0.9021	0.824	0.019
Mof_Cd	Cd	0.80217	0.3819	0.08716	0.432
Mof_Cd	Cd	0.68348	0.4177	0.8439	0.442
Mof_N 	N 	0.7345	0.3283	0.1297	-0.152
Mof_N 	N 	0.8663	0.3209	0.1357	-0.099
Mof_N 	N 	0.8379	0.4272	0.1856	-0.153
Mof_N 	N 	0.7376	0.4491	0.0865	-0.095
Mof_N 	N 	0.759	0.4746	0.8901	-0.099
Mof_N 	N 	0.6585	0.4906	0.7883	-0.151
Mof_C 	C 	0.6697	0.3327	0.1254	0.082
Mof_H 	H 	0.6494	0.3596	0.1058	0.009
Mof_C 	C 	0.6312	0.2993	0.1489	-0.138
Mof_H 	H 	0.5858	0.3034	0.1456	0.075
Mof_C 	C 	0.6627	0.2586	0.1781	0.062
Mof_H 	H 	0.6379	0.2349	0.193	0.009
Mof_C 	C 	0.7284	0.2542	0.1844	-0.135
Mof_H 	H 	0.7497	0.2282	0.2054	0.09
Mof_C 	C 	0.7646	0.2891	0.159	0.073
Mof_C 	C 	0.836	0.2863	0.1619	0.072
Mof_C 	C 	0.8828	0.2522	0.1875	-0.133
Mof_H 	H 	0.8749	0.2245	0.2088	0.092
Mof_C 	C 	0.9427	0.2679	0.1749	0.094
Mof_H 	H 	0.9834	0.253	0.1853	-0
Mof_N 	N 	0.9295	0.3098	0.1441	-0.17
Mof_H 	H 	0.9592	0.3273	0.1315	0.146
Mof_C 	C 	0.8871	0.4166	0.2338	0.099
Mof_H 	H 	0.907	0.3874	0.2324	0.012
Mof_C 	C 	0.9109	0.4455	0.2857	-0.169
Mof_H 	H 	0.9469	0.4368	0.3173	0.108
Mof_C 	C 	0.8803	0.4873	0.2896	0.085
Mof_H 	H 	0.8938	0.5072	0.3252	0.008
Mof_C 	C 	0.8293	0.5001	0.2409	-0.15
Mof_H 	H 	0.8089	0.5292	0.2422	0.087
Mof_C 	C 	0.8089	0.4694	0.1902	0.078
Mof_C 	C 	0.7542	0.4808	0.1353	0.078
Mof_C 	C 	0.7152	0.5201	0.1242	-0.159
Mof_H 	H 	0.7168	0.547	0.1501	0.092
Mof_C 	C 	0.6742	0.511	0.0673	0.125
Mof_H 	H 	0.6412	0.531	0.0469	-0.004
Mof_N 	N 	0.6877	0.4694	0.0447	-0.182
Mof_H 	H 	0.6677	0.4571	0.0085	0.162
Mof_C 	C 	0.7314	0.3441	0.9435	0.324
Mof_C 	C 	0.741	0.2953	0.9728	-0.109
Mof_C 	C 	0.8051	0.2759	0.9847	0.042
Mof_C 	C 	0.8617	0.2998	0.9696	-0.073
Mof_H 	H 	0.8568	0.3296	0.9507	0.067
Mof_C 	C 	0.9234	0.2795	0.9826	-0.029
Mof_H 	H 	0.9597	0.2957	0.9725	0.039
Mof_C 	C 	0.9319	0.2358	0.0103	-0.016
Mof_H 	H 	0.974	0.2227	0.0188	0.032
Mof_C 	C 	0.8794	0.2111	0.0256	-0.084
Mof_H 	H 	0.8866	0.1814	0.0445	0.073
Mof_C 	C 	0.6858	0.2705	0.9865	0.052
Mof_C 	C 	0.9406	0.4205	0.0576	0.32
Mof_C 	C 	0.9725	0.4618	0.0278	-0.107
Mof_C 	C 	0.9779	0.5046	0.0609	0.04
Mof_C 	C 	0.9539	0.5119	0.1227	-0.077
Mof_H 	H 	0.9357	0.4868	0.1423	0.069
Mof_C 	C 	0.9576	0.5547	0.1525	-0.032
Mof_H 	H 	0.9417	0.5589	0.1919	0.042
Mof_C 	C 	0.9857	0.5924	0.1229	-0.02
Mof_H 	H 	0.9886	0.6216	0.1435	0.031
Mof_C 	C 	0.0086	0.5875	0.0655	-0.087
Mof_H 	H 	0.0268	0.6134	0.0474	0.066
Mof_C 	C 	0.9944	0.4556	0.9675	0.048
Mof_C 	C 	0.5626	0.4493	0.9034	0.295
Mof_C 	C 	0.5298	0.4747	0.9536	-0.101
Mof_C 	C 	0.5266	0.5248	0.9507	0.038
Mof_C 	C 	0.5543	0.5517	0.9034	-0.082
Mof_H 	H 	0.5752	0.5361	0.8729	0.073
Mof_C 	C 	0.5511	0.5992	0.9017	-0.028
Mof_H 	H 	0.5697	0.6159	0.8705	0.037
Mof_C 	C 	0.5195	0.6228	0.9472	-0.026
Mof_H 	H 	0.5155	0.6553	0.9445	0.033
Mof_C 	C 	0.4946	0.5999	0.9949	-0.08
Mof_H 	H 	0.4762	0.6171	0.0258	0.065
Mof_C 	C 	0.5042	0.4505	0.0009	0.045
Mof_N 	N 	0.8086	0.4779	0.9425	-0.184
Mof_H 	H 	0.8262	0.4543	0.9652	0.159
Mof_C 	C 	0.8262	0.5213	0.9542	0.13
Mof_H 	H 	0.8596	0.5315	0.9876	-0.005
Mof_C 	C 	0.7885	0.5493	0.9102	-0.161
Mof_H 	H 	0.7901	0.5818	0.9071	0.089
Mof_C 	C 	0.7469	0.5188	0.8707	0.079
Mof_C 	C 	0.6931	0.5275	0.8132	0.076
Mof_C 	C 	0.6803	0.5726	0.7909	-0.137
Mof_H 	H 	0.7052	0.5978	0.8102	0.078
Mof_C 	C 	0.63	0.579	0.7395	0.059
Mof_H 	H 	0.6191	0.6091	0.7237	0.009
Mof_C 	C 	0.5941	0.5402	0.7101	-0.134
Mof_H 	H 	0.561	0.5436	0.6734	0.088
Mof_C 	C 	0.6102	0.497	0.738	0.082
Mof_H 	H 	0.5859	0.4711	0.7205	0.032
Mof_O 	O 	0.749	0.37884	0.9796	-0.283
Mof_O 	O 	0.7038	0.3462	0.8847	-0.287
Mof_O 	O 	0.8787	0.41632	0.0367	-0.288
Mof_O 	O 	0.9732	0.3948	0.0981	-0.276
Mof_O 	O 	0.623	0.43859	0.9221	-0.28
Mof_O 	O 	0.5303	0.442	0.8464	-0.243
Mof_N 	N 	0.6164	0.3796	0.7539	-0.095
Mof_N 	N 	0.5496	0.371	0.7334	-0.144
Mof_H 	H 	0.5181	0.3809	0.7525	0.099
Mof_C 	C 	0.5427	0.3436	0.6768	0.079
Mof_H 	H 	0.5031	0.3328	0.6528	0.011
Mof_C 	C 	0.6052	0.3353	0.6623	-0.127
Mof_H 	H 	0.6148	0.3179	0.6268	0.072
Mof_C 	C 	0.6507	0.3575	0.7099	0.062
Mof_N 	N 	0.7548	0.3865	0.7715	-0.136
Mof_C 	C 	0.7227	0.3603	0.7184	0.055
Mof_C 	C 	0.759	0.3322	0.6824	-0.114
Mof_H 	H 	0.7375	0.3147	0.6469	0.066
Mof_C 	C 	0.8274	0.3303	0.6994	0.028
Mof_H 	H 	0.8517	0.3115	0.6752	0.015
Mof_C 	C 	0.8595	0.3565	0.7524	-0.11
Mof_H 	H 	0.9053	0.3552	0.7638	0.063
Mof_C 	C 	0.8232	0.3846	0.7885	0.047
Mof_H 	H 	0.8447	0.4021	0.824	0.019
Mof_Cd	Cd	0.30217	0.1181	0.58716	0.432
Mof_Cd	Cd	0.18348	0.0823	0.3439	0.442
Mof_N 	N 	0.2345	0.1717	0.6297	-0.152
Mof_N 	N 	0.3663	0.1791	0.6357	-0.099
Mof_N 	N 	0.3379	0.0728	0.6856	-0.153
Mof_N 	N 	0.2376	0.0509	0.5865	-0.095
Mof_N 	N 	0.259	0.0254	0.3901	-0.099
Mof_N 	N 	0.1585	0.0094	0.2883	-0.151
Mof_C 	C 	0.1697	0.1673	0.6254	0.082
Mof_H 	H 	0.1494	0.1404	0.6058	0.009
Mof_C 	C 	0.1312	0.2007	0.6489	-0.138
Mof_H 	H 	0.0858	0.1966	0.6456	0.075
Mof_C 	C 	0.1627	0.2414	0.6781	0.062
Mof_H 	H 	0.1379	0.2651	0.693	0.009
Mof_C 	C 	0.2284	0.2458	0.6844	-0.135
Mof_H 	H 	0.2497	0.2718	0.7054	0.09
Mof_C 	C 	0.2646	0.2109	0.659	0.073
Mof_C 	C 	0.336	0.2137	0.6619	0.072
Mof_C 	C 	0.3828	0.2478	0.6875	-0.133
Mof_H 	H 	0.3749	0.2755	0.7088	0.092
Mof_C 	C 	0.4427	0.2321	0.6749	0.094
Mof_H 	H 	0.4834	0.247	0.6853	-0
Mof_N 	N 	0.4295	0.1902	0.6441	-0.17
Mof_H 	H 	0.4592	0.1727	0.6315	0.146
Mof_C 	C 	0.3871	0.0834	0.7338	0.098
Mof_H 	H 	0.407	0.1126	0.7324	0.012
Mof_C 	C 	0.4109	0.0545	0.7857	-0.167
Mof_H 	H 	0.4469	0.0632	0.8173	0.107
Mof_C 	C 	0.3803	0.0127	0.7896	0.082
Mof_H 	H 	0.3938	0.9928	0.8252	0.009
Mof_C 	C 	0.3293	0.9999	0.7409	-0.148
Mof_H 	H 	0.3089	0.9708	0.7422	0.087
Mof_C 	C 	0.3089	0.0306	0.6902	0.077
Mof_C 	C 	0.2542	0.0192	0.6353	0.078
Mof_C 	C 	0.2152	0.9799	0.6242	-0.159
Mof_H 	H 	0.2168	0.953	0.6501	0.092
Mof_C 	C 	0.1742	0.989	0.5673	0.125
Mof_H 	H 	0.1412	0.969	0.5469	-0.004
Mof_N 	N 	0.1877	0.0306	0.5447	-0.182
Mof_H 	H 	0.1677	0.0429	0.5085	0.162
Mof_C 	C 	0.2314	0.1559	0.4435	0.324
Mof_C 	C 	0.241	0.2047	0.4728	-0.11
Mof_C 	C 	0.3051	0.2241	0.4847	0.044
Mof_C 	C 	0.3617	0.2002	0.4696	-0.075
Mof_H 	H 	0.3568	0.1704	0.4507	0.068
Mof_C 	C 	0.4234	0.2205	0.4826	-0.026
Mof_H 	H 	0.4597	0.2043	0.4725	0.038
Mof_C 	C 	0.4319	0.2642	0.5103	-0.019
Mof_H 	H 	0.474	0.2773	0.5188	0.033
Mof_C 	C 	0.3794	0.2889	0.5256	-0.083
Mof_H 	H 	0.3866	0.3186	0.5445	0.072
Mof_C 	C 	0.1858	0.2295	0.4865	0.054
Mof_C 	C 	0.4406	0.0795	0.5576	0.32
Mof_C 	C 	0.4725	0.0382	0.5278	-0.108
Mof_C 	C 	0.4779	0.9954	0.5609	0.04
Mof_C 	C 	0.4539	0.9881	0.6227	-0.076
Mof_H 	H 	0.4357	0.0132	0.6423	0.069
Mof_C 	C 	0.4576	0.9453	0.6525	-0.033
Mof_H 	H 	0.4417	0.9411	0.6919	0.042
Mof_C 	C 	0.4857	0.9076	0.6229	-0.02
Mof_H 	H 	0.4886	0.8784	0.6435	0.031
Mof_C 	C 	0.5086	0.9125	0.5655	-0.087
Mof_H 	H 	0.5268	0.8866	0.5474	0.067
Mof_C 	C 	0.4944	0.0444	0.4675	0.048
Mof_C 	C 	0.0626	0.0507	0.4034	0.295
Mof_C 	C 	0.0298	0.0253	0.4536	-0.101
Mof_C 	C 	0.0266	0.9752	0.4507	0.038
Mof_C 	C 	0.0543	0.9483	0.4034	-0.082
Mof_H 	H 	0.0752	0.9639	0.3729	0.073
Mof_C 	C 	0.0511	0.9008	0.4017	-0.028
Mof_H 	H 	0.0697	0.8841	0.3705	0.037
Mof_C 	C 	0.0195	0.8772	0.4472	-0.026
Mof_H 	H 	0.0155	0.8447	0.4445	0.033
Mof_C 	C 	0.9946	0.9001	0.4949	-0.08
Mof_H 	H 	0.9762	0.8829	0.5258	0.066
Mof_C 	C 	0.0042	0.0495	0.5009	0.045
Mof_N 	N 	0.3086	0.0221	0.4425	-0.184
Mof_H 	H 	0.3262	0.0457	0.4652	0.159
Mof_C 	C 	0.3262	0.9787	0.4542	0.13
Mof_H 	H 	0.3596	0.9685	0.4876	-0.005
Mof_C 	C 	0.2885	0.9507	0.4102	-0.161
Mof_H 	H 	0.2901	0.9182	0.4071	0.089
Mof_C 	C 	0.2469	0.9812	0.3707	0.079
Mof_C 	C 	0.1931	0.9725	0.3132	0.076
Mof_C 	C 	0.1803	0.9274	0.2909	-0.138
Mof_H 	H 	0.2052	0.9022	0.3102	0.078
Mof_C 	C 	0.13	0.921	0.2395	0.059
Mof_H 	H 	0.1191	0.8909	0.2237	0.009
Mof_C 	C 	0.0941	0.9598	0.2101	-0.135
Mof_H 	H 	0.061	0.9564	0.1734	0.089
Mof_C 	C 	0.1102	0.003	0.238	0.082
Mof_H 	H 	0.0859	0.0289	0.2205	0.031
Mof_O 	O 	0.249	0.12116	0.4796	-0.283
Mof_O 	O 	0.2038	0.1538	0.3847	-0.288
Mof_O 	O 	0.3787	0.08368	0.5367	-0.288
Mof_O 	O 	0.4732	0.1052	0.5981	-0.276
Mof_O 	O 	0.123	0.06141	0.4221	-0.28
Mof_O 	O 	0.0303	0.058	0.3464	-0.243
Mof_N 	N 	0.1164	0.1204	0.2539	-0.095
Mof_N 	N 	0.0496	0.129	0.2334	-0.144
Mof_H 	H 	0.0181	0.1191	0.2525	0.098
Mof_C 	C 	0.0427	0.1564	0.1768	0.079
Mof_H 	H 	0.0031	0.1672	0.1528	0.01
Mof_C 	C 	0.1052	0.1647	0.1623	-0.127
Mof_H 	H 	0.1148	0.1821	0.1268	0.072
Mof_C 	C 	0.1507	0.1425	0.2099	0.062
Mof_N 	N 	0.2548	0.1135	0.2715	-0.136
Mof_C 	C 	0.2227	0.1397	0.2184	0.055
Mof_C 	C 	0.259	0.1678	0.1824	-0.114
Mof_H 	H 	0.2375	0.1853	0.1469	0.066
Mof_C 	C 	0.3274	0.1697	0.1994	0.028
Mof_H 	H 	0.3517	0.1885	0.1752	0.015
Mof_C 	C 	0.3595	0.1435	0.2524	-0.11
Mof_H 	H 	0.4053	0.1448	0.2638	0.063
Mof_C 	C 	0.3232	0.1154	0.2885	0.047
Mof_H 	H 	0.3447	0.0979	0.324	0.019
Mof_Cd	Cd	0.80217	0.6181	0.58716	0.432
Mof_Cd	Cd	0.68348	0.5823	0.3439	0.442
Mof_N 	N 	0.7345	0.6717	0.6297	-0.152
Mof_N 	N 	0.8663	0.6791	0.6357	-0.099
Mof_N 	N 	0.8379	0.5728	0.6856	-0.153
Mof_N 	N 	0.7376	0.5509	0.5865	-0.095
Mof_N 	N 	0.759	0.5254	0.3901	-0.099
Mof_N 	N 	0.6585	0.5094	0.2883	-0.151
Mof_C 	C 	0.6697	0.6673	0.6254	0.082
Mof_H 	H 	0.6494	0.6404	0.6058	0.009
Mof_C 	C 	0.6312	0.7007	0.6489	-0.138
Mof_H 	H 	0.5858	0.6966	0.6456	0.075
Mof_C 	C 	0.6627	0.7414	0.6781	0.062
Mof_H 	H 	0.6379	0.7651	0.693	0.009
Mof_C 	C 	0.7284	0.7458	0.6844	-0.135
Mof_H 	H 	0.7497	0.7718	0.7054	0.09
Mof_C 	C 	0.7646	0.7109	0.659	0.073
Mof_C 	C 	0.836	0.7137	0.6619	0.072
Mof_C 	C 	0.8828	0.7478	0.6875	-0.133
Mof_H 	H 	0.8749	0.7755	0.7088	0.092
Mof_C 	C 	0.9427	0.7321	0.6749	0.094
Mof_H 	H 	0.9834	0.747	0.6853	-0
Mof_N 	N 	0.9295	0.6902	0.6441	-0.17
Mof_H 	H 	0.9592	0.6727	0.6315	0.146
Mof_C 	C 	0.8871	0.5834	0.7338	0.099
Mof_H 	H 	0.907	0.6126	0.7324	0.012
Mof_C 	C 	0.9109	0.5545	0.7857	-0.169
Mof_H 	H 	0.9469	0.5632	0.8173	0.108
Mof_C 	C 	0.8803	0.5127	0.7896	0.085
Mof_H 	H 	0.8938	0.4928	0.8252	0.008
Mof_C 	C 	0.8293	0.4999	0.7409	-0.15
Mof_H 	H 	0.8089	0.4708	0.7422	0.087
Mof_C 	C 	0.8089	0.5306	0.6902	0.078
Mof_C 	C 	0.7542	0.5192	0.6353	0.078
Mof_C 	C 	0.7152	0.4799	0.6242	-0.159
Mof_H 	H 	0.7168	0.453	0.6501	0.092
Mof_C 	C 	0.6742	0.489	0.5673	0.125
Mof_H 	H 	0.6412	0.469	0.5469	-0.004
Mof_N 	N 	0.6877	0.5306	0.5447	-0.182
Mof_H 	H 	0.6677	0.5429	0.5085	0.162
Mof_C 	C 	0.7314	0.6559	0.4435	0.324
Mof_C 	C 	0.741	0.7047	0.4728	-0.11
Mof_C 	C 	0.8051	0.7241	0.4847	0.044
Mof_C 	C 	0.8617	0.7002	0.4696	-0.075
Mof_H 	H 	0.8568	0.6704	0.4507	0.068
Mof_C 	C 	0.9234	0.7205	0.4826	-0.026
Mof_H 	H 	0.9597	0.7043	0.4725	0.038
Mof_C 	C 	0.9319	0.7642	0.5103	-0.019
Mof_H 	H 	0.974	0.7773	0.5188	0.033
Mof_C 	C 	0.8794	0.7889	0.5256	-0.083
Mof_H 	H 	0.8866	0.8186	0.5445	0.072
Mof_C 	C 	0.6858	0.7295	0.4865	0.054
Mof_C 	C 	0.9406	0.5795	0.5576	0.32
Mof_C 	C 	0.9725	0.5382	0.5278	-0.108
Mof_C 	C 	0.9779	0.4954	0.5609	0.04
Mof_C 	C 	0.9539	0.4881	0.6227	-0.077
Mof_H 	H 	0.9357	0.5132	0.6423	0.069
Mof_C 	C 	0.9576	0.4453	0.6525	-0.032
Mof_H 	H 	0.9417	0.4411	0.6919	0.042
Mof_C 	C 	0.9857	0.4076	0.6229	-0.02
Mof_H 	H 	0.9886	0.3784	0.6435	0.031
Mof_C 	C 	0.0086	0.4125	0.5655	-0.087
Mof_H 	H 	0.0268	0.3866	0.5474	0.066
Mof_C 	C 	0.9944	0.5444	0.4675	0.048
Mof_C 	C 	0.5626	0.5507	0.4034	0.295
Mof_C 	C 	0.5298	0.5253	0.4536	-0.101
Mof_C 	C 	0.5266	0.4752	0.4507	0.038
Mof_C 	C 	0.5543	0.4483	0.4034	-0.082
Mof_H 	H 	0.5752	0.4639	0.3729	0.073
Mof_C 	C 	0.5511	0.4008	0.4017	-0.028
Mof_H 	H 	0.5697	0.3841	0.3705	0.037
Mof_C 	C 	0.5195	0.3772	0.4472	-0.026
Mof_H 	H 	0.5155	0.3447	0.4445	0.033
Mof_C 	C 	0.4946	0.4001	0.4949	-0.08
Mof_H 	H 	0.4762	0.3829	0.5258	0.066
Mof_C 	C 	0.5042	0.5495	0.5009	0.045
Mof_N 	N 	0.8086	0.5221	0.4425	-0.184
Mof_H 	H 	0.8262	0.5457	0.4652	0.159
Mof_C 	C 	0.8262	0.4787	0.4542	0.131
Mof_H 	H 	0.8596	0.4685	0.4876	-0.005
Mof_C 	C 	0.7885	0.4507	0.4102	-0.161
Mof_H 	H 	0.7901	0.4182	0.4071	0.089
Mof_C 	C 	0.7469	0.4812	0.3707	0.079
Mof_C 	C 	0.6931	0.4725	0.3132	0.076
Mof_C 	C 	0.6803	0.4274	0.2909	-0.137
Mof_H 	H 	0.7052	0.4022	0.3102	0.078
Mof_C 	C 	0.63	0.421	0.2395	0.059
Mof_H 	H 	0.6191	0.3909	0.2237	0.009
Mof_C 	C 	0.5941	0.4598	0.2101	-0.134
Mof_H 	H 	0.561	0.4564	0.1734	0.088
Mof_C 	C 	0.6102	0.503	0.238	0.082
Mof_H 	H 	0.5859	0.5289	0.2205	0.032
Mof_O 	O 	0.749	0.62116	0.4796	-0.283
Mof_O 	O 	0.7038	0.6538	0.3847	-0.288
Mof_O 	O 	0.8787	0.58368	0.5367	-0.288
Mof_O 	O 	0.9732	0.6052	0.5981	-0.276
Mof_O 	O 	0.623	0.56141	0.4221	-0.28
Mof_O 	O 	0.5303	0.558	0.3464	-0.243
Mof_N 	N 	0.6164	0.6204	0.2539	-0.095
Mof_N 	N 	0.5496	0.629	0.2334	-0.144
Mof_H 	H 	0.5181	0.6191	0.2525	0.099
Mof_C 	C 	0.5427	0.6564	0.1768	0.079
Mof_H 	H 	0.5031	0.6672	0.1528	0.011
Mof_C 	C 	0.6052	0.6647	0.1623	-0.127
Mof_H 	H 	0.6148	0.6821	0.1268	0.072
Mof_C 	C 	0.6507	0.6425	0.2099	0.062
Mof_N 	N 	0.7548	0.6135	0.2715	-0.136
Mof_C 	C 	0.7227	0.6397	0.2184	0.055
Mof_C 	C 	0.759	0.6678	0.1824	-0.114
Mof_H 	H 	0.7375	0.6853	0.1469	0.066
Mof_C 	C 	0.8274	0.6697	0.1994	0.028
Mof_H 	H 	0.8517	0.6885	0.1752	0.015
Mof_C 	C 	0.8595	0.6435	0.2524	-0.11
Mof_H 	H 	0.9053	0.6448	0.2638	0.063
Mof_C 	C 	0.8232	0.6154	0.2885	0.047
Mof_H 	H 	0.8447	0.5979	0.324	0.019
Mof_Cd	Cd	0.69783	0.1181	0.91284	0.432
Mof_Cd	Cd	0.81652	0.0823	0.1561	0.442
Mof_N 	N 	0.7655	0.1717	0.8703	-0.152
Mof_N 	N 	0.6337	0.1791	0.8643	-0.099
Mof_N 	N 	0.6621	0.0728	0.8144	-0.153
Mof_N 	N 	0.7624	0.0509	0.9135	-0.095
Mof_N 	N 	0.741	0.0254	0.1099	-0.098
Mof_N 	N 	0.8415	0.0094	0.2117	-0.151
Mof_C 	C 	0.8303	0.1673	0.8746	0.082
Mof_H 	H 	0.8506	0.1404	0.8942	0.009
Mof_C 	C 	0.8688	0.2007	0.8511	-0.138
Mof_H 	H 	0.9142	0.1966	0.8544	0.075
Mof_C 	C 	0.8373	0.2414	0.8219	0.062
Mof_H 	H 	0.8621	0.2651	0.807	0.009
Mof_C 	C 	0.7716	0.2458	0.8156	-0.135
Mof_H 	H 	0.7503	0.2718	0.7946	0.09
Mof_C 	C 	0.7354	0.2109	0.841	0.073
Mof_C 	C 	0.664	0.2137	0.8381	0.072
Mof_C 	C 	0.6172	0.2478	0.8125	-0.133
Mof_H 	H 	0.6251	0.2755	0.7912	0.092
Mof_C 	C 	0.5573	0.2321	0.8251	0.094
Mof_H 	H 	0.5166	0.247	0.8147	-0
Mof_N 	N 	0.5705	0.1902	0.8559	-0.17
Mof_H 	H 	0.5408	0.1727	0.8685	0.146
Mof_C 	C 	0.6129	0.0834	0.7662	0.099
Mof_H 	H 	0.593	0.1126	0.7676	0.012
Mof_C 	C 	0.5891	0.0545	0.7143	-0.167
Mof_H 	H 	0.5531	0.0632	0.6827	0.107
Mof_C 	C 	0.6197	0.0127	0.7104	0.083
Mof_H 	H 	0.6062	0.9928	0.6748	0.009
Mof_C 	C 	0.6707	0.9999	0.7591	-0.148
Mof_H 	H 	0.6911	0.9708	0.7578	0.087
Mof_C 	C 	0.6911	0.0306	0.8098	0.077
Mof_C 	C 	0.7458	0.0192	0.8647	0.078
Mof_C 	C 	0.7848	0.9799	0.8758	-0.158
Mof_H 	H 	0.7832	0.953	0.8499	0.092
Mof_C 	C 	0.8258	0.989	0.9327	0.125
Mof_H 	H 	0.8588	0.969	0.9531	-0.004
Mof_N 	N 	0.8123	0.0306	0.9553	-0.182
Mof_H 	H 	0.8323	0.0429	0.9915	0.161
Mof_C 	C 	0.7686	0.1559	0.0565	0.325
Mof_C 	C 	0.759	0.2047	0.0272	-0.111
Mof_C 	C 	0.6949	0.2241	0.0153	0.046
Mof_C 	C 	0.6383	0.2002	0.0304	-0.076
Mof_H 	H 	0.6432	0.1704	0.0493	0.068
Mof_C 	C 	0.5766	0.2205	0.0174	-0.024
Mof_H 	H 	0.5403	0.2043	0.0275	0.037
Mof_C 	C 	0.5681	0.2642	0.9897	-0.021
Mof_H 	H 	0.526	0.2773	0.9812	0.033
Mof_C 	C 	0.6206	0.2889	0.9744	-0.081
Mof_H 	H 	0.6134	0.3186	0.9555	0.072
Mof_C 	C 	0.8142	0.2295	0.0135	0.056
Mof_C 	C 	0.5594	0.0795	0.9424	0.32
Mof_C 	C 	0.5275	0.0382	0.9722	-0.109
Mof_C 	C 	0.5221	0.9954	0.9391	0.04
Mof_C 	C 	0.5461	0.9881	0.8773	-0.076
Mof_H 	H 	0.5643	0.0132	0.8577	0.069
Mof_C 	C 	0.5424	0.9453	0.8475	-0.033
Mof_H 	H 	0.5583	0.9411	0.8081	0.042
Mof_C 	C 	0.5143	0.9076	0.8771	-0.019
Mof_H 	H 	0.5114	0.8784	0.8565	0.031
Mof_C 	C 	0.4914	0.9125	0.9345	-0.087
Mof_H 	H 	0.4732	0.8866	0.9526	0.067
Mof_C 	C 	0.5056	0.0444	0.0325	0.049
Mof_C 	C 	0.9374	0.0507	0.0966	0.295
Mof_C 	C 	0.9702	0.0253	0.0464	-0.1
Mof_C 	C 	0.9734	0.9752	0.0493	0.038
Mof_C 	C 	0.9457	0.9483	0.0966	-0.081
Mof_H 	H 	0.9248	0.9639	0.1271	0.072
Mof_C 	C 	0.9489	0.9008	0.0983	-0.03
Mof_H 	H 	0.9303	0.8841	0.1295	0.038
Mof_C 	C 	0.9805	0.8772	0.0528	-0.024
Mof_H 	H 	0.9845	0.8447	0.0555	0.033
Mof_C 	C 	0.0054	0.9001	0.0051	-0.083
Mof_H 	H 	0.0238	0.8829	0.9742	0.067
Mof_C 	C 	0.9958	0.0495	0.9991	0.045
Mof_N 	N 	0.6914	0.0221	0.0575	-0.183
Mof_H 	H 	0.6738	0.0457	0.0348	0.159
Mof_C 	C 	0.6738	0.9787	0.0458	0.13
Mof_H 	H 	0.6404	0.9685	0.0124	-0.005
Mof_C 	C 	0.7115	0.9507	0.0898	-0.16
Mof_H 	H 	0.7099	0.9182	0.0929	0.088
Mof_C 	C 	0.7531	0.9812	0.1293	0.079
Mof_C 	C 	0.8069	0.9725	0.1868	0.076
Mof_C 	C 	0.8197	0.9274	0.2091	-0.138
Mof_H 	H 	0.7948	0.9022	0.1898	0.078
Mof_C 	C 	0.87	0.921	0.2605	0.059
Mof_H 	H 	0.8809	0.8909	0.2763	0.009
Mof_C 	C 	0.9059	0.9598	0.2899	-0.135
Mof_H 	H 	0.939	0.9564	0.3266	0.089
Mof_C 	C 	0.8898	0.003	0.262	0.082
Mof_H 	H 	0.9141	0.0289	0.2795	0.032
Mof_O 	O 	0.751	0.12116	0.0204	-0.283
Mof_O 	O 	0.7962	0.1538	0.1153	-0.288
Mof_O 	O 	0.6213	0.08368	0.9633	-0.289
Mof_O 	O 	0.5268	0.1052	0.9019	-0.276
Mof_O 	O 	0.877	0.06141	0.0779	-0.279
Mof_O 	O 	0.9697	0.058	0.1536	-0.243
Mof_N 	N 	0.8836	0.1204	0.2461	-0.095
Mof_N 	N 	0.9504	0.129	0.2666	-0.144
Mof_H 	H 	0.9819	0.1191	0.2475	0.099
Mof_C 	C 	0.9573	0.1564	0.3232	0.079
Mof_H 	H 	0.9969	0.1672	0.3472	0.011
Mof_C 	C 	0.8948	0.1647	0.3377	-0.127
Mof_H 	H 	0.8852	0.1821	0.3732	0.072
Mof_C 	C 	0.8493	0.1425	0.2901	0.062
Mof_N 	N 	0.7452	0.1135	0.2285	-0.136
Mof_C 	C 	0.7773	0.1397	0.2816	0.055
Mof_C 	C 	0.741	0.1678	0.3176	-0.114
Mof_H 	H 	0.7625	0.1853	0.3531	0.066
Mof_C 	C 	0.6726	0.1697	0.3006	0.028
Mof_H 	H 	0.6483	0.1885	0.3248	0.015
Mof_C 	C 	0.6405	0.1435	0.2476	-0.11
Mof_H 	H 	0.5947	0.1448	0.2362	0.063
Mof_C 	C 	0.6768	0.1154	0.2115	0.047
Mof_H 	H 	0.6553	0.0979	0.176	0.019
Mof_Cd	Cd	0.19783	0.6181	0.91284	0.432
Mof_Cd	Cd	0.31652	0.5823	0.1561	0.442
Mof_N 	N 	0.2655	0.6717	0.8703	-0.152
Mof_N 	N 	0.1337	0.6791	0.8643	-0.099
Mof_N 	N 	0.1621	0.5728	0.8144	-0.153
Mof_N 	N 	0.2624	0.5509	0.9135	-0.095
Mof_N 	N 	0.241	0.5254	0.1099	-0.099
Mof_N 	N 	0.3415	0.5094	0.2117	-0.151
Mof_C 	C 	0.3303	0.6673	0.8746	0.082
Mof_H 	H 	0.3506	0.6404	0.8942	0.009
Mof_C 	C 	0.3688	0.7007	0.8511	-0.138
Mof_H 	H 	0.4142	0.6966	0.8544	0.075
Mof_C 	C 	0.3373	0.7414	0.8219	0.062
Mof_H 	H 	0.3621	0.7651	0.807	0.009
Mof_C 	C 	0.2716	0.7458	0.8156	-0.135
Mof_H 	H 	0.2503	0.7718	0.7946	0.09
Mof_C 	C 	0.2354	0.7109	0.841	0.073
Mof_C 	C 	0.164	0.7137	0.8381	0.072
Mof_C 	C 	0.1172	0.7478	0.8125	-0.133
Mof_H 	H 	0.1251	0.7755	0.7912	0.092
Mof_C 	C 	0.0573	0.7321	0.8251	0.094
Mof_H 	H 	0.0166	0.747	0.8147	-0
Mof_N 	N 	0.0705	0.6902	0.8559	-0.17
Mof_H 	H 	0.0408	0.6727	0.8685	0.146
Mof_C 	C 	0.1129	0.5834	0.7662	0.099
Mof_H 	H 	0.093	0.6126	0.7676	0.012
Mof_C 	C 	0.0891	0.5545	0.7143	-0.169
Mof_H 	H 	0.0531	0.5632	0.6827	0.108
Mof_C 	C 	0.1197	0.5127	0.7104	0.085
Mof_H 	H 	0.1062	0.4928	0.6748	0.008
Mof_C 	C 	0.1707	0.4999	0.7591	-0.15
Mof_H 	H 	0.1911	0.4708	0.7578	0.087
Mof_C 	C 	0.1911	0.5306	0.8098	0.078
Mof_C 	C 	0.2458	0.5192	0.8647	0.078
Mof_C 	C 	0.2848	0.4799	0.8758	-0.159
Mof_H 	H 	0.2832	0.453	0.8499	0.092
Mof_C 	C 	0.3258	0.489	0.9327	0.125
Mof_H 	H 	0.3588	0.469	0.9531	-0.004
Mof_N 	N 	0.3123	0.5306	0.9553	-0.182
Mof_H 	H 	0.3323	0.5429	0.9915	0.162
Mof_C 	C 	0.2686	0.6559	0.0565	0.324
Mof_C 	C 	0.259	0.7047	0.0272	-0.109
Mof_C 	C 	0.1949	0.7241	0.0153	0.042
Mof_C 	C 	0.1383	0.7002	0.0304	-0.073
Mof_H 	H 	0.1432	0.6704	0.0493	0.067
Mof_C 	C 	0.0766	0.7205	0.0174	-0.029
Mof_H 	H 	0.0403	0.7043	0.0275	0.039
Mof_C 	C 	0.0681	0.7642	0.9897	-0.016
Mof_H 	H 	0.026	0.7773	0.9812	0.032
Mof_C 	C 	0.1206	0.7889	0.9744	-0.084
Mof_H 	H 	0.1134	0.8186	0.9555	0.073
Mof_C 	C 	0.3142	0.7295	0.0135	0.052
Mof_C 	C 	0.0594	0.5795	0.9424	0.32
Mof_C 	C 	0.0275	0.5382	0.9722	-0.107
Mof_C 	C 	0.0221	0.4954	0.9391	0.04
Mof_C 	C 	0.0461	0.4881	0.8773	-0.077
Mof_H 	H 	0.0643	0.5132	0.8577	0.069
Mof_C 	C 	0.0424	0.4453	0.8475	-0.032
Mof_H 	H 	0.0583	0.4411	0.8081	0.042
Mof_C 	C 	0.0143	0.4076	0.8771	-0.02
Mof_H 	H 	0.0114	0.3784	0.8565	0.031
Mof_C 	C 	0.9914	0.4125	0.9345	-0.087
Mof_H 	H 	0.9732	0.3866	0.9526	0.066
Mof_C 	C 	0.0056	0.5444	0.0325	0.048
Mof_C 	C 	0.4374	0.5507	0.0966	0.295
Mof_C 	C 	0.4702	0.5253	0.0464	-0.101
Mof_C 	C 	0.4734	0.4752	0.0493	0.038
Mof_C 	C 	0.4457	0.4483	0.0966	-0.082
Mof_H 	H 	0.4248	0.4639	0.1271	0.073
Mof_C 	C 	0.4489	0.4008	0.0983	-0.028
Mof_H 	H 	0.4303	0.3841	0.1295	0.037
Mof_C 	C 	0.4805	0.3772	0.0528	-0.026
Mof_H 	H 	0.4845	0.3447	0.0555	0.033
Mof_C 	C 	0.5054	0.4001	0.0051	-0.08
Mof_H 	H 	0.5238	0.3829	0.9742	0.065
Mof_C 	C 	0.4958	0.5495	0.9991	0.045
Mof_N 	N 	0.1914	0.5221	0.0575	-0.184
Mof_H 	H 	0.1738	0.5457	0.0348	0.159
Mof_C 	C 	0.1738	0.4787	0.0458	0.13
Mof_H 	H 	0.1404	0.4685	0.0124	-0.005
Mof_C 	C 	0.2115	0.4507	0.0898	-0.161
Mof_H 	H 	0.2099	0.4182	0.0929	0.089
Mof_C 	C 	0.2531	0.4812	0.1293	0.079
Mof_C 	C 	0.3069	0.4725	0.1868	0.076
Mof_C 	C 	0.3197	0.4274	0.2091	-0.137
Mof_H 	H 	0.2948	0.4022	0.1898	0.078
Mof_C 	C 	0.37	0.421	0.2605	0.059
Mof_H 	H 	0.3809	0.3909	0.2763	0.009
Mof_C 	C 	0.4059	0.4598	0.2899	-0.134
Mof_H 	H 	0.439	0.4564	0.3266	0.088
Mof_C 	C 	0.3898	0.503	0.262	0.082
Mof_H 	H 	0.4141	0.5289	0.2795	0.032
Mof_O 	O 	0.251	0.62116	0.0204	-0.283
Mof_O 	O 	0.2962	0.6538	0.1153	-0.287
Mof_O 	O 	0.1213	0.58368	0.9633	-0.288
Mof_O 	O 	0.0268	0.6052	0.9019	-0.276
Mof_O 	O 	0.377	0.56141	0.0779	-0.28
Mof_O 	O 	0.4697	0.558	0.1536	-0.243
Mof_N 	N 	0.3836	0.6204	0.2461	-0.095
Mof_N 	N 	0.4504	0.629	0.2666	-0.144
Mof_H 	H 	0.4819	0.6191	0.2475	0.099
Mof_C 	C 	0.4573	0.6564	0.3232	0.079
Mof_H 	H 	0.4969	0.6672	0.3472	0.011
Mof_C 	C 	0.3948	0.6647	0.3377	-0.127
Mof_H 	H 	0.3852	0.6821	0.3732	0.072
Mof_C 	C 	0.3493	0.6425	0.2901	0.062
Mof_N 	N 	0.2452	0.6135	0.2285	-0.136
Mof_C 	C 	0.2773	0.6397	0.2816	0.055
Mof_C 	C 	0.241	0.6678	0.3176	-0.114
Mof_H 	H 	0.2625	0.6853	0.3531	0.066
Mof_C 	C 	0.1726	0.6697	0.3006	0.028
Mof_H 	H 	0.1483	0.6885	0.3248	0.015
Mof_C 	C 	0.1405	0.6435	0.2476	-0.11
Mof_H 	H 	0.0947	0.6448	0.2362	0.063
Mof_C 	C 	0.1768	0.6154	0.2115	0.047
Mof_H 	H 	0.1553	0.5979	0.176	0.019
_end
