# CIF file generated by openbabel 3.1.0, see https://openbabel.org
data_I
_chemical_name_common 'image0'
_cell_length_a 13.4578
_cell_length_b 13.4578
_cell_length_c 27.6928
_cell_angle_alpha 90
_cell_angle_beta 90
_cell_angle_gamma 120
_space_group_name_H-M_alt 'P 1'
_space_group_name_Hall 'P 1'
loop_
    _symmetry_equiv_pos_as_xyz
    x,y,z
loop_
    _atom_site_label
    _atom_site_type_symbol
    _atom_site_fract_x
    _atom_site_fract_y
    _atom_site_fract_z
    _atom_site_occupancy
    V1       V        0.29268    0.85809    0.52647    1.000
    P1       P        0.16220    0.97502    0.58422    1.000
    P2       P        0.12733    0.63089    0.46359    1.000
    O1       O        0.15100    0.71840    0.50314    1.000
    O2       O        0.16790    0.54780    0.47575    1.000
    O3       O        0.00080    0.57040    0.44996    1.000
    O4       O        0.18720    0.88000    0.56994    1.000
    O5       O        0.32450    0.77220    0.57655    1.000
    O6       O        0.14250    0.07730    0.70448    1.000
    O7       O        0.06950    0.92830    0.62252    1.000
    O8       O        0.13670    0.02860    0.54065    1.000
    H1       H        0.26000    0.06000    0.60480    1.000
    H2       H        0.18700    0.68200    0.42490    1.000
    V2       V        0.14191    0.43459    0.52647    1.000
    P3       P        0.02498    0.18718    0.58422    1.000
    P4       P        0.36911    0.49644    0.46359    1.000
    O9       O        0.28160    0.43260    0.50314    1.000
    O10      O        0.45220    0.62010    0.47575    1.000
    O11      O        0.42960    0.43040    0.44996    1.000
    O12      O        0.12000    0.30720    0.56994    1.000
    O13      O        0.22780    0.55230    0.57655    1.000
    O14      O        0.92270    0.06520    0.70448    1.000
    O15      O        0.07170    0.14120    0.62252    1.000
    O16      O        0.97140    0.10810    0.54065    1.000
    H3       H        0.94000    0.20000    0.60480    1.000
    H4       H        0.31800    0.50500    0.42490    1.000
    V3       V        0.56541    0.70732    0.52647    1.000
    P5       P        0.81282    0.83780    0.58422    1.000
    P6       P        0.50356    0.87267    0.46359    1.000
    O17      O        0.56740    0.84900    0.50314    1.000
    O18      O        0.37990    0.83210    0.47575    1.000
    O19      O        0.56960    0.99920    0.44996    1.000
    O20      O        0.69280    0.81280    0.56994    1.000
    O21      O        0.44770    0.67550    0.57655    1.000
    O22      O        0.93480    0.85750    0.70448    1.000
    O23      O        0.85880    0.93050    0.62252    1.000
    O24      O        0.89190    0.86330    0.54065    1.000
    H5       H        0.80000    0.74000    0.60480    1.000
    H6       H        0.49500    0.81300    0.42490    1.000
    V4       V        0.70732    0.14191    0.02647    1.000
    P7       P        0.83780    0.02498    0.08422    1.000
    P8       P        0.87267    0.36911    0.96359    1.000
    O25      O        0.84900    0.28160    0.00314    1.000
    O26      O        0.83210    0.45220    0.97575    1.000
    O27      O        0.99920    0.42960    0.94996    1.000
    O28      O        0.81280    0.12000    0.06994    1.000
    O29      O        0.67550    0.22780    0.07655    1.000
    O30      O        0.85750    0.92270    0.20448    1.000
    O31      O        0.93050    0.07170    0.12252    1.000
    O32      O        0.86330    0.97140    0.04065    1.000
    H7       H        0.74000    0.94000    0.10480    1.000
    H8       H        0.81300    0.31800    0.92490    1.000
    V5       V        0.85809    0.56541    0.02647    1.000
    P9       P        0.97502    0.81282    0.08422    1.000
    P10      P        0.63089    0.50356    0.96359    1.000
    O33      O        0.71840    0.56740    0.00314    1.000
    O34      O        0.54780    0.37990    0.97575    1.000
    O35      O        0.57040    0.56960    0.94996    1.000
    O36      O        0.88000    0.69280    0.06994    1.000
    O37      O        0.77220    0.44770    0.07655    1.000
    O38      O        0.07730    0.93480    0.20448    1.000
    O39      O        0.92830    0.85880    0.12252    1.000
    O40      O        0.02860    0.89190    0.04065    1.000
    H9       H        0.06000    0.80000    0.10480    1.000
    H10      H        0.68200    0.49500    0.92490    1.000
    V6       V        0.43459    0.29268    0.02647    1.000
    P11      P        0.18718    0.16220    0.08422    1.000
    P12      P        0.49644    0.12733    0.96359    1.000
    O41      O        0.43260    0.15100    0.00314    1.000
    O42      O        0.62010    0.16790    0.97575    1.000
    O43      O        0.43040    0.00080    0.94996    1.000
    O44      O        0.30720    0.18720    0.06994    1.000
    O45      O        0.55230    0.32450    0.07655    1.000
    O46      O        0.06520    0.14250    0.20448    1.000
    O47      O        0.14120    0.06950    0.12252    1.000
    O48      O        0.10810    0.13670    0.04065    1.000
    H11      H        0.20000    0.26000    0.10480    1.000
    H12      H        0.50500    0.18700    0.92490    1.000
    V7       V        0.70732    0.14191    0.47353    1.000
    P13      P        0.83780    0.02498    0.41578    1.000
    P14      P        0.87267    0.36911    0.53641    1.000
    O49      O        0.84900    0.28160    0.49686    1.000
    O50      O        0.83210    0.45220    0.52425    1.000
    O51      O        0.99920    0.42960    0.55004    1.000
    O52      O        0.81280    0.12000    0.43006    1.000
    O53      O        0.67550    0.22780    0.42345    1.000
    O54      O        0.85750    0.92270    0.29552    1.000
    O55      O        0.93050    0.07170    0.37748    1.000
    O56      O        0.86330    0.97140    0.45935    1.000
    H13      H        0.74000    0.94000    0.39520    1.000
    H14      H        0.81300    0.31800    0.57510    1.000
    V8       V        0.85809    0.56541    0.47353    1.000
    P15      P        0.97502    0.81282    0.41578    1.000
    P16      P        0.63089    0.50356    0.53641    1.000
    O57      O        0.71840    0.56740    0.49686    1.000
    O58      O        0.54780    0.37990    0.52425    1.000
    O59      O        0.57040    0.56960    0.55004    1.000
    O60      O        0.88000    0.69280    0.43006    1.000
    O61      O        0.77220    0.44770    0.42345    1.000
    O62      O        0.07730    0.93480    0.29552    1.000
    O63      O        0.92830    0.85880    0.37748    1.000
    O64      O        0.02860    0.89190    0.45935    1.000
    H15      H        0.06000    0.80000    0.39520    1.000
    H16      H        0.68200    0.49500    0.57510    1.000
    V9       V        0.43459    0.29268    0.47353    1.000
    P17      P        0.18718    0.16220    0.41578    1.000
    P18      P        0.49644    0.12733    0.53641    1.000
    O65      O        0.43260    0.15100    0.49686    1.000
    O66      O        0.62010    0.16790    0.52425    1.000
    O67      O        0.43040    0.00080    0.55004    1.000
    O68      O        0.30720    0.18720    0.43006    1.000
    O69      O        0.55230    0.32450    0.42345    1.000
    O70      O        0.06520    0.14250    0.29552    1.000
    O71      O        0.14120    0.06950    0.37748    1.000
    O72      O        0.10810    0.13670    0.45935    1.000
    H17      H        0.20000    0.26000    0.39520    1.000
    H18      H        0.50500    0.18700    0.57510    1.000
    V10      V        0.29268    0.85809    0.97353    1.000
    P19      P        0.16220    0.97502    0.91578    1.000
    P20      P        0.12733    0.63089    0.03641    1.000
    O73      O        0.15100    0.71840    0.99686    1.000
    O74      O        0.16790    0.54780    0.02425    1.000
    O75      O        0.00080    0.57040    0.05004    1.000
    O76      O        0.18720    0.88000    0.93006    1.000
    O77      O        0.32450    0.77220    0.92345    1.000
    O78      O        0.14250    0.07730    0.79552    1.000
    O79      O        0.06950    0.92830    0.87748    1.000
    O80      O        0.13670    0.02860    0.95935    1.000
    H19      H        0.26000    0.06000    0.89520    1.000
    H20      H        0.18700    0.68200    0.07510    1.000
    V11      V        0.14191    0.43459    0.97353    1.000
    P21      P        0.02498    0.18718    0.91578    1.000
    P22      P        0.36911    0.49644    0.03641    1.000
    O81      O        0.28160    0.43260    0.99686    1.000
    O82      O        0.45220    0.62010    0.02425    1.000
    O83      O        0.42960    0.43040    0.05004    1.000
    O84      O        0.12000    0.30720    0.93006    1.000
    O85      O        0.22780    0.55230    0.92345    1.000
    O86      O        0.92270    0.06520    0.79552    1.000
    O87      O        0.07170    0.14120    0.87748    1.000
    O88      O        0.97140    0.10810    0.95935    1.000
    H21      H        0.94000    0.20000    0.89520    1.000
    H22      H        0.31800    0.50500    0.07510    1.000
    V12      V        0.56541    0.70732    0.97353    1.000
    P23      P        0.81282    0.83780    0.91578    1.000
    P24      P        0.50356    0.87267    0.03641    1.000
    O89      O        0.56740    0.84900    0.99686    1.000
    O90      O        0.37990    0.83210    0.02425    1.000
    O91      O        0.56960    0.99920    0.05004    1.000
    O92      O        0.69280    0.81280    0.93006    1.000
    O93      O        0.44770    0.67550    0.92345    1.000
    O94      O        0.93480    0.85750    0.79552    1.000
    O95      O        0.85880    0.93050    0.87748    1.000
    O96      O        0.89190    0.86330    0.95935    1.000
    H23      H        0.80000    0.74000    0.89520    1.000
    H24      H        0.49500    0.81300    0.07510    1.000
    V13      V        0.00000    0.00000    0.50000    1.000
    V14      V        0.00000    0.00000    0.00000    1.000
    V15      V        0.00000    0.00000    0.66396    1.000
    V16      V        0.00000    0.00000    0.16396    1.000
    V17      V        0.00000    0.00000    0.33604    1.000
    V18      V        0.00000    0.00000    0.83604    1.000
    P25      P        0.33333    0.66667    0.58968    1.000
    H25      H        0.33333    0.66667    0.63670    1.000
    P26      P        0.66667    0.33333    0.08968    1.000
    H26      H        0.66667    0.33333    0.13670    1.000
    P27      P        0.66667    0.33333    0.41032    1.000
    H27      H        0.66667    0.33333    0.36330    1.000
    P28      P        0.33333    0.66667    0.91032    1.000
    H28      H        0.33333    0.66667    0.86330    1.000
    P29      P        0.19134    0.06211    0.75000    1.000
    O97      O        0.31960    0.14350    0.75000    1.000
    H29      H        0.33270    0.20990    0.75000    1.000
    H30      H        0.17800    0.95910    0.75000    1.000
    O98      O        0.20000    0.95500    0.75000    1.000
    H31      H        0.13540    0.89840    0.75000    1.000
    P30      P        0.93789    0.12923    0.75000    1.000
    O99      O        0.85650    0.17610    0.75000    1.000
    H32      H        0.79010    0.12280    0.75000    1.000
    H33      H        0.04090    0.21890    0.75000    1.000
    O100     O        0.04500    0.24500    0.75000    1.000
    H34      H        0.10160    0.23700    0.75000    1.000
    P31      P        0.87077    0.80866    0.75000    1.000
    O101     O        0.82390    0.68040    0.75000    1.000
    H35      H        0.87720    0.66730    0.75000    1.000
    H36      H        0.78110    0.82200    0.75000    1.000
    O102     O        0.75500    0.80000    0.75000    1.000
    H37      H        0.76300    0.86460    0.75000    1.000
    P32      P        0.80866    0.93789    0.25000    1.000
    O103     O        0.68040    0.85650    0.25000    1.000
    H38      H        0.66730    0.79010    0.25000    1.000
    H39      H        0.82200    0.04090    0.25000    1.000
    O104     O        0.80000    0.04500    0.25000    1.000
    H40      H        0.86460    0.10160    0.25000    1.000
    P33      P        0.06211    0.87077    0.25000    1.000
    O105     O        0.14350    0.82390    0.25000    1.000
    H41      H        0.20990    0.87720    0.25000    1.000
    H42      H        0.95910    0.78110    0.25000    1.000
    O106     O        0.95500    0.75500    0.25000    1.000
    H43      H        0.89840    0.76300    0.25000    1.000
    P34      P        0.12923    0.19134    0.25000    1.000
    O107     O        0.17610    0.31960    0.25000    1.000
    H44      H        0.12280    0.33270    0.25000    1.000
    H45      H        0.21890    0.17800    0.25000    1.000
    O108     O        0.24500    0.20000    0.25000    1.000
    H46      H        0.23700    0.13540    0.25000    1.000
