# CIF file generated by openbabel 3.1.0, see https://openbabel.org
data_I
_chemical_name_common 'image0'
_cell_length_a 9.6164
_cell_length_b 18.5742
_cell_length_c 18.0889
_cell_angle_alpha 90
_cell_angle_beta 91.28
_cell_angle_gamma 90
_space_group_name_H-M_alt 'P 1'
_space_group_name_Hall 'P 1'
loop_
    _symmetry_equiv_pos_as_xyz
    x,y,z
loop_
    _atom_site_label
    _atom_site_type_symbol
    _atom_site_fract_x
    _atom_site_fract_y
    _atom_site_fract_z
    _atom_site_occupancy
    U1       U        0.46957    0.19820    0.70820    1.000
    U2       U        0.97216    0.26479    0.98971    1.000
    U3       U        0.25264    0.46269    0.87480    1.000
    P1       P        0.83580    0.15400    0.66400    1.000
    P2       P        0.78140    0.16890    0.82910    1.000
    P3       P        0.26780    0.26520    0.86800    1.000
    P4       P        0.34320    0.33160    0.01270    1.000
    C1       C        0.89370    0.19130    0.75300    1.000
    C2       C        0.90300    0.27600    0.74710    1.000
    H1       H        0.96160    0.28880    0.70690    1.000
    H2       H        0.94150    0.29510    0.79240    1.000
    H3       H        0.81170    0.29550    0.73850    1.000
    C3       C        0.39190    0.26320    0.94570    1.000
    C4       C        0.39000    0.18580    0.98060    1.000
    H4       H        0.45460    0.18360    0.02160    1.000
    H5       H        0.29790    0.17530    0.99740    1.000
    H6       H        0.41530    0.15100    0.94400    1.000
    O1       O        0.33340    0.21870    0.80930    1.000
    O2       O        0.43460    0.32140    0.08110    1.000
    O3       O        0.18880    0.31860    0.02770    1.000
    O4       O        0.13230    0.23250    0.89520    1.000
    O5       O        0.84420    0.20090    0.89880    1.000
    O6       O        0.24880    0.34290    0.84460    1.000
    O7       O        0.37140    0.40530    0.97690    1.000
    O8       O        0.83620    0.07350    0.66970    1.000
    O9       O        0.78500    0.08520    0.83330    1.000
    O10      O        0.52840    0.28200    0.92060    1.000
    H7       H        0.55100    0.25400    0.88780    1.000
    O11      O        0.68900    0.18380    0.65220    1.000
    O12      O        0.63750    0.19910    0.80910    1.000
    O13      O        0.93480    0.18120    0.60640    1.000
    O14      O        0.03180    0.16450    0.76910    1.000
    H8       H        0.08600    0.18090    0.73910    1.000
    U4       U        0.53043    0.69820    0.79180    1.000
    U5       U        0.02784    0.76479    0.51029    1.000
    U6       U        0.74736    0.96269    0.62520    1.000
    P5       P        0.16420    0.65400    0.83600    1.000
    P6       P        0.21860    0.66890    0.67090    1.000
    P7       P        0.73220    0.76520    0.63200    1.000
    P8       P        0.65680    0.83160    0.48730    1.000
    C5       C        0.10630    0.69130    0.74700    1.000
    C6       C        0.09700    0.77600    0.75290    1.000
    H9       H        0.03840    0.78880    0.79310    1.000
    H10      H        0.05850    0.79510    0.70760    1.000
    H11      H        0.18830    0.79550    0.76150    1.000
    C7       C        0.60810    0.76320    0.55430    1.000
    C8       C        0.61000    0.68580    0.51940    1.000
    H12      H        0.54540    0.68360    0.47840    1.000
    H13      H        0.70210    0.67530    0.50260    1.000
    H14      H        0.58470    0.65100    0.55600    1.000
    O15      O        0.66660    0.71870    0.69070    1.000
    O16      O        0.56540    0.82140    0.41890    1.000
    O17      O        0.81120    0.81860    0.47230    1.000
    O18      O        0.86770    0.73250    0.60480    1.000
    O19      O        0.15580    0.70090    0.60120    1.000
    O20      O        0.75120    0.84290    0.65540    1.000
    O21      O        0.62860    0.90530    0.52310    1.000
    O22      O        0.16380    0.57350    0.83030    1.000
    O23      O        0.21500    0.58520    0.66670    1.000
    O24      O        0.47160    0.78200    0.57940    1.000
    H15      H        0.44900    0.75400    0.61220    1.000
    O25      O        0.31100    0.68380    0.84780    1.000
    O26      O        0.36250    0.69910    0.69090    1.000
    O27      O        0.06520    0.68120    0.89360    1.000
    O28      O        0.96820    0.66450    0.73090    1.000
    H16      H        0.91400    0.68090    0.76090    1.000
    U7       U        0.53043    0.80180    0.29180    1.000
    U8       U        0.02784    0.73521    0.01029    1.000
    U9       U        0.74736    0.53731    0.12520    1.000
    P9       P        0.16420    0.84600    0.33600    1.000
    P10      P        0.21860    0.83110    0.17090    1.000
    P11      P        0.73220    0.73480    0.13200    1.000
    P12      P        0.65680    0.66840    0.98730    1.000
    C9       C        0.10630    0.80870    0.24700    1.000
    C10      C        0.09700    0.72400    0.25290    1.000
    H17      H        0.03840    0.71120    0.29310    1.000
    H18      H        0.05850    0.70490    0.20760    1.000
    H19      H        0.18830    0.70450    0.26150    1.000
    C11      C        0.60810    0.73680    0.05430    1.000
    C12      C        0.61000    0.81420    0.01940    1.000
    H20      H        0.54540    0.81640    0.97840    1.000
    H21      H        0.70210    0.82470    0.00260    1.000
    H22      H        0.58470    0.84900    0.05600    1.000
    O29      O        0.66660    0.78130    0.19070    1.000
    O30      O        0.56540    0.67860    0.91890    1.000
    O31      O        0.81120    0.68140    0.97230    1.000
    O32      O        0.86770    0.76750    0.10480    1.000
    O33      O        0.15580    0.79910    0.10120    1.000
    O34      O        0.75120    0.65710    0.15540    1.000
    O35      O        0.62860    0.59470    0.02310    1.000
    O36      O        0.16380    0.92650    0.33030    1.000
    O37      O        0.21500    0.91480    0.16670    1.000
    O38      O        0.47160    0.71800    0.07940    1.000
    H23      H        0.44900    0.74600    0.11220    1.000
    O39      O        0.31100    0.81620    0.34780    1.000
    O40      O        0.36250    0.80090    0.19090    1.000
    O41      O        0.06520    0.81880    0.39360    1.000
    O42      O        0.96820    0.83550    0.23090    1.000
    H24      H        0.91400    0.81910    0.26090    1.000
    U10      U        0.46957    0.30180    0.20820    1.000
    U11      U        0.97216    0.23521    0.48971    1.000
    U12      U        0.25264    0.03731    0.37480    1.000
    P13      P        0.83580    0.34600    0.16400    1.000
    P14      P        0.78140    0.33110    0.32910    1.000
    P15      P        0.26780    0.23480    0.36800    1.000
    P16      P        0.34320    0.16840    0.51270    1.000
    C13      C        0.89370    0.30870    0.25300    1.000
    C14      C        0.90300    0.22400    0.24710    1.000
    H25      H        0.96160    0.21120    0.20690    1.000
    H26      H        0.94150    0.20490    0.29240    1.000
    H27      H        0.81170    0.20450    0.23850    1.000
    C15      C        0.39190    0.23680    0.44570    1.000
    C16      C        0.39000    0.31420    0.48060    1.000
    H28      H        0.45460    0.31640    0.52160    1.000
    H29      H        0.29790    0.32470    0.49740    1.000
    H30      H        0.41530    0.34900    0.44400    1.000
    O43      O        0.33340    0.28130    0.30930    1.000
    O44      O        0.43460    0.17860    0.58110    1.000
    O45      O        0.18880    0.18140    0.52770    1.000
    O46      O        0.13230    0.26750    0.39520    1.000
    O47      O        0.84420    0.29910    0.39880    1.000
    O48      O        0.24880    0.15710    0.34460    1.000
    O49      O        0.37140    0.09470    0.47690    1.000
    O50      O        0.83620    0.42650    0.16970    1.000
    O51      O        0.78500    0.41480    0.33330    1.000
    O52      O        0.52840    0.21800    0.42060    1.000
    H31      H        0.55100    0.24600    0.38780    1.000
    O53      O        0.68900    0.31620    0.15220    1.000
    O54      O        0.63750    0.30090    0.30910    1.000
    O55      O        0.93480    0.31880    0.10640    1.000
    O56      O        0.03180    0.33550    0.26910    1.000
    H32      H        0.08600    0.31910    0.23910    1.000
