# CIF file generated by openbabel 3.1.0, see https://openbabel.org
data_I
_chemical_name_common 'image0'
_cell_length_a 26.5086
_cell_length_b 26.5086
_cell_length_c 5.1903
_cell_angle_alpha 90
_cell_angle_beta 90
_cell_angle_gamma 90
_space_group_name_H-M_alt 'P 1'
_space_group_name_Hall 'P 1'
loop_
    _symmetry_equiv_pos_as_xyz
    x,y,z
loop_
    _atom_site_label
    _atom_site_type_symbol
    _atom_site_fract_x
    _atom_site_fract_y
    _atom_site_fract_z
    _atom_site_occupancy
    Zn1      Zn       0.27260    0.21425    0.92088    1.000
    O1       O        0.22163    0.25317    0.09520    1.000
    H1       H        0.20090    0.26410    0.98340    1.000
    N1       N        0.25079    0.14162    0.90400    1.000
    C1       C        0.26753    0.10427    0.04000    1.000
    H2       H        0.29350    0.10760    0.15930    1.000
    N2       N        0.24392    0.06010    0.99310    1.000
    C2       C        0.21236    0.12213    0.75050    1.000
    O2       O        0.27774    0.83342    0.36840    1.000
    C3       C        0.18351    0.14400    0.56590    1.000
    H3       H        0.18750    0.17800    0.52650    1.000
    O3       O        0.32000    0.87140    0.66900    1.000
    C4       C        0.14797    0.11521    0.43650    1.000
    C5       C        0.11790    0.13597    0.23520    1.000
    H4       H        0.12160    0.16980    0.19080    1.000
    C6       C        0.08352    0.10660    0.10600    1.000
    H5       H        0.06460    0.12020    0.97190    1.000
    C7       C        0.07710    0.05650    0.17640    1.000
    H6       H        0.05280    0.03730    0.09230    1.000
    C8       C        0.10508    0.03502    0.36390    1.000
    H7       H        0.09970    0.00130    0.40580    1.000
    C9       C        0.14240    0.06266    0.49800    1.000
    C10      C        0.17215    0.04042    0.68420    1.000
    H8       H        0.16830    0.00650    0.72540    1.000
    C11      C        0.20763    0.06968    0.80750    1.000
    C12      C        0.25733    0.01244    0.10280    1.000
    C13      C        0.28450    0.92112    0.31730    1.000
    C14      C        0.30560    0.00480    0.17100    1.000
    H9       H        0.32850    0.03130    0.15790    1.000
    C15      C        0.32170    0.95900    0.25700    1.000
    H10      H        0.35600    0.95240    0.27750    1.000
    C16      C        0.23740    0.93020    0.25000    1.000
    H11      H        0.21350    0.90460    0.26420    1.000
    C17      C        0.22280    0.97730    0.15940    1.000
    H12      H        0.18870    0.98450    0.13780    1.000
    C18      C        0.29840    0.87120    0.44030    1.000
    O4       O        0.34620    0.86740    0.50000    1.000
    C19      C        0.27400    0.01220    0.34800    1.000
    H13      H        0.27590    0.04200    0.44230    1.000
    C20      C        0.28880    0.96510    0.45900    1.000
    H14      H        0.30120    0.96400    0.62680    1.000
    C21      C        0.26550    0.92240    0.08400    1.000
    H15      H        0.26020    0.89220    0.99700    1.000
    C22      C        0.25290    0.96720    0.96500    1.000
    H16      H        0.24170    0.96730    0.79470    1.000
    Zn2      Zn       0.77260    0.71425    0.42088    1.000
    O5       O        0.72163    0.75317    0.59520    1.000
    H17      H        0.70090    0.76410    0.48340    1.000
    N3       N        0.75079    0.64162    0.40400    1.000
    C23      C        0.76753    0.60427    0.54000    1.000
    H18      H        0.79350    0.60760    0.65930    1.000
    N4       N        0.74392    0.56010    0.49310    1.000
    C24      C        0.71236    0.62213    0.25050    1.000
    O6       O        0.77774    0.33342    0.86840    1.000
    C25      C        0.68351    0.64400    0.06590    1.000
    H19      H        0.68750    0.67800    0.02650    1.000
    O7       O        0.82000    0.37140    0.16900    1.000
    C26      C        0.64797    0.61521    0.93650    1.000
    C27      C        0.61790    0.63597    0.73520    1.000
    H20      H        0.62160    0.66980    0.69080    1.000
    C28      C        0.58352    0.60660    0.60600    1.000
    H21      H        0.56460    0.62020    0.47190    1.000
    C29      C        0.57710    0.55650    0.67640    1.000
    H22      H        0.55280    0.53730    0.59230    1.000
    C30      C        0.60508    0.53502    0.86390    1.000
    H23      H        0.59970    0.50130    0.90580    1.000
    C31      C        0.64240    0.56266    0.99800    1.000
    C32      C        0.67215    0.54042    0.18420    1.000
    H24      H        0.66830    0.50650    0.22540    1.000
    C33      C        0.70763    0.56968    0.30750    1.000
    C34      C        0.75733    0.51244    0.60280    1.000
    C35      C        0.78450    0.42112    0.81730    1.000
    C36      C        0.80560    0.50480    0.67100    1.000
    H25      H        0.82850    0.53130    0.65790    1.000
    C37      C        0.82170    0.45900    0.75700    1.000
    H26      H        0.85600    0.45240    0.77750    1.000
    C38      C        0.73740    0.43020    0.75000    1.000
    H27      H        0.71350    0.40460    0.76420    1.000
    C39      C        0.72280    0.47730    0.65940    1.000
    H28      H        0.68870    0.48450    0.63780    1.000
    C40      C        0.79840    0.37120    0.94030    1.000
    O8       O        0.84620    0.36740    0.00000    1.000
    C41      C        0.77400    0.51220    0.84800    1.000
    H29      H        0.77590    0.54200    0.94230    1.000
    C42      C        0.78880    0.46510    0.95900    1.000
    H30      H        0.80120    0.46400    0.12680    1.000
    C43      C        0.76550    0.42240    0.58400    1.000
    H31      H        0.76020    0.39220    0.49700    1.000
    C44      C        0.75290    0.46720    0.46500    1.000
    H32      H        0.74170    0.46730    0.29470    1.000
    Zn3      Zn       0.72740    0.78575    0.92088    1.000
    O9       O        0.77837    0.74683    0.09520    1.000
    H33      H        0.79910    0.73590    0.98340    1.000
    N5       N        0.74921    0.85838    0.90400    1.000
    C45      C        0.73247    0.89573    0.04000    1.000
    H34      H        0.70650    0.89240    0.15930    1.000
    N6       N        0.75608    0.93990    0.99310    1.000
    C46      C        0.78764    0.87787    0.75050    1.000
    O10      O        0.72226    0.16658    0.36840    1.000
    C47      C        0.81649    0.85600    0.56590    1.000
    H35      H        0.81250    0.82200    0.52650    1.000
    O11      O        0.68000    0.12860    0.66900    1.000
    C48      C        0.85203    0.88479    0.43650    1.000
    C49      C        0.88210    0.86403    0.23520    1.000
    H36      H        0.87840    0.83020    0.19080    1.000
    C50      C        0.91648    0.89340    0.10600    1.000
    H37      H        0.93540    0.87980    0.97190    1.000
    C51      C        0.92290    0.94350    0.17640    1.000
    H38      H        0.94720    0.96270    0.09230    1.000
    C52      C        0.89492    0.96498    0.36390    1.000
    H39      H        0.90030    0.99870    0.40580    1.000
    C53      C        0.85760    0.93734    0.49800    1.000
    C54      C        0.82785    0.95958    0.68420    1.000
    H40      H        0.83170    0.99350    0.72540    1.000
    C55      C        0.79237    0.93032    0.80750    1.000
    C56      C        0.74267    0.98756    0.10280    1.000
    C57      C        0.71550    0.07888    0.31730    1.000
    C58      C        0.69440    0.99520    0.17100    1.000
    H41      H        0.67150    0.96870    0.15790    1.000
    C59      C        0.67830    0.04100    0.25700    1.000
    H42      H        0.64400    0.04760    0.27750    1.000
    C60      C        0.76260    0.06980    0.25000    1.000
    H43      H        0.78650    0.09540    0.26420    1.000
    C61      C        0.77720    0.02270    0.15940    1.000
    H44      H        0.81130    0.01550    0.13780    1.000
    C62      C        0.70160    0.12880    0.44030    1.000
    O12      O        0.65380    0.13260    0.50000    1.000
    C63      C        0.72600    0.98780    0.34800    1.000
    H45      H        0.72410    0.95800    0.44230    1.000
    C64      C        0.71120    0.03490    0.45900    1.000
    H46      H        0.69880    0.03600    0.62680    1.000
    C65      C        0.73450    0.07760    0.08400    1.000
    H47      H        0.73980    0.10780    0.99700    1.000
    C66      C        0.74710    0.03280    0.96500    1.000
    H48      H        0.75830    0.03270    0.79470    1.000
    Zn4      Zn       0.22740    0.28575    0.42088    1.000
    O13      O        0.27837    0.24683    0.59520    1.000
    H49      H        0.29910    0.23590    0.48340    1.000
    N7       N        0.24921    0.35838    0.40400    1.000
    C67      C        0.23247    0.39573    0.54000    1.000
    H50      H        0.20650    0.39240    0.65930    1.000
    N8       N        0.25608    0.43990    0.49310    1.000
    C68      C        0.28764    0.37787    0.25050    1.000
    O14      O        0.22226    0.66658    0.86840    1.000
    C69      C        0.31649    0.35600    0.06590    1.000
    H51      H        0.31250    0.32200    0.02650    1.000
    O15      O        0.18000    0.62860    0.16900    1.000
    C70      C        0.35203    0.38479    0.93650    1.000
    C71      C        0.38210    0.36403    0.73520    1.000
    H52      H        0.37840    0.33020    0.69080    1.000
    C72      C        0.41648    0.39340    0.60600    1.000
    H53      H        0.43540    0.37980    0.47190    1.000
    C73      C        0.42290    0.44350    0.67640    1.000
    H54      H        0.44720    0.46270    0.59230    1.000
    C74      C        0.39492    0.46498    0.86390    1.000
    H55      H        0.40030    0.49870    0.90580    1.000
    C75      C        0.35760    0.43734    0.99800    1.000
    C76      C        0.32785    0.45958    0.18420    1.000
    H56      H        0.33170    0.49350    0.22540    1.000
    C77      C        0.29237    0.43032    0.30750    1.000
    C78      C        0.24267    0.48756    0.60280    1.000
    C79      C        0.21550    0.57888    0.81730    1.000
    C80      C        0.19440    0.49520    0.67100    1.000
    H57      H        0.17150    0.46870    0.65790    1.000
    C81      C        0.17830    0.54100    0.75700    1.000
    H58      H        0.14400    0.54760    0.77750    1.000
    C82      C        0.26260    0.56980    0.75000    1.000
    H59      H        0.28650    0.59540    0.76420    1.000
    C83      C        0.27720    0.52270    0.65940    1.000
    H60      H        0.31130    0.51550    0.63780    1.000
    C84      C        0.20160    0.62880    0.94030    1.000
    O16      O        0.15380    0.63260    0.00000    1.000
    C85      C        0.22600    0.48780    0.84800    1.000
    H61      H        0.22410    0.45800    0.94230    1.000
    C86      C        0.21120    0.53490    0.95900    1.000
    H62      H        0.19880    0.53600    0.12680    1.000
    C87      C        0.23450    0.57760    0.58400    1.000
    H63      H        0.23980    0.60780    0.49700    1.000
    C88      C        0.24710    0.53280    0.46500    1.000
    H64      H        0.25830    0.53270    0.29470    1.000
    Zn5      Zn       0.21425    0.72740    0.07912    1.000
    O17      O        0.25317    0.77837    0.90480    1.000
    H65      H        0.26410    0.79910    0.01660    1.000
    N9       N        0.14162    0.74921    0.09600    1.000
    C89      C        0.10427    0.73247    0.96000    1.000
    H66      H        0.10760    0.70650    0.84070    1.000
    N10      N        0.06010    0.75608    0.00690    1.000
    C90      C        0.12213    0.78764    0.24950    1.000
    O18      O        0.83342    0.72226    0.63160    1.000
    C91      C        0.14400    0.81649    0.43410    1.000
    H67      H        0.17800    0.81250    0.47350    1.000
    O19      O        0.87140    0.68000    0.33100    1.000
    C92      C        0.11521    0.85203    0.56350    1.000
    C93      C        0.13597    0.88210    0.76480    1.000
    H68      H        0.16980    0.87840    0.80920    1.000
    C94      C        0.10660    0.91648    0.89400    1.000
    H69      H        0.12020    0.93540    0.02810    1.000
    C95      C        0.05650    0.92290    0.82360    1.000
    H70      H        0.03730    0.94720    0.90770    1.000
    C96      C        0.03502    0.89492    0.63610    1.000
    H71      H        0.00130    0.90030    0.59420    1.000
    C97      C        0.06266    0.85760    0.50200    1.000
    C98      C        0.04042    0.82785    0.31580    1.000
    H72      H        0.00650    0.83170    0.27460    1.000
    C99      C        0.06968    0.79237    0.19250    1.000
    C100     C        0.01244    0.74267    0.89720    1.000
    C101     C        0.92112    0.71550    0.68270    1.000
    C102     C        0.00480    0.69440    0.82900    1.000
    H73      H        0.03130    0.67150    0.84210    1.000
    C103     C        0.95900    0.67830    0.74300    1.000
    H74      H        0.95240    0.64400    0.72250    1.000
    C104     C        0.93020    0.76260    0.75000    1.000
    H75      H        0.90460    0.78650    0.73580    1.000
    C105     C        0.97730    0.77720    0.84060    1.000
    H76      H        0.98450    0.81130    0.86220    1.000
    C106     C        0.87120    0.70160    0.55970    1.000
    O20      O        0.86740    0.65380    0.50000    1.000
    C107     C        0.01220    0.72600    0.65200    1.000
    H77      H        0.04200    0.72410    0.55770    1.000
    C108     C        0.96510    0.71120    0.54100    1.000
    H78      H        0.96400    0.69880    0.37320    1.000
    C109     C        0.92240    0.73450    0.91600    1.000
    H79      H        0.89220    0.73980    0.00300    1.000
    C110     C        0.96720    0.74710    0.03500    1.000
    H80      H        0.96730    0.75830    0.20530    1.000
    Zn6      Zn       0.71425    0.22740    0.57912    1.000
    O21      O        0.75317    0.27837    0.40480    1.000
    H81      H        0.76410    0.29910    0.51660    1.000
    N11      N        0.64162    0.24921    0.59600    1.000
    C111     C        0.60427    0.23247    0.46000    1.000
    H82      H        0.60760    0.20650    0.34070    1.000
    N12      N        0.56010    0.25608    0.50690    1.000
    C112     C        0.62213    0.28764    0.74950    1.000
    O22      O        0.33342    0.22226    0.13160    1.000
    C113     C        0.64400    0.31649    0.93410    1.000
    H83      H        0.67800    0.31250    0.97350    1.000
    O23      O        0.37140    0.18000    0.83100    1.000
    C114     C        0.61521    0.35203    0.06350    1.000
    C115     C        0.63597    0.38210    0.26480    1.000
    H84      H        0.66980    0.37840    0.30920    1.000
    C116     C        0.60660    0.41648    0.39400    1.000
    H85      H        0.62020    0.43540    0.52810    1.000
    C117     C        0.55650    0.42290    0.32360    1.000
    H86      H        0.53730    0.44720    0.40770    1.000
    C118     C        0.53502    0.39492    0.13610    1.000
    H87      H        0.50130    0.40030    0.09420    1.000
    C119     C        0.56266    0.35760    0.00200    1.000
    C120     C        0.54042    0.32785    0.81580    1.000
    H88      H        0.50650    0.33170    0.77460    1.000
    C121     C        0.56968    0.29237    0.69250    1.000
    C122     C        0.51244    0.24267    0.39720    1.000
    C123     C        0.42112    0.21550    0.18270    1.000
    C124     C        0.50480    0.19440    0.32900    1.000
    H89      H        0.53130    0.17150    0.34210    1.000
    C125     C        0.45900    0.17830    0.24300    1.000
    H90      H        0.45240    0.14400    0.22250    1.000
    C126     C        0.43020    0.26260    0.25000    1.000
    H91      H        0.40460    0.28650    0.23580    1.000
    C127     C        0.47730    0.27720    0.34060    1.000
    H92      H        0.48450    0.31130    0.36220    1.000
    C128     C        0.37120    0.20160    0.05970    1.000
    O24      O        0.36740    0.15380    0.00000    1.000
    C129     C        0.51220    0.22600    0.15200    1.000
    H93      H        0.54200    0.22410    0.05770    1.000
    C130     C        0.46510    0.21120    0.04100    1.000
    H94      H        0.46400    0.19880    0.87320    1.000
    C131     C        0.42240    0.23450    0.41600    1.000
    H95      H        0.39220    0.23980    0.50300    1.000
    C132     C        0.46720    0.24710    0.53500    1.000
    H96      H        0.46730    0.25830    0.70530    1.000
    Zn7      Zn       0.78575    0.27260    0.07912    1.000
    O25      O        0.74683    0.22163    0.90480    1.000
    H97      H        0.73590    0.20090    0.01660    1.000
    N13      N        0.85838    0.25079    0.09600    1.000
    C133     C        0.89573    0.26753    0.96000    1.000
    H98      H        0.89240    0.29350    0.84070    1.000
    N14      N        0.93990    0.24392    0.00690    1.000
    C134     C        0.87787    0.21236    0.24950    1.000
    O26      O        0.16658    0.27774    0.63160    1.000
    C135     C        0.85600    0.18351    0.43410    1.000
    H99      H        0.82200    0.18750    0.47350    1.000
    O27      O        0.12860    0.32000    0.33100    1.000
    C136     C        0.88479    0.14797    0.56350    1.000
    C137     C        0.86403    0.11790    0.76480    1.000
    H100     H        0.83020    0.12160    0.80920    1.000
    C138     C        0.89340    0.08352    0.89400    1.000
    H101     H        0.87980    0.06460    0.02810    1.000
    C139     C        0.94350    0.07710    0.82360    1.000
    H102     H        0.96270    0.05280    0.90770    1.000
    C140     C        0.96498    0.10508    0.63610    1.000
    H103     H        0.99870    0.09970    0.59420    1.000
    C141     C        0.93734    0.14240    0.50200    1.000
    C142     C        0.95958    0.17215    0.31580    1.000
    H104     H        0.99350    0.16830    0.27460    1.000
    C143     C        0.93032    0.20763    0.19250    1.000
    C144     C        0.98756    0.25733    0.89720    1.000
    C145     C        0.07888    0.28450    0.68270    1.000
    C146     C        0.99520    0.30560    0.82900    1.000
    H105     H        0.96870    0.32850    0.84210    1.000
    C147     C        0.04100    0.32170    0.74300    1.000
    H106     H        0.04760    0.35600    0.72250    1.000
    C148     C        0.06980    0.23740    0.75000    1.000
    H107     H        0.09540    0.21350    0.73580    1.000
    C149     C        0.02270    0.22280    0.84060    1.000
    H108     H        0.01550    0.18870    0.86220    1.000
    C150     C        0.12880    0.29840    0.55970    1.000
    O28      O        0.13260    0.34620    0.50000    1.000
    C151     C        0.98780    0.27400    0.65200    1.000
    H109     H        0.95800    0.27590    0.55770    1.000
    C152     C        0.03490    0.28880    0.54100    1.000
    H110     H        0.03600    0.30120    0.37320    1.000
    C153     C        0.07760    0.26550    0.91600    1.000
    H111     H        0.10780    0.26020    0.00300    1.000
    C154     C        0.03280    0.25290    0.03500    1.000
    H112     H        0.03270    0.24170    0.20530    1.000
    Zn8      Zn       0.28575    0.77260    0.57912    1.000
    O29      O        0.24683    0.72163    0.40480    1.000
    H113     H        0.23590    0.70090    0.51660    1.000
    N15      N        0.35838    0.75079    0.59600    1.000
    C155     C        0.39573    0.76753    0.46000    1.000
    H114     H        0.39240    0.79350    0.34070    1.000
    N16      N        0.43990    0.74392    0.50690    1.000
    C156     C        0.37787    0.71236    0.74950    1.000
    O30      O        0.66658    0.77774    0.13160    1.000
    C157     C        0.35600    0.68351    0.93410    1.000
    H115     H        0.32200    0.68750    0.97350    1.000
    O31      O        0.62860    0.82000    0.83100    1.000
    C158     C        0.38479    0.64797    0.06350    1.000
    C159     C        0.36403    0.61790    0.26480    1.000
    H116     H        0.33020    0.62160    0.30920    1.000
    C160     C        0.39340    0.58352    0.39400    1.000
    H117     H        0.37980    0.56460    0.52810    1.000
    C161     C        0.44350    0.57710    0.32360    1.000
    H118     H        0.46270    0.55280    0.40770    1.000
    C162     C        0.46498    0.60508    0.13610    1.000
    H119     H        0.49870    0.59970    0.09420    1.000
    C163     C        0.43734    0.64240    0.00200    1.000
    C164     C        0.45958    0.67215    0.81580    1.000
    H120     H        0.49350    0.66830    0.77460    1.000
    C165     C        0.43032    0.70763    0.69250    1.000
    C166     C        0.48756    0.75733    0.39720    1.000
    C167     C        0.57888    0.78450    0.18270    1.000
    C168     C        0.49520    0.80560    0.32900    1.000
    H121     H        0.46870    0.82850    0.34210    1.000
    C169     C        0.54100    0.82170    0.24300    1.000
    H122     H        0.54760    0.85600    0.22250    1.000
    C170     C        0.56980    0.73740    0.25000    1.000
    H123     H        0.59540    0.71350    0.23580    1.000
    C171     C        0.52270    0.72280    0.34060    1.000
    H124     H        0.51550    0.68870    0.36220    1.000
    C172     C        0.62880    0.79840    0.05970    1.000
    O32      O        0.63260    0.84620    0.00000    1.000
    C173     C        0.48780    0.77400    0.15200    1.000
    H125     H        0.45800    0.77590    0.05770    1.000
    C174     C        0.53490    0.78880    0.04100    1.000
    H126     H        0.53600    0.80120    0.87320    1.000
    C175     C        0.57760    0.76550    0.41600    1.000
    H127     H        0.60780    0.76020    0.50300    1.000
    C176     C        0.53280    0.75290    0.53500    1.000
    H128     H        0.53270    0.74170    0.70530    1.000
