data_functionalizedCrystal
_audit_creation_method	'EQeq! by Chris Wilmer'
_symmetry_space_group_name_H-M	'P1'
_symmetry_Int_Tables_number	1
_symmetry_cell_setting	triclinic
loop_
_symmetry_equiv_pos_as_xyz
  x,y,z
_cell_length_a	12.12
_cell_length_b	22.7015
_cell_length_c	12.9889
_cell_angle_alpha	90
_cell_angle_beta	90
_cell_angle_gamma	90
loop_
_atom_site_label
_atom_site_type_symbol
_atom_site_fract_x
_atom_site_fract_y
_atom_site_fract_z
_atom_site_charge
Mof_Ag	Ag	0.49023	0.94189	0.95321	0.597
Mof_Ag	Ag	0.74992	0.74843	0.20046	0.522
Mof_Ag	Ag	0.00977	0.55811	0.45321	0.595
Mof_Ag	Ag	0.75008	0.75157	0.70046	0.523
Mof_Ag	Ag	0.49023	0.05811	0.54679	0.595
Mof_Ag	Ag	0.74992	0.25157	0.29954	0.523
Mof_Ag	Ag	0.00977	0.44189	0.04679	0.596
Mof_Ag	Ag	0.75008	0.24843	0.79954	0.523
Mof_Ag	Ag	0.50977	0.05811	0.04679	0.598
Mof_Ag	Ag	0.25008	0.25157	0.79954	0.523
Mof_Ag	Ag	0.99023	0.44189	0.54679	0.596
Mof_Ag	Ag	0.24992	0.24843	0.29954	0.524
Mof_Ag	Ag	0.50977	0.94189	0.45321	0.596
Mof_Ag	Ag	0.25008	0.74843	0.70046	0.524
Mof_Ag	Ag	0.99023	0.55811	0.95321	0.596
Mof_Ag	Ag	0.24992	0.75157	0.20046	0.523
Mof_H 	H 	0.9038	0.6779	0.3575	0.024
Mof_H 	H 	0.8393	0.6282	0.2991	0.008
Mof_H 	H 	0.3989	0.8246	0.0505	0.022
Mof_H 	H 	0.3362	0.8733	0.1132	-0.004
Mof_H 	H 	0.0679	0.5533	0.2046	0.018
Mof_H 	H 	0.9384	0.5528	0.2064	0.02
Mof_H 	H 	0.1039	0.679	0.3552	0.022
Mof_H 	H 	0.1685	0.6299	0.2951	-0
Mof_H 	H 	0.0002	0.7526	0.1405	0.01
Mof_H 	H 	0.0018	0.7535	0.2614	0.008
Mof_H 	H 	0.5993	0.8234	0.0471	0.023
Mof_H 	H 	0.6661	0.8716	0.1074	-0.001
Mof_H 	H 	0.1374	0.0369	0.0708	0.314
Mof_H 	H 	0.1147	0.9872	0.9898	0.304
Mof_H 	H 	0.1403	0.0515	0.9528	0.308
Mof_H 	H 	0.5962	0.8221	0.8575	0.024
Mof_H 	H 	0.6607	0.8718	0.7991	0.008
Mof_H 	H 	0.1011	0.6754	0.5505	0.023
Mof_H 	H 	0.1638	0.6267	0.6132	-0.003
Mof_H 	H 	0.4321	0.9467	0.7046	0.018
Mof_H 	H 	0.5616	0.9472	0.7064	0.02
Mof_H 	H 	0.3961	0.821	0.8552	0.022
Mof_H 	H 	0.3315	0.8701	0.7951	-0
Mof_H 	H 	0.4998	0.7474	0.6405	0.01
Mof_H 	H 	0.4982	0.7465	0.7614	0.008
Mof_H 	H 	0.9007	0.6766	0.5471	0.024
Mof_H 	H 	0.8339	0.6284	0.6074	0
Mof_H 	H 	0.3626	0.4631	0.5708	0.317
Mof_H 	H 	0.3853	0.5128	0.4898	0.306
Mof_H 	H 	0.3597	0.4485	0.4528	0.313
Mof_H 	H 	0.9038	0.3221	0.1425	0.024
Mof_H 	H 	0.8393	0.3718	0.2009	0.008
Mof_H 	H 	0.3989	0.1754	0.4495	0.023
Mof_H 	H 	0.3362	0.1267	0.3868	-0.003
Mof_H 	H 	0.0679	0.4467	0.2954	0.018
Mof_H 	H 	0.9384	0.4472	0.2936	0.02
Mof_H 	H 	0.1039	0.321	0.1448	0.022
Mof_H 	H 	0.1685	0.3701	0.2049	-0
Mof_H 	H 	0.0002	0.2474	0.3595	0.01
Mof_H 	H 	0.0018	0.2465	0.2386	0.008
Mof_H 	H 	0.5993	0.1766	0.4529	0.024
Mof_H 	H 	0.6661	0.1284	0.3926	0
Mof_H 	H 	0.1374	0.9631	0.4292	0.317
Mof_H 	H 	0.1147	0.0128	0.5102	0.306
Mof_H 	H 	0.1403	0.9485	0.5472	0.313
Mof_H 	H 	0.5962	0.1779	0.6425	0.024
Mof_H 	H 	0.6607	0.1282	0.7009	0.008
Mof_H 	H 	0.1011	0.3246	0.9495	0.022
Mof_H 	H 	0.1638	0.3733	0.8868	-0.004
Mof_H 	H 	0.4321	0.0533	0.7954	0.017
Mof_H 	H 	0.5616	0.0528	0.7936	0.018
Mof_H 	H 	0.3961	0.179	0.6448	0.022
Mof_H 	H 	0.3315	0.1299	0.7049	-0.001
Mof_H 	H 	0.4998	0.2526	0.8595	0.01
Mof_H 	H 	0.4982	0.2535	0.7386	0.008
Mof_H 	H 	0.9007	0.3234	0.9529	0.023
Mof_H 	H 	0.8339	0.3716	0.8926	-0
Mof_H 	H 	0.3626	0.5369	0.9292	0.316
Mof_H 	H 	0.3853	0.4872	0.0102	0.305
Mof_H 	H 	0.3597	0.5515	0.0472	0.312
Mof_H 	H 	0.0962	0.3221	0.6425	0.024
Mof_H 	H 	0.1607	0.3718	0.7009	0.008
Mof_H 	H 	0.6011	0.1754	0.9495	0.022
Mof_H 	H 	0.6638	0.1267	0.8868	-0.004
Mof_H 	H 	0.9321	0.4467	0.7954	0.018
Mof_H 	H 	0.0616	0.4472	0.7936	0.02
Mof_H 	H 	0.8961	0.321	0.6448	0.022
Mof_H 	H 	0.8315	0.3701	0.7049	-0
Mof_H 	H 	0.9998	0.2474	0.8595	0.01
Mof_H 	H 	0.9982	0.2465	0.7386	0.008
Mof_H 	H 	0.4007	0.1766	0.9529	0.023
Mof_H 	H 	0.3339	0.1284	0.8926	-0.001
Mof_H 	H 	0.8626	0.9631	0.9292	0.314
Mof_H 	H 	0.8853	0.0128	0.0102	0.304
Mof_H 	H 	0.8597	0.9485	0.0472	0.308
Mof_H 	H 	0.4038	0.1779	0.1425	0.024
Mof_H 	H 	0.3393	0.1282	0.2009	0.008
Mof_H 	H 	0.8989	0.3246	0.4495	0.023
Mof_H 	H 	0.8362	0.3733	0.3868	-0.003
Mof_H 	H 	0.5679	0.0533	0.2954	0.018
Mof_H 	H 	0.4384	0.0528	0.2936	0.02
Mof_H 	H 	0.6039	0.179	0.1448	0.022
Mof_H 	H 	0.6685	0.1299	0.2049	-0
Mof_H 	H 	0.5002	0.2526	0.3595	0.01
Mof_H 	H 	0.5018	0.2535	0.2386	0.008
Mof_H 	H 	0.0993	0.3234	0.4529	0.024
Mof_H 	H 	0.1661	0.3716	0.3926	0
Mof_H 	H 	0.6374	0.5369	0.4292	0.317
Mof_H 	H 	0.6147	0.4872	0.5102	0.306
Mof_H 	H 	0.6403	0.5515	0.5472	0.313
Mof_H 	H 	0.0962	0.6779	0.8575	0.024
Mof_H 	H 	0.1607	0.6282	0.7991	0.008
Mof_H 	H 	0.6011	0.8246	0.5505	0.023
Mof_H 	H 	0.6638	0.8733	0.6132	-0.003
Mof_H 	H 	0.9321	0.5533	0.7046	0.018
Mof_H 	H 	0.0616	0.5528	0.7064	0.02
Mof_H 	H 	0.8961	0.679	0.8552	0.022
Mof_H 	H 	0.8315	0.6299	0.7951	-0
Mof_H 	H 	0.9998	0.7526	0.6405	0.01
Mof_H 	H 	0.9982	0.7535	0.7614	0.008
Mof_H 	H 	0.4007	0.8234	0.5471	0.024
Mof_H 	H 	0.3339	0.8716	0.6074	0
Mof_H 	H 	0.8626	0.0369	0.5708	0.317
Mof_H 	H 	0.8853	0.9872	0.4898	0.306
Mof_H 	H 	0.8597	0.0515	0.4528	0.313
Mof_H 	H 	0.4038	0.8221	0.3575	0.024
Mof_H 	H 	0.3393	0.8718	0.2991	0.008
Mof_H 	H 	0.8989	0.6754	0.0505	0.022
Mof_H 	H 	0.8362	0.6267	0.1132	-0.004
Mof_H 	H 	0.5679	0.9467	0.2046	0.017
Mof_H 	H 	0.4384	0.9472	0.2064	0.018
Mof_H 	H 	0.6039	0.821	0.3552	0.022
Mof_H 	H 	0.6685	0.8701	0.2951	-0.001
Mof_H 	H 	0.5002	0.7474	0.1405	0.01
Mof_H 	H 	0.5018	0.7465	0.2614	0.008
Mof_H 	H 	0.0993	0.6766	0.0471	0.023
Mof_H 	H 	0.1661	0.6284	0.1074	-0
Mof_H 	H 	0.6374	0.4631	0.0708	0.316
Mof_H 	H 	0.6147	0.5128	0.9898	0.305
Mof_H 	H 	0.6403	0.4485	0.9528	0.312
Mof_C 	C 	0.4043	0.847	0.2967	0.008
Mof_C 	C 	0.4013	0.8484	0.1125	0.013
Mof_C 	C 	0.0028	0.5782	0.2048	0.011
Mof_C 	C 	0.1025	0.6541	0.2945	0.01
Mof_C 	C 	0.5012	0.772	0.2015	0.006
Mof_C 	C 	0.6	0.8474	0.1088	0.009
Mof_C 	C 	0.278	0.0078	0.0012	0.596
Mof_C 	C 	0.1566	0.0222	0.0039	-1.038
Mof_C 	C 	0.0957	0.653	0.7967	0.008
Mof_C 	C 	0.0987	0.6516	0.6125	0.012
Mof_C 	C 	0.4972	0.9218	0.7048	0.011
Mof_C 	C 	0.3975	0.8459	0.7945	0.01
Mof_C 	C 	0.9988	0.728	0.7015	0.006
Mof_C 	C 	0.9	0.6526	0.6088	0.009
Mof_C 	C 	0.222	0.4922	0.5012	0.599
Mof_C 	C 	0.3434	0.4778	0.5039	-1.05
Mof_C 	C 	0.4043	0.153	0.2033	0.008
Mof_C 	C 	0.4013	0.1516	0.3875	0.012
Mof_C 	C 	0.0028	0.4218	0.2952	0.011
Mof_C 	C 	0.1025	0.3459	0.2055	0.01
Mof_C 	C 	0.5012	0.228	0.2985	0.006
Mof_C 	C 	0.6	0.1526	0.3912	0.009
Mof_C 	C 	0.278	0.9922	0.4988	0.6
Mof_C 	C 	0.1566	0.9778	0.4961	-1.05
Mof_C 	C 	0.0957	0.347	0.7033	0.008
Mof_C 	C 	0.0987	0.3484	0.8875	0.013
Mof_C 	C 	0.4972	0.0782	0.7952	0.012
Mof_C 	C 	0.3975	0.1541	0.7055	0.01
Mof_C 	C 	0.9988	0.272	0.7985	0.006
Mof_C 	C 	0.9	0.3474	0.8912	0.009
Mof_C 	C 	0.222	0.5078	0.9988	0.598
Mof_C 	C 	0.3434	0.5222	0.9961	-1.047
Mof_C 	C 	0.5957	0.153	0.7033	0.008
Mof_C 	C 	0.5987	0.1516	0.8875	0.013
Mof_C 	C 	0.9972	0.4218	0.7952	0.011
Mof_C 	C 	0.8975	0.3459	0.7055	0.01
Mof_C 	C 	0.4988	0.228	0.7985	0.006
Mof_C 	C 	0.4	0.1526	0.8912	0.009
Mof_C 	C 	0.722	0.9922	0.9988	0.596
Mof_C 	C 	0.8434	0.9778	0.9961	-1.038
Mof_C 	C 	0.9043	0.347	0.2033	0.008
Mof_C 	C 	0.9013	0.3484	0.3875	0.012
Mof_C 	C 	0.5028	0.0782	0.2952	0.011
Mof_C 	C 	0.6025	0.1541	0.2055	0.01
Mof_C 	C 	0.0012	0.272	0.2985	0.006
Mof_C 	C 	0.1	0.3474	0.3912	0.009
Mof_C 	C 	0.778	0.5078	0.4988	0.599
Mof_C 	C 	0.6566	0.5222	0.4961	-1.05
Mof_C 	C 	0.5957	0.847	0.7967	0.008
Mof_C 	C 	0.5987	0.8484	0.6125	0.012
Mof_C 	C 	0.9972	0.5782	0.7048	0.011
Mof_C 	C 	0.8975	0.6541	0.7945	0.01
Mof_C 	C 	0.4988	0.772	0.7015	0.006
Mof_C 	C 	0.4	0.8474	0.6088	0.009
Mof_C 	C 	0.722	0.0078	0.5012	0.6
Mof_C 	C 	0.8434	0.0222	0.5039	-1.05
Mof_C 	C 	0.9043	0.653	0.2967	0.008
Mof_C 	C 	0.9013	0.6516	0.1125	0.013
Mof_C 	C 	0.5028	0.9218	0.2048	0.012
Mof_C 	C 	0.6025	0.8459	0.2945	0.01
Mof_C 	C 	0.0012	0.728	0.2015	0.006
Mof_C 	C 	0.1	0.6526	0.1088	0.009
Mof_C 	C 	0.778	0.4922	0.0012	0.598
Mof_C 	C 	0.6566	0.4778	0.0039	-1.047
Mof_N 	N 	0.5039	0.88428	0.2979	-0.148
Mof_N 	N 	0.3996	0.80941	0.2034	-0.163
Mof_N 	N 	0.5008	0.88607	0.1101	-0.158
Mof_N 	N 	0.6021	0.80872	0.2012	-0.161
Mof_N 	N 	0.9961	0.61572	0.7979	-0.148
Mof_N 	N 	0.1004	0.69059	0.7034	-0.163
Mof_N 	N 	0.9992	0.61393	0.6101	-0.157
Mof_N 	N 	0.8979	0.69128	0.7012	-0.161
Mof_N 	N 	0.5039	0.11572	0.2021	-0.148
Mof_N 	N 	0.3996	0.19059	0.2966	-0.163
Mof_N 	N 	0.5008	0.11393	0.3899	-0.156
Mof_N 	N 	0.6021	0.19128	0.2988	-0.161
Mof_N 	N 	0.9961	0.38428	0.7021	-0.148
Mof_N 	N 	0.1004	0.30941	0.7966	-0.163
Mof_N 	N 	0.9992	0.38607	0.8899	-0.157
Mof_N 	N 	0.8979	0.30872	0.7988	-0.161
Mof_N 	N 	0.4961	0.11572	0.7021	-0.148
Mof_N 	N 	0.6004	0.19059	0.7966	-0.163
Mof_N 	N 	0.4992	0.11393	0.8899	-0.158
Mof_N 	N 	0.3979	0.19128	0.7988	-0.161
Mof_N 	N 	0.0039	0.38428	0.2021	-0.148
Mof_N 	N 	0.8996	0.30941	0.2966	-0.163
Mof_N 	N 	0.0008	0.38607	0.3899	-0.157
Mof_N 	N 	0.1021	0.30872	0.2988	-0.161
Mof_N 	N 	0.4961	0.88428	0.7979	-0.148
Mof_N 	N 	0.6004	0.80941	0.7034	-0.163
Mof_N 	N 	0.4992	0.88607	0.6101	-0.156
Mof_N 	N 	0.3979	0.80872	0.7012	-0.161
Mof_N 	N 	0.0039	0.61572	0.2979	-0.148
Mof_N 	N 	0.8996	0.69059	0.2034	-0.163
Mof_N 	N 	0.0008	0.61393	0.1101	-0.157
Mof_N 	N 	0.1021	0.69128	0.2012	-0.161
Mof_O 	O 	0.3186	0.98795	0.9205	-0.451
Mof_O 	O 	0.668	0.9829	0.918	-0.445
Mof_O 	O 	0.1814	0.51205	0.4205	-0.453
Mof_O 	O 	0.832	0.5171	0.418	-0.447
Mof_O 	O 	0.3186	0.01205	0.5795	-0.454
Mof_O 	O 	0.668	0.0171	0.582	-0.447
Mof_O 	O 	0.1814	0.48795	0.0795	-0.453
Mof_O 	O 	0.832	0.4829	0.082	-0.446
Mof_O 	O 	0.6814	0.01205	0.0795	-0.451
Mof_O 	O 	0.332	0.0171	0.082	-0.445
Mof_O 	O 	0.8186	0.48795	0.5795	-0.453
Mof_O 	O 	0.168	0.4829	0.582	-0.447
Mof_O 	O 	0.6814	0.98795	0.4205	-0.454
Mof_O 	O 	0.332	0.9829	0.418	-0.447
Mof_O 	O 	0.8186	0.51205	0.9205	-0.453
Mof_O 	O 	0.168	0.5171	0.918	-0.446
Mof_H 	H 	0.4565	0.6269	0.4527	0.34
Mof_H 	H 	0.3358	0.6193	0.4114	0.351
Mof_H 	H 	0.3573	0.6242	0.5301	0.341
Mof_C 	C 	0.369	0.7022	0.4569	0.633
Mof_C 	C 	0.3806	0.6375	0.4633	-1.148
Mof_O 	O 	0.4566	0.7338	0.452	-0.376
Mof_O 	O 	0.2797	0.7247	0.4679	-0.426
Mof_H 	H 	0.0435	0.8731	0.9527	0.336
Mof_H 	H 	0.1642	0.8807	0.9114	0.347
Mof_H 	H 	0.1427	0.8758	0.0301	0.334
Mof_C 	C 	0.131	0.7978	0.9569	0.627
Mof_C 	C 	0.1194	0.8625	0.9633	-1.131
Mof_O 	O 	0.0434	0.7662	0.952	-0.373
Mof_O 	O 	0.2203	0.7753	0.9679	-0.423
Mof_H 	H 	0.4565	0.3731	0.0473	0.339
Mof_H 	H 	0.3358	0.3807	0.0886	0.35
Mof_H 	H 	0.3573	0.3758	0.9699	0.339
Mof_C 	C 	0.369	0.2978	0.0431	0.631
Mof_C 	C 	0.3806	0.3625	0.0367	-1.143
Mof_O 	O 	0.4566	0.2662	0.048	-0.375
Mof_O 	O 	0.2797	0.2753	0.0321	-0.425
Mof_H 	H 	0.0435	0.1269	0.5473	0.34
Mof_H 	H 	0.1642	0.1193	0.5886	0.351
Mof_H 	H 	0.1427	0.1242	0.4699	0.342
Mof_C 	C 	0.131	0.2022	0.5431	0.633
Mof_C 	C 	0.1194	0.1375	0.5367	-1.148
Mof_O 	O 	0.0434	0.2338	0.548	-0.376
Mof_O 	O 	0.2203	0.2247	0.5321	-0.426
Mof_H 	H 	0.5435	0.3731	0.5473	0.34
Mof_H 	H 	0.6642	0.3807	0.5886	0.351
Mof_H 	H 	0.6427	0.3758	0.4699	0.341
Mof_C 	C 	0.631	0.2978	0.5431	0.633
Mof_C 	C 	0.6194	0.3625	0.5367	-1.148
Mof_O 	O 	0.5434	0.2662	0.548	-0.376
Mof_O 	O 	0.7203	0.2753	0.5321	-0.426
Mof_H 	H 	0.9565	0.1269	0.0473	0.336
Mof_H 	H 	0.8358	0.1193	0.0886	0.347
Mof_H 	H 	0.8573	0.1242	0.9699	0.334
Mof_C 	C 	0.869	0.2022	0.0431	0.627
Mof_C 	C 	0.8806	0.1375	0.0367	-1.131
Mof_O 	O 	0.9566	0.2338	0.048	-0.373
Mof_O 	O 	0.7797	0.2247	0.0321	-0.423
Mof_H 	H 	0.5435	0.6269	0.9527	0.339
Mof_H 	H 	0.6642	0.6193	0.9114	0.35
Mof_H 	H 	0.6427	0.6242	0.0301	0.339
Mof_C 	C 	0.631	0.7022	0.9569	0.631
Mof_C 	C 	0.6194	0.6375	0.9633	-1.143
Mof_O 	O 	0.5434	0.7338	0.952	-0.375
Mof_O 	O 	0.7203	0.7247	0.9679	-0.425
Mof_H 	H 	0.9565	0.8731	0.4527	0.34
Mof_H 	H 	0.8358	0.8807	0.4114	0.351
Mof_H 	H 	0.8573	0.8758	0.5301	0.342
Mof_C 	C 	0.869	0.7978	0.4569	0.633
Mof_C 	C 	0.8806	0.8625	0.4633	-1.148
Mof_O 	O 	0.9566	0.7662	0.452	-0.376
Mof_O 	O 	0.7797	0.7753	0.4679	-0.426
_end
