# CIF file generated by openbabel 3.1.0, see https://openbabel.org
data_I
_chemical_name_common 'image0'
_cell_length_a 11.801
_cell_length_b 12.973
_cell_length_c 15.856
_cell_angle_alpha 98.15
_cell_angle_beta 108.39
_cell_angle_gamma 100.91
_space_group_name_H-M_alt 'P 1'
_space_group_name_Hall 'P 1'
loop_
    _symmetry_equiv_pos_as_xyz
    x,y,z
loop_
    _atom_site_label
    _atom_site_type_symbol
    _atom_site_fract_x
    _atom_site_fract_y
    _atom_site_fract_z
    _atom_site_occupancy
    Bi1      Bi       0.36085    0.45993    0.30491    1.000
    Bi2      Bi       0.94316    0.68732    0.93084    1.000
    K1       K        0.72640    0.35570    0.91600    1.000
    K2       K        0.05860    0.85110    0.18520    1.000
    K3       K        0.81040    0.83720    0.67100    1.000
    K4       K        0.42260    0.70080    0.54980    1.000
    K5       K        0.43340    0.37310    0.03570    1.000
    C1       C        0.28950    0.43630    0.46330    1.000
    C2       C        0.25670    0.40400    0.54170    1.000
    C3       C        0.37290    0.41780    0.62430    1.000
    C4       C        0.33660    0.40010    0.70680    1.000
    C5       C        0.44160    0.41610    0.79630    1.000
    C6       C        0.43870    0.33150    0.60380    1.000
    O1       O        0.35220    0.38630    0.43140    1.000
    O2       O        0.25190    0.51120    0.43130    1.000
    O3       O        0.44580    0.52360    0.64090    1.000
    O4       O        0.55020    0.44530    0.79910    1.000
    O5       O        0.41550    0.39950    0.86310    1.000
    O6       O        0.38360    0.23630    0.58430    1.000
    O7       O        0.55250    0.36220    0.61360    1.000
    C7       C        0.87580    0.58690    0.07190    1.000
    C8       C        0.88160    0.54590    0.15880    1.000
    C9       C        0.96420    0.46620    0.17510    1.000
    C10      C        0.95740    0.41990    0.25580    1.000
    C11      C        0.03010    0.33690    0.27930    1.000
    C12      C        0.09890    0.52860    0.19550    1.000
    O8       O        0.97960    0.63290    0.06770    1.000
    O9       O        0.77650    0.57280    0.01040    1.000
    O10      O        0.92070    0.38390    0.09580    1.000
    O11      O        0.10440    0.32020    0.23930    1.000
    O12      O        0.02140    0.29200    0.34250    1.000
    O13      O        0.14730    0.60790    0.25750    1.000
    O14      O        0.15450    0.49090    0.14560    1.000
    C13      C        0.35790    0.24640    0.20110    1.000
    C14      C        0.37240    0.13850    0.16250    1.000
    C15      C        0.25240    0.06640    0.08960    1.000
    C16      C        0.27870    0.95710    0.05890    1.000
    C17      C        0.16280    0.87240    0.00290    1.000
    C18      C        0.21130    0.11950    0.00440    1.000
    O15      O        0.38820    0.27470    0.28570    1.000
    O16      O        0.31740    0.30620    0.14760    1.000
    O17      O        0.15960    0.05400    0.12760    1.000
    O18      O        0.10040    0.87620    0.92520    1.000
    O19      O        0.13150    0.79590    0.03960    1.000
    O20      O        0.28900    0.14290    0.96790    1.000
    O21      O        0.10440    0.13040    0.98060    1.000
    O22      O        0.04050    0.97140    0.77480    1.000
    O23      O        0.41300    0.75700    0.99300    1.000
    O24      O        0.27900    0.96900    0.34100    1.000
    O25      O        0.33000    0.71200    0.92900    1.000
    H1       H        0.20680    0.44740    0.55730    1.000
    H2       H        0.21230    0.33060    0.52400    1.000
    H3       H        0.28720    0.44780    0.71510    1.000
    H4       H        0.28790    0.32850    0.69320    1.000
    H5       H        0.80070    0.50920    0.15260    1.000
    H6       H        0.91170    0.60540    0.20920    1.000
    H7       H        0.87330    0.38710    0.24410    1.000
    H8       H        0.98540    0.47760    0.30750    1.000
    H9       H        0.43360    0.15050    0.13540    1.000
    H10      H        0.39900    0.10230    0.21040    1.000
    H11      H        0.32990    0.96660    0.02340    1.000
    H12      H        0.32020    0.93330    0.11140    1.000
    Bi3      Bi       0.63915    0.54007    0.69509    1.000
    Bi4      Bi       0.05684    0.31268    0.06916    1.000
    K6       K        0.27360    0.64430    0.08400    1.000
    K7       K        0.94140    0.14890    0.81480    1.000
    K8       K        0.18960    0.16280    0.32900    1.000
    K9       K        0.57740    0.29920    0.45020    1.000
    K10      K        0.56660    0.62690    0.96430    1.000
    C19      C        0.71050    0.56370    0.53670    1.000
    C20      C        0.74330    0.59600    0.45830    1.000
    C21      C        0.62710    0.58220    0.37570    1.000
    C22      C        0.66340    0.59990    0.29320    1.000
    C23      C        0.55840    0.58390    0.20370    1.000
    C24      C        0.56130    0.66850    0.39620    1.000
    O26      O        0.64780    0.61370    0.56860    1.000
    O27      O        0.74810    0.48880    0.56870    1.000
    O28      O        0.55420    0.47640    0.35910    1.000
    O29      O        0.44980    0.55470    0.20090    1.000
    O30      O        0.58450    0.60050    0.13690    1.000
    O31      O        0.61640    0.76370    0.41570    1.000
    O32      O        0.44750    0.63780    0.38640    1.000
    C25      C        0.12420    0.41310    0.92810    1.000
    C26      C        0.11840    0.45410    0.84120    1.000
    C27      C        0.03580    0.53380    0.82490    1.000
    C28      C        0.04260    0.58010    0.74420    1.000
    C29      C        0.96990    0.66310    0.72070    1.000
    C30      C        0.90110    0.47140    0.80450    1.000
    O33      O        0.02040    0.36710    0.93230    1.000
    O34      O        0.22350    0.42720    0.98960    1.000
    O35      O        0.07930    0.61610    0.90420    1.000
    O36      O        0.89560    0.67980    0.76070    1.000
    O37      O        0.97860    0.70800    0.65750    1.000
    O38      O        0.85270    0.39210    0.74250    1.000
    O39      O        0.84550    0.50910    0.85440    1.000
    C31      C        0.64210    0.75360    0.79890    1.000
    C32      C        0.62760    0.86150    0.83750    1.000
    C33      C        0.74760    0.93360    0.91040    1.000
    C34      C        0.72130    0.04290    0.94110    1.000
    C35      C        0.83720    0.12760    0.99710    1.000
    C36      C        0.78870    0.88050    0.99560    1.000
    O40      O        0.61180    0.72530    0.71430    1.000
    O41      O        0.68260    0.69380    0.85240    1.000
    O42      O        0.84040    0.94600    0.87240    1.000
    O43      O        0.89960    0.12380    0.07480    1.000
    O44      O        0.86850    0.20410    0.96040    1.000
    O45      O        0.71100    0.85710    0.03210    1.000
    O46      O        0.89560    0.86960    0.01940    1.000
    O47      O        0.95950    0.02860    0.22520    1.000
    O48      O        0.58700    0.24300    0.00700    1.000
    O49      O        0.72100    0.03100    0.65900    1.000
    O50      O        0.67000    0.28800    0.07100    1.000
    H13      H        0.79320    0.55260    0.44270    1.000
    H14      H        0.78770    0.66940    0.47600    1.000
    H15      H        0.71280    0.55220    0.28490    1.000
    H16      H        0.71210    0.67150    0.30680    1.000
    H17      H        0.19930    0.49080    0.84740    1.000
    H18      H        0.08830    0.39460    0.79080    1.000
    H19      H        0.12670    0.61290    0.75590    1.000
    H20      H        0.01460    0.52240    0.69250    1.000
    H21      H        0.56640    0.84950    0.86460    1.000
    H22      H        0.60100    0.89770    0.78960    1.000
    H23      H        0.67010    0.03340    0.97660    1.000
    H24      H        0.67980    0.06670    0.88860    1.000
