data_functionalizedCrystal
_audit_creation_method	'EQeq! by Chris Wilmer'
_symmetry_space_group_name_H-M	'P1'
_symmetry_Int_Tables_number	1
_symmetry_cell_setting	triclinic
loop_
_symmetry_equiv_pos_as_xyz
  x,y,z
_cell_length_a	8.4136
_cell_length_b	9.2474
_cell_length_c	12.8074
_cell_angle_alpha	90
_cell_angle_beta	105.969
_cell_angle_gamma	90
loop_
_atom_site_label
_atom_site_type_symbol
_atom_site_fract_x
_atom_site_fract_y
_atom_site_fract_z
_atom_site_charge
Mof_Mn	Mn	0.25696	0.74836	0.01037	0.791
Mof_N 	N 	0.32612	0.79887	0.18829	-0.12
Mof_N 	N 	0.26914	0.80173	0.26201	-0.02
Mof_N 	N 	0.2123	0.80815	0.33564	-0.121
Mof_N 	N 	0.04194	0.62059	0.01788	-0.126
Mof_N 	N 	0.10713	0.94709	0.97102	-0.128
Mof_N 	N 	0.48179	0.87458	0.00632	-0.123
Mof_N 	N 	0.42867	0.55836	0.05509	-0.116
Mof_Mn	Mn	0.74304	0.24836	0.48963	0.791
Mof_N 	N 	0.67388	0.29887	0.31171	-0.118
Mof_N 	N 	0.73086	0.30173	0.23799	-0.019
Mof_N 	N 	0.7877	0.30815	0.16436	-0.119
Mof_N 	N 	0.95806	0.12059	0.48212	-0.13
Mof_N 	N 	0.89287	0.44709	0.52898	-0.127
Mof_N 	N 	0.51821	0.37458	0.49368	-0.117
Mof_N 	N 	0.57133	0.05836	0.44491	-0.115
Mof_Mn	Mn	0.74304	0.25164	0.98963	0.783
Mof_N 	N 	0.67388	0.20113	0.81171	-0.119
Mof_N 	N 	0.73086	0.19827	0.73799	-0.02
Mof_N 	N 	0.7877	0.19185	0.66436	-0.121
Mof_N 	N 	0.95806	0.37941	0.98212	-0.134
Mof_N 	N 	0.89287	0.05291	0.02898	-0.12
Mof_N 	N 	0.51821	0.12542	0.99368	-0.121
Mof_N 	N 	0.57133	0.44164	0.94491	-0.119
Mof_Mn	Mn	0.25696	0.75164	0.51037	0.79
Mof_N 	N 	0.32612	0.70113	0.68829	-0.119
Mof_N 	N 	0.26914	0.69827	0.76201	-0.02
Mof_N 	N 	0.2123	0.69185	0.83564	-0.121
Mof_N 	N 	0.04194	0.87941	0.51788	-0.129
Mof_N 	N 	0.10713	0.55291	0.47102	-0.122
Mof_N 	N 	0.48179	0.62542	0.50632	-0.119
Mof_N 	N 	0.42867	0.94164	0.55509	-0.122
Mof_N 	N 	-0	0.5	-0	-0.016
Mof_N 	N 	3.63882e-33	-6.58748e-33	0.5	-0.015
Mof_N 	N 	-0	0	-0	-0.013
Mof_N 	N 	3.63882e-33	0.5	0.5	-0.018
Mof_N 	N 	0.5	0	-0	-0.016
Mof_N 	N 	0.5	0.5	0.5	-0.027
Mof_N 	N 	0.5	0.5	-0	-0.023
Mof_N 	N 	0.5	-6.58748e-33	0.5	-0.022
_end
