data_functionalizedCrystal
_audit_creation_method	'EQeq! by Chris Wilmer'
_symmetry_space_group_name_H-M	'P1'
_symmetry_Int_Tables_number	1
_symmetry_cell_setting	triclinic
loop_
_symmetry_equiv_pos_as_xyz
  x,y,z
_cell_length_a	14.2343
_cell_length_b	17.2526
_cell_length_c	7.2908
_cell_angle_alpha	90
_cell_angle_beta	90
_cell_angle_gamma	90
loop_
_atom_site_label
_atom_site_type_symbol
_atom_site_fract_x
_atom_site_fract_y
_atom_site_fract_z
_atom_site_charge
Mof_N 	N 	0.1485	0.2305	0.2917	-0.249
Mof_C 	C 	0.0998	0.2217	0.169	0.12
Mof_N 	N 	0.6485	0.7305	0.2917	-0.25
Mof_C 	C 	0.5998	0.7217	0.169	0.119
Mof_N 	N 	0.8515	0.7695	0.2917	-0.251
Mof_C 	C 	0.9002	0.7783	0.169	0.119
Mof_N 	N 	0.3515	0.2695	0.2917	-0.25
Mof_C 	C 	0.4002	0.2783	0.169	0.12
Mof_N 	N 	0.8515	0.2305	0.7083	-0.249
Mof_C 	C 	0.9002	0.2217	0.831	0.099
Mof_N 	N 	0.3515	0.7305	0.7083	-0.248
Mof_C 	C 	0.4002	0.7217	0.831	0.097
Mof_N 	N 	0.1485	0.7695	0.7083	-0.248
Mof_C 	C 	0.0998	0.7783	0.831	0.096
Mof_N 	N 	0.6485	0.2695	0.7083	-0.248
Mof_C 	C 	0.5998	0.2783	0.831	0.098
Mof_N 	N 	0.8515	0.7695	0.7083	-0.25
Mof_C 	C 	0.9002	0.7783	0.831	0.097
Mof_N 	N 	0.3515	0.2695	0.7083	-0.248
Mof_C 	C 	0.4002	0.2783	0.831	0.098
Mof_N 	N 	0.1485	0.2305	0.7083	-0.247
Mof_C 	C 	0.0998	0.2217	0.831	0.098
Mof_N 	N 	0.6485	0.7305	0.7083	-0.249
Mof_C 	C 	0.5998	0.7217	0.831	0.097
Mof_N 	N 	0.1485	0.7695	0.2917	-0.25
Mof_C 	C 	0.0998	0.7783	0.169	0.118
Mof_N 	N 	0.6485	0.2695	0.2917	-0.25
Mof_C 	C 	0.5998	0.2783	0.169	0.12
Mof_N 	N 	0.8515	0.2305	0.2917	-0.251
Mof_C 	C 	0.9002	0.2217	0.169	0.121
Mof_N 	N 	0.3515	0.7305	0.2917	-0.25
Mof_C 	C 	0.4002	0.7217	0.169	0.119
Mof_Co	Co	0.25	0.25	0.5	1.138
Mof_Co	Co	0.75	0.75	0.5	1.137
Mof_Co	Co	0.75	0.25	0.5	1.138
Mof_Co	Co	0.25	0.75	0.5	1.137
Mof_N 	N 	0.2852	0.1334	0.5	-0.245
Mof_C 	C 	0.3155	0.0662	0.5	0.1
Mof_N 	N 	0.7852	0.6334	0.5	-0.246
Mof_C 	C 	0.8155	0.5662	0.5	0.095
Mof_N 	N 	0.7148	0.8666	0.5	-0.245
Mof_C 	C 	0.6845	0.9338	0.5	0.086
Mof_N 	N 	0.2148	0.3666	0.5	-0.247
Mof_C 	C 	0.1845	0.4338	0.5	0.102
Mof_N 	N 	0.7148	0.1334	0.5	-0.246
Mof_C 	C 	0.6845	0.0662	0.5	0.099
Mof_N 	N 	0.2148	0.6334	0.5	-0.247
Mof_C 	C 	0.1845	0.5662	0.5	0.102
Mof_N 	N 	0.2852	0.8666	0.5	-0.245
Mof_C 	C 	0.3155	0.9338	0.5	0.087
Mof_N 	N 	0.7852	0.3666	0.5	-0.246
Mof_C 	C 	0.8155	0.4338	0.5	0.095
Mof_C 	C 	0.0458	0.2205	-0	-0.041
Mof_C 	C 	0.5458	0.7205	-0	-0.049
Mof_C 	C 	0.9542	0.7795	-0	-0.057
Mof_C 	C 	0.4542	0.2795	-0	-0.049
Mof_C 	C 	0.9542	0.2205	-0	-0.057
Mof_C 	C 	0.4542	0.7205	-0	-0.049
Mof_C 	C 	0.0458	0.7795	-0	-0.042
Mof_C 	C 	0.5458	0.2795	-0	-0.049
Mof_C 	C 	0.3708	-1.76236e-33	0.5	-0.068
Mof_C 	C 	0.8708	0.5	0.5	-0.069
Mof_C 	C 	0.6292	-1.76236e-33	0.5	-0.067
Mof_C 	C 	0.1292	0.5	0.5	-0.088
Mof_C 	C 	0.4643	1.76236e-33	0.411	-0.01
Mof_C 	C 	0.9643	0.5	0.411	-0.029
Mof_C 	C 	0.5357	1.76236e-33	0.411	-0.011
Mof_C 	C 	0.0357	0.5	0.411	-0.003
Mof_C 	C 	0.5357	0	0.589	-0.011
Mof_C 	C 	0.0357	0.5	0.589	-0.003
Mof_C 	C 	0.4643	0	0.589	-0.011
Mof_C 	C 	0.9643	0.5	0.589	-0.03
Mof_N 	N 	0.5	0.8747	0.2202	-0.118
Mof_C 	C 	0.5	0.9321	0.296	0.077
Mof_N 	N 	1.30406e-33	0.3747	0.2202	-0.119
Mof_C 	C 	4.09317e-33	0.4321	0.296	0.091
Mof_N 	N 	0.5	0.1253	0.2202	-0.119
Mof_C 	C 	0.5	0.0679	0.296	0.089
Mof_N 	N 	-2.22066e-33	0.6253	0.2202	-0.119
Mof_C 	C 	-2.95627e-33	0.5679	0.296	0.091
Mof_N 	N 	0.5	0.8747	0.7798	-0.124
Mof_C 	C 	0.5	0.9321	0.704	0.07
Mof_N 	N 	5.02228e-33	0.3747	0.7798	-0.125
Mof_C 	C 	4.87671e-33	0.4321	0.704	0.085
Mof_N 	N 	0.5	0.1253	0.7798	-0.125
Mof_C 	C 	0.5	0.0679	0.704	0.082
Mof_N 	N 	-5.55188e-33	0.6253	0.7798	-0.125
Mof_C 	C 	-2.17273e-33	0.5679	0.704	0.085
_end
