# CIF file generated by openbabel 3.1.0, see https://openbabel.org
data_I
_chemical_name_common 'image0'
_cell_length_a 12.4035
_cell_length_b 14.7004
_cell_length_c 12.6916
_cell_angle_alpha 90
_cell_angle_beta 114.475
_cell_angle_gamma 90
_space_group_name_H-M_alt 'P 1'
_space_group_name_Hall 'P 1'
loop_
    _symmetry_equiv_pos_as_xyz
    x,y,z
loop_
    _atom_site_label
    _atom_site_type_symbol
    _atom_site_fract_x
    _atom_site_fract_y
    _atom_site_fract_z
    _atom_site_occupancy
    Mn1      Mn       0.74606    0.63966    0.50020    1.000
    O1       O        0.69176    0.67483    0.63304    1.000
    O2       O        0.56148    0.59023    0.38927    1.000
    O3       O        0.31393    0.86895    0.87099    1.000
    O4       O        0.70806    0.99725    0.97387    1.000
    C1       C        0.59671    0.67199    0.64544    1.000
    N1       N        0.54338    0.56492    0.28119    1.000
    C2       C        0.57361    0.74643    0.71453    1.000
    O5       O        0.51718    0.61235    0.60548    1.000
    O6       O        0.82309    0.94899    0.88794    1.000
    C3       C        0.46764    0.61232    0.19036    1.000
    C4       C        0.60286    0.49352    0.26615    1.000
    C5       C        0.46658    0.74694    0.72578    1.000
    C6       C        0.65782    0.81307    0.76929    1.000
    H1       H        0.42730    0.66170    0.20240    1.000
    C7       C        0.44930    0.58817    0.07945    1.000
    C8       C        0.58713    0.46720    0.15657    1.000
    H2       H        0.65510    0.46150    0.33020    1.000
    H3       H        0.41060    0.70210    0.68940    1.000
    C9       C        0.44230    0.81357    0.79073    1.000
    C10      C        0.63549    0.87936    0.83659    1.000
    H4       H        0.72900    0.81350    0.76110    1.000
    H5       H        0.39660    0.62140    0.01710    1.000
    C11      C        0.50937    0.51402    0.05965    1.000
    H6       H        0.62890    0.41760    0.14730    1.000
    C12      C        0.52709    0.88014    0.84544    1.000
    C13      C        0.32911    0.80942    0.80759    1.000
    C14      C        0.72995    0.94735    0.90375    1.000
    H7       H        0.51130    0.92550    0.88820    1.000
    O7       O        0.25912    0.74463    0.76013    1.000
    H8       H        0.52000    0.64500    0.37700    1.000
    H9       H        0.50380    0.64500    0.37700    1.000
    H10      H        0.53380    0.64500    0.37700    1.000
    Mn2      Mn       0.75394    0.13966    0.99980    1.000
    O8       O        0.80824    0.17483    0.86696    1.000
    O9       O        0.93852    0.09023    0.11073    1.000
    O10      O        0.18607    0.36895    0.62901    1.000
    O11      O        0.79194    0.49725    0.52613    1.000
    C15      C        0.90329    0.17199    0.85456    1.000
    N2       N        0.95662    0.06492    0.21881    1.000
    C16      C        0.92639    0.24643    0.78547    1.000
    O12      O        0.98282    0.11235    0.89452    1.000
    O13      O        0.67691    0.44899    0.61206    1.000
    C17      C        0.03236    0.11232    0.30964    1.000
    C18      C        0.89714    0.99352    0.23385    1.000
    C19      C        0.03342    0.24694    0.77422    1.000
    C20      C        0.84218    0.31307    0.73071    1.000
    H11      H        0.07270    0.16170    0.29760    1.000
    C21      C        0.05070    0.08817    0.42055    1.000
    C22      C        0.91287    0.96720    0.34343    1.000
    H12      H        0.84490    0.96150    0.16980    1.000
    H13      H        0.08940    0.20210    0.81060    1.000
    C23      C        0.05770    0.31357    0.70927    1.000
    C24      C        0.86451    0.37936    0.66341    1.000
    H14      H        0.77100    0.31350    0.73890    1.000
    H15      H        0.10340    0.12140    0.48290    1.000
    C25      C        0.99063    0.01402    0.44035    1.000
    H16      H        0.87110    0.91760    0.35270    1.000
    C26      C        0.97291    0.38014    0.65456    1.000
    C27      C        0.17089    0.30942    0.69241    1.000
    C28      C        0.77005    0.44735    0.59625    1.000
    H17      H        0.98870    0.42550    0.61180    1.000
    O14      O        0.24088    0.24463    0.73987    1.000
    H18      H        0.98000    0.14500    0.12300    1.000
    H19      H        0.99620    0.14500    0.12300    1.000
    H20      H        0.96620    0.14500    0.12300    1.000
    Mn3      Mn       0.25394    0.36034    0.49980    1.000
    O15      O        0.30824    0.32517    0.36696    1.000
    O16      O        0.43852    0.40977    0.61073    1.000
    O17      O        0.68607    0.13105    0.12901    1.000
    O18      O        0.29194    0.00275    0.02613    1.000
    C29      C        0.40329    0.32801    0.35456    1.000
    N3       N        0.45662    0.43508    0.71881    1.000
    C30      C        0.42639    0.25357    0.28547    1.000
    O19      O        0.48282    0.38765    0.39452    1.000
    O20      O        0.17691    0.05101    0.11206    1.000
    C31      C        0.53236    0.38768    0.80964    1.000
    C32      C        0.39714    0.50648    0.73385    1.000
    C33      C        0.53342    0.25306    0.27422    1.000
    C34      C        0.34218    0.18693    0.23071    1.000
    H21      H        0.57270    0.33830    0.79760    1.000
    C35      C        0.55070    0.41183    0.92055    1.000
    C36      C        0.41287    0.53280    0.84343    1.000
    H22      H        0.34490    0.53850    0.66980    1.000
    H23      H        0.58940    0.29790    0.31060    1.000
    C37      C        0.55770    0.18643    0.20927    1.000
    C38      C        0.36451    0.12064    0.16341    1.000
    H24      H        0.27100    0.18650    0.23890    1.000
    H25      H        0.60340    0.37860    0.98290    1.000
    C39      C        0.49063    0.48598    0.94035    1.000
    H26      H        0.37110    0.58240    0.85270    1.000
    C40      C        0.47291    0.11986    0.15456    1.000
    C41      C        0.67089    0.19058    0.19241    1.000
    C42      C        0.27005    0.05265    0.09625    1.000
    H27      H        0.48870    0.07450    0.11180    1.000
    O21      O        0.74088    0.25537    0.23987    1.000
    H28      H        0.48000    0.35500    0.62300    1.000
    H29      H        0.49620    0.35500    0.62300    1.000
    H30      H        0.46620    0.35500    0.62300    1.000
    Mn4      Mn       0.24606    0.86034    0.00020    1.000
    O22      O        0.19176    0.82517    0.13304    1.000
    O23      O        0.06148    0.90977    0.88927    1.000
    O24      O        0.81393    0.63105    0.37099    1.000
    O25      O        0.20806    0.50275    0.47387    1.000
    C43      C        0.09671    0.82801    0.14544    1.000
    N4       N        0.04338    0.93508    0.78119    1.000
    C44      C        0.07361    0.75357    0.21453    1.000
    O26      O        0.01718    0.88765    0.10548    1.000
    O27      O        0.32309    0.55101    0.38794    1.000
    C45      C        0.96764    0.88768    0.69036    1.000
    C46      C        0.10286    0.00648    0.76615    1.000
    C47      C        0.96658    0.75306    0.22578    1.000
    C48      C        0.15782    0.68693    0.26929    1.000
    H31      H        0.92730    0.83830    0.70240    1.000
    C49      C        0.94930    0.91183    0.57945    1.000
    C50      C        0.08713    0.03280    0.65657    1.000
    H32      H        0.15510    0.03850    0.83020    1.000
    H33      H        0.91060    0.79790    0.18940    1.000
    C51      C        0.94230    0.68643    0.29073    1.000
    C52      C        0.13549    0.62064    0.33659    1.000
    H34      H        0.22900    0.68650    0.26110    1.000
    H35      H        0.89660    0.87860    0.51710    1.000
    C53      C        0.00937    0.98598    0.55965    1.000
    H36      H        0.12890    0.08240    0.64730    1.000
    C54      C        0.02709    0.61986    0.34544    1.000
    C55      C        0.82911    0.69058    0.30759    1.000
    C56      C        0.22995    0.55265    0.40375    1.000
    H37      H        0.01130    0.57450    0.38820    1.000
    O28      O        0.75912    0.75537    0.26013    1.000
    H38      H        0.02000    0.85500    0.87700    1.000
    H39      H        0.00380    0.85500    0.87700    1.000
    H40      H        0.03380    0.85500    0.87700    1.000
    Mn5      Mn       0.50000    0.50000    0.50000    1.000
    Mn6      Mn       0.00000    0.00000    0.00000    1.000
