# CIF file generated by openbabel 3.1.0, see https://openbabel.org
data_I
_chemical_name_common 'image0'
_cell_length_a 22.9206
_cell_length_b 7.7047
_cell_length_c 19.3208
_cell_angle_alpha 90
_cell_angle_beta 114.596
_cell_angle_gamma 90
_space_group_name_H-M_alt 'P 1'
_space_group_name_Hall 'P 1'
loop_
    _symmetry_equiv_pos_as_xyz
    x,y,z
loop_
    _atom_site_label
    _atom_site_type_symbol
    _atom_site_fract_x
    _atom_site_fract_y
    _atom_site_fract_z
    _atom_site_occupancy
    Cd1      Cd       0.24758    0.28420    0.27249    1.000
    O1       O        0.24950    0.08010    0.17776    1.000
    O2       O        0.25425    0.85920    0.11015    1.000
    C1       C        0.25129    0.01800    0.11836    1.000
    C2       C        0.25072    0.13790    0.05730    1.000
    C3       C        0.24870    0.31750    0.06520    1.000
    H1       H        0.24780    0.36380    0.10980    1.000
    C4       C        0.25200    0.07160    0.99125    1.000
    H2       H        0.25330    0.95090    0.98490    1.000
    N1       N        0.32783    0.09100    0.34824    1.000
    N2       N        0.33439    0.92090    0.33077    1.000
    C5       C        0.37493    0.12460    0.41360    1.000
    H3       H        0.38190    0.23170    0.43910    1.000
    C6       C        0.38510    0.85880    0.38650    1.000
    H4       H        0.40040    0.74460    0.38940    1.000
    N3       N        0.41237    0.98270    0.43945    1.000
    C7       C        0.47250    0.97020    0.50910    1.000
    H5       H        0.47960    0.84990    0.52730    1.000
    H6       H        0.46980    0.04320    0.54920    1.000
    N4       N        0.16821    0.08520    0.26511    1.000
    N5       N        0.16871    0.91150    0.24930    1.000
    C8       C        0.11980    0.11160    0.28230    1.000
    H7       H        0.10880    0.21940    0.29630    1.000
    C9       C        0.12038    0.84160    0.25750    1.000
    H8       H        0.10970    0.72310    0.25050    1.000
    N6       N        0.08769    0.96210    0.27730    1.000
    C10      C        0.02840    0.94050    0.28850    1.000
    H9       H        0.02420    0.03560    0.31980    1.000
    H10      H        0.02990    0.83090    0.31490    1.000
    Cd2      Cd       0.74758    0.78420    0.27249    1.000
    O3       O        0.74950    0.58010    0.17776    1.000
    O4       O        0.75425    0.35920    0.11015    1.000
    C11      C        0.75129    0.51800    0.11836    1.000
    C12      C        0.75072    0.63790    0.05730    1.000
    C13      C        0.74870    0.81750    0.06520    1.000
    H11      H        0.74780    0.86380    0.10980    1.000
    C14      C        0.75200    0.57160    0.99125    1.000
    H12      H        0.75330    0.45090    0.98490    1.000
    N7       N        0.82783    0.59100    0.34824    1.000
    N8       N        0.83439    0.42090    0.33077    1.000
    C15      C        0.87493    0.62460    0.41360    1.000
    H13      H        0.88190    0.73170    0.43910    1.000
    C16      C        0.88510    0.35880    0.38650    1.000
    H14      H        0.90040    0.24460    0.38940    1.000
    N9       N        0.91237    0.48270    0.43945    1.000
    C17      C        0.97250    0.47020    0.50910    1.000
    H15      H        0.97960    0.34990    0.52730    1.000
    H16      H        0.96980    0.54320    0.54920    1.000
    N10      N        0.66821    0.58520    0.26511    1.000
    N11      N        0.66871    0.41150    0.24930    1.000
    C18      C        0.61980    0.61160    0.28230    1.000
    H17      H        0.60880    0.71940    0.29630    1.000
    C19      C        0.62038    0.34160    0.25750    1.000
    H18      H        0.60970    0.22310    0.25050    1.000
    N12      N        0.58769    0.46210    0.27730    1.000
    C20      C        0.52840    0.44050    0.28850    1.000
    H19      H        0.52420    0.53560    0.31980    1.000
    H20      H        0.52990    0.33090    0.31490    1.000
    Cd3      Cd       0.75242    0.28420    0.22751    1.000
    O5       O        0.75050    0.08010    0.32224    1.000
    O6       O        0.74575    0.85920    0.38985    1.000
    C21      C        0.74871    0.01800    0.38164    1.000
    C22      C        0.74928    0.13790    0.44270    1.000
    C23      C        0.75130    0.31750    0.43480    1.000
    H21      H        0.75220    0.36380    0.39020    1.000
    C24      C        0.74800    0.07160    0.50875    1.000
    H22      H        0.74670    0.95090    0.51510    1.000
    N13      N        0.67217    0.09100    0.15176    1.000
    N14      N        0.66561    0.92090    0.16923    1.000
    C25      C        0.62507    0.12460    0.08640    1.000
    H23      H        0.61810    0.23170    0.06090    1.000
    C26      C        0.61490    0.85880    0.11350    1.000
    H24      H        0.59960    0.74460    0.11060    1.000
    N15      N        0.58763    0.98270    0.06055    1.000
    C27      C        0.52750    0.97020    0.99090    1.000
    H25      H        0.52040    0.84990    0.97270    1.000
    H26      H        0.53020    0.04320    0.95080    1.000
    N16      N        0.83179    0.08520    0.23489    1.000
    N17      N        0.83129    0.91150    0.25070    1.000
    C28      C        0.88020    0.11160    0.21770    1.000
    H27      H        0.89120    0.21940    0.20370    1.000
    C29      C        0.87962    0.84160    0.24250    1.000
    H28      H        0.89030    0.72310    0.24950    1.000
    N18      N        0.91231    0.96210    0.22270    1.000
    C30      C        0.97160    0.94050    0.21150    1.000
    H29      H        0.97580    0.03560    0.18020    1.000
    H30      H        0.97010    0.83090    0.18510    1.000
    Cd4      Cd       0.25242    0.78420    0.22751    1.000
    O7       O        0.25050    0.58010    0.32224    1.000
    O8       O        0.24575    0.35920    0.38985    1.000
    C31      C        0.24871    0.51800    0.38164    1.000
    C32      C        0.24928    0.63790    0.44270    1.000
    C33      C        0.25130    0.81750    0.43480    1.000
    H31      H        0.25220    0.86380    0.39020    1.000
    C34      C        0.24800    0.57160    0.50875    1.000
    H32      H        0.24670    0.45090    0.51510    1.000
    N19      N        0.17217    0.59100    0.15176    1.000
    N20      N        0.16561    0.42090    0.16923    1.000
    C35      C        0.12507    0.62460    0.08640    1.000
    H33      H        0.11810    0.73170    0.06090    1.000
    C36      C        0.11490    0.35880    0.11350    1.000
    H34      H        0.09960    0.24460    0.11060    1.000
    N21      N        0.08763    0.48270    0.06055    1.000
    C37      C        0.02750    0.47020    0.99090    1.000
    H35      H        0.02040    0.34990    0.97270    1.000
    H36      H        0.03020    0.54320    0.95080    1.000
    N22      N        0.33179    0.58520    0.23489    1.000
    N23      N        0.33129    0.41150    0.25070    1.000
    C38      C        0.38020    0.61160    0.21770    1.000
    H37      H        0.39120    0.71940    0.20370    1.000
    C39      C        0.37962    0.34160    0.24250    1.000
    H38      H        0.39030    0.22310    0.24950    1.000
    N24      N        0.41231    0.46210    0.22270    1.000
    C40      C        0.47160    0.44050    0.21150    1.000
    H39      H        0.47580    0.53560    0.18020    1.000
    H40      H        0.47010    0.33090    0.18510    1.000
    Cd5      Cd       0.75242    0.71580    0.72751    1.000
    O9       O        0.75050    0.91990    0.82224    1.000
    O10      O        0.74575    0.14080    0.88985    1.000
    C41      C        0.74871    0.98200    0.88164    1.000
    C42      C        0.74928    0.86210    0.94270    1.000
    C43      C        0.75130    0.68250    0.93480    1.000
    H41      H        0.75220    0.63620    0.89020    1.000
    C44      C        0.74800    0.92840    0.00875    1.000
    H42      H        0.74670    0.04910    0.01510    1.000
    N25      N        0.67217    0.90900    0.65176    1.000
    N26      N        0.66561    0.07910    0.66923    1.000
    C45      C        0.62507    0.87540    0.58640    1.000
    H43      H        0.61810    0.76830    0.56090    1.000
    C46      C        0.61490    0.14120    0.61350    1.000
    H44      H        0.59960    0.25540    0.61060    1.000
    N27      N        0.58763    0.01730    0.56055    1.000
    C47      C        0.52750    0.02980    0.49090    1.000
    H45      H        0.52040    0.15010    0.47270    1.000
    H46      H        0.53020    0.95680    0.45080    1.000
    N28      N        0.83179    0.91480    0.73489    1.000
    N29      N        0.83129    0.08850    0.75070    1.000
    C48      C        0.88020    0.88840    0.71770    1.000
    H47      H        0.89120    0.78060    0.70370    1.000
    C49      C        0.87962    0.15840    0.74250    1.000
    H48      H        0.89030    0.27690    0.74950    1.000
    N30      N        0.91231    0.03790    0.72270    1.000
    C50      C        0.97160    0.05950    0.71150    1.000
    H49      H        0.97580    0.96440    0.68020    1.000
    H50      H        0.97010    0.16910    0.68510    1.000
    Cd6      Cd       0.25242    0.21580    0.72751    1.000
    O11      O        0.25050    0.41990    0.82224    1.000
    O12      O        0.24575    0.64080    0.88985    1.000
    C51      C        0.24871    0.48200    0.88164    1.000
    C52      C        0.24928    0.36210    0.94270    1.000
    C53      C        0.25130    0.18250    0.93480    1.000
    H51      H        0.25220    0.13620    0.89020    1.000
    C54      C        0.24800    0.42840    0.00875    1.000
    H52      H        0.24670    0.54910    0.01510    1.000
    N31      N        0.17217    0.40900    0.65176    1.000
    N32      N        0.16561    0.57910    0.66923    1.000
    C55      C        0.12507    0.37540    0.58640    1.000
    H53      H        0.11810    0.26830    0.56090    1.000
    C56      C        0.11490    0.64120    0.61350    1.000
    H54      H        0.09960    0.75540    0.61060    1.000
    N33      N        0.08763    0.51730    0.56055    1.000
    C57      C        0.02750    0.52980    0.49090    1.000
    H55      H        0.02040    0.65010    0.47270    1.000
    H56      H        0.03020    0.45680    0.45080    1.000
    N34      N        0.33179    0.41480    0.73489    1.000
    N35      N        0.33129    0.58850    0.75070    1.000
    C58      C        0.38020    0.38840    0.71770    1.000
    H57      H        0.39120    0.28060    0.70370    1.000
    C59      C        0.37962    0.65840    0.74250    1.000
    H58      H        0.39030    0.77690    0.74950    1.000
    N36      N        0.41231    0.53790    0.72270    1.000
    C60      C        0.47160    0.55950    0.71150    1.000
    H59      H        0.47580    0.46440    0.68020    1.000
    H60      H        0.47010    0.66910    0.68510    1.000
    Cd7      Cd       0.24758    0.71580    0.77249    1.000
    O13      O        0.24950    0.91990    0.67776    1.000
    O14      O        0.25425    0.14080    0.61015    1.000
    C61      C        0.25129    0.98200    0.61836    1.000
    C62      C        0.25072    0.86210    0.55730    1.000
    C63      C        0.24870    0.68250    0.56520    1.000
    H61      H        0.24780    0.63620    0.60980    1.000
    C64      C        0.25200    0.92840    0.49125    1.000
    H62      H        0.25330    0.04910    0.48490    1.000
    N37      N        0.32783    0.90900    0.84824    1.000
    N38      N        0.33439    0.07910    0.83077    1.000
    C65      C        0.37493    0.87540    0.91360    1.000
    H63      H        0.38190    0.76830    0.93910    1.000
    C66      C        0.38510    0.14120    0.88650    1.000
    H64      H        0.40040    0.25540    0.88940    1.000
    N39      N        0.41237    0.01730    0.93945    1.000
    C67      C        0.47250    0.02980    0.00910    1.000
    H65      H        0.47960    0.15010    0.02730    1.000
    H66      H        0.46980    0.95680    0.04920    1.000
    N40      N        0.16821    0.91480    0.76511    1.000
    N41      N        0.16871    0.08850    0.74930    1.000
    C68      C        0.11980    0.88840    0.78230    1.000
    H67      H        0.10880    0.78060    0.79630    1.000
    C69      C        0.12038    0.15840    0.75750    1.000
    H68      H        0.10970    0.27690    0.75050    1.000
    N42      N        0.08769    0.03790    0.77730    1.000
    C70      C        0.02840    0.05950    0.78850    1.000
    H69      H        0.02420    0.96440    0.81980    1.000
    H70      H        0.02990    0.16910    0.81490    1.000
    Cd8      Cd       0.74758    0.21580    0.77249    1.000
    O15      O        0.74950    0.41990    0.67776    1.000
    O16      O        0.75425    0.64080    0.61015    1.000
    C71      C        0.75129    0.48200    0.61836    1.000
    C72      C        0.75072    0.36210    0.55730    1.000
    C73      C        0.74870    0.18250    0.56520    1.000
    H71      H        0.74780    0.13620    0.60980    1.000
    C74      C        0.75200    0.42840    0.49125    1.000
    H72      H        0.75330    0.54910    0.48490    1.000
    N43      N        0.82783    0.40900    0.84824    1.000
    N44      N        0.83439    0.57910    0.83077    1.000
    C75      C        0.87493    0.37540    0.91360    1.000
    H73      H        0.88190    0.26830    0.93910    1.000
    C76      C        0.88510    0.64120    0.88650    1.000
    H74      H        0.90040    0.75540    0.88940    1.000
    N45      N        0.91237    0.51730    0.93945    1.000
    C77      C        0.97250    0.52980    0.00910    1.000
    H75      H        0.97960    0.65010    0.02730    1.000
    H76      H        0.96980    0.45680    0.04920    1.000
    N46      N        0.66821    0.41480    0.76511    1.000
    N47      N        0.66871    0.58850    0.74930    1.000
    C78      C        0.61980    0.38840    0.78230    1.000
    H77      H        0.60880    0.28060    0.79630    1.000
    C79      C        0.62038    0.65840    0.75750    1.000
    H78      H        0.60970    0.77690    0.75050    1.000
    N48      N        0.58769    0.53790    0.77730    1.000
    C80      C        0.52840    0.55950    0.78850    1.000
    H79      H        0.52420    0.46440    0.81980    1.000
    H80      H        0.52990    0.66910    0.81490    1.000
