data_functionalizedCrystal
_audit_creation_method	'EQeq! by Chris Wilmer'
_symmetry_space_group_name_H-M	'P1'
_symmetry_Int_Tables_number	1
_symmetry_cell_setting	triclinic
loop_
_symmetry_equiv_pos_as_xyz
  x,y,z
_cell_length_a	8.085
_cell_length_b	14.316
_cell_length_c	29.775
_cell_angle_alpha	90
_cell_angle_beta	103.04
_cell_angle_gamma	90
loop_
_atom_site_label
_atom_site_type_symbol
_atom_site_fract_x
_atom_site_fract_y
_atom_site_fract_z
_atom_site_charge
Mof_Pr	Pr	0.26277	0.96233	0.52004	2.435
Mof_O 	O 	0.2237	0.9567	0.4344	-0.581
Mof_O 	O 	0.9851	0.9949	0.4515	-0.74
Mof_C 	C 	0.0698	0.974	0.4222	0.535
Mof_C 	C 	0.9765	0.9663	0.3725	-0.449
Mof_C 	C 	0.0976	0.9194	0.3457	0.091
Mof_N 	N 	0.0234	0.9023	0.2955	-0.109
Mof_C 	C 	0.9973	0.9906	0.2675	-0.034
Mof_C 	C 	0.9089	0.9677	0.2179	-0.06
Mof_C 	C 	0.8564	0.85	0.2873	-0.054
Mof_C 	C 	0.8091	0.8155	0.2371	-0.06
Mof_C 	C 	0.1479	0.8398	0.2778	-0.065
Mof_C 	C 	0.0961	0.8355	0.2254	-0.058
Mof_N 	N 	0.9155	0.865	0.2092	-0.103
Mof_C 	C 	0.8537	0.8464	0.1585	0.125
Mof_C 	C 	0.8391	0.743	0.1462	-0.507
Mof_C 	C 	0.79	0.7267	0.095	0.552
Mof_O 	O 	0.7413	0.7919	0.0685	-0.37
Mof_O 	O 	0.3112	0.8551	0.5827	-0.647
Mof_O 	O 	0.234	0.1371	0.5119	-0.601
Mof_O 	O 	0.4753	0.0964	0.4954	-0.763
Mof_C 	C 	0.3714	0.1578	0.5013	0.695
Mof_C 	C 	0.419	0.257	0.4959	-0.734
Mof_C 	C 	0.3073	0.322	0.4912	1.022
Mof_N 	N 	0.3637	0.4267	0.4895	-0.236
Mof_C 	C 	0.4578	0.4567	0.539	-0.003
Mof_C 	C 	0.4863	0.4403	0.4603	-0.073
Mof_C 	C 	0.1992	0.4868	0.4736	-0.038
Mof_C 	C 	0.2182	0.5825	0.4708	-0.07
Mof_N 	N 	0.5919	0.4044	0.5157	-0.192
Mof_C 	C 	0.5573	0.2956	0.5163	0.772
Mof_H 	H 	0.9445	0.0272	0.3601	0.141
Mof_H 	H 	0.8768	0.9284	0.3699	0.137
Mof_H 	H 	0.1942	0.9597	0.3482	-0.006
Mof_H 	H 	0.1334	0.8607	0.3603	-0.004
Mof_H 	H 	0.1051	0.0194	0.2682	0.031
Mof_H 	H 	0.9275	0.0327	0.2802	0.023
Mof_H 	H 	0.7924	0.9872	0.2123	0.043
Mof_H 	H 	0.9649	0.0001	0.1974	0.036
Mof_H 	H 	0.77	0.8906	0.2936	0.034
Mof_H 	H 	0.8689	0.797	0.3075	0.037
Mof_H 	H 	0.824	0.7491	0.2359	0.037
Mof_H 	H 	0.6923	0.8309	0.2244	0.038
Mof_H 	H 	0.148	0.7785	0.2908	0.041
Mof_H 	H 	0.2595	0.8664	0.2869	0.037
Mof_H 	H 	0.1671	0.8758	0.2121	0.039
Mof_H 	H 	0.1077	0.7724	0.2157	0.032
Mof_H 	H 	0.9279	0.8746	0.1413	-0.007
Mof_H 	H 	0.7436	0.8745	0.1486	-0.005
Mof_H 	H 	0.7535	0.7158	0.1599	0.171
Mof_H 	H 	0.9466	0.7141	0.159	0.177
Mof_H 	H 	0.4675	0.2605	0.4693	0.158
Mof_H 	H 	0.5085	0.2721	0.522	-0.161
Mof_H 	H 	0.3338	0.2928	0.5061	-0.285
Mof_H 	H 	0.4027	0.2682	0.4634	0.035
Mof_H 	H 	0.2427	0.3165	0.5145	-0.178
Mof_H 	H 	0.232	0.3091	0.462	-0.295
Mof_H 	H 	0.5587	0.4197	0.5484	0.072
Mof_H 	H 	0.3873	0.4465	0.5605	0.024
Mof_H 	H 	0.3655	0.4322	0.4549	0.104
Mof_H 	H 	0.5285	0.4058	0.4376	0.046
Mof_H 	H 	0.1057	0.4678	0.4864	0.034
Mof_H 	H 	0.1674	0.4752	0.441	0.03
Mof_H 	H 	0.1676	0.6035	0.4953	0.062
Mof_H 	H 	0.1676	0.6158	0.4431	0.033
Mof_H 	H 	0.6411	0.2676	0.5023	-0.24
Mof_H 	H 	0.5832	0.2762	0.548	-0.159
Mof_Pr	Pr	0.23723	0.46233	0.97996	2.449
Mof_O 	O 	0.2763	0.4567	0.0656	-0.587
Mof_O 	O 	0.5149	0.4949	0.0485	-0.752
Mof_C 	C 	0.4302	0.474	0.0778	0.561
Mof_C 	C 	0.5235	0.4663	0.1275	-0.491
Mof_C 	C 	0.4024	0.4194	0.1543	0.116
Mof_N 	N 	0.4766	0.4023	0.2045	-0.104
Mof_C 	C 	0.5027	0.4906	0.2325	-0.055
Mof_C 	C 	0.5911	0.4677	0.2821	-0.062
Mof_C 	C 	0.6436	0.35	0.2127	-0.059
Mof_C 	C 	0.6909	0.3155	0.2629	-0.058
Mof_C 	C 	0.3521	0.3398	0.2222	-0.066
Mof_C 	C 	0.4039	0.3355	0.2746	-0.052
Mof_N 	N 	0.5845	0.365	0.2908	-0.105
Mof_C 	C 	0.6463	0.3464	0.3415	0.125
Mof_C 	C 	0.6609	0.243	0.3538	-0.507
Mof_C 	C 	0.71	0.2267	0.405	0.551
Mof_O 	O 	0.7587	0.2919	0.4315	-0.37
Mof_O 	O 	0.1888	0.3551	0.9173	-0.648
Mof_O 	O 	0.266	0.6371	0.9881	-0.604
Mof_O 	O 	0.0247	0.5964	0.0046	-0.766
Mof_C 	C 	0.1286	0.6578	0.9987	0.697
Mof_C 	C 	0.081	0.757	0.0041	-0.742
Mof_C 	C 	0.1927	0.822	0.0088	1.018
Mof_N 	N 	0.1363	0.9267	0.0105	-0.234
Mof_C 	C 	0.0422	0.9567	0.961	-0.011
Mof_C 	C 	0.0137	0.9403	0.0397	-0.08
Mof_C 	C 	0.3008	0.9868	0.0264	-0.043
Mof_C 	C 	0.2818	0.0825	0.0292	-0.066
Mof_N 	N 	0.9081	0.9044	0.9843	-0.19
Mof_C 	C 	0.9427	0.7956	0.9837	0.774
Mof_H 	H 	0.5555	0.5272	0.1399	0.156
Mof_H 	H 	0.6232	0.4284	0.1301	0.149
Mof_H 	H 	0.3058	0.4597	0.1518	-0.012
Mof_H 	H 	0.3666	0.3607	0.1397	-0.01
Mof_H 	H 	0.3949	0.5194	0.2318	0.037
Mof_H 	H 	0.5725	0.5327	0.2198	0.032
Mof_H 	H 	0.7076	0.4872	0.2877	0.042
Mof_H 	H 	0.5351	0.5001	0.3026	0.04
Mof_H 	H 	0.73	0.3906	0.2064	0.035
Mof_H 	H 	0.6311	0.297	0.1925	0.037
Mof_H 	H 	0.676	0.2491	0.2641	0.036
Mof_H 	H 	0.8077	0.3309	0.2756	0.038
Mof_H 	H 	0.352	0.2785	0.2092	0.043
Mof_H 	H 	0.2405	0.3664	0.2131	0.037
Mof_H 	H 	0.3329	0.3758	0.2879	0.039
Mof_H 	H 	0.3923	0.2724	0.2843	0.031
Mof_H 	H 	0.5721	0.3746	0.3587	-0.009
Mof_H 	H 	0.7564	0.3745	0.3514	-0.005
Mof_H 	H 	0.7465	0.2158	0.3401	0.171
Mof_H 	H 	0.5534	0.2141	0.341	0.176
Mof_H 	H 	0.0325	0.7605	0.0307	0.156
Mof_H 	H 	0.9915	0.7721	0.978	-0.157
Mof_H 	H 	0.1662	0.7928	0.9939	-0.281
Mof_H 	H 	0.0973	0.7682	0.0366	0.038
Mof_H 	H 	0.2573	0.8165	0.9855	-0.179
Mof_H 	H 	0.268	0.8091	0.038	-0.295
Mof_H 	H 	0.9413	0.9197	0.9516	0.077
Mof_H 	H 	0.1127	0.9465	0.9395	0.025
Mof_H 	H 	0.1345	0.9322	0.0451	0.105
Mof_H 	H 	0.9715	0.9058	0.0624	0.051
Mof_H 	H 	0.3943	0.9678	0.0136	0.036
Mof_H 	H 	0.3326	0.9752	0.059	0.031
Mof_H 	H 	0.3324	0.1035	0.0047	0.062
Mof_H 	H 	0.3324	0.1158	0.0569	0.033
Mof_H 	H 	0.8589	0.7676	0.9977	-0.24
Mof_H 	H 	0.9168	0.7762	0.952	-0.16
Mof_Pr	Pr	0.73723	0.03767	0.47996	2.436
Mof_O 	O 	0.7763	0.0433	0.5656	-0.58
Mof_O 	O 	0.0149	0.0051	0.5485	-0.739
Mof_C 	C 	0.9302	0.026	0.5778	0.536
Mof_C 	C 	0.0235	0.0337	0.6275	-0.448
Mof_C 	C 	0.9024	0.0806	0.6543	0.092
Mof_N 	N 	0.9766	0.0977	0.7045	-0.108
Mof_C 	C 	0.0027	0.0094	0.7325	-0.033
Mof_C 	C 	0.0911	0.0323	0.7821	-0.06
Mof_C 	C 	0.1436	0.15	0.7127	-0.054
Mof_C 	C 	0.1909	0.1845	0.7629	-0.06
Mof_C 	C 	0.8521	0.1602	0.7222	-0.065
Mof_C 	C 	0.9039	0.1645	0.7746	-0.058
Mof_N 	N 	0.0845	0.135	0.7908	-0.103
Mof_C 	C 	0.1463	0.1536	0.8415	0.125
Mof_C 	C 	0.1609	0.257	0.8538	-0.507
Mof_C 	C 	0.21	0.2733	0.905	0.552
Mof_O 	O 	0.2587	0.2081	0.9315	-0.37
Mof_O 	O 	0.6888	0.1449	0.4173	-0.647
Mof_O 	O 	0.766	0.8629	0.4881	-0.601
Mof_O 	O 	0.5247	0.9036	0.5046	-0.763
Mof_C 	C 	0.6286	0.8422	0.4987	0.695
Mof_C 	C 	0.581	0.743	0.5041	-0.734
Mof_C 	C 	0.6927	0.678	0.5088	1.022
Mof_N 	N 	0.6363	0.5733	0.5105	-0.236
Mof_C 	C 	0.5422	0.5433	0.461	-0.003
Mof_C 	C 	0.5137	0.5597	0.5397	-0.073
Mof_C 	C 	0.8008	0.5132	0.5264	-0.038
Mof_C 	C 	0.7818	0.4175	0.5292	-0.07
Mof_N 	N 	0.4081	0.5956	0.4843	-0.192
Mof_C 	C 	0.4427	0.7044	0.4837	0.772
Mof_H 	H 	0.0555	0.9728	0.6399	0.141
Mof_H 	H 	0.1232	0.0716	0.6301	0.137
Mof_H 	H 	0.8058	0.0403	0.6518	-0.006
Mof_H 	H 	0.8666	0.1393	0.6397	-0.004
Mof_H 	H 	0.8949	0.9806	0.7318	0.031
Mof_H 	H 	0.0725	0.9673	0.7198	0.023
Mof_H 	H 	0.2076	0.0128	0.7877	0.043
Mof_H 	H 	0.0351	0.9999	0.8026	0.036
Mof_H 	H 	0.23	0.1094	0.7064	0.034
Mof_H 	H 	0.1311	0.203	0.6925	0.037
Mof_H 	H 	0.176	0.2509	0.7641	0.037
Mof_H 	H 	0.3077	0.1691	0.7756	0.038
Mof_H 	H 	0.852	0.2215	0.7092	0.041
Mof_H 	H 	0.7405	0.1336	0.7131	0.037
Mof_H 	H 	0.8329	0.1242	0.7879	0.039
Mof_H 	H 	0.8923	0.2276	0.7843	0.032
Mof_H 	H 	0.0721	0.1254	0.8587	-0.007
Mof_H 	H 	0.2564	0.1255	0.8514	-0.005
Mof_H 	H 	0.2465	0.2842	0.8401	0.171
Mof_H 	H 	0.0534	0.2859	0.841	0.177
Mof_H 	H 	0.5325	0.7395	0.5307	0.158
Mof_H 	H 	0.4915	0.7279	0.478	-0.161
Mof_H 	H 	0.6662	0.7072	0.4939	-0.285
Mof_H 	H 	0.5973	0.7318	0.5366	0.035
Mof_H 	H 	0.7573	0.6835	0.4855	-0.178
Mof_H 	H 	0.768	0.6909	0.538	-0.295
Mof_H 	H 	0.4413	0.5803	0.4516	0.072
Mof_H 	H 	0.6127	0.5535	0.4395	0.024
Mof_H 	H 	0.6345	0.5678	0.5451	0.104
Mof_H 	H 	0.4715	0.5942	0.5624	0.046
Mof_H 	H 	0.8943	0.5322	0.5136	0.034
Mof_H 	H 	0.8326	0.5248	0.559	0.03
Mof_H 	H 	0.8324	0.3965	0.5047	0.062
Mof_H 	H 	0.8324	0.3842	0.5569	0.033
Mof_H 	H 	0.3589	0.7324	0.4977	-0.24
Mof_H 	H 	0.4168	0.7238	0.452	-0.159
Mof_Pr	Pr	0.76277	0.53767	0.02004	2.449
Mof_O 	O 	0.7237	0.5433	0.9344	-0.587
Mof_O 	O 	0.4851	0.5051	0.9515	-0.752
Mof_C 	C 	0.5698	0.526	0.9222	0.561
Mof_C 	C 	0.4765	0.5337	0.8725	-0.491
Mof_C 	C 	0.5976	0.5806	0.8457	0.116
Mof_N 	N 	0.5234	0.5977	0.7955	-0.104
Mof_C 	C 	0.4973	0.5094	0.7675	-0.055
Mof_C 	C 	0.4089	0.5323	0.7179	-0.062
Mof_C 	C 	0.3564	0.65	0.7873	-0.059
Mof_C 	C 	0.3091	0.6845	0.7371	-0.058
Mof_C 	C 	0.6479	0.6602	0.7778	-0.066
Mof_C 	C 	0.5961	0.6645	0.7254	-0.052
Mof_N 	N 	0.4155	0.635	0.7092	-0.105
Mof_C 	C 	0.3537	0.6536	0.6585	0.125
Mof_C 	C 	0.3391	0.757	0.6462	-0.507
Mof_C 	C 	0.29	0.7733	0.595	0.551
Mof_O 	O 	0.2413	0.7081	0.5685	-0.37
Mof_O 	O 	0.8112	0.6449	0.0827	-0.648
Mof_O 	O 	0.734	0.3629	0.0119	-0.604
Mof_O 	O 	0.9753	0.4036	0.9954	-0.766
Mof_C 	C 	0.8714	0.3422	0.0013	0.697
Mof_C 	C 	0.919	0.243	0.9959	-0.742
Mof_C 	C 	0.8073	0.178	0.9912	1.018
Mof_N 	N 	0.8637	0.0733	0.9895	-0.234
Mof_C 	C 	0.9578	0.0433	0.039	-0.011
Mof_C 	C 	0.9863	0.0597	0.9603	-0.08
Mof_C 	C 	0.6992	0.0132	0.9736	-0.043
Mof_C 	C 	0.7182	0.9175	0.9708	-0.066
Mof_N 	N 	0.0919	0.0956	0.0157	-0.19
Mof_C 	C 	0.0573	0.2044	0.0163	0.774
Mof_H 	H 	0.4445	0.4728	0.8601	0.156
Mof_H 	H 	0.3768	0.5716	0.8699	0.149
Mof_H 	H 	0.6942	0.5403	0.8482	-0.012
Mof_H 	H 	0.6334	0.6393	0.8603	-0.01
Mof_H 	H 	0.6051	0.4806	0.7682	0.037
Mof_H 	H 	0.4275	0.4673	0.7802	0.032
Mof_H 	H 	0.2924	0.5128	0.7123	0.042
Mof_H 	H 	0.4649	0.4999	0.6974	0.04
Mof_H 	H 	0.27	0.6094	0.7936	0.035
Mof_H 	H 	0.3689	0.703	0.8075	0.037
Mof_H 	H 	0.324	0.7509	0.7359	0.036
Mof_H 	H 	0.1923	0.6691	0.7244	0.038
Mof_H 	H 	0.648	0.7215	0.7908	0.043
Mof_H 	H 	0.7595	0.6336	0.7869	0.037
Mof_H 	H 	0.6671	0.6242	0.7121	0.039
Mof_H 	H 	0.6077	0.7276	0.7157	0.031
Mof_H 	H 	0.4279	0.6254	0.6413	-0.009
Mof_H 	H 	0.2436	0.6255	0.6486	-0.005
Mof_H 	H 	0.2535	0.7842	0.6599	0.171
Mof_H 	H 	0.4466	0.7859	0.659	0.176
Mof_H 	H 	0.9675	0.2395	0.9693	0.156
Mof_H 	H 	0.0085	0.2279	0.022	-0.157
Mof_H 	H 	0.8338	0.2072	0.0061	-0.281
Mof_H 	H 	0.9027	0.2318	0.9634	0.038
Mof_H 	H 	0.7427	0.1835	0.0145	-0.179
Mof_H 	H 	0.732	0.1909	0.962	-0.295
Mof_H 	H 	0.0587	0.0803	0.0484	0.077
Mof_H 	H 	0.8873	0.0535	0.0605	0.025
Mof_H 	H 	0.8655	0.0678	0.9549	0.105
Mof_H 	H 	0.0285	0.0942	0.9376	0.051
Mof_H 	H 	0.6057	0.0322	0.9864	0.036
Mof_H 	H 	0.6674	0.0248	0.941	0.031
Mof_H 	H 	0.6676	0.8965	0.9953	0.062
Mof_H 	H 	0.6676	0.8842	0.9431	0.033
Mof_H 	H 	0.1411	0.2324	0.0023	-0.24
Mof_H 	H 	0.0832	0.2238	0.048	-0.16
_end
