data_functionalizedCrystal
_audit_creation_method	'EQeq! by Chris Wilmer'
_symmetry_space_group_name_H-M	'P1'
_symmetry_Int_Tables_number	1
_symmetry_cell_setting	triclinic
loop_
_symmetry_equiv_pos_as_xyz
  x,y,z
_cell_length_a	22.0466
_cell_length_b	16.425
_cell_length_c	25.5931
_cell_angle_alpha	90
_cell_angle_beta	115.293
_cell_angle_gamma	90
loop_
_atom_site_label
_atom_site_type_symbol
_atom_site_fract_x
_atom_site_fract_y
_atom_site_fract_z
_atom_site_charge
Mof_Ag	Ag	0.84424	0.45767	0.36785	0.525
Mof_Ag	Ag	0.32285	0.25273	0.86721	0.537
Mof_C 	C 	0.7779	0.6376	0.0091	-0.13
Mof_H 	H 	0.7988	0.6338	0.0492	0.074
Mof_C 	C 	0.1237	0.2569	0.5021	0.098
Mof_C 	C 	0.5977	0.4704	0.0006	0.1
Mof_C 	C 	0.06	0.3022	0.4699	0.064
Mof_C 	C 	0.2977	0.0842	0.5046	-0.135
Mof_H 	H 	0.32	0.0886	0.5446	0.086
Mof_C 	C 	0.2351	0.0648	0.3882	0.086
Mof_H 	H 	0.2132	0.0578	0.3484	-0.009
Mof_C 	C 	0.4439	0.3432	0.9644	0.093
Mof_H 	H 	0.4241	0.3148	0.9844	-0.015
Mof_C 	C 	0.0331	0.3117	0.4109	-0.144
Mof_H 	H 	0.0544	0.29	0.3896	0.082
Mof_C 	C 	0.5331	0.4265	0.9667	0.071
Mof_C 	C 	0.5035	0.384	0.996	-0.141
Mof_H 	H 	0.523	0.3827	0.0362	0.088
Mof_C 	C 	0.6826	0.552	0.0066	0.094
Mof_C 	C 	0.7199	0.6519	0.892	0.063
Mof_H 	H 	0.6999	0.656	0.8519	-0.024
Mof_C 	C 	0.21	0.2269	0.5878	0.1
Mof_C 	C 	0.6793	0.4561	0.181	-0.138
Mof_H 	H 	0.6354	0.4382	0.1609	0.082
Mof_C 	C 	0.6801	0.5021	0.0879	0.096
Mof_C 	C 	0.7154	0.6014	0.9774	0.052
Mof_C 	C 	0.026	0.3356	0.4996	-0.148
Mof_H 	H 	0.0431	0.3308	0.5396	0.076
Mof_C 	C 	0.2434	0.2374	0.6512	0.062
Mof_C 	C 	0.686	0.6099	0.9184	-0.132
Mof_H 	H 	0.6439	0.5877	0.8964	0.077
Mof_C 	C 	0.2054	0.1723	0.5048	0.101
Mof_C 	C 	0.2359	0.1209	0.4744	0.072
Mof_C 	C 	0.9733	0.3545	0.3837	0.071
Mof_H 	H 	0.9561	0.3626	0.344	-0.02
Mof_C 	C 	0.967	0.3756	0.4691	0.077
Mof_H 	H 	0.9447	0.3978	0.4895	-0.022
Mof_C 	C 	0.3257	0.041	0.4741	0.089
Mof_H 	H 	0.3679	0.018	0.4944	-0.014
Mof_C 	C 	0.808	0.6794	0.979	0.071
Mof_H 	H 	0.8497	0.7033	0.0001	-0.01
Mof_C 	C 	0.2038	0.1101	0.4151	-0.136
Mof_H 	H 	0.1618	0.133	0.3936	0.085
Mof_C 	C 	0.7123	0.4924	0.1517	0.055
Mof_C 	C 	0.8075	0.5047	0.2425	0.073
Mof_H 	H 	0.8518	0.521	0.2634	-0.024
Mof_C 	C 	0.5021	0.4272	0.9069	-0.145
Mof_H 	H 	0.5202	0.4565	0.8859	0.082
Mof_C 	C 	0.4439	0.3834	0.8795	0.089
Mof_H 	H 	0.4242	0.3822	0.8393	-0.009
Mof_C 	C 	0.7782	0.5169	0.1832	-0.141
Mof_H 	H 	0.8023	0.5409	0.1649	0.072
Mof_C 	C 	0.3284	0.2075	0.7441	0.088
Mof_H 	H 	0.3679	0.1802	0.7668	-0.022
Mof_C 	C 	0.2157	0.2893	0.678	-0.14
Mof_H 	H 	0.1774	0.3195	0.6563	0.07
Mof_C 	C 	0.3023	0.1973	0.685	-0.144
Mof_H 	H 	0.3237	0.1645	0.6684	0.085
Mof_C 	C 	0.2459	0.295	0.737	0.077
Mof_H 	H 	0.2269	0.3299	0.7546	-0.019
Mof_C 	C 	0.7118	0.4465	0.2402	0.078
Mof_H 	H 	0.6888	0.4223	0.2593	-0.015
Mof_N 	N 	0.9394	0.3848	0.41199	-0.215
Mof_N 	N 	0.2954	0.0305	0.41671	-0.193
Mof_N 	N 	0.3006	0.2539	0.7707	-0.202
Mof_N 	N 	0.1532	0.2679	0.55916	-0.142
Mof_N 	N 	0.1479	0.2103	0.47215	-0.137
Mof_N 	N 	0.2382	0.1777	0.56275	-0.136
Mof_N 	N 	0.4136	0.3423	0.90708	-0.191
Mof_N 	N 	0.7801	0.6871	0.92142	-0.208
Mof_N 	N 	0.7759	0.4711	0.2715	-0.199
Mof_N 	N 	0.6228	0.4627	0.0586	-0.137
Mof_N 	N 	0.6262	0.5116	0.97294	-0.141
Mof_N 	N 	0.7114	0.5496	0.06446	-0.149
Mof_Ag	Ag	0.34424	0.95767	0.36784	0.524
Mof_Ag	Ag	0.82285	0.75273	0.86721	0.536
Mof_C 	C 	0.2779	0.1376	0.0091	-0.138
Mof_H 	H 	0.2988	0.1338	0.0492	0.075
Mof_C 	C 	0.6237	0.7569	0.5021	0.097
Mof_C 	C 	0.0977	0.9704	0.0006	0.097
Mof_C 	C 	0.56	0.8022	0.4699	0.062
Mof_C 	C 	0.7977	0.5842	0.5046	-0.136
Mof_H 	H 	0.82	0.5886	0.5446	0.085
Mof_C 	C 	0.7351	0.5648	0.3882	0.085
Mof_H 	H 	0.7132	0.5578	0.3484	-0.01
Mof_C 	C 	0.9439	0.8432	0.9644	0.087
Mof_H 	H 	0.9241	0.8148	0.9844	-0.014
Mof_C 	C 	0.5331	0.8117	0.4109	-0.143
Mof_H 	H 	0.5544	0.79	0.3896	0.082
Mof_C 	C 	0.0331	0.9265	0.9667	0.07
Mof_C 	C 	0.0035	0.884	0.996	-0.134
Mof_H 	H 	0.023	0.8827	0.0362	0.085
Mof_C 	C 	0.1826	0.052	0.0066	0.091
Mof_C 	C 	0.2199	0.1519	0.892	0.065
Mof_H 	H 	0.1999	0.156	0.8519	-0.025
Mof_C 	C 	0.71	0.7269	0.5878	0.1
Mof_C 	C 	0.1793	0.9561	0.181	-0.137
Mof_H 	H 	0.1354	0.9382	0.1609	0.081
Mof_C 	C 	0.1801	0.0021	0.0879	0.096
Mof_C 	C 	0.2154	0.1014	0.9774	0.057
Mof_C 	C 	0.526	0.8356	0.4996	-0.148
Mof_H 	H 	0.5431	0.8308	0.5396	0.075
Mof_C 	C 	0.7434	0.7374	0.6512	0.062
Mof_C 	C 	0.186	0.1099	0.9184	-0.136
Mof_H 	H 	0.1439	0.0877	0.8964	0.078
Mof_C 	C 	0.7054	0.6723	0.5048	0.101
Mof_C 	C 	0.7359	0.6209	0.4744	0.072
Mof_C 	C 	0.4733	0.8545	0.3837	0.07
Mof_H 	H 	0.4561	0.8626	0.344	-0.02
Mof_C 	C 	0.467	0.8756	0.4691	0.077
Mof_H 	H 	0.4447	0.8978	0.4895	-0.022
Mof_C 	C 	0.8257	0.541	0.4741	0.089
Mof_H 	H 	0.8679	0.518	0.4944	-0.014
Mof_C 	C 	0.308	0.1794	0.979	0.077
Mof_H 	H 	0.3497	0.2033	0.0001	-0.013
Mof_C 	C 	0.7038	0.6101	0.4151	-0.136
Mof_H 	H 	0.6618	0.633	0.3936	0.085
Mof_C 	C 	0.2123	0.9924	0.1517	0.054
Mof_C 	C 	0.3075	0.0047	0.2425	0.073
Mof_H 	H 	0.3518	0.021	0.2634	-0.024
Mof_C 	C 	0.0021	0.9272	0.9069	-0.142
Mof_H 	H 	0.0202	0.9565	0.8859	0.082
Mof_C 	C 	0.9439	0.8834	0.8795	0.086
Mof_H 	H 	0.9242	0.8822	0.8393	-0.008
Mof_C 	C 	0.2782	0.0169	0.1832	-0.141
Mof_H 	H 	0.3023	0.0409	0.1649	0.072
Mof_C 	C 	0.8284	0.7075	0.7441	0.088
Mof_H 	H 	0.8679	0.6802	0.7668	-0.022
Mof_C 	C 	0.7157	0.7893	0.678	-0.14
Mof_H 	H 	0.6774	0.8195	0.6563	0.07
Mof_C 	C 	0.8023	0.6973	0.685	-0.144
Mof_H 	H 	0.8237	0.6645	0.6684	0.085
Mof_C 	C 	0.7459	0.795	0.737	0.077
Mof_H 	H 	0.7269	0.8299	0.7546	-0.019
Mof_C 	C 	0.2118	0.9465	0.2402	0.078
Mof_H 	H 	0.1888	0.9223	0.2593	-0.015
Mof_N 	N 	0.4394	0.8848	0.41199	-0.215
Mof_N 	N 	0.7954	0.5305	0.41671	-0.193
Mof_N 	N 	0.8006	0.7539	0.7707	-0.202
Mof_N 	N 	0.6532	0.7679	0.55916	-0.142
Mof_N 	N 	0.6479	0.7103	0.47215	-0.137
Mof_N 	N 	0.7382	0.6777	0.56275	-0.136
Mof_N 	N 	0.9136	0.8423	0.90708	-0.189
Mof_N 	N 	0.2801	0.1871	0.92142	-0.209
Mof_N 	N 	0.2759	0.9711	0.2715	-0.199
Mof_N 	N 	0.1228	0.9627	0.0586	-0.137
Mof_N 	N 	0.1262	0.0116	0.97294	-0.139
Mof_N 	N 	0.2114	0.0496	0.06446	-0.149
Mof_Ag	Ag	0.15576	0.45767	0.13216	0.524
Mof_Ag	Ag	0.67715	0.25273	0.63279	0.536
Mof_C 	C 	0.2221	0.6376	0.4909	-0.135
Mof_H 	H 	0.2012	0.6338	0.4508	0.074
Mof_C 	C 	0.8763	0.2569	0.9979	0.095
Mof_C 	C 	0.4023	0.4704	0.4994	0.098
Mof_C 	C 	0.94	0.3022	0.0301	0.061
Mof_C 	C 	0.7023	0.0842	0.9954	-0.141
Mof_H 	H 	0.68	0.0886	0.9554	0.087
Mof_C 	C 	0.7649	0.0648	0.1118	0.086
Mof_H 	H 	0.7868	0.0578	0.1516	-0.011
Mof_C 	C 	0.5561	0.3432	0.5356	0.092
Mof_H 	H 	0.5759	0.3148	0.5156	-0.015
Mof_C 	C 	0.9669	0.3117	0.0891	-0.14
Mof_H 	H 	0.9456	0.29	0.1104	0.081
Mof_C 	C 	0.4669	0.4265	0.5333	0.071
Mof_C 	C 	0.4965	0.384	0.504	-0.14
Mof_H 	H 	0.477	0.3827	0.4638	0.088
Mof_C 	C 	0.3174	0.552	0.4934	0.093
Mof_C 	C 	0.2801	0.6519	0.608	0.064
Mof_H 	H 	0.3001	0.656	0.6481	-0.025
Mof_C 	C 	0.79	0.2269	0.9122	0.1
Mof_C 	C 	0.3207	0.4561	0.319	-0.138
Mof_H 	H 	0.3646	0.4382	0.3391	0.082
Mof_C 	C 	0.3199	0.5021	0.4121	0.096
Mof_C 	C 	0.2846	0.6014	0.5226	0.055
Mof_C 	C 	0.974	0.3356	0.0004	-0.141
Mof_H 	H 	0.9569	0.3308	0.9604	0.072
Mof_C 	C 	0.7566	0.2374	0.8488	0.062
Mof_C 	C 	0.314	0.6099	0.5816	-0.134
Mof_H 	H 	0.3561	0.5877	0.6036	0.078
Mof_C 	C 	0.7946	0.1723	0.9952	0.098
Mof_C 	C 	0.7641	0.1209	0.0256	0.076
Mof_C 	C 	0.0267	0.3545	0.1163	0.067
Mof_H 	H 	0.0439	0.3626	0.156	-0.019
Mof_C 	C 	0.033	0.3756	0.0309	0.072
Mof_H 	H 	0.0553	0.3978	0.0105	-0.02
Mof_C 	C 	0.6743	0.041	0.0259	0.092
Mof_H 	H 	0.6321	0.018	0.0056	-0.014
Mof_C 	C 	0.192	0.6794	0.521	0.075
Mof_H 	H 	0.1503	0.7033	0.4999	-0.012
Mof_C 	C 	0.7962	0.1101	0.0849	-0.138
Mof_H 	H 	0.8382	0.133	0.1064	0.086
Mof_C 	C 	0.2877	0.4924	0.3483	0.055
Mof_C 	C 	0.1925	0.5047	0.2575	0.073
Mof_H 	H 	0.1482	0.521	0.2366	-0.024
Mof_C 	C 	0.4979	0.4272	0.5931	-0.145
Mof_H 	H 	0.4798	0.4565	0.6141	0.082
Mof_C 	C 	0.5561	0.3834	0.6205	0.089
Mof_H 	H 	0.5758	0.3822	0.6607	-0.009
Mof_C 	C 	0.2218	0.5169	0.3168	-0.141
Mof_H 	H 	0.1977	0.5409	0.3351	0.072
Mof_C 	C 	0.6716	0.2075	0.7559	0.088
Mof_H 	H 	0.6321	0.1802	0.7332	-0.022
Mof_C 	C 	0.7843	0.2893	0.822	-0.14
Mof_H 	H 	0.8226	0.3195	0.8437	0.07
Mof_C 	C 	0.6977	0.1973	0.815	-0.144
Mof_H 	H 	0.6763	0.1645	0.8316	0.085
Mof_C 	C 	0.7541	0.295	0.763	0.077
Mof_H 	H 	0.7731	0.3299	0.7454	-0.019
Mof_C 	C 	0.2882	0.4465	0.2598	0.078
Mof_H 	H 	0.3112	0.4223	0.2407	-0.015
Mof_N 	N 	0.0606	0.3848	0.08801	-0.214
Mof_N 	N 	0.7046	0.0305	0.08329	-0.194
Mof_N 	N 	0.6994	0.2539	0.7293	-0.202
Mof_N 	N 	0.8468	0.2679	0.94084	-0.142
Mof_N 	N 	0.8521	0.2103	0.02785	-0.136
Mof_N 	N 	0.7618	0.1777	0.93725	-0.136
Mof_N 	N 	0.5864	0.3423	0.59292	-0.191
Mof_N 	N 	0.2199	0.6871	0.57858	-0.209
Mof_N 	N 	0.2241	0.4711	0.2285	-0.199
Mof_N 	N 	0.3772	0.4627	0.4414	-0.137
Mof_N 	N 	0.3738	0.5116	0.52706	-0.141
Mof_N 	N 	0.2886	0.5496	0.43554	-0.149
Mof_Ag	Ag	0.65576	0.95767	0.13216	0.524
Mof_Ag	Ag	0.17715	0.75273	0.63279	0.536
Mof_C 	C 	0.7221	0.1376	0.4909	-0.135
Mof_H 	H 	0.7012	0.1338	0.4508	0.074
Mof_C 	C 	0.3763	0.7569	0.9979	0.097
Mof_C 	C 	0.9023	0.9704	0.4994	0.098
Mof_C 	C 	0.44	0.8022	0.0301	0.062
Mof_C 	C 	0.2023	0.5842	0.9954	-0.133
Mof_H 	H 	0.18	0.5886	0.9554	0.084
Mof_C 	C 	0.2649	0.5648	0.1118	0.084
Mof_H 	H 	0.2868	0.5578	0.1516	-0.01
Mof_C 	C 	0.0561	0.8432	0.5356	0.092
Mof_H 	H 	0.0759	0.8148	0.5156	-0.015
Mof_C 	C 	0.4669	0.8117	0.0891	-0.143
Mof_H 	H 	0.4456	0.79	0.1104	0.082
Mof_C 	C 	0.9669	0.9265	0.5333	0.072
Mof_C 	C 	0.9965	0.884	0.504	-0.141
Mof_H 	H 	0.977	0.8827	0.4638	0.088
Mof_C 	C 	0.8174	0.052	0.4934	0.093
Mof_C 	C 	0.7801	0.1519	0.608	0.064
Mof_H 	H 	0.8001	0.156	0.6481	-0.025
Mof_C 	C 	0.29	0.7269	0.9122	0.1
Mof_C 	C 	0.8207	0.9561	0.319	-0.138
Mof_H 	H 	0.8646	0.9382	0.3391	0.082
Mof_C 	C 	0.8199	0.0021	0.4121	0.096
Mof_C 	C 	0.7846	0.1014	0.5226	0.055
Mof_C 	C 	0.474	0.8356	0.0004	-0.149
Mof_H 	H 	0.4569	0.8308	0.9604	0.076
Mof_C 	C 	0.2566	0.7374	0.8488	0.062
Mof_C 	C 	0.814	0.1099	0.5816	-0.134
Mof_H 	H 	0.8561	0.0877	0.6036	0.078
Mof_C 	C 	0.2946	0.6723	0.9952	0.103
Mof_C 	C 	0.2641	0.6209	0.0256	0.069
Mof_C 	C 	0.5267	0.8545	0.1163	0.07
Mof_H 	H 	0.5439	0.8626	0.156	-0.02
Mof_C 	C 	0.533	0.8756	0.0309	0.077
Mof_H 	H 	0.5553	0.8978	0.0105	-0.022
Mof_C 	C 	0.1743	0.541	0.0259	0.086
Mof_H 	H 	0.1321	0.518	0.0056	-0.013
Mof_C 	C 	0.692	0.1794	0.521	0.075
Mof_H 	H 	0.6503	0.2033	0.4999	-0.012
Mof_C 	C 	0.2962	0.6101	0.0849	-0.134
Mof_H 	H 	0.3382	0.633	0.1064	0.084
Mof_C 	C 	0.7877	0.9924	0.3483	0.054
Mof_C 	C 	0.6925	0.0047	0.2575	0.073
Mof_H 	H 	0.6482	0.021	0.2366	-0.024
Mof_C 	C 	0.9979	0.9272	0.5931	-0.146
Mof_H 	H 	0.9798	0.9565	0.6141	0.083
Mof_C 	C 	0.0561	0.8834	0.6205	0.089
Mof_H 	H 	0.0758	0.8822	0.6607	-0.009
Mof_C 	C 	0.7218	0.0169	0.3168	-0.141
Mof_H 	H 	0.6977	0.0409	0.3351	0.072
Mof_C 	C 	0.1716	0.7075	0.7559	0.088
Mof_H 	H 	0.1321	0.6802	0.7332	-0.022
Mof_C 	C 	0.2843	0.7893	0.822	-0.14
Mof_H 	H 	0.3226	0.8195	0.8437	0.07
Mof_C 	C 	0.1977	0.6973	0.815	-0.144
Mof_H 	H 	0.1763	0.6645	0.8316	0.085
Mof_C 	C 	0.2541	0.795	0.763	0.077
Mof_H 	H 	0.2731	0.8299	0.7454	-0.019
Mof_C 	C 	0.7882	0.9465	0.2598	0.078
Mof_H 	H 	0.8112	0.9223	0.2407	-0.015
Mof_N 	N 	0.5606	0.8848	0.08801	-0.215
Mof_N 	N 	0.2046	0.5305	0.08329	-0.193
Mof_N 	N 	0.1994	0.7539	0.7293	-0.202
Mof_N 	N 	0.3468	0.7679	0.94084	-0.142
Mof_N 	N 	0.3521	0.7103	0.02785	-0.138
Mof_N 	N 	0.2618	0.6777	0.93725	-0.136
Mof_N 	N 	0.0864	0.8423	0.59292	-0.191
Mof_N 	N 	0.7199	0.1871	0.57858	-0.209
Mof_N 	N 	0.7241	0.9711	0.2285	-0.199
Mof_N 	N 	0.8772	0.9627	0.4414	-0.137
Mof_N 	N 	0.8738	0.0116	0.52706	-0.141
Mof_N 	N 	0.7886	0.0496	0.43554	-0.149
Mof_Ag	Ag	0.15576	0.54233	0.63216	0.524
Mof_Ag	Ag	0.67715	0.74727	0.13279	0.536
Mof_C 	C 	0.2221	0.3624	0.9909	-0.131
Mof_H 	H 	0.2012	0.3662	0.9508	0.073
Mof_C 	C 	0.8763	0.7431	0.4979	0.097
Mof_C 	C 	0.4023	0.5296	0.9994	0.099
Mof_C 	C 	0.94	0.6978	0.5301	0.063
Mof_C 	C 	0.7023	0.9158	0.4954	-0.136
Mof_H 	H 	0.68	0.9114	0.4554	0.085
Mof_C 	C 	0.7649	0.9352	0.6118	0.085
Mof_H 	H 	0.7868	0.9422	0.6516	-0.01
Mof_C 	C 	0.5561	0.6568	0.0356	0.092
Mof_H 	H 	0.5759	0.6852	0.0156	-0.015
Mof_C 	C 	0.9669	0.6883	0.5891	-0.144
Mof_H 	H 	0.9456	0.71	0.6104	0.082
Mof_C 	C 	0.4669	0.5735	0.0333	0.071
Mof_C 	C 	0.4965	0.616	0.004	-0.141
Mof_H 	H 	0.477	0.6173	0.9638	0.088
Mof_C 	C 	0.3174	0.448	0.9934	0.094
Mof_C 	C 	0.2801	0.3481	0.108	0.063
Mof_H 	H 	0.3001	0.344	0.1481	-0.024
Mof_C 	C 	0.79	0.7731	0.4122	0.1
Mof_C 	C 	0.3207	0.5439	0.819	-0.138
Mof_H 	H 	0.3646	0.5618	0.8391	0.082
Mof_C 	C 	0.3199	0.4979	0.9121	0.096
Mof_C 	C 	0.2846	0.3986	0.0226	0.052
Mof_C 	C 	0.974	0.6644	0.5004	-0.148
Mof_H 	H 	0.9569	0.6692	0.4604	0.076
Mof_C 	C 	0.7566	0.7626	0.3488	0.062
Mof_C 	C 	0.314	0.3901	0.0816	-0.132
Mof_H 	H 	0.3561	0.4123	0.1036	0.077
Mof_C 	C 	0.7946	0.8277	0.4952	0.101
Mof_C 	C 	0.7641	0.8791	0.5256	0.072
Mof_C 	C 	0.0267	0.6455	0.6163	0.071
Mof_H 	H 	0.0439	0.6374	0.656	-0.02
Mof_C 	C 	0.033	0.6244	0.5309	0.077
Mof_H 	H 	0.0553	0.6022	0.5105	-0.022
Mof_C 	C 	0.6743	0.959	0.5259	0.089
Mof_H 	H 	0.6321	0.982	0.5056	-0.014
Mof_C 	C 	0.192	0.3206	0.021	0.071
Mof_H 	H 	0.1503	0.2967	0.9999	-0.01
Mof_C 	C 	0.7962	0.8899	0.5849	-0.136
Mof_H 	H 	0.8382	0.867	0.6064	0.085
Mof_C 	C 	0.2877	0.5076	0.8483	0.055
Mof_C 	C 	0.1925	0.4953	0.7575	0.073
Mof_H 	H 	0.1482	0.479	0.7366	-0.024
Mof_C 	C 	0.4979	0.5728	0.0931	-0.145
Mof_H 	H 	0.4798	0.5435	0.1141	0.082
Mof_C 	C 	0.5561	0.6166	0.1205	0.089
Mof_H 	H 	0.5758	0.6178	0.1607	-0.009
Mof_C 	C 	0.2218	0.4831	0.8168	-0.141
Mof_H 	H 	0.1977	0.4591	0.8351	0.072
Mof_C 	C 	0.6716	0.7925	0.2559	0.088
Mof_H 	H 	0.6321	0.8198	0.2332	-0.022
Mof_C 	C 	0.7843	0.7107	0.322	-0.14
Mof_H 	H 	0.8226	0.6805	0.3437	0.07
Mof_C 	C 	0.6977	0.8027	0.315	-0.144
Mof_H 	H 	0.6763	0.8355	0.3316	0.085
Mof_C 	C 	0.7541	0.705	0.263	0.077
Mof_H 	H 	0.7731	0.6701	0.2454	-0.019
Mof_C 	C 	0.2882	0.5535	0.7598	0.078
Mof_H 	H 	0.3112	0.5777	0.7407	-0.015
Mof_N 	N 	0.0606	0.6152	0.58801	-0.215
Mof_N 	N 	0.7046	0.9695	0.58329	-0.193
Mof_N 	N 	0.6994	0.7461	0.2293	-0.202
Mof_N 	N 	0.8468	0.7321	0.44084	-0.142
Mof_N 	N 	0.8521	0.7897	0.52785	-0.137
Mof_N 	N 	0.7618	0.8223	0.43725	-0.136
Mof_N 	N 	0.5864	0.6577	0.09292	-0.191
Mof_N 	N 	0.2199	0.3129	0.07858	-0.208
Mof_N 	N 	0.2241	0.5289	0.7285	-0.199
Mof_N 	N 	0.3772	0.5373	0.9414	-0.137
Mof_N 	N 	0.3738	0.4884	0.02706	-0.141
Mof_N 	N 	0.2886	0.4504	0.93554	-0.149
Mof_Ag	Ag	0.65576	0.04233	0.63216	0.524
Mof_Ag	Ag	0.17715	0.24727	0.13279	0.536
Mof_C 	C 	0.7221	0.8624	0.9909	-0.138
Mof_H 	H 	0.7012	0.8662	0.9508	0.075
Mof_C 	C 	0.3763	0.2431	0.4979	0.097
Mof_C 	C 	0.9023	0.0296	0.9994	0.097
Mof_C 	C 	0.44	0.1978	0.5301	0.062
Mof_C 	C 	0.2023	0.4158	0.4954	-0.136
Mof_H 	H 	0.18	0.4114	0.4554	0.085
Mof_C 	C 	0.2649	0.4352	0.6118	0.085
Mof_H 	H 	0.2868	0.4422	0.6516	-0.01
Mof_C 	C 	0.0561	0.1568	0.0356	0.087
Mof_H 	H 	0.0759	0.1852	0.0156	-0.014
Mof_C 	C 	0.4669	0.1883	0.5891	-0.143
Mof_H 	H 	0.4456	0.21	0.6104	0.082
Mof_C 	C 	0.9669	0.0735	0.0333	0.07
Mof_C 	C 	0.9965	0.116	0.004	-0.134
Mof_H 	H 	0.977	0.1173	0.9638	0.085
Mof_C 	C 	0.8174	0.948	0.9934	0.091
Mof_C 	C 	0.7801	0.8481	0.108	0.065
Mof_H 	H 	0.8001	0.844	0.1481	-0.025
Mof_C 	C 	0.29	0.2731	0.4122	0.1
Mof_C 	C 	0.8207	0.0439	0.819	-0.137
Mof_H 	H 	0.8646	0.0618	0.8391	0.081
Mof_C 	C 	0.8199	0.9979	0.9121	0.096
Mof_C 	C 	0.7846	0.8986	0.0226	0.057
Mof_C 	C 	0.474	0.1644	0.5004	-0.148
Mof_H 	H 	0.4569	0.1692	0.4604	0.075
Mof_C 	C 	0.2566	0.2626	0.3488	0.062
Mof_C 	C 	0.814	0.8901	0.0816	-0.136
Mof_H 	H 	0.8561	0.9123	0.1036	0.078
Mof_C 	C 	0.2946	0.3277	0.4952	0.101
Mof_C 	C 	0.2641	0.3791	0.5256	0.072
Mof_C 	C 	0.5267	0.1455	0.6163	0.07
Mof_H 	H 	0.5439	0.1374	0.656	-0.02
Mof_C 	C 	0.533	0.1244	0.5309	0.077
Mof_H 	H 	0.5553	0.1022	0.5105	-0.022
Mof_C 	C 	0.1743	0.459	0.5259	0.089
Mof_H 	H 	0.1321	0.482	0.5056	-0.014
Mof_C 	C 	0.692	0.8206	0.021	0.077
Mof_H 	H 	0.6503	0.7967	0.9999	-0.013
Mof_C 	C 	0.2962	0.3899	0.5849	-0.136
Mof_H 	H 	0.3382	0.367	0.6064	0.085
Mof_C 	C 	0.7877	0.0076	0.8483	0.054
Mof_C 	C 	0.6925	0.9953	0.7575	0.073
Mof_H 	H 	0.6482	0.979	0.7366	-0.024
Mof_C 	C 	0.9979	0.0728	0.0931	-0.142
Mof_H 	H 	0.9798	0.0435	0.1141	0.082
Mof_C 	C 	0.0561	0.1166	0.1205	0.086
Mof_H 	H 	0.0758	0.1178	0.1607	-0.008
Mof_C 	C 	0.7218	0.9831	0.8168	-0.141
Mof_H 	H 	0.6977	0.9591	0.8351	0.072
Mof_C 	C 	0.1716	0.2925	0.2559	0.088
Mof_H 	H 	0.1321	0.3198	0.2332	-0.022
Mof_C 	C 	0.2843	0.2107	0.322	-0.14
Mof_H 	H 	0.3226	0.1805	0.3437	0.07
Mof_C 	C 	0.1977	0.3027	0.315	-0.144
Mof_H 	H 	0.1763	0.3355	0.3316	0.085
Mof_C 	C 	0.2541	0.205	0.263	0.077
Mof_H 	H 	0.2731	0.1701	0.2454	-0.019
Mof_C 	C 	0.7882	0.0535	0.7598	0.078
Mof_H 	H 	0.8112	0.0777	0.7407	-0.015
Mof_N 	N 	0.5606	0.1152	0.58801	-0.215
Mof_N 	N 	0.2046	0.4695	0.58329	-0.193
Mof_N 	N 	0.1994	0.2461	0.2293	-0.202
Mof_N 	N 	0.3468	0.2321	0.44084	-0.142
Mof_N 	N 	0.3521	0.2897	0.52785	-0.137
Mof_N 	N 	0.2618	0.3223	0.43725	-0.136
Mof_N 	N 	0.0864	0.1577	0.09292	-0.189
Mof_N 	N 	0.7199	0.8129	0.07858	-0.209
Mof_N 	N 	0.7241	0.0289	0.7285	-0.199
Mof_N 	N 	0.8772	0.0373	0.9414	-0.137
Mof_N 	N 	0.8738	0.9884	0.02706	-0.139
Mof_N 	N 	0.7886	0.9504	0.93554	-0.149
Mof_Ag	Ag	0.84424	0.54233	0.86785	0.524
Mof_Ag	Ag	0.32285	0.74727	0.36721	0.536
Mof_C 	C 	0.7779	0.3624	0.5091	-0.135
Mof_H 	H 	0.7988	0.3662	0.5492	0.074
Mof_C 	C 	0.1237	0.7431	0.0021	0.095
Mof_C 	C 	0.5977	0.5296	0.5006	0.098
Mof_C 	C 	0.06	0.6978	0.9699	0.061
Mof_C 	C 	0.2977	0.9158	0.0046	-0.141
Mof_H 	H 	0.32	0.9114	0.0446	0.087
Mof_C 	C 	0.2351	0.9352	0.8882	0.086
Mof_H 	H 	0.2132	0.9422	0.8484	-0.011
Mof_C 	C 	0.4439	0.6568	0.4644	0.092
Mof_H 	H 	0.4241	0.6852	0.4844	-0.015
Mof_C 	C 	0.0331	0.6883	0.9109	-0.14
Mof_H 	H 	0.0544	0.71	0.8896	0.081
Mof_C 	C 	0.5331	0.5735	0.4667	0.071
Mof_C 	C 	0.5035	0.616	0.496	-0.14
Mof_H 	H 	0.523	0.6173	0.5362	0.088
Mof_C 	C 	0.6826	0.448	0.5066	0.093
Mof_C 	C 	0.7199	0.3481	0.392	0.064
Mof_H 	H 	0.6999	0.344	0.3519	-0.025
Mof_C 	C 	0.21	0.7731	0.0878	0.1
Mof_C 	C 	0.6793	0.5439	0.681	-0.138
Mof_H 	H 	0.6354	0.5618	0.6609	0.082
Mof_C 	C 	0.6801	0.4979	0.5879	0.096
Mof_C 	C 	0.7154	0.3986	0.4774	0.055
Mof_C 	C 	0.026	0.6644	0.9996	-0.141
Mof_H 	H 	0.0431	0.6692	0.0396	0.072
Mof_C 	C 	0.2434	0.7626	0.1512	0.062
Mof_C 	C 	0.686	0.3901	0.4184	-0.134
Mof_H 	H 	0.6439	0.4123	0.3964	0.078
Mof_C 	C 	0.2054	0.8277	0.0048	0.098
Mof_C 	C 	0.2359	0.8791	0.9744	0.076
Mof_C 	C 	0.9733	0.6455	0.8837	0.067
Mof_H 	H 	0.9561	0.6374	0.844	-0.019
Mof_C 	C 	0.967	0.6244	0.9691	0.072
Mof_H 	H 	0.9447	0.6022	0.9895	-0.02
Mof_C 	C 	0.3257	0.959	0.9741	0.092
Mof_H 	H 	0.3679	0.982	0.9944	-0.014
Mof_C 	C 	0.808	0.3206	0.479	0.075
Mof_H 	H 	0.8497	0.2967	0.5001	-0.012
Mof_C 	C 	0.2038	0.8899	0.9151	-0.138
Mof_H 	H 	0.1618	0.867	0.8936	0.086
Mof_C 	C 	0.7123	0.5076	0.6517	0.055
Mof_C 	C 	0.8075	0.4953	0.7425	0.073
Mof_H 	H 	0.8518	0.479	0.7634	-0.024
Mof_C 	C 	0.5021	0.5728	0.4069	-0.145
Mof_H 	H 	0.5202	0.5435	0.3859	0.082
Mof_C 	C 	0.4439	0.6166	0.3795	0.089
Mof_H 	H 	0.4242	0.6178	0.3393	-0.009
Mof_C 	C 	0.7782	0.4831	0.6832	-0.141
Mof_H 	H 	0.8023	0.4591	0.6649	0.072
Mof_C 	C 	0.3284	0.7925	0.2441	0.088
Mof_H 	H 	0.3679	0.8198	0.2668	-0.022
Mof_C 	C 	0.2157	0.7107	0.178	-0.14
Mof_H 	H 	0.1774	0.6805	0.1563	0.07
Mof_C 	C 	0.3023	0.8027	0.185	-0.144
Mof_H 	H 	0.3237	0.8355	0.1684	0.085
Mof_C 	C 	0.2459	0.705	0.237	0.077
Mof_H 	H 	0.2269	0.6701	0.2546	-0.019
Mof_C 	C 	0.7118	0.5535	0.7402	0.078
Mof_H 	H 	0.6888	0.5777	0.7593	-0.015
Mof_N 	N 	0.9394	0.6152	0.91199	-0.214
Mof_N 	N 	0.2954	0.9695	0.91671	-0.194
Mof_N 	N 	0.3006	0.7461	0.2707	-0.202
Mof_N 	N 	0.1532	0.7321	0.05916	-0.142
Mof_N 	N 	0.1479	0.7897	0.97215	-0.136
Mof_N 	N 	0.2382	0.8223	0.06275	-0.136
Mof_N 	N 	0.4136	0.6577	0.40708	-0.191
Mof_N 	N 	0.7801	0.3129	0.42142	-0.209
Mof_N 	N 	0.7759	0.5289	0.7715	-0.199
Mof_N 	N 	0.6228	0.5373	0.5586	-0.137
Mof_N 	N 	0.6262	0.4884	0.47294	-0.141
Mof_N 	N 	0.7114	0.4504	0.56446	-0.149
Mof_Ag	Ag	0.34424	0.04233	0.86785	0.524
Mof_Ag	Ag	0.82285	0.24727	0.36721	0.536
Mof_C 	C 	0.2779	0.8624	0.5091	-0.135
Mof_H 	H 	0.2988	0.8662	0.5492	0.074
Mof_C 	C 	0.6237	0.2431	0.0021	0.097
Mof_C 	C 	0.0977	0.0296	0.5006	0.098
Mof_C 	C 	0.56	0.1978	0.9699	0.062
Mof_C 	C 	0.7977	0.4158	0.0046	-0.133
Mof_H 	H 	0.82	0.4114	0.0446	0.084
Mof_C 	C 	0.7351	0.4352	0.8882	0.084
Mof_H 	H 	0.7132	0.4422	0.8484	-0.01
Mof_C 	C 	0.9439	0.1568	0.4644	0.092
Mof_H 	H 	0.9241	0.1852	0.4844	-0.015
Mof_C 	C 	0.5331	0.1883	0.9109	-0.143
Mof_H 	H 	0.5544	0.21	0.8896	0.082
Mof_C 	C 	0.0331	0.0735	0.4667	0.072
Mof_C 	C 	0.0035	0.116	0.496	-0.141
Mof_H 	H 	0.023	0.1173	0.5362	0.088
Mof_C 	C 	0.1826	0.948	0.5066	0.093
Mof_C 	C 	0.2199	0.8481	0.392	0.064
Mof_H 	H 	0.1999	0.844	0.3519	-0.025
Mof_C 	C 	0.71	0.2731	0.0878	0.1
Mof_C 	C 	0.1793	0.0439	0.681	-0.138
Mof_H 	H 	0.1354	0.0618	0.6609	0.082
Mof_C 	C 	0.1801	0.9979	0.5879	0.096
Mof_C 	C 	0.2154	0.8986	0.4774	0.055
Mof_C 	C 	0.526	0.1644	0.9996	-0.149
Mof_H 	H 	0.5431	0.1692	0.0396	0.076
Mof_C 	C 	0.7434	0.2626	0.1512	0.062
Mof_C 	C 	0.186	0.8901	0.4184	-0.134
Mof_H 	H 	0.1439	0.9123	0.3964	0.078
Mof_C 	C 	0.7054	0.3277	0.0048	0.103
Mof_C 	C 	0.7359	0.3791	0.9744	0.069
Mof_C 	C 	0.4733	0.1455	0.8837	0.07
Mof_H 	H 	0.4561	0.1374	0.844	-0.02
Mof_C 	C 	0.467	0.1244	0.9691	0.077
Mof_H 	H 	0.4447	0.1022	0.9895	-0.022
Mof_C 	C 	0.8257	0.459	0.9741	0.086
Mof_H 	H 	0.8679	0.482	0.9944	-0.013
Mof_C 	C 	0.308	0.8206	0.479	0.075
Mof_H 	H 	0.3497	0.7967	0.5001	-0.012
Mof_C 	C 	0.7038	0.3899	0.9151	-0.134
Mof_H 	H 	0.6618	0.367	0.8936	0.084
Mof_C 	C 	0.2123	0.0076	0.6517	0.054
Mof_C 	C 	0.3075	0.9953	0.7425	0.073
Mof_H 	H 	0.3518	0.979	0.7634	-0.024
Mof_C 	C 	0.0021	0.0728	0.4069	-0.146
Mof_H 	H 	0.0202	0.0435	0.3859	0.083
Mof_C 	C 	0.9439	0.1166	0.3795	0.089
Mof_H 	H 	0.9242	0.1178	0.3393	-0.009
Mof_C 	C 	0.2782	0.9831	0.6832	-0.141
Mof_H 	H 	0.3023	0.9591	0.6649	0.072
Mof_C 	C 	0.8284	0.2925	0.2441	0.088
Mof_H 	H 	0.8679	0.3198	0.2668	-0.022
Mof_C 	C 	0.7157	0.2107	0.178	-0.14
Mof_H 	H 	0.6774	0.1805	0.1563	0.07
Mof_C 	C 	0.8023	0.3027	0.185	-0.144
Mof_H 	H 	0.8237	0.3355	0.1684	0.085
Mof_C 	C 	0.7459	0.205	0.237	0.077
Mof_H 	H 	0.7269	0.1701	0.2546	-0.019
Mof_C 	C 	0.2118	0.0535	0.7402	0.078
Mof_H 	H 	0.1888	0.0777	0.7593	-0.015
Mof_N 	N 	0.4394	0.1152	0.91199	-0.215
Mof_N 	N 	0.7954	0.4695	0.91671	-0.193
Mof_N 	N 	0.8006	0.2461	0.2707	-0.202
Mof_N 	N 	0.6532	0.2321	0.05916	-0.142
Mof_N 	N 	0.6479	0.2897	0.97215	-0.138
Mof_N 	N 	0.7382	0.3223	0.06275	-0.136
Mof_N 	N 	0.9136	0.1577	0.40708	-0.191
Mof_N 	N 	0.2801	0.8129	0.42142	-0.209
Mof_N 	N 	0.2759	0.0289	0.7715	-0.199
Mof_N 	N 	0.1228	0.0373	0.5586	-0.137
Mof_N 	N 	0.1262	0.9884	0.47294	-0.141
Mof_N 	N 	0.2114	0.9504	0.56446	-0.149
_end
