data_functionalizedCrystal
_audit_creation_method	'EQeq! by Chris Wilmer'
_symmetry_space_group_name_H-M	'P1'
_symmetry_Int_Tables_number	1
_symmetry_cell_setting	triclinic
loop_
_symmetry_equiv_pos_as_xyz
  x,y,z
_cell_length_a	45.8321
_cell_length_b	45.8321
_cell_length_c	45.8321
_cell_angle_alpha	94.8259
_cell_angle_beta	94.8259
_cell_angle_gamma	146.278
loop_
_atom_site_label
_atom_site_type_symbol
_atom_site_fract_x
_atom_site_fract_y
_atom_site_fract_z
_atom_site_charge
Mof_N 	N 	0.09877	0.55374	0.53451	-0.211
Mof_N 	N 	0.10324	0.57498	0.56142	-0.206
Mof_N 	N 	0.96377	0.49673	0.5757	-0.208
Mof_N 	N 	0.91361	0.44979	0.5558	-0.206
Mof_N 	N 	0.89966	0.37486	0.48412	-0.207
Mof_N 	N 	0.94809	0.40546	0.47915	-0.218
Mof_N 	N 	0.1186	0.33457	0.95457	-0.205
Mof_N 	N 	0.1437	0.3705	0.938	-0.204
Mof_N 	N 	0.14218	0.3356	0.85198	-0.212
Mof_N 	N 	0.1158	0.2875	0.8387	-0.209
Mof_N 	N 	0.03062	0.17317	0.88779	-0.208
Mof_N 	N 	0.0281	0.184	0.9163	-0.213
Mof_N 	N 	0.29484	0.42696	0.7832	-0.216
Mof_N 	N 	0.2743	0.4347	0.7688	-0.212
Mof_N 	N 	0.34254	0.52781	0.70855	-0.22
Mof_N 	N 	0.38642	0.55265	0.70047	-0.216
Mof_N 	N 	0.45492	0.53636	0.74208	-0.21
Mof_N 	N 	0.42818	0.5027	0.76048	-0.213
Mof_N 	N 	0.35921	0.6397	0.64051	-0.204
Mof_N 	N 	0.40916	0.6857	0.66126	-0.204
Mof_N 	N 	0.49688	0.83636	0.67904	-0.201
Mof_N 	N 	0.47458	0.84228	0.66746	-0.205
Mof_N 	N 	0.3181	0.70586	0.60916	-0.205
Mof_N 	N 	0.2904	0.6573	0.6027	-0.21
Mof_N 	N 	0.65287	0.05284	0.76011	-0.202
Mof_N 	N 	0.63081	0.02083	0.78004	-0.218
Mof_N 	N 	0.65978	0.08519	0.86717	-0.216
Mof_N 	N 	0.68515	0.13322	0.87437	-0.204
Mof_N 	N 	0.75295	0.22636	0.81231	-0.213
Mof_N 	N 	0.7487	0.20662	0.78632	-0.214
Mof_N 	N 	0.78605	0.69017	0.84482	-0.22
Mof_N 	N 	0.74292	0.66962	0.85274	-0.219
Mof_N 	N 	0.60021	0.56336	0.78837	-0.21
Mof_N 	N 	0.59074	0.54612	0.75826	-0.202
Mof_N 	N 	0.70373	0.58459	0.73692	-0.203
Mof_N 	N 	0.7515	0.62003	0.75813	-0.206
Mof_N 	N 	0.80511	0.18111	0.29162	-0.213
Mof_N 	N 	0.78316	0.13479	0.28175	-0.209
Mof_N 	N 	0.88743	0.22588	0.18631	-0.227
Mof_N 	N 	0.85581	0.22342	0.17583	-0.216
Mof_N 	N 	0.79931	0.19169	0.4002	-0.2
Mof_N 	N 	0.81909	0.22163	0.37992	-0.205
Mof_N 	N 	0.32106	0.63156	0.15882	-0.209
Mof_N 	N 	0.27	0.58543	0.13783	-0.209
Mof_N 	N 	0.2519	0.52067	0.05677	-0.218
Mof_N 	N 	0.2964	0.5426	0.051	-0.217
Mof_N 	N 	0.1709	0.5548	0.2271	-0.223
Mof_N 	N 	0.1958	0.5526	0.2442	-0.224
Mof_N 	N 	0.81926	0.42147	0.65013	-0.207
Mof_N 	N 	0.84632	0.42087	0.66599	-0.223
Mof_N 	N 	0.7908	0.34624	0.73504	-0.208
Mof_N 	N 	0.74751	0.3225	0.74341	-0.198
Mof_N 	N 	0.818	0.62513	0.65273	-0.218
Mof_N 	N 	0.851	0.67793	0.66173	-0.214
Mof_N 	N 	0.0304	0.0719	0.9587	-0.208
Mof_N 	N 	0.982	0.0257	0.9361	-0.21
Mof_N 	N 	0.9066	0.8823	0.9313	-0.214
Mof_N 	N 	0.9334	0.8824	0.9474	-0.207
Mof_N 	N 	0.5245	0.0155	0.9424	-0.213
Mof_N 	N 	0.5725	0.061	0.9669	-0.222
Mof_C 	C 	0.1531	0.5627	0.5136	-0.628
Mof_C 	C 	0.1458	0.5769	0.5395	0.198
Mof_C 	C 	0.1788	0.61257	0.56817	-0.162
Mof_C 	C 	0.15219	0.6101	0.58149	0.222
Mof_C 	C 	0.1683	0.6394	0.6127	-0.66
Mof_C 	C 	0.0021	0.5471	0.6306	-0.635
Mof_C 	C 	0.9566	0.5011	0.6029	0.195
Mof_C 	C 	0.8995	0.4566	0.5995	-0.13
Mof_C 	C 	0.875	0.4261	0.5697	0.19
Mof_C 	C 	0.815	0.3726	0.5534	-0.61
Mof_C 	C 	0.8012	0.2837	0.4659	-0.692
Mof_C 	C 	0.8576	0.3232	0.465	0.239
Mof_C 	C 	0.8781	0.3194	0.4489	-0.174
Mof_C 	C 	0.935	0.3711	0.4575	0.216
Mof_C 	C 	0.9777	0.3893	0.4484	-0.668
Mof_C 	C 	0.1258	0.3364	0.0094	-0.621
Mof_C 	C 	0.142	0.362	0.984	0.198
Mof_C 	C 	0.1842	0.4186	0.9872	-0.123
Mof_C 	C 	0.1827	0.4206	0.9575	0.175
Mof_C 	C 	0.2174	0.4692	0.9448	-0.572
Mof_C 	C 	0.214	0.4285	0.8483	-0.651
Mof_C 	C 	0.1824	0.3743	0.8389	0.213
Mof_C 	C 	0.1839	0.3529	0.8172	-0.135
Mof_C 	C 	0.1412	0.2985	0.8181	0.181
Mof_C 	C 	0.1235	0.2546	0.7987	-0.599
Mof_C 	C 	0.025	0.1199	0.8603	-0.609
Mof_C 	C 	0.0242	0.139	0.8888	0.194
Mof_C 	C 	0.018	0.1271	0.9157	-0.135
Mof_C 	C 	0.021	0.1572	0.9318	0.182
Mof_C 	C 	0.0155	0.1608	0.9645	-0.568
Mof_C 	C 	0.2762	0.3811	0.8207	-0.643
Mof_C 	C 	0.2632	0.3953	0.8013	0.215
Mof_C 	C 	0.2235	0.3833	0.7994	-0.153
Mof_C 	C 	0.2321	0.409	0.7793	0.207
Mof_C 	C 	0.2025	0.4115	0.7678	-0.631
Mof_C 	C 	0.2865	0.5253	0.7	-0.651
Mof_C 	C 	0.3317	0.5439	0.6954	0.216
Mof_C 	C 	0.3692	0.581	0.6798	-0.159
Mof_C 	C 	0.4019	0.5835	0.6826	0.216
Mof_C 	C 	0.45	0.6166	0.671	-0.658
Mof_C 	C 	0.5344	0.5964	0.7222	-0.59
Mof_C 	C 	0.4965	0.5545	0.7394	0.185
Mof_C 	C 	0.4982	0.5318	0.757	-0.142
Mof_C 	C 	0.45367	0.4986	0.76887	0.217
Mof_C 	C 	0.4331	0.463	0.7887	-0.664
Mof_C 	C 	0.2834	0.54	0.6242	-0.594
Mof_C 	C 	0.3382	0.5956	0.6436	0.183
Mof_C 	C 	0.3753	0.6128	0.6661	-0.12
Mof_C 	C 	0.4191	0.6699	0.6764	0.186
Mof_C 	C 	0.472	0.7109	0.7013	-0.591
Mof_C 	C 	0.5712	0.8823	0.7223	-0.578
Mof_C 	C 	0.5394	0.8796	0.7044	0.174
Mof_C 	C 	0.5435	0.913	0.7083	-0.122
Mof_C 	C 	0.503	0.8889	0.6839	0.178
Mof_C 	C 	0.4894	0.9092	0.6772	-0.578
Mof_C 	C 	0.302	0.744	0.6004	-0.676
Mof_C 	C 	0.2822	0.6972	0.597	0.216
Mof_C 	C 	0.2298	0.6399	0.5823	-0.143
Mof_C 	C 	0.2376	0.61734	0.58654	0.192
Mof_C 	C 	0.1975	0.5588	0.5771	-0.641
Mof_C 	C 	0.6391	0.0392	0.7033	-0.584
Mof_C 	C 	0.6254	0.0183	0.7315	0.182
Mof_C 	C 	0.5828	0.9628	0.734	-0.145
Mof_C 	C 	0.5893	0.9682	0.7641	0.222
Mof_C 	C 	0.557	0.9256	0.7804	-0.668
Mof_C 	C 	0.5925	0.9998	0.8817	-0.656
Mof_C 	C 	0.6264	0.055	0.8842	0.216
Mof_C 	C 	0.6313	0.0844	0.9043	-0.159
Mof_C 	C 	0.6677	0.1317	0.8972	0.213
Mof_C 	C 	0.6911	0.1813	0.911	-0.638
Mof_C 	C 	0.7665	0.2884	0.8345	-0.689
Mof_C 	C 	0.76068	0.26098	0.80926	0.238
Mof_C 	C 	0.7607	0.264	0.7799	-0.165
Mof_C 	C 	0.7539	0.2286	0.7659	0.217
Mof_C 	C 	0.7481	0.2141	0.7338	-0.645
Mof_C 	C 	0.8872	0.7717	0.8625	-0.605
Mof_C 	C 	0.8334	0.7393	0.8649	0.195
Mof_C 	C 	0.8217	0.7505	0.885	-0.155
Mof_C 	C 	0.7661	0.7075	0.877	0.221
Mof_C 	C 	0.7293	0.6957	0.8904	-0.635
Mof_C 	C 	0.5724	0.5778	0.8216	-0.629
Mof_C 	C 	0.5687	0.5596	0.7911	0.204
Mof_C 	C 	0.5384	0.5424	0.7626	-0.132
Mof_C 	C 	0.55351	0.5342	0.74231	0.18
Mof_C 	C 	0.5362	0.5165	0.7083	-0.589
Mof_C 	C 	0.6664	0.5451	0.6805	-0.606
Mof_C 	C 	0.7107	0.5807	0.7094	0.183
Mof_C 	C 	0.765	0.6155	0.7131	-0.121
Mof_C 	C 	0.7883	0.6395	0.7448	0.193
Mof_C 	C 	0.8447	0.68	0.7631	-0.627
Mof_C 	C 	0.8522	0.2606	0.2752	-0.579
Mof_C 	C 	0.82539	0.2079	0.26989	0.166
Mof_C 	C 	0.8186	0.181	0.2456	-0.113
Mof_C 	C 	0.7905	0.1348	0.2535	0.17
Mof_C 	C 	0.7702	0.0882	0.2366	-0.578
Mof_C 	C 	0.9069	0.213	0.2303	-0.765
Mof_C 	C 	0.87884	0.21207	0.21271	0.276
Mof_C 	C 	0.8398	0.1984	0.2186	-0.19
Mof_C 	C 	0.8272	0.2062	0.1954	0.227
Mof_C 	C 	0.7886	0.1993	0.1897	-0.653
Mof_C 	C 	0.8005	0.1987	0.4544	-0.6
Mof_C 	C 	0.8158	0.2211	0.4273	0.184
Mof_C 	C 	0.8494	0.27302	0.42502	-0.113
Mof_C 	C 	0.84836	0.26943	0.39459	0.167
Mof_C 	C 	0.8756	0.3127	0.3785	-0.56
Mof_C 	C 	0.3592	0.6833	0.2127	-0.603
Mof_C 	C 	0.313	0.6375	0.1847	0.19
Mof_C 	C 	0.2575	0.5944	0.1813	-0.128
Mof_C 	C 	0.2311	0.5621	0.1508	0.217
Mof_C 	C 	0.1734	0.5116	0.1342	-0.641
Mof_C 	C 	0.1518	0.4389	0.0349	-0.653
Mof_C 	C 	0.2069	0.4732	0.0353	0.219
Mof_C 	C 	0.2203	0.46405	0.01495	-0.161
Mof_C 	C 	0.2764	0.5076	0.0262	0.218
Mof_C 	C 	0.3149	0.5199	0.0156	-0.635
Mof_C 	C 	0.1743	0.579	0.1815	-0.731
Mof_C 	C 	0.1915	0.571	0.2025	0.258
Mof_C 	C 	0.2291	0.5804	0.2037	-0.179
Mof_C 	C 	0.2296	0.5675	0.2299	0.217
Mof_C 	C 	0.2606	0.5679	0.2431	-0.647
Mof_C 	C 	0.8183	0.4437	0.6026	-0.589
Mof_C 	C 	0.8379	0.4366	0.6247	0.188
Mof_C 	C 	0.8744	0.4441	0.6241	-0.15
Mof_C 	C 	0.8761	0.4314	0.6497	0.223
Mof_C 	C 	0.9076	0.4323	0.6615	-0.666
Mof_C 	C 	0.8498	0.3521	0.7429	-0.611
Mof_C 	C 	0.8039	0.332	0.7481	0.184
Mof_C 	C 	0.7653	0.2935	0.7634	-0.112
Mof_C 	C 	0.7308	0.2894	0.7606	0.162
Mof_C 	C 	0.6823	0.2565	0.773	-0.559
Mof_C 	C 	0.7405	0.5381	0.6654	-0.688
Mof_C 	C 	0.78281	0.59634	0.67015	0.232
Mof_C 	C 	0.7934	0.6294	0.691	-0.159
Mof_C 	C 	0.8373	0.681	0.6851	0.212
Mof_C 	C 	0.8656	0.7323	0.7003	-0.644
Mof_C 	C 	0.1022	0.1706	0.9736	-0.582
Mof_C 	C 	0.0471	0.1133	0.9526	0.172
Mof_C 	C 	0.0122	0.0952	0.928	-0.131
Mof_C 	C 	0.9725	0.0396	0.9175	0.2
Mof_C 	C 	0.9237	0.9986	0.8903	-0.636
Mof_C 	C 	0.8329	0.83	0.8869	-0.667
Mof_C 	C 	0.8648	0.8367	0.9079	0.224
Mof_C 	C 	0.8615	0.8038	0.9075	-0.143
Mof_C 	C 	0.9044	0.8332	0.9328	0.185
Mof_C 	C 	0.9221	0.8192	0.9457	-0.6
Mof_C 	C 	0.4989	0.9774	0.8887	-0.6
Mof_C 	C 	0.5415	0.0195	0.918	0.194
Mof_C 	C 	0.5992	0.0649	0.9259	-0.131
Mof_C 	C 	0.6139	0.0871	0.9562	0.182
Mof_C 	C 	0.67205	0.1384	0.97765	-0.595
Mof_Ag	Ag	0.02293	0.48265	0.50532	0.31
Mof_Ag	Ag	0.03375	0.53835	0.56679	0.384
Mof_Ag	Ag	0.90644	0.41496	0.51764	0.37
Mof_Ag	Ag	0.06778	0.25711	0.93323	0.375
Mof_Ag	Ag	0.13435	0.34713	0.89328	0.33
Mof_Ag	Ag	0.06641	0.22609	0.86068	0.379
Mof_Ag	Ag	0.36004	0.46295	0.77067	0.352
Mof_Ag	Ag	0.30744	0.47895	0.73731	0.365
Mof_Ag	Ag	0.42065	0.54431	0.7202	0.34
Mof_Ag	Ag	0.32578	0.64869	0.62021	0.306
Mof_Ag	Ag	0.45328	0.76059	0.66677	0.383
Mof_Ag	Ag	0.39824	0.77588	0.63582	0.367
Mof_Ag	Ag	0.70672	0.13187	0.77513	0.366
Mof_Ag	Ag	0.65105	0.05645	0.82442	0.303
Mof_Ag	Ag	0.72579	0.18359	0.84546	0.389
Mof_Ag	Ag	0.76704	0.65168	0.8028	0.333
Mof_Ag	Ag	0.67001	0.61064	0.82027	0.341
Mof_Ag	Ag	0.6437	0.56034	0.74698	0.416
Mof_Ag	Ag	0.80959	0.19877	0.33564	0.328
Mof_Ag	Ag	0.75476	0.08827	0.31039	0.338
Mof_Ag	Ag	0.75702	0.11696	0.38424	0.416
Mof_Ag	Ag	0.38671	0.66573	0.14964	0.32
Mof_Ag	Ag	0.26433	0.5576	0.09631	0.401
Mof_Ag	Ag	0.37058	0.60759	0.08343	0.353
Mof_Ag	Ag	0.75891	0.39237	0.66404	0.35
Mof_Ag	Ag	0.82068	0.38796	0.70246	0.32
Mof_Ag	Ag	0.70831	0.32349	0.72016	0.417
Mof_Ag	Ag	0.06505	0.07062	0.98685	0.34
Mof_Ag	Ag	0.9438	0.95449	0.93609	0.398
Mof_Ag	Ag	0.45106	0.97085	0.94589	0.36
Mof_H 	H 	0.1208	0.5356	0.4968	0.17
Mof_H 	H 	0.1594	0.5485	0.5201	0.178
Mof_H 	H 	0.1838	0.5948	0.5074	0.175
Mof_H 	H 	0.2036	0.6624	0.6238	0.196
Mof_H 	H 	0.1417	0.6131	0.6232	0.179
Mof_H 	H 	0.1699	0.6614	0.6109	0.186
Mof_H 	H 	0.0363	0.5714	0.6263	0.169
Mof_H 	H 	0.9985	0.533	0.6467	0.18
Mof_H 	H 	0.0007	0.5665	0.6364	0.179
Mof_H 	H 	0.8105	0.3615	0.5326	0.162
Mof_H 	H 	0.7978	0.3769	0.5539	0.174
Mof_H 	H 	0.7984	0.3452	0.5632	0.175
Mof_H 	H 	0.7755	0.249	0.4517	0.204
Mof_H 	H 	0.7937	0.2971	0.4606	0.203
Mof_H 	H 	0.7979	0.2794	0.4861	0.191
Mof_H 	H 	0.0129	0.4277	0.4582	0.18
Mof_H 	H 	0.971	0.3829	0.4267	0.194
Mof_H 	H 	0.977	0.3693	0.4545	0.195
Mof_H 	H 	0.0965	0.2978	0.0013	0.17
Mof_H 	H 	0.1139	0.342	0.0213	0.182
Mof_H 	H 	0.1566	0.3528	0.0222	0.177
Mof_H 	H 	0.2065	0.4572	0.9229	0.153
Mof_H 	H 	0.2553	0.4962	0.9525	0.164
Mof_H 	H 	0.2121	0.485	0.9509	0.163
Mof_H 	H 	0.2021	0.4293	0.8642	0.18
Mof_H 	H 	0.2082	0.4352	0.8312	0.192
Mof_H 	H 	0.2522	0.4563	0.8557	0.188
Mof_H 	H 	0.0929	0.2209	0.8038	0.163
Mof_H 	H 	0.1534	0.2662	0.8028	0.169
Mof_H 	H 	0.1133	0.2495	0.7776	0.176
Mof_H 	H 	0.0196	0.0954	0.8636	0.179
Mof_H 	H 	0.0595	0.1509	0.856	0.165
Mof_H 	H 	0.9961	0.1012	0.8433	0.171
Mof_H 	H 	0.0192	0.1848	0.969	0.15
Mof_H 	H 	0.0435	0.1747	0.979	0.159
Mof_H 	H 	0.9801	0.1249	0.9654	0.163
Mof_H 	H 	0.3067	0.3962	0.8167	0.174
Mof_H 	H 	0.2853	0.3959	0.8418	0.187
Mof_H 	H 	0.245	0.342	0.816	0.183
Mof_H 	H 	0.2193	0.4335	0.7538	0.169
Mof_H 	H 	0.165	0.3753	0.7577	0.185
Mof_H 	H 	0.2045	0.4274	0.7847	0.178
Mof_H 	H 	0.2665	0.4989	0.7114	0.175
Mof_H 	H 	0.3017	0.5561	0.711	0.188
Mof_H 	H 	0.2624	0.509	0.6806	0.188
Mof_H 	H 	0.4629	0.6083	0.6766	0.181
Mof_H 	H 	0.4396	0.6081	0.6493	0.196
Mof_H 	H 	0.4786	0.6548	0.68	0.19
Mof_H 	H 	0.5201	0.6017	0.7124	0.157
Mof_H 	H 	0.5699	0.6304	0.7361	0.171
Mof_H 	H 	0.5376	0.5838	0.707	0.166
Mof_H 	H 	0.4017	0.4456	0.7931	0.184
Mof_H 	H 	0.4233	0.4357	0.7784	0.203
Mof_H 	H 	0.4613	0.4848	0.8073	0.187
Mof_H 	H 	0.2683	0.5421	0.6106	0.157
Mof_H 	H 	0.2866	0.5246	0.6126	0.167
Mof_H 	H 	0.2598	0.5173	0.6369	0.166
Mof_H 	H 	0.4947	0.747	0.7035	0.159
Mof_H 	H 	0.4638	0.7018	0.7202	0.171
Mof_H 	H 	0.4909	0.7097	0.696	0.173
Mof_H 	H 	0.5992	0.9145	0.7395	0.165
Mof_H 	H 	0.5469	0.8504	0.7295	0.152
Mof_H 	H 	0.5879	0.884	0.7095	0.159
Mof_H 	H 	0.4593	0.8843	0.659	0.151
Mof_H 	H 	0.4795	0.911	0.6941	0.167
Mof_H 	H 	0.5207	0.9448	0.6741	0.165
Mof_H 	H 	0.3397	0.7766	0.6121	0.185
Mof_H 	H 	0.2986	0.7478	0.5806	0.2
Mof_H 	H 	0.2807	0.7383	0.6106	0.197
Mof_H 	H 	0.1626	0.5366	0.566	0.19
Mof_H 	H 	0.2102	0.555	0.5644	0.18
Mof_H 	H 	0.194	0.5474	0.595	0.176
Mof_H 	H 	0.6698	0.0783	0.7095	0.158
Mof_H 	H 	0.6081	0.0228	0.6909	0.165
Mof_H 	H 	0.648	0.0298	0.6918	0.175
Mof_H 	H 	0.5718	0.9424	0.802	0.18
Mof_H 	H 	0.5586	0.9062	0.7756	0.192
Mof_H 	H 	0.5197	0.9004	0.7743	0.194
Mof_H 	H 	0.5978	0.9908	0.8656	0.177
Mof_H 	H 	0.5545	0.9731	0.8772	0.187
Mof_H 	H 	0.6032	0.9997	0.9005	0.191
Mof_H 	H 	0.6756	0.1748	0.9272	0.189
Mof_H 	H 	0.6826	0.1878	0.8956	0.173
Mof_H 	H 	0.7301	0.2127	0.919	0.179
Mof_H 	H 	0.7649	0.2781	0.8524	0.186
Mof_H 	H 	0.7373	0.2778	0.8293	0.194
Mof_H 	H 	0.801	0.3273	0.8383	0.201
Mof_H 	H 	0.7441	0.1898	0.7307	0.17
Mof_H 	H 	0.78	0.2467	0.7283	0.183
Mof_H 	H 	0.7163	0.1962	0.7211	0.184
Mof_H 	H 	0.8805	0.7515	0.8454	0.163
Mof_H 	H 	0.9049	0.7776	0.8809	0.173
Mof_H 	H 	0.9103	0.8063	0.8596	0.175
Mof_H 	H 	0.6921	0.6612	0.8785	0.177
Mof_H 	H 	0.7391	0.7241	0.8906	0.178
Mof_H 	H 	0.7331	0.6941	0.911	0.188
Mof_H 	H 	0.5968	0.5878	0.837	0.165
Mof_H 	H 	0.5367	0.5484	0.8249	0.177
Mof_H 	H 	0.5858	0.6087	0.8225	0.181
Mof_H 	H 	0.5544	0.5153	0.7011	0.154
Mof_H 	H 	0.5456	0.5419	0.7007	0.166
Mof_H 	H 	0.4973	0.4807	0.7012	0.166
Mof_H 	H 	0.6343	0.5263	0.685	0.16
Mof_H 	H 	0.6581	0.5188	0.6705	0.175
Mof_H 	H 	0.6781	0.5671	0.6674	0.174
Mof_H 	H 	0.8482	0.688	0.7842	0.169
Mof_H 	H 	0.8708	0.7129	0.7567	0.177
Mof_H 	H 	0.8513	0.665	0.7599	0.181
Mof_H 	H 	0.8501	0.2681	0.2944	0.156
Mof_H 	H 	0.8898	0.2902	0.2752	0.164
Mof_H 	H 	0.8336	0.2567	0.2591	0.168
Mof_H 	H 	0.7527	0.0629	0.2486	0.157
Mof_H 	H 	0.7446	0.0696	0.2174	0.174
Mof_H 	H 	0.8007	0.1028	0.2333	0.16
Mof_H 	H 	0.9312	0.2236	0.22	0.204
Mof_H 	H 	0.9276	0.2387	0.2499	0.224
Mof_H 	H 	0.8807	0.1771	0.2326	0.22
Mof_H 	H 	0.7901	0.2088	0.1715	0.177
Mof_H 	H 	0.7521	0.162	0.1877	0.181
Mof_H 	H 	0.7993	0.2229	0.2066	0.188
Mof_H 	H 	0.7768	0.1619	0.4481	0.16
Mof_H 	H 	0.833	0.221	0.4696	0.174
Mof_H 	H 	0.7819	0.1987	0.4626	0.176
Mof_H 	H 	0.8679	0.2994	0.3573	0.14
Mof_H 	H 	0.8614	0.3202	0.3802	0.152
Mof_H 	H 	0.9143	0.3455	0.3876	0.156
Mof_H 	H 	0.3934	0.7076	0.2082	0.156
Mof_H 	H 	0.3584	0.703	0.2192	0.166
Mof_H 	H 	0.3556	0.6687	0.2285	0.168
Mof_H 	H 	0.1694	0.5001	0.1137	0.17
Mof_H 	H 	0.1549	0.4838	0.1443	0.184
Mof_H 	H 	0.1577	0.5177	0.1338	0.18
Mof_H 	H 	0.1553	0.4563	0.0518	0.174
Mof_H 	H 	0.1364	0.4348	0.0162	0.188
Mof_H 	H 	0.1282	0.4035	0.0365	0.187
Mof_H 	H 	0.3514	0.5541	0.0285	0.17
Mof_H 	H 	0.3045	0.4912	0.0163	0.182
Mof_H 	H 	0.3136	0.5221	0.9949	0.181
Mof_H 	H 	0.1475	0.5686	0.1875	0.204
Mof_H 	H 	0.2053	0.6167	0.1816	0.222
Mof_H 	H 	0.1586	0.5567	0.1613	0.207
Mof_H 	H 	0.2527	0.558	0.2619	0.174
Mof_H 	H 	0.25	0.542	0.229	0.185
Mof_H 	H 	0.2991	0.6038	0.2469	0.187
Mof_H 	H 	0.793	0.4351	0.6095	0.16
Mof_H 	H 	0.8003	0.4194	0.5827	0.165
Mof_H 	H 	0.8491	0.4808	0.6015	0.178
Mof_H 	H 	0.9004	0.422	0.6802	0.181
Mof_H 	H 	0.946	0.4685	0.6653	0.191
Mof_H 	H 	0.8972	0.407	0.6468	0.192
Mof_H 	H 	0.8685	0.3778	0.7311	0.163
Mof_H 	H 	0.8356	0.3218	0.7322	0.171
Mof_H 	H 	0.8749	0.3697	0.7622	0.177
Mof_H 	H 	0.6679	0.2629	0.7664	0.149
Mof_H 	H 	0.6941	0.2676	0.7949	0.156
Mof_H 	H 	0.6545	0.2182	0.7657	0.157
Mof_H 	H 	0.7196	0.5245	0.6797	0.206
Mof_H 	H 	0.7574	0.5335	0.6681	0.191
Mof_H 	H 	0.7166	0.518	0.645	0.185
Mof_H 	H 	0.8941	0.7605	0.6912	0.17
Mof_H 	H 	0.8812	0.7432	0.7216	0.183
Mof_H 	H 	0.8397	0.7262	0.6977	0.185
Mof_H 	H 	0.1153	0.1684	0.9891	0.156
Mof_H 	H 	0.0977	0.1859	0.983	0.165
Mof_H 	H 	0.128	0.1934	0.962	0.169
Mof_H 	H 	0.9032	0.9636	0.8884	0.171
Mof_H 	H 	0.9355	0.0099	0.8724	0.185
Mof_H 	H 	0.901	0.9959	0.8929	0.188
Mof_H 	H 	0.8457	0.8604	0.8937	0.178
Mof_H 	H 	0.795	0.7966	0.8862	0.189
Mof_H 	H 	0.8371	0.8286	0.8669	0.19
Mof_H 	H 	0.9533	0.8485	0.9632	0.16
Mof_H 	H 	0.9316	0.8142	0.9306	0.171
Mof_H 	H 	0.8926	0.7861	0.9517	0.168
Mof_H 	H 	0.4635	0.9521	0.8914	0.163
Mof_H 	H 	0.5	0.9579	0.8819	0.172
Mof_H 	H 	0.5055	0.9947	0.8736	0.17
Mof_H 	H 	0.6707	0.1446	0.9977	0.162
Mof_H 	H 	0.6933	0.1695	0.9702	0.168
Mof_H 	H 	0.6887	0.1335	0.9786	0.178
Mof_N 	N 	0.51923	0.56426	0.96549	-0.212
Mof_N 	N 	0.51356	0.54182	0.93858	-0.207
Mof_N 	N 	0.42103	0.38807	0.9243	-0.209
Mof_N 	N 	0.39399	0.35781	0.9442	-0.207
Mof_N 	N 	0.39074	0.41554	0.01588	-0.208
Mof_N 	N 	0.42631	0.46894	0.02085	-0.219
Mof_N 	N 	0.88	0.16403	0.54543	-0.206
Mof_N 	N 	0.9325	0.2057	0.562	-0.205
Mof_N 	N 	0.98362	0.2902	0.64802	-0.213
Mof_N 	N 	0.9488	0.2771	0.6613	-0.21
Mof_N 	N 	0.78538	0.14283	0.61221	-0.209
Mof_N 	N 	0.7677	0.1118	0.5837	-0.215
Mof_N 	N 	0.14376	0.51164	0.7168	-0.216
Mof_N 	N 	0.1659	0.5055	0.7312	-0.212
Mof_N 	N 	0.31926	0.63399	0.79145	-0.22
Mof_N 	N 	0.35218	0.68595	0.79953	-0.216
Mof_N 	N 	0.29428	0.71284	0.75792	-0.21
Mof_N 	N 	0.24222	0.6677	0.73952	-0.213
Mof_N 	N 	0.49919	0.7187	0.85949	-0.204
Mof_N 	N 	0.52444	0.7479	0.83874	-0.204
Mof_N 	N 	0.65732	0.81784	0.82096	-0.201
Mof_N 	N 	0.67482	0.80712	0.83254	-0.205
Mof_N 	N 	0.5967	0.70894	0.89084	-0.205
Mof_N 	N 	0.5546	0.6877	0.8973	-0.21
Mof_N 	N 	0.79273	0.89276	0.73989	-0.203
Mof_N 	N 	0.74079	0.85077	0.71996	-0.218
Mof_N 	N 	0.71802	0.79261	0.63283	-0.216
Mof_N 	N 	0.75885	0.81078	0.62563	-0.204
Mof_N 	N 	0.91405	0.94064	0.68769	-0.213
Mof_N 	N 	0.9203	0.96238	0.71368	-0.215
Mof_N 	N 	0.34535	0.94123	0.65518	-0.22
Mof_N 	N 	0.31688	0.89018	0.64726	-0.219
Mof_N 	N 	0.27499	0.81184	0.71163	-0.21
Mof_N 	N 	0.28786	0.83248	0.74174	-0.202
Mof_N 	N 	0.34767	0.96681	0.76308	-0.203
Mof_N 	N 	0.3619	0.99337	0.74187	-0.206
Mof_N 	N 	0.38949	0.51349	0.20838	-0.213
Mof_N 	N 	0.35304	0.50141	0.21825	-0.209
Mof_N 	N 	0.53957	0.70112	0.31369	-0.227
Mof_N 	N 	0.54759	0.67998	0.32417	-0.216
Mof_N 	N 	0.29149	0.39911	0.0998	-0.2
Mof_N 	N 	0.34171	0.43917	0.12008	-0.205
Mof_N 	N 	0.97274	0.16224	0.34118	-0.209
Mof_N 	N 	0.9476	0.13217	0.36217	-0.208
Mof_N 	N 	0.9639	0.19513	0.44323	-0.218
Mof_N 	N 	0.9916	0.2454	0.449	-0.217
Mof_N 	N 	0.8277	0.9438	0.2729	-0.223
Mof_N 	N 	0.8084	0.9516	0.2558	-0.225
Mof_N 	N 	0.27134	0.16913	0.84987	-0.207
Mof_N 	N 	0.25488	0.18033	0.83401	-0.223
Mof_N 	N 	0.1112	0.05576	0.76496	-0.207
Mof_N 	N 	0.07909	0.0041	0.75659	-0.197
Mof_N 	N 	0.4724	0.16527	0.84727	-0.218
Mof_N 	N 	0.5162	0.18927	0.83827	-0.214
Mof_N 	N 	0.6132	0.0717	0.5413	-0.208
Mof_N 	N 	0.5896	0.0459	0.5639	-0.21
Mof_N 	N 	0.451	0.9753	0.5687	-0.214
Mof_N 	N 	0.435	0.986	0.5526	-0.207
Mof_N 	N 	0.5731	0.5821	0.5576	-0.213
Mof_N 	N 	0.5941	0.6056	0.5331	-0.222
Mof_C 	C 	0.5491	0.6395	0.9864	-0.628
Mof_C 	C 	0.5374	0.6063	0.9605	0.198
Mof_C 	C 	0.5444	0.61063	0.93183	-0.162
Mof_C 	C 	0.52861	0.5707	0.91851	0.222
Mof_C 	C 	0.5267	0.5556	0.8873	-0.66
Mof_C 	C 	0.4165	0.3715	0.8694	-0.635
Mof_C 	C 	0.3982	0.3537	0.8971	0.195
Mof_C 	C 	0.3571	0.3	0.9005	-0.13
Mof_C 	C 	0.3564	0.3053	0.9303	0.19
Mof_C 	C 	0.3192	0.2616	0.9466	-0.61
Mof_C 	C 	0.3178	0.3353	0.0341	-0.692
Mof_C 	C 	0.3582	0.3926	0.035	0.239
Mof_C 	C 	0.3705	0.4292	0.0511	-0.174
Mof_C 	C 	0.4136	0.4775	0.0425	0.216
Mof_C 	C 	0.4409	0.5293	0.0516	-0.667
Mof_C 	C 	0.827	0.1164	0.4906	-0.621
Mof_C 	C 	0.878	0.158	0.516	0.198
Mof_C 	C 	0.9314	0.197	0.5128	-0.123
Mof_C 	C 	0.9631	0.2252	0.5425	0.174
Mof_C 	C 	0.0244	0.2726	0.5552	-0.571
Mof_C 	C 	0.0802	0.3657	0.6517	-0.651
Mof_C 	C 	0.0354	0.3435	0.6611	0.214
Mof_C 	C 	0.0357	0.3667	0.6828	-0.135
Mof_C 	C 	0.9804	0.3231	0.6819	0.18
Mof_C 	C 	0.9559	0.3248	0.7013	-0.598
Mof_C 	C 	0.7596	0.1647	0.6397	-0.613
Mof_C 	C 	0.7502	0.1354	0.6112	0.194
Mof_C 	C 	0.7114	0.1023	0.5843	-0.135
Mof_C 	C 	0.7254	0.0892	0.5682	0.182
Mof_C 	C 	0.6963	0.051	0.5355	-0.571
Mof_C 	C 	0.0604	0.4555	0.6793	-0.643
Mof_C 	C 	0.094	0.4619	0.6987	0.215
Mof_C 	C 	0.0839	0.4241	0.7006	-0.154
Mof_C 	C 	0.1297	0.4528	0.7207	0.207
Mof_C 	C 	0.1437	0.4347	0.7322	-0.631
Mof_C 	C 	0.3253	0.5865	0.8	-0.651
Mof_C 	C 	0.3485	0.6363	0.8046	0.216
Mof_C 	C 	0.4012	0.6894	0.8202	-0.159
Mof_C 	C 	0.4009	0.7193	0.8174	0.216
Mof_C 	C 	0.4456	0.779	0.829	-0.658
Mof_C 	C 	0.3742	0.8122	0.7778	-0.59
Mof_C 	C 	0.3151	0.7571	0.7606	0.185
Mof_C 	C 	0.2748	0.7412	0.743	-0.142
Mof_C 	C 	0.22973	0.6848	0.73113	0.217
Mof_C 	C 	0.1743	0.6444	0.7113	-0.664
Mof_C 	C 	0.4158	0.6592	0.8758	-0.594
Mof_C 	C 	0.452	0.6946	0.8564	0.183
Mof_C 	C 	0.4467	0.7092	0.8339	-0.12
Mof_C 	C 	0.4935	0.7427	0.8236	0.186
Mof_C 	C 	0.5096	0.7707	0.7987	-0.591
Mof_C 	C 	0.66	0.8489	0.7777	-0.578
Mof_C 	C 	0.6752	0.835	0.7956	0.174
Mof_C 	C 	0.7047	0.8352	0.7917	-0.121
Mof_C 	C 	0.705	0.8191	0.8161	0.178
Mof_C 	C 	0.732	0.8122	0.8228	-0.577
Mof_C 	C 	0.6436	0.7016	0.8996	-0.676
Mof_C 	C 	0.6002	0.6852	0.903	0.216
Mof_C 	C 	0.5576	0.6475	0.9177	-0.143
Mof_C 	C 	0.5308	0.65106	0.91346	0.192
Mof_C 	C 	0.4817	0.6204	0.9229	-0.641
Mof_C 	C 	0.8359	0.9358	0.7967	-0.586
Mof_C 	C 	0.7868	0.8939	0.7685	0.183
Mof_C 	C 	0.7288	0.8488	0.766	-0.146
Mof_C 	C 	0.7041	0.8252	0.7359	0.221
Mof_C 	C 	0.6452	0.7766	0.7196	-0.667
Mof_C 	C 	0.6181	0.7108	0.6183	-0.658
Mof_C 	C 	0.6708	0.7422	0.6158	0.217
Mof_C 	C 	0.6801	0.727	0.5957	-0.159
Mof_C 	C 	0.7345	0.7705	0.6028	0.213
Mof_C 	C 	0.7703	0.7801	0.589	-0.638
Mof_C 	C 	0.9539	0.932	0.6655	-0.691
Mof_C 	C 	0.95172	0.95142	0.69074	0.24
Mof_C 	C 	0.9841	0.9808	0.7201	-0.167
Mof_C 	C 	0.9627	0.988	0.7341	0.224
Mof_C 	C 	0.9803	0.0143	0.7662	-0.663
Mof_C 	C 	0.4092	0.0247	0.6375	-0.606
Mof_C 	C 	0.3744	0.9685	0.6351	0.196
Mof_C 	C 	0.3655	0.9367	0.615	-0.155
Mof_C 	C 	0.3305	0.8891	0.623	0.221
Mof_C 	C 	0.3053	0.8389	0.6096	-0.636
Mof_C 	C 	0.2562	0.7508	0.6784	-0.629
Mof_C 	C 	0.2685	0.7776	0.7089	0.204
Mof_C 	C 	0.2798	0.7758	0.7374	-0.132
Mof_C 	C 	0.29189	0.8112	0.75769	0.18
Mof_C 	C 	0.3082	0.8279	0.7917	-0.589
Mof_C 	C 	0.3646	0.9859	0.8195	-0.603
Mof_C 	C 	0.3713	0.0013	0.7906	0.181
Mof_C 	C 	0.4024	0.0519	0.7869	-0.121
Mof_C 	C 	0.3947	0.0435	0.7552	0.192
Mof_C 	C 	0.4169	0.0816	0.7369	-0.626
Mof_C 	C 	0.4854	0.577	0.2248	-0.579
Mof_C 	C 	0.43801	0.5555	0.23011	0.166
Mof_C 	C 	0.4354	0.573	0.2544	-0.113
Mof_C 	C 	0.3813	0.537	0.2465	0.171
Mof_C 	C 	0.3516	0.5336	0.2634	-0.579
Mof_C 	C 	0.4827	0.6766	0.2697	-0.765
Mof_C 	C 	0.49936	0.66613	0.28729	0.277
Mof_C 	C 	0.4798	0.6212	0.2814	-0.19
Mof_C 	C 	0.5108	0.6318	0.3046	0.227
Mof_C 	C 	0.5096	0.5989	0.3103	-0.653
Mof_C 	C 	0.2443	0.3461	0.0456	-0.6
Mof_C 	C 	0.2938	0.3885	0.0727	0.185
Mof_C 	C 	0.348	0.42438	0.07498	-0.113
Mof_C 	C 	0.37484	0.45377	0.10541	0.167
Mof_C 	C 	0.4342	0.4971	0.1215	-0.56
Mof_C 	C 	0.9706	0.1465	0.2873	-0.601
Mof_C 	C 	0.9528	0.1283	0.3153	0.188
Mof_C 	C 	0.9131	0.0762	0.3187	-0.125
Mof_C 	C 	0.9113	0.0803	0.3492	0.215
Mof_C 	C 	0.8774	0.0392	0.3658	-0.639
Mof_C 	C 	0.904	0.1169	0.4651	-0.653
Mof_C 	C 	0.9379	0.1716	0.4647	0.219
Mof_C 	C 	0.9491	0.20535	0.48505	-0.16
Mof_C 	C 	0.9814	0.2502	0.4738	0.216
Mof_C 	C 	0.0043	0.2993	0.4844	-0.631
Mof_C 	C 	0.8975	0.9928	0.3185	-0.728
Mof_C 	C 	0.8685	0.989	0.2975	0.259
Mof_C 	C 	0.8767	0.0254	0.2963	-0.184
Mof_C 	C 	0.8376	0.9997	0.2701	0.224
Mof_C 	C 	0.8248	0.0175	0.2569	-0.661
Mof_C 	C 	0.3411	0.2157	0.8974	-0.589
Mof_C 	C 	0.3119	0.2132	0.8753	0.188
Mof_C 	C 	0.32	0.2503	0.8759	-0.15
Mof_C 	C 	0.2817	0.2264	0.8503	0.223
Mof_C 	C 	0.2708	0.2461	0.8385	-0.666
Mof_C 	C 	0.1092	0.1069	0.7571	-0.609
Mof_C 	C 	0.0839	0.0558	0.7519	0.183
Mof_C 	C 	0.0301	0.0019	0.7366	-0.11
Mof_C 	C 	0.0288	0.9702	0.7394	0.159
Mof_C 	C 	0.9835	0.9093	0.727	-0.556
Mof_C 	C 	0.3727	0.0751	0.8346	-0.688
Mof_C 	C 	0.42619	0.11266	0.82985	0.232
Mof_C 	C 	0.4384	0.1024	0.809	-0.159
Mof_C 	C 	0.4959	0.1522	0.8149	0.212
Mof_C 	C 	0.532	0.1653	0.7997	-0.644
Mof_C 	C 	0.697	0.1286	0.5264	-0.583
Mof_C 	C 	0.6607	0.0945	0.5474	0.173
Mof_C 	C 	0.6672	0.0842	0.572	-0.134
Mof_C 	C 	0.6221	0.055	0.5825	0.205
Mof_C 	C 	0.6083	0.0334	0.6097	-0.649
Mof_C 	C 	0.4431	0.946	0.6131	-0.667
Mof_C 	C 	0.4288	0.9569	0.5921	0.224
Mof_C 	C 	0.3963	0.954	0.5925	-0.142
Mof_C 	C 	0.4004	0.9716	0.5672	0.184
Mof_C 	C 	0.3735	0.9764	0.5543	-0.598
Mof_C 	C 	0.5887	0.6102	0.6113	-0.601
Mof_C 	C 	0.6015	0.6235	0.582	0.195
Mof_C 	C 	0.639	0.6733	0.5741	-0.131
Mof_C 	C 	0.6309	0.6577	0.5438	0.182
Mof_C 	C 	0.66075	0.6944	0.52235	-0.595
Mof_Ag	Ag	0.47733	0.51761	0.99468	0.31
Mof_Ag	Ag	0.47157	0.46696	0.93321	0.384
Mof_Ag	Ag	0.39732	0.3888	0.98236	0.37
Mof_Ag	Ag	0.82388	0.13455	0.56677	0.375
Mof_Ag	Ag	0.95385	0.24107	0.60672	0.33
Mof_Ag	Ag	0.86541	0.20573	0.63932	0.378
Mof_Ag	Ag	0.19228	0.58937	0.72933	0.352
Mof_Ag	Ag	0.24164	0.57013	0.76269	0.365
Mof_Ag	Ag	0.32411	0.70045	0.7798	0.34
Mof_Ag	Ag	0.52848	0.70557	0.87979	0.306
Mof_Ag	Ag	0.59382	0.78651	0.83323	0.383
Mof_Ag	Ag	0.64006	0.76242	0.86418	0.367
Mof_Ag	Ag	0.85674	0.93159	0.72487	0.366
Mof_Ag	Ag	0.73203	0.82663	0.67558	0.303
Mof_Ag	Ag	0.83813	0.88033	0.65454	0.39
Mof_Ag	Ag	0.34888	0.96424	0.6972	0.333
Mof_Ag	Ag	0.29037	0.84974	0.67973	0.341
Mof_Ag	Ag	0.31336	0.89672	0.75302	0.416
Mof_Ag	Ag	0.36313	0.47395	0.16436	0.328
Mof_Ag	Ag	0.27788	0.44437	0.18961	0.339
Mof_Ag	Ag	0.23272	0.37278	0.11576	0.416
Mof_Ag	Ag	0.01609	0.23707	0.35036	0.321
Mof_Ag	Ag	0.96129	0.16802	0.40369	0.401
Mof_Ag	Ag	0.02416	0.28715	0.41657	0.354
Mof_Ag	Ag	0.22833	0.09487	0.83596	0.351
Mof_Ag	Ag	0.1855	0.11822	0.79754	0.32
Mof_Ag	Ag	0.10333	0.98815	0.77984	0.417
Mof_Ag	Ag	0.58377	0.0782	0.51315	0.339
Mof_Ag	Ag	0.5184	0.00771	0.56391	0.395
Mof_Ag	Ag	0.52496	0.50517	0.55411	0.359
Mof_H 	H 	0.5388	0.624	0.0032	0.17
Mof_H 	H 	0.5284	0.6393	0.9799	0.178
Mof_H 	H 	0.5874	0.6764	0.9926	0.175
Mof_H 	H 	0.5386	0.5798	0.8762	0.196
Mof_H 	H 	0.4899	0.5185	0.8768	0.179
Mof_H 	H 	0.5505	0.559	0.8891	0.186
Mof_H 	H 	0.4451	0.41	0.8737	0.169
Mof_H 	H 	0.3863	0.3518	0.8533	0.179
Mof_H 	H 	0.4301	0.3643	0.8636	0.179
Mof_H 	H 	0.3289	0.2779	0.9674	0.162
Mof_H 	H 	0.323	0.2439	0.9461	0.174
Mof_H 	H 	0.282	0.2352	0.9368	0.175
Mof_H 	H 	0.2973	0.3238	0.0483	0.204
Mof_H 	H 	0.3365	0.3331	0.0394	0.203
Mof_H 	H 	0.2933	0.3118	0.0139	0.191
Mof_H 	H 	0.4695	0.5547	0.0418	0.179
Mof_H 	H 	0.4562	0.5443	0.0733	0.193
Mof_H 	H 	0.4148	0.5225	0.0455	0.195
Mof_H 	H 	0.7965	0.0952	0.4987	0.169
Mof_H 	H 	0.8207	0.0926	0.4787	0.182
Mof_H 	H 	0.8306	0.1344	0.4778	0.177
Mof_H 	H 	0.0343	0.2836	0.5771	0.153
Mof_H 	H 	0.0437	0.3028	0.5475	0.164
Mof_H 	H 	0.0341	0.2612	0.5491	0.163
Mof_H 	H 	0.0651	0.3379	0.6358	0.181
Mof_H 	H 	0.104	0.377	0.6688	0.192
Mof_H 	H 	0.1006	0.3965	0.6443	0.188
Mof_H 	H 	0.9171	0.2891	0.6962	0.163
Mof_H 	H 	0.9634	0.3506	0.6972	0.168
Mof_H 	H 	0.9719	0.3357	0.7224	0.176
Mof_H 	H 	0.7318	0.156	0.6364	0.18
Mof_H 	H 	0.7949	0.2035	0.644	0.166
Mof_H 	H 	0.7579	0.1528	0.6567	0.173
Mof_H 	H 	0.7158	0.0502	0.531	0.151
Mof_H 	H 	0.6957	0.0645	0.521	0.16
Mof_H 	H 	0.6595	0.0147	0.5346	0.164
Mof_H 	H 	0.0795	0.49	0.6833	0.174
Mof_H 	H 	0.0541	0.4435	0.6582	0.187
Mof_H 	H 	0.026	0.429	0.684	0.183
Mof_H 	H 	0.1797	0.4655	0.7462	0.169
Mof_H 	H 	0.1176	0.4073	0.7423	0.185
Mof_H 	H 	0.1427	0.4198	0.7153	0.178
Mof_H 	H 	0.2875	0.5551	0.7886	0.175
Mof_H 	H 	0.3451	0.5907	0.789	0.188
Mof_H 	H 	0.3284	0.5818	0.8194	0.188
Mof_H 	H 	0.4317	0.7863	0.8234	0.181
Mof_H 	H 	0.4588	0.7903	0.8507	0.196
Mof_H 	H 	0.4748	0.7986	0.82	0.19
Mof_H 	H 	0.3893	0.8077	0.7876	0.157
Mof_H 	H 	0.3943	0.8338	0.7639	0.171
Mof_H 	H 	0.3768	0.8306	0.793	0.166
Mof_H 	H 	0.1525	0.6086	0.7069	0.184
Mof_H 	H 	0.1573	0.6449	0.7216	0.203
Mof_H 	H 	0.1775	0.654	0.6927	0.187
Mof_H 	H 	0.4315	0.6577	0.8894	0.157
Mof_H 	H 	0.412	0.674	0.8874	0.167
Mof_H 	H 	0.3804	0.6229	0.8631	0.166
Mof_H 	H 	0.5435	0.7912	0.7965	0.158
Mof_H 	H 	0.4816	0.7436	0.7798	0.171
Mof_H 	H 	0.5137	0.7949	0.804	0.173
Mof_H 	H 	0.675	0.8597	0.7605	0.165
Mof_H 	H 	0.6209	0.8174	0.7705	0.152
Mof_H 	H 	0.6745	0.8784	0.7905	0.159
Mof_H 	H 	0.7253	0.8003	0.841	0.151
Mof_H 	H 	0.7169	0.7854	0.8059	0.167
Mof_H 	H 	0.7707	0.8466	0.8259	0.165
Mof_H 	H 	0.6645	0.7276	0.8879	0.185
Mof_H 	H 	0.6672	0.718	0.9194	0.2
Mof_H 	H 	0.6277	0.6701	0.8894	0.197
Mof_H 	H 	0.4706	0.5966	0.934	0.19
Mof_H 	H 	0.4906	0.6458	0.9356	0.18
Mof_H 	H 	0.4524	0.599	0.905	0.176
Mof_H 	H 	0.8688	0.9603	0.7905	0.159
Mof_H 	H 	0.8319	0.9172	0.8091	0.166
Mof_H 	H 	0.838	0.9562	0.8082	0.176
Mof_H 	H 	0.6404	0.7698	0.698	0.18
Mof_H 	H 	0.6306	0.783	0.7244	0.191
Mof_H 	H 	0.6261	0.7454	0.7257	0.194
Mof_H 	H 	0.6252	0.7322	0.6344	0.177
Mof_H 	H 	0.5959	0.6773	0.6228	0.187
Mof_H 	H 	0.5992	0.7027	0.5995	0.191
Mof_H 	H 	0.7476	0.7484	0.5728	0.189
Mof_H 	H 	0.7922	0.787	0.6044	0.173
Mof_H 	H 	0.7937	0.8111	0.581	0.179
Mof_H 	H 	0.9257	0.9125	0.6476	0.187
Mof_H 	H 	0.9485	0.908	0.6707	0.195
Mof_H 	H 	0.989	0.9627	0.6617	0.202
Mof_H 	H 	0.9591	0.0134	0.7693	0.175
Mof_H 	H 	0.0184	0.0517	0.7717	0.189
Mof_H 	H 	0.9751	0.9952	0.7789	0.19
Mof_H 	H 	0.4061	0.0351	0.6546	0.163
Mof_H 	H 	0.3967	0.024	0.6191	0.173
Mof_H 	H 	0.4467	0.0507	0.6404	0.174
Mof_H 	H 	0.2827	0.8136	0.6215	0.177
Mof_H 	H 	0.3335	0.8485	0.6094	0.178
Mof_H 	H 	0.2831	0.8221	0.589	0.189
Mof_H 	H 	0.2508	0.7598	0.663	0.165
Mof_H 	H 	0.2235	0.7118	0.6751	0.177
Mof_H 	H 	0.2862	0.7633	0.6775	0.181
Mof_H 	H 	0.3142	0.8533	0.7989	0.154
Mof_H 	H 	0.3412	0.8449	0.7993	0.166
Mof_H 	H 	0.2795	0.7961	0.7988	0.166
Mof_H 	H 	0.3413	0.9493	0.815	0.159
Mof_H 	H 	0.3483	0.9876	0.8295	0.175
Mof_H 	H 	0.3997	0.0107	0.8326	0.172
Mof_H 	H 	0.4038	0.064	0.7158	0.169
Mof_H 	H 	0.4562	0.1141	0.7433	0.176
Mof_H 	H 	0.4051	0.0914	0.7401	0.181
Mof_H 	H 	0.4737	0.5557	0.2056	0.156
Mof_H 	H 	0.515	0.6146	0.2248	0.164
Mof_H 	H 	0.4976	0.5745	0.2409	0.168
Mof_H 	H 	0.3143	0.5041	0.2514	0.157
Mof_H 	H 	0.3522	0.5272	0.2826	0.175
Mof_H 	H 	0.3695	0.5674	0.2667	0.16
Mof_H 	H 	0.5036	0.7112	0.28	0.204
Mof_H 	H 	0.4888	0.6777	0.2501	0.225
Mof_H 	H 	0.4445	0.6481	0.2674	0.22
Mof_H 	H 	0.5373	0.6186	0.3285	0.177
Mof_H 	H 	0.4743	0.5644	0.3123	0.181
Mof_H 	H 	0.5163	0.5927	0.2934	0.188
Mof_H 	H 	0.2138	0.3287	0.0519	0.16
Mof_H 	H 	0.2514	0.3634	0.0304	0.174
Mof_H 	H 	0.2361	0.3193	0.0374	0.176
Mof_H 	H 	0.4421	0.5106	0.1427	0.141
Mof_H 	H 	0.44	0.4812	0.1198	0.152
Mof_H 	H 	0.4579	0.5267	0.1124	0.156
Mof_H 	H 	0.9994	0.1852	0.2918	0.155
Mof_H 	H 	0.9838	0.1392	0.2808	0.166
Mof_H 	H 	0.9402	0.1271	0.2715	0.167
Mof_H 	H 	0.8864	0.0557	0.3863	0.169
Mof_H 	H 	0.8395	0.0106	0.3557	0.183
Mof_H 	H 	0.8839	0.0239	0.3662	0.178
Mof_H 	H 	0.9045	0.1035	0.4482	0.174
Mof_H 	H 	0.9186	0.1202	0.4838	0.188
Mof_H 	H 	0.867	0.0917	0.4635	0.187
Mof_H 	H 	0.0256	0.3229	0.4715	0.169
Mof_H 	H 	0.9749	0.2882	0.4837	0.181
Mof_H 	H 	0.0272	0.3187	0.5051	0.18
Mof_H 	H 	0.8811	0.96	0.3125	0.203
Mof_H 	H 	0.9351	0.0237	0.3184	0.22
Mof_H 	H 	0.8954	0.9973	0.3387	0.207
Mof_H 	H 	0.7961	0.9908	0.2381	0.179
Mof_H 	H 	0.813	0.021	0.271	0.189
Mof_H 	H 	0.8569	0.0522	0.2531	0.191
Mof_H 	H 	0.3256	0.1835	0.8905	0.16
Mof_H 	H 	0.3367	0.2176	0.9173	0.165
Mof_H 	H 	0.3793	0.2476	0.8985	0.178
Mof_H 	H 	0.2418	0.2202	0.8198	0.181
Mof_H 	H 	0.3032	0.2807	0.8347	0.191
Mof_H 	H 	0.2602	0.2504	0.8532	0.192
Mof_H 	H 	0.1467	0.1374	0.7689	0.163
Mof_H 	H 	0.0896	0.1034	0.7678	0.17
Mof_H 	H 	0.1075	0.1127	0.7378	0.177
Mof_H 	H 	0.9965	0.9015	0.7336	0.148
Mof_H 	H 	0.9727	0.8992	0.7051	0.155
Mof_H 	H 	0.9525	0.8888	0.7343	0.157
Mof_H 	H 	0.3448	0.0399	0.8203	0.206
Mof_H 	H 	0.3654	0.0893	0.8319	0.191
Mof_H 	H 	0.373	0.0716	0.855	0.185
Mof_H 	H 	0.5693	0.2029	0.8088	0.17
Mof_H 	H 	0.5216	0.1596	0.7784	0.183
Mof_H 	H 	0.5285	0.142	0.8023	0.185
Mof_H 	H 	0.6793	0.1262	0.5109	0.156
Mof_H 	H 	0.7029	0.1147	0.517	0.165
Mof_H 	H 	0.7314	0.166	0.538	0.169
Mof_H 	H 	0.5752	0.0148	0.6116	0.175
Mof_H 	H 	0.6375	0.0631	0.6276	0.19
Mof_H 	H 	0.603	0.0081	0.6071	0.192
Mof_H 	H 	0.4667	0.952	0.6063	0.178
Mof_H 	H 	0.4104	0.9088	0.6138	0.189
Mof_H 	H 	0.4617	0.9702	0.6331	0.19
Mof_H 	H 	0.3853	0.9901	0.5368	0.159
Mof_H 	H 	0.3836	0.001	0.5694	0.17
Mof_H 	H 	0.3344	0.9409	0.5483	0.168
Mof_H 	H 	0.5607	0.5721	0.6086	0.163
Mof_H 	H 	0.576	0.6181	0.6181	0.172
Mof_H 	H 	0.6211	0.6319	0.6264	0.171
Mof_H 	H 	0.6469	0.673	0.5023	0.162
Mof_H 	H 	0.6993	0.7231	0.5298	0.168
Mof_H 	H 	0.6549	0.7101	0.5214	0.178
Mof_N 	N 	0.05374	0.01923	0.45497	-0.212
Mof_N 	N 	0.07498	0.01356	0.47174	-0.206
Mof_N 	N 	0.99673	0.92103	0.53296	-0.208
Mof_N 	N 	0.94979	0.89399	0.53618	-0.207
Mof_N 	N 	0.87486	0.89074	0.4752	-0.208
Mof_N 	N 	0.90546	0.92631	0.45737	-0.219
Mof_N 	N 	0.83457	0.38	0.21597	-0.206
Mof_N 	N 	0.8705	0.4325	0.2268	-0.205
Mof_N 	N 	0.8356	0.48362	0.19342	-0.213
Mof_N 	N 	0.7875	0.4488	0.1717	-0.21
Mof_N 	N 	0.67317	0.28538	0.14255	-0.209
Mof_N 	N 	0.684	0.2677	0.1559	-0.215
Mof_N 	N 	0.92696	0.64376	0.13212	-0.216
Mof_N 	N 	0.9347	0.6659	0.1604	-0.212
Mof_N 	N 	0.02781	0.81926	0.18527	-0.22
Mof_N 	N 	0.05265	0.85218	0.16623	-0.217
Mof_N 	N 	0.03636	0.79428	0.08144	-0.21
Mof_N 	N 	0.0027	0.74222	0.07452	-0.214
Mof_N 	N 	0.1397	0.99919	0.28049	-0.204
Mof_N 	N 	0.1857	0.02444	0.27654	-0.204
Mof_N 	N 	0.33636	0.15732	0.33948	-0.201
Mof_N 	N 	0.34228	0.17482	0.3677	-0.205
Mof_N 	N 	0.20586	0.0967	0.38776	-0.205
Mof_N 	N 	0.1573	0.0546	0.3669	-0.21
Mof_N 	N 	0.55284	0.29273	0.39997	-0.203
Mof_N 	N 	0.52083	0.24079	0.39002	-0.218
Mof_N 	N 	0.58519	0.21802	0.42541	-0.216
Mof_N 	N 	0.63322	0.25885	0.44807	-0.204
Mof_N 	N 	0.72636	0.41405	0.47341	-0.213
Mof_N 	N 	0.70662	0.4203	0.45792	-0.214
Mof_N 	N 	0.19017	0.84535	0.90412	-0.22
Mof_N 	N 	0.16962	0.81688	0.9267	-0.219
Mof_N 	N 	0.06336	0.77499	0.96315	-0.21
Mof_N 	N 	0.04612	0.78786	0.95538	-0.202
Mof_N 	N 	0.08459	0.84767	0.88086	-0.203
Mof_N 	N 	0.12003	0.8619	0.86853	-0.206
Mof_N 	N 	0.68111	0.88949	0.376	-0.213
Mof_N 	N 	0.63479	0.85304	0.35163	-0.209
Mof_N 	N 	0.72588	0.03957	0.33845	-0.227
Mof_N 	N 	0.72342	0.04759	0.36761	-0.217
Mof_N 	N 	0.69169	0.79149	0.39238	-0.2
Mof_N 	N 	0.72163	0.84171	0.40254	-0.205
Mof_N 	N 	0.13156	0.47274	0.3105	-0.208
Mof_N 	N 	0.08543	0.4476	0.31543	-0.209
Mof_N 	N 	0.02067	0.4639	0.26877	-0.218
Mof_N 	N 	0.0426	0.4916	0.2462	-0.217
Mof_N 	N 	0.0548	0.3277	0.3839	-0.223
Mof_N 	N 	0.0526	0.3084	0.3568	-0.224
Mof_N 	N 	0.92147	0.77134	0.60221	-0.207
Mof_N 	N 	0.92087	0.75488	0.57455	-0.223
Mof_N 	N 	0.84624	0.6112	0.55544	-0.208
Mof_N 	N 	0.8225	0.57909	0.57499	-0.198
Mof_N 	N 	0.12513	0.9724	0.80713	-0.218
Mof_N 	N 	0.17793	0.0162	0.82693	-0.214
Mof_N 	N 	0.5719	0.1132	0.0415	-0.208
Mof_N 	N 	0.5257	0.0896	0.0437	-0.21
Mof_N 	N 	0.3823	0.951	0.9757	-0.214
Mof_N 	N 	0.3824	0.935	0.949	-0.208
Mof_N 	N 	0.5155	0.0731	0.491	-0.213
Mof_N 	N 	0.561	0.0941	0.4885	-0.222
Mof_C 	C 	0.0627	0.0491	0.4096	-0.628
Mof_C 	C 	0.0769	0.0374	0.4311	0.198
Mof_C 	C 	0.11257	0.0444	0.43377	-0.161
Mof_C 	C 	0.1101	0.02861	0.45791	0.222
Mof_C 	C 	0.1394	0.0267	0.4711	-0.659
Mof_C 	C 	0.0471	0.9165	0.545	-0.633
Mof_C 	C 	0.0011	0.8982	0.5445	0.193
Mof_C 	C 	0.9566	0.8571	0.5571	-0.128
Mof_C 	C 	0.9261	0.8564	0.5511	0.19
Mof_C 	C 	0.8726	0.8192	0.5576	-0.61
Mof_C 	C 	0.7837	0.8178	0.4825	-0.692
Mof_C 	C 	0.8232	0.8582	0.4656	0.239
Mof_C 	C 	0.8194	0.8705	0.4413	-0.174
Mof_C 	C 	0.8711	0.9136	0.4361	0.216
Mof_C 	C 	0.8893	0.9409	0.4116	-0.668
Mof_C 	C 	0.8364	0.327	0.2106	-0.621
Mof_C 	C 	0.862	0.378	0.22	0.198
Mof_C 	C 	0.9186	0.4314	0.2344	-0.123
Mof_C 	C 	0.9206	0.4631	0.2379	0.175
Mof_C 	C 	0.9692	0.5244	0.2518	-0.572
Mof_C 	C 	0.9285	0.5802	0.2145	-0.651
Mof_C 	C 	0.8743	0.5354	0.1919	0.213
Mof_C 	C 	0.8529	0.5357	0.169	-0.135
Mof_C 	C 	0.7985	0.4804	0.1573	0.181
Mof_C 	C 	0.7546	0.4559	0.1311	-0.599
Mof_C 	C 	0.6199	0.2596	0.0949	-0.613
Mof_C 	C 	0.639	0.2502	0.1148	0.194
Mof_C 	C 	0.6271	0.2114	0.1091	-0.135
Mof_C 	C 	0.6572	0.2254	0.1362	0.182
Mof_C 	C 	0.6608	0.1963	0.1453	-0.571
Mof_C 	C 	0.8811	0.5604	0.1049	-0.643
Mof_C 	C 	0.8953	0.594	0.1321	0.215
Mof_C 	C 	0.8833	0.5839	0.1598	-0.153
Mof_C 	C 	0.909	0.6297	0.1769	0.207
Mof_C 	C 	0.9115	0.6437	0.209	-0.631
Mof_C 	C 	0.0253	0.8253	0.2388	-0.654
Mof_C 	C 	0.0439	0.8485	0.2122	0.217
Mof_C 	C 	0.081	0.9012	0.2118	-0.159
Mof_C 	C 	0.0835	0.9009	0.1816	0.216
Mof_C 	C 	0.1166	0.9456	0.1666	-0.658
Mof_C 	C 	0.0964	0.8742	0.062	-0.591
Mof_C 	C 	0.0545	0.8151	0.058	0.185
Mof_C 	C 	0.0318	0.7748	0.0336	-0.143
Mof_C 	C 	0.9986	0.72973	0.04493	0.218
Mof_C 	C 	0.963	0.6743	0.0299	-0.666
Mof_C 	C 	0.04	0.9158	0.2566	-0.594
Mof_C 	C 	0.0956	0.952	0.2574	0.183
Mof_C 	C 	0.1128	0.9467	0.2375	-0.119
Mof_C 	C 	0.1699	0.9935	0.2508	0.186
Mof_C 	C 	0.2109	0.0096	0.2389	-0.591
Mof_C 	C 	0.3823	0.16	0.3111	-0.578
Mof_C 	C 	0.3796	0.1752	0.3402	0.174
Mof_C 	C 	0.413	0.2047	0.3695	-0.121
Mof_C 	C 	0.3889	0.205	0.3859	0.178
Mof_C 	C 	0.4092	0.232	0.4198	-0.577
Mof_C 	C 	0.244	0.1436	0.442	-0.676
Mof_C 	C 	0.1972	0.1002	0.415	0.216
Mof_C 	C 	0.1399	0.0576	0.4101	-0.143
Mof_C 	C 	0.11734	0.0308	0.37974	0.192
Mof_C 	C 	0.0588	0.9817	0.3613	-0.641
Mof_C 	C 	0.5392	0.3359	0.4001	-0.585
Mof_C 	C 	0.5183	0.2868	0.3929	0.183
Mof_C 	C 	0.4628	0.2288	0.38	-0.146
Mof_C 	C 	0.4682	0.2041	0.3789	0.221
Mof_C 	C 	0.4256	0.1452	0.3686	-0.667
Mof_C 	C 	0.4998	0.1181	0.4073	-0.658
Mof_C 	C 	0.555	0.1708	0.4286	0.217
Mof_C 	C 	0.5844	0.1801	0.4531	-0.159
Mof_C 	C 	0.6317	0.2345	0.464	0.213
Mof_C 	C 	0.6813	0.2703	0.4902	-0.638
Mof_C 	C 	0.7884	0.4539	0.5219	-0.689
Mof_C 	C 	0.76098	0.45172	0.5003	0.238
Mof_C 	C 	0.764	0.4841	0.5033	-0.165
Mof_C 	C 	0.7286	0.4627	0.4747	0.218
Mof_C 	C 	0.7141	0.4803	0.466	-0.645
Mof_C 	C 	0.2717	0.9092	0.8845	-0.605
Mof_C 	C 	0.2393	0.8744	0.9059	0.195
Mof_C 	C 	0.2505	0.8655	0.9288	-0.155
Mof_C 	C 	0.2075	0.8305	0.9414	0.22
Mof_C 	C 	0.1957	0.8053	0.9664	-0.635
Mof_C 	C 	0.0778	0.7562	0.0054	-0.628
Mof_C 	C 	0.0596	0.7685	0.9909	0.204
Mof_C 	C 	0.0424	0.7798	0.004	-0.131
Mof_C 	C 	0.0342	0.79189	0.98069	0.18
Mof_C 	C 	0.0165	0.8082	0.9803	-0.592
Mof_C 	C 	0.0451	0.8646	0.8787	-0.606
Mof_C 	C 	0.0807	0.8713	0.87	0.182
Mof_C 	C 	0.1155	0.9024	0.8505	-0.121
Mof_C 	C 	0.1395	0.8947	0.8512	0.193
Mof_C 	C 	0.18	0.9169	0.8353	-0.627
Mof_C 	C 	0.7606	0.9854	0.4084	-0.574
Mof_C 	C 	0.7079	0.93801	0.38251	0.165
Mof_C 	C 	0.681	0.9354	0.3624	-0.113
Mof_C 	C 	0.6348	0.8813	0.3443	0.171
Mof_C 	C 	0.5882	0.8516	0.318	-0.579
Mof_C 	C 	0.713	0.9827	0.3061	-0.76
Mof_C 	C 	0.71207	0.99936	0.33323	0.276
Mof_C 	C 	0.6984	0.9798	0.3586	-0.188
Mof_C 	C 	0.7062	0.0108	0.379	0.226
Mof_C 	C 	0.6993	0.0096	0.4107	-0.656
Mof_C 	C 	0.6987	0.7443	0.3982	-0.6
Mof_C 	C 	0.7211	0.7938	0.4053	0.185
Mof_C 	C 	0.77302	0.848	0.42362	-0.113
Mof_C 	C 	0.76943	0.87484	0.42107	0.168
Mof_C 	C 	0.8127	0.9342	0.4371	-0.562
Mof_C 	C 	0.1833	0.4706	0.3241	-0.603
Mof_C 	C 	0.1375	0.4528	0.3245	0.19
Mof_C 	C 	0.0944	0.4131	0.3369	-0.127
Mof_C 	C 	0.0621	0.4113	0.331	0.216
Mof_C 	C 	0.0116	0.3774	0.3382	-0.639
Mof_C 	C 	0.9389	0.404	0.2871	-0.653
Mof_C 	C 	0.9732	0.4379	0.2663	0.219
Mof_C 	C 	0.96405	0.4491	0.24375	-0.161
Mof_C 	C 	0.0076	0.4814	0.2312	0.218
Mof_C 	C 	0.0199	0.5043	0.205	-0.635
Mof_C 	C 	0.079	0.3975	0.4047	-0.732
Mof_C 	C 	0.071	0.3685	0.3795	0.258
Mof_C 	C 	0.0804	0.3767	0.3513	-0.179
Mof_C 	C 	0.0675	0.3376	0.3379	0.218
Mof_C 	C 	0.0679	0.3248	0.3073	-0.648
Mof_C 	C 	0.9437	0.8411	0.6254	-0.589
Mof_C 	C 	0.9366	0.8119	0.5987	0.188
Mof_C 	C 	0.9441	0.82	0.5697	-0.15
Mof_C 	C 	0.9314	0.7817	0.5553	0.223
Mof_C 	C 	0.9323	0.7708	0.5247	-0.668
Mof_C 	C 	0.8521	0.6092	0.5023	-0.611
Mof_C 	C 	0.832	0.5839	0.5281	0.184
Mof_C 	C 	0.7935	0.5301	0.5282	-0.112
Mof_C 	C 	0.7894	0.5288	0.5586	0.162
Mof_C 	C 	0.7565	0.4835	0.5742	-0.559
Mof_C 	C 	0.0381	0.8727	0.7976	-0.688
Mof_C 	C 	0.09634	0.92619	0.81353	0.232
Mof_C 	C 	0.1294	0.9384	0.836	-0.159
Mof_C 	C 	0.181	0.9959	0.8437	0.211
Mof_C 	C 	0.2323	0.032	0.8667	-0.644
Mof_C 	C 	0.6706	0.197	0.0684	-0.583
Mof_C 	C 	0.6133	0.1607	0.0662	0.173
Mof_C 	C 	0.5952	0.1672	0.083	-0.134
Mof_C 	C 	0.5396	0.1221	0.0671	0.205
Mof_C 	C 	0.4986	0.1083	0.0749	-0.65
Mof_C 	C 	0.33	0.9431	0.9971	-0.668
Mof_C 	C 	0.3367	0.9288	0.9719	0.224
Mof_C 	C 	0.3038	0.8963	0.9423	-0.143
Mof_C 	C 	0.3332	0.9004	0.9288	0.184
Mof_C 	C 	0.3192	0.8735	0.8971	-0.6
Mof_C 	C 	0.4774	0.0887	0.4785	-0.601
Mof_C 	C 	0.5195	0.1015	0.478	0.195
Mof_C 	C 	0.5649	0.139	0.4657	-0.131
Mof_C 	C 	0.5871	0.1309	0.4732	0.182
Mof_C 	C 	0.6384	0.16075	0.46635	-0.595
Mof_Ag	Ag	0.98265	0.97733	0.45972	0.312
Mof_Ag	Ag	0.03836	0.97157	0.5046	0.382
Mof_Ag	Ag	0.91496	0.89732	0.50852	0.37
Mof_Ag	Ag	0.75711	0.32388	0.18933	0.375
Mof_Ag	Ag	0.84713	0.45385	0.21278	0.33
Mof_Ag	Ag	0.72609	0.36541	0.15968	0.378
Mof_Ag	Ag	0.96295	0.69228	0.10291	0.353
Mof_Ag	Ag	0.97895	0.74164	0.17151	0.366
Mof_Ag	Ag	0.04431	0.82411	0.12366	0.34
Mof_Ag	Ag	0.14869	0.02848	0.32291	0.306
Mof_Ag	Ag	0.26059	0.09382	0.30731	0.383
Mof_Ag	Ag	0.27588	0.14006	0.37764	0.367
Mof_Ag	Ag	0.63187	0.35674	0.42515	0.366
Mof_Ag	Ag	0.55645	0.23203	0.4054	0.303
Mof_Ag	Ag	0.68359	0.33813	0.4578	0.389
Mof_Ag	Ag	0.15168	0.84888	0.88464	0.333
Mof_Ag	Ag	0.11064	0.79037	0.94063	0.341
Mof_Ag	Ag	0.06034	0.81336	0.91664	0.416
Mof_Ag	Ag	0.69877	0.86313	0.38918	0.328
Mof_Ag	Ag	0.58827	0.77788	0.33351	0.339
Mof_Ag	Ag	0.61696	0.73272	0.35994	0.416
Mof_Ag	Ag	0.16573	0.51609	0.27902	0.32
Mof_Ag	Ag	0.0576	0.46129	0.29327	0.402
Mof_Ag	Ag	0.10759	0.52416	0.23701	0.354
Mof_Ag	Ag	0.89237	0.72833	0.63346	0.351
Mof_Ag	Ag	0.88796	0.6855	0.56728	0.32
Mof_Ag	Ag	0.82349	0.60333	0.61518	0.417
Mof_Ag	Ag	0.57062	0.08377	0.00557	0.339
Mof_Ag	Ag	0.45449	0.0184	0.01069	0.395
Mof_Ag	Ag	0.47085	0.02496	0.51979	0.358
Mof_H 	H 	0.0356	0.0388	0.4148	0.17
Mof_H 	H 	0.0485	0.0284	0.3891	0.178
Mof_H 	H 	0.0948	0.0874	0.411	0.175
Mof_H 	H 	0.1624	0.0386	0.4588	0.195
Mof_H 	H 	0.1131	0.9899	0.4714	0.178
Mof_H 	H 	0.1614	0.0505	0.4915	0.186
Mof_H 	H 	0.0714	0.9451	0.5351	0.168
Mof_H 	H 	0.033	0.8863	0.5345	0.179
Mof_H 	H 	0.0665	0.9301	0.5658	0.179
Mof_H 	H 	0.8615	0.8289	0.551	0.162
Mof_H 	H 	0.8769	0.823	0.5791	0.173
Mof_H 	H 	0.8452	0.782	0.5468	0.175
Mof_H 	H 	0.749	0.7973	0.4735	0.204
Mof_H 	H 	0.7971	0.8365	0.5034	0.203
Mof_H 	H 	0.7794	0.7933	0.4815	0.191
Mof_H 	H 	0.9277	0.9695	0.4148	0.18
Mof_H 	H 	0.8829	0.9562	0.4119	0.194
Mof_H 	H 	0.8693	0.9148	0.3923	0.195
Mof_H 	H 	0.7978	0.2965	0.2013	0.169
Mof_H 	H 	0.842	0.3207	0.2281	0.182
Mof_H 	H 	0.8528	0.3306	0.1962	0.177
Mof_H 	H 	0.9572	0.5343	0.2507	0.153
Mof_H 	H 	0.9962	0.5437	0.2409	0.164
Mof_H 	H 	0.985	0.5341	0.2729	0.163
Mof_H 	H 	0.9293	0.5651	0.2272	0.18
Mof_H 	H 	0.9352	0.604	0.227	0.192
Mof_H 	H 	0.9563	0.6006	0.2041	0.188
Mof_H 	H 	0.7209	0.4171	0.128	0.163
Mof_H 	H 	0.7662	0.4634	0.1128	0.169
Mof_H 	H 	0.7495	0.4719	0.1362	0.176
Mof_H 	H 	0.5954	0.2318	0.0758	0.18
Mof_H 	H 	0.6509	0.2949	0.0914	0.166
Mof_H 	H 	0.6012	0.2579	0.1051	0.173
Mof_H 	H 	0.6848	0.2158	0.1656	0.151
Mof_H 	H 	0.6747	0.1957	0.1312	0.16
Mof_H 	H 	0.6249	0.1595	0.1448	0.164
Mof_H 	H 	0.8962	0.5795	0.0895	0.174
Mof_H 	H 	0.8959	0.5541	0.1106	0.187
Mof_H 	H 	0.842	0.526	0.097	0.183
Mof_H 	H 	0.9335	0.6797	0.2142	0.169
Mof_H 	H 	0.8753	0.6176	0.2103	0.185
Mof_H 	H 	0.9274	0.6427	0.2229	0.178
Mof_H 	H 	0.9989	0.7875	0.2324	0.176
Mof_H 	H 	0.0561	0.8451	0.2544	0.189
Mof_H 	H 	0.009	0.8284	0.2466	0.189
Mof_H 	H 	0.1083	0.9317	0.1454	0.181
Mof_H 	H 	0.1081	0.9588	0.1685	0.196
Mof_H 	H 	0.1548	0.9748	0.1762	0.19
Mof_H 	H 	0.1017	0.8893	0.0816	0.157
Mof_H 	H 	0.1304	0.8943	0.0605	0.171
Mof_H 	H 	0.0838	0.8768	0.0462	0.166
Mof_H 	H 	0.9456	0.6525	0.0439	0.184
Mof_H 	H 	0.9357	0.6573	0.0124	0.203
Mof_H 	H 	0.9848	0.6775	0.0235	0.188
Mof_H 	H 	0.0421	0.9315	0.2738	0.156
Mof_H 	H 	0.0246	0.912	0.238	0.167
Mof_H 	H 	0.0173	0.8804	0.2575	0.166
Mof_H 	H 	0.247	0.0435	0.2523	0.158
Mof_H 	H 	0.2018	0.9816	0.238	0.171
Mof_H 	H 	0.2097	0.0137	0.2188	0.173
Mof_H 	H 	0.4145	0.175	0.3153	0.164
Mof_H 	H 	0.3504	0.1209	0.3035	0.152
Mof_H 	H 	0.384	0.1745	0.2961	0.159
Mof_H 	H 	0.3843	0.2253	0.425	0.151
Mof_H 	H 	0.411	0.2169	0.4315	0.167
Mof_H 	H 	0.4448	0.2707	0.4241	0.165
Mof_H 	H 	0.2766	0.1645	0.4369	0.185
Mof_H 	H 	0.2478	0.1672	0.4492	0.2
Mof_H 	H 	0.2383	0.1277	0.4576	0.197
Mof_H 	H 	0.0366	0.9706	0.374	0.19
Mof_H 	H 	0.055	0.9906	0.3448	0.179
Mof_H 	H 	0.0474	0.9524	0.3534	0.175
Mof_H 	H 	0.5783	0.3688	0.4085	0.159
Mof_H 	H 	0.5228	0.3319	0.4147	0.166
Mof_H 	H 	0.5298	0.338	0.3818	0.176
Mof_H 	H 	0.4424	0.1404	0.3706	0.18
Mof_H 	H 	0.4062	0.1306	0.3476	0.191
Mof_H 	H 	0.4004	0.1261	0.3807	0.194
Mof_H 	H 	0.4908	0.1252	0.393	0.177
Mof_H 	H 	0.4731	0.0959	0.4186	0.187
Mof_H 	H 	0.4997	0.0992	0.3965	0.191
Mof_H 	H 	0.6748	0.2476	0.4992	0.189
Mof_H 	H 	0.6878	0.2922	0.5052	0.173
Mof_H 	H 	0.7127	0.2937	0.4826	0.179
Mof_H 	H 	0.7781	0.4257	0.5132	0.186
Mof_H 	H 	0.7778	0.4485	0.5405	0.194
Mof_H 	H 	0.8273	0.489	0.5263	0.201
Mof_H 	H 	0.6898	0.4591	0.4457	0.17
Mof_H 	H 	0.7467	0.5184	0.4667	0.183
Mof_H 	H 	0.6962	0.4751	0.4799	0.184
Mof_H 	H 	0.2515	0.9061	0.871	0.163
Mof_H 	H 	0.2776	0.8967	0.8727	0.173
Mof_H 	H 	0.3063	0.9467	0.896	0.174
Mof_H 	H 	0.1612	0.7827	0.9691	0.177
Mof_H 	H 	0.2241	0.8335	0.985	0.178
Mof_H 	H 	0.1941	0.7831	0.961	0.188
Mof_H 	H 	0.0878	0.7508	0.991	0.165
Mof_H 	H 	0.0484	0.7235	0.0117	0.177
Mof_H 	H 	0.1087	0.7862	0.0229	0.18
Mof_H 	H 	0.0153	0.8142	0.9609	0.155
Mof_H 	H 	0.0419	0.8412	0.9963	0.167
Mof_H 	H 	0.9807	0.7795	0.9834	0.167
Mof_H 	H 	0.0263	0.8413	0.892	0.159
Mof_H 	H 	0.0188	0.8483	0.8607	0.175
Mof_H 	H 	0.0671	0.8997	0.889	0.173
Mof_H 	H 	0.188	0.9038	0.8398	0.169
Mof_H 	H 	0.2129	0.9562	0.8421	0.176
Mof_H 	H 	0.165	0.9051	0.8137	0.181
Mof_H 	H 	0.7681	0.9737	0.418	0.155
Mof_H 	H 	0.7902	0.015	0.4004	0.162
Mof_H 	H 	0.7567	0.9976	0.4231	0.167
Mof_H 	H 	0.5629	0.8143	0.3102	0.157
Mof_H 	H 	0.5696	0.8522	0.325	0.175
Mof_H 	H 	0.6028	0.8695	0.3021	0.16
Mof_H 	H 	0.7236	0.0036	0.2924	0.202
Mof_H 	H 	0.7387	0.9888	0.3111	0.223
Mof_H 	H 	0.6771	0.9445	0.2964	0.219
Mof_H 	H 	0.7088	0.0373	0.4187	0.178
Mof_H 	H 	0.662	0.9743	0.4099	0.183
Mof_H 	H 	0.7229	0.0163	0.4236	0.188
Mof_H 	H 	0.6619	0.7138	0.3851	0.16
Mof_H 	H 	0.721	0.7514	0.388	0.174
Mof_H 	H 	0.6987	0.7361	0.4168	0.176
Mof_H 	H 	0.7994	0.9421	0.4315	0.141
Mof_H 	H 	0.8202	0.94	0.4588	0.153
Mof_H 	H 	0.8455	0.9579	0.4312	0.157
Mof_H 	H 	0.2076	0.4994	0.3142	0.156
Mof_H 	H 	0.203	0.4838	0.3446	0.166
Mof_H 	H 	0.1687	0.4402	0.3131	0.168
Mof_H 	H 	0.0001	0.3864	0.3307	0.169
Mof_H 	H 	0.9838	0.3395	0.3289	0.183
Mof_H 	H 	0.0177	0.3839	0.36	0.179
Mof_H 	H 	0.9563	0.4045	0.301	0.174
Mof_H 	H 	0.9348	0.4186	0.2984	0.188
Mof_H 	H 	0.9035	0.367	0.2753	0.187
Mof_H 	H 	0.0541	0.5256	0.2027	0.17
Mof_H 	H 	0.9912	0.4749	0.1867	0.182
Mof_H 	H 	0.0221	0.5272	0.2085	0.181
Mof_H 	H 	0.0686	0.3811	0.4211	0.204
Mof_H 	H 	0.1167	0.4351	0.4114	0.222
Mof_H 	H 	0.0567	0.3954	0.3981	0.208
Mof_H 	H 	0.058	0.2961	0.3053	0.175
Mof_H 	H 	0.042	0.313	0.292	0.185
Mof_H 	H 	0.1038	0.3569	0.3047	0.187
Mof_H 	H 	0.9351	0.8256	0.6421	0.161
Mof_H 	H 	0.9194	0.8367	0.6191	0.165
Mof_H 	H 	0.9808	0.8793	0.6317	0.178
Mof_H 	H 	0.922	0.7418	0.5216	0.182
Mof_H 	H 	0.9685	0.8032	0.5225	0.192
Mof_H 	H 	0.907	0.7602	0.5098	0.192
Mof_H 	H 	0.8778	0.6467	0.5093	0.163
Mof_H 	H 	0.8218	0.5896	0.4862	0.171
Mof_H 	H 	0.8697	0.6075	0.4948	0.177
Mof_H 	H 	0.7629	0.4965	0.595	0.149
Mof_H 	H 	0.7676	0.4727	0.5735	0.156
Mof_H 	H 	0.7182	0.4525	0.5637	0.157
Mof_H 	H 	0.0245	0.8448	0.8049	0.205
Mof_H 	H 	0.0335	0.8654	0.7761	0.191
Mof_H 	H 	0.018	0.873	0.8014	0.185
Mof_H 	H 	0.2605	0.0693	0.8664	0.17
Mof_H 	H 	0.2432	0.0216	0.862	0.183
Mof_H 	H 	0.2262	0.0285	0.8865	0.185
Mof_H 	H 	0.6684	0.1793	0.0531	0.157
Mof_H 	H 	0.6859	0.2029	0.0882	0.165
Mof_H 	H 	0.6934	0.2314	0.0654	0.169
Mof_H 	H 	0.4636	0.0752	0.0604	0.175
Mof_H 	H 	0.5099	0.1375	0.0744	0.19
Mof_H 	H 	0.4959	0.103	0.0949	0.192
Mof_H 	H 	0.3604	0.9667	0.0147	0.178
Mof_H 	H 	0.2966	0.9104	0.0016	0.189
Mof_H 	H 	0.3286	0.9617	0.9915	0.19
Mof_H 	H 	0.3485	0.8853	0.8952	0.16
Mof_H 	H 	0.3142	0.8836	0.8826	0.171
Mof_H 	H 	0.2861	0.8344	0.8935	0.168
Mof_H 	H 	0.4521	0.0607	0.4886	0.163
Mof_H 	H 	0.4579	0.076	0.4579	0.172
Mof_H 	H 	0.4947	0.1211	0.4892	0.171
Mof_H 	H 	0.6446	0.1469	0.4739	0.162
Mof_H 	H 	0.6695	0.1993	0.4762	0.168
Mof_H 	H 	0.6335	0.1549	0.4448	0.178
Mof_N 	N 	0.06426	0.59877	0.04503	-0.212
Mof_N 	N 	0.04182	0.60324	0.02826	-0.207
Mof_N 	N 	0.88807	0.46377	0.96704	-0.209
Mof_N 	N 	0.85781	0.41361	0.96382	-0.207
Mof_N 	N 	0.91554	0.39966	0.0248	-0.208
Mof_N 	N 	0.96894	0.44809	0.04263	-0.219
Mof_N 	N 	0.66403	0.6186	0.28403	-0.206
Mof_N 	N 	0.7057	0.6437	0.2732	-0.205
Mof_N 	N 	0.7902	0.64218	0.30658	-0.213
Mof_N 	N 	0.7771	0.6158	0.3283	-0.21
Mof_N 	N 	0.64283	0.53062	0.35745	-0.209
Mof_N 	N 	0.6118	0.5281	0.3441	-0.215
Mof_N 	N 	0.01164	0.79484	0.36788	-0.216
Mof_N 	N 	0.0055	0.7743	0.3396	-0.213
Mof_N 	N 	0.13399	0.84254	0.31473	-0.22
Mof_N 	N 	0.18595	0.88642	0.33377	-0.216
Mof_N 	N 	0.21284	0.95492	0.41856	-0.21
Mof_N 	N 	0.1677	0.92818	0.42548	-0.213
Mof_N 	N 	0.2187	0.85921	0.21951	-0.204
Mof_N 	N 	0.2479	0.90916	0.22346	-0.204
Mof_N 	N 	0.31784	0.99688	0.16052	-0.201
Mof_N 	N 	0.30712	0.97458	0.1323	-0.205
Mof_N 	N 	0.20894	0.8181	0.11224	-0.205
Mof_N 	N 	0.1877	0.7904	0.1331	-0.21
Mof_N 	N 	0.39276	0.15287	0.10003	-0.203
Mof_N 	N 	0.35077	0.13081	0.10998	-0.218
Mof_N 	N 	0.29261	0.15978	0.07459	-0.216
Mof_N 	N 	0.31078	0.18515	0.05193	-0.204
Mof_N 	N 	0.44064	0.25295	0.02659	-0.213
Mof_N 	N 	0.46238	0.2487	0.04208	-0.214
Mof_N 	N 	0.44123	0.28605	0.59588	-0.22
Mof_N 	N 	0.39018	0.24292	0.5733	-0.219
Mof_N 	N 	0.31184	0.10021	0.53685	-0.21
Mof_N 	N 	0.33248	0.09074	0.54462	-0.202
Mof_N 	N 	0.46681	0.20373	0.61914	-0.203
Mof_N 	N 	0.49337	0.2515	0.63147	-0.206
Mof_N 	N 	0.01349	0.30511	0.124	-0.213
Mof_N 	N 	0.00141	0.28316	0.14837	-0.209
Mof_N 	N 	0.20112	0.38743	0.16155	-0.227
Mof_N 	N 	0.17998	0.35581	0.13239	-0.217
Mof_N 	N 	0.89911	0.29931	0.10762	-0.2
Mof_N 	N 	0.93917	0.31909	0.09746	-0.205
Mof_N 	N 	0.66224	0.82106	0.1895	-0.209
Mof_N 	N 	0.63217	0.77	0.18457	-0.209
Mof_N 	N 	0.69513	0.7519	0.23123	-0.218
Mof_N 	N 	0.7454	0.7964	0.2538	-0.217
Mof_N 	N 	0.4438	0.6709	0.1161	-0.223
Mof_N 	N 	0.4516	0.6958	0.1432	-0.224
Mof_N 	N 	0.66913	0.31926	0.89779	-0.207
Mof_N 	N 	0.68033	0.34632	0.92545	-0.223
Mof_N 	N 	0.55576	0.2908	0.94456	-0.208
Mof_N 	N 	0.5041	0.24751	0.92501	-0.198
Mof_N 	N 	0.66527	0.318	0.69287	-0.218
Mof_N 	N 	0.68927	0.351	0.67307	-0.214
Mof_N 	N 	0.5717	0.5304	0.4585	-0.208
Mof_N 	N 	0.5459	0.482	0.4563	-0.21
Mof_N 	N 	0.4753	0.4066	0.5243	-0.214
Mof_N 	N 	0.486	0.4334	0.551	-0.208
Mof_N 	N 	0.0821	0.0245	0.009	-0.213
Mof_N 	N 	0.1056	0.0725	0.0115	-0.222
Mof_C 	C 	0.1395	0.6531	0.0904	-0.628
Mof_C 	C 	0.1063	0.6458	0.0689	0.198
Mof_C 	C 	0.11063	0.6788	0.06623	-0.162
Mof_C 	C 	0.0707	0.65219	0.04209	0.222
Mof_C 	C 	0.0556	0.6683	0.0289	-0.66
Mof_C 	C 	0.8715	0.5021	0.955	-0.635
Mof_C 	C 	0.8537	0.4566	0.9555	0.195
Mof_C 	C 	0.8	0.3995	0.9429	-0.13
Mof_C 	C 	0.8053	0.375	0.9489	0.19
Mof_C 	C 	0.7616	0.315	0.9424	-0.61
Mof_C 	C 	0.8353	0.3012	0.0175	-0.692
Mof_C 	C 	0.8926	0.3576	0.0344	0.239
Mof_C 	C 	0.9292	0.3781	0.0587	-0.173
Mof_C 	C 	0.9775	0.435	0.0639	0.215
Mof_C 	C 	0.0293	0.4777	0.0884	-0.666
Mof_C 	C 	0.6164	0.6258	0.2894	-0.621
Mof_C 	C 	0.658	0.642	0.28	0.198
Mof_C 	C 	0.697	0.6842	0.2656	-0.123
Mof_C 	C 	0.7252	0.6827	0.2621	0.175
Mof_C 	C 	0.7726	0.7174	0.2482	-0.572
Mof_C 	C 	0.8657	0.714	0.2855	-0.651
Mof_C 	C 	0.8435	0.6824	0.3081	0.213
Mof_C 	C 	0.8667	0.6839	0.331	-0.135
Mof_C 	C 	0.8231	0.6412	0.3427	0.181
Mof_C 	C 	0.8248	0.6235	0.3689	-0.598
Mof_C 	C 	0.6647	0.525	0.4051	-0.613
Mof_C 	C 	0.6354	0.5242	0.3852	0.194
Mof_C 	C 	0.6023	0.518	0.3909	-0.135
Mof_C 	C 	0.5892	0.521	0.3638	0.182
Mof_C 	C 	0.551	0.5155	0.3547	-0.571
Mof_C 	C 	0.9555	0.7762	0.3951	-0.644
Mof_C 	C 	0.9619	0.7632	0.3679	0.216
Mof_C 	C 	0.9241	0.7235	0.3402	-0.154
Mof_C 	C 	0.9528	0.7321	0.3231	0.208
Mof_C 	C 	0.9347	0.7025	0.291	-0.632
Mof_C 	C 	0.0865	0.7865	0.2612	-0.65
Mof_C 	C 	0.1363	0.8317	0.2878	0.216
Mof_C 	C 	0.1894	0.8692	0.2882	-0.158
Mof_C 	C 	0.2193	0.9019	0.3184	0.216
Mof_C 	C 	0.279	0.95	0.3334	-0.658
Mof_C 	C 	0.3122	0.0344	0.438	-0.59
Mof_C 	C 	0.2571	0.9965	0.442	0.185
Mof_C 	C 	0.2412	0.9982	0.4664	-0.142
Mof_C 	C 	0.1848	0.95367	0.45507	0.217
Mof_C 	C 	0.1444	0.9331	0.4701	-0.664
Mof_C 	C 	0.1592	0.7834	0.2434	-0.594
Mof_C 	C 	0.1946	0.8382	0.2426	0.183
Mof_C 	C 	0.2092	0.8753	0.2625	-0.12
Mof_C 	C 	0.2427	0.9191	0.2492	0.186
Mof_C 	C 	0.2707	0.972	0.2611	-0.591
Mof_C 	C 	0.3489	0.0712	0.1889	-0.577
Mof_C 	C 	0.335	0.0394	0.1598	0.174
Mof_C 	C 	0.3352	0.0435	0.1305	-0.121
Mof_C 	C 	0.3191	0.003	0.1141	0.177
Mof_C 	C 	0.3122	0.9894	0.0802	-0.575
Mof_C 	C 	0.2016	0.802	0.058	-0.676
Mof_C 	C 	0.1852	0.7822	0.085	0.216
Mof_C 	C 	0.1475	0.7298	0.0899	-0.143
Mof_C 	C 	0.15106	0.7376	0.12026	0.192
Mof_C 	C 	0.1204	0.6975	0.1387	-0.641
Mof_C 	C 	0.4358	0.1391	0.0999	-0.586
Mof_C 	C 	0.3939	0.1254	0.1071	0.183
Mof_C 	C 	0.3488	0.0828	0.12	-0.147
Mof_C 	C 	0.3252	0.0893	0.1211	0.221
Mof_C 	C 	0.2766	0.057	0.1314	-0.667
Mof_C 	C 	0.2108	0.0925	0.0927	-0.658
Mof_C 	C 	0.2422	0.1264	0.0714	0.217
Mof_C 	C 	0.227	0.1313	0.0469	-0.159
Mof_C 	C 	0.2705	0.1677	0.036	0.213
Mof_C 	C 	0.2801	0.1911	0.0098	-0.638
Mof_C 	C 	0.432	0.2665	0.9781	-0.689
Mof_C 	C 	0.45142	0.26068	0.9997	0.238
Mof_C 	C 	0.4808	0.2607	0.9967	-0.165
Mof_C 	C 	0.488	0.2539	0.0253	0.217
Mof_C 	C 	0.5143	0.2481	0.034	-0.645
Mof_C 	C 	0.5247	0.3872	0.6155	-0.605
Mof_C 	C 	0.4685	0.3334	0.5941	0.195
Mof_C 	C 	0.4367	0.3217	0.5712	-0.155
Mof_C 	C 	0.3891	0.2661	0.5586	0.221
Mof_C 	C 	0.3389	0.2293	0.5336	-0.636
Mof_C 	C 	0.2508	0.0724	0.4946	-0.629
Mof_C 	C 	0.2776	0.0687	0.5091	0.204
Mof_C 	C 	0.2758	0.0384	0.496	-0.132
Mof_C 	C 	0.3112	0.05351	0.51931	0.18
Mof_C 	C 	0.3279	0.0362	0.5197	-0.59
Mof_C 	C 	0.4859	0.1664	0.6213	-0.606
Mof_C 	C 	0.5013	0.2107	0.63	0.183
Mof_C 	C 	0.5519	0.265	0.6495	-0.121
Mof_C 	C 	0.5435	0.2883	0.6488	0.193
Mof_C 	C 	0.5816	0.3447	0.6647	-0.627
Mof_C 	C 	0.077	0.3522	0.0916	-0.579
Mof_C 	C 	0.0555	0.32539	0.11749	0.166
Mof_C 	C 	0.073	0.3186	0.1376	-0.113
Mof_C 	C 	0.037	0.2905	0.1557	0.171
Mof_C 	C 	0.0336	0.2702	0.182	-0.579
Mof_C 	C 	0.1766	0.4069	0.1939	-0.765
Mof_C 	C 	0.16613	0.37884	0.16677	0.277
Mof_C 	C 	0.1212	0.3398	0.1414	-0.19
Mof_C 	C 	0.1318	0.3272	0.121	0.227
Mof_C 	C 	0.0989	0.2886	0.0893	-0.653
Mof_C 	C 	0.8461	0.3005	0.1018	-0.601
Mof_C 	C 	0.8885	0.3158	0.0947	0.185
Mof_C 	C 	0.92438	0.3494	0.07638	-0.113
Mof_C 	C 	0.95377	0.34836	0.07893	0.168
Mof_C 	C 	0.9971	0.3756	0.0629	-0.564
Mof_C 	C 	0.6465	0.8592	0.1759	-0.603
Mof_C 	C 	0.6283	0.813	0.1755	0.19
Mof_C 	C 	0.5762	0.7575	0.1631	-0.128
Mof_C 	C 	0.5803	0.7311	0.169	0.217
Mof_C 	C 	0.5392	0.6734	0.1618	-0.641
Mof_C 	C 	0.6169	0.6518	0.2129	-0.653
Mof_C 	C 	0.6716	0.7069	0.2337	0.219
Mof_C 	C 	0.70535	0.7203	0.25625	-0.161
Mof_C 	C 	0.7502	0.7764	0.2688	0.218
Mof_C 	C 	0.7993	0.8149	0.295	-0.636
Mof_C 	C 	0.4928	0.6743	0.0953	-0.731
Mof_C 	C 	0.489	0.6915	0.1205	0.257
Mof_C 	C 	0.5254	0.7291	0.1487	-0.179
Mof_C 	C 	0.4997	0.7296	0.1621	0.217
Mof_C 	C 	0.5175	0.7606	0.1927	-0.647
Mof_C 	C 	0.7157	0.3183	0.8746	-0.589
Mof_C 	C 	0.7132	0.3379	0.9013	0.188
Mof_C 	C 	0.7503	0.3744	0.9303	-0.15
Mof_C 	C 	0.7264	0.3761	0.9447	0.223
Mof_C 	C 	0.7461	0.4076	0.9753	-0.666
Mof_C 	C 	0.6069	0.3498	0.9977	-0.61
Mof_C 	C 	0.5558	0.3039	0.9719	0.184
Mof_C 	C 	0.5019	0.2653	0.9718	-0.112
Mof_C 	C 	0.4702	0.2308	0.9414	0.162
Mof_C 	C 	0.4093	0.1823	0.9258	-0.559
Mof_C 	C 	0.5751	0.2405	0.7024	-0.688
Mof_C 	C 	0.61266	0.28281	0.68647	0.232
Mof_C 	C 	0.6024	0.2934	0.664	-0.159
Mof_C 	C 	0.6522	0.3373	0.6563	0.211
Mof_C 	C 	0.6653	0.3656	0.6333	-0.644
Mof_C 	C 	0.6286	0.6022	0.4316	-0.583
Mof_C 	C 	0.5945	0.5471	0.4338	0.173
Mof_C 	C 	0.5842	0.5122	0.417	-0.134
Mof_C 	C 	0.555	0.4725	0.4329	0.205
Mof_C 	C 	0.5334	0.4237	0.4251	-0.65
Mof_C 	C 	0.446	0.3329	0.5029	-0.667
Mof_C 	C 	0.4569	0.3648	0.5281	0.224
Mof_C 	C 	0.454	0.3615	0.5577	-0.143
Mof_C 	C 	0.4716	0.4044	0.5712	0.184
Mof_C 	C 	0.4764	0.4221	0.6029	-0.6
Mof_C 	C 	0.1102	0.9989	0.0215	-0.603
Mof_C 	C 	0.1235	0.0415	0.022	0.195
Mof_C 	C 	0.1733	0.0992	0.0343	-0.131
Mof_C 	C 	0.1577	0.1139	0.0268	0.182
Mof_C 	C 	0.1944	0.17205	0.03365	-0.595
Mof_Ag	Ag	0.01761	0.52293	0.04028	0.31
Mof_Ag	Ag	0.96696	0.53375	0.9954	0.384
Mof_Ag	Ag	0.8888	0.40644	0.99148	0.37
Mof_Ag	Ag	0.63455	0.56778	0.31067	0.375
Mof_Ag	Ag	0.74107	0.63435	0.28722	0.33
Mof_Ag	Ag	0.70573	0.56641	0.34032	0.378
Mof_Ag	Ag	0.08937	0.86004	0.39709	0.352
Mof_Ag	Ag	0.07013	0.80744	0.32849	0.365
Mof_Ag	Ag	0.20045	0.92065	0.37634	0.34
Mof_Ag	Ag	0.20557	0.82578	0.17709	0.306
Mof_Ag	Ag	0.28651	0.95328	0.19269	0.383
Mof_Ag	Ag	0.26242	0.89824	0.12236	0.367
Mof_Ag	Ag	0.43159	0.20672	0.07485	0.366
Mof_Ag	Ag	0.32663	0.15105	0.0946	0.303
Mof_Ag	Ag	0.38033	0.22579	0.0422	0.389
Mof_Ag	Ag	0.46424	0.26704	0.61536	0.333
Mof_Ag	Ag	0.34974	0.17001	0.55937	0.341
Mof_Ag	Ag	0.39672	0.1437	0.58336	0.416
Mof_Ag	Ag	0.97395	0.30959	0.11082	0.327
Mof_Ag	Ag	0.94437	0.25476	0.16649	0.338
Mof_Ag	Ag	0.87278	0.25702	0.14006	0.416
Mof_Ag	Ag	0.73707	0.88671	0.22098	0.32
Mof_Ag	Ag	0.66802	0.76433	0.20673	0.401
Mof_Ag	Ag	0.78715	0.87058	0.26299	0.354
Mof_Ag	Ag	0.59487	0.25891	0.86654	0.35
Mof_Ag	Ag	0.61822	0.32068	0.93272	0.32
Mof_Ag	Ag	0.48815	0.20831	0.88482	0.417
Mof_Ag	Ag	0.5782	0.56505	0.49443	0.34
Mof_Ag	Ag	0.50771	0.4438	0.48931	0.396
Mof_Ag	Ag	0.00517	0.95106	0.98021	0.357
Mof_H 	H 	0.124	0.6208	0.0852	0.17
Mof_H 	H 	0.1393	0.6594	0.1109	0.178
Mof_H 	H 	0.1764	0.6838	0.089	0.175
Mof_H 	H 	0.0798	0.7036	0.0412	0.196
Mof_H 	H 	0.0185	0.6417	0.0286	0.178
Mof_H 	H 	0.059	0.6699	0.0085	0.186
Mof_H 	H 	0.91	0.5363	0.9649	0.169
Mof_H 	H 	0.8518	0.4985	0.9655	0.18
Mof_H 	H 	0.8643	0.5007	0.9342	0.179
Mof_H 	H 	0.7779	0.3105	0.949	0.162
Mof_H 	H 	0.7439	0.2978	0.9209	0.174
Mof_H 	H 	0.7352	0.2984	0.9532	0.175
Mof_H 	H 	0.8238	0.2755	0.0265	0.204
Mof_H 	H 	0.8331	0.2937	0.9966	0.203
Mof_H 	H 	0.8118	0.2979	0.0185	0.191
Mof_H 	H 	0.0547	0.5129	0.0852	0.179
Mof_H 	H 	0.0443	0.471	0.0881	0.193
Mof_H 	H 	0.0225	0.477	0.1077	0.194
Mof_H 	H 	0.5952	0.5965	0.2987	0.169
Mof_H 	H 	0.5926	0.6139	0.2719	0.182
Mof_H 	H 	0.6344	0.6566	0.3038	0.177
Mof_H 	H 	0.7836	0.7065	0.2493	0.153
Mof_H 	H 	0.8028	0.7553	0.2591	0.164
Mof_H 	H 	0.7612	0.7121	0.2271	0.163
Mof_H 	H 	0.8379	0.7021	0.2728	0.18
Mof_H 	H 	0.877	0.7082	0.273	0.192
Mof_H 	H 	0.8965	0.7522	0.2959	0.188
Mof_H 	H 	0.7891	0.5929	0.372	0.163
Mof_H 	H 	0.8506	0.6534	0.3872	0.169
Mof_H 	H 	0.8357	0.6133	0.3638	0.176
Mof_H 	H 	0.656	0.5196	0.4242	0.18
Mof_H 	H 	0.7035	0.5595	0.4086	0.166
Mof_H 	H 	0.6528	0.4961	0.3949	0.173
Mof_H 	H 	0.5502	0.5192	0.3344	0.151
Mof_H 	H 	0.5645	0.5435	0.3688	0.16
Mof_H 	H 	0.5147	0.4801	0.3552	0.164
Mof_H 	H 	0.99	0.8067	0.4105	0.175
Mof_H 	H 	0.9435	0.7853	0.3894	0.187
Mof_H 	H 	0.929	0.745	0.403	0.183
Mof_H 	H 	0.9655	0.7193	0.2858	0.17
Mof_H 	H 	0.9073	0.665	0.2897	0.185
Mof_H 	H 	0.9198	0.7045	0.2771	0.178
Mof_H 	H 	0.0551	0.7665	0.2676	0.174
Mof_H 	H 	0.0907	0.8017	0.2456	0.188
Mof_H 	H 	0.0818	0.7624	0.2534	0.188
Mof_H 	H 	0.2863	0.9629	0.3546	0.181
Mof_H 	H 	0.2903	0.9396	0.3315	0.196
Mof_H 	H 	0.2986	0.9786	0.3238	0.19
Mof_H 	H 	0.3077	0.0201	0.4184	0.157
Mof_H 	H 	0.3338	0.0699	0.4395	0.171
Mof_H 	H 	0.3306	0.0376	0.4538	0.166
Mof_H 	H 	0.1086	0.9017	0.4561	0.183
Mof_H 	H 	0.1449	0.9233	0.4876	0.203
Mof_H 	H 	0.154	0.9613	0.4765	0.187
Mof_H 	H 	0.1577	0.7683	0.2262	0.157
Mof_H 	H 	0.174	0.7866	0.262	0.167
Mof_H 	H 	0.1229	0.7598	0.2425	0.166
Mof_H 	H 	0.2912	0.9947	0.2477	0.159
Mof_H 	H 	0.2436	0.9638	0.262	0.171
Mof_H 	H 	0.2949	0.9909	0.2812	0.173
Mof_H 	H 	0.3597	0.0992	0.1847	0.164
Mof_H 	H 	0.3174	0.0469	0.1965	0.152
Mof_H 	H 	0.3784	0.0879	0.2039	0.158
Mof_H 	H 	0.3003	0.9593	0.075	0.15
Mof_H 	H 	0.2854	0.9795	0.0685	0.166
Mof_H 	H 	0.3466	0.0207	0.0759	0.164
Mof_H 	H 	0.2276	0.8397	0.0631	0.185
Mof_H 	H 	0.218	0.7986	0.0508	0.2
Mof_H 	H 	0.1701	0.7807	0.0424	0.197
Mof_H 	H 	0.0966	0.6626	0.126	0.19
Mof_H 	H 	0.1458	0.7102	0.1552	0.18
Mof_H 	H 	0.099	0.694	0.1466	0.176
Mof_H 	H 	0.4603	0.1698	0.0915	0.159
Mof_H 	H 	0.4172	0.1081	0.0853	0.166
Mof_H 	H 	0.4562	0.148	0.1182	0.176
Mof_H 	H 	0.2698	0.0718	0.1294	0.18
Mof_H 	H 	0.283	0.0586	0.1524	0.192
Mof_H 	H 	0.2454	0.0197	0.1193	0.194
Mof_H 	H 	0.2322	0.0978	0.107	0.177
Mof_H 	H 	0.1773	0.0545	0.0814	0.187
Mof_H 	H 	0.2027	0.1032	0.1035	0.191
Mof_H 	H 	0.2484	0.1756	0.0008	0.189
Mof_H 	H 	0.287	0.1826	0.9948	0.173
Mof_H 	H 	0.3111	0.2301	0.0174	0.179
Mof_H 	H 	0.4125	0.2649	0.9868	0.186
Mof_H 	H 	0.408	0.2373	0.9595	0.194
Mof_H 	H 	0.4627	0.301	0.9737	0.201
Mof_H 	H 	0.5134	0.2441	0.0543	0.17
Mof_H 	H 	0.5517	0.28	0.0333	0.183
Mof_H 	H 	0.4952	0.2163	0.0201	0.184
Mof_H 	H 	0.5351	0.3805	0.629	0.163
Mof_H 	H 	0.524	0.4049	0.6273	0.173
Mof_H 	H 	0.5507	0.4103	0.604	0.174
Mof_H 	H 	0.3136	0.1921	0.5309	0.177
Mof_H 	H 	0.3485	0.2391	0.515	0.178
Mof_H 	H 	0.3221	0.2331	0.539	0.188
Mof_H 	H 	0.2598	0.0968	0.509	0.166
Mof_H 	H 	0.2118	0.0367	0.4883	0.177
Mof_H 	H 	0.2633	0.0858	0.4771	0.181
Mof_H 	H 	0.3533	0.0544	0.5391	0.154
Mof_H 	H 	0.3449	0.0456	0.5037	0.166
Mof_H 	H 	0.2961	0.9973	0.5166	0.166
Mof_H 	H 	0.4493	0.1343	0.608	0.16
Mof_H 	H 	0.4876	0.1581	0.6393	0.175
Mof_H 	H 	0.5107	0.1781	0.611	0.173
Mof_H 	H 	0.564	0.3482	0.6602	0.169
Mof_H 	H 	0.6141	0.3708	0.6579	0.176
Mof_H 	H 	0.5914	0.3513	0.6863	0.181
Mof_H 	H 	0.0557	0.3501	0.082	0.156
Mof_H 	H 	0.1146	0.3898	0.0996	0.164
Mof_H 	H 	0.0745	0.3336	0.0769	0.169
Mof_H 	H 	0.0041	0.2527	0.1898	0.158
Mof_H 	H 	0.0272	0.2446	0.175	0.175
Mof_H 	H 	0.0674	0.3007	0.1979	0.161
Mof_H 	H 	0.2112	0.4312	0.2076	0.204
Mof_H 	H 	0.1777	0.4276	0.1889	0.225
Mof_H 	H 	0.1481	0.3807	0.2036	0.22
Mof_H 	H 	0.1186	0.2901	0.0813	0.177
Mof_H 	H 	0.0644	0.2521	0.0901	0.181
Mof_H 	H 	0.0927	0.2993	0.0764	0.188
Mof_H 	H 	0.8287	0.2768	0.1149	0.16
Mof_H 	H 	0.8634	0.333	0.112	0.174
Mof_H 	H 	0.8193	0.2819	0.0832	0.176
Mof_H 	H 	0.0106	0.3679	0.0685	0.142
Mof_H 	H 	0.9812	0.3614	0.0412	0.153
Mof_H 	H 	0.0267	0.4143	0.0688	0.157
Mof_H 	H 	0.6852	0.8934	0.1858	0.156
Mof_H 	H 	0.6392	0.8584	0.1554	0.167
Mof_H 	H 	0.6271	0.8556	0.1869	0.168
Mof_H 	H 	0.5557	0.6694	0.1693	0.17
Mof_H 	H 	0.5106	0.6549	0.1711	0.184
Mof_H 	H 	0.5239	0.6577	0.14	0.18
Mof_H 	H 	0.6035	0.6553	0.199	0.174
Mof_H 	H 	0.6202	0.6364	0.2016	0.188
Mof_H 	H 	0.5917	0.6282	0.2247	0.187
Mof_H 	H 	0.8229	0.8514	0.2973	0.17
Mof_H 	H 	0.7882	0.8045	0.3133	0.182
Mof_H 	H 	0.8187	0.8136	0.2915	0.181
Mof_H 	H 	0.46	0.6475	0.0789	0.204
Mof_H 	H 	0.5237	0.7053	0.0886	0.222
Mof_H 	H 	0.4973	0.6586	0.1019	0.207
Mof_H 	H 	0.4908	0.7527	0.1947	0.174
Mof_H 	H 	0.521	0.75	0.208	0.185
Mof_H 	H 	0.5522	0.7991	0.1953	0.187
Mof_H 	H 	0.6835	0.293	0.8579	0.16
Mof_H 	H 	0.7176	0.3003	0.8809	0.165
Mof_H 	H 	0.7476	0.3491	0.8683	0.178
Mof_H 	H 	0.7202	0.4004	0.9784	0.181
Mof_H 	H 	0.7807	0.446	0.9775	0.191
Mof_H 	H 	0.7504	0.3972	0.9902	0.192
Mof_H 	H 	0.6374	0.3685	0.9907	0.163
Mof_H 	H 	0.6034	0.3356	0.0138	0.171
Mof_H 	H 	0.6127	0.3749	0.0052	0.177
Mof_H 	H 	0.4015	0.1679	0.905	0.149
Mof_H 	H 	0.3992	0.1941	0.9265	0.156
Mof_H 	H 	0.3888	0.1545	0.9363	0.157
Mof_H 	H 	0.5399	0.2196	0.6951	0.206
Mof_H 	H 	0.5893	0.2574	0.7239	0.191
Mof_H 	H 	0.5716	0.2166	0.6986	0.185
Mof_H 	H 	0.7029	0.3941	0.6336	0.17
Mof_H 	H 	0.6596	0.3812	0.638	0.183
Mof_H 	H 	0.642	0.3397	0.6135	0.185
Mof_H 	H 	0.6262	0.6153	0.4469	0.157
Mof_H 	H 	0.6147	0.5977	0.4118	0.165
Mof_H 	H 	0.666	0.628	0.4346	0.169
Mof_H 	H 	0.5148	0.4032	0.4396	0.175
Mof_H 	H 	0.5631	0.4355	0.4256	0.19
Mof_H 	H 	0.5081	0.401	0.4051	0.192
Mof_H 	H 	0.452	0.3457	0.4853	0.177
Mof_H 	H 	0.4088	0.295	0.4984	0.189
Mof_H 	H 	0.4702	0.3371	0.5085	0.19
Mof_H 	H 	0.4901	0.4533	0.6048	0.16
Mof_H 	H 	0.501	0.4316	0.6174	0.17
Mof_H 	H 	0.4409	0.3926	0.6065	0.168
Mof_H 	H 	0.0721	0.9635	0.0114	0.164
Mof_H 	H 	0.1181	0	0.0421	0.173
Mof_H 	H 	0.1319	0.0055	0.0108	0.171
Mof_H 	H 	0.173	0.1707	0.0261	0.162
Mof_H 	H 	0.2231	0.1933	0.0238	0.168
Mof_H 	H 	0.2101	0.1887	0.0552	0.178
Mof_N 	N 	0.90123	0.44626	0.46549	-0.212
Mof_N 	N 	0.89676	0.42502	0.43858	-0.207
Mof_N 	N 	0.03623	0.50327	0.4243	-0.209
Mof_N 	N 	0.08639	0.55021	0.4442	-0.207
Mof_N 	N 	0.10034	0.62514	0.51588	-0.208
Mof_N 	N 	0.05191	0.59454	0.52085	-0.219
Mof_N 	N 	0.8814	0.66543	0.04543	-0.206
Mof_N 	N 	0.8563	0.6295	0.062	-0.205
Mof_N 	N 	0.85782	0.6644	0.14802	-0.213
Mof_N 	N 	0.8842	0.7125	0.1613	-0.21
Mof_N 	N 	0.96938	0.82683	0.11221	-0.209
Mof_N 	N 	0.9719	0.816	0.0837	-0.214
Mof_N 	N 	0.70516	0.57304	0.2168	-0.216
Mof_N 	N 	0.7257	0.5653	0.2312	-0.212
Mof_N 	N 	0.65746	0.47219	0.29145	-0.22
Mof_N 	N 	0.61358	0.44735	0.29953	-0.216
Mof_N 	N 	0.54508	0.46364	0.25792	-0.21
Mof_N 	N 	0.57182	0.4973	0.23952	-0.213
Mof_N 	N 	0.64079	0.3603	0.35949	-0.204
Mof_N 	N 	0.59084	0.3143	0.33874	-0.204
Mof_N 	N 	0.50312	0.16364	0.32096	-0.201
Mof_N 	N 	0.52542	0.15772	0.33254	-0.205
Mof_N 	N 	0.6819	0.29414	0.39084	-0.205
Mof_N 	N 	0.7096	0.3427	0.3973	-0.21
Mof_N 	N 	0.34713	0.94716	0.23989	-0.203
Mof_N 	N 	0.36919	0.97917	0.21996	-0.218
Mof_N 	N 	0.34022	0.91481	0.13283	-0.216
Mof_N 	N 	0.31485	0.86678	0.12563	-0.204
Mof_N 	N 	0.24705	0.77364	0.18769	-0.213
Mof_N 	N 	0.2513	0.79338	0.21368	-0.214
Mof_N 	N 	0.21395	0.30983	0.15518	-0.22
Mof_N 	N 	0.25708	0.33038	0.14726	-0.219
Mof_N 	N 	0.39979	0.43664	0.21163	-0.21
Mof_N 	N 	0.40926	0.45388	0.24174	-0.202
Mof_N 	N 	0.29627	0.41541	0.26308	-0.203
Mof_N 	N 	0.2485	0.37997	0.24187	-0.206
Mof_N 	N 	0.19489	0.81889	0.70838	-0.213
Mof_N 	N 	0.21684	0.86521	0.71825	-0.209
Mof_N 	N 	0.11257	0.77412	0.81369	-0.227
Mof_N 	N 	0.14419	0.77658	0.82417	-0.216
Mof_N 	N 	0.20069	0.80831	0.5998	-0.2
Mof_N 	N 	0.18091	0.77837	0.62008	-0.205
Mof_N 	N 	0.67894	0.36844	0.84118	-0.209
Mof_N 	N 	0.73	0.41457	0.86217	-0.209
Mof_N 	N 	0.7481	0.47933	0.94323	-0.218
Mof_N 	N 	0.7036	0.4574	0.949	-0.217
Mof_N 	N 	0.8291	0.4452	0.7729	-0.223
Mof_N 	N 	0.8042	0.4474	0.7558	-0.224
Mof_N 	N 	0.18074	0.57853	0.34987	-0.207
Mof_N 	N 	0.15368	0.57913	0.33401	-0.223
Mof_N 	N 	0.2092	0.65376	0.26496	-0.208
Mof_N 	N 	0.25249	0.6775	0.25659	-0.198
Mof_N 	N 	0.182	0.37487	0.34727	-0.218
Mof_N 	N 	0.149	0.32207	0.33827	-0.214
Mof_N 	N 	0.9696	0.9281	0.0413	-0.208
Mof_N 	N 	0.018	0.9743	0.0639	-0.21
Mof_N 	N 	0.0934	0.1177	0.0687	-0.214
Mof_N 	N 	0.0666	0.1176	0.0526	-0.207
Mof_N 	N 	0.4755	0.9845	0.0576	-0.213
Mof_N 	N 	0.4275	0.939	0.0331	-0.222
Mof_C 	C 	0.8469	0.4373	0.4864	-0.628
Mof_C 	C 	0.8542	0.4231	0.4605	0.198
Mof_C 	C 	0.8212	0.38743	0.43183	-0.162
Mof_C 	C 	0.84781	0.3899	0.41851	0.222
Mof_C 	C 	0.8317	0.3606	0.3873	-0.66
Mof_C 	C 	0.9979	0.4529	0.3694	-0.636
Mof_C 	C 	0.0434	0.4989	0.3971	0.196
Mof_C 	C 	0.1005	0.5434	0.4005	-0.13
Mof_C 	C 	0.125	0.5739	0.4303	0.19
Mof_C 	C 	0.185	0.6274	0.4466	-0.61
Mof_C 	C 	0.1988	0.7163	0.5341	-0.692
Mof_C 	C 	0.1424	0.6768	0.535	0.239
Mof_C 	C 	0.1219	0.6806	0.5511	-0.174
Mof_C 	C 	0.065	0.6289	0.5425	0.216
Mof_C 	C 	0.0223	0.6107	0.5516	-0.668
Mof_C 	C 	0.8742	0.6636	0.9906	-0.621
Mof_C 	C 	0.858	0.638	0.016	0.198
Mof_C 	C 	0.8158	0.5814	0.0128	-0.123
Mof_C 	C 	0.8173	0.5794	0.0425	0.175
Mof_C 	C 	0.7826	0.5308	0.0552	-0.572
Mof_C 	C 	0.786	0.5715	0.1517	-0.651
Mof_C 	C 	0.8176	0.6257	0.1611	0.213
Mof_C 	C 	0.8161	0.6471	0.1828	-0.135
Mof_C 	C 	0.8588	0.7015	0.1819	0.181
Mof_C 	C 	0.8765	0.7454	0.2013	-0.599
Mof_C 	C 	0.975	0.8801	0.1397	-0.609
Mof_C 	C 	0.9758	0.861	0.1112	0.193
Mof_C 	C 	0.982	0.8729	0.0843	-0.135
Mof_C 	C 	0.979	0.8428	0.0682	0.182
Mof_C 	C 	0.9845	0.8392	0.0355	-0.568
Mof_C 	C 	0.7238	0.6189	0.1793	-0.643
Mof_C 	C 	0.7368	0.6047	0.1987	0.215
Mof_C 	C 	0.7765	0.6167	0.2006	-0.153
Mof_C 	C 	0.7679	0.591	0.2207	0.207
Mof_C 	C 	0.7975	0.5885	0.2322	-0.631
Mof_C 	C 	0.7135	0.4747	0.3	-0.651
Mof_C 	C 	0.6683	0.4561	0.3046	0.216
Mof_C 	C 	0.6308	0.419	0.3202	-0.159
Mof_C 	C 	0.5981	0.4165	0.3174	0.216
Mof_C 	C 	0.55	0.3834	0.329	-0.658
Mof_C 	C 	0.4656	0.4036	0.2778	-0.59
Mof_C 	C 	0.5035	0.4455	0.2606	0.185
Mof_C 	C 	0.5018	0.4682	0.243	-0.142
Mof_C 	C 	0.54633	0.5014	0.23113	0.217
Mof_C 	C 	0.5669	0.537	0.2113	-0.664
Mof_C 	C 	0.7166	0.46	0.3758	-0.594
Mof_C 	C 	0.6618	0.4044	0.3564	0.183
Mof_C 	C 	0.6247	0.3872	0.3339	-0.12
Mof_C 	C 	0.5809	0.3301	0.3236	0.186
Mof_C 	C 	0.528	0.2891	0.2987	-0.591
Mof_C 	C 	0.4288	0.1177	0.2777	-0.578
Mof_C 	C 	0.4606	0.1204	0.2956	0.174
Mof_C 	C 	0.4565	0.087	0.2917	-0.121
Mof_C 	C 	0.497	0.1111	0.3161	0.178
Mof_C 	C 	0.5106	0.0908	0.3228	-0.577
Mof_C 	C 	0.698	0.256	0.3996	-0.676
Mof_C 	C 	0.7178	0.3028	0.403	0.216
Mof_C 	C 	0.7702	0.3601	0.4177	-0.143
Mof_C 	C 	0.7624	0.38266	0.41346	0.192
Mof_C 	C 	0.8025	0.4412	0.4229	-0.641
Mof_C 	C 	0.3609	0.9608	0.2967	-0.586
Mof_C 	C 	0.3746	0.9817	0.2685	0.183
Mof_C 	C 	0.4172	0.0372	0.266	-0.147
Mof_C 	C 	0.4107	0.0318	0.2359	0.221
Mof_C 	C 	0.443	0.0744	0.2196	-0.667
Mof_C 	C 	0.4075	0.0002	0.1183	-0.659
Mof_C 	C 	0.3736	0.945	0.1158	0.217
Mof_C 	C 	0.3687	0.9156	0.0957	-0.159
Mof_C 	C 	0.3323	0.8683	0.1028	0.213
Mof_C 	C 	0.3089	0.8187	0.089	-0.638
Mof_C 	C 	0.2335	0.7116	0.1655	-0.689
Mof_C 	C 	0.23932	0.73902	0.19074	0.238
Mof_C 	C 	0.2393	0.736	0.2201	-0.165
Mof_C 	C 	0.2461	0.7714	0.2341	0.218
Mof_C 	C 	0.2519	0.7859	0.2662	-0.645
Mof_C 	C 	0.1128	0.2283	0.1375	-0.605
Mof_C 	C 	0.1666	0.2607	0.1351	0.195
Mof_C 	C 	0.1783	0.2495	0.115	-0.155
Mof_C 	C 	0.2339	0.2925	0.123	0.221
Mof_C 	C 	0.2707	0.3043	0.1096	-0.636
Mof_C 	C 	0.4276	0.4222	0.1784	-0.629
Mof_C 	C 	0.4313	0.4404	0.2089	0.204
Mof_C 	C 	0.4616	0.4576	0.2374	-0.132
Mof_C 	C 	0.44649	0.4658	0.25769	0.18
Mof_C 	C 	0.4638	0.4835	0.2917	-0.589
Mof_C 	C 	0.3336	0.4549	0.3195	-0.606
Mof_C 	C 	0.2893	0.4193	0.2906	0.183
Mof_C 	C 	0.235	0.3845	0.2869	-0.121
Mof_C 	C 	0.2117	0.3605	0.2552	0.193
Mof_C 	C 	0.1553	0.32	0.2369	-0.627
Mof_C 	C 	0.1478	0.7394	0.7248	-0.579
Mof_C 	C 	0.17461	0.7921	0.73011	0.166
Mof_C 	C 	0.1814	0.819	0.7544	-0.113
Mof_C 	C 	0.2095	0.8652	0.7465	0.171
Mof_C 	C 	0.2298	0.9118	0.7634	-0.579
Mof_C 	C 	0.0931	0.787	0.7697	-0.765
Mof_C 	C 	0.12116	0.78793	0.78729	0.276
Mof_C 	C 	0.1602	0.8016	0.7814	-0.19
Mof_C 	C 	0.1728	0.7938	0.8046	0.227
Mof_C 	C 	0.2114	0.8007	0.8103	-0.653
Mof_C 	C 	0.1995	0.8013	0.5456	-0.6
Mof_C 	C 	0.1842	0.7789	0.5727	0.185
Mof_C 	C 	0.1506	0.72698	0.57498	-0.113
Mof_C 	C 	0.15164	0.73057	0.60541	0.167
Mof_C 	C 	0.1244	0.6873	0.6215	-0.56
Mof_C 	C 	0.6408	0.3167	0.7873	-0.603
Mof_C 	C 	0.687	0.3625	0.8153	0.19
Mof_C 	C 	0.7425	0.4056	0.8187	-0.128
Mof_C 	C 	0.7689	0.4379	0.8492	0.217
Mof_C 	C 	0.8266	0.4884	0.8658	-0.641
Mof_C 	C 	0.8482	0.5611	0.9651	-0.653
Mof_C 	C 	0.7931	0.5268	0.9647	0.219
Mof_C 	C 	0.7797	0.53595	0.98505	-0.161
Mof_C 	C 	0.7236	0.4924	0.9738	0.218
Mof_C 	C 	0.6851	0.4801	0.9844	-0.635
Mof_C 	C 	0.8257	0.421	0.8185	-0.731
Mof_C 	C 	0.8085	0.429	0.7975	0.258
Mof_C 	C 	0.7709	0.4196	0.7963	-0.179
Mof_C 	C 	0.7704	0.4325	0.7701	0.217
Mof_C 	C 	0.7394	0.4321	0.7569	-0.647
Mof_C 	C 	0.1817	0.5563	0.3974	-0.589
Mof_C 	C 	0.1621	0.5634	0.3753	0.188
Mof_C 	C 	0.1256	0.5559	0.3759	-0.15
Mof_C 	C 	0.1239	0.5686	0.3503	0.223
Mof_C 	C 	0.0924	0.5677	0.3385	-0.666
Mof_C 	C 	0.1502	0.6479	0.2571	-0.611
Mof_C 	C 	0.1961	0.668	0.2519	0.184
Mof_C 	C 	0.2347	0.7065	0.2366	-0.112
Mof_C 	C 	0.2692	0.7106	0.2394	0.162
Mof_C 	C 	0.3177	0.7435	0.227	-0.559
Mof_C 	C 	0.2595	0.4619	0.3346	-0.688
Mof_C 	C 	0.21719	0.40366	0.32985	0.232
Mof_C 	C 	0.2066	0.3706	0.309	-0.159
Mof_C 	C 	0.1627	0.319	0.3149	0.212
Mof_C 	C 	0.1344	0.2677	0.2997	-0.645
Mof_C 	C 	0.8978	0.8294	0.0264	-0.583
Mof_C 	C 	0.9529	0.8867	0.0474	0.173
Mof_C 	C 	0.9878	0.9048	0.072	-0.133
Mof_C 	C 	0.0275	0.9604	0.0825	0.203
Mof_C 	C 	0.0763	0.0014	0.1097	-0.647
Mof_C 	C 	0.1671	0.17	0.1131	-0.667
Mof_C 	C 	0.1352	0.1633	0.0921	0.224
Mof_C 	C 	0.1385	0.1962	0.0925	-0.143
Mof_C 	C 	0.0956	0.1668	0.0672	0.185
Mof_C 	C 	0.0779	0.1808	0.0543	-0.6
Mof_C 	C 	0.5011	0.0226	0.1113	-0.603
Mof_C 	C 	0.4585	0.9805	0.082	0.196
Mof_C 	C 	0.4008	0.9351	0.0741	-0.131
Mof_C 	C 	0.3861	0.9129	0.0438	0.182
Mof_C 	C 	0.32795	0.8616	0.02235	-0.596
Mof_Ag	Ag	0.97707	0.51735	0.49468	0.31
Mof_Ag	Ag	0.96625	0.46165	0.43321	0.384
Mof_Ag	Ag	0.09356	0.58504	0.48236	0.37
Mof_Ag	Ag	0.93222	0.74289	0.06677	0.375
Mof_Ag	Ag	0.86565	0.65287	0.10672	0.33
Mof_Ag	Ag	0.93359	0.77391	0.13932	0.379
Mof_Ag	Ag	0.63996	0.53705	0.22933	0.352
Mof_Ag	Ag	0.69256	0.52105	0.26269	0.365
Mof_Ag	Ag	0.57935	0.45569	0.2798	0.34
Mof_Ag	Ag	0.67422	0.35131	0.37979	0.306
Mof_Ag	Ag	0.54672	0.23941	0.33323	0.383
Mof_Ag	Ag	0.60176	0.22412	0.36418	0.367
Mof_Ag	Ag	0.29328	0.86813	0.22487	0.366
Mof_Ag	Ag	0.34895	0.94355	0.17558	0.303
Mof_Ag	Ag	0.27421	0.81641	0.15454	0.39
Mof_Ag	Ag	0.23296	0.34832	0.1972	0.333
Mof_Ag	Ag	0.32999	0.38936	0.17973	0.341
Mof_Ag	Ag	0.3563	0.43966	0.25302	0.416
Mof_Ag	Ag	0.19041	0.80123	0.66436	0.328
Mof_Ag	Ag	0.24524	0.91173	0.68961	0.339
Mof_Ag	Ag	0.24298	0.88304	0.61576	0.416
Mof_Ag	Ag	0.61329	0.33427	0.85036	0.32
Mof_Ag	Ag	0.73567	0.4424	0.90369	0.401
Mof_Ag	Ag	0.62942	0.39241	0.91657	0.353
Mof_Ag	Ag	0.24109	0.60763	0.33596	0.35
Mof_Ag	Ag	0.17932	0.61204	0.29754	0.32
Mof_Ag	Ag	0.29169	0.67651	0.27984	0.417
Mof_Ag	Ag	0.93495	0.92938	0.01315	0.341
Mof_Ag	Ag	0.0562	0.04551	0.06391	0.396
Mof_Ag	Ag	0.54894	0.02915	0.05411	0.358
Mof_H 	H 	0.8792	0.4644	0.5032	0.17
Mof_H 	H 	0.8406	0.4515	0.4799	0.178
Mof_H 	H 	0.8162	0.4052	0.4926	0.175
Mof_H 	H 	0.7964	0.3376	0.3762	0.196
Mof_H 	H 	0.8583	0.3869	0.3768	0.179
Mof_H 	H 	0.8301	0.3386	0.3891	0.186
Mof_H 	H 	0.9637	0.4286	0.3737	0.169
Mof_H 	H 	0.0015	0.467	0.3533	0.18
Mof_H 	H 	0.9993	0.4335	0.3636	0.18
Mof_H 	H 	0.1895	0.6385	0.4674	0.162
Mof_H 	H 	0.2022	0.6231	0.4461	0.174
Mof_H 	H 	0.2016	0.6548	0.4368	0.175
Mof_H 	H 	0.2245	0.751	0.5483	0.204
Mof_H 	H 	0.2063	0.7029	0.5394	0.203
Mof_H 	H 	0.2021	0.7206	0.5139	0.191
Mof_H 	H 	0.9871	0.5723	0.5418	0.18
Mof_H 	H 	0.029	0.6171	0.5733	0.193
Mof_H 	H 	0.023	0.6307	0.5455	0.195
Mof_H 	H 	0.9035	0.7022	0.9987	0.169
Mof_H 	H 	0.8861	0.658	0.9787	0.182
Mof_H 	H 	0.8434	0.6472	0.9778	0.177
Mof_H 	H 	0.7935	0.5428	0.0771	0.153
Mof_H 	H 	0.7447	0.5038	0.0475	0.164
Mof_H 	H 	0.7879	0.515	0.0491	0.163
Mof_H 	H 	0.7979	0.5707	0.1358	0.18
Mof_H 	H 	0.7918	0.5648	0.1688	0.192
Mof_H 	H 	0.7478	0.5437	0.1443	0.188
Mof_H 	H 	0.9071	0.7791	0.1962	0.163
Mof_H 	H 	0.8466	0.7338	0.1972	0.169
Mof_H 	H 	0.8867	0.7505	0.2224	0.176
Mof_H 	H 	0.9804	0.9046	0.1364	0.179
Mof_H 	H 	0.9405	0.8491	0.144	0.165
Mof_H 	H 	0.0039	0.8988	0.1567	0.171
Mof_H 	H 	0.9808	0.8152	0.031	0.15
Mof_H 	H 	0.9565	0.8253	0.021	0.159
Mof_H 	H 	0.0199	0.8751	0.0346	0.163
Mof_H 	H 	0.6933	0.6038	0.1833	0.174
Mof_H 	H 	0.7147	0.6041	0.1582	0.187
Mof_H 	H 	0.755	0.658	0.184	0.183
Mof_H 	H 	0.7807	0.5665	0.2462	0.169
Mof_H 	H 	0.835	0.6247	0.2423	0.185
Mof_H 	H 	0.7955	0.5726	0.2153	0.178
Mof_H 	H 	0.7335	0.5011	0.2886	0.175
Mof_H 	H 	0.6983	0.4439	0.289	0.188
Mof_H 	H 	0.7376	0.491	0.3194	0.188
Mof_H 	H 	0.5371	0.3917	0.3234	0.181
Mof_H 	H 	0.5604	0.3919	0.3507	0.196
Mof_H 	H 	0.5214	0.3452	0.32	0.19
Mof_H 	H 	0.4799	0.3983	0.2876	0.157
Mof_H 	H 	0.4301	0.3696	0.2639	0.171
Mof_H 	H 	0.4624	0.4162	0.293	0.166
Mof_H 	H 	0.5983	0.5544	0.2069	0.184
Mof_H 	H 	0.5767	0.5643	0.2216	0.203
Mof_H 	H 	0.5387	0.5152	0.1927	0.187
Mof_H 	H 	0.7317	0.4579	0.3894	0.157
Mof_H 	H 	0.7134	0.4754	0.3874	0.167
Mof_H 	H 	0.7402	0.4827	0.3631	0.166
Mof_H 	H 	0.5053	0.253	0.2965	0.159
Mof_H 	H 	0.5362	0.2982	0.2798	0.171
Mof_H 	H 	0.5091	0.2903	0.304	0.173
Mof_H 	H 	0.4008	0.0855	0.2605	0.164
Mof_H 	H 	0.4531	0.1496	0.2705	0.152
Mof_H 	H 	0.4121	0.116	0.2905	0.159
Mof_H 	H 	0.5407	0.1157	0.341	0.151
Mof_H 	H 	0.5205	0.089	0.3059	0.167
Mof_H 	H 	0.4793	0.0552	0.3259	0.165
Mof_H 	H 	0.6603	0.2234	0.3879	0.185
Mof_H 	H 	0.7014	0.2522	0.4194	0.2
Mof_H 	H 	0.7193	0.2617	0.3894	0.197
Mof_H 	H 	0.8374	0.4634	0.434	0.19
Mof_H 	H 	0.7898	0.445	0.4356	0.18
Mof_H 	H 	0.806	0.4526	0.405	0.176
Mof_H 	H 	0.3302	0.9217	0.2905	0.159
Mof_H 	H 	0.3919	0.9772	0.3091	0.166
Mof_H 	H 	0.352	0.9702	0.3082	0.176
Mof_H 	H 	0.4282	0.0576	0.198	0.18
Mof_H 	H 	0.4414	0.0938	0.2244	0.191
Mof_H 	H 	0.4803	0.0996	0.2257	0.194
Mof_H 	H 	0.4022	0.0092	0.1344	0.177
Mof_H 	H 	0.4455	0.0269	0.1228	0.187
Mof_H 	H 	0.3968	0.0003	0.0995	0.191
Mof_H 	H 	0.3244	0.8252	0.0728	0.189
Mof_H 	H 	0.3174	0.8122	0.1044	0.173
Mof_H 	H 	0.2699	0.7873	0.081	0.179
Mof_H 	H 	0.2351	0.7219	0.1476	0.186
Mof_H 	H 	0.2627	0.7222	0.1707	0.194
Mof_H 	H 	0.199	0.6727	0.1617	0.201
Mof_H 	H 	0.2559	0.8102	0.2693	0.17
Mof_H 	H 	0.22	0.7533	0.2717	0.183
Mof_H 	H 	0.2837	0.8038	0.2789	0.184
Mof_H 	H 	0.1195	0.2485	0.1546	0.163
Mof_H 	H 	0.0951	0.2224	0.1191	0.173
Mof_H 	H 	0.0897	0.1937	0.1404	0.175
Mof_H 	H 	0.3079	0.3388	0.1215	0.177
Mof_H 	H 	0.2609	0.2759	0.1094	0.178
Mof_H 	H 	0.2669	0.3059	0.089	0.189
Mof_H 	H 	0.4032	0.4122	0.163	0.165
Mof_H 	H 	0.4633	0.4516	0.1751	0.177
Mof_H 	H 	0.4142	0.3913	0.1775	0.181
Mof_H 	H 	0.4456	0.4847	0.2989	0.154
Mof_H 	H 	0.4544	0.4581	0.2993	0.166
Mof_H 	H 	0.5027	0.5193	0.2988	0.166
Mof_H 	H 	0.3657	0.4737	0.315	0.16
Mof_H 	H 	0.3419	0.4812	0.3295	0.175
Mof_H 	H 	0.3219	0.4329	0.3326	0.174
Mof_H 	H 	0.1518	0.312	0.2158	0.169
Mof_H 	H 	0.1292	0.2871	0.2433	0.177
Mof_H 	H 	0.1487	0.335	0.2401	0.181
Mof_H 	H 	0.1499	0.7319	0.7056	0.156
Mof_H 	H 	0.1102	0.7098	0.7248	0.164
Mof_H 	H 	0.1664	0.7433	0.7409	0.168
Mof_H 	H 	0.2473	0.9371	0.7514	0.157
Mof_H 	H 	0.2554	0.9304	0.7826	0.175
Mof_H 	H 	0.1993	0.8972	0.7667	0.16
Mof_H 	H 	0.0688	0.7764	0.78	0.204
Mof_H 	H 	0.0724	0.7613	0.7501	0.224
Mof_H 	H 	0.1193	0.8229	0.7674	0.22
Mof_H 	H 	0.2099	0.7912	0.8285	0.177
Mof_H 	H 	0.2479	0.838	0.8123	0.181
Mof_H 	H 	0.2007	0.7771	0.7934	0.188
Mof_H 	H 	0.2232	0.8381	0.5519	0.16
Mof_H 	H 	0.167	0.779	0.5304	0.174
Mof_H 	H 	0.2181	0.8013	0.5374	0.176
Mof_H 	H 	0.1321	0.7006	0.6427	0.14
Mof_H 	H 	0.1386	0.6798	0.6198	0.152
Mof_H 	H 	0.0857	0.6545	0.6124	0.156
Mof_H 	H 	0.6066	0.2924	0.7918	0.156
Mof_H 	H 	0.6416	0.297	0.7808	0.166
Mof_H 	H 	0.6444	0.3313	0.7715	0.168
Mof_H 	H 	0.8306	0.4999	0.8863	0.17
Mof_H 	H 	0.8451	0.5162	0.8557	0.184
Mof_H 	H 	0.8423	0.4823	0.8662	0.18
Mof_H 	H 	0.8447	0.5437	0.9482	0.174
Mof_H 	H 	0.8636	0.5652	0.9838	0.188
Mof_H 	H 	0.8718	0.5965	0.9635	0.187
Mof_H 	H 	0.6486	0.4459	0.9715	0.17
Mof_H 	H 	0.6955	0.5088	0.9837	0.182
Mof_H 	H 	0.6864	0.4779	0.0051	0.181
Mof_H 	H 	0.8525	0.4314	0.8125	0.204
Mof_H 	H 	0.7947	0.3833	0.8184	0.222
Mof_H 	H 	0.8414	0.4433	0.8387	0.207
Mof_H 	H 	0.7473	0.442	0.7381	0.174
Mof_H 	H 	0.75	0.458	0.771	0.185
Mof_H 	H 	0.7009	0.3962	0.7531	0.187
Mof_H 	H 	0.207	0.5649	0.3905	0.16
Mof_H 	H 	0.1997	0.5806	0.4173	0.165
Mof_H 	H 	0.1509	0.5192	0.3985	0.178
Mof_H 	H 	0.0996	0.578	0.3198	0.181
Mof_H 	H 	0.054	0.5315	0.3347	0.191
Mof_H 	H 	0.1028	0.593	0.3532	0.192
Mof_H 	H 	0.1315	0.6222	0.2689	0.163
Mof_H 	H 	0.1644	0.6782	0.2678	0.171
Mof_H 	H 	0.1251	0.6303	0.2378	0.177
Mof_H 	H 	0.3321	0.7371	0.2336	0.149
Mof_H 	H 	0.3059	0.7324	0.2051	0.156
Mof_H 	H 	0.3455	0.7818	0.2343	0.157
Mof_H 	H 	0.2804	0.4755	0.3203	0.206
Mof_H 	H 	0.2426	0.4665	0.3319	0.191
Mof_H 	H 	0.2834	0.482	0.355	0.185
Mof_H 	H 	0.1059	0.2395	0.3088	0.171
Mof_H 	H 	0.1188	0.2568	0.2784	0.183
Mof_H 	H 	0.1603	0.2738	0.3023	0.186
Mof_H 	H 	0.8847	0.8316	0.0109	0.156
Mof_H 	H 	0.9023	0.8141	0.017	0.165
Mof_H 	H 	0.872	0.8066	0.038	0.169
Mof_H 	H 	0.0968	0.0364	0.1116	0.174
Mof_H 	H 	0.0645	0.9901	0.1276	0.189
Mof_H 	H 	0.099	0.0041	0.1071	0.191
Mof_H 	H 	0.1543	0.1396	0.1063	0.177
Mof_H 	H 	0.205	0.2034	0.1138	0.189
Mof_H 	H 	0.1629	0.1714	0.1331	0.19
Mof_H 	H 	0.0467	0.1515	0.0368	0.16
Mof_H 	H 	0.0684	0.1858	0.0694	0.171
Mof_H 	H 	0.1074	0.2139	0.0483	0.168
Mof_H 	H 	0.5365	0.0479	0.1086	0.164
Mof_H 	H 	0.5	0.0421	0.1181	0.173
Mof_H 	H 	0.4945	0.0053	0.1264	0.171
Mof_H 	H 	0.3293	0.8554	0.0023	0.162
Mof_H 	H 	0.3067	0.8305	0.0298	0.168
Mof_H 	H 	0.3113	0.8665	0.0214	0.178
Mof_N 	N 	0.48077	0.43574	0.03451	-0.212
Mof_N 	N 	0.48644	0.45818	0.06142	-0.207
Mof_N 	N 	0.57897	0.61193	0.0757	-0.209
Mof_N 	N 	0.60601	0.64219	0.0558	-0.207
Mof_N 	N 	0.60926	0.58446	0.98412	-0.208
Mof_N 	N 	0.57369	0.53106	0.97915	-0.219
Mof_N 	N 	0.12	0.83597	0.45457	-0.206
Mof_N 	N 	0.0675	0.7943	0.438	-0.205
Mof_N 	N 	0.01638	0.7098	0.35198	-0.213
Mof_N 	N 	0.0512	0.7229	0.3387	-0.21
Mof_N 	N 	0.21462	0.85717	0.38779	-0.209
Mof_N 	N 	0.2323	0.8882	0.4163	-0.215
Mof_N 	N 	0.85624	0.48836	0.2832	-0.216
Mof_N 	N 	0.8341	0.4945	0.2688	-0.212
Mof_N 	N 	0.68074	0.36601	0.20855	-0.22
Mof_N 	N 	0.64782	0.31405	0.20047	-0.216
Mof_N 	N 	0.70572	0.28716	0.24208	-0.21
Mof_N 	N 	0.75778	0.3323	0.26048	-0.213
Mof_N 	N 	0.50081	0.2813	0.14051	-0.204
Mof_N 	N 	0.47556	0.2521	0.16126	-0.204
Mof_N 	N 	0.34268	0.18216	0.17904	-0.201
Mof_N 	N 	0.32518	0.19288	0.16746	-0.205
Mof_N 	N 	0.4033	0.29106	0.10916	-0.205
Mof_N 	N 	0.4454	0.3123	0.1027	-0.21
Mof_N 	N 	0.20727	0.10724	0.26011	-0.203
Mof_N 	N 	0.25921	0.14923	0.28004	-0.218
Mof_N 	N 	0.28198	0.20739	0.36717	-0.216
Mof_N 	N 	0.24115	0.18922	0.37437	-0.204
Mof_N 	N 	0.08595	0.05936	0.31231	-0.213
Mof_N 	N 	0.0797	0.03762	0.28632	-0.215
Mof_N 	N 	0.65465	0.05877	0.34482	-0.22
Mof_N 	N 	0.68312	0.10982	0.35274	-0.219
Mof_N 	N 	0.72501	0.18816	0.28837	-0.21
Mof_N 	N 	0.71214	0.16752	0.25826	-0.202
Mof_N 	N 	0.65233	0.03319	0.23692	-0.204
Mof_N 	N 	0.6381	0.00663	0.25813	-0.207
Mof_N 	N 	0.61051	0.48651	0.79162	-0.213
Mof_N 	N 	0.64696	0.49859	0.78175	-0.209
Mof_N 	N 	0.46043	0.29888	0.68631	-0.227
Mof_N 	N 	0.45241	0.32002	0.67583	-0.216
Mof_N 	N 	0.70851	0.60089	0.9002	-0.2
Mof_N 	N 	0.65829	0.56083	0.87992	-0.205
Mof_N 	N 	0.02726	0.83776	0.65882	-0.209
Mof_N 	N 	0.0524	0.86783	0.63783	-0.209
Mof_N 	N 	0.0361	0.80487	0.55677	-0.218
Mof_N 	N 	0.0084	0.7546	0.551	-0.217
Mof_N 	N 	0.1723	0.0562	0.7271	-0.223
Mof_N 	N 	0.1916	0.0484	0.7442	-0.224
Mof_N 	N 	0.72866	0.83087	0.15013	-0.207
Mof_N 	N 	0.74512	0.81967	0.16599	-0.223
Mof_N 	N 	0.8888	0.94424	0.23504	-0.207
Mof_N 	N 	0.92091	0.9959	0.24341	-0.196
Mof_N 	N 	0.5276	0.83473	0.15273	-0.218
Mof_N 	N 	0.4838	0.81073	0.16173	-0.214
Mof_N 	N 	0.3868	0.9283	0.4587	-0.208
Mof_N 	N 	0.4104	0.9541	0.4361	-0.21
Mof_N 	N 	0.549	0.0247	0.4313	-0.215
Mof_N 	N 	0.565	0.014	0.4474	-0.208
Mof_N 	N 	0.4269	0.4179	0.4424	-0.213
Mof_N 	N 	0.4059	0.3944	0.4669	-0.222
Mof_C 	C 	0.4509	0.3605	0.0136	-0.628
Mof_C 	C 	0.4626	0.3937	0.0395	0.198
Mof_C 	C 	0.4556	0.38937	0.06817	-0.162
Mof_C 	C 	0.47139	0.4293	0.08149	0.222
Mof_C 	C 	0.4733	0.4444	0.1127	-0.66
Mof_C 	C 	0.5835	0.6285	0.1306	-0.635
Mof_C 	C 	0.6018	0.6463	0.1029	0.195
Mof_C 	C 	0.6429	0.7	0.0995	-0.129
Mof_C 	C 	0.6436	0.6947	0.0697	0.19
Mof_C 	C 	0.6808	0.7384	0.0534	-0.61
Mof_C 	C 	0.6822	0.6647	0.9659	-0.692
Mof_C 	C 	0.6418	0.6074	0.965	0.239
Mof_C 	C 	0.6295	0.5708	0.9489	-0.174
Mof_C 	C 	0.5864	0.5225	0.9575	0.216
Mof_C 	C 	0.5591	0.4707	0.9484	-0.667
Mof_C 	C 	0.173	0.8836	0.5094	-0.621
Mof_C 	C 	0.122	0.842	0.484	0.198
Mof_C 	C 	0.0686	0.803	0.4872	-0.123
Mof_C 	C 	0.0369	0.7748	0.4575	0.174
Mof_C 	C 	0.9756	0.7274	0.4448	-0.571
Mof_C 	C 	0.9198	0.6343	0.3483	-0.651
Mof_C 	C 	0.9646	0.6565	0.3389	0.214
Mof_C 	C 	0.9643	0.6333	0.3172	-0.135
Mof_C 	C 	0.0196	0.6769	0.3181	0.18
Mof_C 	C 	0.0441	0.6752	0.2987	-0.598
Mof_C 	C 	0.2404	0.8353	0.3603	-0.613
Mof_C 	C 	0.2498	0.8646	0.3888	0.194
Mof_C 	C 	0.2886	0.8977	0.4157	-0.135
Mof_C 	C 	0.2746	0.9108	0.4318	0.182
Mof_C 	C 	0.3037	0.949	0.4645	-0.571
Mof_C 	C 	0.9396	0.5445	0.3207	-0.643
Mof_C 	C 	0.906	0.5381	0.3013	0.215
Mof_C 	C 	0.9161	0.5759	0.2994	-0.154
Mof_C 	C 	0.8703	0.5472	0.2793	0.207
Mof_C 	C 	0.8563	0.5653	0.2678	-0.631
Mof_C 	C 	0.6747	0.4135	0.2	-0.651
Mof_C 	C 	0.6515	0.3637	0.1954	0.216
Mof_C 	C 	0.5988	0.3106	0.1798	-0.158
Mof_C 	C 	0.5991	0.2807	0.1826	0.216
Mof_C 	C 	0.5544	0.221	0.171	-0.658
Mof_C 	C 	0.6258	0.1878	0.2222	-0.59
Mof_C 	C 	0.6849	0.2429	0.2394	0.185
Mof_C 	C 	0.7252	0.2588	0.257	-0.142
Mof_C 	C 	0.77027	0.3152	0.26887	0.217
Mof_C 	C 	0.8257	0.3556	0.2887	-0.664
Mof_C 	C 	0.5842	0.3408	0.1242	-0.594
Mof_C 	C 	0.548	0.3054	0.1436	0.183
Mof_C 	C 	0.5533	0.2908	0.1661	-0.12
Mof_C 	C 	0.5065	0.2573	0.1764	0.186
Mof_C 	C 	0.4904	0.2293	0.2013	-0.591
Mof_C 	C 	0.34	0.1511	0.2223	-0.578
Mof_C 	C 	0.3248	0.165	0.2044	0.174
Mof_C 	C 	0.2953	0.1648	0.2083	-0.121
Mof_C 	C 	0.295	0.1809	0.1839	0.178
Mof_C 	C 	0.268	0.1878	0.1772	-0.577
Mof_C 	C 	0.3564	0.2984	0.1004	-0.676
Mof_C 	C 	0.3998	0.3148	0.097	0.216
Mof_C 	C 	0.4424	0.3525	0.0823	-0.143
Mof_C 	C 	0.4692	0.34894	0.08654	0.192
Mof_C 	C 	0.5183	0.3796	0.0771	-0.641
Mof_C 	C 	0.1641	0.0642	0.2033	-0.585
Mof_C 	C 	0.2132	0.1061	0.2315	0.183
Mof_C 	C 	0.2712	0.1512	0.234	-0.146
Mof_C 	C 	0.2959	0.1748	0.2641	0.221
Mof_C 	C 	0.3548	0.2234	0.2804	-0.667
Mof_C 	C 	0.3819	0.2892	0.3817	-0.658
Mof_C 	C 	0.3292	0.2578	0.3842	0.217
Mof_C 	C 	0.3199	0.273	0.4043	-0.159
Mof_C 	C 	0.2655	0.2295	0.3972	0.213
Mof_C 	C 	0.2297	0.2199	0.411	-0.638
Mof_C 	C 	0.0461	0.068	0.3345	-0.691
Mof_C 	C 	0.04828	0.04858	0.30926	0.24
Mof_C 	C 	0.0159	0.0192	0.2799	-0.168
Mof_C 	C 	0.0373	0.012	0.2659	0.221
Mof_C 	C 	0.0197	0.9857	0.2338	-0.654
Mof_C 	C 	0.5908	0.9753	0.3625	-0.603
Mof_C 	C 	0.6256	0.0315	0.3649	0.194
Mof_C 	C 	0.6345	0.0633	0.385	-0.154
Mof_C 	C 	0.6695	0.1109	0.377	0.22
Mof_C 	C 	0.6947	0.1611	0.3904	-0.635
Mof_C 	C 	0.7438	0.2492	0.3216	-0.629
Mof_C 	C 	0.7315	0.2224	0.2911	0.204
Mof_C 	C 	0.7202	0.2242	0.2626	-0.132
Mof_C 	C 	0.70811	0.1888	0.24231	0.18
Mof_C 	C 	0.6918	0.1721	0.2083	-0.589
Mof_C 	C 	0.6354	0.0141	0.1805	-0.615
Mof_C 	C 	0.6287	0.9987	0.2094	0.186
Mof_C 	C 	0.5976	0.9481	0.2131	-0.123
Mof_C 	C 	0.6053	0.9565	0.2448	0.195
Mof_C 	C 	0.5831	0.9184	0.2631	-0.629
Mof_C 	C 	0.5146	0.423	0.7752	-0.579
Mof_C 	C 	0.56199	0.4445	0.76989	0.166
Mof_C 	C 	0.5646	0.427	0.7456	-0.113
Mof_C 	C 	0.6187	0.463	0.7535	0.171
Mof_C 	C 	0.6484	0.4664	0.7366	-0.579
Mof_C 	C 	0.5173	0.3234	0.7303	-0.765
Mof_C 	C 	0.50064	0.33387	0.71271	0.277
Mof_C 	C 	0.5202	0.3788	0.7186	-0.19
Mof_C 	C 	0.4892	0.3682	0.6954	0.227
Mof_C 	C 	0.4904	0.4011	0.6897	-0.653
Mof_C 	C 	0.7557	0.6539	0.9544	-0.6
Mof_C 	C 	0.7062	0.6115	0.9273	0.185
Mof_C 	C 	0.652	0.57562	0.92502	-0.113
Mof_C 	C 	0.62516	0.54623	0.89459	0.167
Mof_C 	C 	0.5658	0.5029	0.8785	-0.56
Mof_C 	C 	0.0294	0.8535	0.7127	-0.602
Mof_C 	C 	0.0472	0.8717	0.6847	0.19
Mof_C 	C 	0.0869	0.9238	0.6813	-0.128
Mof_C 	C 	0.0887	0.9197	0.6508	0.216
Mof_C 	C 	0.1226	0.9608	0.6342	-0.641
Mof_C 	C 	0.096	0.8831	0.5349	-0.653
Mof_C 	C 	0.0621	0.8284	0.5353	0.219
Mof_C 	C 	0.0509	0.79465	0.51495	-0.16
Mof_C 	C 	0.0186	0.7498	0.5262	0.217
Mof_C 	C 	0.9957	0.7007	0.5156	-0.632
Mof_C 	C 	0.1025	0.0072	0.6815	-0.73
Mof_C 	C 	0.1315	0.011	0.7025	0.257
Mof_C 	C 	0.1233	0.9746	0.7037	-0.179
Mof_C 	C 	0.1624	0.0003	0.7299	0.218
Mof_C 	C 	0.1752	0.9825	0.7431	-0.648
Mof_C 	C 	0.6589	0.7843	0.1026	-0.589
Mof_C 	C 	0.6881	0.7868	0.1247	0.188
Mof_C 	C 	0.68	0.7497	0.1241	-0.15
Mof_C 	C 	0.7183	0.7736	0.1497	0.223
Mof_C 	C 	0.7292	0.7539	0.1615	-0.666
Mof_C 	C 	0.8908	0.8931	0.2429	-0.609
Mof_C 	C 	0.9161	0.9442	0.2481	0.183
Mof_C 	C 	0.9699	0.9981	0.2634	-0.108
Mof_C 	C 	0.9712	0.0298	0.2606	0.157
Mof_C 	C 	0.0165	0.0907	0.273	-0.553
Mof_C 	C 	0.6273	0.9249	0.1654	-0.689
Mof_C 	C 	0.57381	0.88734	0.17015	0.232
Mof_C 	C 	0.5616	0.8976	0.191	-0.158
Mof_C 	C 	0.5041	0.8478	0.1851	0.211
Mof_C 	C 	0.468	0.8347	0.2003	-0.644
Mof_C 	C 	0.303	0.8714	0.4736	-0.583
Mof_C 	C 	0.3393	0.9055	0.4526	0.173
Mof_C 	C 	0.3328	0.9158	0.428	-0.134
Mof_C 	C 	0.3779	0.945	0.4175	0.206
Mof_C 	C 	0.3917	0.9666	0.3903	-0.65
Mof_C 	C 	0.5569	0.054	0.3869	-0.667
Mof_C 	C 	0.5712	0.0431	0.4079	0.224
Mof_C 	C 	0.6037	0.046	0.4075	-0.143
Mof_C 	C 	0.5996	0.0284	0.4328	0.185
Mof_C 	C 	0.6265	0.0236	0.4457	-0.604
Mof_C 	C 	0.4113	0.3898	0.3887	-0.601
Mof_C 	C 	0.3985	0.3765	0.418	0.195
Mof_C 	C 	0.361	0.3267	0.4259	-0.131
Mof_C 	C 	0.3691	0.3423	0.4562	0.182
Mof_C 	C 	0.33925	0.3056	0.47765	-0.595
Mof_Ag	Ag	0.52267	0.48239	0.00532	0.31
Mof_Ag	Ag	0.52843	0.53304	0.06679	0.384
Mof_Ag	Ag	0.60268	0.6112	0.01764	0.37
Mof_Ag	Ag	0.17612	0.86545	0.43323	0.375
Mof_Ag	Ag	0.04615	0.75893	0.39328	0.33
Mof_Ag	Ag	0.13459	0.79427	0.36068	0.378
Mof_Ag	Ag	0.80772	0.41063	0.27067	0.352
Mof_Ag	Ag	0.75836	0.42987	0.23731	0.365
Mof_Ag	Ag	0.67589	0.29955	0.2202	0.34
Mof_Ag	Ag	0.47152	0.29443	0.12021	0.306
Mof_Ag	Ag	0.40618	0.21349	0.16677	0.383
Mof_Ag	Ag	0.35994	0.23758	0.13582	0.367
Mof_Ag	Ag	0.14326	0.06841	0.27513	0.366
Mof_Ag	Ag	0.26797	0.17337	0.32442	0.303
Mof_Ag	Ag	0.16187	0.11967	0.34546	0.39
Mof_Ag	Ag	0.65112	0.03576	0.3028	0.332
Mof_Ag	Ag	0.70963	0.15026	0.32027	0.341
Mof_Ag	Ag	0.68664	0.10328	0.24698	0.416
Mof_Ag	Ag	0.63687	0.52605	0.83564	0.328
Mof_Ag	Ag	0.72212	0.55563	0.81039	0.339
Mof_Ag	Ag	0.76728	0.62722	0.88424	0.416
Mof_Ag	Ag	0.98391	0.76293	0.64964	0.321
Mof_Ag	Ag	0.03871	0.83198	0.59631	0.401
Mof_Ag	Ag	0.97584	0.71285	0.58343	0.354
Mof_Ag	Ag	0.77167	0.90513	0.16404	0.351
Mof_Ag	Ag	0.8145	0.88178	0.20246	0.321
Mof_Ag	Ag	0.89667	0.01185	0.22016	0.415
Mof_Ag	Ag	0.41623	0.9218	0.48685	0.34
Mof_Ag	Ag	0.4816	0.99229	0.43609	0.397
Mof_Ag	Ag	0.47504	0.49483	0.44589	0.359
Mof_H 	H 	0.4612	0.376	0.9968	0.17
Mof_H 	H 	0.4716	0.3607	0.0201	0.178
Mof_H 	H 	0.4126	0.3236	0.0074	0.175
Mof_H 	H 	0.4614	0.4202	0.1238	0.196
Mof_H 	H 	0.5101	0.4815	0.1232	0.179
Mof_H 	H 	0.4495	0.441	0.1109	0.186
Mof_H 	H 	0.5549	0.59	0.1263	0.169
Mof_H 	H 	0.6137	0.6482	0.1467	0.179
Mof_H 	H 	0.5699	0.6357	0.1364	0.179
Mof_H 	H 	0.6711	0.7221	0.0326	0.162
Mof_H 	H 	0.677	0.7561	0.0539	0.174
Mof_H 	H 	0.718	0.7648	0.0632	0.175
Mof_H 	H 	0.7027	0.6762	0.9517	0.204
Mof_H 	H 	0.6635	0.6669	0.9606	0.203
Mof_H 	H 	0.7067	0.6882	0.9861	0.191
Mof_H 	H 	0.5305	0.4453	0.9582	0.179
Mof_H 	H 	0.5438	0.4557	0.9267	0.193
Mof_H 	H 	0.5852	0.4775	0.9545	0.195
Mof_H 	H 	0.2035	0.9048	0.5013	0.169
Mof_H 	H 	0.1793	0.9074	0.5213	0.182
Mof_H 	H 	0.1694	0.8656	0.5222	0.177
Mof_H 	H 	0.9657	0.7164	0.4229	0.153
Mof_H 	H 	0.9563	0.6972	0.4525	0.164
Mof_H 	H 	0.9659	0.7388	0.4509	0.163
Mof_H 	H 	0.9349	0.6621	0.3642	0.18
Mof_H 	H 	0.896	0.623	0.3312	0.192
Mof_H 	H 	0.8994	0.6035	0.3557	0.188
Mof_H 	H 	0.0829	0.7109	0.3038	0.163
Mof_H 	H 	0.0366	0.6494	0.3028	0.168
Mof_H 	H 	0.0281	0.6643	0.2776	0.176
Mof_H 	H 	0.2682	0.844	0.3636	0.18
Mof_H 	H 	0.2051	0.7965	0.356	0.166
Mof_H 	H 	0.2421	0.8472	0.3433	0.173
Mof_H 	H 	0.2842	0.9498	0.469	0.151
Mof_H 	H 	0.3043	0.9355	0.479	0.16
Mof_H 	H 	0.3405	0.9853	0.4654	0.164
Mof_H 	H 	0.9205	0.51	0.3167	0.174
Mof_H 	H 	0.9459	0.5565	0.3418	0.187
Mof_H 	H 	0.974	0.571	0.316	0.183
Mof_H 	H 	0.8203	0.5345	0.2538	0.169
Mof_H 	H 	0.8824	0.5927	0.2577	0.185
Mof_H 	H 	0.8573	0.5802	0.2847	0.178
Mof_H 	H 	0.7125	0.4449	0.2114	0.175
Mof_H 	H 	0.6549	0.4093	0.211	0.188
Mof_H 	H 	0.6716	0.4182	0.1806	0.188
Mof_H 	H 	0.5683	0.2137	0.1766	0.181
Mof_H 	H 	0.5412	0.2097	0.1493	0.196
Mof_H 	H 	0.5252	0.2014	0.18	0.19
Mof_H 	H 	0.6107	0.1923	0.2124	0.157
Mof_H 	H 	0.6057	0.1662	0.2361	0.171
Mof_H 	H 	0.6232	0.1694	0.207	0.166
Mof_H 	H 	0.8475	0.3914	0.2931	0.184
Mof_H 	H 	0.8427	0.3551	0.2784	0.203
Mof_H 	H 	0.8225	0.346	0.3073	0.187
Mof_H 	H 	0.5685	0.3423	0.1106	0.157
Mof_H 	H 	0.588	0.326	0.1126	0.167
Mof_H 	H 	0.6196	0.3771	0.1369	0.166
Mof_H 	H 	0.4565	0.2088	0.2035	0.159
Mof_H 	H 	0.5184	0.2564	0.2202	0.171
Mof_H 	H 	0.4863	0.2051	0.196	0.173
Mof_H 	H 	0.325	0.1403	0.2395	0.164
Mof_H 	H 	0.3791	0.1826	0.2295	0.152
Mof_H 	H 	0.3255	0.1216	0.2095	0.159
Mof_H 	H 	0.2747	0.1997	0.159	0.151
Mof_H 	H 	0.2831	0.2146	0.1941	0.167
Mof_H 	H 	0.2293	0.1534	0.1741	0.165
Mof_H 	H 	0.3355	0.2724	0.1121	0.185
Mof_H 	H 	0.3328	0.282	0.0806	0.2
Mof_H 	H 	0.3723	0.3299	0.1106	0.197
Mof_H 	H 	0.5294	0.4034	0.066	0.19
Mof_H 	H 	0.5094	0.3542	0.0644	0.18
Mof_H 	H 	0.5476	0.401	0.095	0.176
Mof_H 	H 	0.1312	0.0397	0.2095	0.159
Mof_H 	H 	0.1681	0.0828	0.1909	0.166
Mof_H 	H 	0.162	0.0438	0.1918	0.176
Mof_H 	H 	0.3596	0.2302	0.302	0.18
Mof_H 	H 	0.3694	0.217	0.2756	0.191
Mof_H 	H 	0.3739	0.2546	0.2743	0.194
Mof_H 	H 	0.3748	0.2678	0.3656	0.177
Mof_H 	H 	0.4041	0.3227	0.3772	0.187
Mof_H 	H 	0.4008	0.2973	0.4005	0.191
Mof_H 	H 	0.2524	0.2516	0.4272	0.189
Mof_H 	H 	0.2078	0.213	0.3956	0.173
Mof_H 	H 	0.2063	0.1889	0.419	0.179
Mof_H 	H 	0.0743	0.0875	0.3524	0.187
Mof_H 	H 	0.0515	0.092	0.3293	0.195
Mof_H 	H 	0.011	0.0373	0.3383	0.202
Mof_H 	H 	0.0409	0.9866	0.2307	0.172
Mof_H 	H 	0.9816	0.9483	0.2283	0.186
Mof_H 	H 	0.0249	0.0048	0.2211	0.187
Mof_H 	H 	0.5939	0.9649	0.3454	0.162
Mof_H 	H 	0.6033	0.976	0.3809	0.173
Mof_H 	H 	0.5533	0.9493	0.3596	0.174
Mof_H 	H 	0.7173	0.1864	0.3785	0.176
Mof_H 	H 	0.6665	0.1515	0.3906	0.178
Mof_H 	H 	0.7169	0.1779	0.411	0.188
Mof_H 	H 	0.7492	0.2402	0.337	0.165
Mof_H 	H 	0.7765	0.2882	0.3249	0.177
Mof_H 	H 	0.7138	0.2367	0.3225	0.181
Mof_H 	H 	0.6858	0.1467	0.2011	0.154
Mof_H 	H 	0.6588	0.1551	0.2007	0.166
Mof_H 	H 	0.7205	0.2039	0.2012	0.166
Mof_H 	H 	0.6587	0.0507	0.185	0.162
Mof_H 	H 	0.6517	0.0124	0.1705	0.178
Mof_H 	H 	0.6003	0.9893	0.1674	0.177
Mof_H 	H 	0.5962	0.936	0.2842	0.17
Mof_H 	H 	0.5438	0.8859	0.2567	0.177
Mof_H 	H 	0.5949	0.9086	0.2599	0.182
Mof_H 	H 	0.5263	0.4443	0.7944	0.156
Mof_H 	H 	0.485	0.3854	0.7752	0.164
Mof_H 	H 	0.5024	0.4255	0.7591	0.168
Mof_H 	H 	0.6857	0.4959	0.7486	0.157
Mof_H 	H 	0.6478	0.4728	0.7174	0.175
Mof_H 	H 	0.6305	0.4326	0.7333	0.16
Mof_H 	H 	0.4964	0.2888	0.72	0.204
Mof_H 	H 	0.5112	0.3223	0.7499	0.225
Mof_H 	H 	0.5555	0.3519	0.7326	0.22
Mof_H 	H 	0.4627	0.3814	0.6715	0.177
Mof_H 	H 	0.5257	0.4356	0.6877	0.181
Mof_H 	H 	0.4837	0.4073	0.7066	0.188
Mof_H 	H 	0.7862	0.6713	0.9481	0.16
Mof_H 	H 	0.7486	0.6366	0.9696	0.174
Mof_H 	H 	0.7639	0.6807	0.9626	0.176
Mof_H 	H 	0.5579	0.4894	0.8573	0.141
Mof_H 	H 	0.56	0.5188	0.8802	0.152
Mof_H 	H 	0.5421	0.4733	0.8876	0.156
Mof_H 	H 	0.0006	0.8148	0.7082	0.155
Mof_H 	H 	0.0162	0.8608	0.7192	0.166
Mof_H 	H 	0.0598	0.8729	0.7285	0.168
Mof_H 	H 	0.1136	0.9443	0.6137	0.17
Mof_H 	H 	0.1605	0.9894	0.6443	0.184
Mof_H 	H 	0.1161	0.9761	0.6338	0.179
Mof_H 	H 	0.0955	0.8965	0.5518	0.174
Mof_H 	H 	0.0814	0.8798	0.5162	0.188
Mof_H 	H 	0.133	0.9083	0.5365	0.187
Mof_H 	H 	0.9744	0.6771	0.5285	0.169
Mof_H 	H 	0.0251	0.7118	0.5163	0.181
Mof_H 	H 	0.9728	0.6813	0.4949	0.18
Mof_H 	H 	0.1189	0.04	0.6875	0.204
Mof_H 	H 	0.0649	0.9763	0.6816	0.221
Mof_H 	H 	0.1046	0.0027	0.6613	0.207
Mof_H 	H 	0.2039	0.0092	0.7619	0.175
Mof_H 	H 	0.187	0.979	0.729	0.185
Mof_H 	H 	0.1431	0.9478	0.7469	0.187
Mof_H 	H 	0.6744	0.8165	0.1095	0.16
Mof_H 	H 	0.6633	0.7824	0.0827	0.165
Mof_H 	H 	0.6207	0.7524	0.1015	0.178
Mof_H 	H 	0.7582	0.7798	0.1802	0.181
Mof_H 	H 	0.6968	0.7193	0.1653	0.191
Mof_H 	H 	0.7398	0.7496	0.1468	0.192
Mof_H 	H 	0.8533	0.8626	0.2311	0.163
Mof_H 	H 	0.9104	0.8966	0.2322	0.171
Mof_H 	H 	0.8925	0.8873	0.2622	0.177
Mof_H 	H 	0.0035	0.0985	0.2664	0.147
Mof_H 	H 	0.0273	0.1008	0.2949	0.155
Mof_H 	H 	0.0475	0.1112	0.2657	0.156
Mof_H 	H 	0.6552	0.9601	0.1797	0.206
Mof_H 	H 	0.6346	0.9107	0.1681	0.191
Mof_H 	H 	0.627	0.9284	0.145	0.185
Mof_H 	H 	0.4307	0.7971	0.1912	0.17
Mof_H 	H 	0.4784	0.8404	0.2216	0.183
Mof_H 	H 	0.4715	0.858	0.1977	0.185
Mof_H 	H 	0.3207	0.8738	0.4891	0.157
Mof_H 	H 	0.2971	0.8853	0.483	0.165
Mof_H 	H 	0.2686	0.834	0.462	0.169
Mof_H 	H 	0.4248	0.9852	0.3884	0.175
Mof_H 	H 	0.3625	0.9369	0.3724	0.19
Mof_H 	H 	0.397	0.9919	0.3929	0.192
Mof_H 	H 	0.5333	0.048	0.3937	0.177
Mof_H 	H 	0.5896	0.0912	0.3862	0.189
Mof_H 	H 	0.5383	0.0298	0.3669	0.19
Mof_H 	H 	0.6147	0.0099	0.4632	0.161
Mof_H 	H 	0.6164	0.999	0.4306	0.172
Mof_H 	H 	0.6656	0.0591	0.4517	0.169
Mof_H 	H 	0.4393	0.4279	0.3914	0.163
Mof_H 	H 	0.424	0.3819	0.3819	0.172
Mof_H 	H 	0.3789	0.3681	0.3736	0.171
Mof_H 	H 	0.3531	0.327	0.4977	0.162
Mof_H 	H 	0.3007	0.2769	0.4702	0.168
Mof_H 	H 	0.3451	0.2899	0.4786	0.178
Mof_N 	N 	0.94626	0.98077	0.54503	-0.212
Mof_N 	N 	0.92502	0.98644	0.52826	-0.206
Mof_N 	N 	0.00327	0.07897	0.46704	-0.208
Mof_N 	N 	0.05021	0.10601	0.46382	-0.207
Mof_N 	N 	0.12514	0.10926	0.5248	-0.208
Mof_N 	N 	0.09454	0.07369	0.54263	-0.218
Mof_N 	N 	0.16543	0.62	0.78403	-0.206
Mof_N 	N 	0.1295	0.5675	0.7732	-0.205
Mof_N 	N 	0.1644	0.51638	0.80658	-0.213
Mof_N 	N 	0.2125	0.5512	0.8283	-0.21
Mof_N 	N 	0.32683	0.71462	0.85745	-0.209
Mof_N 	N 	0.316	0.7323	0.8441	-0.215
Mof_N 	N 	0.07304	0.35624	0.86788	-0.216
Mof_N 	N 	0.0653	0.3341	0.8396	-0.212
Mof_N 	N 	0.97219	0.18074	0.81473	-0.22
Mof_N 	N 	0.94735	0.14782	0.83377	-0.217
Mof_N 	N 	0.96364	0.20572	0.91856	-0.21
Mof_N 	N 	0.9973	0.25778	0.92548	-0.214
Mof_N 	N 	0.8603	0.00081	0.71951	-0.205
Mof_N 	N 	0.8143	0.97556	0.72346	-0.203
Mof_N 	N 	0.66364	0.84268	0.66052	-0.201
Mof_N 	N 	0.65772	0.82518	0.6323	-0.205
Mof_N 	N 	0.79414	0.9033	0.61224	-0.205
Mof_N 	N 	0.8427	0.9454	0.6331	-0.21
Mof_N 	N 	0.44716	0.70727	0.60003	-0.203
Mof_N 	N 	0.47917	0.75921	0.60998	-0.218
Mof_N 	N 	0.41481	0.78198	0.57459	-0.216
Mof_N 	N 	0.36678	0.74115	0.55193	-0.204
Mof_N 	N 	0.27364	0.58595	0.52659	-0.213
Mof_N 	N 	0.29338	0.5797	0.54208	-0.214
Mof_N 	N 	0.80983	0.15465	0.09588	-0.22
Mof_N 	N 	0.83038	0.18312	0.0733	-0.219
Mof_N 	N 	0.93664	0.22501	0.03685	-0.21
Mof_N 	N 	0.95388	0.21214	0.04462	-0.202
Mof_N 	N 	0.91541	0.15233	0.11914	-0.203
Mof_N 	N 	0.87997	0.1381	0.13147	-0.206
Mof_N 	N 	0.31889	0.11051	0.624	-0.213
Mof_N 	N 	0.36521	0.14696	0.64837	-0.209
Mof_N 	N 	0.27412	0.96043	0.66155	-0.227
Mof_N 	N 	0.27658	0.95241	0.63239	-0.216
Mof_N 	N 	0.30831	0.20851	0.60762	-0.2
Mof_N 	N 	0.27837	0.15829	0.59746	-0.205
Mof_N 	N 	0.86844	0.52726	0.6895	-0.209
Mof_N 	N 	0.91457	0.5524	0.68457	-0.209
Mof_N 	N 	0.97933	0.5361	0.73123	-0.218
Mof_N 	N 	0.9574	0.5084	0.7538	-0.217
Mof_N 	N 	0.9452	0.6723	0.6161	-0.223
Mof_N 	N 	0.9474	0.6916	0.6432	-0.224
Mof_N 	N 	0.07853	0.22866	0.39779	-0.207
Mof_N 	N 	0.07913	0.24512	0.42545	-0.223
Mof_N 	N 	0.15376	0.3888	0.44456	-0.208
Mof_N 	N 	0.1775	0.42091	0.42501	-0.198
Mof_N 	N 	0.87487	0.0276	0.19287	-0.218
Mof_N 	N 	0.82207	0.9838	0.17307	-0.213
Mof_N 	N 	0.4281	0.8868	0.9585	-0.208
Mof_N 	N 	0.4743	0.9104	0.9563	-0.21
Mof_N 	N 	0.6177	0.049	0.0243	-0.215
Mof_N 	N 	0.6176	0.065	0.051	-0.208
Mof_N 	N 	0.4845	0.9269	0.509	-0.213
Mof_N 	N 	0.439	0.9059	0.5115	-0.222
Mof_C 	C 	0.9373	0.9509	0.5904	-0.628
Mof_C 	C 	0.9231	0.9626	0.5689	0.198
Mof_C 	C 	0.88743	0.9556	0.56623	-0.16
Mof_C 	C 	0.8899	0.97139	0.54209	0.22
Mof_C 	C 	0.8606	0.9733	0.5289	-0.653
Mof_C 	C 	0.9529	0.0835	0.455	-0.632
Mof_C 	C 	0.9989	0.1018	0.4555	0.193
Mof_C 	C 	0.0434	0.1429	0.4429	-0.128
Mof_C 	C 	0.0739	0.1436	0.4489	0.19
Mof_C 	C 	0.1274	0.1808	0.4424	-0.61
Mof_C 	C 	0.2163	0.1822	0.5175	-0.692
Mof_C 	C 	0.1768	0.1418	0.5344	0.239
Mof_C 	C 	0.1806	0.1295	0.5587	-0.174
Mof_C 	C 	0.1289	0.0864	0.5639	0.216
Mof_C 	C 	0.1107	0.0591	0.5884	-0.667
Mof_C 	C 	0.1636	0.673	0.7894	-0.621
Mof_C 	C 	0.138	0.622	0.78	0.198
Mof_C 	C 	0.0814	0.5686	0.7656	-0.123
Mof_C 	C 	0.0794	0.5369	0.7621	0.175
Mof_C 	C 	0.0308	0.4756	0.7482	-0.572
Mof_C 	C 	0.0715	0.4198	0.7855	-0.651
Mof_C 	C 	0.1257	0.4646	0.8081	0.213
Mof_C 	C 	0.1471	0.4643	0.831	-0.135
Mof_C 	C 	0.2015	0.5196	0.8427	0.181
Mof_C 	C 	0.2454	0.5441	0.8689	-0.599
Mof_C 	C 	0.3801	0.7404	0.9051	-0.613
Mof_C 	C 	0.361	0.7498	0.8852	0.194
Mof_C 	C 	0.3729	0.7886	0.8909	-0.135
Mof_C 	C 	0.3428	0.7746	0.8638	0.182
Mof_C 	C 	0.3392	0.8037	0.8547	-0.571
Mof_C 	C 	0.1189	0.4396	0.8951	-0.643
Mof_C 	C 	0.1047	0.406	0.8679	0.215
Mof_C 	C 	0.1167	0.4161	0.8402	-0.153
Mof_C 	C 	0.091	0.3703	0.8231	0.207
Mof_C 	C 	0.0885	0.3563	0.791	-0.631
Mof_C 	C 	0.9747	0.1747	0.7612	-0.655
Mof_C 	C 	0.9561	0.1515	0.7878	0.217
Mof_C 	C 	0.919	0.0988	0.7882	-0.16
Mof_C 	C 	0.9165	0.0991	0.8184	0.216
Mof_C 	C 	0.8834	0.0544	0.8334	-0.657
Mof_C 	C 	0.9036	0.1258	0.938	-0.59
Mof_C 	C 	0.9455	0.1849	0.942	0.185
Mof_C 	C 	0.9682	0.2252	0.9664	-0.143
Mof_C 	C 	0.0014	0.27027	0.95507	0.218
Mof_C 	C 	0.037	0.3257	0.9701	-0.666
Mof_C 	C 	0.96	0.0842	0.7434	-0.592
Mof_C 	C 	0.9044	0.048	0.7426	0.182
Mof_C 	C 	0.8872	0.0533	0.7625	-0.118
Mof_C 	C 	0.8301	0.0065	0.7492	0.182
Mof_C 	C 	0.7891	0.9904	0.7611	-0.581
Mof_C 	C 	0.6177	0.84	0.6889	-0.578
Mof_C 	C 	0.6204	0.8248	0.6598	0.174
Mof_C 	C 	0.587	0.7953	0.6305	-0.121
Mof_C 	C 	0.6111	0.795	0.6141	0.178
Mof_C 	C 	0.5908	0.768	0.5802	-0.577
Mof_C 	C 	0.756	0.8564	0.558	-0.677
Mof_C 	C 	0.8028	0.8998	0.585	0.217
Mof_C 	C 	0.8601	0.9424	0.5899	-0.144
Mof_C 	C 	0.88266	0.9692	0.62026	0.194
Mof_C 	C 	0.9412	0.0183	0.6387	-0.644
Mof_C 	C 	0.4608	0.6641	0.5999	-0.585
Mof_C 	C 	0.4817	0.7132	0.6071	0.183
Mof_C 	C 	0.5372	0.7712	0.62	-0.146
Mof_C 	C 	0.5318	0.7959	0.6211	0.222
Mof_C 	C 	0.5744	0.8548	0.6314	-0.667
Mof_C 	C 	0.5002	0.8819	0.5927	-0.658
Mof_C 	C 	0.445	0.8292	0.5714	0.217
Mof_C 	C 	0.4156	0.8199	0.5469	-0.159
Mof_C 	C 	0.3683	0.7655	0.536	0.213
Mof_C 	C 	0.3187	0.7297	0.5098	-0.638
Mof_C 	C 	0.2116	0.5461	0.4781	-0.689
Mof_C 	C 	0.23902	0.54828	0.4997	0.238
Mof_C 	C 	0.236	0.5159	0.4967	-0.165
Mof_C 	C 	0.2714	0.5373	0.5253	0.218
Mof_C 	C 	0.2859	0.5197	0.534	-0.645
Mof_C 	C 	0.7283	0.0908	0.1155	-0.604
Mof_C 	C 	0.7607	0.1256	0.0941	0.195
Mof_C 	C 	0.7495	0.1345	0.0712	-0.155
Mof_C 	C 	0.7925	0.1695	0.0586	0.22
Mof_C 	C 	0.8043	0.1947	0.0336	-0.635
Mof_C 	C 	0.9222	0.2438	0.9946	-0.628
Mof_C 	C 	0.9404	0.2315	0.0091	0.204
Mof_C 	C 	0.9576	0.2202	0.996	-0.131
Mof_C 	C 	0.9658	0.20811	0.01931	0.18
Mof_C 	C 	0.9835	0.1918	0.0197	-0.592
Mof_C 	C 	0.9549	0.1354	0.1213	-0.605
Mof_C 	C 	0.9193	0.1287	0.13	0.182
Mof_C 	C 	0.8845	0.0976	0.1495	-0.122
Mof_C 	C 	0.8605	0.1053	0.1488	0.193
Mof_C 	C 	0.82	0.0831	0.1647	-0.626
Mof_C 	C 	0.2394	0.0146	0.5916	-0.579
Mof_C 	C 	0.2921	0.06199	0.61749	0.166
Mof_C 	C 	0.319	0.0646	0.6376	-0.113
Mof_C 	C 	0.3652	0.1187	0.6557	0.171
Mof_C 	C 	0.4118	0.1484	0.682	-0.579
Mof_C 	C 	0.287	0.0173	0.6939	-0.766
Mof_C 	C 	0.28793	0.00064	0.66677	0.277
Mof_C 	C 	0.3016	0.0202	0.6414	-0.19
Mof_C 	C 	0.2938	0.9892	0.621	0.227
Mof_C 	C 	0.3007	0.9904	0.5893	-0.652
Mof_C 	C 	0.3013	0.2557	0.6018	-0.6
Mof_C 	C 	0.2789	0.2062	0.5947	0.185
Mof_C 	C 	0.22698	0.152	0.57638	-0.113
Mof_C 	C 	0.23057	0.12516	0.57893	0.167
Mof_C 	C 	0.1873	0.0658	0.5629	-0.56
Mof_C 	C 	0.8167	0.5294	0.6759	-0.603
Mof_C 	C 	0.8625	0.5472	0.6755	0.19
Mof_C 	C 	0.9056	0.5869	0.6631	-0.127
Mof_C 	C 	0.9379	0.5887	0.669	0.216
Mof_C 	C 	0.9884	0.6226	0.6618	-0.64
Mof_C 	C 	0.0611	0.596	0.7129	-0.653
Mof_C 	C 	0.0268	0.5621	0.7337	0.219
Mof_C 	C 	0.03595	0.5509	0.75625	-0.161
Mof_C 	C 	0.9924	0.5186	0.7688	0.218
Mof_C 	C 	0.9801	0.4957	0.795	-0.635
Mof_C 	C 	0.921	0.6025	0.5953	-0.732
Mof_C 	C 	0.929	0.6315	0.6205	0.258
Mof_C 	C 	0.9196	0.6233	0.6487	-0.179
Mof_C 	C 	0.9325	0.6624	0.6621	0.217
Mof_C 	C 	0.9321	0.6752	0.6927	-0.647
Mof_C 	C 	0.0563	0.1589	0.3746	-0.589
Mof_C 	C 	0.0634	0.1881	0.4013	0.188
Mof_C 	C 	0.0559	0.18	0.4303	-0.15
Mof_C 	C 	0.0686	0.2183	0.4447	0.223
Mof_C 	C 	0.0677	0.2292	0.4753	-0.668
Mof_C 	C 	0.1479	0.3908	0.4977	-0.611
Mof_C 	C 	0.168	0.4161	0.4719	0.184
Mof_C 	C 	0.2065	0.4699	0.4718	-0.112
Mof_C 	C 	0.2106	0.4712	0.4414	0.162
Mof_C 	C 	0.2435	0.5165	0.4258	-0.559
Mof_C 	C 	0.9619	0.1273	0.2024	-0.687
Mof_C 	C 	0.90366	0.07381	0.18647	0.231
Mof_C 	C 	0.8706	0.0616	0.164	-0.158
Mof_C 	C 	0.819	0.0041	0.1563	0.208
Mof_C 	C 	0.7677	0.968	0.1333	-0.639
Mof_C 	C 	0.3294	0.803	0.9316	-0.583
Mof_C 	C 	0.3867	0.8393	0.9338	0.173
Mof_C 	C 	0.4048	0.8328	0.917	-0.134
Mof_C 	C 	0.4604	0.8779	0.9329	0.205
Mof_C 	C 	0.5014	0.8917	0.9251	-0.65
Mof_C 	C 	0.67	0.0569	0.0029	-0.667
Mof_C 	C 	0.6633	0.0712	0.0281	0.224
Mof_C 	C 	0.6962	0.1037	0.0577	-0.143
Mof_C 	C 	0.6668	0.0996	0.0712	0.184
Mof_C 	C 	0.6808	0.1265	0.1029	-0.6
Mof_C 	C 	0.5226	0.9113	0.5215	-0.602
Mof_C 	C 	0.4805	0.8985	0.522	0.195
Mof_C 	C 	0.4351	0.861	0.5343	-0.131
Mof_C 	C 	0.4129	0.8691	0.5268	0.182
Mof_C 	C 	0.3616	0.83925	0.53365	-0.595
Mof_Ag	Ag	0.01735	0.02267	0.54028	0.31
Mof_Ag	Ag	0.96165	0.02843	0.4954	0.38
Mof_Ag	Ag	0.08504	0.10268	0.49148	0.37
Mof_Ag	Ag	0.24289	0.67612	0.81067	0.375
Mof_Ag	Ag	0.15287	0.54615	0.78722	0.33
Mof_Ag	Ag	0.27391	0.63459	0.84032	0.378
Mof_Ag	Ag	0.03705	0.30772	0.89709	0.353
Mof_Ag	Ag	0.02105	0.25836	0.82849	0.366
Mof_Ag	Ag	0.95569	0.17589	0.87634	0.339
Mof_Ag	Ag	0.85131	0.97152	0.67709	0.307
Mof_Ag	Ag	0.73941	0.90618	0.69269	0.384
Mof_Ag	Ag	0.72412	0.85994	0.62236	0.367
Mof_Ag	Ag	0.36813	0.64326	0.57485	0.366
Mof_Ag	Ag	0.44355	0.76797	0.5946	0.303
Mof_Ag	Ag	0.31641	0.66187	0.5422	0.389
Mof_Ag	Ag	0.84832	0.15112	0.11536	0.333
Mof_Ag	Ag	0.88936	0.20963	0.05937	0.341
Mof_Ag	Ag	0.93966	0.18664	0.08336	0.415
Mof_Ag	Ag	0.30123	0.13687	0.61082	0.328
Mof_Ag	Ag	0.41173	0.22212	0.66649	0.339
Mof_Ag	Ag	0.38304	0.26728	0.64006	0.416
Mof_Ag	Ag	0.83427	0.48391	0.72098	0.32
Mof_Ag	Ag	0.9424	0.53871	0.70673	0.402
Mof_Ag	Ag	0.89241	0.47584	0.76299	0.353
Mof_Ag	Ag	0.10763	0.27167	0.36654	0.351
Mof_Ag	Ag	0.11204	0.3145	0.43272	0.32
Mof_Ag	Ag	0.17651	0.39667	0.38482	0.417
Mof_Ag	Ag	0.42938	0.91623	0.99443	0.34
Mof_Ag	Ag	0.54551	0.9816	0.98931	0.397
Mof_Ag	Ag	0.52915	0.97504	0.48021	0.36
Mof_H 	H 	0.9644	0.9612	0.5852	0.17
Mof_H 	H 	0.9515	0.9716	0.6109	0.178
Mof_H 	H 	0.9052	0.9126	0.589	0.175
Mof_H 	H 	0.8376	0.9614	0.5412	0.194
Mof_H 	H 	0.8869	0.0101	0.5286	0.176
Mof_H 	H 	0.8386	0.9495	0.5085	0.184
Mof_H 	H 	0.9286	0.0549	0.4649	0.168
Mof_H 	H 	0.967	0.1137	0.4655	0.178
Mof_H 	H 	0.9335	0.0699	0.4342	0.178
Mof_H 	H 	0.1385	0.1711	0.449	0.162
Mof_H 	H 	0.1231	0.177	0.4209	0.173
Mof_H 	H 	0.1548	0.218	0.4532	0.175
Mof_H 	H 	0.251	0.2027	0.5265	0.204
Mof_H 	H 	0.2029	0.1635	0.4966	0.203
Mof_H 	H 	0.2206	0.2067	0.5185	0.191
Mof_H 	H 	0.0723	0.0305	0.5852	0.179
Mof_H 	H 	0.1171	0.0438	0.5881	0.193
Mof_H 	H 	0.1307	0.0852	0.6077	0.195
Mof_H 	H 	0.2022	0.7035	0.7987	0.169
Mof_H 	H 	0.158	0.6793	0.7719	0.182
Mof_H 	H 	0.1472	0.6694	0.8038	0.177
Mof_H 	H 	0.0428	0.4657	0.7493	0.153
Mof_H 	H 	0.0038	0.4563	0.7591	0.164
Mof_H 	H 	0.015	0.4659	0.7271	0.163
Mof_H 	H 	0.0707	0.4349	0.7728	0.18
Mof_H 	H 	0.0648	0.396	0.773	0.192
Mof_H 	H 	0.0437	0.3994	0.7959	0.188
Mof_H 	H 	0.2791	0.5829	0.872	0.163
Mof_H 	H 	0.2338	0.5366	0.8872	0.169
Mof_H 	H 	0.2505	0.5281	0.8638	0.176
Mof_H 	H 	0.4046	0.7682	0.9242	0.18
Mof_H 	H 	0.3491	0.7051	0.9086	0.166
Mof_H 	H 	0.3988	0.7421	0.8949	0.173
Mof_H 	H 	0.3152	0.7842	0.8344	0.151
Mof_H 	H 	0.3253	0.8043	0.8688	0.16
Mof_H 	H 	0.3751	0.8405	0.8552	0.164
Mof_H 	H 	0.1038	0.4205	0.9105	0.174
Mof_H 	H 	0.1041	0.4459	0.8894	0.187
Mof_H 	H 	0.158	0.474	0.903	0.183
Mof_H 	H 	0.0665	0.3203	0.7858	0.169
Mof_H 	H 	0.1247	0.3824	0.7897	0.185
Mof_H 	H 	0.0726	0.3573	0.7771	0.178
Mof_H 	H 	0.0011	0.2125	0.7676	0.176
Mof_H 	H 	0.9439	0.1549	0.7456	0.189
Mof_H 	H 	0.991	0.1716	0.7534	0.189
Mof_H 	H 	0.8917	0.0683	0.8546	0.181
Mof_H 	H 	0.8919	0.0412	0.8315	0.195
Mof_H 	H 	0.8452	0.0252	0.8238	0.19
Mof_H 	H 	0.8983	0.1107	0.9184	0.157
Mof_H 	H 	0.8696	0.1057	0.9395	0.171
Mof_H 	H 	0.9162	0.1232	0.9538	0.166
Mof_H 	H 	0.0544	0.3475	0.9561	0.184
Mof_H 	H 	0.0643	0.3427	0.9876	0.203
Mof_H 	H 	0.0152	0.3225	0.9765	0.188
Mof_H 	H 	0.9579	0.0685	0.7262	0.156
Mof_H 	H 	0.9754	0.088	0.762	0.166
Mof_H 	H 	0.9827	0.1196	0.7425	0.165
Mof_H 	H 	0.753	0.9565	0.7477	0.156
Mof_H 	H 	0.7982	0.0184	0.762	0.167
Mof_H 	H 	0.7903	0.9863	0.7812	0.17
Mof_H 	H 	0.5855	0.825	0.6847	0.165
Mof_H 	H 	0.6496	0.8791	0.6965	0.153
Mof_H 	H 	0.616	0.8255	0.7039	0.159
Mof_H 	H 	0.6157	0.7747	0.575	0.151
Mof_H 	H 	0.589	0.7831	0.5685	0.167
Mof_H 	H 	0.5552	0.7293	0.5759	0.165
Mof_H 	H 	0.7234	0.8355	0.5631	0.185
Mof_H 	H 	0.7522	0.8328	0.5508	0.201
Mof_H 	H 	0.7617	0.8723	0.5424	0.197
Mof_H 	H 	0.9634	0.0294	0.626	0.19
Mof_H 	H 	0.945	0.0094	0.6552	0.18
Mof_H 	H 	0.9526	0.0476	0.6466	0.176
Mof_H 	H 	0.4217	0.6312	0.5915	0.159
Mof_H 	H 	0.4772	0.6681	0.5853	0.166
Mof_H 	H 	0.4702	0.662	0.6182	0.176
Mof_H 	H 	0.5576	0.8596	0.6294	0.18
Mof_H 	H 	0.5938	0.8694	0.6524	0.192
Mof_H 	H 	0.5996	0.8739	0.6193	0.194
Mof_H 	H 	0.5092	0.8748	0.607	0.177
Mof_H 	H 	0.5269	0.9041	0.5814	0.187
Mof_H 	H 	0.5003	0.9008	0.6035	0.192
Mof_H 	H 	0.3252	0.7524	0.5008	0.189
Mof_H 	H 	0.3122	0.7078	0.4948	0.173
Mof_H 	H 	0.2873	0.7063	0.5174	0.179
Mof_H 	H 	0.2219	0.5743	0.4868	0.186
Mof_H 	H 	0.2222	0.5515	0.4595	0.194
Mof_H 	H 	0.1727	0.511	0.4737	0.201
Mof_H 	H 	0.3102	0.5409	0.5543	0.17
Mof_H 	H 	0.2533	0.4816	0.5333	0.183
Mof_H 	H 	0.3038	0.5249	0.5201	0.184
Mof_H 	H 	0.7485	0.0939	0.129	0.163
Mof_H 	H 	0.7224	0.1033	0.1273	0.173
Mof_H 	H 	0.6937	0.0533	0.104	0.174
Mof_H 	H 	0.8388	0.2173	0.0309	0.177
Mof_H 	H 	0.7759	0.1665	0.015	0.178
Mof_H 	H 	0.8059	0.2169	0.039	0.188
Mof_H 	H 	0.9122	0.2492	0.009	0.165
Mof_H 	H 	0.9516	0.2765	0.9883	0.177
Mof_H 	H 	0.8913	0.2138	0.9771	0.18
Mof_H 	H 	0.9847	0.1858	0.0391	0.155
Mof_H 	H 	0.9581	0.1588	0.0037	0.167
Mof_H 	H 	0.0193	0.2205	0.0166	0.167
Mof_H 	H 	0.9737	0.1587	0.108	0.159
Mof_H 	H 	0.9812	0.1517	0.1393	0.175
Mof_H 	H 	0.9329	0.1003	0.111	0.173
Mof_H 	H 	0.812	0.0962	0.1602	0.169
Mof_H 	H 	0.7871	0.0438	0.1579	0.176
Mof_H 	H 	0.835	0.0949	0.1863	0.181
Mof_H 	H 	0.2319	0.0263	0.582	0.156
Mof_H 	H 	0.2098	0.985	0.5996	0.164
Mof_H 	H 	0.2433	0.0024	0.5769	0.168
Mof_H 	H 	0.4371	0.1857	0.6898	0.157
Mof_H 	H 	0.4304	0.1478	0.675	0.175
Mof_H 	H 	0.3972	0.1305	0.6979	0.16
Mof_H 	H 	0.2764	0.9964	0.7076	0.204
Mof_H 	H 	0.2613	0.0112	0.6889	0.225
Mof_H 	H 	0.3229	0.0555	0.7036	0.22
Mof_H 	H 	0.2912	0.9627	0.5813	0.177
Mof_H 	H 	0.338	0.0257	0.5901	0.181
Mof_H 	H 	0.2771	0.9837	0.5764	0.187
Mof_H 	H 	0.3381	0.2862	0.6149	0.16
Mof_H 	H 	0.279	0.2486	0.612	0.174
Mof_H 	H 	0.3013	0.2639	0.5832	0.176
Mof_H 	H 	0.2006	0.0579	0.5685	0.141
Mof_H 	H 	0.1798	0.06	0.5412	0.153
Mof_H 	H 	0.1545	0.0421	0.5688	0.156
Mof_H 	H 	0.7924	0.5006	0.6858	0.156
Mof_H 	H 	0.797	0.5162	0.6554	0.166
Mof_H 	H 	0.8313	0.5598	0.6869	0.168
Mof_H 	H 	0.9999	0.6136	0.6693	0.169
Mof_H 	H 	0.0162	0.6605	0.6711	0.183
Mof_H 	H 	0.9823	0.6161	0.64	0.179
Mof_H 	H 	0.0437	0.5955	0.699	0.174
Mof_H 	H 	0.0652	0.5814	0.7016	0.188
Mof_H 	H 	0.0965	0.633	0.7247	0.187
Mof_H 	H 	0.9459	0.4744	0.7973	0.17
Mof_H 	H 	0.0088	0.5251	0.8133	0.182
Mof_H 	H 	0.9779	0.4728	0.7915	0.181
Mof_H 	H 	0.9314	0.6189	0.5789	0.204
Mof_H 	H 	0.8833	0.5649	0.5886	0.222
Mof_H 	H 	0.9433	0.6046	0.6019	0.207
Mof_H 	H 	0.942	0.7039	0.6947	0.175
Mof_H 	H 	0.958	0.687	0.708	0.185
Mof_H 	H 	0.8962	0.6431	0.6953	0.187
Mof_H 	H 	0.0649	0.1744	0.3579	0.161
Mof_H 	H 	0.0806	0.1633	0.3809	0.165
Mof_H 	H 	0.0192	0.1207	0.3683	0.178
Mof_H 	H 	0.078	0.2582	0.4784	0.182
Mof_H 	H 	0.0315	0.1968	0.4775	0.192
Mof_H 	H 	0.093	0.2398	0.4902	0.193
Mof_H 	H 	0.1222	0.3533	0.4907	0.163
Mof_H 	H 	0.1782	0.4104	0.5138	0.171
Mof_H 	H 	0.1303	0.3925	0.5052	0.177
Mof_H 	H 	0.2371	0.5035	0.405	0.149
Mof_H 	H 	0.2324	0.5273	0.4265	0.156
Mof_H 	H 	0.2818	0.5475	0.4363	0.157
Mof_H 	H 	0.9755	0.1552	0.1951	0.205
Mof_H 	H 	0.9665	0.1346	0.2239	0.191
Mof_H 	H 	0.982	0.127	0.1986	0.185
Mof_H 	H 	0.7395	0.9307	0.1336	0.169
Mof_H 	H 	0.7568	0.9784	0.138	0.182
Mof_H 	H 	0.7738	0.9715	0.1135	0.184
Mof_H 	H 	0.3316	0.8207	0.9469	0.156
Mof_H 	H 	0.3141	0.7971	0.9118	0.165
Mof_H 	H 	0.3066	0.7686	0.9346	0.169
Mof_H 	H 	0.5364	0.9248	0.9396	0.175
Mof_H 	H 	0.4901	0.8625	0.9256	0.19
Mof_H 	H 	0.5041	0.897	0.9051	0.192
Mof_H 	H 	0.6396	0.0333	0.9853	0.177
Mof_H 	H 	0.7034	0.0896	0.9984	0.189
Mof_H 	H 	0.6714	0.0383	0.0085	0.19
Mof_H 	H 	0.6515	0.1147	0.1048	0.16
Mof_H 	H 	0.6858	0.1164	0.1174	0.17
Mof_H 	H 	0.7139	0.1656	0.1065	0.168
Mof_H 	H 	0.5479	0.9393	0.5114	0.164
Mof_H 	H 	0.5421	0.924	0.5421	0.173
Mof_H 	H 	0.5053	0.8789	0.5108	0.171
Mof_H 	H 	0.3554	0.8531	0.5261	0.162
Mof_H 	H 	0.3305	0.8007	0.5238	0.168
Mof_H 	H 	0.3665	0.8451	0.5552	0.178
Mof_N 	N 	0.93574	0.40123	0.95497	-0.212
Mof_N 	N 	0.95818	0.39676	0.97174	-0.207
Mof_N 	N 	0.11193	0.53623	0.03296	-0.209
Mof_N 	N 	0.14219	0.58639	0.03618	-0.207
Mof_N 	N 	0.08446	0.60034	0.9752	-0.208
Mof_N 	N 	0.03106	0.55191	0.95737	-0.218
Mof_N 	N 	0.33597	0.3814	0.71597	-0.206
Mof_N 	N 	0.2943	0.3563	0.7268	-0.205
Mof_N 	N 	0.2098	0.35782	0.69342	-0.213
Mof_N 	N 	0.2229	0.3842	0.6717	-0.21
Mof_N 	N 	0.35717	0.46938	0.64255	-0.209
Mof_N 	N 	0.3882	0.4719	0.6559	-0.215
Mof_N 	N 	0.98836	0.20516	0.63212	-0.216
Mof_N 	N 	0.9945	0.2257	0.6604	-0.213
Mof_N 	N 	0.86601	0.15746	0.68527	-0.22
Mof_N 	N 	0.81405	0.11358	0.66623	-0.216
Mof_N 	N 	0.78716	0.04508	0.58144	-0.21
Mof_N 	N 	0.8323	0.07182	0.57452	-0.213
Mof_N 	N 	0.7813	0.14079	0.78049	-0.204
Mof_N 	N 	0.7521	0.09084	0.77654	-0.204
Mof_N 	N 	0.68216	0.00312	0.83948	-0.202
Mof_N 	N 	0.69288	0.02542	0.8677	-0.206
Mof_N 	N 	0.79106	0.1819	0.88776	-0.205
Mof_N 	N 	0.8123	0.2096	0.8669	-0.21
Mof_N 	N 	0.60724	0.84713	0.89997	-0.203
Mof_N 	N 	0.64923	0.86919	0.89002	-0.218
Mof_N 	N 	0.70739	0.84022	0.92541	-0.216
Mof_N 	N 	0.68922	0.81485	0.94807	-0.204
Mof_N 	N 	0.55936	0.74705	0.97341	-0.213
Mof_N 	N 	0.53762	0.7513	0.95792	-0.214
Mof_N 	N 	0.55877	0.71395	0.40412	-0.22
Mof_N 	N 	0.60982	0.75708	0.4267	-0.219
Mof_N 	N 	0.68816	0.89979	0.46315	-0.21
Mof_N 	N 	0.66752	0.90926	0.45538	-0.202
Mof_N 	N 	0.53319	0.79627	0.38086	-0.203
Mof_N 	N 	0.50663	0.7485	0.36853	-0.206
Mof_N 	N 	0.98651	0.69489	0.876	-0.213
Mof_N 	N 	0.99859	0.71684	0.85163	-0.209
Mof_N 	N 	0.79888	0.61257	0.83845	-0.227
Mof_N 	N 	0.82002	0.64419	0.86761	-0.216
Mof_N 	N 	0.10089	0.70069	0.89238	-0.2
Mof_N 	N 	0.06083	0.68091	0.90254	-0.205
Mof_N 	N 	0.33776	0.17894	0.8105	-0.209
Mof_N 	N 	0.36783	0.23	0.81543	-0.209
Mof_N 	N 	0.30487	0.2481	0.76877	-0.218
Mof_N 	N 	0.2546	0.2036	0.7462	-0.217
Mof_N 	N 	0.5562	0.3291	0.8839	-0.223
Mof_N 	N 	0.5484	0.3042	0.8568	-0.224
Mof_N 	N 	0.33087	0.68074	0.10221	-0.207
Mof_N 	N 	0.31967	0.65368	0.07455	-0.223
Mof_N 	N 	0.44424	0.7092	0.05544	-0.208
Mof_N 	N 	0.4959	0.75249	0.07499	-0.198
Mof_N 	N 	0.33473	0.682	0.30713	-0.218
Mof_N 	N 	0.31073	0.649	0.32693	-0.214
Mof_N 	N 	0.4283	0.4696	0.5415	-0.208
Mof_N 	N 	0.4541	0.518	0.5437	-0.21
Mof_N 	N 	0.5247	0.5934	0.4757	-0.214
Mof_N 	N 	0.514	0.5666	0.449	-0.208
Mof_N 	N 	0.9179	0.9755	0.991	-0.213
Mof_N 	N 	0.8944	0.9275	0.9885	-0.222
Mof_C 	C 	0.8605	0.3469	0.9096	-0.628
Mof_C 	C 	0.8937	0.3542	0.9311	0.198
Mof_C 	C 	0.88937	0.3212	0.93377	-0.162
Mof_C 	C 	0.9293	0.34781	0.95791	0.222
Mof_C 	C 	0.9444	0.3317	0.9711	-0.66
Mof_C 	C 	0.1285	0.4979	0.045	-0.635
Mof_C 	C 	0.1463	0.5434	0.0445	0.195
Mof_C 	C 	0.2	0.6005	0.0571	-0.13
Mof_C 	C 	0.1947	0.625	0.0511	0.19
Mof_C 	C 	0.2384	0.685	0.0576	-0.61
Mof_C 	C 	0.1647	0.6988	0.9825	-0.692
Mof_C 	C 	0.1074	0.6424	0.9656	0.239
Mof_C 	C 	0.0708	0.6219	0.9413	-0.173
Mof_C 	C 	0.0225	0.565	0.9361	0.215
Mof_C 	C 	0.9707	0.5223	0.9116	-0.666
Mof_C 	C 	0.3836	0.3742	0.7106	-0.621
Mof_C 	C 	0.342	0.358	0.72	0.198
Mof_C 	C 	0.303	0.3158	0.7344	-0.123
Mof_C 	C 	0.2748	0.3173	0.7379	0.175
Mof_C 	C 	0.2274	0.2826	0.7518	-0.572
Mof_C 	C 	0.1343	0.286	0.7145	-0.651
Mof_C 	C 	0.1565	0.3176	0.6919	0.213
Mof_C 	C 	0.1333	0.3161	0.669	-0.135
Mof_C 	C 	0.1769	0.3588	0.6573	0.181
Mof_C 	C 	0.1752	0.3765	0.6311	-0.598
Mof_C 	C 	0.3353	0.475	0.5949	-0.613
Mof_C 	C 	0.3646	0.4758	0.6148	0.194
Mof_C 	C 	0.3977	0.482	0.6091	-0.135
Mof_C 	C 	0.4108	0.479	0.6362	0.182
Mof_C 	C 	0.449	0.4845	0.6453	-0.571
Mof_C 	C 	0.0445	0.2238	0.6049	-0.644
Mof_C 	C 	0.0381	0.2368	0.6321	0.216
Mof_C 	C 	0.0759	0.2765	0.6598	-0.154
Mof_C 	C 	0.0472	0.2679	0.6769	0.208
Mof_C 	C 	0.0653	0.2975	0.709	-0.632
Mof_C 	C 	0.9135	0.2135	0.7388	-0.65
Mof_C 	C 	0.8637	0.1683	0.7122	0.216
Mof_C 	C 	0.8106	0.1308	0.7118	-0.158
Mof_C 	C 	0.7807	0.0981	0.6816	0.215
Mof_C 	C 	0.721	0.05	0.6666	-0.657
Mof_C 	C 	0.6878	0.9656	0.562	-0.589
Mof_C 	C 	0.7429	0.0035	0.558	0.184
Mof_C 	C 	0.7588	0.0018	0.5336	-0.143
Mof_C 	C 	0.8152	0.04633	0.54493	0.217
Mof_C 	C 	0.8556	0.0669	0.5299	-0.664
Mof_C 	C 	0.8408	0.2166	0.7566	-0.594
Mof_C 	C 	0.8054	0.1618	0.7574	0.183
Mof_C 	C 	0.7908	0.1247	0.7375	-0.12
Mof_C 	C 	0.7573	0.0809	0.7508	0.186
Mof_C 	C 	0.7293	0.028	0.7389	-0.591
Mof_C 	C 	0.6511	0.9288	0.8111	-0.58
Mof_C 	C 	0.665	0.9606	0.8402	0.176
Mof_C 	C 	0.6648	0.9565	0.8695	-0.123
Mof_C 	C 	0.6809	0.997	0.8859	0.181
Mof_C 	C 	0.6878	0.0106	0.9198	-0.585
Mof_C 	C 	0.7984	0.198	0.942	-0.676
Mof_C 	C 	0.8148	0.2178	0.915	0.216
Mof_C 	C 	0.8525	0.2702	0.9101	-0.143
Mof_C 	C 	0.84894	0.2624	0.87974	0.192
Mof_C 	C 	0.8796	0.3025	0.8613	-0.641
Mof_C 	C 	0.5642	0.8609	0.9001	-0.585
Mof_C 	C 	0.6061	0.8746	0.8929	0.182
Mof_C 	C 	0.6512	0.9172	0.88	-0.146
Mof_C 	C 	0.6748	0.9107	0.8789	0.221
Mof_C 	C 	0.7234	0.943	0.8686	-0.667
Mof_C 	C 	0.7892	0.9075	0.9073	-0.658
Mof_C 	C 	0.7578	0.8736	0.9286	0.217
Mof_C 	C 	0.773	0.8687	0.9531	-0.159
Mof_C 	C 	0.7295	0.8323	0.964	0.213
Mof_C 	C 	0.7199	0.8089	0.9902	-0.638
Mof_C 	C 	0.568	0.7335	0.0219	-0.689
Mof_C 	C 	0.54858	0.73932	0.0003	0.238
Mof_C 	C 	0.5192	0.7393	0.0033	-0.165
Mof_C 	C 	0.512	0.7461	0.9747	0.218
Mof_C 	C 	0.4857	0.7519	0.966	-0.645
Mof_C 	C 	0.4753	0.6128	0.3845	-0.605
Mof_C 	C 	0.5315	0.6666	0.4059	0.195
Mof_C 	C 	0.5633	0.6783	0.4288	-0.155
Mof_C 	C 	0.6109	0.7339	0.4414	0.221
Mof_C 	C 	0.6611	0.7707	0.4664	-0.636
Mof_C 	C 	0.7492	0.9276	0.5054	-0.629
Mof_C 	C 	0.7224	0.9313	0.4909	0.204
Mof_C 	C 	0.7242	0.9616	0.504	-0.13
Mof_C 	C 	0.6888	0.94649	0.48069	0.178
Mof_C 	C 	0.6721	0.9638	0.4803	-0.584
Mof_C 	C 	0.5141	0.8336	0.3787	-0.606
Mof_C 	C 	0.4987	0.7893	0.37	0.183
Mof_C 	C 	0.4481	0.735	0.3505	-0.121
Mof_C 	C 	0.4565	0.7117	0.3512	0.193
Mof_C 	C 	0.4184	0.6553	0.3353	-0.627
Mof_C 	C 	0.923	0.6478	0.9084	-0.579
Mof_C 	C 	0.9445	0.67461	0.88251	0.166
Mof_C 	C 	0.927	0.6814	0.8624	-0.113
Mof_C 	C 	0.963	0.7095	0.8443	0.171
Mof_C 	C 	0.9664	0.7298	0.818	-0.579
Mof_C 	C 	0.8234	0.5931	0.8061	-0.765
Mof_C 	C 	0.83387	0.62116	0.83323	0.277
Mof_C 	C 	0.8788	0.6602	0.8586	-0.19
Mof_C 	C 	0.8682	0.6728	0.879	0.227
Mof_C 	C 	0.9011	0.7114	0.9107	-0.653
Mof_C 	C 	0.1539	0.6995	0.8982	-0.6
Mof_C 	C 	0.1115	0.6842	0.9053	0.185
Mof_C 	C 	0.07562	0.6506	0.92362	-0.113
Mof_C 	C 	0.04623	0.65164	0.92107	0.168
Mof_C 	C 	0.0029	0.6244	0.9371	-0.563
Mof_C 	C 	0.3535	0.1408	0.8241	-0.603
Mof_C 	C 	0.3717	0.187	0.8245	0.19
Mof_C 	C 	0.4238	0.2425	0.8369	-0.128
Mof_C 	C 	0.4197	0.2689	0.831	0.217
Mof_C 	C 	0.4608	0.3266	0.8382	-0.641
Mof_C 	C 	0.3831	0.3482	0.7871	-0.653
Mof_C 	C 	0.3284	0.2931	0.7663	0.219
Mof_C 	C 	0.29465	0.2797	0.74375	-0.161
Mof_C 	C 	0.2498	0.2236	0.7312	0.218
Mof_C 	C 	0.2007	0.1851	0.705	-0.635
Mof_C 	C 	0.5072	0.3257	0.9047	-0.731
Mof_C 	C 	0.511	0.3085	0.8795	0.257
Mof_C 	C 	0.4746	0.2709	0.8513	-0.179
Mof_C 	C 	0.5003	0.2704	0.8379	0.217
Mof_C 	C 	0.4825	0.2394	0.8073	-0.647
Mof_C 	C 	0.2843	0.6817	0.1254	-0.589
Mof_C 	C 	0.2868	0.6621	0.0987	0.188
Mof_C 	C 	0.2497	0.6256	0.0697	-0.15
Mof_C 	C 	0.2736	0.6239	0.0553	0.223
Mof_C 	C 	0.2539	0.5924	0.0247	-0.666
Mof_C 	C 	0.3931	0.6502	0.0023	-0.61
Mof_C 	C 	0.4442	0.6961	0.0281	0.184
Mof_C 	C 	0.4981	0.7347	0.0282	-0.112
Mof_C 	C 	0.5298	0.7692	0.0586	0.162
Mof_C 	C 	0.5907	0.8177	0.0742	-0.559
Mof_C 	C 	0.4249	0.7595	0.2976	-0.688
Mof_C 	C 	0.38734	0.71719	0.31353	0.232
Mof_C 	C 	0.3976	0.7066	0.336	-0.159
Mof_C 	C 	0.3478	0.6627	0.3437	0.211
Mof_C 	C 	0.3347	0.6344	0.3667	-0.644
Mof_C 	C 	0.3714	0.3978	0.5684	-0.583
Mof_C 	C 	0.4055	0.4529	0.5662	0.173
Mof_C 	C 	0.4158	0.4878	0.583	-0.134
Mof_C 	C 	0.445	0.5275	0.5671	0.205
Mof_C 	C 	0.4666	0.5763	0.5749	-0.65
Mof_C 	C 	0.554	0.6671	0.4971	-0.667
Mof_C 	C 	0.5431	0.6352	0.4719	0.224
Mof_C 	C 	0.546	0.6385	0.4423	-0.143
Mof_C 	C 	0.5284	0.5956	0.4288	0.184
Mof_C 	C 	0.5236	0.5779	0.3971	-0.6
Mof_C 	C 	0.8898	0.0011	0.9785	-0.612
Mof_C 	C 	0.8765	0.9585	0.978	0.199
Mof_C 	C 	0.8267	0.9008	0.9657	-0.133
Mof_C 	C 	0.8423	0.8861	0.9732	0.183
Mof_C 	C 	0.8056	0.82795	0.96635	-0.596
Mof_Ag	Ag	0.98239	0.47707	0.95972	0.31
Mof_Ag	Ag	0.03304	0.46625	0.0046	0.384
Mof_Ag	Ag	0.1112	0.59356	0.00852	0.37
Mof_Ag	Ag	0.36545	0.43222	0.68933	0.375
Mof_Ag	Ag	0.25893	0.36565	0.71278	0.33
Mof_Ag	Ag	0.29427	0.43359	0.65968	0.378
Mof_Ag	Ag	0.91063	0.13996	0.60291	0.352
Mof_Ag	Ag	0.92987	0.19256	0.67151	0.365
Mof_Ag	Ag	0.79955	0.07935	0.62366	0.34
Mof_Ag	Ag	0.79443	0.17422	0.82291	0.306
Mof_Ag	Ag	0.71349	0.04672	0.80731	0.383
Mof_Ag	Ag	0.73758	0.10176	0.87764	0.367
Mof_Ag	Ag	0.56841	0.79328	0.92515	0.366
Mof_Ag	Ag	0.67337	0.84895	0.9054	0.303
Mof_Ag	Ag	0.61967	0.77421	0.9578	0.39
Mof_Ag	Ag	0.53576	0.73296	0.38464	0.333
Mof_Ag	Ag	0.65026	0.82999	0.44063	0.341
Mof_Ag	Ag	0.60328	0.8563	0.41664	0.416
Mof_Ag	Ag	0.02605	0.69041	0.88918	0.328
Mof_Ag	Ag	0.05563	0.74524	0.83351	0.338
Mof_Ag	Ag	0.12722	0.74298	0.85994	0.416
Mof_Ag	Ag	0.26293	0.11329	0.77902	0.32
Mof_Ag	Ag	0.33198	0.23567	0.79327	0.401
Mof_Ag	Ag	0.21285	0.12942	0.73701	0.353
Mof_Ag	Ag	0.40513	0.74109	0.13346	0.351
Mof_Ag	Ag	0.38178	0.67932	0.06728	0.32
Mof_Ag	Ag	0.51185	0.79169	0.11518	0.417
Mof_Ag	Ag	0.4218	0.43495	0.50557	0.34
Mof_Ag	Ag	0.49229	0.5562	0.51069	0.396
Mof_Ag	Ag	0.99483	0.04894	0.01979	0.356
Mof_H 	H 	0.876	0.3792	0.9148	0.17
Mof_H 	H 	0.8607	0.3406	0.8891	0.178
Mof_H 	H 	0.8236	0.3162	0.911	0.175
Mof_H 	H 	0.9202	0.2964	0.9588	0.196
Mof_H 	H 	0.9815	0.3583	0.9714	0.178
Mof_H 	H 	0.941	0.3301	0.9915	0.186
Mof_H 	H 	0.09	0.4637	0.0351	0.169
Mof_H 	H 	0.1482	0.5015	0.0345	0.18
Mof_H 	H 	0.1357	0.4993	0.0658	0.179
Mof_H 	H 	0.2221	0.6895	0.051	0.162
Mof_H 	H 	0.2561	0.7022	0.0791	0.174
Mof_H 	H 	0.2648	0.7016	0.0468	0.175
Mof_H 	H 	0.1762	0.7245	0.9735	0.204
Mof_H 	H 	0.1669	0.7063	0.0034	0.203
Mof_H 	H 	0.1882	0.7021	0.9815	0.191
Mof_H 	H 	0.9453	0.4871	0.9148	0.179
Mof_H 	H 	0.9557	0.529	0.9119	0.193
Mof_H 	H 	0.9775	0.523	0.8923	0.195
Mof_H 	H 	0.4048	0.4035	0.7013	0.169
Mof_H 	H 	0.4074	0.3861	0.7281	0.182
Mof_H 	H 	0.3656	0.3434	0.6962	0.177
Mof_H 	H 	0.2164	0.2935	0.7507	0.153
Mof_H 	H 	0.1972	0.2447	0.7409	0.164
Mof_H 	H 	0.2388	0.2879	0.7729	0.163
Mof_H 	H 	0.1621	0.2979	0.7272	0.18
Mof_H 	H 	0.123	0.2918	0.727	0.192
Mof_H 	H 	0.1035	0.2478	0.7041	0.188
Mof_H 	H 	0.2109	0.4071	0.628	0.163
Mof_H 	H 	0.1494	0.3466	0.6128	0.169
Mof_H 	H 	0.1643	0.3867	0.6362	0.176
Mof_H 	H 	0.344	0.4804	0.5758	0.18
Mof_H 	H 	0.2965	0.4405	0.5914	0.166
Mof_H 	H 	0.3472	0.5039	0.6051	0.173
Mof_H 	H 	0.4498	0.4808	0.6656	0.151
Mof_H 	H 	0.4355	0.4565	0.6312	0.16
Mof_H 	H 	0.4853	0.5199	0.6448	0.164
Mof_H 	H 	0.01	0.1933	0.5895	0.175
Mof_H 	H 	0.0565	0.2147	0.6106	0.187
Mof_H 	H 	0.071	0.255	0.597	0.183
Mof_H 	H 	0.0345	0.2807	0.7142	0.17
Mof_H 	H 	0.0927	0.335	0.7103	0.185
Mof_H 	H 	0.0802	0.2955	0.7229	0.178
Mof_H 	H 	0.9449	0.2335	0.7324	0.174
Mof_H 	H 	0.9093	0.1983	0.7544	0.188
Mof_H 	H 	0.9182	0.2376	0.7466	0.188
Mof_H 	H 	0.7137	0.0371	0.6454	0.181
Mof_H 	H 	0.7097	0.0604	0.6685	0.195
Mof_H 	H 	0.7014	0.0214	0.6762	0.19
Mof_H 	H 	0.6923	0.9799	0.5816	0.157
Mof_H 	H 	0.6662	0.9301	0.5605	0.171
Mof_H 	H 	0.6694	0.9624	0.5462	0.166
Mof_H 	H 	0.8914	0.0983	0.5439	0.183
Mof_H 	H 	0.8551	0.0767	0.5124	0.203
Mof_H 	H 	0.846	0.0387	0.5235	0.187
Mof_H 	H 	0.8423	0.2317	0.7738	0.157
Mof_H 	H 	0.826	0.2134	0.738	0.167
Mof_H 	H 	0.8771	0.2402	0.7575	0.166
Mof_H 	H 	0.7088	0.0053	0.7523	0.158
Mof_H 	H 	0.7564	0.0362	0.738	0.17
Mof_H 	H 	0.7051	0.0091	0.7188	0.172
Mof_H 	H 	0.6403	0.9008	0.8153	0.165
Mof_H 	H 	0.6826	0.9531	0.8035	0.153
Mof_H 	H 	0.6216	0.9121	0.7961	0.159
Mof_H 	H 	0.6997	0.0407	0.925	0.153
Mof_H 	H 	0.7146	0.0205	0.9315	0.169
Mof_H 	H 	0.6534	0.9793	0.9241	0.168
Mof_H 	H 	0.7724	0.1603	0.9369	0.185
Mof_H 	H 	0.782	0.2014	0.9492	0.2
Mof_H 	H 	0.8299	0.2193	0.9576	0.197
Mof_H 	H 	0.9034	0.3374	0.874	0.19
Mof_H 	H 	0.8542	0.2898	0.8448	0.18
Mof_H 	H 	0.901	0.306	0.8534	0.176
Mof_H 	H 	0.5397	0.8302	0.9085	0.159
Mof_H 	H 	0.5828	0.8919	0.9147	0.165
Mof_H 	H 	0.5438	0.852	0.8818	0.175
Mof_H 	H 	0.7302	0.9282	0.8706	0.18
Mof_H 	H 	0.717	0.9414	0.8476	0.192
Mof_H 	H 	0.7546	0.9803	0.8807	0.195
Mof_H 	H 	0.7678	0.9022	0.893	0.177
Mof_H 	H 	0.8227	0.9455	0.9186	0.188
Mof_H 	H 	0.7973	0.8968	0.8965	0.191
Mof_H 	H 	0.7516	0.8244	0.9992	0.189
Mof_H 	H 	0.713	0.8174	0.0052	0.173
Mof_H 	H 	0.6889	0.7699	0.9826	0.179
Mof_H 	H 	0.5875	0.7351	0.0132	0.186
Mof_H 	H 	0.592	0.7627	0.0405	0.194
Mof_H 	H 	0.5373	0.699	0.0263	0.201
Mof_H 	H 	0.4866	0.7559	0.9457	0.17
Mof_H 	H 	0.4483	0.72	0.9667	0.183
Mof_H 	H 	0.5048	0.7837	0.9799	0.184
Mof_H 	H 	0.4649	0.6195	0.371	0.163
Mof_H 	H 	0.476	0.5951	0.3727	0.173
Mof_H 	H 	0.4493	0.5897	0.396	0.174
Mof_H 	H 	0.6864	0.8079	0.4691	0.177
Mof_H 	H 	0.6515	0.7609	0.485	0.178
Mof_H 	H 	0.6779	0.7669	0.461	0.189
Mof_H 	H 	0.7402	0.9032	0.491	0.166
Mof_H 	H 	0.7882	0.9633	0.5117	0.178
Mof_H 	H 	0.7367	0.9142	0.5229	0.181
Mof_H 	H 	0.6467	0.9456	0.4609	0.153
Mof_H 	H 	0.6551	0.9544	0.4963	0.165
Mof_H 	H 	0.7039	0.0027	0.4834	0.163
Mof_H 	H 	0.5507	0.8657	0.392	0.16
Mof_H 	H 	0.5124	0.8419	0.3607	0.176
Mof_H 	H 	0.4893	0.8219	0.389	0.174
Mof_H 	H 	0.436	0.6518	0.3398	0.169
Mof_H 	H 	0.3859	0.6292	0.3421	0.176
Mof_H 	H 	0.4086	0.6487	0.3137	0.181
Mof_H 	H 	0.9443	0.6499	0.918	0.156
Mof_H 	H 	0.8854	0.6102	0.9004	0.164
Mof_H 	H 	0.9255	0.6664	0.9231	0.169
Mof_H 	H 	0.9959	0.7473	0.8102	0.158
Mof_H 	H 	0.9728	0.7554	0.825	0.175
Mof_H 	H 	0.9326	0.6993	0.8021	0.16
Mof_H 	H 	0.7888	0.5688	0.7924	0.204
Mof_H 	H 	0.8223	0.5724	0.8111	0.225
Mof_H 	H 	0.8519	0.6193	0.7964	0.22
Mof_H 	H 	0.8814	0.7099	0.9187	0.177
Mof_H 	H 	0.9356	0.7479	0.9099	0.181
Mof_H 	H 	0.9073	0.7007	0.9236	0.188
Mof_H 	H 	0.1713	0.7232	0.8851	0.16
Mof_H 	H 	0.1366	0.667	0.888	0.174
Mof_H 	H 	0.1807	0.7181	0.9168	0.176
Mof_H 	H 	0.9894	0.6321	0.9315	0.142
Mof_H 	H 	0.0188	0.6386	0.9588	0.153
Mof_H 	H 	0.9733	0.5857	0.9312	0.157
Mof_H 	H 	0.3148	0.1066	0.8142	0.156
Mof_H 	H 	0.3608	0.1416	0.8446	0.166
Mof_H 	H 	0.3729	0.1444	0.8131	0.168
Mof_H 	H 	0.4443	0.3306	0.8307	0.17
Mof_H 	H 	0.4894	0.3451	0.8289	0.184
Mof_H 	H 	0.4761	0.3423	0.86	0.18
Mof_H 	H 	0.3965	0.3447	0.801	0.174
Mof_H 	H 	0.3798	0.3636	0.7984	0.188
Mof_H 	H 	0.4083	0.3718	0.7753	0.187
Mof_H 	H 	0.1771	0.1486	0.7027	0.17
Mof_H 	H 	0.2118	0.1955	0.6867	0.182
Mof_H 	H 	0.1813	0.1864	0.7085	0.181
Mof_H 	H 	0.54	0.3525	0.9211	0.204
Mof_H 	H 	0.4763	0.2947	0.9114	0.222
Mof_H 	H 	0.5027	0.3414	0.8981	0.207
Mof_H 	H 	0.5092	0.2473	0.8053	0.174
Mof_H 	H 	0.479	0.25	0.792	0.185
Mof_H 	H 	0.4478	0.2009	0.8047	0.187
Mof_H 	H 	0.3165	0.707	0.1421	0.16
Mof_H 	H 	0.2824	0.6997	0.1191	0.165
Mof_H 	H 	0.2524	0.6509	0.1317	0.178
Mof_H 	H 	0.2798	0.5996	0.0216	0.181
Mof_H 	H 	0.2193	0.554	0.0225	0.191
Mof_H 	H 	0.2496	0.6028	0.0098	0.192
Mof_H 	H 	0.3626	0.6315	0.0093	0.163
Mof_H 	H 	0.3966	0.6644	0.9862	0.171
Mof_H 	H 	0.3873	0.6251	0.9948	0.177
Mof_H 	H 	0.5985	0.8321	0.095	0.149
Mof_H 	H 	0.6008	0.8059	0.0735	0.156
Mof_H 	H 	0.6112	0.8455	0.0637	0.158
Mof_H 	H 	0.4601	0.7804	0.3049	0.206
Mof_H 	H 	0.4107	0.7426	0.2761	0.191
Mof_H 	H 	0.4284	0.7834	0.3014	0.185
Mof_H 	H 	0.2971	0.6059	0.3664	0.17
Mof_H 	H 	0.3404	0.6188	0.362	0.183
Mof_H 	H 	0.358	0.6603	0.3865	0.185
Mof_H 	H 	0.3738	0.3847	0.5531	0.157
Mof_H 	H 	0.3853	0.4023	0.5882	0.165
Mof_H 	H 	0.334	0.372	0.5654	0.169
Mof_H 	H 	0.4852	0.5968	0.5604	0.175
Mof_H 	H 	0.4369	0.5645	0.5744	0.19
Mof_H 	H 	0.4919	0.599	0.5949	0.192
Mof_H 	H 	0.548	0.6543	0.5147	0.177
Mof_H 	H 	0.5912	0.705	0.5016	0.189
Mof_H 	H 	0.5298	0.6629	0.4915	0.19
Mof_H 	H 	0.5099	0.5467	0.3952	0.16
Mof_H 	H 	0.499	0.5684	0.3826	0.17
Mof_H 	H 	0.5591	0.6074	0.3935	0.168
Mof_H 	H 	0.9279	0.0365	0.9886	0.166
Mof_H 	H 	0.8819	0	0.9579	0.175
Mof_H 	H 	0.8681	0.9945	0.9892	0.175
Mof_H 	H 	0.827	0.8293	0.9739	0.162
Mof_H 	H 	0.7769	0.8067	0.9762	0.168
Mof_H 	H 	0.7899	0.8113	0.9448	0.178
_end
