data_functionalizedCrystal
_audit_creation_method	'EQeq! by Chris Wilmer'
_symmetry_space_group_name_H-M	'P1'
_symmetry_Int_Tables_number	1
_symmetry_cell_setting	triclinic
loop_
_symmetry_equiv_pos_as_xyz
  x,y,z
_cell_length_a	28.105
_cell_length_b	28.105
_cell_length_c	14.598
_cell_angle_alpha	90
_cell_angle_beta	90
_cell_angle_gamma	120
loop_
_atom_site_label
_atom_site_type_symbol
_atom_site_fract_x
_atom_site_fract_y
_atom_site_fract_z
_atom_site_charge
Mof_C 	C 	0.3598	0.2524	0.8766	0.39
Mof_C 	C 	0.345	0.2877	0.8243	-0.062
Mof_C 	C 	0.381	0.3207	0.757	-0.1
Mof_H 	H 	0.413	0.3198	0.7455	0.094
Mof_C 	C 	0.3689	0.3556	0.7063	0.171
Mof_C 	C 	0.3214	0.3573	0.7238	-0.118
Mof_H 	H 	0.3128	0.3801	0.6902	0.085
Mof_C 	C 	0.2867	0.3236	0.7932	-0.041
Mof_C 	C 	0.2978	0.2908	0.8413	-0.002
Mof_H 	H 	0.2738	0.2693	0.8873	0.057
Mof_C 	C 	0.2351	0.3275	0.8139	0.365
Mof_C 	C 	0.3979	0.4237	0.5907	-0.002
Mof_H 	H 	0.3868	0.4439	0.6308	0.042
Mof_H 	H 	0.3692	0.4041	0.5458	0.049
Mof_C 	C 	0.452	0.4628	0.5434	0.008
Mof_H 	H 	0.4572	0.4867	0.7158	0.055
Mof_C 	C 	0.3889	0.5278	0.804	-0.123
Mof_H 	H 	0.3646	0.4949	0.7753	0.086
Mof_C 	C 	0.3764	0.5413	0.8885	-0.053
Mof_C 	C 	0.3197	0.5018	0.9324	0.406
Mof_O 	O 	0.321	0.2153	0.9246	-0.377
Mof_O 	O 	0.40615	0.25889	0.8705	-0.393
Mof_O 	O 	0.20614	0.29967	0.8786	-0.38
Mof_O 	O 	0.2257	0.3576	0.762	-0.359
Mof_O 	O 	0.40762	0.38633	0.6422	-0.215
Mof_O 	O 	0.2908	0.4598	0.8817	-0.379
Mof_O 	O 	0.30714	0.5078	0.0036	-0.4
Mof_C 	C 	0.7476	0.1074	0.8766	0.389
Mof_C 	C 	0.7123	0.0573	0.8243	-0.064
Mof_C 	C 	0.6793	0.0603	0.757	-0.1
Mof_H 	H 	0.6802	0.0932	0.7455	0.093
Mof_C 	C 	0.6444	0.0133	0.7063	0.172
Mof_C 	C 	0.6427	0.9641	0.7238	-0.119
Mof_H 	H 	0.6199	0.9327	0.6902	0.085
Mof_C 	C 	0.6764	0.9631	0.7932	-0.043
Mof_C 	C 	0.7092	0.007	0.8413	0
Mof_H 	H 	0.7307	0.0045	0.8873	0.057
Mof_C 	C 	0.6725	0.9076	0.8139	0.365
Mof_C 	C 	0.5763	0.9742	0.5907	-0.003
Mof_H 	H 	0.5561	0.9429	0.6308	0.043
Mof_H 	H 	0.5959	0.9651	0.5458	0.049
Mof_C 	C 	0.5372	0.9892	0.5434	0.008
Mof_H 	H 	0.5133	0.9705	0.7158	0.054
Mof_C 	C 	0.4722	0.8611	0.804	-0.124
Mof_H 	H 	0.5051	0.8697	0.7753	0.087
Mof_C 	C 	0.4587	0.8351	0.8885	-0.053
Mof_C 	C 	0.4982	0.8179	0.9324	0.405
Mof_O 	O 	0.7847	0.1057	0.9246	-0.376
Mof_O 	O 	0.74111	0.14726	0.8705	-0.393
Mof_O 	O 	0.70033	0.90647	0.8786	-0.38
Mof_O 	O 	0.6424	0.8681	0.762	-0.36
Mof_O 	O 	0.61367	0.02129	0.6422	-0.215
Mof_O 	O 	0.5402	0.831	0.8817	-0.379
Mof_O 	O 	0.4922	0.79934	0.0036	-0.4
Mof_C 	C 	0.8926	0.6402	0.8766	0.389
Mof_C 	C 	0.9427	0.655	0.8243	-0.064
Mof_C 	C 	0.9397	0.619	0.757	-0.1
Mof_H 	H 	0.9068	0.587	0.7455	0.093
Mof_C 	C 	0.9867	0.6311	0.7063	0.172
Mof_C 	C 	0.0359	0.6786	0.7238	-0.119
Mof_H 	H 	0.0673	0.6872	0.6902	0.085
Mof_C 	C 	0.0369	0.7133	0.7932	-0.043
Mof_C 	C 	0.993	0.7022	0.8413	0
Mof_H 	H 	0.9955	0.7262	0.8873	0.057
Mof_C 	C 	0.0924	0.7649	0.8139	0.365
Mof_C 	C 	0.0258	0.6021	0.5907	-0.003
Mof_H 	H 	0.0571	0.6132	0.6308	0.043
Mof_H 	H 	0.0349	0.6308	0.5458	0.049
Mof_C 	C 	0.0108	0.548	0.5434	0.008
Mof_H 	H 	0.0295	0.5428	0.7158	0.054
Mof_C 	C 	0.1389	0.6111	0.804	-0.124
Mof_H 	H 	0.1303	0.6354	0.7753	0.087
Mof_C 	C 	0.1649	0.6236	0.8885	-0.053
Mof_C 	C 	0.1821	0.6803	0.9324	0.404
Mof_O 	O 	0.8943	0.679	0.9246	-0.377
Mof_O 	O 	0.85274	0.59385	0.8705	-0.393
Mof_O 	O 	0.09353	0.79386	0.8786	-0.38
Mof_O 	O 	0.1319	0.7743	0.762	-0.36
Mof_O 	O 	0.97871	0.59238	0.6422	-0.215
Mof_O 	O 	0.169	0.7092	0.8817	-0.379
Mof_O 	O 	0.20066	0.69286	0.0036	-0.399
Mof_C 	C 	0.2524	0.3598	0.1234	0.389
Mof_C 	C 	0.2877	0.345	0.1757	-0.063
Mof_C 	C 	0.3207	0.381	0.243	-0.101
Mof_H 	H 	0.3198	0.413	0.2545	0.093
Mof_C 	C 	0.3556	0.3689	0.2937	0.171
Mof_C 	C 	0.3573	0.3214	0.2762	-0.118
Mof_H 	H 	0.3801	0.3128	0.3098	0.085
Mof_C 	C 	0.3236	0.2867	0.2068	-0.041
Mof_C 	C 	0.2908	0.2978	0.1587	-0.002
Mof_H 	H 	0.2693	0.2738	0.1127	0.057
Mof_C 	C 	0.3275	0.2351	0.1861	0.365
Mof_C 	C 	0.4237	0.3979	0.4093	-0.002
Mof_H 	H 	0.4439	0.3868	0.3692	0.042
Mof_H 	H 	0.4041	0.3692	0.4542	0.049
Mof_C 	C 	0.4628	0.452	0.4566	0.008
Mof_H 	H 	0.4867	0.4572	0.2842	0.055
Mof_C 	C 	0.5278	0.3889	0.196	-0.123
Mof_H 	H 	0.4949	0.3646	0.2247	0.086
Mof_C 	C 	0.5413	0.3764	0.1115	-0.053
Mof_C 	C 	0.5018	0.3197	0.0676	0.406
Mof_O 	O 	0.2153	0.321	0.0754	-0.377
Mof_O 	O 	0.25889	0.40615	0.1295	-0.393
Mof_O 	O 	0.29967	0.20614	0.1214	-0.38
Mof_O 	O 	0.3576	0.2257	0.238	-0.359
Mof_O 	O 	0.38633	0.40762	0.3578	-0.215
Mof_O 	O 	0.4598	0.2908	0.1183	-0.379
Mof_O 	O 	0.5078	0.30714	0.9964	-0.4
Mof_C 	C 	0.1074	0.7476	0.1234	0.389
Mof_C 	C 	0.0573	0.7123	0.1757	-0.064
Mof_C 	C 	0.0603	0.6793	0.243	-0.1
Mof_H 	H 	0.0932	0.6802	0.2545	0.093
Mof_C 	C 	0.0133	0.6444	0.2937	0.172
Mof_C 	C 	0.9641	0.6427	0.2762	-0.119
Mof_H 	H 	0.9327	0.6199	0.3098	0.085
Mof_C 	C 	0.9631	0.6764	0.2068	-0.043
Mof_C 	C 	0.007	0.7092	0.1587	0
Mof_H 	H 	0.0045	0.7307	0.1127	0.057
Mof_C 	C 	0.9076	0.6725	0.1861	0.365
Mof_C 	C 	0.9742	0.5763	0.4093	-0.003
Mof_H 	H 	0.9429	0.5561	0.3692	0.043
Mof_H 	H 	0.9651	0.5959	0.4542	0.049
Mof_C 	C 	0.9892	0.5372	0.4566	0.008
Mof_H 	H 	0.9705	0.5133	0.2842	0.054
Mof_C 	C 	0.8611	0.4722	0.196	-0.124
Mof_H 	H 	0.8697	0.5051	0.2247	0.087
Mof_C 	C 	0.8351	0.4587	0.1115	-0.053
Mof_C 	C 	0.8179	0.4982	0.0676	0.405
Mof_O 	O 	0.1057	0.7847	0.0754	-0.376
Mof_O 	O 	0.14726	0.74111	0.1295	-0.393
Mof_O 	O 	0.90647	0.70033	0.1214	-0.38
Mof_O 	O 	0.8681	0.6424	0.238	-0.36
Mof_O 	O 	0.02129	0.61367	0.3578	-0.215
Mof_O 	O 	0.831	0.5402	0.1183	-0.379
Mof_O 	O 	0.79934	0.4922	0.9964	-0.4
Mof_C 	C 	0.6402	0.8926	0.1234	0.389
Mof_C 	C 	0.655	0.9427	0.1757	-0.064
Mof_C 	C 	0.619	0.9397	0.243	-0.1
Mof_H 	H 	0.587	0.9068	0.2545	0.093
Mof_C 	C 	0.6311	0.9867	0.2937	0.172
Mof_C 	C 	0.6786	0.0359	0.2762	-0.119
Mof_H 	H 	0.6872	0.0673	0.3098	0.085
Mof_C 	C 	0.7133	0.0369	0.2068	-0.043
Mof_C 	C 	0.7022	0.993	0.1587	0
Mof_H 	H 	0.7262	0.9955	0.1127	0.057
Mof_C 	C 	0.7649	0.0924	0.1861	0.365
Mof_C 	C 	0.6021	0.0258	0.4093	-0.003
Mof_H 	H 	0.6132	0.0571	0.3692	0.043
Mof_H 	H 	0.6308	0.0349	0.4542	0.049
Mof_C 	C 	0.548	0.0108	0.4566	0.008
Mof_H 	H 	0.5428	0.0295	0.2842	0.054
Mof_C 	C 	0.6111	0.1389	0.196	-0.124
Mof_H 	H 	0.6354	0.1303	0.2247	0.087
Mof_C 	C 	0.6236	0.1649	0.1115	-0.053
Mof_C 	C 	0.6803	0.1821	0.0676	0.404
Mof_O 	O 	0.679	0.8943	0.0754	-0.377
Mof_O 	O 	0.59385	0.85274	0.1295	-0.393
Mof_O 	O 	0.79386	0.09353	0.1214	-0.38
Mof_O 	O 	0.7743	0.1319	0.238	-0.36
Mof_O 	O 	0.59238	0.97871	0.3578	-0.215
Mof_O 	O 	0.7092	0.169	0.1183	-0.379
Mof_O 	O 	0.69286	0.20066	0.9964	-0.399
Mof_C 	C 	0.6402	0.7476	0.1234	0.389
Mof_C 	C 	0.655	0.7123	0.1757	-0.063
Mof_C 	C 	0.619	0.6793	0.243	-0.101
Mof_H 	H 	0.587	0.6802	0.2545	0.093
Mof_C 	C 	0.6311	0.6444	0.2937	0.171
Mof_C 	C 	0.6786	0.6427	0.2762	-0.118
Mof_H 	H 	0.6872	0.6199	0.3098	0.085
Mof_C 	C 	0.7133	0.6764	0.2068	-0.041
Mof_C 	C 	0.7022	0.7092	0.1587	-0.002
Mof_H 	H 	0.7262	0.7307	0.1127	0.057
Mof_C 	C 	0.7649	0.6725	0.1861	0.365
Mof_C 	C 	0.6021	0.5763	0.4093	-0.002
Mof_H 	H 	0.6132	0.5561	0.3692	0.042
Mof_H 	H 	0.6308	0.5959	0.4542	0.049
Mof_C 	C 	0.548	0.5372	0.4566	0.008
Mof_H 	H 	0.5428	0.5133	0.2842	0.055
Mof_C 	C 	0.6111	0.4722	0.196	-0.123
Mof_H 	H 	0.6354	0.5051	0.2247	0.086
Mof_C 	C 	0.6236	0.4587	0.1115	-0.053
Mof_C 	C 	0.6803	0.4982	0.0676	0.406
Mof_O 	O 	0.679	0.7847	0.0754	-0.377
Mof_O 	O 	0.59385	0.74111	0.1295	-0.393
Mof_O 	O 	0.79386	0.70033	0.1214	-0.38
Mof_O 	O 	0.7743	0.6424	0.238	-0.359
Mof_O 	O 	0.59238	0.61367	0.3578	-0.215
Mof_O 	O 	0.7092	0.5402	0.1183	-0.379
Mof_O 	O 	0.69286	0.4922	0.9964	-0.4
Mof_C 	C 	0.2524	0.8926	0.1234	0.389
Mof_C 	C 	0.2877	0.9427	0.1757	-0.064
Mof_C 	C 	0.3207	0.9397	0.243	-0.1
Mof_H 	H 	0.3198	0.9068	0.2545	0.093
Mof_C 	C 	0.3556	0.9867	0.2937	0.172
Mof_C 	C 	0.3573	0.0359	0.2762	-0.119
Mof_H 	H 	0.3801	0.0673	0.3098	0.085
Mof_C 	C 	0.3236	0.0369	0.2068	-0.043
Mof_C 	C 	0.2908	0.993	0.1587	0
Mof_H 	H 	0.2693	0.9955	0.1127	0.057
Mof_C 	C 	0.3275	0.0924	0.1861	0.365
Mof_C 	C 	0.4237	0.0258	0.4093	-0.003
Mof_H 	H 	0.4439	0.0571	0.3692	0.043
Mof_H 	H 	0.4041	0.0349	0.4542	0.049
Mof_C 	C 	0.4628	0.0108	0.4566	0.008
Mof_H 	H 	0.4867	0.0295	0.2842	0.054
Mof_C 	C 	0.5278	0.1389	0.196	-0.124
Mof_H 	H 	0.4949	0.1303	0.2247	0.087
Mof_C 	C 	0.5413	0.1649	0.1115	-0.053
Mof_C 	C 	0.5018	0.1821	0.0676	0.405
Mof_O 	O 	0.2153	0.8943	0.0754	-0.376
Mof_O 	O 	0.25889	0.85274	0.1295	-0.393
Mof_O 	O 	0.29967	0.09353	0.1214	-0.38
Mof_O 	O 	0.3576	0.1319	0.238	-0.36
Mof_O 	O 	0.38633	0.97871	0.3578	-0.215
Mof_O 	O 	0.4598	0.169	0.1183	-0.379
Mof_O 	O 	0.5078	0.20066	0.9964	-0.4
Mof_C 	C 	0.1074	0.3598	0.1234	0.389
Mof_C 	C 	0.0573	0.345	0.1757	-0.064
Mof_C 	C 	0.0603	0.381	0.243	-0.1
Mof_H 	H 	0.0932	0.413	0.2545	0.093
Mof_C 	C 	0.0133	0.3689	0.2937	0.172
Mof_C 	C 	0.9641	0.3214	0.2762	-0.119
Mof_H 	H 	0.9327	0.3128	0.3098	0.085
Mof_C 	C 	0.9631	0.2867	0.2068	-0.043
Mof_C 	C 	0.007	0.2978	0.1587	0
Mof_H 	H 	0.0045	0.2738	0.1127	0.057
Mof_C 	C 	0.9076	0.2351	0.1861	0.365
Mof_C 	C 	0.9742	0.3979	0.4093	-0.003
Mof_H 	H 	0.9429	0.3868	0.3692	0.043
Mof_H 	H 	0.9651	0.3692	0.4542	0.049
Mof_C 	C 	0.9892	0.452	0.4566	0.008
Mof_H 	H 	0.9705	0.4572	0.2842	0.054
Mof_C 	C 	0.8611	0.3889	0.196	-0.124
Mof_H 	H 	0.8697	0.3646	0.2247	0.087
Mof_C 	C 	0.8351	0.3764	0.1115	-0.053
Mof_C 	C 	0.8179	0.3197	0.0676	0.404
Mof_O 	O 	0.1057	0.321	0.0754	-0.377
Mof_O 	O 	0.14726	0.40615	0.1295	-0.393
Mof_O 	O 	0.90647	0.20614	0.1214	-0.38
Mof_O 	O 	0.8681	0.2257	0.238	-0.36
Mof_O 	O 	0.02129	0.40762	0.3578	-0.215
Mof_O 	O 	0.831	0.2908	0.1183	-0.379
Mof_O 	O 	0.79934	0.30714	0.9964	-0.399
Mof_C 	C 	0.7476	0.6402	0.8766	0.389
Mof_C 	C 	0.7123	0.655	0.8243	-0.063
Mof_C 	C 	0.6793	0.619	0.757	-0.101
Mof_H 	H 	0.6802	0.587	0.7455	0.093
Mof_C 	C 	0.6444	0.6311	0.7063	0.171
Mof_C 	C 	0.6427	0.6786	0.7238	-0.118
Mof_H 	H 	0.6199	0.6872	0.6902	0.085
Mof_C 	C 	0.6764	0.7133	0.7932	-0.041
Mof_C 	C 	0.7092	0.7022	0.8413	-0.002
Mof_H 	H 	0.7307	0.7262	0.8873	0.057
Mof_C 	C 	0.6725	0.7649	0.8139	0.365
Mof_C 	C 	0.5763	0.6021	0.5907	-0.002
Mof_H 	H 	0.5561	0.6132	0.6308	0.042
Mof_H 	H 	0.5959	0.6308	0.5458	0.049
Mof_C 	C 	0.5372	0.548	0.5434	0.008
Mof_H 	H 	0.5133	0.5428	0.7158	0.055
Mof_C 	C 	0.4722	0.6111	0.804	-0.123
Mof_H 	H 	0.5051	0.6354	0.7753	0.086
Mof_C 	C 	0.4587	0.6236	0.8885	-0.053
Mof_C 	C 	0.4982	0.6803	0.9324	0.406
Mof_O 	O 	0.7847	0.679	0.9246	-0.377
Mof_O 	O 	0.74111	0.59385	0.8705	-0.393
Mof_O 	O 	0.70033	0.79386	0.8786	-0.38
Mof_O 	O 	0.6424	0.7743	0.762	-0.359
Mof_O 	O 	0.61367	0.59238	0.6422	-0.215
Mof_O 	O 	0.5402	0.7092	0.8817	-0.379
Mof_O 	O 	0.4922	0.69286	0.0036	-0.4
Mof_C 	C 	0.8926	0.2524	0.8766	0.389
Mof_C 	C 	0.9427	0.2877	0.8243	-0.064
Mof_C 	C 	0.9397	0.3207	0.757	-0.1
Mof_H 	H 	0.9068	0.3198	0.7455	0.093
Mof_C 	C 	0.9867	0.3556	0.7063	0.172
Mof_C 	C 	0.0359	0.3573	0.7238	-0.119
Mof_H 	H 	0.0673	0.3801	0.6902	0.085
Mof_C 	C 	0.0369	0.3236	0.7932	-0.043
Mof_C 	C 	0.993	0.2908	0.8413	0
Mof_H 	H 	0.9955	0.2693	0.8873	0.057
Mof_C 	C 	0.0924	0.3275	0.8139	0.365
Mof_C 	C 	0.0258	0.4237	0.5907	-0.003
Mof_H 	H 	0.0571	0.4439	0.6308	0.043
Mof_H 	H 	0.0349	0.4041	0.5458	0.049
Mof_C 	C 	0.0108	0.4628	0.5434	0.008
Mof_H 	H 	0.0295	0.4867	0.7158	0.054
Mof_C 	C 	0.1389	0.5278	0.804	-0.124
Mof_H 	H 	0.1303	0.4949	0.7753	0.087
Mof_C 	C 	0.1649	0.5413	0.8885	-0.053
Mof_C 	C 	0.1821	0.5018	0.9324	0.405
Mof_O 	O 	0.8943	0.2153	0.9246	-0.376
Mof_O 	O 	0.85274	0.25889	0.8705	-0.393
Mof_O 	O 	0.09353	0.29967	0.8786	-0.38
Mof_O 	O 	0.1319	0.3576	0.762	-0.36
Mof_O 	O 	0.97871	0.38633	0.6422	-0.215
Mof_O 	O 	0.169	0.4598	0.8817	-0.379
Mof_O 	O 	0.20066	0.5078	0.0036	-0.4
Mof_C 	C 	0.3598	0.1074	0.8766	0.389
Mof_C 	C 	0.345	0.0573	0.8243	-0.064
Mof_C 	C 	0.381	0.0603	0.757	-0.1
Mof_H 	H 	0.413	0.0932	0.7455	0.093
Mof_C 	C 	0.3689	0.0133	0.7063	0.172
Mof_C 	C 	0.3214	0.9641	0.7238	-0.119
Mof_H 	H 	0.3128	0.9327	0.6902	0.085
Mof_C 	C 	0.2867	0.9631	0.7932	-0.043
Mof_C 	C 	0.2978	0.007	0.8413	0
Mof_H 	H 	0.2738	0.0045	0.8873	0.057
Mof_C 	C 	0.2351	0.9076	0.8139	0.365
Mof_C 	C 	0.3979	0.9742	0.5907	-0.003
Mof_H 	H 	0.3868	0.9429	0.6308	0.043
Mof_H 	H 	0.3692	0.9651	0.5458	0.049
Mof_C 	C 	0.452	0.9892	0.5434	0.008
Mof_H 	H 	0.4572	0.9705	0.7158	0.054
Mof_C 	C 	0.3889	0.8611	0.804	-0.124
Mof_H 	H 	0.3646	0.8697	0.7753	0.087
Mof_C 	C 	0.3764	0.8351	0.8885	-0.053
Mof_C 	C 	0.3197	0.8179	0.9324	0.404
Mof_O 	O 	0.321	0.1057	0.9246	-0.377
Mof_O 	O 	0.40615	0.14726	0.8705	-0.393
Mof_O 	O 	0.20614	0.90647	0.8786	-0.38
Mof_O 	O 	0.2257	0.8681	0.762	-0.36
Mof_O 	O 	0.40762	0.02129	0.6422	-0.215
Mof_O 	O 	0.2908	0.831	0.8817	-0.379
Mof_O 	O 	0.30714	0.79934	0.0036	-0.399
Mof_Mn	Mn	0.31173	0.15586	0.02518	0.96
Mof_Mn	Mn	0.45173	0.22586	0.93261	0.965
Mof_Mn	Mn	0.42118	0.21059	0.18607	0.905
Mof_O 	O 	0.39823	0.19911	0.0479	-0.428
Mof_Mn	Mn	0.84414	0.15587	0.02518	0.958
Mof_Mn	Mn	0.77414	0.22587	0.93261	0.965
Mof_Mn	Mn	0.78941	0.21059	0.18607	0.905
Mof_O 	O 	0.80089	0.19912	0.0479	-0.429
Mof_Mn	Mn	0.84413	0.68827	0.02518	0.96
Mof_Mn	Mn	0.77413	0.54827	0.93261	0.965
Mof_Mn	Mn	0.78941	0.57882	0.18607	0.905
Mof_O 	O 	0.80088	0.60177	0.0479	-0.428
Mof_Mn	Mn	0.15586	0.31173	0.97482	0.96
Mof_Mn	Mn	0.22586	0.45173	0.06739	0.965
Mof_Mn	Mn	0.21059	0.42118	0.81393	0.905
Mof_O 	O 	0.19911	0.39823	0.9521	-0.428
Mof_Mn	Mn	0.15587	0.84414	0.97482	0.958
Mof_Mn	Mn	0.22587	0.77414	0.06739	0.965
Mof_Mn	Mn	0.21059	0.78941	0.81393	0.905
Mof_O 	O 	0.19912	0.80089	0.9521	-0.429
Mof_Mn	Mn	0.68827	0.84413	0.97482	0.96
Mof_Mn	Mn	0.54827	0.77413	0.06739	0.965
Mof_Mn	Mn	0.57882	0.78941	0.81393	0.905
Mof_O 	O 	0.60177	0.80088	0.9521	-0.428
Mof_C 	C 	0.48931	0.51069	0.5871	0.014
Mof_C 	C 	0.47885	0.52115	0.6835	-0.017
Mof_C 	C 	0.43697	0.56303	0.7646	0.174
Mof_C 	C 	0.41116	0.58884	0.9314	-0.01
Mof_H 	H 	0.4027	0.5973	0.9885	0.055
Mof_O 	O 	0.44945	0.55055	0.6776	-0.213
Mof_C 	C 	0.48931	0.97862	0.5871	0.013
Mof_C 	C 	0.47885	0.9577	0.6835	-0.017
Mof_C 	C 	0.43697	0.87394	0.7646	0.174
Mof_C 	C 	0.41116	0.82232	0.9314	-0.011
Mof_H 	H 	0.4027	0.8054	0.9885	0.055
Mof_O 	O 	0.44945	0.8989	0.6776	-0.213
Mof_C 	C 	0.02138	0.51069	0.5871	0.013
Mof_C 	C 	0.0423	0.52115	0.6835	-0.017
Mof_C 	C 	0.12606	0.56303	0.7646	0.174
Mof_C 	C 	0.17768	0.58884	0.9314	-0.011
Mof_H 	H 	0.1946	0.5973	0.9885	0.055
Mof_O 	O 	0.1011	0.55055	0.6776	-0.213
Mof_C 	C 	0.51069	0.48931	0.4129	0.014
Mof_C 	C 	0.52115	0.47885	0.3165	-0.017
Mof_C 	C 	0.56303	0.43697	0.2354	0.174
Mof_C 	C 	0.58884	0.41116	0.0686	-0.01
Mof_H 	H 	0.5973	0.4027	0.0115	0.055
Mof_O 	O 	0.55055	0.44945	0.3224	-0.213
Mof_C 	C 	0.97862	0.48931	0.4129	0.013
Mof_C 	C 	0.9577	0.47885	0.3165	-0.017
Mof_C 	C 	0.87394	0.43697	0.2354	0.174
Mof_C 	C 	0.82232	0.41116	0.0686	-0.011
Mof_H 	H 	0.8054	0.4027	0.0115	0.055
Mof_O 	O 	0.8989	0.44945	0.3224	-0.213
Mof_C 	C 	0.51069	0.02138	0.4129	0.013
Mof_C 	C 	0.52115	0.0423	0.3165	-0.017
Mof_C 	C 	0.56303	0.12606	0.2354	0.174
Mof_C 	C 	0.58884	0.17768	0.0686	-0.011
Mof_H 	H 	0.5973	0.1946	0.0115	0.055
Mof_O 	O 	0.55055	0.1011	0.3224	-0.213
_end
