# CIF file generated by openbabel 3.1.0, see https://openbabel.org
data_I
_chemical_name_common 'image0'
_cell_length_a 22.7022
_cell_length_b 14.5656
_cell_length_c 28.2647
_cell_angle_alpha 90
_cell_angle_beta 90
_cell_angle_gamma 90
_space_group_name_H-M_alt 'P 1'
_space_group_name_Hall 'P 1'
loop_
    _symmetry_equiv_pos_as_xyz
    x,y,z
loop_
    _atom_site_label
    _atom_site_type_symbol
    _atom_site_fract_x
    _atom_site_fract_y
    _atom_site_fract_z
    _atom_site_occupancy
    C1       C        0.75790    0.98990    0.05967    1.000
    C2       C        0.71030    0.98220    0.02201    1.000
    C3       C        0.67390    0.91240    0.02025    1.000
    H1       H        0.67740    0.86420    0.04170    1.000
    C4       C        0.62940    0.91110    0.98550    1.000
    H2       H        0.60200    0.86380    0.98740    1.000
    C5       C        0.62290    0.96910    0.95133    1.000
    C6       C        0.66580    0.03080    0.94920    1.000
    H3       H        0.66720    0.06990    0.92320    1.000
    C7       C        0.70860    0.03950    0.98390    1.000
    H4       H        0.73670    0.08550    0.98110    1.000
    C8       C        0.40990    0.61970    0.93412    1.000
    C9       C        0.44749    0.70210    0.92676    1.000
    C10      C        0.47660    0.71380    0.88557    1.000
    H5       H        0.47310    0.67030    0.86160    1.000
    C11      C        0.51200    0.79160    0.87896    1.000
    H6       H        0.53120    0.79870    0.85010    1.000
    C12      C        0.51995    0.85830    0.91308    1.000
    C13      C        0.48760    0.84230    0.95404    1.000
    H7       H        0.48980    0.88560    0.97820    1.000
    C14      C        0.45260    0.76620    0.96096    1.000
    H8       H        0.43250    0.75890    0.98940    1.000
    C15      C        0.68320    0.92480    0.70763    1.000
    C16      C        0.65620    0.93650    0.75625    1.000
    C17      C        0.67620    0.89100    0.79487    1.000
    H9       H        0.70830    0.85210    0.79150    1.000
    C18      C        0.65130    0.89970    0.83829    1.000
    H10      H        0.66700    0.86660    0.86340    1.000
    C19      C        0.60397    0.95530    0.84633    1.000
    C20      C        0.58580    0.00580    0.80716    1.000
    H11      H        0.55450    0.04650    0.81050    1.000
    C21      C        0.61240    0.99730    0.76394    1.000
    H12      H        0.59990    0.03450    0.73920    1.000
    C22      C        0.39830    0.29620    0.89545    1.000
    C23      C        0.43943    0.21720    0.89880    1.000
    C24      C        0.42110    0.13080    0.88820    1.000
    H13      H        0.38230    0.12210    0.87850    1.000
    C25      C        0.45800    0.05510    0.89140    1.000
    H14      H        0.44290    0.99720    0.88470    1.000
    C26      C        0.51578    0.06330    0.90410    1.000
    C27      C        0.53310    0.14980    0.91380    1.000
    H15      H        0.57200    0.15900    0.92310    1.000
    C28      C        0.49550    0.22760    0.91070    1.000
    H16      H        0.51030    0.28590    0.91710    1.000
    Co1      Co       0.85120    0.03902    0.10788    1.000
    O1       O        0.75740    0.93460    0.09335    1.000
    O2       O        0.79484    0.05130    0.05454    1.000
    O3       O        0.39530    0.59830    0.97450    1.000
    O4       O        0.39452    0.57810    0.89758    1.000
    O5       O        0.72387    0.87030    0.70271    1.000
    O6       O        0.65913    0.96930    0.67536    1.000
    O7       O        0.34642    0.28520    0.88641    1.000
    O8       O        0.41892    0.37310    0.90455    1.000
    Si1      Si       0.56583    0.96228    0.90438    1.000
    C29      C        0.74210    0.01010    0.55967    1.000
    C30      C        0.78970    0.01780    0.52201    1.000
    C31      C        0.82610    0.08760    0.52025    1.000
    H17      H        0.82260    0.13580    0.54170    1.000
    C32      C        0.87060    0.08890    0.48550    1.000
    H18      H        0.89800    0.13620    0.48740    1.000
    C33      C        0.87710    0.03090    0.45133    1.000
    C34      C        0.83420    0.96920    0.44920    1.000
    H19      H        0.83280    0.93010    0.42320    1.000
    C35      C        0.79140    0.96050    0.48390    1.000
    H20      H        0.76330    0.91450    0.48110    1.000
    C36      C        0.09010    0.38030    0.43412    1.000
    C37      C        0.05251    0.29790    0.42676    1.000
    C38      C        0.02340    0.28620    0.38557    1.000
    H21      H        0.02690    0.32970    0.36160    1.000
    C39      C        0.98800    0.20840    0.37896    1.000
    H22      H        0.96880    0.20130    0.35010    1.000
    C40      C        0.98005    0.14170    0.41308    1.000
    C41      C        0.01240    0.15770    0.45404    1.000
    H23      H        0.01020    0.11440    0.47820    1.000
    C42      C        0.04740    0.23380    0.46096    1.000
    H24      H        0.06750    0.24110    0.48940    1.000
    C43      C        0.81680    0.07520    0.20763    1.000
    C44      C        0.84380    0.06350    0.25625    1.000
    C45      C        0.82380    0.10900    0.29487    1.000
    H25      H        0.79170    0.14790    0.29150    1.000
    C46      C        0.84870    0.10030    0.33829    1.000
    H26      H        0.83300    0.13340    0.36340    1.000
    C47      C        0.89603    0.04470    0.34633    1.000
    C48      C        0.91420    0.99420    0.30716    1.000
    H27      H        0.94550    0.95350    0.31050    1.000
    C49      C        0.88760    0.00270    0.26394    1.000
    H28      H        0.90010    0.96550    0.23920    1.000
    C50      C        0.10170    0.70380    0.39545    1.000
    C51      C        0.06057    0.78280    0.39880    1.000
    C52      C        0.07890    0.86920    0.38820    1.000
    H29      H        0.11770    0.87790    0.37850    1.000
    C53      C        0.04200    0.94490    0.39140    1.000
    H30      H        0.05710    0.00280    0.38470    1.000
    C54      C        0.98422    0.93670    0.40410    1.000
    C55      C        0.96690    0.85020    0.41380    1.000
    H31      H        0.92800    0.84100    0.42310    1.000
    C56      C        0.00450    0.77240    0.41070    1.000
    H32      H        0.98970    0.71410    0.41710    1.000
    Co2      Co       0.64880    0.96098    0.60788    1.000
    O9       O        0.74260    0.06540    0.59335    1.000
    O10      O        0.70516    0.94870    0.55454    1.000
    O11      O        0.10470    0.40170    0.47450    1.000
    O12      O        0.10548    0.42190    0.39758    1.000
    O13      O        0.77613    0.12970    0.20271    1.000
    O14      O        0.84087    0.03070    0.17536    1.000
    O15      O        0.15358    0.71480    0.38641    1.000
    O16      O        0.08108    0.62690    0.40455    1.000
    Si2      Si       0.93417    0.03772    0.40438    1.000
    C57      C        0.24210    0.48990    0.44033    1.000
    C58      C        0.28970    0.48220    0.47799    1.000
    C59      C        0.32610    0.41240    0.47975    1.000
    H33      H        0.32260    0.36420    0.45830    1.000
    C60      C        0.37060    0.41110    0.51450    1.000
    H34      H        0.39800    0.36380    0.51260    1.000
    C61      C        0.37710    0.46910    0.54867    1.000
    C62      C        0.33420    0.53080    0.55080    1.000
    H35      H        0.33280    0.56990    0.57680    1.000
    C63      C        0.29140    0.53950    0.51610    1.000
    H36      H        0.26330    0.58550    0.51890    1.000
    C64      C        0.59010    0.11970    0.56588    1.000
    C65      C        0.55251    0.20210    0.57324    1.000
    C66      C        0.52340    0.21380    0.61443    1.000
    H37      H        0.52690    0.17030    0.63840    1.000
    C67      C        0.48800    0.29160    0.62104    1.000
    H38      H        0.46880    0.29870    0.64990    1.000
    C68      C        0.48005    0.35830    0.58692    1.000
    C69      C        0.51240    0.34230    0.54596    1.000
    H39      H        0.51020    0.38560    0.52180    1.000
    C70      C        0.54740    0.26620    0.53904    1.000
    H40      H        0.56750    0.25890    0.51060    1.000
    C71      C        0.31680    0.42480    0.79237    1.000
    C72      C        0.34380    0.43650    0.74375    1.000
    C73      C        0.32380    0.39100    0.70513    1.000
    H41      H        0.29170    0.35210    0.70850    1.000
    C74      C        0.34870    0.39970    0.66171    1.000
    H42      H        0.33300    0.36660    0.63660    1.000
    C75      C        0.39603    0.45530    0.65367    1.000
    C76      C        0.41420    0.50580    0.69284    1.000
    H43      H        0.44550    0.54650    0.68950    1.000
    C77      C        0.38760    0.49730    0.73606    1.000
    H44      H        0.40010    0.53450    0.76080    1.000
    C78      C        0.60170    0.79620    0.60455    1.000
    C79      C        0.56057    0.71720    0.60120    1.000
    C80      C        0.57890    0.63080    0.61180    1.000
    H45      H        0.61770    0.62210    0.62150    1.000
    C81      C        0.54200    0.55510    0.60860    1.000
    H46      H        0.55710    0.49720    0.61530    1.000
    C82      C        0.48422    0.56330    0.59590    1.000
    C83      C        0.46690    0.64980    0.58620    1.000
    H47      H        0.42800    0.65900    0.57690    1.000
    C84      C        0.50450    0.72760    0.58930    1.000
    H48      H        0.48970    0.78590    0.58290    1.000
    Co3      Co       0.14880    0.53902    0.39212    1.000
    O17      O        0.24260    0.43460    0.40665    1.000
    O18      O        0.20516    0.55130    0.44546    1.000
    O19      O        0.60470    0.09830    0.52550    1.000
    O20      O        0.60548    0.07810    0.60242    1.000
    O21      O        0.27613    0.37030    0.79729    1.000
    O22      O        0.34087    0.46930    0.82464    1.000
    O23      O        0.65358    0.78520    0.61359    1.000
    O24      O        0.58108    0.87310    0.59545    1.000
    Si3      Si       0.43417    0.46228    0.59562    1.000
    C85      C        0.25790    0.51010    0.94033    1.000
    C86      C        0.21030    0.51780    0.97799    1.000
    C87      C        0.17390    0.58760    0.97975    1.000
    H49      H        0.17740    0.63580    0.95830    1.000
    C88      C        0.12940    0.58890    0.01450    1.000
    H50      H        0.10200    0.63620    0.01260    1.000
    C89      C        0.12290    0.53090    0.04867    1.000
    C90      C        0.16580    0.46920    0.05080    1.000
    H51      H        0.16720    0.43010    0.07680    1.000
    C91      C        0.20860    0.46050    0.01610    1.000
    H52      H        0.23670    0.41450    0.01890    1.000
    C92      C        0.90990    0.88030    0.06588    1.000
    C93      C        0.94749    0.79790    0.07324    1.000
    C94      C        0.97660    0.78620    0.11443    1.000
    H53      H        0.97310    0.82970    0.13840    1.000
    C95      C        0.01200    0.70840    0.12104    1.000
    H54      H        0.03120    0.70130    0.14990    1.000
    C96      C        0.01995    0.64170    0.08692    1.000
    C97      C        0.98760    0.65770    0.04596    1.000
    H55      H        0.98980    0.61440    0.02180    1.000
    C98      C        0.95260    0.73380    0.03904    1.000
    H56      H        0.93250    0.74110    0.01060    1.000
    C99      C        0.18320    0.57520    0.29237    1.000
    C100     C        0.15620    0.56350    0.24375    1.000
    C101     C        0.17620    0.60900    0.20513    1.000
    H57      H        0.20830    0.64790    0.20850    1.000
    C102     C        0.15130    0.60030    0.16171    1.000
    H58      H        0.16700    0.63340    0.13660    1.000
    C103     C        0.10397    0.54470    0.15367    1.000
    C104     C        0.08580    0.49420    0.19284    1.000
    H59      H        0.05450    0.45350    0.18950    1.000
    C105     C        0.11240    0.50270    0.23606    1.000
    H60      H        0.09990    0.46550    0.26080    1.000
    C106     C        0.89830    0.20380    0.10455    1.000
    C107     C        0.93943    0.28280    0.10120    1.000
    C108     C        0.92110    0.36920    0.11180    1.000
    H61      H        0.88230    0.37790    0.12150    1.000
    C109     C        0.95800    0.44490    0.10860    1.000
    H62      H        0.94290    0.50280    0.11530    1.000
    C110     C        0.01578    0.43670    0.09590    1.000
    C111     C        0.03310    0.35020    0.08620    1.000
    H63      H        0.07200    0.34100    0.07690    1.000
    C112     C        0.99550    0.27240    0.08930    1.000
    H64      H        0.01030    0.21410    0.08290    1.000
    Co4      Co       0.35120    0.46098    0.89212    1.000
    O25      O        0.25740    0.56540    0.90665    1.000
    O26      O        0.29484    0.44870    0.94546    1.000
    O27      O        0.89530    0.90170    0.02550    1.000
    O28      O        0.89452    0.92190    0.10242    1.000
    O29      O        0.22387    0.62970    0.29729    1.000
    O30      O        0.15913    0.53070    0.32464    1.000
    O31      O        0.84642    0.21480    0.11359    1.000
    O32      O        0.91892    0.12690    0.09545    1.000
    Si4      Si       0.06583    0.53772    0.09562    1.000
    C113     C        0.24210    0.01010    0.94033    1.000
    C114     C        0.28970    0.01780    0.97799    1.000
    C115     C        0.32610    0.08760    0.97975    1.000
    H65      H        0.32260    0.13580    0.95830    1.000
    C116     C        0.37060    0.08890    0.01450    1.000
    H66      H        0.39800    0.13620    0.01260    1.000
    C117     C        0.37710    0.03090    0.04867    1.000
    C118     C        0.33420    0.96920    0.05080    1.000
    H67      H        0.33280    0.93010    0.07680    1.000
    C119     C        0.29140    0.96050    0.01610    1.000
    H68      H        0.26330    0.91450    0.01890    1.000
    C120     C        0.59010    0.38030    0.06588    1.000
    C121     C        0.55251    0.29790    0.07324    1.000
    C122     C        0.52340    0.28620    0.11443    1.000
    H69      H        0.52690    0.32970    0.13840    1.000
    C123     C        0.48800    0.20840    0.12104    1.000
    H70      H        0.46880    0.20130    0.14990    1.000
    C124     C        0.48005    0.14170    0.08692    1.000
    C125     C        0.51240    0.15770    0.04596    1.000
    H71      H        0.51020    0.11440    0.02180    1.000
    C126     C        0.54740    0.23380    0.03904    1.000
    H72      H        0.56750    0.24110    0.01060    1.000
    C127     C        0.31680    0.07520    0.29237    1.000
    C128     C        0.34380    0.06350    0.24375    1.000
    C129     C        0.32380    0.10900    0.20513    1.000
    H73      H        0.29170    0.14790    0.20850    1.000
    C130     C        0.34870    0.10030    0.16171    1.000
    H74      H        0.33300    0.13340    0.13660    1.000
    C131     C        0.39603    0.04470    0.15367    1.000
    C132     C        0.41420    0.99420    0.19284    1.000
    H75      H        0.44550    0.95350    0.18950    1.000
    C133     C        0.38760    0.00270    0.23606    1.000
    H76      H        0.40010    0.96550    0.26080    1.000
    C134     C        0.60170    0.70380    0.10455    1.000
    C135     C        0.56057    0.78280    0.10120    1.000
    C136     C        0.57890    0.86920    0.11180    1.000
    H77      H        0.61770    0.87790    0.12150    1.000
    C137     C        0.54200    0.94490    0.10860    1.000
    H78      H        0.55710    0.00280    0.11530    1.000
    C138     C        0.48422    0.93670    0.09590    1.000
    C139     C        0.46690    0.85020    0.08620    1.000
    H79      H        0.42800    0.84100    0.07690    1.000
    C140     C        0.50450    0.77240    0.08930    1.000
    H80      H        0.48970    0.71410    0.08290    1.000
    Co5      Co       0.14880    0.96098    0.89212    1.000
    O33      O        0.24260    0.06540    0.90665    1.000
    O34      O        0.20516    0.94870    0.94546    1.000
    O35      O        0.60470    0.40170    0.02550    1.000
    O36      O        0.60548    0.42190    0.10242    1.000
    O37      O        0.27613    0.12970    0.29729    1.000
    O38      O        0.34087    0.03070    0.32464    1.000
    O39      O        0.65358    0.71480    0.11359    1.000
    O40      O        0.58108    0.62690    0.09545    1.000
    Si5      Si       0.43417    0.03772    0.09562    1.000
    C141     C        0.25790    0.98990    0.44033    1.000
    C142     C        0.21030    0.98220    0.47799    1.000
    C143     C        0.17390    0.91240    0.47975    1.000
    H81      H        0.17740    0.86420    0.45830    1.000
    C144     C        0.12940    0.91110    0.51450    1.000
    H82      H        0.10200    0.86380    0.51260    1.000
    C145     C        0.12290    0.96910    0.54867    1.000
    C146     C        0.16580    0.03080    0.55080    1.000
    H83      H        0.16720    0.06990    0.57680    1.000
    C147     C        0.20860    0.03950    0.51610    1.000
    H84      H        0.23670    0.08550    0.51890    1.000
    C148     C        0.90990    0.61970    0.56588    1.000
    C149     C        0.94749    0.70210    0.57324    1.000
    C150     C        0.97660    0.71380    0.61443    1.000
    H85      H        0.97310    0.67030    0.63840    1.000
    C151     C        0.01200    0.79160    0.62104    1.000
    H86      H        0.03120    0.79870    0.64990    1.000
    C152     C        0.01995    0.85830    0.58692    1.000
    C153     C        0.98760    0.84230    0.54596    1.000
    H87      H        0.98980    0.88560    0.52180    1.000
    C154     C        0.95260    0.76620    0.53904    1.000
    H88      H        0.93250    0.75890    0.51060    1.000
    C155     C        0.18320    0.92480    0.79237    1.000
    C156     C        0.15620    0.93650    0.74375    1.000
    C157     C        0.17620    0.89100    0.70513    1.000
    H89      H        0.20830    0.85210    0.70850    1.000
    C158     C        0.15130    0.89970    0.66171    1.000
    H90      H        0.16700    0.86660    0.63660    1.000
    C159     C        0.10397    0.95530    0.65367    1.000
    C160     C        0.08580    0.00580    0.69284    1.000
    H91      H        0.05450    0.04650    0.68950    1.000
    C161     C        0.11240    0.99730    0.73606    1.000
    H92      H        0.09990    0.03450    0.76080    1.000
    C162     C        0.89830    0.29620    0.60455    1.000
    C163     C        0.93943    0.21720    0.60120    1.000
    C164     C        0.92110    0.13080    0.61180    1.000
    H93      H        0.88230    0.12210    0.62150    1.000
    C165     C        0.95800    0.05510    0.60860    1.000
    H94      H        0.94290    0.99720    0.61530    1.000
    C166     C        0.01578    0.06330    0.59590    1.000
    C167     C        0.03310    0.14980    0.58620    1.000
    H95      H        0.07200    0.15900    0.57690    1.000
    C168     C        0.99550    0.22760    0.58930    1.000
    H96      H        0.01030    0.28590    0.58290    1.000
    Co6      Co       0.35120    0.03902    0.39212    1.000
    O41      O        0.25740    0.93460    0.40665    1.000
    O42      O        0.29484    0.05130    0.44546    1.000
    O43      O        0.89530    0.59830    0.52550    1.000
    O44      O        0.89452    0.57810    0.60242    1.000
    O45      O        0.22387    0.87030    0.79729    1.000
    O46      O        0.15913    0.96930    0.82464    1.000
    O47      O        0.84642    0.28520    0.61359    1.000
    O48      O        0.91892    0.37310    0.59545    1.000
    Si6      Si       0.06583    0.96228    0.59562    1.000
    C169     C        0.75790    0.51010    0.55967    1.000
    C170     C        0.71030    0.51780    0.52201    1.000
    C171     C        0.67390    0.58760    0.52025    1.000
    H97      H        0.67740    0.63580    0.54170    1.000
    C172     C        0.62940    0.58890    0.48550    1.000
    H98      H        0.60200    0.63620    0.48740    1.000
    C173     C        0.62290    0.53090    0.45133    1.000
    C174     C        0.66580    0.46920    0.44920    1.000
    H99      H        0.66720    0.43010    0.42320    1.000
    C175     C        0.70860    0.46050    0.48390    1.000
    H100     H        0.73670    0.41450    0.48110    1.000
    C176     C        0.40990    0.88030    0.43412    1.000
    C177     C        0.44749    0.79790    0.42676    1.000
    C178     C        0.47660    0.78620    0.38557    1.000
    H101     H        0.47310    0.82970    0.36160    1.000
    C179     C        0.51200    0.70840    0.37896    1.000
    H102     H        0.53120    0.70130    0.35010    1.000
    C180     C        0.51995    0.64170    0.41308    1.000
    C181     C        0.48760    0.65770    0.45404    1.000
    H103     H        0.48980    0.61440    0.47820    1.000
    C182     C        0.45260    0.73380    0.46096    1.000
    H104     H        0.43250    0.74110    0.48940    1.000
    C183     C        0.68320    0.57520    0.20763    1.000
    C184     C        0.65620    0.56350    0.25625    1.000
    C185     C        0.67620    0.60900    0.29487    1.000
    H105     H        0.70830    0.64790    0.29150    1.000
    C186     C        0.65130    0.60030    0.33829    1.000
    H106     H        0.66700    0.63340    0.36340    1.000
    C187     C        0.60397    0.54470    0.34633    1.000
    C188     C        0.58580    0.49420    0.30716    1.000
    H107     H        0.55450    0.45350    0.31050    1.000
    C189     C        0.61240    0.50270    0.26394    1.000
    H108     H        0.59990    0.46550    0.23920    1.000
    C190     C        0.39830    0.20380    0.39545    1.000
    C191     C        0.43943    0.28280    0.39880    1.000
    C192     C        0.42110    0.36920    0.38820    1.000
    H109     H        0.38230    0.37790    0.37850    1.000
    C193     C        0.45800    0.44490    0.39140    1.000
    H110     H        0.44290    0.50280    0.38470    1.000
    C194     C        0.51578    0.43670    0.40410    1.000
    C195     C        0.53310    0.35020    0.41380    1.000
    H111     H        0.57200    0.34100    0.42310    1.000
    C196     C        0.49550    0.27240    0.41070    1.000
    H112     H        0.51030    0.21410    0.41710    1.000
    Co7      Co       0.85120    0.46098    0.60788    1.000
    O49      O        0.75740    0.56540    0.59335    1.000
    O50      O        0.79484    0.44870    0.55454    1.000
    O51      O        0.39530    0.90170    0.47450    1.000
    O52      O        0.39452    0.92190    0.39758    1.000
    O53      O        0.72387    0.62970    0.20271    1.000
    O54      O        0.65913    0.53070    0.17536    1.000
    O55      O        0.34642    0.21480    0.38641    1.000
    O56      O        0.41892    0.12690    0.40455    1.000
    Si7      Si       0.56583    0.53772    0.40438    1.000
    C197     C        0.74210    0.48990    0.05967    1.000
    C198     C        0.78970    0.48220    0.02201    1.000
    C199     C        0.82610    0.41240    0.02025    1.000
    H113     H        0.82260    0.36420    0.04170    1.000
    C200     C        0.87060    0.41110    0.98550    1.000
    H114     H        0.89800    0.36380    0.98740    1.000
    C201     C        0.87710    0.46910    0.95133    1.000
    C202     C        0.83420    0.53080    0.94920    1.000
    H115     H        0.83280    0.56990    0.92320    1.000
    C203     C        0.79140    0.53950    0.98390    1.000
    H116     H        0.76330    0.58550    0.98110    1.000
    C204     C        0.09010    0.11970    0.93412    1.000
    C205     C        0.05251    0.20210    0.92676    1.000
    C206     C        0.02340    0.21380    0.88557    1.000
    H117     H        0.02690    0.17030    0.86160    1.000
    C207     C        0.98800    0.29160    0.87896    1.000
    H118     H        0.96880    0.29870    0.85010    1.000
    C208     C        0.98005    0.35830    0.91308    1.000
    C209     C        0.01240    0.34230    0.95404    1.000
    H119     H        0.01020    0.38560    0.97820    1.000
    C210     C        0.04740    0.26620    0.96096    1.000
    H120     H        0.06750    0.25890    0.98940    1.000
    C211     C        0.81680    0.42480    0.70763    1.000
    C212     C        0.84380    0.43650    0.75625    1.000
    C213     C        0.82380    0.39100    0.79487    1.000
    H121     H        0.79170    0.35210    0.79150    1.000
    C214     C        0.84870    0.39970    0.83829    1.000
    H122     H        0.83300    0.36660    0.86340    1.000
    C215     C        0.89603    0.45530    0.84633    1.000
    C216     C        0.91420    0.50580    0.80716    1.000
    H123     H        0.94550    0.54650    0.81050    1.000
    C217     C        0.88760    0.49730    0.76394    1.000
    H124     H        0.90010    0.53450    0.73920    1.000
    C218     C        0.10170    0.79620    0.89545    1.000
    C219     C        0.06057    0.71720    0.89880    1.000
    C220     C        0.07890    0.63080    0.88820    1.000
    H125     H        0.11770    0.62210    0.87850    1.000
    C221     C        0.04200    0.55510    0.89140    1.000
    H126     H        0.05710    0.49720    0.88470    1.000
    C222     C        0.98422    0.56330    0.90410    1.000
    C223     C        0.96690    0.64980    0.91380    1.000
    H127     H        0.92800    0.65900    0.92310    1.000
    C224     C        0.00450    0.72760    0.91070    1.000
    H128     H        0.98970    0.78590    0.91710    1.000
    Co8      Co       0.64880    0.53902    0.10788    1.000
    O57      O        0.74260    0.43460    0.09335    1.000
    O58      O        0.70516    0.55130    0.05454    1.000
    O59      O        0.10470    0.09830    0.97450    1.000
    O60      O        0.10548    0.07810    0.89758    1.000
    O61      O        0.77613    0.37030    0.70271    1.000
    O62      O        0.84087    0.46930    0.67536    1.000
    O63      O        0.15358    0.78520    0.88641    1.000
    O64      O        0.08108    0.87310    0.90455    1.000
    Si8      Si       0.93417    0.46228    0.90438    1.000
