data_functionalizedCrystal
_audit_creation_method	'EQeq! by Chris Wilmer'
_symmetry_space_group_name_H-M	'P1'
_symmetry_Int_Tables_number	1
_symmetry_cell_setting	triclinic
loop_
_symmetry_equiv_pos_as_xyz
  x,y,z
_cell_length_a	10.2364
_cell_length_b	10.2364
_cell_length_c	28.109
_cell_angle_alpha	90
_cell_angle_beta	90
_cell_angle_gamma	90
loop_
_atom_site_label
_atom_site_type_symbol
_atom_site_fract_x
_atom_site_fract_y
_atom_site_fract_z
_atom_site_charge
Mof_Ag	Ag	0.80322	0.60615	0.5164	0.508
Mof_N 	N 	0.9636	0.8108	0.7269	-0.198
Mof_N 	N 	0.9562	0.7521	0.52959	-0.186
Mof_O 	O 	0.7402	0.788	0.5845	-0.278
Mof_C 	C 	0.9541	0.7921	0.68016	0.034
Mof_H 	H 	0.0154	0.7391	0.6652	0.01
Mof_C 	C 	0.8564	0.8486	0.65286	-0.066
Mof_C 	C 	0.7661	0.929	0.6743	0.013
Mof_H 	H 	0.6987	0.9665	0.6568	0.022
Mof_C 	C 	0.7782	0.9527	0.72274	-0.116
Mof_H 	H 	0.7203	0.0086	0.7381	0.055
Mof_C 	C 	0.8764	0.8928	0.74756	0.06
Mof_H 	H 	0.8835	0.909	0.78	-0.011
Mof_C 	C 	0.8448	0.8152	0.60149	0.124
Mof_C 	C 	0.9632	0.8215	0.57032	0.046
Mof_C 	C 	0.0657	0.9033	0.58033	-0.112
Mof_H 	H 	0.0698	0.9462	0.6095	0.06
Mof_C 	C 	0.1633	0.9217	0.54666	0.04
Mof_H 	H 	0.2328	0.9781	0.5524	0.002
Mof_C 	C 	0.154	0.8545	0.5049	-0.125
Mof_H 	H 	0.2165	0.8665	0.4813	0.059
Mof_C 	C 	0.052	0.7687	0.49763	0.073
Mof_H 	H 	0.0496	0.7206	0.4696	-0.01
Mof_Ag	Ag	0.19678	0.39385	0.0164	0.508
Mof_N 	N 	0.0364	0.1892	0.2269	-0.198
Mof_N 	N 	0.0438	0.2479	0.02959	-0.186
Mof_O 	O 	0.2598	0.212	0.0845	-0.278
Mof_C 	C 	0.0459	0.2079	0.18016	0.034
Mof_H 	H 	0.9846	0.2609	0.1652	0.01
Mof_C 	C 	0.1436	0.1514	0.15286	-0.066
Mof_C 	C 	0.2339	0.071	0.1743	0.013
Mof_H 	H 	0.3013	0.0335	0.1568	0.022
Mof_C 	C 	0.2218	0.0473	0.22274	-0.116
Mof_H 	H 	0.2797	0.9914	0.2381	0.055
Mof_C 	C 	0.1236	0.1072	0.24756	0.06
Mof_H 	H 	0.1165	0.091	0.28	-0.011
Mof_C 	C 	0.1552	0.1848	0.10149	0.124
Mof_C 	C 	0.0368	0.1785	0.07032	0.045
Mof_C 	C 	0.9343	0.0967	0.08033	-0.111
Mof_H 	H 	0.9302	0.0538	0.1095	0.059
Mof_C 	C 	0.8367	0.0783	0.04666	0.038
Mof_H 	H 	0.7672	0.0219	0.0524	0.002
Mof_C 	C 	0.846	0.1455	0.0049	-0.123
Mof_H 	H 	0.7835	0.1335	0.9813	0.058
Mof_C 	C 	0.948	0.2313	0.99763	0.071
Mof_H 	H 	0.9504	0.2794	0.9696	-0.01
Mof_Ag	Ag	0.89385	0.30322	0.2664	0.507
Mof_N 	N 	0.6892	0.4636	0.4769	-0.198
Mof_N 	N 	0.7479	0.4562	0.27959	-0.186
Mof_O 	O 	0.712	0.2402	0.3345	-0.279
Mof_C 	C 	0.7079	0.4541	0.43016	0.031
Mof_H 	H 	0.7609	0.5154	0.4152	0.012
Mof_C 	C 	0.6514	0.3564	0.40286	-0.066
Mof_C 	C 	0.571	0.2661	0.4243	0.014
Mof_H 	H 	0.5335	0.1987	0.4068	0.021
Mof_C 	C 	0.5473	0.2782	0.47274	-0.117
Mof_H 	H 	0.4914	0.2203	0.4881	0.056
Mof_C 	C 	0.6072	0.3764	0.49756	0.061
Mof_H 	H 	0.591	0.3835	0.53	-0.012
Mof_C 	C 	0.6848	0.3448	0.35149	0.124
Mof_C 	C 	0.6785	0.4632	0.32032	0.043
Mof_C 	C 	0.5967	0.5657	0.33033	-0.109
Mof_H 	H 	0.5538	0.5698	0.3595	0.059
Mof_C 	C 	0.5783	0.6633	0.29666	0.039
Mof_H 	H 	0.5219	0.7328	0.3024	0.002
Mof_C 	C 	0.6455	0.654	0.2549	-0.125
Mof_H 	H 	0.6335	0.7165	0.2313	0.059
Mof_C 	C 	0.7313	0.552	0.24763	0.073
Mof_H 	H 	0.7794	0.5496	0.2196	-0.011
Mof_Ag	Ag	0.10615	0.69678	0.7664	0.507
Mof_N 	N 	0.3108	0.5364	0.9769	-0.198
Mof_N 	N 	0.2521	0.5438	0.77959	-0.186
Mof_O 	O 	0.288	0.7598	0.8345	-0.279
Mof_C 	C 	0.2921	0.5459	0.93016	0.031
Mof_H 	H 	0.2391	0.4846	0.9152	0.012
Mof_C 	C 	0.3486	0.6436	0.90286	-0.066
Mof_C 	C 	0.429	0.7339	0.9243	0.014
Mof_H 	H 	0.4665	0.8013	0.9068	0.021
Mof_C 	C 	0.4527	0.7218	0.97274	-0.117
Mof_H 	H 	0.5086	0.7797	0.9881	0.056
Mof_C 	C 	0.3928	0.6236	0.99756	0.061
Mof_H 	H 	0.409	0.6165	0.03	-0.012
Mof_C 	C 	0.3152	0.6552	0.85149	0.124
Mof_C 	C 	0.3215	0.5368	0.82032	0.043
Mof_C 	C 	0.4033	0.4343	0.83033	-0.109
Mof_H 	H 	0.4462	0.4302	0.8595	0.059
Mof_C 	C 	0.4217	0.3367	0.79666	0.039
Mof_H 	H 	0.4781	0.2672	0.8024	0.002
Mof_C 	C 	0.3545	0.346	0.7549	-0.125
Mof_H 	H 	0.3665	0.2835	0.7313	0.059
Mof_C 	C 	0.2687	0.448	0.74763	0.073
Mof_H 	H 	0.2206	0.4504	0.7196	-0.011
Mof_Ag	Ag	0.69678	0.10615	0.2336	0.507
Mof_N 	N 	0.5364	0.3108	0.0231	-0.198
Mof_N 	N 	0.5438	0.2521	0.22041	-0.186
Mof_O 	O 	0.7598	0.288	0.1655	-0.279
Mof_C 	C 	0.5459	0.2921	0.06984	0.031
Mof_H 	H 	0.4846	0.2391	0.0848	0.012
Mof_C 	C 	0.6436	0.3486	0.09714	-0.066
Mof_C 	C 	0.7339	0.429	0.0757	0.014
Mof_H 	H 	0.8013	0.4665	0.0932	0.021
Mof_C 	C 	0.7218	0.4527	0.02726	-0.117
Mof_H 	H 	0.7797	0.5086	0.0119	0.056
Mof_C 	C 	0.6236	0.3928	0.00244	0.061
Mof_H 	H 	0.6165	0.409	0.97	-0.012
Mof_C 	C 	0.6552	0.3152	0.14851	0.124
Mof_C 	C 	0.5368	0.3215	0.17968	0.043
Mof_C 	C 	0.4343	0.4033	0.16967	-0.109
Mof_H 	H 	0.4302	0.4462	0.1405	0.059
Mof_C 	C 	0.3367	0.4217	0.20334	0.039
Mof_H 	H 	0.2672	0.4781	0.1976	0.002
Mof_C 	C 	0.346	0.3545	0.2451	-0.125
Mof_H 	H 	0.2835	0.3665	0.2687	0.059
Mof_C 	C 	0.448	0.2687	0.25237	0.073
Mof_H 	H 	0.4504	0.2206	0.2804	-0.011
Mof_Ag	Ag	0.30322	0.89385	0.7336	0.507
Mof_N 	N 	0.4636	0.6892	0.5231	-0.198
Mof_N 	N 	0.4562	0.7479	0.72041	-0.186
Mof_O 	O 	0.2402	0.712	0.6655	-0.279
Mof_C 	C 	0.4541	0.7079	0.56984	0.031
Mof_H 	H 	0.5154	0.7609	0.5848	0.012
Mof_C 	C 	0.3564	0.6514	0.59714	-0.066
Mof_C 	C 	0.2661	0.571	0.5757	0.014
Mof_H 	H 	0.1987	0.5335	0.5932	0.021
Mof_C 	C 	0.2782	0.5473	0.52726	-0.117
Mof_H 	H 	0.2203	0.4914	0.5119	0.056
Mof_C 	C 	0.3764	0.6072	0.50244	0.061
Mof_H 	H 	0.3835	0.591	0.47	-0.012
Mof_C 	C 	0.3448	0.6848	0.64851	0.124
Mof_C 	C 	0.4632	0.6785	0.67968	0.043
Mof_C 	C 	0.5657	0.5967	0.66967	-0.109
Mof_H 	H 	0.5698	0.5538	0.6405	0.059
Mof_C 	C 	0.6633	0.5783	0.70334	0.039
Mof_H 	H 	0.7328	0.5219	0.6976	0.002
Mof_C 	C 	0.654	0.6455	0.7451	-0.125
Mof_H 	H 	0.7165	0.6335	0.7687	0.059
Mof_C 	C 	0.552	0.7313	0.75237	0.073
Mof_H 	H 	0.5496	0.7794	0.7804	-0.011
Mof_Ag	Ag	0.60615	0.80322	0.4836	0.508
Mof_N 	N 	0.8108	0.9636	0.2731	-0.198
Mof_N 	N 	0.7521	0.9562	0.47041	-0.186
Mof_O 	O 	0.788	0.7402	0.4155	-0.278
Mof_C 	C 	0.7921	0.9541	0.31984	0.034
Mof_H 	H 	0.7391	0.0154	0.3348	0.01
Mof_C 	C 	0.8486	0.8564	0.34714	-0.066
Mof_C 	C 	0.929	0.7661	0.3257	0.013
Mof_H 	H 	0.9665	0.6987	0.3432	0.022
Mof_C 	C 	0.9527	0.7782	0.27726	-0.116
Mof_H 	H 	0.0086	0.7203	0.2619	0.055
Mof_C 	C 	0.8928	0.8764	0.25244	0.06
Mof_H 	H 	0.909	0.8835	0.22	-0.011
Mof_C 	C 	0.8152	0.8448	0.39851	0.124
Mof_C 	C 	0.8215	0.9632	0.42968	0.046
Mof_C 	C 	0.9033	0.0657	0.41967	-0.112
Mof_H 	H 	0.9462	0.0698	0.3905	0.06
Mof_C 	C 	0.9217	0.1633	0.45334	0.04
Mof_H 	H 	0.9781	0.2328	0.4476	0.002
Mof_C 	C 	0.8545	0.154	0.4951	-0.125
Mof_H 	H 	0.8665	0.2165	0.5187	0.059
Mof_C 	C 	0.7687	0.052	0.50237	0.073
Mof_H 	H 	0.7206	0.0496	0.5304	-0.01
Mof_Ag	Ag	0.39385	0.19678	0.9836	0.508
Mof_N 	N 	0.1892	0.0364	0.7731	-0.198
Mof_N 	N 	0.2479	0.0438	0.97041	-0.186
Mof_O 	O 	0.212	0.2598	0.9155	-0.278
Mof_C 	C 	0.2079	0.0459	0.81984	0.034
Mof_H 	H 	0.2609	0.9846	0.8348	0.01
Mof_C 	C 	0.1514	0.1436	0.84714	-0.066
Mof_C 	C 	0.071	0.2339	0.8257	0.013
Mof_H 	H 	0.0335	0.3013	0.8432	0.022
Mof_C 	C 	0.0473	0.2218	0.77726	-0.116
Mof_H 	H 	0.9914	0.2797	0.7619	0.055
Mof_C 	C 	0.1072	0.1236	0.75244	0.06
Mof_H 	H 	0.091	0.1165	0.72	-0.011
Mof_C 	C 	0.1848	0.1552	0.89851	0.124
Mof_C 	C 	0.1785	0.0368	0.92968	0.045
Mof_C 	C 	0.0967	0.9343	0.91967	-0.111
Mof_H 	H 	0.0538	0.9302	0.8905	0.059
Mof_C 	C 	0.0783	0.8367	0.95334	0.038
Mof_H 	H 	0.0219	0.7672	0.9476	0.002
Mof_C 	C 	0.1455	0.846	0.9951	-0.123
Mof_H 	H 	0.1335	0.7835	0.0187	0.058
Mof_C 	C 	0.2313	0.948	0.00237	0.071
Mof_H 	H 	0.2794	0.9504	0.0304	-0.01
_end
