data_functionalizedCrystal
_audit_creation_method	'EQeq! by Chris Wilmer'
_symmetry_space_group_name_H-M	'P1'
_symmetry_Int_Tables_number	1
_symmetry_cell_setting	triclinic
loop_
_symmetry_equiv_pos_as_xyz
  x,y,z
_cell_length_a	9.572
_cell_length_b	17.717
_cell_length_c	13.715
_cell_angle_alpha	90
_cell_angle_beta	90
_cell_angle_gamma	90
loop_
_atom_site_label
_atom_site_type_symbol
_atom_site_fract_x
_atom_site_fract_y
_atom_site_fract_z
_atom_site_charge
Mof_O 	O 	0.7383	0.7854	0.874	-0.294
Mof_O 	O 	0.8479	0.7926	0.734	-0.302
Mof_C 	C 	0.739	0.8017	0.7853	0.387
Mof_C 	C 	0.6116	0.8356	0.7387	-0.435
Mof_H 	H 	0.5284	0.8175	0.7716	0.157
Mof_H 	H 	0.6065	0.8202	0.6709	0.156
Mof_C 	C 	0.6175	0.9217	0.7447	0.155
Mof_C 	C 	0.6177	0.9568	0.8334	-0.112
Mof_H 	H 	0.6162	0.9282	0.8903	0.077
Mof_C 	C 	0.6201	0.965	0.6608	-0.103
Mof_H 	H 	0.6235	0.9415	0.6002	0.059
Mof_N 	N 	0.9293	0.6268	0.8444	0.079
Mof_C 	C 	0.7024	0.6096	0.0869	0.371
Mof_H 	H 	0.7625	0.6505	0.0808	-0.083
Mof_C 	C 	0.0084	0.5685	0.8794	0.052
Mof_H 	H 	0.0978	0.5824	0.8992	0.023
Mof_C 	C 	0.9798	0.4953	0.8902	-0.065
Mof_H 	H 	0.0419	0.4606	0.917	0.044
Mof_C 	C 	0.8518	0.477	0.8581	-0.119
Mof_C 	C 	0.7598	0.5326	0.823	0.187
Mof_H 	H 	0.6702	0.5197	0.8029	-0.035
Mof_C 	C 	0.6774	0.477	0.0762	0.217
Mof_C 	C 	0.7586	0.5392	0.0706	-0.394
Mof_H 	H 	0.853	0.5344	0.0557	0.167
Mof_C 	C 	0.8036	0.6047	0.819	-0.281
Mof_H 	H 	0.7411	0.641	0.7968	0.119
Mof_N 	N 	0.5735	0.6245	0.11	-0.264
Mof_C 	C 	0.7277	0.3875	0.948	-0.098
Mof_H 	H 	0.6768	0.3406	0.9393	0.052
Mof_H 	H 	0.6588	0.4274	0.9431	0.044
Mof_C 	C 	0.8103	0.3946	0.8641	-0.14
Mof_H 	H 	0.7577	0.38	0.8066	0.076
Mof_H 	H 	0.8925	0.3628	0.8688	0.09
Mof_O 	O 	0.2383	0.2854	0.374	-0.296
Mof_O 	O 	0.3479	0.2926	0.234	-0.305
Mof_C 	C 	0.239	0.3017	0.2853	0.387
Mof_C 	C 	0.1116	0.3356	0.2387	-0.431
Mof_H 	H 	0.0284	0.3175	0.2716	0.152
Mof_H 	H 	0.1065	0.3202	0.1709	0.152
Mof_C 	C 	0.1175	0.4217	0.2447	0.152
Mof_C 	C 	0.1177	0.4568	0.3334	-0.113
Mof_H 	H 	0.1162	0.4282	0.3903	0.075
Mof_C 	C 	0.1201	0.465	0.1608	-0.104
Mof_H 	H 	0.1235	0.4415	0.1002	0.058
Mof_N 	N 	0.4293	0.1268	0.3444	0.104
Mof_C 	C 	0.2024	0.1096	0.5869	0.437
Mof_H 	H 	0.2625	0.1505	0.5808	-0.107
Mof_C 	C 	0.5084	0.0685	0.3794	0.115
Mof_H 	H 	0.5978	0.0824	0.3992	0.004
Mof_C 	C 	0.4798	0.9953	0.3902	-0.128
Mof_H 	H 	0.5419	0.9606	0.417	0.072
Mof_C 	C 	0.3518	0.977	0.3581	-0.136
Mof_C 	C 	0.2598	0.0326	0.323	0.232
Mof_H 	H 	0.1702	0.0197	0.3029	-0.052
Mof_C 	C 	0.1774	0.977	0.5762	0.252
Mof_C 	C 	0.2586	0.0392	0.5706	-0.451
Mof_H 	H 	0.353	0.0344	0.5557	0.184
Mof_C 	C 	0.3036	0.1047	0.319	-0.343
Mof_H 	H 	0.2411	0.141	0.2968	0.138
Mof_N 	N 	0.0735	0.1245	0.61	-0.308
Mof_C 	C 	0.2277	0.8875	0.448	-0.105
Mof_H 	H 	0.1768	0.8406	0.4393	0.052
Mof_H 	H 	0.1588	0.9274	0.4431	0.042
Mof_C 	C 	0.3103	0.8946	0.3641	-0.141
Mof_H 	H 	0.2577	0.88	0.3066	0.076
Mof_H 	H 	0.3925	0.8628	0.3688	0.087
Mof_O 	O 	0.7617	0.2146	0.374	-0.294
Mof_O 	O 	0.6521	0.2074	0.234	-0.306
Mof_C 	C 	0.761	0.1983	0.2853	0.391
Mof_C 	C 	0.8884	0.1644	0.2387	-0.439
Mof_H 	H 	0.9716	0.1825	0.2716	0.162
Mof_H 	H 	0.8935	0.1798	0.1709	0.159
Mof_C 	C 	0.8825	0.0783	0.2447	0.158
Mof_C 	C 	0.8823	0.0432	0.3334	-0.111
Mof_H 	H 	0.8838	0.0718	0.3903	0.079
Mof_C 	C 	0.8799	0.035	0.1608	-0.102
Mof_H 	H 	0.8765	0.0585	0.1002	0.059
Mof_N 	N 	0.5707	0.3732	0.3444	0.092
Mof_C 	C 	0.7976	0.3904	0.5869	0.325
Mof_H 	H 	0.7375	0.3495	0.5808	-0.069
Mof_C 	C 	0.4916	0.4315	0.3794	0.121
Mof_H 	H 	0.4022	0.4176	0.3992	0.002
Mof_C 	C 	0.5202	0.5047	0.3902	-0.141
Mof_H 	H 	0.4581	0.5394	0.417	0.077
Mof_C 	C 	0.6482	0.523	0.3581	-0.106
Mof_C 	C 	0.7402	0.4674	0.323	0.203
Mof_H 	H 	0.8298	0.4803	0.3029	-0.038
Mof_C 	C 	0.8226	0.523	0.5762	0.199
Mof_C 	C 	0.7414	0.4608	0.5706	-0.351
Mof_H 	H 	0.647	0.4656	0.5557	0.149
Mof_C 	C 	0.6964	0.3953	0.319	-0.317
Mof_H 	H 	0.7589	0.359	0.2968	0.132
Mof_N 	N 	0.9265	0.3755	0.61	-0.228
Mof_C 	C 	0.7723	0.6125	0.448	-0.091
Mof_H 	H 	0.8232	0.6594	0.4393	0.052
Mof_H 	H 	0.8412	0.5726	0.4431	0.044
Mof_C 	C 	0.6897	0.6054	0.3641	-0.158
Mof_H 	H 	0.7423	0.62	0.3066	0.082
Mof_H 	H 	0.6075	0.6372	0.3688	0.092
Mof_O 	O 	0.2617	0.7146	0.874	-0.296
Mof_O 	O 	0.1521	0.7074	0.734	-0.307
Mof_C 	C 	0.261	0.6983	0.7853	0.389
Mof_C 	C 	0.3884	0.6644	0.7387	-0.435
Mof_H 	H 	0.4716	0.6825	0.7716	0.157
Mof_H 	H 	0.3935	0.6798	0.6709	0.156
Mof_C 	C 	0.3825	0.5783	0.7447	0.154
Mof_C 	C 	0.3823	0.5432	0.8334	-0.113
Mof_H 	H 	0.3838	0.5718	0.8903	0.077
Mof_C 	C 	0.3799	0.535	0.6608	-0.103
Mof_H 	H 	0.3765	0.5585	0.6002	0.059
Mof_N 	N 	0.0707	0.8732	0.8444	0.119
Mof_C 	C 	0.2976	0.8904	0.0869	0.391
Mof_H 	H 	0.2375	0.8495	0.0808	-0.093
Mof_C 	C 	0.9916	0.9315	0.8794	0.181
Mof_H 	H 	0.9022	0.9176	0.8992	-0.016
Mof_C 	C 	0.0202	0.0047	0.8902	-0.201
Mof_H 	H 	0.9581	0.0394	0.917	0.105
Mof_C 	C 	0.1482	0.023	0.8581	-0.122
Mof_C 	C 	0.2402	0.9674	0.823	0.248
Mof_H 	H 	0.3298	0.9803	0.8029	-0.056
Mof_C 	C 	0.3226	0.023	0.0762	0.235
Mof_C 	C 	0.2414	0.9608	0.0706	-0.409
Mof_H 	H 	0.147	0.9656	0.0557	0.167
Mof_C 	C 	0.1964	0.8953	0.819	-0.379
Mof_H 	H 	0.2589	0.859	0.7968	0.152
Mof_N 	N 	0.4265	0.8755	0.11	-0.273
Mof_C 	C 	0.2723	0.1125	0.948	-0.095
Mof_H 	H 	0.3232	0.1594	0.9393	0.051
Mof_H 	H 	0.3412	0.0726	0.9431	0.04
Mof_C 	C 	0.1897	0.1054	0.8641	-0.16
Mof_H 	H 	0.2423	0.12	0.8066	0.083
Mof_H 	H 	0.1075	0.1372	0.8688	0.09
Mof_O 	O 	0.2617	0.2854	0.626	-0.296
Mof_O 	O 	0.1521	0.2926	0.766	-0.308
Mof_C 	C 	0.261	0.3017	0.7147	0.389
Mof_C 	C 	0.3884	0.3356	0.7613	-0.435
Mof_H 	H 	0.4716	0.3175	0.7284	0.157
Mof_H 	H 	0.3935	0.3202	0.8291	0.156
Mof_C 	C 	0.3825	0.4217	0.7553	0.154
Mof_C 	C 	0.3823	0.4568	0.6666	-0.113
Mof_H 	H 	0.3838	0.4282	0.6097	0.077
Mof_C 	C 	0.3799	0.465	0.8392	-0.103
Mof_H 	H 	0.3765	0.4415	0.8998	0.059
Mof_N 	N 	0.0707	0.1268	0.6556	0.119
Mof_C 	C 	0.2976	0.1096	0.4131	0.391
Mof_H 	H 	0.2375	0.1505	0.4192	-0.093
Mof_C 	C 	0.9916	0.0685	0.6206	0.181
Mof_H 	H 	0.9022	0.0824	0.6008	-0.016
Mof_C 	C 	0.0202	0.9953	0.6098	-0.201
Mof_H 	H 	0.9581	0.9606	0.583	0.105
Mof_C 	C 	0.1482	0.977	0.6419	-0.123
Mof_C 	C 	0.2402	0.0326	0.677	0.248
Mof_H 	H 	0.3298	0.0197	0.6971	-0.055
Mof_C 	C 	0.3226	0.977	0.4238	0.235
Mof_C 	C 	0.2414	0.0392	0.4294	-0.409
Mof_H 	H 	0.147	0.0344	0.4443	0.167
Mof_C 	C 	0.1964	0.1047	0.681	-0.378
Mof_H 	H 	0.2589	0.141	0.7032	0.152
Mof_N 	N 	0.4265	0.1245	0.39	-0.273
Mof_C 	C 	0.2723	0.8875	0.552	-0.094
Mof_H 	H 	0.3232	0.8406	0.5607	0.051
Mof_H 	H 	0.3412	0.9274	0.5569	0.04
Mof_C 	C 	0.1897	0.8946	0.6359	-0.16
Mof_H 	H 	0.2423	0.88	0.6934	0.083
Mof_H 	H 	0.1075	0.8628	0.6312	0.09
Mof_O 	O 	0.7617	0.7854	0.126	-0.294
Mof_O 	O 	0.6521	0.7926	0.266	-0.306
Mof_C 	C 	0.761	0.8017	0.2147	0.391
Mof_C 	C 	0.8884	0.8356	0.2613	-0.439
Mof_H 	H 	0.9716	0.8175	0.2284	0.162
Mof_H 	H 	0.8935	0.8202	0.3291	0.159
Mof_C 	C 	0.8825	0.9217	0.2553	0.158
Mof_C 	C 	0.8823	0.9568	0.1666	-0.112
Mof_H 	H 	0.8838	0.9282	0.1097	0.079
Mof_C 	C 	0.8799	0.965	0.3392	-0.102
Mof_H 	H 	0.8765	0.9415	0.3998	0.06
Mof_N 	N 	0.5707	0.6268	0.1556	0.092
Mof_C 	C 	0.7976	0.6096	0.9131	0.325
Mof_H 	H 	0.7375	0.6505	0.9192	-0.069
Mof_C 	C 	0.4916	0.5685	0.1206	0.121
Mof_H 	H 	0.4022	0.5824	0.1008	0.002
Mof_C 	C 	0.5202	0.4953	0.1098	-0.14
Mof_H 	H 	0.4581	0.4606	0.083	0.077
Mof_C 	C 	0.6482	0.477	0.1419	-0.106
Mof_C 	C 	0.7402	0.5326	0.177	0.203
Mof_H 	H 	0.8298	0.5197	0.1971	-0.038
Mof_C 	C 	0.8226	0.477	0.9238	0.199
Mof_C 	C 	0.7414	0.5392	0.9294	-0.351
Mof_H 	H 	0.647	0.5344	0.9443	0.149
Mof_C 	C 	0.6964	0.6047	0.181	-0.317
Mof_H 	H 	0.7589	0.641	0.2032	0.132
Mof_N 	N 	0.9265	0.6245	0.89	-0.228
Mof_C 	C 	0.7723	0.3875	0.052	-0.092
Mof_H 	H 	0.8232	0.3406	0.0607	0.053
Mof_H 	H 	0.8412	0.4274	0.0569	0.044
Mof_C 	C 	0.6897	0.3946	0.1359	-0.157
Mof_H 	H 	0.7423	0.38	0.1934	0.082
Mof_H 	H 	0.6075	0.3628	0.1312	0.092
Mof_O 	O 	0.2383	0.7146	0.126	-0.296
Mof_O 	O 	0.3479	0.7074	0.266	-0.305
Mof_C 	C 	0.239	0.6983	0.2147	0.387
Mof_C 	C 	0.1116	0.6644	0.2613	-0.431
Mof_H 	H 	0.0284	0.6825	0.2284	0.152
Mof_H 	H 	0.1065	0.6798	0.3291	0.152
Mof_C 	C 	0.1175	0.5783	0.2553	0.152
Mof_C 	C 	0.1177	0.5432	0.1666	-0.112
Mof_H 	H 	0.1162	0.5718	0.1097	0.075
Mof_C 	C 	0.1201	0.535	0.3392	-0.104
Mof_H 	H 	0.1235	0.5585	0.3998	0.058
Mof_N 	N 	0.4293	0.8732	0.1556	0.104
Mof_C 	C 	0.2024	0.8904	0.9131	0.437
Mof_H 	H 	0.2625	0.8495	0.9192	-0.107
Mof_C 	C 	0.5084	0.9315	0.1206	0.114
Mof_H 	H 	0.5978	0.9176	0.1008	0.004
Mof_C 	C 	0.4798	0.0047	0.1098	-0.128
Mof_H 	H 	0.5419	0.0394	0.083	0.072
Mof_C 	C 	0.3518	0.023	0.1419	-0.136
Mof_C 	C 	0.2598	0.9674	0.177	0.231
Mof_H 	H 	0.1702	0.9803	0.1971	-0.052
Mof_C 	C 	0.1774	0.023	0.9238	0.252
Mof_C 	C 	0.2586	0.9608	0.9294	-0.451
Mof_H 	H 	0.353	0.9656	0.9443	0.184
Mof_C 	C 	0.3036	0.8953	0.181	-0.343
Mof_H 	H 	0.2411	0.859	0.2032	0.138
Mof_N 	N 	0.0735	0.8755	0.89	-0.308
Mof_C 	C 	0.2277	0.1125	0.052	-0.105
Mof_H 	H 	0.1768	0.1594	0.0607	0.052
Mof_H 	H 	0.1588	0.0726	0.0569	0.042
Mof_C 	C 	0.3103	0.1054	0.1359	-0.141
Mof_H 	H 	0.2577	0.12	0.1934	0.076
Mof_H 	H 	0.3925	0.1372	0.1312	0.087
Mof_O 	O 	0.7383	0.2146	0.626	-0.293
Mof_O 	O 	0.8479	0.2074	0.766	-0.301
Mof_C 	C 	0.739	0.1983	0.7147	0.388
Mof_C 	C 	0.6116	0.1644	0.7613	-0.434
Mof_H 	H 	0.5284	0.1825	0.7284	0.156
Mof_H 	H 	0.6065	0.1798	0.8291	0.155
Mof_C 	C 	0.6175	0.0783	0.7553	0.155
Mof_C 	C 	0.6177	0.0432	0.6666	-0.111
Mof_H 	H 	0.6162	0.0718	0.6097	0.077
Mof_C 	C 	0.6201	0.035	0.8392	-0.103
Mof_H 	H 	0.6235	0.0585	0.8998	0.058
Mof_N 	N 	0.9293	0.3732	0.6556	0.079
Mof_C 	C 	0.7024	0.3904	0.4131	0.372
Mof_H 	H 	0.7625	0.3495	0.4192	-0.083
Mof_C 	C 	0.0084	0.4315	0.6206	0.053
Mof_H 	H 	0.0978	0.4176	0.6008	0.023
Mof_C 	C 	0.9798	0.5047	0.6098	-0.066
Mof_H 	H 	0.0419	0.5394	0.583	0.044
Mof_C 	C 	0.8518	0.523	0.6419	-0.119
Mof_C 	C 	0.7598	0.4674	0.677	0.187
Mof_H 	H 	0.6702	0.4803	0.6971	-0.035
Mof_C 	C 	0.6774	0.523	0.4238	0.217
Mof_C 	C 	0.7586	0.4608	0.4294	-0.394
Mof_H 	H 	0.853	0.4656	0.4443	0.167
Mof_C 	C 	0.8036	0.3953	0.681	-0.281
Mof_H 	H 	0.7411	0.359	0.7032	0.119
Mof_N 	N 	0.5735	0.3755	0.39	-0.264
Mof_C 	C 	0.7277	0.6125	0.552	-0.099
Mof_H 	H 	0.6768	0.6594	0.5607	0.053
Mof_H 	H 	0.6588	0.5726	0.5569	0.045
Mof_C 	C 	0.8103	0.6054	0.6359	-0.14
Mof_H 	H 	0.7577	0.62	0.6934	0.076
Mof_H 	H 	0.8925	0.6372	0.6312	0.09
Mof_Cd	Cd	3.71545e-32	0.75	0.85525	0.413
Mof_Cd	Cd	0.5	0.25	0.35525	0.423
Mof_Cd	Cd	-7.38955e-33	0.25	0.64475	0.413
Mof_Cd	Cd	0.5	0.75	0.14475	0.423
_end
