data_functionalizedCrystal
_audit_creation_method	'EQeq! by Chris Wilmer'
_symmetry_space_group_name_H-M	'P1'
_symmetry_Int_Tables_number	1
_symmetry_cell_setting	triclinic
loop_
_symmetry_equiv_pos_as_xyz
  x,y,z
_cell_length_a	10.8546
_cell_length_b	23.6261
_cell_length_c	9.6799
_cell_angle_alpha	90
_cell_angle_beta	104.14
_cell_angle_gamma	90
loop_
_atom_site_label
_atom_site_type_symbol
_atom_site_fract_x
_atom_site_fract_y
_atom_site_fract_z
_atom_site_charge
Mof_Cd	Cd	0.31934	0.10554	0.47238	0.433
Mof_O 	O 	0.16405	0.04458	0.36101	-0.282
Mof_O 	O 	0.23175	0.09961	0.21045	-0.277
Mof_C 	C 	0.16382	0.0603	0.23581	0.289
Mof_C 	C 	0.07842	0.02922	0.11325	-0.055
Mof_C 	C 	0.98632	0.99202	0.13789	-0.025
Mof_H 	H 	0.9769	0.9866	0.232	0.048
Mof_C 	C 	0.09155	0.03711	0.97468	-0.027
Mof_H 	H 	0.154	0.0625	0.9574	0.052
Mof_O 	O 	0.4235	0.0336	0.61964	-0.268
Mof_O 	O 	0.33006	0.09829	0.72234	-0.277
Mof_C 	C 	0.39694	0.05461	0.72827	0.286
Mof_C 	C 	0.44928	0.02613	0.86914	-0.053
Mof_C 	C 	0.52082	0.97671	0.87554	-0.024
Mof_H 	H 	0.5352	0.9609	0.7906	0.063
Mof_C 	C 	0.42909	0.0494	0.99476	-0.024
Mof_H 	H 	0.3809	0.0832	0.9911	0.056
Mof_N 	N 	0.51175	0.12191	0.43047	-0.14
Mof_N 	N 	0.70227	0.1005	0.40508	-0.113
Mof_N 	N 	0.12782	0.22991	0.91998	-0.118
Mof_N 	N 	0.24848	0.30551	0.96919	-0.147
Mof_C 	C 	0.60985	0.08712	0.46913	0.088
Mof_H 	H 	0.6141	0.0566	0.534	0.033
Mof_C 	C 	0.54424	0.15923	0.3362	0.012
Mof_H 	H 	0.4921	0.1892	0.2895	0.03
Mof_C 	C 	0.66168	0.1468	0.3199	-0.006
Mof_H 	H 	0.7068	0.1661	0.2616	0.035
Mof_C 	C 	0.82476	0.07157	0.4252	-0.042
Mof_H 	H 	0.8357	0.0586	0.3317	0.052
Mof_H 	H 	0.8255	0.0378	0.486	0.065
Mof_C 	C 	0.93461	0.11011	0.4942	-0.114
Mof_H 	H 	0.9392	0.1416	0.428	0.065
Mof_H 	H 	0.0149	0.0884	0.5096	0.072
Mof_C 	C 	0.92315	0.13472	0.63587	-0.056
Mof_H 	H 	0.9106	0.1035	0.6992	0.051
Mof_H 	H 	0.8473	0.1594	0.6193	0.051
Mof_C 	C 	0.04011	0.16894	0.7103	-0.139
Mof_H 	H 	0.116	0.1442	0.7301	0.087
Mof_H 	H 	0.0541	0.2	0.6471	0.079
Mof_C 	C 	0.02212	0.19343	0.8487	-0.021
Mof_H 	H 	0.9424	0.2156	0.8289	0.037
Mof_H 	H 	0.0135	0.1621	0.9135	0.044
Mof_C 	C 	0.22376	0.21661	0.0366	-0.015
Mof_H 	H 	0.2365	0.1816	0.0861	0.058
Mof_C 	C 	0.29645	0.26368	0.0666	0.017
Mof_H 	H 	0.3697	0.2673	0.1433	0.03
Mof_C 	C 	0.14675	0.28339	0.88283	0.086
Mof_H 	H 	0.0937	0.3028	0.8045	0.007
Mof_Cd	Cd	0.68066	0.60554	0.02762	0.432
Mof_O 	O 	0.83595	0.54458	0.13899	-0.283
Mof_O 	O 	0.76825	0.59961	0.28955	-0.278
Mof_C 	C 	0.83618	0.5603	0.26419	0.288
Mof_C 	C 	0.92158	0.52922	0.38675	-0.056
Mof_C 	C 	0.01368	0.49202	0.36211	-0.026
Mof_H 	H 	0.0231	0.4866	0.268	0.048
Mof_C 	C 	0.90845	0.53711	0.52532	-0.027
Mof_H 	H 	0.846	0.5625	0.5426	0.052
Mof_O 	O 	0.5765	0.5336	0.88036	-0.268
Mof_O 	O 	0.66994	0.59829	0.77766	-0.277
Mof_C 	C 	0.60306	0.55461	0.77173	0.286
Mof_C 	C 	0.55072	0.52613	0.63086	-0.053
Mof_C 	C 	0.47918	0.47671	0.62446	-0.023
Mof_H 	H 	0.4648	0.4609	0.7094	0.063
Mof_C 	C 	0.57091	0.5494	0.50524	-0.024
Mof_H 	H 	0.6191	0.5832	0.5089	0.056
Mof_N 	N 	0.48825	0.62191	0.06953	-0.14
Mof_N 	N 	0.29773	0.6005	0.09492	-0.113
Mof_N 	N 	0.87218	0.72991	0.58002	-0.118
Mof_N 	N 	0.75152	0.80551	0.53081	-0.147
Mof_C 	C 	0.39015	0.58712	0.03087	0.088
Mof_H 	H 	0.3859	0.5566	0.966	0.033
Mof_C 	C 	0.45576	0.65923	0.1638	0.012
Mof_H 	H 	0.5079	0.6892	0.2105	0.03
Mof_C 	C 	0.33832	0.6468	0.1801	-0.006
Mof_H 	H 	0.2932	0.6661	0.2384	0.035
Mof_C 	C 	0.17524	0.57157	0.0748	-0.042
Mof_H 	H 	0.1643	0.5586	0.1683	0.052
Mof_H 	H 	0.1745	0.5378	0.014	0.066
Mof_C 	C 	0.06539	0.61011	0.0058	-0.113
Mof_H 	H 	0.0608	0.6416	0.072	0.065
Mof_H 	H 	0.9851	0.5884	0.9904	0.071
Mof_C 	C 	0.07685	0.63472	0.86413	-0.056
Mof_H 	H 	0.0894	0.6035	0.8008	0.051
Mof_H 	H 	0.1527	0.6594	0.8807	0.051
Mof_C 	C 	0.95989	0.66894	0.7897	-0.139
Mof_H 	H 	0.884	0.6442	0.7699	0.087
Mof_H 	H 	0.9459	0.7	0.8529	0.079
Mof_C 	C 	0.97788	0.69343	0.6513	-0.021
Mof_H 	H 	0.0576	0.7156	0.6711	0.037
Mof_H 	H 	0.9865	0.6621	0.5865	0.044
Mof_C 	C 	0.77624	0.71661	0.4634	-0.014
Mof_H 	H 	0.7635	0.6816	0.4139	0.058
Mof_C 	C 	0.70355	0.76368	0.4334	0.017
Mof_H 	H 	0.6303	0.7673	0.3567	0.03
Mof_C 	C 	0.85325	0.78339	0.61717	0.086
Mof_H 	H 	0.9063	0.8028	0.6955	0.007
Mof_Cd	Cd	0.68066	0.89446	0.52762	0.432
Mof_O 	O 	0.83595	0.95542	0.63899	-0.283
Mof_O 	O 	0.76825	0.90039	0.78955	-0.278
Mof_C 	C 	0.83618	0.9397	0.76419	0.288
Mof_C 	C 	0.92158	0.97078	0.88675	-0.056
Mof_C 	C 	0.01368	0.00798	0.86211	-0.026
Mof_H 	H 	0.0231	0.0134	0.768	0.048
Mof_C 	C 	0.90845	0.96289	0.02532	-0.027
Mof_H 	H 	0.846	0.9375	0.0426	0.052
Mof_O 	O 	0.5765	0.9664	0.38036	-0.268
Mof_O 	O 	0.66994	0.90171	0.27766	-0.277
Mof_C 	C 	0.60306	0.94539	0.27173	0.286
Mof_C 	C 	0.55072	0.97387	0.13086	-0.053
Mof_C 	C 	0.47918	0.02329	0.12446	-0.024
Mof_H 	H 	0.4648	0.0391	0.2094	0.063
Mof_C 	C 	0.57091	0.9506	0.00524	-0.024
Mof_H 	H 	0.6191	0.9168	0.0089	0.056
Mof_N 	N 	0.48825	0.87809	0.56953	-0.14
Mof_N 	N 	0.29773	0.8995	0.59492	-0.113
Mof_N 	N 	0.87218	0.77009	0.08002	-0.118
Mof_N 	N 	0.75152	0.69449	0.03081	-0.147
Mof_C 	C 	0.39015	0.91288	0.53087	0.088
Mof_H 	H 	0.3859	0.9434	0.466	0.033
Mof_C 	C 	0.45576	0.84077	0.6638	0.012
Mof_H 	H 	0.5079	0.8108	0.7105	0.03
Mof_C 	C 	0.33832	0.8532	0.6801	-0.006
Mof_H 	H 	0.2932	0.8339	0.7384	0.035
Mof_C 	C 	0.17524	0.92843	0.5748	-0.042
Mof_H 	H 	0.1643	0.9414	0.6683	0.052
Mof_H 	H 	0.1745	0.9622	0.514	0.065
Mof_C 	C 	0.06539	0.88989	0.5058	-0.114
Mof_H 	H 	0.0608	0.8584	0.572	0.065
Mof_H 	H 	0.9851	0.9116	0.4904	0.072
Mof_C 	C 	0.07685	0.86528	0.36413	-0.056
Mof_H 	H 	0.0894	0.8965	0.3008	0.051
Mof_H 	H 	0.1527	0.8406	0.3807	0.051
Mof_C 	C 	0.95989	0.83106	0.2897	-0.139
Mof_H 	H 	0.884	0.8558	0.2699	0.087
Mof_H 	H 	0.9459	0.8	0.3529	0.079
Mof_C 	C 	0.97788	0.80657	0.1513	-0.021
Mof_H 	H 	0.0576	0.7844	0.1711	0.037
Mof_H 	H 	0.9865	0.8379	0.0865	0.044
Mof_C 	C 	0.77624	0.78339	0.9634	-0.015
Mof_H 	H 	0.7635	0.8184	0.9139	0.058
Mof_C 	C 	0.70355	0.73632	0.9334	0.017
Mof_H 	H 	0.6303	0.7327	0.8567	0.03
Mof_C 	C 	0.85325	0.71661	0.11717	0.086
Mof_H 	H 	0.9063	0.6972	0.1955	0.007
Mof_Cd	Cd	0.31934	0.39446	0.97238	0.432
Mof_O 	O 	0.16405	0.45542	0.86101	-0.283
Mof_O 	O 	0.23175	0.40039	0.71045	-0.278
Mof_C 	C 	0.16382	0.4397	0.73581	0.288
Mof_C 	C 	0.07842	0.47078	0.61325	-0.056
Mof_C 	C 	0.98632	0.50798	0.63789	-0.026
Mof_H 	H 	0.9769	0.5134	0.732	0.048
Mof_C 	C 	0.09155	0.46289	0.47468	-0.027
Mof_H 	H 	0.154	0.4375	0.4574	0.052
Mof_O 	O 	0.4235	0.4664	0.11964	-0.268
Mof_O 	O 	0.33006	0.40171	0.22234	-0.277
Mof_C 	C 	0.39694	0.44539	0.22827	0.286
Mof_C 	C 	0.44928	0.47387	0.36914	-0.053
Mof_C 	C 	0.52082	0.52329	0.37554	-0.023
Mof_H 	H 	0.5352	0.5391	0.2906	0.063
Mof_C 	C 	0.42909	0.4506	0.49476	-0.024
Mof_H 	H 	0.3809	0.4168	0.4911	0.056
Mof_N 	N 	0.51175	0.37809	0.93047	-0.14
Mof_N 	N 	0.70227	0.3995	0.90508	-0.113
Mof_N 	N 	0.12782	0.27009	0.41998	-0.118
Mof_N 	N 	0.24848	0.19449	0.46919	-0.147
Mof_C 	C 	0.60985	0.41288	0.96913	0.088
Mof_H 	H 	0.6141	0.4434	0.034	0.033
Mof_C 	C 	0.54424	0.34077	0.8362	0.012
Mof_H 	H 	0.4921	0.3108	0.7895	0.03
Mof_C 	C 	0.66168	0.3532	0.8199	-0.006
Mof_H 	H 	0.7068	0.3339	0.7616	0.035
Mof_C 	C 	0.82476	0.42843	0.9252	-0.042
Mof_H 	H 	0.8357	0.4414	0.8317	0.052
Mof_H 	H 	0.8255	0.4622	0.986	0.066
Mof_C 	C 	0.93461	0.38989	0.9942	-0.113
Mof_H 	H 	0.9392	0.3584	0.928	0.065
Mof_H 	H 	0.0149	0.4116	0.0096	0.071
Mof_C 	C 	0.92315	0.36528	0.13587	-0.056
Mof_H 	H 	0.9106	0.3965	0.1992	0.051
Mof_H 	H 	0.8473	0.3406	0.1193	0.051
Mof_C 	C 	0.04011	0.33106	0.2103	-0.139
Mof_H 	H 	0.116	0.3558	0.2301	0.087
Mof_H 	H 	0.0541	0.3	0.1471	0.079
Mof_C 	C 	0.02212	0.30657	0.3487	-0.021
Mof_H 	H 	0.9424	0.2844	0.3289	0.037
Mof_H 	H 	0.0135	0.3379	0.4135	0.044
Mof_C 	C 	0.22376	0.28339	0.5366	-0.014
Mof_H 	H 	0.2365	0.3184	0.5861	0.058
Mof_C 	C 	0.29645	0.23632	0.5666	0.017
Mof_H 	H 	0.3697	0.2327	0.6433	0.03
Mof_C 	C 	0.14675	0.21661	0.38283	0.086
Mof_H 	H 	0.0937	0.1972	0.3045	0.007
_end
