# CIF file generated by openbabel 3.1.0, see https://openbabel.org
data_I
_chemical_name_common 'image0'
_cell_length_a 9.124
_cell_length_b 9.124
_cell_length_c 11.335
_cell_angle_alpha 90
_cell_angle_beta 90
_cell_angle_gamma 90
_space_group_name_H-M_alt 'P 1'
_space_group_name_Hall 'P 1'
loop_
    _symmetry_equiv_pos_as_xyz
    x,y,z
loop_
    _atom_site_label
    _atom_site_type_symbol
    _atom_site_fract_x
    _atom_site_fract_y
    _atom_site_fract_z
    _atom_site_occupancy
    C1       C        0.27400    0.13900    0.11600    1.000
    C2       C        0.52900    0.25800    0.91800    1.000
    C3       C        0.72600    0.86100    0.61600    1.000
    C4       C        0.47100    0.74200    0.41800    1.000
    C5       C        0.36100    0.77400    0.36600    1.000
    C6       C        0.24200    0.02900    0.16800    1.000
    C7       C        0.63900    0.22600    0.86600    1.000
    C8       C        0.75800    0.97100    0.66800    1.000
    C9       C        0.22600    0.63900    0.13400    1.000
    C10      C        0.97100    0.75800    0.33200    1.000
    C11      C        0.77400    0.36100    0.63400    1.000
    C12      C        0.02900    0.24200    0.83200    1.000
    C13      C        0.13900    0.27400    0.88400    1.000
    C14      C        0.25800    0.52900    0.08200    1.000
    C15      C        0.86100    0.72600    0.38400    1.000
    C16      C        0.74200    0.47100    0.58200    1.000
    Cd1      Cd       0.31790    0.31790    0.00000    1.000
    Cd2      Cd       0.68210    0.68210    0.50000    1.000
    Cd3      Cd       0.18210    0.81790    0.25000    1.000
    Cd4      Cd       0.81790    0.18210    0.75000    1.000
