data_functionalizedCrystal
_audit_creation_method	'EQeq! by Chris Wilmer'
_symmetry_space_group_name_H-M	'P1'
_symmetry_Int_Tables_number	1
_symmetry_cell_setting	triclinic
loop_
_symmetry_equiv_pos_as_xyz
  x,y,z
_cell_length_a	11.6384
_cell_length_b	21.052
_cell_length_c	24.247
_cell_angle_alpha	114.959
_cell_angle_beta	102.95
_cell_angle_gamma	92.406
loop_
_atom_site_label
_atom_site_type_symbol
_atom_site_fract_x
_atom_site_fract_y
_atom_site_fract_z
_atom_site_charge
Mof_Mn	Mn	0.42036	0.17038	0.34079	1.009
Mof_Mn	Mn	0.66444	0.23569	0.29297	0.867
Mof_Mn	Mn	0.12852	0.05723	0.29299	0.864
Mof_Mn	Mn	0.87264	0.1227	0.24541	0.808
Mof_S 	S 	0.8431	0.46766	0.70245	0.251
Mof_S 	S 	0.34519	0.78946	0.08094	0.255
Mof_S 	S 	0.6407	0.76506	0.29748	0.249
Mof_S 	S 	0.23579	0.29147	0.081	0.257
Mof_O 	O 	0.5822	0.2112	0.4129	-0.381
Mof_O 	O 	0.6691	0.7985	0.5869	-0.381
Mof_O 	O 	0.428	0.0662	0.33573	-0.387
Mof_O 	O 	0.592	0.7305	0.66402	-0.388
Mof_O 	O 	0.244	0.12251	0.26355	-0.42
Mof_O 	O 	0.5187	0.14077	0.26379	-0.417
Mof_O 	O 	0.7131	0.2711	0.39004	-0.42
Mof_O 	O 	0.4601	0.6953	0.70373	-0.379
Mof_O 	O 	0.3422	0.7839	0.80114	-0.396
Mof_O 	O 	0.6938	0.1092	0.25592	-0.435
Mof_O 	O 	0.8229	0.8817	0.61014	-0.423
Mof_O 	O 	0.256	0.9908	0.29612	-0.377
Mof_O 	O 	0.9582	0.0176	0.8013	-0.382
Mof_O 	O 	0.0623	0.1468	0.25585	-0.436
Mof_O 	O 	0.19	0.8404	0.82249	-0.389
Mof_O 	O 	0.132	0.9814	0.82238	-0.385
Mof_O 	O 	0.9696	0.4958	0.7161	-0.19
Mof_O 	O 	0.805	0.4387	0.74	-0.186
Mof_O 	O 	0.4305	0.7428	0.08515	-0.183
Mof_O 	O 	0.2304	0.7791	0.0918	-0.196
Mof_O 	O 	0.7524	0.7787	0.2837	-0.192
Mof_O 	O 	0.5658	0.6981	0.2592	-0.185
Mof_O 	O 	0.3609	0.3124	0.09177	-0.198
Mof_O 	O 	0.1545	0.3423	0.08512	-0.184
Mof_C 	C 	0.6674	0.2605	0.4275	0.397
Mof_C 	C 	0.718	0.3071	0.4967	-0.127
Mof_C 	C 	0.8106	0.3625	0.5169	0.043
Mof_H 	H 	0.8456	0.3681	0.488	0.026
Mof_C 	C 	0.8502	0.4094	0.5805	-0.093
Mof_H 	H 	0.9121	0.4463	0.5937	0.076
Mof_C 	C 	0.8012	0.4029	0.6239	0.025
Mof_C 	C 	0.7104	0.347	0.604	-0.095
Mof_H 	H 	0.6768	0.3413	0.6333	0.081
Mof_C 	C 	0.6695	0.2997	0.5408	0.046
Mof_H 	H 	0.6085	0.2624	0.5279	0.031
Mof_C 	C 	0.7564	0.5336	0.7009	0.038
Mof_C 	C 	0.8048	0.5859	0.6842	-0.11
Mof_H 	H 	0.8805	0.5863	0.6776	0.079
Mof_C 	C 	0.7354	0.6336	0.6786	0.067
Mof_H 	H 	0.7633	0.6663	0.6664	0.02
Mof_C 	C 	0.626	0.6359	0.6902	-0.142
Mof_C 	C 	0.5851	0.5878	0.7066	0.067
Mof_H 	H 	0.5112	0.5895	0.7155	0.033
Mof_C 	C 	0.6517	0.5349	0.7109	-0.109
Mof_H 	H 	0.6205	0.501	0.7209	0.095
Mof_C 	C 	0.5539	0.6909	0.6847	0.398
Mof_C 	C 	0.5823	0.0925	0.243	0.381
Mof_C 	C 	0.5223	0.0168	0.2054	-0.138
Mof_C 	C 	0.4017	0.0005	0.1875	0.054
Mof_H 	H 	0.3554	0.0364	0.1992	0.026
Mof_C 	C 	0.3471	0.9305	0.1519	-0.098
Mof_H 	H 	0.2645	0.9194	0.1414	0.083
Mof_C 	C 	0.4148	0.8774	0.1319	0.025
Mof_C 	C 	0.5399	0.8945	0.1494	-0.1
Mof_H 	H 	0.5865	0.8588	0.1367	0.086
Mof_C 	C 	0.5921	0.9628	0.1847	0.051
Mof_H 	H 	0.6746	0.9742	0.1954	0.021
Mof_C 	C 	0.3215	0.7879	0.0054	0.03
Mof_C 	C 	0.2269	0.821	0.9874	-0.099
Mof_H 	H 	0.1756	0.8393	0.0128	0.077
Mof_C 	C 	0.2128	0.8254	0.9324	0.046
Mof_H 	H 	0.1497	0.8461	0.9196	0.032
Mof_C 	C 	0.2898	0.8	0.8941	-0.121
Mof_C 	C 	0.3807	0.7665	0.9122	0.046
Mof_H 	H 	0.431	0.7473	0.8865	0.042
Mof_C 	C 	0.3962	0.7616	0.9683	-0.097
Mof_H 	H 	0.4584	0.7402	0.9809	0.096
Mof_C 	C 	0.2728	0.8075	0.8336	0.395
Mof_C 	C 	0.3683	0.0063	0.315	0.397
Mof_C 	C 	0.4354	0.9456	0.3092	-0.139
Mof_C 	C 	0.3785	0.882	0.2947	0.067
Mof_H 	H 	0.2962	0.8754	0.2882	0.033
Mof_C 	C 	0.4406	0.8245	0.2889	-0.11
Mof_H 	H 	0.3989	0.7803	0.2776	0.095
Mof_C 	C 	0.5557	0.833	0.2993	0.039
Mof_C 	C 	0.62	0.901	0.3152	-0.113
Mof_H 	H 	0.7023	0.9079	0.3214	0.079
Mof_C 	C 	0.5567	0.954	0.3207	0.068
Mof_H 	H 	0.5974	0.9988	0.3329	0.02
Mof_C 	C 	0.6768	0.7794	0.3771	0.03
Mof_C 	C 	0.6067	0.7427	0.3964	-0.102
Mof_H 	H 	0.5446	0.7073	0.3668	0.083
Mof_C 	C 	0.6278	0.7581	0.4583	0.051
Mof_H 	H 	0.5794	0.7335	0.4708	0.029
Mof_C 	C 	0.7212	0.8102	0.5031	-0.126
Mof_C 	C 	0.7937	0.8457	0.4827	0.047
Mof_H 	H 	0.8572	0.8805	0.5117	0.024
Mof_C 	C 	0.7708	0.829	0.4203	-0.1
Mof_H 	H 	0.8203	0.8519	0.4068	0.077
Mof_C 	C 	0.7404	0.8335	0.5729	0.398
Mof_C 	C 	0.1614	0.1515	0.2437	0.386
Mof_C 	C 	0.1836	0.1883	0.2047	-0.147
Mof_C 	C 	0.0927	0.2217	0.1844	0.058
Mof_H 	H 	0.0207	0.2207	0.1949	0.019
Mof_C 	C 	0.1107	0.2553	0.1495	-0.109
Mof_H 	H 	0.052	0.2787	0.1369	0.09
Mof_C 	C 	0.2169	0.2548	0.1324	0.033
Mof_C 	C 	0.3035	0.2213	0.1521	-0.111
Mof_H 	H 	0.3754	0.2216	0.1414	0.087
Mof_C 	C 	0.2857	0.1874	0.1874	0.069
Mof_H 	H 	0.3444	0.1637	0.1995	0.02
Mof_C 	C 	0.1843	0.2174	0.0056	0.018
Mof_C 	C 	0.0709	0.2065	0.9685	-0.081
Mof_H 	H 	0.0208	0.2401	0.9809	0.09
Mof_C 	C 	0.0313	0.1453	0.9123	0.024
Mof_H 	H 	0.9551	0.1383	0.8864	0.051
Mof_C 	C 	0.105	0.0944	0.8947	-0.103
Mof_C 	C 	0.2199	0.1066	0.932	0.03
Mof_H 	H 	0.2701	0.0732	0.9192	0.036
Mof_C 	C 	0.2605	0.166	0.9863	-0.083
Mof_H 	H 	0.3379	0.1733	0.0112	0.07
Mof_C 	C 	0.0614	0.0256	0.8338	0.375
Mof_Mn	Mn	0.57964	0.82962	0.65921	1.008
Mof_Mn	Mn	0.33556	0.76431	0.70703	0.866
Mof_Mn	Mn	0.87148	0.94277	0.70701	0.863
Mof_Mn	Mn	0.12736	0.8773	0.75459	0.807
Mof_S 	S 	0.1569	0.53234	0.29755	0.25
Mof_S 	S 	0.65481	0.21054	0.91906	0.254
Mof_S 	S 	0.3593	0.23494	0.70252	0.249
Mof_S 	S 	0.76421	0.70853	0.919	0.257
Mof_O 	O 	0.4178	0.7888	0.5871	-0.381
Mof_O 	O 	0.3309	0.2015	0.4131	-0.381
Mof_O 	O 	0.572	0.9338	0.66427	-0.387
Mof_O 	O 	0.408	0.2695	0.33598	-0.388
Mof_O 	O 	0.756	0.87749	0.73645	-0.42
Mof_O 	O 	0.4813	0.85923	0.73621	-0.417
Mof_O 	O 	0.2869	0.7289	0.60996	-0.42
Mof_O 	O 	0.5399	0.3047	0.29627	-0.379
Mof_O 	O 	0.6578	0.2161	0.19886	-0.396
Mof_O 	O 	0.3062	0.8908	0.74408	-0.435
Mof_O 	O 	0.1771	0.1183	0.38986	-0.423
Mof_O 	O 	0.744	0.0092	0.70388	-0.377
Mof_O 	O 	0.0418	0.9824	0.1987	-0.382
Mof_O 	O 	0.9377	0.8532	0.74415	-0.436
Mof_O 	O 	0.81	0.1596	0.17751	-0.389
Mof_O 	O 	0.868	0.0186	0.17762	-0.385
Mof_O 	O 	0.0304	0.5042	0.2839	-0.19
Mof_O 	O 	0.195	0.5613	0.26	-0.186
Mof_O 	O 	0.5695	0.2572	0.91485	-0.183
Mof_O 	O 	0.7696	0.2209	0.9082	-0.196
Mof_O 	O 	0.2476	0.2213	0.7163	-0.192
Mof_O 	O 	0.4342	0.3019	0.7408	-0.185
Mof_O 	O 	0.6391	0.6876	0.90823	-0.198
Mof_O 	O 	0.8455	0.6577	0.91488	-0.184
Mof_C 	C 	0.3326	0.7395	0.5725	0.397
Mof_C 	C 	0.282	0.6929	0.5033	-0.127
Mof_C 	C 	0.1894	0.6375	0.4831	0.043
Mof_H 	H 	0.1544	0.6319	0.512	0.026
Mof_C 	C 	0.1498	0.5906	0.4195	-0.093
Mof_H 	H 	0.0879	0.5537	0.4063	0.076
Mof_C 	C 	0.1988	0.5971	0.3761	0.025
Mof_C 	C 	0.2896	0.653	0.396	-0.095
Mof_H 	H 	0.3232	0.6587	0.3667	0.081
Mof_C 	C 	0.3305	0.7003	0.4592	0.046
Mof_H 	H 	0.3915	0.7376	0.4721	0.031
Mof_C 	C 	0.2436	0.4664	0.2991	0.038
Mof_C 	C 	0.1952	0.4141	0.3158	-0.11
Mof_H 	H 	0.1195	0.4137	0.3224	0.079
Mof_C 	C 	0.2646	0.3664	0.3214	0.067
Mof_H 	H 	0.2367	0.3337	0.3336	0.02
Mof_C 	C 	0.374	0.3641	0.3098	-0.142
Mof_C 	C 	0.4149	0.4122	0.2934	0.067
Mof_H 	H 	0.4888	0.4105	0.2845	0.033
Mof_C 	C 	0.3483	0.4651	0.2891	-0.109
Mof_H 	H 	0.3795	0.499	0.2791	0.095
Mof_C 	C 	0.4461	0.3091	0.3153	0.398
Mof_C 	C 	0.4177	0.9075	0.757	0.381
Mof_C 	C 	0.4777	0.9832	0.7946	-0.138
Mof_C 	C 	0.5983	0.9995	0.8125	0.054
Mof_H 	H 	0.6446	0.9636	0.8008	0.026
Mof_C 	C 	0.6529	0.0695	0.8481	-0.098
Mof_H 	H 	0.7355	0.0806	0.8586	0.083
Mof_C 	C 	0.5852	0.1226	0.8681	0.025
Mof_C 	C 	0.4601	0.1055	0.8506	-0.1
Mof_H 	H 	0.4135	0.1412	0.8633	0.086
Mof_C 	C 	0.4079	0.0372	0.8153	0.051
Mof_H 	H 	0.3254	0.0258	0.8046	0.021
Mof_C 	C 	0.6785	0.2121	0.9946	0.03
Mof_C 	C 	0.7731	0.179	0.0126	-0.099
Mof_H 	H 	0.8244	0.1607	0.9872	0.077
Mof_C 	C 	0.7872	0.1746	0.0676	0.046
Mof_H 	H 	0.8503	0.1539	0.0804	0.032
Mof_C 	C 	0.7102	0.2	0.1059	-0.121
Mof_C 	C 	0.6193	0.2335	0.0878	0.046
Mof_H 	H 	0.569	0.2527	0.1135	0.042
Mof_C 	C 	0.6038	0.2384	0.0317	-0.097
Mof_H 	H 	0.5416	0.2598	0.0191	0.096
Mof_C 	C 	0.7272	0.1925	0.1664	0.395
Mof_C 	C 	0.6317	0.9937	0.685	0.397
Mof_C 	C 	0.5646	0.0544	0.6908	-0.139
Mof_C 	C 	0.6215	0.118	0.7053	0.067
Mof_H 	H 	0.7038	0.1246	0.7118	0.033
Mof_C 	C 	0.5594	0.1755	0.7111	-0.11
Mof_H 	H 	0.6011	0.2197	0.7224	0.095
Mof_C 	C 	0.4443	0.167	0.7007	0.039
Mof_C 	C 	0.38	0.099	0.6848	-0.113
Mof_H 	H 	0.2977	0.0921	0.6786	0.079
Mof_C 	C 	0.4433	0.046	0.6793	0.068
Mof_H 	H 	0.4026	0.0012	0.6671	0.02
Mof_C 	C 	0.3232	0.2206	0.6229	0.03
Mof_C 	C 	0.3933	0.2573	0.6036	-0.102
Mof_H 	H 	0.4554	0.2927	0.6332	0.083
Mof_C 	C 	0.3722	0.2419	0.5417	0.051
Mof_H 	H 	0.4206	0.2665	0.5292	0.029
Mof_C 	C 	0.2788	0.1898	0.4969	-0.126
Mof_C 	C 	0.2063	0.1543	0.5173	0.047
Mof_H 	H 	0.1428	0.1195	0.4883	0.024
Mof_C 	C 	0.2292	0.171	0.5797	-0.1
Mof_H 	H 	0.1797	0.1481	0.5932	0.077
Mof_C 	C 	0.2596	0.1665	0.4271	0.398
Mof_C 	C 	0.8386	0.8485	0.7563	0.386
Mof_C 	C 	0.8164	0.8117	0.7953	-0.147
Mof_C 	C 	0.9073	0.7783	0.8156	0.058
Mof_H 	H 	0.9793	0.7793	0.8051	0.019
Mof_C 	C 	0.8893	0.7447	0.8505	-0.109
Mof_H 	H 	0.948	0.7213	0.8631	0.09
Mof_C 	C 	0.7831	0.7452	0.8676	0.033
Mof_C 	C 	0.6965	0.7787	0.8479	-0.111
Mof_H 	H 	0.6246	0.7784	0.8586	0.087
Mof_C 	C 	0.7143	0.8126	0.8126	0.069
Mof_H 	H 	0.6556	0.8363	0.8005	0.02
Mof_C 	C 	0.8157	0.7826	0.9944	0.018
Mof_C 	C 	0.9291	0.7935	0.0315	-0.081
Mof_H 	H 	0.9792	0.7599	0.0191	0.09
Mof_C 	C 	0.9687	0.8547	0.0877	0.024
Mof_H 	H 	0.0449	0.8617	0.1136	0.051
Mof_C 	C 	0.895	0.9056	0.1053	-0.103
Mof_C 	C 	0.7801	0.8934	0.068	0.03
Mof_H 	H 	0.7299	0.9268	0.0808	0.036
Mof_C 	C 	0.7395	0.834	0.0137	-0.083
Mof_H 	H 	0.6621	0.8267	0.9888	0.07
Mof_C 	C 	0.9386	0.9744	0.1662	0.375
_end
