data_functionalizedCrystal
_audit_creation_method	'EQeq! by Chris Wilmer'
_symmetry_space_group_name_H-M	'P1'
_symmetry_Int_Tables_number	1
_symmetry_cell_setting	triclinic
loop_
_symmetry_equiv_pos_as_xyz
  x,y,z
_cell_length_a	7.28
_cell_length_b	16.2673
_cell_length_c	16.2873
_cell_angle_alpha	106.001
_cell_angle_beta	90
_cell_angle_gamma	90
loop_
_atom_site_label
_atom_site_type_symbol
_atom_site_fract_x
_atom_site_fract_y
_atom_site_fract_z
_atom_site_charge
Mof_Cd	Cd	0.2741	0.78123	0.57706	0.432
Mof_Cd	Cd	0.7259	0.21877	0.42294	0.432
Mof_Cd	Cd	0.7741	0.21877	0.92294	0.432
Mof_Cd	Cd	0.2259	0.78123	0.07706	0.432
Mof_H 	H 	0.0742	0.3268	0.6831	0.06
Mof_H 	H 	0.4248	0.304	0.557	-0.002
Mof_H 	H 	0.2524	0.9728	0.1331	0.044
Mof_H 	H 	0.8959	0.4476	0.432	0.096
Mof_H 	H 	0.1736	0.0809	0.5659	0.08
Mof_H 	H 	0.5583	0.3691	0.3528	0.003
Mof_H 	H 	0.9258	0.6732	0.3169	0.06
Mof_H 	H 	0.8875	0.4409	0.5263	0.096
Mof_H 	H 	0.7797	0.0995	0.1528	0.045
Mof_H 	H 	0.6736	0.9191	0.9341	0.081
Mof_H 	H 	0.4417	0.6309	0.6472	0.003
Mof_H 	H 	0.1274	0.0297	0.3691	0.091
Mof_H 	H 	0.6041	0.4476	0.932	0.096
Mof_H 	H 	0.0752	0.304	0.057	-0.002
Mof_H 	H 	0.8726	0.9703	0.6309	0.091
Mof_H 	H 	0.3959	0.5524	0.068	0.096
Mof_H 	H 	0.2028	0.406	0.5894	0.107
Mof_H 	H 	0.5752	0.696	0.443	-0.002
Mof_H 	H 	0.3381	0.473	0.38	0.105
Mof_H 	H 	0.2923	0.154	0.3942	0.024
Mof_H 	H 	0.3875	0.5591	0.9737	0.096
Mof_H 	H 	0.2797	0.9005	0.3472	0.046
Mof_H 	H 	0.9248	0.696	0.943	-0.002
Mof_H 	H 	0.2077	0.154	0.8942	0.024
Mof_H 	H 	0.7203	0.0995	0.6528	0.046
Mof_H 	H 	0.3264	0.0809	0.0659	0.081
Mof_H 	H 	0.0583	0.6309	0.1472	0.004
Mof_H 	H 	0.1041	0.5524	0.568	0.096
Mof_H 	H 	0.3726	0.0297	0.8691	0.092
Mof_H 	H 	0.5742	0.6732	0.8169	0.06
Mof_H 	H 	0.7476	0.0272	0.8669	0.044
Mof_H 	H 	0.1758	0.3294	0.2708	0.037
Mof_H 	H 	0.8381	0.527	0.12	0.104
Mof_H 	H 	0.6619	0.527	0.62	0.105
Mof_H 	H 	0.1619	0.473	0.88	0.104
Mof_H 	H 	0.9417	0.3691	0.8528	0.004
Mof_H 	H 	0.6758	0.6706	0.2292	0.037
Mof_H 	H 	0.1125	0.5591	0.4737	0.096
Mof_H 	H 	0.3242	0.3294	0.7708	0.037
Mof_H 	H 	0.7524	0.0272	0.3669	0.044
Mof_H 	H 	0.8264	0.9191	0.4341	0.08
Mof_H 	H 	0.4258	0.3268	0.1831	0.06
Mof_H 	H 	0.2476	0.9728	0.6331	0.044
Mof_H 	H 	0.7028	0.594	0.9106	0.107
Mof_H 	H 	0.6125	0.4409	0.0263	0.096
Mof_H 	H 	0.7923	0.846	0.1058	0.024
Mof_H 	H 	0.6274	0.9703	0.1309	0.092
Mof_H 	H 	0.8242	0.6706	0.7292	0.037
Mof_H 	H 	0.2972	0.406	0.0894	0.107
Mof_H 	H 	0.7972	0.594	0.4106	0.107
Mof_H 	H 	0.7077	0.846	0.6058	0.024
Mof_H 	H 	0.2203	0.9005	0.8472	0.045
Mof_C 	C 	0.8549	0.87	0.8392	0.068
Mof_C 	C 	0.1473	0.4393	0.9172	-0.207
Mof_C 	C 	0.3544	0.1022	0.3838	0.066
Mof_C 	C 	0.9554	0.2112	0.29	0.32
Mof_C 	C 	0.1451	0.13	0.1608	0.068
Mof_C 	C 	0.2267	0.3997	0.0404	-0.205
Mof_C 	C 	0.4052	0.52	0.0084	-0.187
Mof_C 	C 	0.6443	0.7224	0.8229	-0.059
Mof_C 	C 	0.3549	0.13	0.6608	0.067
Mof_C 	C 	0.9008	0.797	0.3852	-0.023
Mof_C 	C 	0.2733	0.3997	0.5404	-0.207
Mof_C 	C 	0.7933	0.7211	0.77	0.01
Mof_C 	C 	0.3971	0.206	0.7233	-0.097
Mof_C 	C 	0.4635	0.0508	0.6471	-0.028
Mof_C 	C 	0.9068	0.6618	0.9796	0.119
Mof_C 	C 	0.6456	0.8978	0.6162	0.066
Mof_C 	C 	0.7733	0.6003	0.9596	-0.205
Mof_C 	C 	0.0948	0.52	0.5084	-0.188
Mof_C 	C 	0.3557	0.2776	0.1771	-0.059
Mof_C 	C 	0.0365	0.0508	0.1471	-0.028
Mof_C 	C 	0.6451	0.87	0.3392	0.067
Mof_C 	C 	0.4008	0.203	0.1148	-0.022
Mof_C 	C 	0.7449	0.972	0.6306	-0.097
Mof_C 	C 	0.5932	0.6618	0.4796	0.12
Mof_C 	C 	0.0992	0.203	0.6148	-0.023
Mof_C 	C 	0.6473	0.5607	0.5828	-0.209
Mof_C 	C 	0.2551	0.028	0.3694	-0.097
Mof_C 	C 	0.5152	0.6238	0.5991	0.115
Mof_C 	C 	0.4554	0.7888	0.21	0.32
Mof_C 	C 	0.2933	0.2789	0.73	0.009
Mof_C 	C 	0.5365	0.9492	0.3529	-0.028
Mof_C 	C 	0.0152	0.3762	0.9009	0.112
Mof_C 	C 	0.3527	0.4393	0.4172	-0.209
Mof_C 	C 	0.8971	0.794	0.7767	-0.098
Mof_C 	C 	0.1456	0.1022	0.8838	0.066
Mof_C 	C 	0.0932	0.3382	0.0204	0.119
Mof_C 	C 	0.9052	0.48	0.4916	-0.188
Mof_C 	C 	0.8527	0.5607	0.0828	-0.207
Mof_C 	C 	0.2449	0.028	0.8694	-0.1
Mof_C 	C 	0.4068	0.3382	0.5204	0.12
Mof_C 	C 	0.5992	0.797	0.8852	-0.022
Mof_C 	C 	0.8544	0.8978	0.1162	0.066
Mof_C 	C 	0.8557	0.7224	0.3229	-0.058
Mof_C 	C 	0.6029	0.794	0.2767	-0.097
Mof_C 	C 	0.4464	0.7979	0.948	0.288
Mof_C 	C 	0.9635	0.9492	0.8529	-0.028
Mof_C 	C 	0.7576	0.5473	0.5119	0.168
Mof_C 	C 	0.9464	0.2021	0.552	0.289
Mof_C 	C 	0.296	0.1309	0.1076	-0.085
Mof_C 	C 	0.7551	0.972	0.1306	-0.1
Mof_C 	C 	0.5948	0.48	0.9916	-0.187
Mof_C 	C 	0.5446	0.2112	0.79	0.32
Mof_C 	C 	0.1247	0.973	0.1322	0.033
Mof_C 	C 	0.7267	0.6003	0.4596	-0.207
Mof_C 	C 	0.0536	0.7979	0.448	0.289
Mof_C 	C 	0.8458	0.049	0.1448	0.009
Mof_C 	C 	0.3753	0.973	0.6322	0.033
Mof_C 	C 	0.8753	0.027	0.8678	0.033
Mof_C 	C 	0.2576	0.4527	0.9881	0.166
Mof_C 	C 	0.3458	0.951	0.3552	0.007
Mof_C 	C 	0.1443	0.2776	0.6771	-0.058
Mof_C 	C 	0.204	0.1309	0.6076	-0.084
Mof_C 	C 	0.9848	0.6238	0.0991	0.112
Mof_C 	C 	0.6542	0.049	0.6448	0.007
Mof_C 	C 	0.6247	0.027	0.3678	0.033
Mof_C 	C 	0.7067	0.7211	0.27	0.009
Mof_C 	C 	0.796	0.8691	0.3924	-0.084
Mof_C 	C 	0.1542	0.951	0.8552	0.009
Mof_C 	C 	0.0446	0.7888	0.71	0.32
Mof_C 	C 	0.5536	0.2021	0.052	0.288
Mof_C 	C 	0.2424	0.4527	0.4881	0.168
Mof_C 	C 	0.4848	0.3762	0.4009	0.115
Mof_C 	C 	0.1029	0.206	0.2233	-0.098
Mof_C 	C 	0.704	0.8691	0.8924	-0.085
Mof_C 	C 	0.2067	0.2789	0.23	0.01
Mof_C 	C 	0.7424	0.5473	0.0119	0.166
Mof_N 	N 	0.0123	0.6752	0.0491	-0.17
Mof_N 	N 	0.5123	0.3248	0.4509	-0.171
Mof_N 	N 	0.4877	0.6752	0.5491	-0.171
Mof_N 	N 	0.038	0.8977	0.1165	-0.14
Mof_N 	N 	0.9877	0.3248	0.9509	-0.17
Mof_N 	N 	0.962	0.1023	0.8835	-0.14
Mof_N 	N 	0.462	0.8977	0.6165	-0.141
Mof_N 	N 	0.538	0.1023	0.3835	-0.141
Mof_O 	O 	0.6257	0.27208	0.05057	-0.279
Mof_O 	O 	0.0551	0.8464	0.67443	-0.283
Mof_O 	O 	0.4449	0.8464	0.17443	-0.283
Mof_O 	O 	0.3537	0.72491	0.1895	-0.282
Mof_O 	O 	0.6007	0.1335	0.0028	-0.266
Mof_O 	O 	0.8743	0.27208	0.55057	-0.279
Mof_O 	O 	0.8537	0.27509	0.3105	-0.282
Mof_O 	O 	0.1463	0.72491	0.6895	-0.282
Mof_O 	O 	0.3993	0.8665	0.9972	-0.266
Mof_O 	O 	0.1007	0.8665	0.4972	-0.266
Mof_O 	O 	0.5551	0.1536	0.82557	-0.283
Mof_O 	O 	0.9449	0.1536	0.32557	-0.283
Mof_O 	O 	0.8993	0.1335	0.5028	-0.266
Mof_O 	O 	0.1257	0.72792	0.44943	-0.279
Mof_O 	O 	0.6463	0.27509	0.8105	-0.282
Mof_O 	O 	0.3743	0.72792	0.94943	-0.279
_end
