data_functionalizedCrystal
_audit_creation_method	'EQeq! by Chris Wilmer'
_symmetry_space_group_name_H-M	'P1'
_symmetry_Int_Tables_number	1
_symmetry_cell_setting	triclinic
loop_
_symmetry_equiv_pos_as_xyz
  x,y,z
_cell_length_a	14.206
_cell_length_b	33.308
_cell_length_c	11.587
_cell_angle_alpha	90
_cell_angle_beta	90
_cell_angle_gamma	90
loop_
_atom_site_label
_atom_site_type_symbol
_atom_site_fract_x
_atom_site_fract_y
_atom_site_fract_z
_atom_site_charge
Mof_V 	V 	0.7997	0.1399	0.836	1.684
Mof_V 	V 	0.9576	0.1086	0.6837	1.71
Mof_P 	P 	0.6441	0.0734	0.8095	0.633
Mof_P 	P 	0.1213	0.1734	0.7043	0.601
Mof_O 	O 	0.9353	0.1439	0.8159	-1.233
Mof_O 	O 	0.7066	0.0998	0.885	-0.604
Mof_O 	O 	0.7061	0.0553	0.7103	-0.839
Mof_O 	O 	0.6051	0.039	0.8786	-0.585
Mof_O 	O 	0.8186	0.1503	0.003	-0.526
Mof_O 	O 	0.0607	0.1438	0.6348	-0.579
Mof_O 	O 	0.0575	0.1932	0.7994	-0.847
Mof_O 	O 	0.157	0.2054	0.6246	-0.545
Mof_O 	O 	0.9499	0.0997	0.5165	-0.558
Mof_O 	O 	0.8199	0.1087	0.6934	-1.249
Mof_B 	B 	0.0036	0.1666	0.8783	1.915
Mof_V 	V 	0.7997	0.6399	0.336	1.707
Mof_V 	V 	0.9576	0.6086	0.1837	1.718
Mof_P 	P 	0.6441	0.5734	0.3095	0.634
Mof_P 	P 	0.1213	0.6734	0.2043	0.602
Mof_O 	O 	0.9353	0.6439	0.3159	-1.205
Mof_O 	O 	0.7066	0.5998	0.385	-0.559
Mof_O 	O 	0.7061	0.5553	0.2103	-0.812
Mof_O 	O 	0.6051	0.539	0.3786	-0.545
Mof_O 	O 	0.8186	0.6503	0.503	-0.571
Mof_O 	O 	0.0607	0.6438	0.1348	-0.554
Mof_O 	O 	0.0575	0.6932	0.2994	-0.829
Mof_O 	O 	0.157	0.7054	0.1246	-0.522
Mof_O 	O 	0.9499	0.5997	0.0165	-0.464
Mof_O 	O 	0.8199	0.6087	0.1934	-1.224
Mof_B 	B 	0.0036	0.6666	0.3783	1.9
Mof_V 	V 	0.2997	0.1399	0.336	1.705
Mof_V 	V 	0.4576	0.1086	0.1837	1.702
Mof_P 	P 	0.1441	0.0734	0.3095	0.633
Mof_P 	P 	0.6213	0.1734	0.2043	0.608
Mof_O 	O 	0.4353	0.1439	0.3159	-1.284
Mof_O 	O 	0.2066	0.0998	0.385	-0.57
Mof_O 	O 	0.2061	0.0553	0.2103	-0.826
Mof_O 	O 	0.1051	0.039	0.3786	-0.572
Mof_O 	O 	0.3186	0.1503	0.503	-0.581
Mof_O 	O 	0.5607	0.1438	0.1348	-0.528
Mof_O 	O 	0.5575	0.1932	0.2994	-0.848
Mof_O 	O 	0.657	0.2054	0.1246	-0.515
Mof_O 	O 	0.4499	0.0997	0.0165	-0.49
Mof_O 	O 	0.3199	0.1087	0.1934	-1.23
Mof_B 	B 	0.5036	0.1666	0.3783	2.076
Mof_V 	V 	0.2997	0.6399	0.836	1.683
Mof_V 	V 	0.4576	0.6086	0.6837	1.697
Mof_P 	P 	0.1441	0.5734	0.8095	0.633
Mof_P 	P 	0.6213	0.6734	0.7043	0.608
Mof_O 	O 	0.4353	0.6439	0.8159	-1.312
Mof_O 	O 	0.2066	0.5998	0.885	-0.609
Mof_O 	O 	0.2061	0.5553	0.7103	-0.839
Mof_O 	O 	0.1051	0.539	0.8786	-0.591
Mof_O 	O 	0.3186	0.6503	0.003	-0.533
Mof_O 	O 	0.5607	0.6438	0.6348	-0.55
Mof_O 	O 	0.5575	0.6932	0.7994	-0.867
Mof_O 	O 	0.657	0.7054	0.6246	-0.537
Mof_O 	O 	0.4499	0.5997	0.5165	-0.584
Mof_O 	O 	0.3199	0.6087	0.6934	-1.252
Mof_B 	B 	0.5036	0.6666	0.8783	2.094
Mof_V 	V 	0.2003	0.8601	0.836	1.685
Mof_V 	V 	0.0424	0.8914	0.6837	1.685
Mof_P 	P 	0.3559	0.9266	0.8095	0.633
Mof_P 	P 	0.8787	0.8266	0.7043	0.614
Mof_O 	O 	0.0647	0.8561	0.8159	-1.388
Mof_O 	O 	0.2934	0.9002	0.885	-0.604
Mof_O 	O 	0.2939	0.9447	0.7103	-0.829
Mof_O 	O 	0.3949	0.961	0.8786	-0.563
Mof_O 	O 	0.1814	0.8497	0.003	-0.537
Mof_O 	O 	0.9393	0.8562	0.6348	-0.52
Mof_O 	O 	0.9425	0.8068	0.7994	-0.886
Mof_O 	O 	0.843	0.7946	0.6246	-0.531
Mof_O 	O 	0.0501	0.9003	0.5165	-0.607
Mof_O 	O 	0.1801	0.8913	0.6934	-1.252
Mof_B 	B 	0.9964	0.8334	0.8783	2.273
Mof_V 	V 	0.2003	0.3601	0.336	1.707
Mof_V 	V 	0.0424	0.3914	0.1837	1.69
Mof_P 	P 	0.3559	0.4266	0.3095	0.634
Mof_P 	P 	0.8787	0.3266	0.2043	0.614
Mof_O 	O 	0.0647	0.3561	0.3159	-1.361
Mof_O 	O 	0.2934	0.4002	0.385	-0.564
Mof_O 	O 	0.2939	0.4447	0.2103	-0.817
Mof_O 	O 	0.3949	0.461	0.3786	-0.548
Mof_O 	O 	0.1814	0.3497	0.503	-0.585
Mof_O 	O 	0.9393	0.3562	0.1348	-0.5
Mof_O 	O 	0.9425	0.3068	0.2994	-0.867
Mof_O 	O 	0.843	0.2946	0.1246	-0.509
Mof_O 	O 	0.0501	0.4003	0.0165	-0.514
Mof_O 	O 	0.1801	0.3913	0.1934	-1.23
Mof_B 	B 	0.9964	0.3334	0.3783	2.256
Mof_V 	V 	0.7003	0.8601	0.336	1.709
Mof_V 	V 	0.5424	0.8914	0.1837	1.705
Mof_P 	P 	0.8559	0.9266	0.3095	0.633
Mof_P 	P 	0.3787	0.8266	0.2043	0.608
Mof_O 	O 	0.5647	0.8561	0.3159	-1.281
Mof_O 	O 	0.7934	0.9002	0.385	-0.554
Mof_O 	O 	0.7939	0.9447	0.2103	-0.802
Mof_O 	O 	0.8949	0.961	0.3786	-0.508
Mof_O 	O 	0.6814	0.8497	0.503	-0.575
Mof_O 	O 	0.4393	0.8562	0.1348	-0.526
Mof_O 	O 	0.4425	0.8068	0.2994	-0.849
Mof_O 	O 	0.343	0.7946	0.1246	-0.516
Mof_O 	O 	0.5501	0.9003	0.0165	-0.488
Mof_O 	O 	0.6801	0.8913	0.1934	-1.225
Mof_B 	B 	0.4964	0.8334	0.3783	2.076
Mof_V 	V 	0.7003	0.3601	0.836	1.686
Mof_V 	V 	0.5424	0.3914	0.6837	1.697
Mof_P 	P 	0.8559	0.4266	0.8095	0.634
Mof_P 	P 	0.3787	0.3266	0.7043	0.608
Mof_O 	O 	0.5647	0.3561	0.8159	-1.31
Mof_O 	O 	0.7934	0.4002	0.885	-0.598
Mof_O 	O 	0.7939	0.4447	0.7103	-0.83
Mof_O 	O 	0.8949	0.461	0.8786	-0.552
Mof_O 	O 	0.6814	0.3497	0.003	-0.529
Mof_O 	O 	0.4393	0.3562	0.6348	-0.55
Mof_O 	O 	0.4425	0.3068	0.7994	-0.867
Mof_O 	O 	0.343	0.2946	0.6246	-0.538
Mof_O 	O 	0.5501	0.4003	0.5165	-0.584
Mof_O 	O 	0.6801	0.3913	0.6934	-1.249
Mof_B 	B 	0.4964	0.3334	0.8783	2.094
Mof_V 	V 	0.0497	0.1101	0.086	1.71
Mof_V 	V 	0.2076	0.1414	0.9337	1.672
Mof_P 	P 	0.8941	0.1766	0.0595	0.693
Mof_P 	P 	0.3713	0.0766	0.9543	0.466
Mof_O 	O 	0.1853	0.1061	0.0659	-1.239
Mof_O 	O 	0.9566	0.1502	0.135	-0.516
Mof_O 	O 	0.9561	0.1947	0.9603	-0.834
Mof_O 	O 	0.8551	0.211	0.1286	-0.533
Mof_O 	O 	0.0686	0.0997	0.253	-0.597
Mof_O 	O 	0.3107	0.1062	0.8848	-0.564
Mof_O 	O 	0.3075	0.0568	0.0494	-0.776
Mof_O 	O 	0.407	0.0446	0.8746	-0.547
Mof_O 	O 	0.1999	0.1503	0.7665	-0.594
Mof_O 	O 	0.0699	0.1413	0.9434	-1.282
Mof_B 	B 	0.2536	0.0834	0.1283	2.052
Mof_V 	V 	0.0497	0.6101	0.586	1.688
Mof_V 	V 	0.2076	0.6414	0.4337	1.697
Mof_P 	P 	0.8941	0.6766	0.5595	0.626
Mof_P 	P 	0.3713	0.5766	0.4543	0.607
Mof_O 	O 	0.1853	0.6061	0.5659	-1.294
Mof_O 	O 	0.9566	0.6502	0.635	-0.536
Mof_O 	O 	0.9561	0.6947	0.4603	-0.754
Mof_O 	O 	0.8551	0.711	0.6286	-0.545
Mof_O 	O 	0.0686	0.5997	0.753	-0.614
Mof_O 	O 	0.3107	0.6062	0.3848	-0.547
Mof_O 	O 	0.3075	0.5568	0.5494	-0.857
Mof_O 	O 	0.407	0.5446	0.3746	-0.533
Mof_O 	O 	0.1999	0.6503	0.2665	-0.58
Mof_O 	O 	0.0699	0.6413	0.4434	-1.226
Mof_B 	B 	0.2536	0.5834	0.6283	2.077
Mof_V 	V 	0.5497	0.1101	0.586	1.703
Mof_V 	V 	0.7076	0.1414	0.4337	1.701
Mof_P 	P 	0.3941	0.1766	0.5595	0.635
Mof_P 	P 	0.8713	0.0766	0.4543	0.607
Mof_O 	O 	0.6853	0.1061	0.5659	-1.289
Mof_O 	O 	0.4566	0.1502	0.635	-0.571
Mof_O 	O 	0.4561	0.1947	0.4603	-0.828
Mof_O 	O 	0.3551	0.211	0.6286	-0.555
Mof_O 	O 	0.5686	0.0997	0.753	-0.592
Mof_O 	O 	0.8107	0.1062	0.3848	-0.54
Mof_O 	O 	0.8075	0.0568	0.5494	-0.857
Mof_O 	O 	0.907	0.0446	0.3746	-0.515
Mof_O 	O 	0.6999	0.1503	0.2665	-0.577
Mof_O 	O 	0.5699	0.1413	0.4434	-1.246
Mof_B 	B 	0.7536	0.0834	0.6283	2.078
Mof_V 	V 	0.5497	0.6101	0.086	1.727
Mof_V 	V 	0.7076	0.6414	0.9337	1.676
Mof_P 	P 	0.3941	0.6766	0.0595	0.703
Mof_P 	P 	0.8713	0.5766	0.9543	0.469
Mof_O 	O 	0.6853	0.6061	0.0659	-1.23
Mof_O 	O 	0.4566	0.6502	0.135	-0.549
Mof_O 	O 	0.4561	0.6947	0.9603	-0.912
Mof_O 	O 	0.3551	0.711	0.1286	-0.542
Mof_O 	O 	0.5686	0.5997	0.253	-0.572
Mof_O 	O 	0.8107	0.6062	0.8848	-0.554
Mof_O 	O 	0.8075	0.5568	0.0494	-0.762
Mof_O 	O 	0.907	0.5446	0.8746	-0.511
Mof_O 	O 	0.6999	0.6503	0.7665	-0.589
Mof_O 	O 	0.5699	0.6413	0.9434	-1.3
Mof_B 	B 	0.7536	0.5834	0.1283	2.05
Mof_V 	V 	0.4503	0.3899	0.086	1.727
Mof_V 	V 	0.2924	0.3586	0.9337	1.673
Mof_P 	P 	0.6059	0.3234	0.0595	0.703
Mof_P 	P 	0.1287	0.4234	0.9543	0.466
Mof_O 	O 	0.3147	0.3939	0.0659	-1.231
Mof_O 	O 	0.5434	0.3498	0.135	-0.549
Mof_O 	O 	0.5439	0.3053	0.9603	-0.911
Mof_O 	O 	0.6449	0.289	0.1286	-0.541
Mof_O 	O 	0.4314	0.4003	0.253	-0.572
Mof_O 	O 	0.1893	0.3938	0.8848	-0.566
Mof_O 	O 	0.1925	0.4432	0.0494	-0.769
Mof_O 	O 	0.093	0.4554	0.8746	-0.552
Mof_O 	O 	0.3001	0.3497	0.7665	-0.594
Mof_O 	O 	0.4301	0.3587	0.9434	-1.301
Mof_B 	B 	0.2464	0.4166	0.1283	2.049
Mof_V 	V 	0.4503	0.8899	0.586	1.706
Mof_V 	V 	0.2924	0.8586	0.4337	1.699
Mof_P 	P 	0.6059	0.8234	0.5595	0.635
Mof_P 	P 	0.1287	0.9234	0.4543	0.606
Mof_O 	O 	0.3147	0.8939	0.5659	-1.286
Mof_O 	O 	0.5434	0.8498	0.635	-0.569
Mof_O 	O 	0.5439	0.8053	0.4603	-0.828
Mof_O 	O 	0.6449	0.789	0.6286	-0.553
Mof_O 	O 	0.4314	0.9003	0.753	-0.589
Mof_O 	O 	0.1893	0.8938	0.3848	-0.548
Mof_O 	O 	0.1925	0.9432	0.5494	-0.849
Mof_O 	O 	0.093	0.9554	0.3746	-0.532
Mof_O 	O 	0.3001	0.8497	0.2665	-0.58
Mof_O 	O 	0.4301	0.8587	0.4434	-1.244
Mof_B 	B 	0.2464	0.9166	0.6283	2.073
Mof_V 	V 	0.9503	0.3899	0.586	1.721
Mof_V 	V 	0.7924	0.3586	0.4337	1.702
Mof_P 	P 	0.1059	0.3234	0.5595	0.644
Mof_P 	P 	0.6287	0.4234	0.4543	0.607
Mof_O 	O 	0.8147	0.3939	0.5659	-1.28
Mof_O 	O 	0.0434	0.3498	0.635	-0.603
Mof_O 	O 	0.0439	0.3053	0.4603	-0.903
Mof_O 	O 	0.1449	0.289	0.6286	-0.562
Mof_O 	O 	0.9314	0.4003	0.753	-0.564
Mof_O 	O 	0.6893	0.3938	0.3848	-0.542
Mof_O 	O 	0.6925	0.4432	0.5494	-0.852
Mof_O 	O 	0.593	0.4554	0.3746	-0.53
Mof_O 	O 	0.8001	0.3497	0.2665	-0.577
Mof_O 	O 	0.9301	0.3587	0.4434	-1.264
Mof_B 	B 	0.7464	0.4166	0.6283	2.075
Mof_V 	V 	0.9503	0.8899	0.086	1.744
Mof_V 	V 	0.7924	0.8586	0.9337	1.677
Mof_P 	P 	0.1059	0.8234	0.0595	0.711
Mof_P 	P 	0.6287	0.9234	0.9543	0.467
Mof_O 	O 	0.8147	0.8939	0.0659	-1.223
Mof_O 	O 	0.0434	0.8498	0.135	-0.581
Mof_O 	O 	0.0439	0.8053	0.9603	-0.986
Mof_O 	O 	0.1449	0.789	0.1286	-0.55
Mof_O 	O 	0.9314	0.9003	0.253	-0.545
Mof_O 	O 	0.6893	0.8938	0.8848	-0.555
Mof_O 	O 	0.6925	0.9432	0.0494	-0.755
Mof_O 	O 	0.593	0.9554	0.8746	-0.52
Mof_O 	O 	0.8001	0.8497	0.7665	-0.588
Mof_O 	O 	0.9301	0.8587	0.9434	-1.318
Mof_B 	B 	0.7464	0.9166	0.1283	2.046
Mof_V 	V 	0.5	0	0.902	1.669
Mof_V 	V 	0.5	0.5	0.402	1.697
Mof_V 	V 	-1.07274e-33	0	0.402	1.662
Mof_V 	V 	2.11755e-32	0.5	0.902	1.66
Mof_V 	V 	0.75	0.25	0.152	1.703
Mof_V 	V 	0.75	0.75	0.652	1.695
Mof_V 	V 	0.25	0.25	0.652	1.693
Mof_V 	V 	0.25	0.75	0.152	1.701
_end
