# CIF file generated by openbabel 3.1.0, see https://openbabel.org
data_I
_chemical_name_common 'FIPWOS_clean'
_cell_length_a 9.1269
_cell_length_b 9.3427
_cell_length_c 9.604
_cell_angle_alpha 114.455
_cell_angle_beta 90
_cell_angle_gamma 90
_space_group_name_H-M_alt 'P 1'
_space_group_name_Hall 'P 1'
loop_
    _symmetry_equiv_pos_as_xyz
    x,y,z
loop_
    _atom_site_label
    _atom_site_type_symbol
    _atom_site_fract_x
    _atom_site_fract_y
    _atom_site_fract_z
    _atom_site_occupancy
    Zn1      Zn       0.56466    0.40359    0.28456    1.000
    Zn2      Zn       0.06466    0.59641    0.71544    1.000
    H1       H        0.27690    0.56640    0.45440    1.000
    H2       H        0.43120    0.35730    0.84280    1.000
    H3       H        0.26240    0.38770    0.84530    1.000
    H4       H        0.57440    0.62060    0.91240    1.000
    H5       H        0.55940    0.33830    0.59210    1.000
    H6       H        0.67880    0.07890    0.25220    1.000
    H7       H        0.76720    0.11180    0.12870    1.000
    H8       H        0.28970    0.65120    0.00000    1.000
    H9       H        0.66120    0.89240    0.93390    1.000
    H10      H        0.74230    0.84150    0.05000    1.000
    H11      H        0.55000    0.16100    0.04600    1.000
    H12      H        0.47600    0.13300    0.15900    1.000
    H13      H        0.77690    0.43360    0.54560    1.000
    H14      H        0.93120    0.64270    0.15720    1.000
    H15      H        0.76240    0.61230    0.15470    1.000
    H16      H        0.07440    0.37940    0.08760    1.000
    H17      H        0.05940    0.66170    0.40790    1.000
    H18      H        0.17880    0.92110    0.74780    1.000
    H19      H        0.26720    0.88820    0.87130    1.000
    H20      H        0.78970    0.34880    0.00000    1.000
    H21      H        0.16120    0.10760    0.06610    1.000
    H22      H        0.24230    0.15850    0.95000    1.000
    H23      H        0.05000    0.83900    0.95400    1.000
    H24      H        0.97600    0.86700    0.84100    1.000
    C1       C        0.32320    0.52150    0.51290    1.000
    C2       C        0.35780    0.43210    0.84220    1.000
    C3       C        0.47830    0.39650    0.58770    1.000
    C4       C        0.37060    0.45120    0.69640    1.000
    C5       C        0.67510    0.07190    0.14870    1.000
    C6       C        0.38460    0.53840    0.12290    1.000
    C7       C        0.37630    0.58490    0.98760    1.000
    C8       C        0.65920    0.90000    0.03770    1.000
    C9       C        0.51980    0.82550    0.06070    1.000
    C10      C        0.82320    0.47850    0.48710    1.000
    C11      C        0.85780    0.56790    0.15780    1.000
    C12      C        0.97830    0.60350    0.41230    1.000
    C13      C        0.87060    0.54880    0.30360    1.000
    C14      C        0.17510    0.92810    0.85130    1.000
    C15      C        0.88460    0.46160    0.87710    1.000
    C16      C        0.87630    0.41510    0.01240    1.000
    C17      C        0.15920    0.10000    0.96230    1.000
    C18      C        0.01980    0.17450    0.93930    1.000
    N1       N        0.55280    0.17350    0.13720    1.000
    N2       N        0.50590    0.67030    0.97530    1.000
    N3       N        0.44750    0.44100    0.47090    1.000
    N4       N        0.27050    0.53230    0.64670    1.000
    N5       N        0.05280    0.82650    0.86280    1.000
    N6       N        0.00590    0.32970    0.02470    1.000
    N7       N        0.94750    0.55900    0.52910    1.000
    N8       N        0.77050    0.46770    0.35330    1.000
    O1       O        0.51356    0.52440    0.16710    1.000
    O2       O        0.26910    0.50940    0.17440    1.000
    O3       O        0.42270    0.90290    0.15060    1.000
    O4       O        0.01356    0.47560    0.83290    1.000
    O5       O        0.76910    0.49060    0.82560    1.000
    O6       O        0.92270    0.09710    0.84940    1.000
