data_functionalizedCrystal
_audit_creation_method	'EQeq! by Chris Wilmer'
_symmetry_space_group_name_H-M	'P1'
_symmetry_Int_Tables_number	1
_symmetry_cell_setting	triclinic
loop_
_symmetry_equiv_pos_as_xyz
  x,y,z
_cell_length_a	21.4817
_cell_length_b	23.3867
_cell_length_c	19.8758
_cell_angle_alpha	90
_cell_angle_beta	90
_cell_angle_gamma	90
loop_
_atom_site_label
_atom_site_type_symbol
_atom_site_fract_x
_atom_site_fract_y
_atom_site_fract_z
_atom_site_charge
Mof_Ni	Ni	0.12714	0.32374	0.01604	1.101
Mof_C 	C 	0.449	0.3994	0.4318	-0.107
Mof_H 	H 	0.4203	0.4222	0.4542	0.058
Mof_C 	C 	0.5005	0.3813	0.4645	0.055
Mof_H 	H 	0.5045	0.3888	0.5102	0.003
Mof_C 	C 	0.5361	0.3351	0.3691	0.095
Mof_H 	H 	0.565	0.312	0.3473	-0.006
Mof_C 	C 	0.4827	0.3509	0.3349	-0.142
Mof_H 	H 	0.4769	0.3385	0.2909	0.073
Mof_C 	C 	0.3012	0.5295	0.4081	-0.105
Mof_H 	H 	0.2614	0.5147	0.4021	0.068
Mof_C 	C 	0.3115	0.578	0.4466	0.049
Mof_H 	H 	0.277	0.5969	0.4641	0.006
Mof_C 	C 	0.4144	0.5773	0.4322	0.058
Mof_H 	H 	0.4525	0.5952	0.4393	0.002
Mof_C 	C 	0.4134	0.5286	0.3921	-0.109
Mof_H 	H 	0.4501	0.5133	0.375	0.06
Mof_C 	C 	0.2291	0.3191	0.1166	-0.043
Mof_H 	H 	0.2361	0.2848	0.094	0.026
Mof_C 	C 	0.2635	0.3315	0.1761	-0.143
Mof_H 	H 	0.284	0.3022	0.1988	0.069
Mof_C 	C 	0.1883	0.4044	0.1201	0.046
Mof_H 	H 	0.1592	0.4307	0.1045	-0.007
Mof_C 	C 	0.228	0.4218	0.1696	0.018
Mof_H 	H 	0.2283	0.4599	0.1828	0.025
Mof_C 	C 	0.3028	0.2999	0.872	0.004
Mof_H 	H 	0.2914	0.334	0.8926	0.025
Mof_C 	C 	0.3478	0.3004	0.824	-0.038
Mof_H 	H 	0.3667	0.3347	0.8121	0.03
Mof_C 	C 	0.4915	0.2022	0.6725	-0.011
Mof_H 	H 	0.5142	0.1692	0.6636	0.031
Mof_C 	C 	0.4474	0.2009	0.7219	-0.061
Mof_H 	H 	0.4399	0.1671	0.7452	0.041
Mof_C 	C 	0.38234	0.4034	0.3284	0.033
Mof_C 	C 	0.3484	0.45277	0.3345	-0.015
Mof_C 	C 	0.30768	0.40263	0.2545	0.109
Mof_C 	C 	0.26664	0.38458	0.1994	0.013
Mof_C 	C 	0.35501	0.50285	0.3777	0.131
Mof_C 	C 	0.43847	0.38417	0.3643	0.069
Mof_N 	N 	0.35554	0.37182	0.278	-0.206
Mof_H 	H 	0.3672	0.3387	0.2642	0.114
Mof_N 	N 	0.30107	0.45099	0.2872	-0.126
Mof_N 	N 	0.18802	0.35482	0.09353	-0.214
Mof_N 	N 	0.36631	0.59877	0.45997	-0.24
Mof_N 	N 	0.54761	0.35162	0.43147	-0.225
Mof_O 	O 	0.20382	0.29756	0.96274	-0.433
Mof_O 	O 	0.56859	0.2027	0.55845	-0.437
Mof_C 	C 	0.4833	0.4233	0.3826	-0.047
Mof_H 	H 	0.4777	0.4617	0.3724	0.035
Mof_C 	C 	0.536	0.4062	0.4155	0.006
Mof_H 	H 	0.5651	0.4338	0.4275	0.01
Mof_C 	C 	0.5041	0.3121	0.4138	-0.034
Mof_H 	H 	0.5106	0.2739	0.4246	0.029
Mof_C 	C 	0.4508	0.3275	0.3803	-0.01
Mof_H 	H 	0.4223	0.2994	0.3681	0.027
Mof_C 	C 	0.3463	0.5575	0.3522	-0.112
Mof_H 	H 	0.3365	0.5628	0.3071	0.072
Mof_C 	C 	0.3521	0.6026	0.3934	0.045
Mof_H 	H 	0.346	0.6388	0.3754	0.018
Mof_C 	C 	0.3738	0.5473	0.4824	0.06
Mof_H 	H 	0.3832	0.5435	0.5278	-0.009
Mof_C 	C 	0.3691	0.4958	0.4446	-0.119
Mof_H 	H 	0.3751	0.46	0.4638	0.061
Mof_C 	C 	0.2444	0.3356	0.0997	0.078
Mof_H 	H 	0.2593	0.3124	0.0653	-0.006
Mof_C 	C 	0.2831	0.3462	0.1512	0.047
Mof_H 	H 	0.3211	0.3273	0.1539	0.009
Mof_C 	C 	0.1691	0.391	0.1445	-0.002
Mof_H 	H 	0.1284	0.4046	0.1434	0.016
Mof_C 	C 	0.2061	0.408	0.196	-0.122
Mof_H 	H 	0.1922	0.434	0.228	0.069
Mof_C 	C 	0.2847	0.2973	0.8519	-0.002
Mof_H 	H 	0.2607	0.3298	0.8589	0.026
Mof_C 	C 	0.3293	0.298	0.8034	-0.042
Mof_H 	H 	0.3354	0.3308	0.7776	0.032
Mof_C 	C 	0.4709	0.2013	0.6507	0.02
Mof_H 	H 	0.4796	0.1677	0.6276	0.02
Mof_C 	C 	0.4249	0.2012	0.6997	-0.03
Mof_H 	H 	0.4017	0.1682	0.7073	0.029
Mof_Ni	Ni	0.37286	0.67626	0.51604	1.103
Mof_C 	C 	0.051	0.6006	0.9318	-0.125
Mof_H 	H 	0.0797	0.5778	0.9542	0.064
Mof_C 	C 	0.9995	0.6187	0.9645	0.069
Mof_H 	H 	0.9955	0.6112	0.0102	-0
Mof_C 	C 	0.9639	0.6649	0.8691	0.132
Mof_H 	H 	0.935	0.688	0.8473	-0.019
Mof_C 	C 	0.0173	0.6491	0.8349	-0.178
Mof_H 	H 	0.0231	0.6615	0.7909	0.086
Mof_C 	C 	0.1988	0.4705	0.9081	-0.1
Mof_H 	H 	0.2386	0.4853	0.9021	0.067
Mof_C 	C 	0.1885	0.422	0.9466	0.042
Mof_H 	H 	0.223	0.4031	0.9641	0.01
Mof_C 	C 	0.0856	0.4227	0.9322	0.05
Mof_H 	H 	0.0475	0.4048	0.9393	0.006
Mof_C 	C 	0.0866	0.4714	0.8921	-0.106
Mof_H 	H 	0.0499	0.4867	0.875	0.06
Mof_C 	C 	0.2709	0.6809	0.6166	-0.043
Mof_H 	H 	0.2639	0.7152	0.594	0.027
Mof_C 	C 	0.2365	0.6685	0.6761	-0.144
Mof_H 	H 	0.216	0.6978	0.6988	0.069
Mof_C 	C 	0.3117	0.5956	0.6201	0.047
Mof_H 	H 	0.3408	0.5693	0.6045	-0.007
Mof_C 	C 	0.272	0.5782	0.6696	0.019
Mof_H 	H 	0.2717	0.5401	0.6828	0.024
Mof_C 	C 	0.1972	0.7001	0.372	0.006
Mof_H 	H 	0.2086	0.666	0.3926	0.024
Mof_C 	C 	0.1522	0.6996	0.324	-0.037
Mof_H 	H 	0.1333	0.6653	0.3121	0.03
Mof_C 	C 	0.0085	0.7978	0.1725	-0
Mof_H 	H 	0.9858	0.8308	0.1636	0.03
Mof_C 	C 	0.0526	0.7991	0.2219	-0.045
Mof_H 	H 	0.0601	0.8329	0.2452	0.035
Mof_C 	C 	0.11766	0.5966	0.8284	0.036
Mof_C 	C 	0.1516	0.54723	0.8345	-0.017
Mof_C 	C 	0.19232	0.59737	0.7545	0.109
Mof_C 	C 	0.23336	0.61542	0.6994	0.013
Mof_C 	C 	0.14499	0.49715	0.8777	0.134
Mof_C 	C 	0.06153	0.61583	0.8643	0.062
Mof_N 	N 	0.14446	0.62818	0.778	-0.207
Mof_H 	H 	0.1328	0.6613	0.7642	0.114
Mof_N 	N 	0.19893	0.54901	0.7872	-0.125
Mof_N 	N 	0.31198	0.64518	0.59353	-0.214
Mof_N 	N 	0.13369	0.40123	0.95997	-0.24
Mof_N 	N 	0.95239	0.64838	0.93147	-0.223
Mof_O 	O 	0.29618	0.70244	0.46274	-0.435
Mof_O 	O 	0.93141	0.7973	0.05845	-0.434
Mof_C 	C 	0.0167	0.5767	0.8826	-0.017
Mof_H 	H 	0.0223	0.5383	0.8724	0.025
Mof_C 	C 	0.964	0.5938	0.9155	-0.022
Mof_H 	H 	0.9349	0.5662	0.9275	0.019
Mof_C 	C 	0.9959	0.6879	0.9138	-0.076
Mof_H 	H 	0.9894	0.7261	0.9246	0.041
Mof_C 	C 	0.0492	0.6725	0.8803	0.034
Mof_H 	H 	0.0777	0.7006	0.8681	0.013
Mof_C 	C 	0.1537	0.4425	0.8522	-0.119
Mof_H 	H 	0.1635	0.4372	0.8071	0.074
Mof_C 	C 	0.1479	0.3974	0.8934	0.053
Mof_H 	H 	0.154	0.3612	0.8754	0.015
Mof_C 	C 	0.1262	0.4527	0.9824	0.074
Mof_H 	H 	0.1168	0.4565	0.0278	-0.016
Mof_C 	C 	0.1309	0.5042	0.9446	-0.126
Mof_H 	H 	0.1249	0.54	0.9638	0.063
Mof_C 	C 	0.2556	0.6644	0.5997	0.078
Mof_H 	H 	0.2407	0.6876	0.5653	-0.005
Mof_C 	C 	0.2169	0.6538	0.6512	0.047
Mof_H 	H 	0.1789	0.6727	0.6539	0.008
Mof_C 	C 	0.3309	0.609	0.6445	-0.003
Mof_H 	H 	0.3716	0.5954	0.6434	0.017
Mof_C 	C 	0.2939	0.592	0.696	-0.124
Mof_H 	H 	0.3078	0.566	0.728	0.069
Mof_C 	C 	0.2153	0.7027	0.3519	-0.003
Mof_H 	H 	0.2393	0.6702	0.3589	0.026
Mof_C 	C 	0.1707	0.702	0.3034	-0.044
Mof_H 	H 	0.1646	0.6692	0.2776	0.032
Mof_C 	C 	0.0291	0.7987	0.1507	0
Mof_H 	H 	0.0204	0.8323	0.1276	0.025
Mof_C 	C 	0.0751	0.7988	0.1997	-0.041
Mof_H 	H 	0.0983	0.8318	0.2073	0.033
Mof_Ni	Ni	0.87286	0.82374	0.98396	1.101
Mof_C 	C 	0.551	0.8994	0.5682	-0.107
Mof_H 	H 	0.5797	0.9222	0.5458	0.057
Mof_C 	C 	0.4995	0.8813	0.5355	0.055
Mof_H 	H 	0.4955	0.8888	0.4898	0.003
Mof_C 	C 	0.4639	0.8351	0.6309	0.095
Mof_H 	H 	0.435	0.812	0.6527	-0.006
Mof_C 	C 	0.5173	0.8509	0.6651	-0.142
Mof_H 	H 	0.5231	0.8385	0.7091	0.073
Mof_C 	C 	0.6988	0.0295	0.5919	-0.104
Mof_H 	H 	0.7386	0.0147	0.5979	0.068
Mof_C 	C 	0.6885	0.078	0.5534	0.048
Mof_H 	H 	0.723	0.0969	0.5359	0.007
Mof_C 	C 	0.5856	0.0773	0.5678	0.057
Mof_H 	H 	0.5475	0.0952	0.5607	0.002
Mof_C 	C 	0.5866	0.0286	0.6079	-0.109
Mof_H 	H 	0.5499	0.0133	0.625	0.06
Mof_C 	C 	0.7709	0.8191	0.8834	-0.043
Mof_H 	H 	0.7639	0.7848	0.906	0.026
Mof_C 	C 	0.7365	0.8315	0.8239	-0.143
Mof_H 	H 	0.716	0.8022	0.8012	0.069
Mof_C 	C 	0.8117	0.9044	0.8799	0.045
Mof_H 	H 	0.8408	0.9307	0.8955	-0.007
Mof_C 	C 	0.772	0.9218	0.8304	0.016
Mof_H 	H 	0.7717	0.9599	0.8172	0.025
Mof_C 	C 	0.6972	0.7999	0.128	0.004
Mof_H 	H 	0.7086	0.834	0.1074	0.025
Mof_C 	C 	0.6522	0.8004	0.176	-0.038
Mof_H 	H 	0.6333	0.8347	0.1879	0.03
Mof_C 	C 	0.5085	0.7022	0.3275	-0.011
Mof_H 	H 	0.4858	0.6692	0.3364	0.031
Mof_C 	C 	0.5526	0.7009	0.2781	-0.061
Mof_H 	H 	0.5601	0.6671	0.2548	0.041
Mof_C 	C 	0.61766	0.9034	0.6716	0.033
Mof_C 	C 	0.6516	0.95277	0.6655	-0.016
Mof_C 	C 	0.69232	0.90263	0.7455	0.109
Mof_C 	C 	0.73336	0.88458	0.8006	0.013
Mof_C 	C 	0.64499	0.00285	0.6223	0.133
Mof_C 	C 	0.56153	0.88417	0.6357	0.068
Mof_N 	N 	0.64446	0.87182	0.722	-0.206
Mof_H 	H 	0.6328	0.8387	0.7358	0.114
Mof_N 	N 	0.69893	0.95099	0.7128	-0.126
Mof_N 	N 	0.81198	0.85482	0.90647	-0.215
Mof_N 	N 	0.63369	0.09877	0.54003	-0.241
Mof_N 	N 	0.45239	0.85162	0.56853	-0.225
Mof_O 	O 	0.79618	0.79756	0.03726	-0.433
Mof_O 	O 	0.43141	0.7027	0.44155	-0.437
Mof_C 	C 	0.5167	0.9233	0.6174	-0.047
Mof_H 	H 	0.5223	0.9617	0.6276	0.035
Mof_C 	C 	0.464	0.9062	0.5845	0.006
Mof_H 	H 	0.4349	0.9338	0.5725	0.01
Mof_C 	C 	0.4959	0.8121	0.5862	-0.034
Mof_H 	H 	0.4894	0.7739	0.5754	0.029
Mof_C 	C 	0.5492	0.8275	0.6197	-0.01
Mof_H 	H 	0.5777	0.7994	0.6319	0.027
Mof_C 	C 	0.6537	0.0575	0.6478	-0.114
Mof_H 	H 	0.6635	0.0628	0.6929	0.072
Mof_C 	C 	0.6479	0.1026	0.6066	0.047
Mof_H 	H 	0.654	0.1388	0.6246	0.017
Mof_C 	C 	0.6262	0.0473	0.5176	0.062
Mof_H 	H 	0.6168	0.0435	0.4722	-0.01
Mof_C 	C 	0.6309	0.9958	0.5554	-0.121
Mof_H 	H 	0.6249	0.96	0.5362	0.061
Mof_C 	C 	0.7556	0.8356	0.9003	0.078
Mof_H 	H 	0.7407	0.8124	0.9347	-0.006
Mof_C 	C 	0.7169	0.8462	0.8488	0.046
Mof_H 	H 	0.6789	0.8273	0.8461	0.009
Mof_C 	C 	0.8309	0.891	0.8555	-0.001
Mof_H 	H 	0.8716	0.9046	0.8566	0.016
Mof_C 	C 	0.7939	0.908	0.804	-0.121
Mof_H 	H 	0.8078	0.934	0.772	0.068
Mof_C 	C 	0.7153	0.7973	0.1481	-0.002
Mof_H 	H 	0.7393	0.8298	0.1411	0.026
Mof_C 	C 	0.6707	0.798	0.1966	-0.042
Mof_H 	H 	0.6646	0.8308	0.2224	0.032
Mof_C 	C 	0.5291	0.7013	0.3493	0.02
Mof_H 	H 	0.5204	0.6677	0.3724	0.02
Mof_C 	C 	0.5751	0.7012	0.3003	-0.03
Mof_H 	H 	0.5983	0.6682	0.2927	0.029
Mof_Ni	Ni	0.62714	0.17626	0.48396	1.103
Mof_C 	C 	0.949	0.1006	0.0682	-0.124
Mof_H 	H 	0.9203	0.0778	0.0458	0.063
Mof_C 	C 	0.0005	0.1187	0.0355	0.069
Mof_H 	H 	0.0045	0.1112	0.9898	0
Mof_C 	C 	0.0361	0.1649	0.1309	0.135
Mof_H 	H 	0.065	0.188	0.1527	-0.02
Mof_C 	C 	0.9827	0.1491	0.1651	-0.18
Mof_H 	H 	0.9769	0.1615	0.2091	0.087
Mof_C 	C 	0.8012	0.9705	0.0919	-0.095
Mof_H 	H 	0.7614	0.9853	0.0979	0.065
Mof_C 	C 	0.8115	0.922	0.0534	0.035
Mof_H 	H 	0.777	0.9031	0.0359	0.013
Mof_C 	C 	0.9144	0.9227	0.0678	0.042
Mof_H 	H 	0.9525	0.9048	0.0607	0.009
Mof_C 	C 	0.9134	0.9714	0.1079	-0.1
Mof_H 	H 	0.9501	0.9867	0.125	0.058
Mof_C 	C 	0.7291	0.1809	0.3834	-0.043
Mof_H 	H 	0.7361	0.2152	0.406	0.027
Mof_C 	C 	0.7635	0.1685	0.3239	-0.143
Mof_H 	H 	0.784	0.1978	0.3012	0.069
Mof_C 	C 	0.6883	0.0956	0.3799	0.047
Mof_H 	H 	0.6592	0.0693	0.3955	-0.007
Mof_C 	C 	0.728	0.0782	0.3304	0.019
Mof_H 	H 	0.7283	0.0401	0.3172	0.024
Mof_C 	C 	0.8028	0.2001	0.628	0.006
Mof_H 	H 	0.7914	0.166	0.6074	0.024
Mof_C 	C 	0.8478	0.1996	0.676	-0.037
Mof_H 	H 	0.8667	0.1653	0.6879	0.03
Mof_C 	C 	0.9915	0.2978	0.8275	-0
Mof_H 	H 	0.0142	0.3308	0.8364	0.03
Mof_C 	C 	0.9474	0.2991	0.7781	-0.045
Mof_H 	H 	0.9399	0.3329	0.7548	0.035
Mof_C 	C 	0.88234	0.0966	0.1716	0.037
Mof_C 	C 	0.8484	0.04723	0.1655	-0.019
Mof_C 	C 	0.80768	0.09737	0.2455	0.109
Mof_C 	C 	0.76664	0.11542	0.3006	0.013
Mof_C 	C 	0.85501	0.99715	0.1223	0.139
Mof_C 	C 	0.93847	0.11583	0.1357	0.06
Mof_N 	N 	0.85554	0.12818	0.222	-0.207
Mof_H 	H 	0.8672	0.1613	0.2358	0.114
Mof_N 	N 	0.80107	0.04901	0.2128	-0.125
Mof_N 	N 	0.68802	0.14518	0.40647	-0.214
Mof_N 	N 	0.86631	0.90123	0.04003	-0.241
Mof_N 	N 	0.04761	0.14838	0.06853	-0.222
Mof_O 	O 	0.70382	0.20244	0.53726	-0.435
Mof_O 	O 	0.06859	0.2973	0.94155	-0.434
Mof_C 	C 	0.9833	0.0767	0.1174	-0.015
Mof_H 	H 	0.9777	0.0383	0.1276	0.025
Mof_C 	C 	0.036	0.0938	0.0845	-0.023
Mof_H 	H 	0.0651	0.0662	0.0725	0.02
Mof_C 	C 	0.0041	0.1879	0.0862	-0.08
Mof_H 	H 	0.0106	0.2261	0.0754	0.043
Mof_C 	C 	0.9508	0.1725	0.1197	0.038
Mof_H 	H 	0.9223	0.2006	0.1319	0.011
Mof_C 	C 	0.8463	0.9425	0.1478	-0.127
Mof_H 	H 	0.8365	0.9372	0.1929	0.077
Mof_C 	C 	0.8521	0.8974	0.1066	0.062
Mof_H 	H 	0.846	0.8612	0.1246	0.012
Mof_C 	C 	0.8738	0.9527	0.0176	0.086
Mof_H 	H 	0.8832	0.9565	0.9722	-0.022
Mof_C 	C 	0.8691	0.0042	0.0554	-0.138
Mof_H 	H 	0.8751	0.04	0.0362	0.067
Mof_C 	C 	0.7444	0.1644	0.4003	0.078
Mof_H 	H 	0.7593	0.1876	0.4347	-0.005
Mof_C 	C 	0.7831	0.1538	0.3488	0.047
Mof_H 	H 	0.8211	0.1727	0.3461	0.008
Mof_C 	C 	0.6691	0.109	0.3555	-0.003
Mof_H 	H 	0.6284	0.0954	0.3566	0.017
Mof_C 	C 	0.7061	0.092	0.304	-0.124
Mof_H 	H 	0.6922	0.066	0.272	0.069
Mof_C 	C 	0.7847	0.2027	0.6481	-0.003
Mof_H 	H 	0.7607	0.1702	0.6411	0.026
Mof_C 	C 	0.8293	0.202	0.6966	-0.044
Mof_H 	H 	0.8354	0.1692	0.7224	0.032
Mof_C 	C 	0.9709	0.2987	0.8493	-0
Mof_H 	H 	0.9796	0.3323	0.8724	0.025
Mof_C 	C 	0.9249	0.2988	0.8003	-0.041
Mof_H 	H 	0.9017	0.3318	0.7927	0.033
Mof_Ni	Ni	0.87286	0.67626	0.98396	1.101
Mof_C 	C 	0.551	0.6006	0.5682	-0.107
Mof_H 	H 	0.5797	0.5778	0.5458	0.058
Mof_C 	C 	0.4995	0.6187	0.5355	0.055
Mof_H 	H 	0.4955	0.6112	0.4898	0.003
Mof_C 	C 	0.4639	0.6649	0.6309	0.095
Mof_H 	H 	0.435	0.688	0.6527	-0.006
Mof_C 	C 	0.5173	0.6491	0.6651	-0.142
Mof_H 	H 	0.5231	0.6615	0.7091	0.073
Mof_C 	C 	0.6988	0.4705	0.5919	-0.105
Mof_H 	H 	0.7386	0.4853	0.5979	0.068
Mof_C 	C 	0.6885	0.422	0.5534	0.049
Mof_H 	H 	0.723	0.4031	0.5359	0.006
Mof_C 	C 	0.5856	0.4227	0.5678	0.058
Mof_H 	H 	0.5475	0.4048	0.5607	0.002
Mof_C 	C 	0.5866	0.4714	0.6079	-0.109
Mof_H 	H 	0.5499	0.4867	0.625	0.06
Mof_C 	C 	0.7709	0.6809	0.8834	-0.043
Mof_H 	H 	0.7639	0.7152	0.906	0.026
Mof_C 	C 	0.7365	0.6685	0.8239	-0.143
Mof_H 	H 	0.716	0.6978	0.8012	0.069
Mof_C 	C 	0.8117	0.5956	0.8799	0.046
Mof_H 	H 	0.8408	0.5693	0.8955	-0.007
Mof_C 	C 	0.772	0.5782	0.8304	0.018
Mof_H 	H 	0.7717	0.5401	0.8172	0.025
Mof_C 	C 	0.6972	0.7001	0.128	0.004
Mof_H 	H 	0.7086	0.666	0.1074	0.025
Mof_C 	C 	0.6522	0.6996	0.176	-0.038
Mof_H 	H 	0.6333	0.6653	0.1879	0.03
Mof_C 	C 	0.5085	0.7978	0.3275	-0.011
Mof_H 	H 	0.4858	0.8308	0.3364	0.031
Mof_C 	C 	0.5526	0.7991	0.2781	-0.061
Mof_H 	H 	0.5601	0.8329	0.2548	0.041
Mof_C 	C 	0.61766	0.5966	0.6716	0.033
Mof_C 	C 	0.6516	0.54723	0.6655	-0.015
Mof_C 	C 	0.69232	0.59737	0.7455	0.109
Mof_C 	C 	0.73336	0.61542	0.8006	0.013
Mof_C 	C 	0.64499	0.49715	0.6223	0.131
Mof_C 	C 	0.56153	0.61583	0.6357	0.069
Mof_N 	N 	0.64446	0.62818	0.722	-0.206
Mof_H 	H 	0.6328	0.6613	0.7358	0.114
Mof_N 	N 	0.69893	0.54901	0.7128	-0.126
Mof_N 	N 	0.81198	0.64518	0.90647	-0.214
Mof_N 	N 	0.63369	0.40123	0.54003	-0.24
Mof_N 	N 	0.45239	0.64838	0.56853	-0.225
Mof_O 	O 	0.79618	0.70244	0.03726	-0.433
Mof_O 	O 	0.43141	0.7973	0.44155	-0.437
Mof_C 	C 	0.5167	0.5767	0.6174	-0.047
Mof_H 	H 	0.5223	0.5383	0.6276	0.035
Mof_C 	C 	0.464	0.5938	0.5845	0.006
Mof_H 	H 	0.4349	0.5662	0.5725	0.01
Mof_C 	C 	0.4959	0.6879	0.5862	-0.034
Mof_H 	H 	0.4894	0.7261	0.5754	0.029
Mof_C 	C 	0.5492	0.6725	0.6197	-0.01
Mof_H 	H 	0.5777	0.7006	0.6319	0.027
Mof_C 	C 	0.6537	0.4425	0.6478	-0.112
Mof_H 	H 	0.6635	0.4372	0.6929	0.072
Mof_C 	C 	0.6479	0.3974	0.6066	0.045
Mof_H 	H 	0.654	0.3612	0.6246	0.018
Mof_C 	C 	0.6262	0.4527	0.5176	0.06
Mof_H 	H 	0.6168	0.4565	0.4722	-0.009
Mof_C 	C 	0.6309	0.5042	0.5554	-0.119
Mof_H 	H 	0.6249	0.54	0.5362	0.061
Mof_C 	C 	0.7556	0.6644	0.9003	0.078
Mof_H 	H 	0.7407	0.6876	0.9347	-0.006
Mof_C 	C 	0.7169	0.6538	0.8488	0.047
Mof_H 	H 	0.6789	0.6727	0.8461	0.009
Mof_C 	C 	0.8309	0.609	0.8555	-0.002
Mof_H 	H 	0.8716	0.5954	0.8566	0.016
Mof_C 	C 	0.7939	0.592	0.804	-0.122
Mof_H 	H 	0.8078	0.566	0.772	0.069
Mof_C 	C 	0.7153	0.7027	0.1481	-0.002
Mof_H 	H 	0.7393	0.6702	0.1411	0.026
Mof_C 	C 	0.6707	0.702	0.1966	-0.042
Mof_H 	H 	0.6646	0.6692	0.2224	0.032
Mof_C 	C 	0.5291	0.7987	0.3493	0.02
Mof_H 	H 	0.5204	0.8323	0.3724	0.02
Mof_C 	C 	0.5751	0.7988	0.3003	-0.03
Mof_H 	H 	0.5983	0.8318	0.2927	0.029
Mof_Ni	Ni	0.62714	0.32374	0.48396	1.103
Mof_C 	C 	0.949	0.3994	0.0682	-0.125
Mof_H 	H 	0.9203	0.4222	0.0458	0.064
Mof_C 	C 	0.0005	0.3813	0.0355	0.069
Mof_H 	H 	0.0045	0.3888	0.9898	-0
Mof_C 	C 	0.0361	0.3351	0.1309	0.132
Mof_H 	H 	0.065	0.312	0.1527	-0.019
Mof_C 	C 	0.9827	0.3509	0.1651	-0.178
Mof_H 	H 	0.9769	0.3385	0.2091	0.086
Mof_C 	C 	0.8012	0.5295	0.0919	-0.1
Mof_H 	H 	0.7614	0.5147	0.0979	0.067
Mof_C 	C 	0.8115	0.578	0.0534	0.042
Mof_H 	H 	0.777	0.5969	0.0359	0.01
Mof_C 	C 	0.9144	0.5773	0.0678	0.05
Mof_H 	H 	0.9525	0.5952	0.0607	0.006
Mof_C 	C 	0.9134	0.5286	0.1079	-0.106
Mof_H 	H 	0.9501	0.5133	0.125	0.06
Mof_C 	C 	0.7291	0.3191	0.3834	-0.043
Mof_H 	H 	0.7361	0.2848	0.406	0.027
Mof_C 	C 	0.7635	0.3315	0.3239	-0.144
Mof_H 	H 	0.784	0.3022	0.3012	0.069
Mof_C 	C 	0.6883	0.4044	0.3799	0.047
Mof_H 	H 	0.6592	0.4307	0.3955	-0.007
Mof_C 	C 	0.728	0.4218	0.3304	0.019
Mof_H 	H 	0.7283	0.4599	0.3172	0.024
Mof_C 	C 	0.8028	0.2999	0.628	0.006
Mof_H 	H 	0.7914	0.334	0.6074	0.024
Mof_C 	C 	0.8478	0.3004	0.676	-0.037
Mof_H 	H 	0.8667	0.3347	0.6879	0.03
Mof_C 	C 	0.9915	0.2022	0.8275	-0
Mof_H 	H 	0.0142	0.1692	0.8364	0.03
Mof_C 	C 	0.9474	0.2009	0.7781	-0.045
Mof_H 	H 	0.9399	0.1671	0.7548	0.035
Mof_C 	C 	0.88234	0.4034	0.1716	0.036
Mof_C 	C 	0.8484	0.45277	0.1655	-0.017
Mof_C 	C 	0.80768	0.40263	0.2455	0.109
Mof_C 	C 	0.76664	0.38458	0.3006	0.013
Mof_C 	C 	0.85501	0.50285	0.1223	0.134
Mof_C 	C 	0.93847	0.38417	0.1357	0.062
Mof_N 	N 	0.85554	0.37182	0.222	-0.207
Mof_H 	H 	0.8672	0.3387	0.2358	0.114
Mof_N 	N 	0.80107	0.45099	0.2128	-0.125
Mof_N 	N 	0.68802	0.35482	0.40647	-0.214
Mof_N 	N 	0.86631	0.59877	0.04003	-0.24
Mof_N 	N 	0.04761	0.35162	0.06853	-0.223
Mof_O 	O 	0.70382	0.29756	0.53726	-0.435
Mof_O 	O 	0.06859	0.2027	0.94155	-0.434
Mof_C 	C 	0.9833	0.4233	0.1174	-0.017
Mof_H 	H 	0.9777	0.4617	0.1276	0.025
Mof_C 	C 	0.036	0.4062	0.0845	-0.022
Mof_H 	H 	0.0651	0.4338	0.0725	0.019
Mof_C 	C 	0.0041	0.3121	0.0862	-0.076
Mof_H 	H 	0.0106	0.2739	0.0754	0.041
Mof_C 	C 	0.9508	0.3275	0.1197	0.034
Mof_H 	H 	0.9223	0.2994	0.1319	0.013
Mof_C 	C 	0.8463	0.5575	0.1478	-0.119
Mof_H 	H 	0.8365	0.5628	0.1929	0.074
Mof_C 	C 	0.8521	0.6026	0.1066	0.053
Mof_H 	H 	0.846	0.6388	0.1246	0.015
Mof_C 	C 	0.8738	0.5473	0.0176	0.074
Mof_H 	H 	0.8832	0.5435	0.9722	-0.016
Mof_C 	C 	0.8691	0.4958	0.0554	-0.126
Mof_H 	H 	0.8751	0.46	0.0362	0.063
Mof_C 	C 	0.7444	0.3356	0.4003	0.078
Mof_H 	H 	0.7593	0.3124	0.4347	-0.005
Mof_C 	C 	0.7831	0.3462	0.3488	0.047
Mof_H 	H 	0.8211	0.3273	0.3461	0.008
Mof_C 	C 	0.6691	0.391	0.3555	-0.003
Mof_H 	H 	0.6284	0.4046	0.3566	0.017
Mof_C 	C 	0.7061	0.408	0.304	-0.124
Mof_H 	H 	0.6922	0.434	0.272	0.069
Mof_C 	C 	0.7847	0.2973	0.6481	-0.003
Mof_H 	H 	0.7607	0.3298	0.6411	0.026
Mof_C 	C 	0.8293	0.298	0.6966	-0.044
Mof_H 	H 	0.8354	0.3308	0.7224	0.032
Mof_C 	C 	0.9709	0.2013	0.8493	0
Mof_H 	H 	0.9796	0.1677	0.8724	0.025
Mof_C 	C 	0.9249	0.2012	0.8003	-0.041
Mof_H 	H 	0.9017	0.1682	0.7927	0.033
Mof_Ni	Ni	0.12714	0.17626	0.01604	1.101
Mof_C 	C 	0.449	0.1006	0.4318	-0.107
Mof_H 	H 	0.4203	0.0778	0.4542	0.057
Mof_C 	C 	0.5005	0.1187	0.4645	0.055
Mof_H 	H 	0.5045	0.1112	0.5102	0.003
Mof_C 	C 	0.5361	0.1649	0.3691	0.095
Mof_H 	H 	0.565	0.188	0.3473	-0.006
Mof_C 	C 	0.4827	0.1491	0.3349	-0.142
Mof_H 	H 	0.4769	0.1615	0.2909	0.073
Mof_C 	C 	0.3012	0.9705	0.4081	-0.104
Mof_H 	H 	0.2614	0.9853	0.4021	0.068
Mof_C 	C 	0.3115	0.922	0.4466	0.048
Mof_H 	H 	0.277	0.9031	0.4641	0.007
Mof_C 	C 	0.4144	0.9227	0.4322	0.057
Mof_H 	H 	0.4525	0.9048	0.4393	0.002
Mof_C 	C 	0.4134	0.9714	0.3921	-0.109
Mof_H 	H 	0.4501	0.9867	0.375	0.06
Mof_C 	C 	0.2291	0.1809	0.1166	-0.043
Mof_H 	H 	0.2361	0.2152	0.094	0.026
Mof_C 	C 	0.2635	0.1685	0.1761	-0.143
Mof_H 	H 	0.284	0.1978	0.1988	0.069
Mof_C 	C 	0.1883	0.0956	0.1201	0.045
Mof_H 	H 	0.1592	0.0693	0.1045	-0.007
Mof_C 	C 	0.228	0.0782	0.1696	0.016
Mof_H 	H 	0.2283	0.0401	0.1828	0.025
Mof_C 	C 	0.3028	0.2001	0.872	0.004
Mof_H 	H 	0.2914	0.166	0.8926	0.025
Mof_C 	C 	0.3478	0.1996	0.824	-0.038
Mof_H 	H 	0.3667	0.1653	0.8121	0.03
Mof_C 	C 	0.4915	0.2978	0.6725	-0.011
Mof_H 	H 	0.5142	0.3308	0.6636	0.031
Mof_C 	C 	0.4474	0.2991	0.7219	-0.061
Mof_H 	H 	0.4399	0.3329	0.7452	0.041
Mof_C 	C 	0.38234	0.0966	0.3284	0.033
Mof_C 	C 	0.3484	0.04723	0.3345	-0.016
Mof_C 	C 	0.30768	0.09737	0.2545	0.109
Mof_C 	C 	0.26664	0.11542	0.1994	0.013
Mof_C 	C 	0.35501	0.99715	0.3777	0.133
Mof_C 	C 	0.43847	0.11583	0.3643	0.068
Mof_N 	N 	0.35554	0.12818	0.278	-0.206
Mof_H 	H 	0.3672	0.1613	0.2642	0.114
Mof_N 	N 	0.30107	0.04901	0.2872	-0.126
Mof_N 	N 	0.18802	0.14518	0.09353	-0.215
Mof_N 	N 	0.36631	0.90123	0.45997	-0.241
Mof_N 	N 	0.54761	0.14838	0.43147	-0.225
Mof_O 	O 	0.20382	0.20244	0.96274	-0.433
Mof_O 	O 	0.56859	0.2973	0.55845	-0.437
Mof_C 	C 	0.4833	0.0767	0.3826	-0.047
Mof_H 	H 	0.4777	0.0383	0.3724	0.035
Mof_C 	C 	0.536	0.0938	0.4155	0.006
Mof_H 	H 	0.5651	0.0662	0.4275	0.01
Mof_C 	C 	0.5041	0.1879	0.4138	-0.034
Mof_H 	H 	0.5106	0.2261	0.4246	0.029
Mof_C 	C 	0.4508	0.1725	0.3803	-0.01
Mof_H 	H 	0.4223	0.2006	0.3681	0.027
Mof_C 	C 	0.3463	0.9425	0.3522	-0.114
Mof_H 	H 	0.3365	0.9372	0.3071	0.072
Mof_C 	C 	0.3521	0.8974	0.3934	0.047
Mof_H 	H 	0.346	0.8612	0.3754	0.017
Mof_C 	C 	0.3738	0.9527	0.4824	0.062
Mof_H 	H 	0.3832	0.9565	0.5278	-0.01
Mof_C 	C 	0.3691	0.0042	0.4446	-0.121
Mof_H 	H 	0.3751	0.04	0.4638	0.061
Mof_C 	C 	0.2444	0.1644	0.0997	0.078
Mof_H 	H 	0.2593	0.1876	0.0653	-0.006
Mof_C 	C 	0.2831	0.1538	0.1512	0.046
Mof_H 	H 	0.3211	0.1727	0.1539	0.009
Mof_C 	C 	0.1691	0.109	0.1445	-0.001
Mof_H 	H 	0.1284	0.0954	0.1434	0.016
Mof_C 	C 	0.2061	0.092	0.196	-0.121
Mof_H 	H 	0.1922	0.066	0.228	0.068
Mof_C 	C 	0.2847	0.2027	0.8519	-0.002
Mof_H 	H 	0.2607	0.1702	0.8589	0.026
Mof_C 	C 	0.3293	0.202	0.8034	-0.042
Mof_H 	H 	0.3354	0.1692	0.7776	0.032
Mof_C 	C 	0.4709	0.2987	0.6507	0.02
Mof_H 	H 	0.4796	0.3323	0.6276	0.02
Mof_C 	C 	0.4249	0.2988	0.6997	-0.03
Mof_H 	H 	0.4017	0.3318	0.7073	0.029
Mof_Ni	Ni	0.37286	0.82374	0.51604	1.103
Mof_C 	C 	0.051	0.8994	0.9318	-0.124
Mof_H 	H 	0.0797	0.9222	0.9542	0.063
Mof_C 	C 	0.9995	0.8813	0.9645	0.069
Mof_H 	H 	0.9955	0.8888	0.0102	0
Mof_C 	C 	0.9639	0.8351	0.8691	0.135
Mof_H 	H 	0.935	0.812	0.8473	-0.02
Mof_C 	C 	0.0173	0.8509	0.8349	-0.18
Mof_H 	H 	0.0231	0.8385	0.7909	0.087
Mof_C 	C 	0.1988	0.0295	0.9081	-0.095
Mof_H 	H 	0.2386	0.0147	0.9021	0.065
Mof_C 	C 	0.1885	0.078	0.9466	0.035
Mof_H 	H 	0.223	0.0969	0.9641	0.013
Mof_C 	C 	0.0856	0.0773	0.9322	0.042
Mof_H 	H 	0.0475	0.0952	0.9393	0.009
Mof_C 	C 	0.0866	0.0286	0.8921	-0.1
Mof_H 	H 	0.0499	0.0133	0.875	0.058
Mof_C 	C 	0.2709	0.8191	0.6166	-0.043
Mof_H 	H 	0.2639	0.7848	0.594	0.027
Mof_C 	C 	0.2365	0.8315	0.6761	-0.143
Mof_H 	H 	0.216	0.8022	0.6988	0.069
Mof_C 	C 	0.3117	0.9044	0.6201	0.047
Mof_H 	H 	0.3408	0.9307	0.6045	-0.007
Mof_C 	C 	0.272	0.9218	0.6696	0.019
Mof_H 	H 	0.2717	0.9599	0.6828	0.024
Mof_C 	C 	0.1972	0.7999	0.372	0.006
Mof_H 	H 	0.2086	0.834	0.3926	0.024
Mof_C 	C 	0.1522	0.8004	0.324	-0.037
Mof_H 	H 	0.1333	0.8347	0.3121	0.03
Mof_C 	C 	0.0085	0.7022	0.1725	-0
Mof_H 	H 	0.9858	0.6692	0.1636	0.03
Mof_C 	C 	0.0526	0.7009	0.2219	-0.045
Mof_H 	H 	0.0601	0.6671	0.2452	0.035
Mof_C 	C 	0.11766	0.9034	0.8284	0.037
Mof_C 	C 	0.1516	0.95277	0.8345	-0.019
Mof_C 	C 	0.19232	0.90263	0.7545	0.109
Mof_C 	C 	0.23336	0.88458	0.6994	0.013
Mof_C 	C 	0.14499	0.00285	0.8777	0.139
Mof_C 	C 	0.06153	0.88417	0.8643	0.06
Mof_N 	N 	0.14446	0.87182	0.778	-0.207
Mof_H 	H 	0.1328	0.8387	0.7642	0.114
Mof_N 	N 	0.19893	0.95099	0.7872	-0.125
Mof_N 	N 	0.31198	0.85482	0.59353	-0.214
Mof_N 	N 	0.13369	0.09877	0.95997	-0.241
Mof_N 	N 	0.95239	0.85162	0.93147	-0.222
Mof_O 	O 	0.29618	0.79756	0.46274	-0.435
Mof_O 	O 	0.93141	0.7027	0.05845	-0.434
Mof_C 	C 	0.0167	0.9233	0.8826	-0.015
Mof_H 	H 	0.0223	0.9617	0.8724	0.025
Mof_C 	C 	0.964	0.9062	0.9155	-0.023
Mof_H 	H 	0.9349	0.9338	0.9275	0.02
Mof_C 	C 	0.9959	0.8121	0.9138	-0.08
Mof_H 	H 	0.9894	0.7739	0.9246	0.043
Mof_C 	C 	0.0492	0.8275	0.8803	0.038
Mof_H 	H 	0.0777	0.7994	0.8681	0.011
Mof_C 	C 	0.1537	0.0575	0.8522	-0.127
Mof_H 	H 	0.1635	0.0628	0.8071	0.077
Mof_C 	C 	0.1479	0.1026	0.8934	0.062
Mof_H 	H 	0.154	0.1388	0.8754	0.012
Mof_C 	C 	0.1262	0.0473	0.9824	0.086
Mof_H 	H 	0.1168	0.0435	0.0278	-0.022
Mof_C 	C 	0.1309	0.9958	0.9446	-0.138
Mof_H 	H 	0.1249	0.96	0.9638	0.067
Mof_C 	C 	0.2556	0.8356	0.5997	0.078
Mof_H 	H 	0.2407	0.8124	0.5653	-0.005
Mof_C 	C 	0.2169	0.8462	0.6512	0.047
Mof_H 	H 	0.1789	0.8273	0.6539	0.008
Mof_C 	C 	0.3309	0.891	0.6445	-0.003
Mof_H 	H 	0.3716	0.9046	0.6434	0.017
Mof_C 	C 	0.2939	0.908	0.696	-0.124
Mof_H 	H 	0.3078	0.934	0.728	0.069
Mof_C 	C 	0.2153	0.7973	0.3519	-0.003
Mof_H 	H 	0.2393	0.8298	0.3589	0.026
Mof_C 	C 	0.1707	0.798	0.3034	-0.044
Mof_H 	H 	0.1646	0.8308	0.2776	0.032
Mof_C 	C 	0.0291	0.7013	0.1507	-0
Mof_H 	H 	0.0204	0.6677	0.1276	0.025
Mof_C 	C 	0.0751	0.7012	0.1997	-0.041
Mof_H 	H 	0.0983	0.6682	0.2073	0.033
Mof_C 	C 	0.2228	0.25	0.9437	0.39
Mof_C 	C 	0.5507	0.25	0.5796	0.398
Mof_C 	C 	0.274	0.25	0.8907	-0.104
Mof_C 	C 	0.5037	0.25	0.6356	-0.114
Mof_C 	C 	0.3658	0.25	0.7922	0.017
Mof_C 	C 	0.4135	0.25	0.7373	0.026
Mof_O 	O 	0.12202	0.25	0.06613	-0.45
Mof_C 	C 	0.2772	0.75	0.4437	0.39
Mof_C 	C 	0.9493	0.75	0.0796	0.395
Mof_C 	C 	0.226	0.75	0.3907	-0.104
Mof_C 	C 	0.9963	0.75	0.1356	-0.104
Mof_C 	C 	0.1342	0.75	0.2922	0.018
Mof_C 	C 	0.0865	0.75	0.2373	0.023
Mof_O 	O 	0.37798	0.75	0.56613	-0.45
Mof_C 	C 	0.7772	0.75	0.0563	0.39
Mof_C 	C 	0.4493	0.75	0.4204	0.398
Mof_C 	C 	0.726	0.75	0.1093	-0.104
Mof_C 	C 	0.4963	0.75	0.3644	-0.114
Mof_C 	C 	0.6342	0.75	0.2078	0.017
Mof_C 	C 	0.5865	0.75	0.2627	0.026
Mof_O 	O 	0.87798	0.75	0.93387	-0.45
Mof_C 	C 	0.7228	0.25	0.5563	0.39
Mof_C 	C 	0.0507	0.25	0.9204	0.395
Mof_C 	C 	0.774	0.25	0.6093	-0.104
Mof_C 	C 	0.0037	0.25	0.8644	-0.104
Mof_C 	C 	0.8658	0.25	0.7078	0.018
Mof_C 	C 	0.9135	0.25	0.7627	0.023
Mof_O 	O 	0.62202	0.25	0.43387	-0.45
_end
