# CIF file generated by openbabel 3.1.0, see https://openbabel.org
data_I
_chemical_name_common 'image0'
_cell_length_a 7.5106
_cell_length_b 31.1959
_cell_length_c 10.5537
_cell_angle_alpha 90
_cell_angle_beta 118.658
_cell_angle_gamma 90
_space_group_name_H-M_alt 'P 1'
_space_group_name_Hall 'P 1'
loop_
    _symmetry_equiv_pos_as_xyz
    x,y,z
loop_
    _atom_site_label
    _atom_site_type_symbol
    _atom_site_fract_x
    _atom_site_fract_y
    _atom_site_fract_z
    _atom_site_occupancy
    C1       C        0.95360    0.08703    0.52480    1.000
    C2       C        0.84840    0.04976    0.49970    1.000
    H1       H        0.73120    0.04300    0.41120    1.000
    C3       C        0.09320    0.04461    0.71930    1.000
    C4       C        0.23420    0.03310    0.86220    1.000
    H2       H        0.22700    0.00590    0.89980    1.000
    C5       C        0.37970    0.06157    0.94440    1.000
    H3       H        0.47680    0.05410    0.04030    1.000
    C6       C        0.38900    0.10178    0.89010    1.000
    H4       H        0.49080    0.12150    0.95060    1.000
    C7       C        0.25650    0.11323    0.75360    1.000
    H5       H        0.26330    0.14080    0.71800    1.000
    C8       C        0.32740    0.92205    0.26950    1.000
    C9       C        0.19580    0.93404    0.12750    1.000
    H6       H        0.20520    0.96200    0.09550    1.000
    C10      C        0.05060    0.90556    0.03200    1.000
    C11      C        0.03670    0.86496    0.08060    1.000
    H7       H        0.93590    0.84560    0.01700    1.000
    C12      C        0.16960    0.85237    0.22230    1.000
    C13      C        0.31740    0.88064    0.31570    1.000
    H8       H        0.41130    0.87180    0.41080    1.000
    C14      C        0.47880    0.95327    0.37100    1.000
    C15      C        0.15380    0.80854    0.27490    1.000
    C16      C        0.03410    0.17914    0.32980    1.000
    H9       H        0.14340    0.19510    0.33230    1.000
    C17      C        0.07720    0.14618    0.42510    1.000
    H10      H        0.21420    0.13890    0.48970    1.000
    C18      C        0.91910    0.12316    0.42720    1.000
    C19      C        0.71940    0.13426    0.32610    1.000
    H11      H        0.60730    0.11920    0.32280    1.000
    C20      C        0.68980    0.16755    0.23170    1.000
    H12      H        0.55450    0.17490    0.16320    1.000
    C21      C        0.90610    0.91875    0.87970    1.000
    N1       N        0.93050    0.02327    0.61590    1.000
    N2       N        0.11030    0.08398    0.66620    1.000
    N3       N        0.84180    0.19006    0.23160    1.000
    O1       O        0.62930    0.93786    0.48190    1.000
    O2       O        0.44910    0.99294    0.34470    1.000
    O3       O        0.96440    0.95180    0.83640    1.000
    O4       O        0.74890    0.89870    0.80660    1.000
    O5       O        0.28300    0.79757    0.40240    1.000
    O6       O        0.01390    0.78353    0.19430    1.000
    Zn1      Zn       0.78098    0.97494    0.65010    1.000
    Zn2      Zn       0.19596    0.73785    0.40921    1.000
    C22      C        0.04640    0.58703    0.97520    1.000
    C23      C        0.15160    0.54976    0.00030    1.000
    H13      H        0.26880    0.54300    0.08880    1.000
    C24      C        0.90680    0.54461    0.78070    1.000
    C25      C        0.76580    0.53310    0.63780    1.000
    H14      H        0.77300    0.50590    0.60020    1.000
    C26      C        0.62030    0.56157    0.55560    1.000
    H15      H        0.52320    0.55410    0.45970    1.000
    C27      C        0.61100    0.60178    0.60990    1.000
    H16      H        0.50920    0.62150    0.54940    1.000
    C28      C        0.74350    0.61323    0.74640    1.000
    H17      H        0.73670    0.64080    0.78200    1.000
    C29      C        0.67260    0.42205    0.23050    1.000
    C30      C        0.80420    0.43404    0.37250    1.000
    H18      H        0.79480    0.46200    0.40450    1.000
    C31      C        0.94940    0.40556    0.46800    1.000
    C32      C        0.96330    0.36496    0.41940    1.000
    H19      H        0.06410    0.34560    0.48300    1.000
    C33      C        0.83040    0.35237    0.27770    1.000
    C34      C        0.68260    0.38064    0.18430    1.000
    H20      H        0.58870    0.37180    0.08920    1.000
    C35      C        0.52120    0.45327    0.12900    1.000
    C36      C        0.84620    0.30854    0.22510    1.000
    C37      C        0.96590    0.67914    0.17020    1.000
    H21      H        0.85660    0.69510    0.16770    1.000
    C38      C        0.92280    0.64618    0.07490    1.000
    H22      H        0.78580    0.63890    0.01030    1.000
    C39      C        0.08090    0.62316    0.07280    1.000
    C40      C        0.28060    0.63426    0.17390    1.000
    H23      H        0.39270    0.61920    0.17720    1.000
    C41      C        0.31020    0.66755    0.26830    1.000
    H24      H        0.44550    0.67490    0.33680    1.000
    C42      C        0.09390    0.41875    0.62030    1.000
    N4       N        0.06950    0.52327    0.88410    1.000
    N5       N        0.88970    0.58398    0.83380    1.000
    N6       N        0.15820    0.69006    0.26840    1.000
    O7       O        0.37070    0.43786    0.01810    1.000
    O8       O        0.55090    0.49294    0.15530    1.000
    O9       O        0.03560    0.45180    0.66360    1.000
    O10      O        0.25110    0.39870    0.69340    1.000
    O11      O        0.71700    0.29757    0.09760    1.000
    O12      O        0.98610    0.28353    0.30570    1.000
    Zn3      Zn       0.21902    0.47494    0.84990    1.000
    Zn4      Zn       0.80404    0.23785    0.09079    1.000
    C43      C        0.04640    0.91297    0.47520    1.000
    C44      C        0.15160    0.95024    0.50030    1.000
    H25      H        0.26880    0.95700    0.58880    1.000
    C45      C        0.90680    0.95539    0.28070    1.000
    C46      C        0.76580    0.96690    0.13780    1.000
    H26      H        0.77300    0.99410    0.10020    1.000
    C47      C        0.62030    0.93843    0.05560    1.000
    H27      H        0.52320    0.94590    0.95970    1.000
    C48      C        0.61100    0.89822    0.10990    1.000
    H28      H        0.50920    0.87850    0.04940    1.000
    C49      C        0.74350    0.88677    0.24640    1.000
    H29      H        0.73670    0.85920    0.28200    1.000
    C50      C        0.67260    0.07795    0.73050    1.000
    C51      C        0.80420    0.06596    0.87250    1.000
    H30      H        0.79480    0.03800    0.90450    1.000
    C52      C        0.94940    0.09444    0.96800    1.000
    C53      C        0.96330    0.13504    0.91940    1.000
    H31      H        0.06410    0.15440    0.98300    1.000
    C54      C        0.83040    0.14763    0.77770    1.000
    C55      C        0.68260    0.11936    0.68430    1.000
    H32      H        0.58870    0.12820    0.58920    1.000
    C56      C        0.52120    0.04673    0.62900    1.000
    C57      C        0.84620    0.19146    0.72510    1.000
    C58      C        0.96590    0.82086    0.67020    1.000
    H33      H        0.85660    0.80490    0.66770    1.000
    C59      C        0.92280    0.85382    0.57490    1.000
    H34      H        0.78580    0.86110    0.51030    1.000
    C60      C        0.08090    0.87684    0.57280    1.000
    C61      C        0.28060    0.86574    0.67390    1.000
    H35      H        0.39270    0.88080    0.67720    1.000
    C62      C        0.31020    0.83245    0.76830    1.000
    H36      H        0.44550    0.82510    0.83680    1.000
    C63      C        0.09390    0.08125    0.12030    1.000
    N7       N        0.06950    0.97673    0.38410    1.000
    N8       N        0.88970    0.91602    0.33380    1.000
    N9       N        0.15820    0.80994    0.76840    1.000
    O13      O        0.37070    0.06214    0.51810    1.000
    O14      O        0.55090    0.00706    0.65530    1.000
    O15      O        0.03560    0.04820    0.16360    1.000
    O16      O        0.25110    0.10130    0.19340    1.000
    O17      O        0.71700    0.20243    0.59760    1.000
    O18      O        0.98610    0.21647    0.80570    1.000
    Zn5      Zn       0.21902    0.02506    0.34990    1.000
    Zn6      Zn       0.80404    0.26215    0.59079    1.000
    C64      C        0.95360    0.41297    0.02480    1.000
    C65      C        0.84840    0.45024    0.99970    1.000
    H37      H        0.73120    0.45700    0.91120    1.000
    C66      C        0.09320    0.45539    0.21930    1.000
    C67      C        0.23420    0.46690    0.36220    1.000
    H38      H        0.22700    0.49410    0.39980    1.000
    C68      C        0.37970    0.43843    0.44440    1.000
    H39      H        0.47680    0.44590    0.54030    1.000
    C69      C        0.38900    0.39822    0.39010    1.000
    H40      H        0.49080    0.37850    0.45060    1.000
    C70      C        0.25650    0.38677    0.25360    1.000
    H41      H        0.26330    0.35920    0.21800    1.000
    C71      C        0.32740    0.57795    0.76950    1.000
    C72      C        0.19580    0.56596    0.62750    1.000
    H42      H        0.20520    0.53800    0.59550    1.000
    C73      C        0.05060    0.59444    0.53200    1.000
    C74      C        0.03670    0.63504    0.58060    1.000
    H43      H        0.93590    0.65440    0.51700    1.000
    C75      C        0.16960    0.64763    0.72230    1.000
    C76      C        0.31740    0.61936    0.81570    1.000
    H44      H        0.41130    0.62820    0.91080    1.000
    C77      C        0.47880    0.54673    0.87100    1.000
    C78      C        0.15380    0.69146    0.77490    1.000
    C79      C        0.03410    0.32086    0.82980    1.000
    H45      H        0.14340    0.30490    0.83230    1.000
    C80      C        0.07720    0.35382    0.92510    1.000
    H46      H        0.21420    0.36110    0.98970    1.000
    C81      C        0.91910    0.37684    0.92720    1.000
    C82      C        0.71940    0.36574    0.82610    1.000
    H47      H        0.60730    0.38080    0.82280    1.000
    C83      C        0.68980    0.33245    0.73170    1.000
    H48      H        0.55450    0.32510    0.66320    1.000
    C84      C        0.90610    0.58125    0.37970    1.000
    N10      N        0.93050    0.47673    0.11590    1.000
    N11      N        0.11030    0.41602    0.16620    1.000
    N12      N        0.84180    0.30994    0.73160    1.000
    O19      O        0.62930    0.56214    0.98190    1.000
    O20      O        0.44910    0.50706    0.84470    1.000
    O21      O        0.96440    0.54820    0.33640    1.000
    O22      O        0.74890    0.60130    0.30660    1.000
    O23      O        0.28300    0.70243    0.90240    1.000
    O24      O        0.01390    0.71647    0.69430    1.000
    Zn7      Zn       0.78098    0.52506    0.15010    1.000
    Zn8      Zn       0.19596    0.76215    0.90921    1.000
