data_functionalizedCrystal
_audit_creation_method	'EQeq! by Chris Wilmer'
_symmetry_space_group_name_H-M	'P1'
_symmetry_Int_Tables_number	1
_symmetry_cell_setting	triclinic
loop_
_symmetry_equiv_pos_as_xyz
  x,y,z
_cell_length_a	12.338
_cell_length_b	33.33
_cell_length_c	25.857
_cell_angle_alpha	90
_cell_angle_beta	97.45
_cell_angle_gamma	90
loop_
_atom_site_label
_atom_site_type_symbol
_atom_site_fract_x
_atom_site_fract_y
_atom_site_fract_z
_atom_site_charge
Mof_Mn	Mn	0.81427	0.56725	0.1995	0.888
Mof_C 	C 	0.7223	0.64814	0.13452	0.021
Mof_H 	H 	0.6987	0.6735	0.1167	0.011
Mof_H 	H 	0.7854	0.6541	0.1611	0.031
Mof_Mn	Mn	0.00924	0.4963	0.25322	1.019
Mof_Cl	Cl	0.09466	0.69093	0.41265	-0.465
Mof_Mn	Mn	0.21946	0.42849	0.3027	0.894
Mof_C 	C 	0.3067	0.3492	0.37219	0.015
Mof_H 	H 	0.329	0.3242	0.3914	0.026
Mof_H 	H 	0.2475	0.3424	0.344	0.048
Mof_N 	N 	0.6575	0.59921	0.19144	-0.19
Mof_N 	N 	0.633	0.6319	0.15988	-0.136
Mof_C 	C 	0.5255	0.64101	0.1547	0.25
Mof_C 	C 	0.4762	0.61285	0.1831	-0.255
Mof_C 	C 	0.5615	0.58705	0.2056	0.281
Mof_C 	C 	0.4786	0.6758	0.1238	-0.582
Mof_H 	H 	0.5269	0.6991	0.1308	0.174
Mof_H 	H 	0.4064	0.6822	0.1337	0.181
Mof_H 	H 	0.4713	0.6692	0.0866	0.174
Mof_C 	C 	0.5558	0.5523	0.2403	-0.667
Mof_H 	H 	0.5512	0.5276	0.2196	0.215
Mof_H 	H 	0.491	0.5546	0.2583	0.218
Mof_H 	H 	0.6215	0.5515	0.266	0.212
Mof_C 	C 	0.3603	0.60821	0.1884	0.173
Mof_C 	C 	0.2951	0.64003	0.2008	-0.19
Mof_H 	H 	0.326	0.6661	0.2054	0.082
Mof_C 	C 	0.1848	0.63441	0.2066	0.084
Mof_H 	H 	0.1414	0.6564	0.2149	0.01
Mof_C 	C 	0.1394	0.59593	0.1998	-0.157
Mof_C 	C 	0.2038	0.56425	0.1882	0.091
Mof_H 	H 	0.1733	0.5381	0.1846	0.012
Mof_C 	C 	0.3116	0.57002	0.1817	-0.194
Mof_H 	H 	0.3539	0.5479	0.1726	0.089
Mof_C 	C 	0.0235	0.58862	0.2056	0.349
Mof_O 	O 	0.9581	0.61747	0.20837	-0.316
Mof_O 	O 	0.9884	0.55238	0.20505	-0.434
Mof_N 	N 	0.8112	0.58668	0.11502	-0.185
Mof_N 	N 	0.7548	0.6202	0.09728	-0.137
Mof_C 	C 	0.7454	0.62276	0.0445	0.282
Mof_C 	C 	0.7972	0.58964	0.02711	-0.3
Mof_C 	C 	0.8371	0.56788	0.0727	0.291
Mof_C 	C 	0.6874	0.656	0.0146	-0.632
Mof_H 	H 	0.618	0.6612	0.028	0.194
Mof_H 	H 	0.673	0.6486	0.9777	0.204
Mof_H 	H 	0.7327	0.6802	0.0184	0.195
Mof_C 	C 	0.8972	0.529	0.0779	-0.649
Mof_H 	H 	0.963	0.5309	0.0605	0.207
Mof_H 	H 	0.85	0.5076	0.0617	0.208
Mof_H 	H 	0.9181	0.5229	0.1149	0.216
Mof_C 	C 	0.81	0.58	0.9727	0.292
Mof_C 	C 	0.8261	0.56282	0.86786	-0.246
Mof_C 	C 	0.8348	0.5542	0.81186	0.447
Mof_O 	O 	0.7841	0.57643	0.77785	-0.426
Mof_O 	O 	0.8913	0.52543	0.80158	-0.422
Mof_N 	N 	0.3711	0.29448	0.1239	-0.187
Mof_N 	N 	0.433	0.28598	0.08593	-0.135
Mof_C 	C 	0.5157	0.31296	0.084	0.246
Mof_C 	C 	0.5054	0.34078	0.1227	-0.267
Mof_C 	C 	0.4155	0.32763	0.1472	0.281
Mof_C 	C 	0.5962	0.31105	0.0459	-0.58
Mof_H 	H 	0.6373	0.2859	0.0506	0.177
Mof_H 	H 	0.6468	0.3338	0.0516	0.184
Mof_H 	H 	0.5575	0.3123	0.0103	0.169
Mof_C 	C 	0.3729	0.3454	0.1934	-0.668
Mof_H 	H 	0.293	0.343	0.1892	0.219
Mof_H 	H 	0.3936	0.3737	0.1965	0.226
Mof_H 	H 	0.404	0.331	0.225	0.235
Mof_C 	C 	0.5764	0.37571	0.1373	0.219
Mof_C 	C 	0.5396	0.4143	0.1268	-0.24
Mof_H 	H 	0.4676	0.4184	0.1097	0.103
Mof_C 	C 	0.606	0.4477	0.1407	0.119
Mof_H 	H 	0.5807	0.474	0.1315	-0.01
Mof_C 	C 	0.7112	0.4418	0.1687	-0.22
Mof_C 	C 	0.7358	0.4041	0.1847	0.16
Mof_H 	H 	0.8017	0.3996	0.2074	-0.01
Mof_C 	C 	0.6705	0.3722	0.17	-0.263
Mof_H 	H 	0.692	0.3464	0.1831	0.118
Mof_C 	C 	0.7827	0.47686	0.18633	0.434
Mof_O 	O 	0.7428	0.51139	0.17851	-0.424
Mof_O 	O 	0.8746	0.46857	0.20771	-0.419
Mof_N 	N 	0.629	0.70496	0.3835	-0.182
Mof_N 	N 	0.5599	0.71427	0.41891	-0.134
Mof_C 	C 	0.4754	0.68775	0.4185	0.268
Mof_C 	C 	0.494	0.65927	0.3811	-0.252
Mof_C 	C 	0.5887	0.67146	0.3598	0.251
Mof_C 	C 	0.3888	0.69075	0.4524	-0.662
Mof_H 	H 	0.4216	0.6964	0.4882	0.207
Mof_H 	H 	0.3486	0.6654	0.4515	0.233
Mof_H 	H 	0.3385	0.7125	0.4399	0.225
Mof_C 	C 	0.6354	0.65281	0.3152	-0.611
Mof_H 	H 	0.5864	0.6578	0.2829	0.197
Mof_H 	H 	0.6431	0.6238	0.321	0.205
Mof_H 	H 	0.7072	0.6646	0.3124	0.184
Mof_C 	C 	0.4266	0.62318	0.3666	0.188
Mof_C 	C 	0.3162	0.62607	0.3473	-0.21
Mof_H 	H 	0.2826	0.6518	0.3446	0.117
Mof_C 	C 	0.2538	0.59255	0.3319	0.118
Mof_H 	H 	0.1783	0.5953	0.3194	0.012
Mof_C 	C 	0.303	0.55463	0.3351	-0.187
Mof_C 	C 	0.4143	0.55119	0.3554	0.1
Mof_H 	H 	0.4479	0.5255	0.3591	-0.006
Mof_C 	C 	0.4746	0.58551	0.37	-0.213
Mof_H 	H 	0.5502	0.5831	0.3826	0.094
Mof_C 	C 	0.2381	0.51846	0.31735	0.415
Mof_O 	O 	0.1399	0.52394	0.30061	-0.41
Mof_O 	O 	0.2854	0.48486	0.32082	-0.418
Mof_N 	N 	0.2136	0.41125	0.38742	-0.183
Mof_N 	N 	0.2653	0.3773	0.40749	-0.134
Mof_C 	C 	0.2646	0.37433	0.45923	0.274
Mof_C 	C 	0.2108	0.40802	0.47456	-0.256
Mof_C 	C 	0.1805	0.4301	0.4281	0.283
Mof_C 	C 	0.3193	0.34045	0.4908	-0.642
Mof_H 	H 	0.2678	0.3181	0.4914	0.227
Mof_H 	H 	0.3424	0.3496	0.5265	0.218
Mof_H 	H 	0.3833	0.3315	0.4751	0.202
Mof_C 	C 	0.1212	0.46906	0.4206	-0.65
Mof_H 	H 	0.1737	0.4912	0.4261	0.214
Mof_H 	H 	0.0684	0.4712	0.4458	0.215
Mof_H 	H 	0.0824	0.4704	0.3851	0.222
Mof_C 	C 	0.1894	0.41833	0.52753	0.189
Mof_C 	C 	0.1616	0.38878	0.56252	-0.211
Mof_H 	H 	0.1524	0.3617	0.5514	0.111
Mof_C 	C 	0.1476	0.39914	0.61299	0.115
Mof_H 	H 	0.1332	0.3787	0.6368	0.002
Mof_C 	C 	0.1541	0.43889	0.62976	-0.188
Mof_C 	C 	0.178	0.46857	0.5946	0.109
Mof_H 	H 	0.181	0.4959	0.6051	-0.007
Mof_C 	C 	0.1971	0.45835	0.545	-0.213
Mof_H 	H 	0.2159	0.4787	0.5221	0.095
Mof_C 	C 	0.14	0.44969	0.68456	0.408
Mof_O 	O 	0.1759	0.42513	0.71963	-0.407
Mof_O 	O 	0.0932	0.48203	0.69215	-0.404
Mof_N 	N 	0.3791	0.39695	0.31642	-0.188
Mof_N 	N 	0.3985	0.36494	0.34951	-0.135
Mof_C 	C 	0.5052	0.35526	0.3574	0.264
Mof_C 	C 	0.5606	0.38186	0.329	-0.253
Mof_C 	C 	0.4775	0.40752	0.304	0.271
Mof_C 	C 	0.5478	0.3214	0.3925	-0.622
Mof_H 	H 	0.5235	0.3249	0.4268	0.191
Mof_H 	H 	0.6279	0.3212	0.3963	0.216
Mof_H 	H 	0.5199	0.2959	0.3773	0.205
Mof_C 	C 	0.4868	0.44147	0.2674	-0.647
Mof_H 	H 	0.4226	0.4418	0.2408	0.208
Mof_H 	H 	0.553	0.4381	0.2506	0.213
Mof_H 	H 	0.491	0.4668	0.2868	0.209
Mof_C 	C 	0.6774	0.38516	0.3252	0.183
Mof_C 	C 	0.7413	0.3524	0.314	-0.194
Mof_H 	H 	0.7095	0.3264	0.3113	0.097
Mof_C 	C 	0.8505	0.35697	0.3068	0.094
Mof_H 	H 	0.8922	0.3344	0.2987	0.013
Mof_C 	C 	0.8981	0.39514	0.3115	-0.156
Mof_C 	C 	0.8366	0.42751	0.3249	0.097
Mof_H 	H 	0.869	0.4534	0.3293	0.01
Mof_C 	C 	0.7291	0.42222	0.332	-0.2
Mof_H 	H 	0.6887	0.4446	0.3418	0.094
Mof_C 	C 	0.0114	0.40201	0.3003	0.349
Mof_O 	O 	0.0754	0.37295	0.29478	-0.304
Mof_O 	O 	0.0436	0.4384	0.29812	-0.437
Mof_C 	C 	0.8277	0.61	0.9378	-0.164
Mof_H 	H 	0.8347	0.6369	0.95	0.067
Mof_C 	C 	0.8356	0.6023	0.8853	0.082
Mof_H 	H 	0.8471	0.6235	0.8621	-0.009
Mof_C 	C 	0.8108	0.532	0.9009	0.07
Mof_H 	H 	0.8067	0.5051	0.8885	0.003
Mof_C 	C 	0.8012	0.5402	0.9529	-0.142
Mof_H 	H 	0.7885	0.5187	0.9755	0.065
Mof_C 	C 	0.7205	0.5849	0.9358	-0.195
Mof_H 	H 	0.6536	0.5943	0.9458	0.081
Mof_C 	C 	0.7272	0.5762	0.8849	0.106
Mof_H 	H 	0.6639	0.5792	0.86	-0.02
Mof_C 	C 	0.9148	0.556	0.9062	0.094
Mof_H 	H 	0.9815	0.5458	0.897	-0.004
Mof_C 	C 	0.9044	0.5645	0.959	-0.183
Mof_H 	H 	0.964	0.5593	0.9853	0.075
Mof_Mn	Mn	0.18573	0.06725	0.8005	0.887
Mof_C 	C 	0.2777	0.14814	0.86548	0.02
Mof_H 	H 	0.3013	0.1735	0.8833	0.01
Mof_H 	H 	0.2146	0.1541	0.8389	0.03
Mof_Mn	Mn	0.99076	0.9963	0.74678	1.018
Mof_Cl	Cl	0.90534	0.19093	0.58735	-0.466
Mof_Mn	Mn	0.78054	0.92849	0.6973	0.893
Mof_C 	C 	0.6933	0.8492	0.62781	0.014
Mof_H 	H 	0.671	0.8242	0.6086	0.025
Mof_H 	H 	0.7525	0.8424	0.656	0.047
Mof_N 	N 	0.3425	0.09921	0.80856	-0.191
Mof_N 	N 	0.367	0.1319	0.84012	-0.137
Mof_C 	C 	0.4745	0.14101	0.8453	0.25
Mof_C 	C 	0.5238	0.11285	0.8169	-0.255
Mof_C 	C 	0.4385	0.08705	0.7944	0.281
Mof_C 	C 	0.5214	0.1758	0.8762	-0.582
Mof_H 	H 	0.4731	0.1991	0.8692	0.174
Mof_H 	H 	0.5936	0.1822	0.8663	0.181
Mof_H 	H 	0.5287	0.1692	0.9134	0.174
Mof_C 	C 	0.4442	0.0523	0.7597	-0.667
Mof_H 	H 	0.4488	0.0276	0.7804	0.215
Mof_H 	H 	0.509	0.0546	0.7417	0.218
Mof_H 	H 	0.3785	0.0515	0.734	0.212
Mof_C 	C 	0.6397	0.10821	0.8116	0.173
Mof_C 	C 	0.7049	0.14003	0.7992	-0.19
Mof_H 	H 	0.674	0.1661	0.7946	0.082
Mof_C 	C 	0.8152	0.13441	0.7934	0.084
Mof_H 	H 	0.8586	0.1564	0.7851	0.01
Mof_C 	C 	0.8606	0.09593	0.8002	-0.157
Mof_C 	C 	0.7962	0.06425	0.8118	0.091
Mof_H 	H 	0.8267	0.0381	0.8154	0.012
Mof_C 	C 	0.6884	0.07002	0.8183	-0.194
Mof_H 	H 	0.6461	0.0479	0.8274	0.089
Mof_C 	C 	0.9765	0.08862	0.7944	0.349
Mof_O 	O 	0.0419	0.11747	0.79163	-0.316
Mof_O 	O 	0.0116	0.05238	0.79495	-0.434
Mof_N 	N 	0.1888	0.08668	0.88498	-0.185
Mof_N 	N 	0.2452	0.1202	0.90272	-0.137
Mof_C 	C 	0.2546	0.12276	0.9555	0.281
Mof_C 	C 	0.2028	0.08964	0.97289	-0.299
Mof_C 	C 	0.1629	0.06788	0.9273	0.291
Mof_C 	C 	0.3126	0.156	0.9854	-0.631
Mof_H 	H 	0.382	0.1612	0.972	0.194
Mof_H 	H 	0.327	0.1486	0.0223	0.204
Mof_H 	H 	0.2673	0.1802	0.9816	0.194
Mof_C 	C 	0.1028	0.029	0.9221	-0.649
Mof_H 	H 	0.037	0.0309	0.9395	0.208
Mof_H 	H 	0.15	0.0076	0.9383	0.209
Mof_H 	H 	0.0819	0.0229	0.8851	0.216
Mof_C 	C 	0.19	0.08	0.0273	0.291
Mof_C 	C 	0.1739	0.06282	0.13214	-0.246
Mof_C 	C 	0.1652	0.0542	0.18814	0.447
Mof_O 	O 	0.2159	0.07643	0.22215	-0.426
Mof_O 	O 	0.1087	0.02543	0.19842	-0.422
Mof_N 	N 	0.6289	0.79448	0.8761	-0.187
Mof_N 	N 	0.567	0.78598	0.91407	-0.135
Mof_C 	C 	0.4843	0.81296	0.916	0.246
Mof_C 	C 	0.4946	0.84078	0.8773	-0.267
Mof_C 	C 	0.5845	0.82763	0.8528	0.281
Mof_C 	C 	0.4038	0.81105	0.9541	-0.579
Mof_H 	H 	0.3627	0.7859	0.9494	0.177
Mof_H 	H 	0.3532	0.8338	0.9484	0.184
Mof_H 	H 	0.4425	0.8123	0.9897	0.169
Mof_C 	C 	0.6271	0.8454	0.8066	-0.668
Mof_H 	H 	0.707	0.843	0.8108	0.219
Mof_H 	H 	0.6064	0.8737	0.8035	0.226
Mof_H 	H 	0.596	0.831	0.775	0.235
Mof_C 	C 	0.4236	0.87571	0.8627	0.219
Mof_C 	C 	0.4604	0.9143	0.8732	-0.24
Mof_H 	H 	0.5324	0.9184	0.8903	0.103
Mof_C 	C 	0.394	0.9477	0.8593	0.119
Mof_H 	H 	0.4193	0.974	0.8685	-0.011
Mof_C 	C 	0.2888	0.9418	0.8313	-0.22
Mof_C 	C 	0.2642	0.9041	0.8153	0.159
Mof_H 	H 	0.1983	0.8996	0.7926	-0.01
Mof_C 	C 	0.3295	0.8722	0.83	-0.263
Mof_H 	H 	0.308	0.8464	0.8169	0.118
Mof_C 	C 	0.2173	0.97686	0.81367	0.433
Mof_O 	O 	0.2572	0.01139	0.82149	-0.423
Mof_O 	O 	0.1254	0.96857	0.79229	-0.419
Mof_N 	N 	0.371	0.20496	0.6165	-0.182
Mof_N 	N 	0.4401	0.21427	0.58109	-0.134
Mof_C 	C 	0.5246	0.18775	0.5815	0.268
Mof_C 	C 	0.506	0.15927	0.6189	-0.252
Mof_C 	C 	0.4113	0.17146	0.6402	0.251
Mof_C 	C 	0.6112	0.19075	0.5476	-0.662
Mof_H 	H 	0.5784	0.1964	0.5118	0.207
Mof_H 	H 	0.6514	0.1654	0.5485	0.233
Mof_H 	H 	0.6615	0.2125	0.5601	0.225
Mof_C 	C 	0.3646	0.15281	0.6848	-0.611
Mof_H 	H 	0.4136	0.1578	0.7171	0.197
Mof_H 	H 	0.3569	0.1238	0.679	0.205
Mof_H 	H 	0.2928	0.1646	0.6876	0.184
Mof_C 	C 	0.5734	0.12318	0.6334	0.188
Mof_C 	C 	0.6838	0.12607	0.6527	-0.21
Mof_H 	H 	0.7174	0.1518	0.6554	0.117
Mof_C 	C 	0.7462	0.09255	0.6681	0.118
Mof_H 	H 	0.8217	0.0953	0.6806	0.012
Mof_C 	C 	0.697	0.05463	0.6649	-0.187
Mof_C 	C 	0.5857	0.05119	0.6446	0.1
Mof_H 	H 	0.5521	0.0255	0.6409	-0.006
Mof_C 	C 	0.5254	0.08551	0.63	-0.213
Mof_H 	H 	0.4498	0.0831	0.6174	0.095
Mof_C 	C 	0.7619	0.01846	0.68265	0.415
Mof_O 	O 	0.8601	0.02394	0.69939	-0.41
Mof_O 	O 	0.7146	0.98486	0.67918	-0.418
Mof_N 	N 	0.7864	0.91125	0.61258	-0.183
Mof_N 	N 	0.7347	0.8773	0.59251	-0.134
Mof_C 	C 	0.7354	0.87433	0.54077	0.274
Mof_C 	C 	0.7892	0.90802	0.52544	-0.256
Mof_C 	C 	0.8195	0.9301	0.5719	0.283
Mof_C 	C 	0.6807	0.84045	0.5092	-0.642
Mof_H 	H 	0.7322	0.8181	0.5086	0.227
Mof_H 	H 	0.6576	0.8496	0.4735	0.218
Mof_H 	H 	0.6167	0.8315	0.5249	0.202
Mof_C 	C 	0.8788	0.96906	0.5794	-0.65
Mof_H 	H 	0.8263	0.9912	0.5739	0.214
Mof_H 	H 	0.9316	0.9712	0.5542	0.215
Mof_H 	H 	0.9176	0.9704	0.6149	0.222
Mof_C 	C 	0.8106	0.91833	0.47247	0.189
Mof_C 	C 	0.8384	0.88878	0.43748	-0.211
Mof_H 	H 	0.8476	0.8617	0.4486	0.111
Mof_C 	C 	0.8524	0.89914	0.38701	0.115
Mof_H 	H 	0.8668	0.8787	0.3632	0.002
Mof_C 	C 	0.8459	0.93889	0.37024	-0.188
Mof_C 	C 	0.822	0.96857	0.4054	0.109
Mof_H 	H 	0.819	0.9959	0.3949	-0.007
Mof_C 	C 	0.8029	0.95835	0.455	-0.213
Mof_H 	H 	0.7841	0.9787	0.4779	0.095
Mof_C 	C 	0.86	0.94969	0.31544	0.408
Mof_O 	O 	0.8241	0.92513	0.28037	-0.407
Mof_O 	O 	0.9068	0.98203	0.30785	-0.403
Mof_N 	N 	0.6209	0.89695	0.68358	-0.188
Mof_N 	N 	0.6015	0.86494	0.65049	-0.135
Mof_C 	C 	0.4948	0.85526	0.6426	0.264
Mof_C 	C 	0.4394	0.88186	0.671	-0.253
Mof_C 	C 	0.5225	0.90752	0.696	0.271
Mof_C 	C 	0.4522	0.8214	0.6075	-0.622
Mof_H 	H 	0.4765	0.8249	0.5732	0.191
Mof_H 	H 	0.3721	0.8212	0.6037	0.216
Mof_H 	H 	0.4801	0.7959	0.6227	0.205
Mof_C 	C 	0.5132	0.94147	0.7326	-0.647
Mof_H 	H 	0.5774	0.9418	0.7592	0.208
Mof_H 	H 	0.447	0.9381	0.7494	0.213
Mof_H 	H 	0.509	0.9668	0.7132	0.209
Mof_C 	C 	0.3226	0.88516	0.6748	0.183
Mof_C 	C 	0.2587	0.8524	0.686	-0.194
Mof_H 	H 	0.2905	0.8264	0.6887	0.097
Mof_C 	C 	0.1495	0.85697	0.6932	0.094
Mof_H 	H 	0.1078	0.8344	0.7013	0.013
Mof_C 	C 	0.1019	0.89514	0.6885	-0.156
Mof_C 	C 	0.1634	0.92751	0.6751	0.098
Mof_H 	H 	0.131	0.9534	0.6707	0.009
Mof_C 	C 	0.2709	0.92222	0.668	-0.2
Mof_H 	H 	0.3113	0.9446	0.6582	0.094
Mof_C 	C 	0.9886	0.90201	0.6997	0.349
Mof_O 	O 	0.9246	0.87295	0.70522	-0.304
Mof_O 	O 	0.9564	0.9384	0.70188	-0.437
Mof_C 	C 	0.1723	0.11	0.0622	-0.164
Mof_H 	H 	0.1653	0.1369	0.05	0.067
Mof_C 	C 	0.1644	0.1023	0.1147	0.082
Mof_H 	H 	0.1529	0.1235	0.1379	-0.009
Mof_C 	C 	0.1892	0.032	0.0991	0.07
Mof_H 	H 	0.1933	0.0051	0.1115	0.002
Mof_C 	C 	0.1988	0.0402	0.0471	-0.142
Mof_H 	H 	0.2115	0.0187	0.0245	0.064
Mof_C 	C 	0.2795	0.0849	0.0642	-0.195
Mof_H 	H 	0.3464	0.0943	0.0542	0.081
Mof_C 	C 	0.2728	0.0762	0.1151	0.106
Mof_H 	H 	0.3361	0.0792	0.14	-0.02
Mof_C 	C 	0.0852	0.056	0.0938	0.094
Mof_H 	H 	0.0185	0.0458	0.103	-0.004
Mof_C 	C 	0.0956	0.0645	0.041	-0.183
Mof_H 	H 	0.036	0.0593	0.0147	0.075
Mof_Mn	Mn	0.18573	0.43275	0.8005	0.887
Mof_C 	C 	0.2777	0.35186	0.86548	0.02
Mof_H 	H 	0.3013	0.3265	0.8833	0.01
Mof_H 	H 	0.2146	0.3459	0.8389	0.03
Mof_Mn	Mn	0.99076	0.5037	0.74678	1.018
Mof_Cl	Cl	0.90534	0.30907	0.58735	-0.466
Mof_Mn	Mn	0.78054	0.57151	0.6973	0.893
Mof_C 	C 	0.6933	0.6508	0.62781	0.014
Mof_H 	H 	0.671	0.6758	0.6086	0.025
Mof_H 	H 	0.7525	0.6576	0.656	0.047
Mof_N 	N 	0.3425	0.40079	0.80856	-0.191
Mof_N 	N 	0.367	0.3681	0.84012	-0.137
Mof_C 	C 	0.4745	0.35899	0.8453	0.25
Mof_C 	C 	0.5238	0.38715	0.8169	-0.255
Mof_C 	C 	0.4385	0.41295	0.7944	0.281
Mof_C 	C 	0.5214	0.3242	0.8762	-0.582
Mof_H 	H 	0.4731	0.3009	0.8692	0.174
Mof_H 	H 	0.5936	0.3178	0.8663	0.181
Mof_H 	H 	0.5287	0.3308	0.9134	0.174
Mof_C 	C 	0.4442	0.4477	0.7597	-0.667
Mof_H 	H 	0.4488	0.4724	0.7804	0.215
Mof_H 	H 	0.509	0.4454	0.7417	0.218
Mof_H 	H 	0.3785	0.4485	0.734	0.212
Mof_C 	C 	0.6397	0.39179	0.8116	0.173
Mof_C 	C 	0.7049	0.35997	0.7992	-0.19
Mof_H 	H 	0.674	0.3339	0.7946	0.082
Mof_C 	C 	0.8152	0.36559	0.7934	0.084
Mof_H 	H 	0.8586	0.3436	0.7851	0.01
Mof_C 	C 	0.8606	0.40407	0.8002	-0.157
Mof_C 	C 	0.7962	0.43575	0.8118	0.091
Mof_H 	H 	0.8267	0.4619	0.8154	0.012
Mof_C 	C 	0.6884	0.42998	0.8183	-0.194
Mof_H 	H 	0.6461	0.4521	0.8274	0.089
Mof_C 	C 	0.9765	0.41138	0.7944	0.349
Mof_O 	O 	0.0419	0.38253	0.79163	-0.316
Mof_O 	O 	0.0116	0.44762	0.79495	-0.434
Mof_N 	N 	0.1888	0.41332	0.88498	-0.185
Mof_N 	N 	0.2452	0.3798	0.90272	-0.137
Mof_C 	C 	0.2546	0.37724	0.9555	0.282
Mof_C 	C 	0.2028	0.41036	0.97289	-0.3
Mof_C 	C 	0.1629	0.43212	0.9273	0.291
Mof_C 	C 	0.3126	0.344	0.9854	-0.632
Mof_H 	H 	0.382	0.3388	0.972	0.194
Mof_H 	H 	0.327	0.3514	0.0223	0.204
Mof_H 	H 	0.2673	0.3198	0.9816	0.195
Mof_C 	C 	0.1028	0.471	0.9221	-0.649
Mof_H 	H 	0.037	0.4691	0.9395	0.207
Mof_H 	H 	0.15	0.4924	0.9383	0.208
Mof_H 	H 	0.0819	0.4771	0.8851	0.216
Mof_C 	C 	0.19	0.42	0.0273	0.292
Mof_C 	C 	0.1739	0.43718	0.13214	-0.246
Mof_C 	C 	0.1652	0.4458	0.18814	0.447
Mof_O 	O 	0.2159	0.42357	0.22215	-0.426
Mof_O 	O 	0.1087	0.47457	0.19842	-0.422
Mof_N 	N 	0.6289	0.70552	0.8761	-0.187
Mof_N 	N 	0.567	0.71402	0.91407	-0.135
Mof_C 	C 	0.4843	0.68704	0.916	0.246
Mof_C 	C 	0.4946	0.65922	0.8773	-0.267
Mof_C 	C 	0.5845	0.67237	0.8528	0.281
Mof_C 	C 	0.4038	0.68895	0.9541	-0.58
Mof_H 	H 	0.3627	0.7141	0.9494	0.177
Mof_H 	H 	0.3532	0.6662	0.9484	0.184
Mof_H 	H 	0.4425	0.6877	0.9897	0.169
Mof_C 	C 	0.6271	0.6546	0.8066	-0.668
Mof_H 	H 	0.707	0.657	0.8108	0.219
Mof_H 	H 	0.6064	0.6263	0.8035	0.226
Mof_H 	H 	0.596	0.669	0.775	0.235
Mof_C 	C 	0.4236	0.62429	0.8627	0.219
Mof_C 	C 	0.4604	0.5857	0.8732	-0.24
Mof_H 	H 	0.5324	0.5816	0.8903	0.103
Mof_C 	C 	0.394	0.5523	0.8593	0.119
Mof_H 	H 	0.4193	0.526	0.8685	-0.01
Mof_C 	C 	0.2888	0.5582	0.8313	-0.22
Mof_C 	C 	0.2642	0.5959	0.8153	0.16
Mof_H 	H 	0.1983	0.6004	0.7926	-0.01
Mof_C 	C 	0.3295	0.6278	0.83	-0.263
Mof_H 	H 	0.308	0.6536	0.8169	0.118
Mof_C 	C 	0.2173	0.52314	0.81367	0.434
Mof_O 	O 	0.2572	0.48861	0.82149	-0.424
Mof_O 	O 	0.1254	0.53143	0.79229	-0.419
Mof_N 	N 	0.371	0.29504	0.6165	-0.182
Mof_N 	N 	0.4401	0.28573	0.58109	-0.134
Mof_C 	C 	0.5246	0.31225	0.5815	0.268
Mof_C 	C 	0.506	0.34073	0.6189	-0.252
Mof_C 	C 	0.4113	0.32854	0.6402	0.251
Mof_C 	C 	0.6112	0.30925	0.5476	-0.662
Mof_H 	H 	0.5784	0.3036	0.5118	0.207
Mof_H 	H 	0.6514	0.3346	0.5485	0.233
Mof_H 	H 	0.6615	0.2875	0.5601	0.225
Mof_C 	C 	0.3646	0.34719	0.6848	-0.611
Mof_H 	H 	0.4136	0.3422	0.7171	0.197
Mof_H 	H 	0.3569	0.3762	0.679	0.205
Mof_H 	H 	0.2928	0.3354	0.6876	0.184
Mof_C 	C 	0.5734	0.37682	0.6334	0.188
Mof_C 	C 	0.6838	0.37393	0.6527	-0.21
Mof_H 	H 	0.7174	0.3482	0.6554	0.117
Mof_C 	C 	0.7462	0.40745	0.6681	0.118
Mof_H 	H 	0.8217	0.4047	0.6806	0.012
Mof_C 	C 	0.697	0.44537	0.6649	-0.187
Mof_C 	C 	0.5857	0.44881	0.6446	0.1
Mof_H 	H 	0.5521	0.4745	0.6409	-0.006
Mof_C 	C 	0.5254	0.41449	0.63	-0.213
Mof_H 	H 	0.4498	0.4169	0.6174	0.094
Mof_C 	C 	0.7619	0.48154	0.68265	0.415
Mof_O 	O 	0.8601	0.47606	0.69939	-0.41
Mof_O 	O 	0.7146	0.51514	0.67918	-0.418
Mof_N 	N 	0.7864	0.58875	0.61258	-0.183
Mof_N 	N 	0.7347	0.6227	0.59251	-0.134
Mof_C 	C 	0.7354	0.62567	0.54077	0.274
Mof_C 	C 	0.7892	0.59198	0.52544	-0.256
Mof_C 	C 	0.8195	0.5699	0.5719	0.283
Mof_C 	C 	0.6807	0.65955	0.5092	-0.642
Mof_H 	H 	0.7322	0.6819	0.5086	0.227
Mof_H 	H 	0.6576	0.6504	0.4735	0.218
Mof_H 	H 	0.6167	0.6685	0.5249	0.202
Mof_C 	C 	0.8788	0.53094	0.5794	-0.65
Mof_H 	H 	0.8263	0.5088	0.5739	0.214
Mof_H 	H 	0.9316	0.5288	0.5542	0.215
Mof_H 	H 	0.9176	0.5296	0.6149	0.222
Mof_C 	C 	0.8106	0.58167	0.47247	0.189
Mof_C 	C 	0.8384	0.61122	0.43748	-0.211
Mof_H 	H 	0.8476	0.6383	0.4486	0.111
Mof_C 	C 	0.8524	0.60086	0.38701	0.115
Mof_H 	H 	0.8668	0.6213	0.3632	0.002
Mof_C 	C 	0.8459	0.56111	0.37024	-0.188
Mof_C 	C 	0.822	0.53143	0.4054	0.109
Mof_H 	H 	0.819	0.5041	0.3949	-0.007
Mof_C 	C 	0.8029	0.54165	0.455	-0.213
Mof_H 	H 	0.7841	0.5213	0.4779	0.095
Mof_C 	C 	0.86	0.55031	0.31544	0.408
Mof_O 	O 	0.8241	0.57487	0.28037	-0.407
Mof_O 	O 	0.9068	0.51797	0.30785	-0.404
Mof_N 	N 	0.6209	0.60305	0.68358	-0.188
Mof_N 	N 	0.6015	0.63506	0.65049	-0.135
Mof_C 	C 	0.4948	0.64474	0.6426	0.264
Mof_C 	C 	0.4394	0.61814	0.671	-0.253
Mof_C 	C 	0.5225	0.59248	0.696	0.271
Mof_C 	C 	0.4522	0.6786	0.6075	-0.622
Mof_H 	H 	0.4765	0.6751	0.5732	0.191
Mof_H 	H 	0.3721	0.6788	0.6037	0.216
Mof_H 	H 	0.4801	0.7041	0.6227	0.205
Mof_C 	C 	0.5132	0.55853	0.7326	-0.647
Mof_H 	H 	0.5774	0.5582	0.7592	0.208
Mof_H 	H 	0.447	0.5619	0.7494	0.213
Mof_H 	H 	0.509	0.5332	0.7132	0.209
Mof_C 	C 	0.3226	0.61484	0.6748	0.183
Mof_C 	C 	0.2587	0.6476	0.686	-0.194
Mof_H 	H 	0.2905	0.6736	0.6887	0.097
Mof_C 	C 	0.1495	0.64303	0.6932	0.094
Mof_H 	H 	0.1078	0.6656	0.7013	0.013
Mof_C 	C 	0.1019	0.60486	0.6885	-0.156
Mof_C 	C 	0.1634	0.57249	0.6751	0.097
Mof_H 	H 	0.131	0.5466	0.6707	0.01
Mof_C 	C 	0.2709	0.57778	0.668	-0.2
Mof_H 	H 	0.3113	0.5554	0.6582	0.094
Mof_C 	C 	0.9886	0.59799	0.6997	0.349
Mof_O 	O 	0.9246	0.62705	0.70522	-0.304
Mof_O 	O 	0.9564	0.5616	0.70188	-0.437
Mof_C 	C 	0.1723	0.39	0.0622	-0.164
Mof_H 	H 	0.1653	0.3631	0.05	0.067
Mof_C 	C 	0.1644	0.3977	0.1147	0.082
Mof_H 	H 	0.1529	0.3765	0.1379	-0.009
Mof_C 	C 	0.1892	0.468	0.0991	0.07
Mof_H 	H 	0.1933	0.4949	0.1115	0.003
Mof_C 	C 	0.1988	0.4598	0.0471	-0.142
Mof_H 	H 	0.2115	0.4813	0.0245	0.065
Mof_C 	C 	0.2795	0.4151	0.0642	-0.195
Mof_H 	H 	0.3464	0.4057	0.0542	0.081
Mof_C 	C 	0.2728	0.4238	0.1151	0.106
Mof_H 	H 	0.3361	0.4208	0.14	-0.02
Mof_C 	C 	0.0852	0.444	0.0938	0.094
Mof_H 	H 	0.0185	0.4542	0.103	-0.004
Mof_C 	C 	0.0956	0.4355	0.041	-0.183
Mof_H 	H 	0.036	0.4407	0.0147	0.075
Mof_Mn	Mn	0.81427	0.93275	0.1995	0.887
Mof_C 	C 	0.7223	0.85186	0.13452	0.02
Mof_H 	H 	0.6987	0.8265	0.1167	0.01
Mof_H 	H 	0.7854	0.8459	0.1611	0.03
Mof_Mn	Mn	0.00924	0.0037	0.25322	1.018
Mof_Cl	Cl	0.09466	0.80907	0.41265	-0.466
Mof_Mn	Mn	0.21946	0.07151	0.3027	0.893
Mof_C 	C 	0.3067	0.1508	0.37219	0.014
Mof_H 	H 	0.329	0.1758	0.3914	0.025
Mof_H 	H 	0.2475	0.1576	0.344	0.047
Mof_N 	N 	0.6575	0.90079	0.19144	-0.191
Mof_N 	N 	0.633	0.8681	0.15988	-0.137
Mof_C 	C 	0.5255	0.85899	0.1547	0.25
Mof_C 	C 	0.4762	0.88715	0.1831	-0.255
Mof_C 	C 	0.5615	0.91295	0.2056	0.281
Mof_C 	C 	0.4786	0.8242	0.1238	-0.582
Mof_H 	H 	0.5269	0.8009	0.1308	0.174
Mof_H 	H 	0.4064	0.8178	0.1337	0.181
Mof_H 	H 	0.4713	0.8308	0.0866	0.174
Mof_C 	C 	0.5558	0.9477	0.2403	-0.667
Mof_H 	H 	0.5512	0.9724	0.2196	0.215
Mof_H 	H 	0.491	0.9454	0.2583	0.218
Mof_H 	H 	0.6215	0.9485	0.266	0.212
Mof_C 	C 	0.3603	0.89179	0.1884	0.173
Mof_C 	C 	0.2951	0.85997	0.2008	-0.19
Mof_H 	H 	0.326	0.8339	0.2054	0.082
Mof_C 	C 	0.1848	0.86559	0.2066	0.084
Mof_H 	H 	0.1414	0.8436	0.2149	0.01
Mof_C 	C 	0.1394	0.90407	0.1998	-0.157
Mof_C 	C 	0.2038	0.93575	0.1882	0.091
Mof_H 	H 	0.1733	0.9619	0.1846	0.012
Mof_C 	C 	0.3116	0.92998	0.1817	-0.194
Mof_H 	H 	0.3539	0.9521	0.1726	0.089
Mof_C 	C 	0.0235	0.91138	0.2056	0.349
Mof_O 	O 	0.9581	0.88253	0.20837	-0.316
Mof_O 	O 	0.9884	0.94762	0.20505	-0.434
Mof_N 	N 	0.8112	0.91332	0.11502	-0.185
Mof_N 	N 	0.7548	0.8798	0.09728	-0.137
Mof_C 	C 	0.7454	0.87724	0.0445	0.281
Mof_C 	C 	0.7972	0.91036	0.02711	-0.299
Mof_C 	C 	0.8371	0.93212	0.0727	0.291
Mof_C 	C 	0.6874	0.844	0.0146	-0.631
Mof_H 	H 	0.618	0.8388	0.028	0.194
Mof_H 	H 	0.673	0.8514	0.9777	0.204
Mof_H 	H 	0.7327	0.8198	0.0184	0.194
Mof_C 	C 	0.8972	0.971	0.0779	-0.649
Mof_H 	H 	0.963	0.9691	0.0605	0.208
Mof_H 	H 	0.85	0.9924	0.0617	0.209
Mof_H 	H 	0.9181	0.9771	0.1149	0.216
Mof_C 	C 	0.81	0.92	0.9727	0.291
Mof_C 	C 	0.8261	0.93718	0.86786	-0.246
Mof_C 	C 	0.8348	0.9458	0.81186	0.447
Mof_O 	O 	0.7841	0.92357	0.77785	-0.426
Mof_O 	O 	0.8913	0.97457	0.80158	-0.422
Mof_N 	N 	0.3711	0.20552	0.1239	-0.187
Mof_N 	N 	0.433	0.21402	0.08593	-0.135
Mof_C 	C 	0.5157	0.18704	0.084	0.246
Mof_C 	C 	0.5054	0.15922	0.1227	-0.267
Mof_C 	C 	0.4155	0.17237	0.1472	0.281
Mof_C 	C 	0.5962	0.18895	0.0459	-0.579
Mof_H 	H 	0.6373	0.2141	0.0506	0.177
Mof_H 	H 	0.6468	0.1662	0.0516	0.184
Mof_H 	H 	0.5575	0.1877	0.0103	0.169
Mof_C 	C 	0.3729	0.1546	0.1934	-0.668
Mof_H 	H 	0.293	0.157	0.1892	0.219
Mof_H 	H 	0.3936	0.1263	0.1965	0.226
Mof_H 	H 	0.404	0.169	0.225	0.235
Mof_C 	C 	0.5764	0.12429	0.1373	0.219
Mof_C 	C 	0.5396	0.0857	0.1268	-0.24
Mof_H 	H 	0.4676	0.0816	0.1097	0.103
Mof_C 	C 	0.606	0.0523	0.1407	0.119
Mof_H 	H 	0.5807	0.026	0.1315	-0.011
Mof_C 	C 	0.7112	0.0582	0.1687	-0.22
Mof_C 	C 	0.7358	0.0959	0.1847	0.159
Mof_H 	H 	0.8017	0.1004	0.2074	-0.01
Mof_C 	C 	0.6705	0.1278	0.17	-0.263
Mof_H 	H 	0.692	0.1536	0.1831	0.118
Mof_C 	C 	0.7827	0.02314	0.18633	0.433
Mof_O 	O 	0.7428	0.98861	0.17851	-0.423
Mof_O 	O 	0.8746	0.03143	0.20771	-0.419
Mof_N 	N 	0.629	0.79504	0.3835	-0.182
Mof_N 	N 	0.5599	0.78573	0.41891	-0.134
Mof_C 	C 	0.4754	0.81225	0.4185	0.268
Mof_C 	C 	0.494	0.84073	0.3811	-0.252
Mof_C 	C 	0.5887	0.82854	0.3598	0.251
Mof_C 	C 	0.3888	0.80925	0.4524	-0.662
Mof_H 	H 	0.4216	0.8036	0.4882	0.207
Mof_H 	H 	0.3486	0.8346	0.4515	0.233
Mof_H 	H 	0.3385	0.7875	0.4399	0.225
Mof_C 	C 	0.6354	0.84719	0.3152	-0.611
Mof_H 	H 	0.5864	0.8422	0.2829	0.197
Mof_H 	H 	0.6431	0.8762	0.321	0.205
Mof_H 	H 	0.7072	0.8354	0.3124	0.184
Mof_C 	C 	0.4266	0.87682	0.3666	0.188
Mof_C 	C 	0.3162	0.87393	0.3473	-0.21
Mof_H 	H 	0.2826	0.8482	0.3446	0.117
Mof_C 	C 	0.2538	0.90745	0.3319	0.118
Mof_H 	H 	0.1783	0.9047	0.3194	0.012
Mof_C 	C 	0.303	0.94537	0.3351	-0.187
Mof_C 	C 	0.4143	0.94881	0.3554	0.1
Mof_H 	H 	0.4479	0.9745	0.3591	-0.006
Mof_C 	C 	0.4746	0.91449	0.37	-0.213
Mof_H 	H 	0.5502	0.9169	0.3826	0.095
Mof_C 	C 	0.2381	0.98154	0.31735	0.415
Mof_O 	O 	0.1399	0.97606	0.30061	-0.41
Mof_O 	O 	0.2854	0.01514	0.32082	-0.418
Mof_N 	N 	0.2136	0.08875	0.38742	-0.183
Mof_N 	N 	0.2653	0.1227	0.40749	-0.134
Mof_C 	C 	0.2646	0.12567	0.45923	0.274
Mof_C 	C 	0.2108	0.09198	0.47456	-0.256
Mof_C 	C 	0.1805	0.0699	0.4281	0.283
Mof_C 	C 	0.3193	0.15955	0.4908	-0.642
Mof_H 	H 	0.2678	0.1819	0.4914	0.227
Mof_H 	H 	0.3424	0.1504	0.5265	0.218
Mof_H 	H 	0.3833	0.1685	0.4751	0.202
Mof_C 	C 	0.1212	0.03094	0.4206	-0.65
Mof_H 	H 	0.1737	0.0088	0.4261	0.214
Mof_H 	H 	0.0684	0.0288	0.4458	0.215
Mof_H 	H 	0.0824	0.0296	0.3851	0.222
Mof_C 	C 	0.1894	0.08167	0.52753	0.189
Mof_C 	C 	0.1616	0.11122	0.56252	-0.211
Mof_H 	H 	0.1524	0.1383	0.5514	0.111
Mof_C 	C 	0.1476	0.10086	0.61299	0.115
Mof_H 	H 	0.1332	0.1213	0.6368	0.002
Mof_C 	C 	0.1541	0.06111	0.62976	-0.188
Mof_C 	C 	0.178	0.03143	0.5946	0.109
Mof_H 	H 	0.181	0.0041	0.6051	-0.007
Mof_C 	C 	0.1971	0.04165	0.545	-0.213
Mof_H 	H 	0.2159	0.0213	0.5221	0.095
Mof_C 	C 	0.14	0.05031	0.68456	0.408
Mof_O 	O 	0.1759	0.07487	0.71963	-0.407
Mof_O 	O 	0.0932	0.01797	0.69215	-0.403
Mof_N 	N 	0.3791	0.10305	0.31642	-0.188
Mof_N 	N 	0.3985	0.13506	0.34951	-0.135
Mof_C 	C 	0.5052	0.14474	0.3574	0.264
Mof_C 	C 	0.5606	0.11814	0.329	-0.253
Mof_C 	C 	0.4775	0.09248	0.304	0.271
Mof_C 	C 	0.5478	0.1786	0.3925	-0.622
Mof_H 	H 	0.5235	0.1751	0.4268	0.191
Mof_H 	H 	0.6279	0.1788	0.3963	0.216
Mof_H 	H 	0.5199	0.2041	0.3773	0.205
Mof_C 	C 	0.4868	0.05853	0.2674	-0.647
Mof_H 	H 	0.4226	0.0582	0.2408	0.208
Mof_H 	H 	0.553	0.0619	0.2506	0.213
Mof_H 	H 	0.491	0.0332	0.2868	0.209
Mof_C 	C 	0.6774	0.11484	0.3252	0.183
Mof_C 	C 	0.7413	0.1476	0.314	-0.194
Mof_H 	H 	0.7095	0.1736	0.3113	0.097
Mof_C 	C 	0.8505	0.14303	0.3068	0.094
Mof_H 	H 	0.8922	0.1656	0.2987	0.013
Mof_C 	C 	0.8981	0.10486	0.3115	-0.156
Mof_C 	C 	0.8366	0.07249	0.3249	0.098
Mof_H 	H 	0.869	0.0466	0.3293	0.009
Mof_C 	C 	0.7291	0.07778	0.332	-0.2
Mof_H 	H 	0.6887	0.0554	0.3418	0.094
Mof_C 	C 	0.0114	0.09799	0.3003	0.349
Mof_O 	O 	0.0754	0.12705	0.29478	-0.304
Mof_O 	O 	0.0436	0.0616	0.29812	-0.437
Mof_C 	C 	0.8277	0.89	0.9378	-0.164
Mof_H 	H 	0.8347	0.8631	0.95	0.067
Mof_C 	C 	0.8356	0.8977	0.8853	0.082
Mof_H 	H 	0.8471	0.8765	0.8621	-0.009
Mof_C 	C 	0.8108	0.968	0.9009	0.07
Mof_H 	H 	0.8067	0.9949	0.8885	0.002
Mof_C 	C 	0.8012	0.9598	0.9529	-0.142
Mof_H 	H 	0.7885	0.9813	0.9755	0.064
Mof_C 	C 	0.7205	0.9151	0.9358	-0.195
Mof_H 	H 	0.6536	0.9057	0.9458	0.081
Mof_C 	C 	0.7272	0.9238	0.8849	0.106
Mof_H 	H 	0.6639	0.9208	0.86	-0.02
Mof_C 	C 	0.9148	0.944	0.9062	0.094
Mof_H 	H 	0.9815	0.9542	0.897	-0.004
Mof_C 	C 	0.9044	0.9355	0.959	-0.183
Mof_H 	H 	0.964	0.9407	0.9853	0.075
Mof_Cl	Cl	0.86812	0.75	0.45824	-0.53
Mof_Cl	Cl	0.1769	0.75	0.54051	-0.463
Mof_C 	C 	0.5807	0.75	0.4506	0.003
Mof_H 	H 	0.5331	0.75	0.4786	0.014
Mof_H 	H 	0.6577	0.75	0.4672	0.044
Mof_Mn	Mn	0.7563	0.75	0.36381	0.616
Mof_Mn	Mn	0.06499	0.75	0.45945	0.953
Mof_Cl	Cl	0.13188	0.25	0.54176	-0.53
Mof_Cl	Cl	0.8231	0.25	0.45949	-0.463
Mof_C 	C 	0.4193	0.25	0.5494	0.003
Mof_H 	H 	0.4669	0.25	0.5214	0.014
Mof_H 	H 	0.3423	0.25	0.5328	0.044
Mof_Mn	Mn	0.2437	0.25	0.63619	0.616
Mof_Mn	Mn	0.93501	0.25	0.54055	0.953
Mof_C 	C 	0.4103	0.25	0.0539	0.017
Mof_H 	H 	0.3328	0.25	0.0382	-0.003
Mof_H 	H 	0.4565	0.25	0.0253	0.006
Mof_Cl	Cl	0.2996	0.25	0.2411	-0.446
Mof_Mn	Mn	0.24668	0.25	0.1462	0.627
Mof_C 	C 	0.5897	0.75	0.9461	0.017
Mof_H 	H 	0.6672	0.75	0.9618	-0.003
Mof_H 	H 	0.5435	0.75	0.9747	0.006
Mof_Cl	Cl	0.7004	0.75	0.7589	-0.446
Mof_Mn	Mn	0.75332	0.75	0.8538	0.627
_end
