# CIF file generated by openbabel 3.1.0, see https://openbabel.org
data_I
_chemical_name_common 'image0'
_cell_length_a 13.119
_cell_length_b 22.809
_cell_length_c 11.84
_cell_angle_alpha 90
_cell_angle_beta 91.946
_cell_angle_gamma 90
_space_group_name_H-M_alt 'P 1'
_space_group_name_Hall 'P 1'
loop_
    _symmetry_equiv_pos_as_xyz
    x,y,z
loop_
    _atom_site_label
    _atom_site_type_symbol
    _atom_site_fract_x
    _atom_site_fract_y
    _atom_site_fract_z
    _atom_site_occupancy
    Ag1      Ag       0.24028    0.21330    0.27507    1.000
    Ag2      Ag       0.88329    0.20169    0.60974    1.000
    N1       N        0.14950    0.18040    0.40880    1.000
    N2       N        0.79040    0.26800    0.92980    1.000
    N3       N        0.80390    0.23790    0.75240    1.000
    N4       N        0.73750    0.30410    0.86060    1.000
    N5       N        0.14160    0.12410    0.44790    1.000
    N6       N        0.00940    0.16980    0.50680    1.000
    C1       C        0.55350    0.04960    0.76120    1.000
    H1       H        0.62120    0.05670    0.78280    1.000
    N7       N        0.51290    0.05630    0.65980    1.000
    N8       N        0.41660    0.04200    0.66300    1.000
    C2       C        0.39770    0.02660    0.76640    1.000
    H2       H        0.33500    0.01440    0.79230    1.000
    N9       N        0.48230    0.03130    0.82720    1.000
    C3       C        0.35510    0.03140    0.55800    1.000
    H3       H        0.39860    0.02160    0.49620    1.000
    H4       H        0.30730    0.99960    0.56830    1.000
    C4       C        0.30090    0.08660    0.53540    1.000
    H5       H        0.26750    0.09910    0.60310    1.000
    H6       H        0.34970    0.11670    0.51620    1.000
    C5       C        0.06650    0.20480    0.44490    1.000
    H7       H        0.04880    0.24350    0.42860    1.000
    C6       C        0.67970    0.35230    0.90390    1.000
    H8       H        0.71550    0.36810    0.97010    1.000
    H9       H        0.67510    0.38300    0.84730    1.000
    C7       C        0.57170    0.33420    0.93580    1.000
    H10      H        0.53760    0.31560    0.87130    1.000
    H11      H        0.53320    0.36890    0.95450    1.000
    C8       C        0.22080    0.08040    0.43800    1.000
    H12      H        0.19080    0.04160    0.43980    1.000
    H13      H        0.25340    0.08510    0.36630    1.000
    C9       C        0.74570    0.28570    0.75510    1.000
    H14      H        0.71520    0.30370    0.69200    1.000
    C10      C        0.83050    0.23040    0.86030    1.000
    H15      H        0.87430    0.20070    0.88500    1.000
    C11      C        0.05750    0.11900    0.50710    1.000
    H16      H        0.03620    0.08500    0.54290    1.000
    C12      C        0.57260    0.29320    0.03310    1.000
    H17      H        0.60050    0.31370    0.09900    1.000
    H18      H        0.61860    0.26110    0.01730    1.000
    N10      N        0.47590    0.26890    0.06110    1.000
    N11      N        0.41930    0.24050    0.98070    1.000
    C13      C        0.43010    0.26580    0.15950    1.000
    H19      H        0.45580    0.28180    0.22690    1.000
    C14      C        0.34120    0.22290    0.03920    1.000
    H20      H        0.28730    0.20180    0.00620    1.000
    N12      N        0.34410    0.23720    0.14860    1.000
    Ag3      Ag       0.75972    0.78670    0.72493    1.000
    Ag4      Ag       0.11671    0.79831    0.39026    1.000
    N13      N        0.85050    0.81960    0.59120    1.000
    N14      N        0.20960    0.73200    0.07020    1.000
    N15      N        0.19610    0.76210    0.24760    1.000
    N16      N        0.26250    0.69590    0.13940    1.000
    N17      N        0.85840    0.87590    0.55210    1.000
    N18      N        0.99060    0.83020    0.49320    1.000
    C15      C        0.44650    0.95040    0.23880    1.000
    H21      H        0.37880    0.94330    0.21720    1.000
    N19      N        0.48710    0.94370    0.34020    1.000
    N20      N        0.58340    0.95800    0.33700    1.000
    C16      C        0.60230    0.97340    0.23360    1.000
    H22      H        0.66500    0.98560    0.20770    1.000
    N21      N        0.51770    0.96870    0.17280    1.000
    C17      C        0.64490    0.96860    0.44200    1.000
    H23      H        0.60140    0.97840    0.50380    1.000
    H24      H        0.69270    0.00040    0.43170    1.000
    C18      C        0.69910    0.91340    0.46460    1.000
    H25      H        0.73250    0.90090    0.39690    1.000
    H26      H        0.65030    0.88330    0.48380    1.000
    C19      C        0.93350    0.79520    0.55510    1.000
    H27      H        0.95120    0.75650    0.57140    1.000
    C20      C        0.32030    0.64770    0.09610    1.000
    H28      H        0.28450    0.63190    0.02990    1.000
    H29      H        0.32490    0.61700    0.15270    1.000
    C21      C        0.42830    0.66580    0.06420    1.000
    H30      H        0.46240    0.68440    0.12870    1.000
    H31      H        0.46680    0.63110    0.04550    1.000
    C22      C        0.77920    0.91960    0.56200    1.000
    H32      H        0.80920    0.95840    0.56020    1.000
    H33      H        0.74660    0.91490    0.63370    1.000
    C23      C        0.25430    0.71430    0.24490    1.000
    H34      H        0.28480    0.69630    0.30800    1.000
    C24      C        0.16950    0.76960    0.13970    1.000
    H35      H        0.12570    0.79930    0.11500    1.000
    C25      C        0.94250    0.88100    0.49290    1.000
    H36      H        0.96380    0.91500    0.45710    1.000
    C26      C        0.42740    0.70680    0.96690    1.000
    H37      H        0.39950    0.68630    0.90100    1.000
    H38      H        0.38140    0.73890    0.98270    1.000
    N22      N        0.52410    0.73110    0.93890    1.000
    N23      N        0.58070    0.75950    0.01930    1.000
    C27      C        0.56990    0.73420    0.84050    1.000
    H39      H        0.54420    0.71820    0.77310    1.000
    C28      C        0.65880    0.77710    0.96080    1.000
    H40      H        0.71270    0.79820    0.99380    1.000
    N24      N        0.65590    0.76280    0.85140    1.000
    Ag5      Ag       0.50000    0.00000    0.00000    1.000
    Ag6      Ag       0.75972    0.71330    0.22493    1.000
    Ag7      Ag       0.11671    0.70169    0.89026    1.000
    N25      N        0.85050    0.68040    0.09120    1.000
    N26      N        0.20960    0.76800    0.57020    1.000
    N27      N        0.19610    0.73790    0.74760    1.000
    N28      N        0.26250    0.80410    0.63940    1.000
    N29      N        0.85840    0.62410    0.05210    1.000
    N30      N        0.99060    0.66980    0.99320    1.000
    C29      C        0.44650    0.54960    0.73880    1.000
    H41      H        0.37880    0.55670    0.71720    1.000
    N31      N        0.48710    0.55630    0.84020    1.000
    N32      N        0.58340    0.54200    0.83700    1.000
    C30      C        0.60230    0.52660    0.73360    1.000
    H42      H        0.66500    0.51440    0.70770    1.000
    N33      N        0.51770    0.53130    0.67280    1.000
    C31      C        0.64490    0.53140    0.94200    1.000
    H43      H        0.60140    0.52160    0.00380    1.000
    H44      H        0.69270    0.49960    0.93170    1.000
    C32      C        0.69910    0.58660    0.96460    1.000
    H45      H        0.73250    0.59910    0.89690    1.000
    H46      H        0.65030    0.61670    0.98380    1.000
    C33      C        0.93350    0.70480    0.05510    1.000
    H47      H        0.95120    0.74350    0.07140    1.000
    C34      C        0.32030    0.85230    0.59610    1.000
    H48      H        0.28450    0.86810    0.52990    1.000
    H49      H        0.32490    0.88300    0.65270    1.000
    C35      C        0.42830    0.83420    0.56420    1.000
    H50      H        0.46240    0.81560    0.62870    1.000
    H51      H        0.46680    0.86890    0.54550    1.000
    C36      C        0.77920    0.58040    0.06200    1.000
    H52      H        0.80920    0.54160    0.06020    1.000
    H53      H        0.74660    0.58510    0.13370    1.000
    C37      C        0.25430    0.78570    0.74490    1.000
    H54      H        0.28480    0.80370    0.80800    1.000
    C38      C        0.16950    0.73040    0.63970    1.000
    H55      H        0.12570    0.70070    0.61500    1.000
    C39      C        0.94250    0.61900    0.99290    1.000
    H56      H        0.96380    0.58500    0.95710    1.000
    C40      C        0.42740    0.79320    0.46690    1.000
    H57      H        0.39950    0.81370    0.40100    1.000
    H58      H        0.38140    0.76110    0.48270    1.000
    N34      N        0.52410    0.76890    0.43890    1.000
    N35      N        0.58070    0.74050    0.51930    1.000
    C41      C        0.56990    0.76580    0.34050    1.000
    H59      H        0.54420    0.78180    0.27310    1.000
    C42      C        0.65880    0.72290    0.46080    1.000
    H60      H        0.71270    0.70180    0.49380    1.000
    N36      N        0.65590    0.73720    0.35140    1.000
    Ag8      Ag       0.24028    0.28670    0.77507    1.000
    Ag9      Ag       0.88329    0.29831    0.10974    1.000
    N37      N        0.14950    0.31960    0.90880    1.000
    N38      N        0.79040    0.23200    0.42980    1.000
    N39      N        0.80390    0.26210    0.25240    1.000
    N40      N        0.73750    0.19590    0.36060    1.000
    N41      N        0.14160    0.37590    0.94790    1.000
    N42      N        0.00940    0.33020    0.00680    1.000
    C43      C        0.55350    0.45040    0.26120    1.000
    H61      H        0.62120    0.44330    0.28280    1.000
    N43      N        0.51290    0.44370    0.15980    1.000
    N44      N        0.41660    0.45800    0.16300    1.000
    C44      C        0.39770    0.47340    0.26640    1.000
    H62      H        0.33500    0.48560    0.29230    1.000
    N45      N        0.48230    0.46870    0.32720    1.000
    C45      C        0.35510    0.46860    0.05800    1.000
    H63      H        0.39860    0.47840    0.99620    1.000
    H64      H        0.30730    0.50040    0.06830    1.000
    C46      C        0.30090    0.41340    0.03540    1.000
    H65      H        0.26750    0.40090    0.10310    1.000
    H66      H        0.34970    0.38330    0.01620    1.000
    C47      C        0.06650    0.29520    0.94490    1.000
    H67      H        0.04880    0.25650    0.92860    1.000
    C48      C        0.67970    0.14770    0.40390    1.000
    H68      H        0.71550    0.13190    0.47010    1.000
    H69      H        0.67510    0.11700    0.34730    1.000
    C49      C        0.57170    0.16580    0.43580    1.000
    H70      H        0.53760    0.18440    0.37130    1.000
    H71      H        0.53320    0.13110    0.45450    1.000
    C50      C        0.22080    0.41960    0.93800    1.000
    H72      H        0.19080    0.45840    0.93980    1.000
    H73      H        0.25340    0.41490    0.86630    1.000
    C51      C        0.74570    0.21430    0.25510    1.000
    H74      H        0.71520    0.19630    0.19200    1.000
    C52      C        0.83050    0.26960    0.36030    1.000
    H75      H        0.87430    0.29930    0.38500    1.000
    C53      C        0.05750    0.38100    0.00710    1.000
    H76      H        0.03620    0.41500    0.04290    1.000
    C54      C        0.57260    0.20680    0.53310    1.000
    H77      H        0.60050    0.18630    0.59900    1.000
    H78      H        0.61860    0.23890    0.51730    1.000
    N46      N        0.47590    0.23110    0.56110    1.000
    N47      N        0.41930    0.25950    0.48070    1.000
    C55      C        0.43010    0.23420    0.65950    1.000
    H79      H        0.45580    0.21820    0.72690    1.000
    C56      C        0.34120    0.27710    0.53920    1.000
    H80      H        0.28730    0.29820    0.50620    1.000
    N48      N        0.34410    0.26280    0.64860    1.000
    Ag10     Ag       0.50000    0.50000    0.50000    1.000
