# CIF file generated by openbabel 3.1.0, see https://openbabel.org
data_I
_chemical_name_common 'image0'
_cell_length_a 19.1147
_cell_length_b 19.1147
_cell_length_c 21.1495
_cell_angle_alpha 90
_cell_angle_beta 90
_cell_angle_gamma 90
_space_group_name_H-M_alt 'P 1'
_space_group_name_Hall 'P 1'
loop_
    _symmetry_equiv_pos_as_xyz
    x,y,z
loop_
    _atom_site_label
    _atom_site_type_symbol
    _atom_site_fract_x
    _atom_site_fract_y
    _atom_site_fract_z
    _atom_site_occupancy
    S1       S        0.65403    0.92683    0.16741    1.000
    N1       N        0.45680    0.11580    0.30170    1.000
    C1       C        0.62670    0.71980    0.14020    1.000
    C2       C        0.64840    0.78360    0.16460    1.000
    H1       H        0.67820    0.78490    0.20060    1.000
    C3       C        0.62630    0.84600    0.13640    1.000
    C4       C        0.58200    0.84470    0.08450    1.000
    H2       H        0.56630    0.88730    0.06640    1.000
    C5       C        0.56100    0.78230    0.05940    1.000
    C6       C        0.58310    0.72000    0.08690    1.000
    C7       C        0.41400    0.11710    0.35190    1.000
    H3       H        0.39970    0.07380    0.36980    1.000
    C8       C        0.38950    0.17880    0.37910    1.000
    H4       H        0.35890    0.17720    0.41440    1.000
    C9       C        0.40980    0.24030    0.35500    1.000
    H5       H        0.39360    0.28280    0.37320    1.000
    C10      C        0.45470    0.24180    0.30290    1.000
    C11      C        0.47900    0.30730    0.27540    1.000
    H6       H        0.46500    0.35050    0.29370    1.000
    C12      C        0.47660    0.17810    0.27650    1.000
    O1       O        0.56110    0.65720    0.06306    1.000
    O2       O        0.69100    0.96280    0.11630    1.000
    O3       O        0.58940    0.96500    0.18248    1.000
    O4       O        0.69570    0.91250    0.22250    1.000
    S2       S        0.34597    0.07317    0.16741    1.000
    N2       N        0.54320    0.88420    0.30170    1.000
    C13      C        0.37330    0.28020    0.14020    1.000
    C14      C        0.35160    0.21640    0.16460    1.000
    H7       H        0.32180    0.21510    0.20060    1.000
    C15      C        0.37370    0.15400    0.13640    1.000
    C16      C        0.41800    0.15530    0.08450    1.000
    H8       H        0.43370    0.11270    0.06640    1.000
    C17      C        0.43900    0.21770    0.05940    1.000
    C18      C        0.41690    0.28000    0.08690    1.000
    C19      C        0.58600    0.88290    0.35190    1.000
    H9       H        0.60030    0.92620    0.36980    1.000
    C20      C        0.61050    0.82120    0.37910    1.000
    H10      H        0.64110    0.82280    0.41440    1.000
    C21      C        0.59020    0.75970    0.35500    1.000
    H11      H        0.60640    0.71720    0.37320    1.000
    C22      C        0.54530    0.75820    0.30290    1.000
    C23      C        0.52100    0.69270    0.27540    1.000
    H12      H        0.53500    0.64950    0.29370    1.000
    C24      C        0.52340    0.82190    0.27650    1.000
    O5       O        0.43890    0.34280    0.06306    1.000
    O6       O        0.30900    0.03720    0.11630    1.000
    O7       O        0.41060    0.03500    0.18248    1.000
    O8       O        0.30430    0.08750    0.22250    1.000
    S3       S        0.07317    0.65403    0.66741    1.000
    N3       N        0.88420    0.45680    0.80170    1.000
    C25      C        0.28020    0.62670    0.64020    1.000
    C26      C        0.21640    0.64840    0.66460    1.000
    H13      H        0.21510    0.67820    0.70060    1.000
    C27      C        0.15400    0.62630    0.63640    1.000
    C28      C        0.15530    0.58200    0.58450    1.000
    H14      H        0.11270    0.56630    0.56640    1.000
    C29      C        0.21770    0.56100    0.55940    1.000
    C30      C        0.28000    0.58310    0.58690    1.000
    C31      C        0.88290    0.41400    0.85190    1.000
    H15      H        0.92620    0.39970    0.86980    1.000
    C32      C        0.82120    0.38950    0.87910    1.000
    H16      H        0.82280    0.35890    0.91440    1.000
    C33      C        0.75970    0.40980    0.85500    1.000
    H17      H        0.71720    0.39360    0.87320    1.000
    C34      C        0.75820    0.45470    0.80290    1.000
    C35      C        0.69270    0.47900    0.77540    1.000
    H18      H        0.64950    0.46500    0.79370    1.000
    C36      C        0.82190    0.47660    0.77650    1.000
    O9       O        0.34280    0.56110    0.56306    1.000
    O10      O        0.03720    0.69100    0.61630    1.000
    O11      O        0.03500    0.58940    0.68248    1.000
    O12      O        0.08750    0.69570    0.72250    1.000
    S4       S        0.92683    0.34597    0.66741    1.000
    N4       N        0.11580    0.54320    0.80170    1.000
    C37      C        0.71980    0.37330    0.64020    1.000
    C38      C        0.78360    0.35160    0.66460    1.000
    H19      H        0.78490    0.32180    0.70060    1.000
    C39      C        0.84600    0.37370    0.63640    1.000
    C40      C        0.84470    0.41800    0.58450    1.000
    H20      H        0.88730    0.43370    0.56640    1.000
    C41      C        0.78230    0.43900    0.55940    1.000
    C42      C        0.72000    0.41690    0.58690    1.000
    C43      C        0.11710    0.58600    0.85190    1.000
    H21      H        0.07380    0.60030    0.86980    1.000
    C44      C        0.17880    0.61050    0.87910    1.000
    H22      H        0.17720    0.64110    0.91440    1.000
    C45      C        0.24030    0.59020    0.85500    1.000
    H23      H        0.28280    0.60640    0.87320    1.000
    C46      C        0.24180    0.54530    0.80290    1.000
    C47      C        0.30730    0.52100    0.77540    1.000
    H24      H        0.35050    0.53500    0.79370    1.000
    C48      C        0.17810    0.52340    0.77650    1.000
    O13      O        0.65720    0.43890    0.56306    1.000
    O14      O        0.96280    0.30900    0.61630    1.000
    O15      O        0.96500    0.41060    0.68248    1.000
    O16      O        0.91250    0.30430    0.72250    1.000
    S5       S        0.34597    0.92683    0.33259    1.000
    N5       N        0.54320    0.11580    0.19830    1.000
    C49      C        0.37330    0.71980    0.35980    1.000
    C50      C        0.35160    0.78360    0.33540    1.000
    H25      H        0.32180    0.78490    0.29940    1.000
    C51      C        0.37370    0.84600    0.36360    1.000
    C52      C        0.41800    0.84470    0.41550    1.000
    H26      H        0.43370    0.88730    0.43360    1.000
    C53      C        0.43900    0.78230    0.44060    1.000
    C54      C        0.41690    0.72000    0.41310    1.000
    C55      C        0.58600    0.11710    0.14810    1.000
    H27      H        0.60030    0.07380    0.13020    1.000
    C56      C        0.61050    0.17880    0.12090    1.000
    H28      H        0.64110    0.17720    0.08560    1.000
    C57      C        0.59020    0.24030    0.14500    1.000
    H29      H        0.60640    0.28280    0.12680    1.000
    C58      C        0.54530    0.24180    0.19710    1.000
    C59      C        0.52100    0.30730    0.22460    1.000
    H30      H        0.53500    0.35050    0.20630    1.000
    C60      C        0.52340    0.17810    0.22350    1.000
    O17      O        0.43890    0.65720    0.43694    1.000
    O18      O        0.30900    0.96280    0.38370    1.000
    O19      O        0.41060    0.96500    0.31752    1.000
    O20      O        0.30430    0.91250    0.27750    1.000
    S6       S        0.65403    0.07317    0.33259    1.000
    N6       N        0.45680    0.88420    0.19830    1.000
    C61      C        0.62670    0.28020    0.35980    1.000
    C62      C        0.64840    0.21640    0.33540    1.000
    H31      H        0.67820    0.21510    0.29940    1.000
    C63      C        0.62630    0.15400    0.36360    1.000
    C64      C        0.58200    0.15530    0.41550    1.000
    H32      H        0.56630    0.11270    0.43360    1.000
    C65      C        0.56100    0.21770    0.44060    1.000
    C66      C        0.58310    0.28000    0.41310    1.000
    C67      C        0.41400    0.88290    0.14810    1.000
    H33      H        0.39970    0.92620    0.13020    1.000
    C68      C        0.38950    0.82120    0.12090    1.000
    H34      H        0.35890    0.82280    0.08560    1.000
    C69      C        0.40980    0.75970    0.14500    1.000
    H35      H        0.39360    0.71720    0.12680    1.000
    C70      C        0.45470    0.75820    0.19710    1.000
    C71      C        0.47900    0.69270    0.22460    1.000
    H36      H        0.46500    0.64950    0.20630    1.000
    C72      C        0.47660    0.82190    0.22350    1.000
    O21      O        0.56110    0.34280    0.43694    1.000
    O22      O        0.69100    0.03720    0.38370    1.000
    O23      O        0.58940    0.03500    0.31752    1.000
    O24      O        0.69570    0.08750    0.27750    1.000
    S7       S        0.92683    0.65403    0.83259    1.000
    N7       N        0.11580    0.45680    0.69830    1.000
    C73      C        0.71980    0.62670    0.85980    1.000
    C74      C        0.78360    0.64840    0.83540    1.000
    H37      H        0.78490    0.67820    0.79940    1.000
    C75      C        0.84600    0.62630    0.86360    1.000
    C76      C        0.84470    0.58200    0.91550    1.000
    H38      H        0.88730    0.56630    0.93360    1.000
    C77      C        0.78230    0.56100    0.94060    1.000
    C78      C        0.72000    0.58310    0.91310    1.000
    C79      C        0.11710    0.41400    0.64810    1.000
    H39      H        0.07380    0.39970    0.63020    1.000
    C80      C        0.17880    0.38950    0.62090    1.000
    H40      H        0.17720    0.35890    0.58560    1.000
    C81      C        0.24030    0.40980    0.64500    1.000
    H41      H        0.28280    0.39360    0.62680    1.000
    C82      C        0.24180    0.45470    0.69710    1.000
    C83      C        0.30730    0.47900    0.72460    1.000
    H42      H        0.35050    0.46500    0.70630    1.000
    C84      C        0.17810    0.47660    0.72350    1.000
    O25      O        0.65720    0.56110    0.93694    1.000
    O26      O        0.96280    0.69100    0.88370    1.000
    O27      O        0.96500    0.58940    0.81752    1.000
    O28      O        0.91250    0.69570    0.77750    1.000
    S8       S        0.07317    0.34597    0.83259    1.000
    N8       N        0.88420    0.54320    0.69830    1.000
    C85      C        0.28020    0.37330    0.85980    1.000
    C86      C        0.21640    0.35160    0.83540    1.000
    H43      H        0.21510    0.32180    0.79940    1.000
    C87      C        0.15400    0.37370    0.86360    1.000
    C88      C        0.15530    0.41800    0.91550    1.000
    H44      H        0.11270    0.43370    0.93360    1.000
    C89      C        0.21770    0.43900    0.94060    1.000
    C90      C        0.28000    0.41690    0.91310    1.000
    C91      C        0.88290    0.58600    0.64810    1.000
    H45      H        0.92620    0.60030    0.63020    1.000
    C92      C        0.82120    0.61050    0.62090    1.000
    H46      H        0.82280    0.64110    0.58560    1.000
    C93      C        0.75970    0.59020    0.64500    1.000
    H47      H        0.71720    0.60640    0.62680    1.000
    C94      C        0.75820    0.54530    0.69710    1.000
    C95      C        0.69270    0.52100    0.72460    1.000
    H48      H        0.64950    0.53500    0.70630    1.000
    C96      C        0.82190    0.52340    0.72350    1.000
    O29      O        0.34280    0.43890    0.93694    1.000
    O30      O        0.03720    0.30900    0.88370    1.000
    O31      O        0.03500    0.41060    0.81752    1.000
    O32      O        0.08750    0.30430    0.77750    1.000
    S9       S        0.34597    0.07317    0.83259    1.000
    N9       N        0.54320    0.88420    0.69830    1.000
    C97      C        0.37330    0.28020    0.85980    1.000
    C98      C        0.35160    0.21640    0.83540    1.000
    H49      H        0.32180    0.21510    0.79940    1.000
    C99      C        0.37370    0.15400    0.86360    1.000
    C100     C        0.41800    0.15530    0.91550    1.000
    H50      H        0.43370    0.11270    0.93360    1.000
    C101     C        0.43900    0.21770    0.94060    1.000
    C102     C        0.41690    0.28000    0.91310    1.000
    C103     C        0.58600    0.88290    0.64810    1.000
    H51      H        0.60030    0.92620    0.63020    1.000
    C104     C        0.61050    0.82120    0.62090    1.000
    H52      H        0.64110    0.82280    0.58560    1.000
    C105     C        0.59020    0.75970    0.64500    1.000
    H53      H        0.60640    0.71720    0.62680    1.000
    C106     C        0.54530    0.75820    0.69710    1.000
    C107     C        0.52100    0.69270    0.72460    1.000
    H54      H        0.53500    0.64950    0.70630    1.000
    C108     C        0.52340    0.82190    0.72350    1.000
    O33      O        0.43890    0.34280    0.93694    1.000
    O34      O        0.30900    0.03720    0.88370    1.000
    O35      O        0.41060    0.03500    0.81752    1.000
    O36      O        0.30430    0.08750    0.77750    1.000
    S10      S        0.65403    0.92683    0.83259    1.000
    N10      N        0.45680    0.11580    0.69830    1.000
    C109     C        0.62670    0.71980    0.85980    1.000
    C110     C        0.64840    0.78360    0.83540    1.000
    H55      H        0.67820    0.78490    0.79940    1.000
    C111     C        0.62630    0.84600    0.86360    1.000
    C112     C        0.58200    0.84470    0.91550    1.000
    H56      H        0.56630    0.88730    0.93360    1.000
    C113     C        0.56100    0.78230    0.94060    1.000
    C114     C        0.58310    0.72000    0.91310    1.000
    C115     C        0.41400    0.11710    0.64810    1.000
    H57      H        0.39970    0.07380    0.63020    1.000
    C116     C        0.38950    0.17880    0.62090    1.000
    H58      H        0.35890    0.17720    0.58560    1.000
    C117     C        0.40980    0.24030    0.64500    1.000
    H59      H        0.39360    0.28280    0.62680    1.000
    C118     C        0.45470    0.24180    0.69710    1.000
    C119     C        0.47900    0.30730    0.72460    1.000
    H60      H        0.46500    0.35050    0.70630    1.000
    C120     C        0.47660    0.17810    0.72350    1.000
    O37      O        0.56110    0.65720    0.93694    1.000
    O38      O        0.69100    0.96280    0.88370    1.000
    O39      O        0.58940    0.96500    0.81752    1.000
    O40      O        0.69570    0.91250    0.77750    1.000
    S11      S        0.92683    0.34597    0.33259    1.000
    N11      N        0.11580    0.54320    0.19830    1.000
    C121     C        0.71980    0.37330    0.35980    1.000
    C122     C        0.78360    0.35160    0.33540    1.000
    H61      H        0.78490    0.32180    0.29940    1.000
    C123     C        0.84600    0.37370    0.36360    1.000
    C124     C        0.84470    0.41800    0.41550    1.000
    H62      H        0.88730    0.43370    0.43360    1.000
    C125     C        0.78230    0.43900    0.44060    1.000
    C126     C        0.72000    0.41690    0.41310    1.000
    C127     C        0.11710    0.58600    0.14810    1.000
    H63      H        0.07380    0.60030    0.13020    1.000
    C128     C        0.17880    0.61050    0.12090    1.000
    H64      H        0.17720    0.64110    0.08560    1.000
    C129     C        0.24030    0.59020    0.14500    1.000
    H65      H        0.28280    0.60640    0.12680    1.000
    C130     C        0.24180    0.54530    0.19710    1.000
    C131     C        0.30730    0.52100    0.22460    1.000
    H66      H        0.35050    0.53500    0.20630    1.000
    C132     C        0.17810    0.52340    0.22350    1.000
    O41      O        0.65720    0.43890    0.43694    1.000
    O42      O        0.96280    0.30900    0.38370    1.000
    O43      O        0.96500    0.41060    0.31752    1.000
    O44      O        0.91250    0.30430    0.27750    1.000
    S12      S        0.07317    0.65403    0.33259    1.000
    N12      N        0.88420    0.45680    0.19830    1.000
    C133     C        0.28020    0.62670    0.35980    1.000
    C134     C        0.21640    0.64840    0.33540    1.000
    H67      H        0.21510    0.67820    0.29940    1.000
    C135     C        0.15400    0.62630    0.36360    1.000
    C136     C        0.15530    0.58200    0.41550    1.000
    H68      H        0.11270    0.56630    0.43360    1.000
    C137     C        0.21770    0.56100    0.44060    1.000
    C138     C        0.28000    0.58310    0.41310    1.000
    C139     C        0.88290    0.41400    0.14810    1.000
    H69      H        0.92620    0.39970    0.13020    1.000
    C140     C        0.82120    0.38950    0.12090    1.000
    H70      H        0.82280    0.35890    0.08560    1.000
    C141     C        0.75970    0.40980    0.14500    1.000
    H71      H        0.71720    0.39360    0.12680    1.000
    C142     C        0.75820    0.45470    0.19710    1.000
    C143     C        0.69270    0.47900    0.22460    1.000
    H72      H        0.64950    0.46500    0.20630    1.000
    C144     C        0.82190    0.47660    0.22350    1.000
    O45      O        0.34280    0.56110    0.43694    1.000
    O46      O        0.03720    0.69100    0.38370    1.000
    O47      O        0.03500    0.58940    0.31752    1.000
    O48      O        0.08750    0.69570    0.27750    1.000
    S13      S        0.65403    0.07317    0.66741    1.000
    N13      N        0.45680    0.88420    0.80170    1.000
    C145     C        0.62670    0.28020    0.64020    1.000
    C146     C        0.64840    0.21640    0.66460    1.000
    H73      H        0.67820    0.21510    0.70060    1.000
    C147     C        0.62630    0.15400    0.63640    1.000
    C148     C        0.58200    0.15530    0.58450    1.000
    H74      H        0.56630    0.11270    0.56640    1.000
    C149     C        0.56100    0.21770    0.55940    1.000
    C150     C        0.58310    0.28000    0.58690    1.000
    C151     C        0.41400    0.88290    0.85190    1.000
    H75      H        0.39970    0.92620    0.86980    1.000
    C152     C        0.38950    0.82120    0.87910    1.000
    H76      H        0.35890    0.82280    0.91440    1.000
    C153     C        0.40980    0.75970    0.85500    1.000
    H77      H        0.39360    0.71720    0.87320    1.000
    C154     C        0.45470    0.75820    0.80290    1.000
    C155     C        0.47900    0.69270    0.77540    1.000
    H78      H        0.46500    0.64950    0.79370    1.000
    C156     C        0.47660    0.82190    0.77650    1.000
    O49      O        0.56110    0.34280    0.56306    1.000
    O50      O        0.69100    0.03720    0.61630    1.000
    O51      O        0.58940    0.03500    0.68248    1.000
    O52      O        0.69570    0.08750    0.72250    1.000
    S14      S        0.34597    0.92683    0.66741    1.000
    N14      N        0.54320    0.11580    0.80170    1.000
    C157     C        0.37330    0.71980    0.64020    1.000
    C158     C        0.35160    0.78360    0.66460    1.000
    H79      H        0.32180    0.78490    0.70060    1.000
    C159     C        0.37370    0.84600    0.63640    1.000
    C160     C        0.41800    0.84470    0.58450    1.000
    H80      H        0.43370    0.88730    0.56640    1.000
    C161     C        0.43900    0.78230    0.55940    1.000
    C162     C        0.41690    0.72000    0.58690    1.000
    C163     C        0.58600    0.11710    0.85190    1.000
    H81      H        0.60030    0.07380    0.86980    1.000
    C164     C        0.61050    0.17880    0.87910    1.000
    H82      H        0.64110    0.17720    0.91440    1.000
    C165     C        0.59020    0.24030    0.85500    1.000
    H83      H        0.60640    0.28280    0.87320    1.000
    C166     C        0.54530    0.24180    0.80290    1.000
    C167     C        0.52100    0.30730    0.77540    1.000
    H84      H        0.53500    0.35050    0.79370    1.000
    C168     C        0.52340    0.17810    0.77650    1.000
    O53      O        0.43890    0.65720    0.56306    1.000
    O54      O        0.30900    0.96280    0.61630    1.000
    O55      O        0.41060    0.96500    0.68248    1.000
    O56      O        0.30430    0.91250    0.72250    1.000
    S15      S        0.07317    0.34597    0.16741    1.000
    N15      N        0.88420    0.54320    0.30170    1.000
    C169     C        0.28020    0.37330    0.14020    1.000
    C170     C        0.21640    0.35160    0.16460    1.000
    H85      H        0.21510    0.32180    0.20060    1.000
    C171     C        0.15400    0.37370    0.13640    1.000
    C172     C        0.15530    0.41800    0.08450    1.000
    H86      H        0.11270    0.43370    0.06640    1.000
    C173     C        0.21770    0.43900    0.05940    1.000
    C174     C        0.28000    0.41690    0.08690    1.000
    C175     C        0.88290    0.58600    0.35190    1.000
    H87      H        0.92620    0.60030    0.36980    1.000
    C176     C        0.82120    0.61050    0.37910    1.000
    H88      H        0.82280    0.64110    0.41440    1.000
    C177     C        0.75970    0.59020    0.35500    1.000
    H89      H        0.71720    0.60640    0.37320    1.000
    C178     C        0.75820    0.54530    0.30290    1.000
    C179     C        0.69270    0.52100    0.27540    1.000
    H90      H        0.64950    0.53500    0.29370    1.000
    C180     C        0.82190    0.52340    0.27650    1.000
    O57      O        0.34280    0.43890    0.06306    1.000
    O58      O        0.03720    0.30900    0.11630    1.000
    O59      O        0.03500    0.41060    0.18248    1.000
    O60      O        0.08750    0.30430    0.22250    1.000
    S16      S        0.92683    0.65403    0.16741    1.000
    N16      N        0.11580    0.45680    0.30170    1.000
    C181     C        0.71980    0.62670    0.14020    1.000
    C182     C        0.78360    0.64840    0.16460    1.000
    H91      H        0.78490    0.67820    0.20060    1.000
    C183     C        0.84600    0.62630    0.13640    1.000
    C184     C        0.84470    0.58200    0.08450    1.000
    H92      H        0.88730    0.56630    0.06640    1.000
    C185     C        0.78230    0.56100    0.05940    1.000
    C186     C        0.72000    0.58310    0.08690    1.000
    C187     C        0.11710    0.41400    0.35190    1.000
    H93      H        0.07380    0.39970    0.36980    1.000
    C188     C        0.17880    0.38950    0.37910    1.000
    H94      H        0.17720    0.35890    0.41440    1.000
    C189     C        0.24030    0.40980    0.35500    1.000
    H95      H        0.28280    0.39360    0.37320    1.000
    C190     C        0.24180    0.45470    0.30290    1.000
    C191     C        0.30730    0.47900    0.27540    1.000
    H96      H        0.35050    0.46500    0.29370    1.000
    C192     C        0.17810    0.47660    0.27650    1.000
    O61      O        0.65720    0.56110    0.06306    1.000
    O62      O        0.96280    0.69100    0.11630    1.000
    O63      O        0.96500    0.58940    0.18248    1.000
    O64      O        0.91250    0.69570    0.22250    1.000
    Eu1      Eu       0.50000    0.00000    0.25000    1.000
    Eu2      Eu       0.00000    0.50000    0.75000    1.000
    Eu3      Eu       0.50000    0.00000    0.75000    1.000
    Eu4      Eu       0.00000    0.50000    0.25000    1.000
    C193     C        0.65250    0.65250    0.16940    1.000
    H97      H        0.61610    0.61610    0.16440    1.000
    H98      H        0.65990    0.65990    0.21530    1.000
    C194     C        0.34750    0.34750    0.16940    1.000
    H99      H        0.38390    0.38390    0.16440    1.000
    H100     H        0.34010    0.34010    0.21530    1.000
    C195     C        0.34750    0.65250    0.66940    1.000
    H101     H        0.38390    0.61610    0.66440    1.000
    H102     H        0.34010    0.65990    0.71530    1.000
    C196     C        0.65250    0.34750    0.66940    1.000
    H103     H        0.61610    0.38390    0.66440    1.000
    H104     H        0.65990    0.34010    0.71530    1.000
    C197     C        0.34750    0.65250    0.33060    1.000
    H105     H        0.38390    0.61610    0.33560    1.000
    H106     H        0.34010    0.65990    0.28470    1.000
    C198     C        0.65250    0.34750    0.33060    1.000
    H107     H        0.61610    0.38390    0.33560    1.000
    H108     H        0.65990    0.34010    0.28470    1.000
    C199     C        0.65250    0.65250    0.83060    1.000
    H109     H        0.61610    0.61610    0.83560    1.000
    H110     H        0.65990    0.65990    0.78470    1.000
    C200     C        0.34750    0.34750    0.83060    1.000
    H111     H        0.38390    0.38390    0.83560    1.000
    H112     H        0.34010    0.34010    0.78470    1.000
    C201     C        0.51520    0.78270    0.00000    1.000
    H113     H        0.48450    0.74100    0.00000    1.000
    H114     H        0.48520    0.82490    0.00000    1.000
    C202     C        0.48480    0.21730    0.00000    1.000
    H115     H        0.51550    0.25900    0.00000    1.000
    H116     H        0.51480    0.17510    0.00000    1.000
    C203     C        0.21730    0.51520    0.50000    1.000
    H117     H        0.25900    0.48450    0.50000    1.000
    H118     H        0.17510    0.48520    0.50000    1.000
    C204     C        0.78270    0.48480    0.50000    1.000
    H119     H        0.74100    0.51550    0.50000    1.000
    H120     H        0.82490    0.51480    0.50000    1.000
    C205     C        0.48480    0.78270    0.50000    1.000
    H121     H        0.51550    0.74100    0.50000    1.000
    H122     H        0.51480    0.82490    0.50000    1.000
    C206     C        0.51520    0.21730    0.50000    1.000
    H123     H        0.48450    0.25900    0.50000    1.000
    H124     H        0.48520    0.17510    0.50000    1.000
    C207     C        0.78270    0.51520    0.00000    1.000
    H125     H        0.74100    0.48450    0.00000    1.000
    H126     H        0.82490    0.48520    0.00000    1.000
    C208     C        0.21730    0.48480    0.00000    1.000
    H127     H        0.25900    0.51550    0.00000    1.000
    H128     H        0.17510    0.51480    0.00000    1.000
