data_functionalizedCrystal
_audit_creation_method	'EQeq! by Chris Wilmer'
_symmetry_space_group_name_H-M	'P1'
_symmetry_Int_Tables_number	1
_symmetry_cell_setting	triclinic
loop_
_symmetry_equiv_pos_as_xyz
  x,y,z
_cell_length_a	34.6788
_cell_length_b	15.0282
_cell_length_c	31.1707
_cell_angle_alpha	90
_cell_angle_beta	101.973
_cell_angle_gamma	90
loop_
_atom_site_label
_atom_site_type_symbol
_atom_site_fract_x
_atom_site_fract_y
_atom_site_fract_z
_atom_site_charge
Mof_Zn	Zn	0.37357	0.90641	0.69371	1.158
Mof_Zn	Zn	0.58301	0.61187	0.84442	1.159
Mof_Zn	Zn	0.08206	0.87503	0.34502	1.157
Mof_Zn	Zn	0.17702	0.34923	0.02532	1.15
Mof_Zn	Zn	0.37367	0.07842	0.19489	1.159
Mof_N 	N 	0.641	0.1544	0.5703	-0.311
Mof_C 	C 	0.6064	0.1228	0.5651	0.123
Mof_H 	H 	0.5963	0.0905	0.539	-0.038
Mof_C 	C 	0.5829	0.1327	0.5948	-0.167
Mof_H 	H 	0.5581	0.1031	0.5904	0.099
Mof_C 	C 	0.5946	0.1838	0.6302	0.098
Mof_C 	C 	0.631	0.2231	0.6346	-0.154
Mof_H 	H 	0.6409	0.2603	0.6591	0.093
Mof_C 	C 	0.652	0.2084	0.6046	0.096
Mof_H 	H 	0.6765	0.2384	0.6076	-0.024
Mof_N 	N 	0.4215	0.9887	0.695	-0.275
Mof_C 	C 	0.4378	0.0376	0.7302	0.072
Mof_H 	H 	0.4267	0.034	0.7555	-0.008
Mof_C 	C 	0.4693	0.0921	0.7314	-0.127
Mof_H 	H 	0.4805	0.1247	0.7571	0.078
Mof_C 	C 	0.4846	0.0983	0.6936	0.056
Mof_C 	C 	0.467	0.0511	0.6576	-0.135
Mof_H 	H 	0.476	0.0581	0.631	0.089
Mof_C 	C 	0.4371	0.995	0.6591	0.084
Mof_H 	H 	0.4269	0.9586	0.6344	-0.018
Mof_N 	N 	0.5702	0.5115	0.799	-0.278
Mof_C 	C 	0.5965	0.4869	0.7755	0.074
Mof_H 	H 	0.6194	0.5226	0.7774	-0.013
Mof_C 	C 	0.5927	0.4135	0.7486	-0.125
Mof_H 	H 	0.6124	0.3988	0.7328	0.082
Mof_C 	C 	0.5598	0.3625	0.7455	0.058
Mof_C 	C 	0.532	0.3853	0.7698	-0.122
Mof_H 	H 	0.509	0.3501	0.7684	0.071
Mof_C 	C 	0.5383	0.459	0.7958	0.069
Mof_H 	H 	0.5192	0.4741	0.8125	-0.009
Mof_C 	C 	0.5696	0.1991	0.6619	0.082
Mof_N 	N 	0.5393	0.143	0.6621	-0.133
Mof_C 	C 	0.5184	0.1591	0.6919	0.089
Mof_N 	N 	0.5244	0.2256	0.7211	-0.148
Mof_C 	C 	0.5545	0.28	0.7169	0.089
Mof_N 	N 	0.5779	0.2714	0.6894	-0.134
Mof_N 	N 	0.3301	0.9688	0.6485	-0.269
Mof_C 	C 	0.3218	0.053	0.6547	0.062
Mof_H 	H 	0.3358	0.0826	0.6801	-0.002
Mof_C 	C 	0.2932	0.1002	0.6254	-0.104
Mof_H 	H 	0.2883	0.1613	0.6301	0.077
Mof_C 	C 	0.2718	0.0545	0.5884	0.026
Mof_C 	C 	0.2807	0.9656	0.5831	-0.105
Mof_H 	H 	0.2663	0.9323	0.5591	0.08
Mof_C 	C 	0.3104	0.9265	0.613	0.06
Mof_H 	H 	0.3173	0.8666	0.6083	0.006
Mof_N 	N 	0.1218	0.945	0.3929	-0.278
Mof_C 	C 	0.1174	0.0308	0.3968	0.079
Mof_H 	H 	0.0983	0.0602	0.3753	-0.008
Mof_C 	C 	0.1391	0.0809	0.4303	-0.122
Mof_H 	H 	0.1345	0.143	0.4321	0.097
Mof_C 	C 	0.1676	0.0384	0.4613	0.058
Mof_C 	C 	0.1727	0.9486	0.4552	-0.135
Mof_H 	H 	0.1925	0.9165	0.4747	0.066
Mof_C 	C 	0.1493	0.9067	0.4213	0.091
Mof_H 	H 	0.1533	0.8448	0.418	-0.032
Mof_N 	N 	0.186	0.5038	0.5267	-0.297
Mof_C 	C 	0.2156	0.4695	0.5545	0.071
Mof_H 	H 	0.2325	0.5082	0.574	-0.013
Mof_C 	C 	0.2237	0.3761	0.5571	-0.126
Mof_H 	H 	0.2466	0.3541	0.5763	0.076
Mof_C 	C 	0.1986	0.3202	0.5319	0.06
Mof_C 	C 	0.1676	0.3557	0.502	-0.123
Mof_H 	H 	0.1495	0.3182	0.4832	0.086
Mof_C 	C 	0.1634	0.4484	0.5	0.071
Mof_H 	H 	0.143	0.4727	0.4781	-0.016
Mof_C 	C 	0.2407	0.1	0.5566	0.087
Mof_N 	N 	0.2197	0.0512	0.5242	-0.149
Mof_C 	C 	0.1914	0.0901	0.4968	0.107
Mof_N 	N 	0.1826	0.1759	0.4998	-0.133
Mof_C 	C 	0.2057	0.2211	0.5317	0.101
Mof_N 	N 	0.2338	0.1863	0.5618	-0.147
Mof_N 	N 	0.0699	0.9791	0.2993	-0.27
Mof_C 	C 	0.0959	0.998	0.2758	0.075
Mof_H 	H 	0.1184	0.9608	0.2785	-0.019
Mof_C 	C 	0.0921	0.0711	0.2467	-0.115
Mof_H 	H 	0.111	0.0826	0.2292	0.078
Mof_C 	C 	0.0587	0.1259	0.245	0.043
Mof_C 	C 	0.0309	0.1043	0.2697	-0.112
Mof_H 	H 	0.008	0.1397	0.2685	0.066
Mof_C 	C 	0.0378	0.0291	0.2962	0.061
Mof_H 	H 	0.0189	0.0128	0.3129	-0.013
Mof_N 	N 	0.1441	0.3299	0.0716	-0.273
Mof_C 	C 	0.1124	0.3824	0.0697	0.05
Mof_H 	H 	0.1077	0.4303	0.0494	-0.011
Mof_C 	C 	0.0855	0.3662	0.0985	-0.09
Mof_H 	H 	0.0619	0.3998	0.0955	0.075
Mof_C 	C 	0.0946	0.3003	0.131	0.043
Mof_C 	C 	0.1305	0.2575	0.1363	-0.089
Mof_H 	H 	0.1389	0.2179	0.1602	0.074
Mof_C 	C 	0.1558	0.2742	0.1046	0.05
Mof_H 	H 	0.1805	0.2448	0.1078	-0.005
Mof_N 	N 	0.9212	0.4974	0.1952	-0.276
Mof_C 	C 	0.9345	0.4871	0.1594	0.067
Mof_H 	H 	0.9199	0.5127	0.1331	-0.014
Mof_C 	C 	0.9707	0.439	0.1571	-0.109
Mof_H 	H 	0.9827	0.4417	0.1324	0.08
Mof_C 	C 	0.9863	0.3877	0.1939	0.038
Mof_C 	C 	0.9704	0.3947	0.2305	-0.108
Mof_H 	H 	0.9811	0.3604	0.2558	0.07
Mof_C 	C 	0.9376	0.4533	0.2311	0.056
Mof_H 	H 	0.9278	0.4602	0.2572	-0.005
Mof_C 	C 	0.0532	0.2056	0.2163	0.097
Mof_N 	N 	0.0761	0.2152	0.1881	-0.143
Mof_C 	C 	0.0691	0.2849	0.1629	0.118
Mof_N 	N 	0.0406	0.3441	0.1618	-0.137
Mof_C 	C 	0.0191	0.3294	0.193	0.089
Mof_N 	N 	0.0252	0.263	0.222	-0.151
Mof_N 	N 	0.1883	0.4862	0.0309	-0.276
Mof_C 	C 	0.1648	0.5394	0.0028	0.066
Mof_H 	H 	0.1437	0.5145	0.9819	-0.015
Mof_C 	C 	0.1707	0.6289	0.0035	-0.123
Mof_H 	H 	0.1541	0.6646	0.9822	0.084
Mof_C 	C 	0.1993	0.6692	0.0334	0.058
Mof_C 	C 	0.2228	0.6133	0.0648	-0.129
Mof_H 	H 	0.2417	0.6367	0.0887	0.082
Mof_C 	C 	0.2168	0.522	0.059	0.087
Mof_H 	H 	0.235	0.4833	0.0769	-0.013
Mof_N 	N 	0.3307	0.0183	0.1491	-0.278
Mof_C 	C 	0.3098	0.0627	0.1145	0.06
Mof_H 	H 	0.3154	0.1237	0.1106	0.002
Mof_C 	C 	0.28	0.0206	0.0841	-0.121
Mof_H 	H 	0.2659	0.053	0.0596	0.083
Mof_C 	C 	0.2708	0.9331	0.0894	0.052
Mof_C 	C 	0.2923	0.8886	0.1251	-0.12
Mof_H 	H 	0.2872	0.8276	0.1298	0.087
Mof_C 	C 	0.3214	0.9341	0.1543	0.077
Mof_H 	H 	0.3353	0.9031	0.1792	-0.005
Mof_N 	N 	0.1224	0.0429	0.8913	-0.271
Mof_C 	C 	0.1161	0.955	0.8972	0.071
Mof_H 	H 	0.0947	0.9261	0.8783	-0.003
Mof_C 	C 	0.1399	0.9063	0.93	-0.122
Mof_H 	H 	0.1368	0.8436	0.9315	0.094
Mof_C 	C 	0.1676	0.9483	0.9598	0.069
Mof_C 	C 	0.1749	0.0373	0.9557	-0.125
Mof_H 	H 	0.1948	0.0671	0.9763	0.07
Mof_C 	C 	0.1516	0.0833	0.9193	0.06
Mof_H 	H 	0.157	0.1442	0.9148	-0.012
Mof_C 	C 	0.2053	0.7659	0.033	0.096
Mof_N 	N 	0.2348	0.801	0.0629	-0.141
Mof_C 	C 	0.2401	0.8894	0.0574	0.079
Mof_N 	N 	0.2207	0.9404	0.0249	-0.143
Mof_C 	C 	0.1909	0.8956	0.9993	0.098
Mof_N 	N 	0.1813	0.8111	0.0016	-0.135
Mof_Zn	Zn	0.67032	0.1374	0.51918	0.633
Mof_I 	I 	0.62347	0.1538	0.44507	-0.5
Mof_I 	I 	0.72977	0.2397	0.53865	0.373
Mof_I 	I 	0.3867	0.7555	0.6496	-0.262
Mof_I 	I 	0.3573	0.908	0.7591	0.024
Mof_I 	I 	0.5219	0.6326	0.87977	-0.361
Mof_I 	I 	0.61604	0.7329	0.8128	-0.022
Mof_I 	I 	0.02304	0.8466	0.3838	-0.251
Mof_I 	I 	0.11464	0.7534	0.3095	-0.145
Mof_I 	I 	0.1285	0.3265	0.9474	-0.464
Mof_I 	I 	0.2364	0.2622	0.0476	0.127
Mof_I 	I 	0.3913	0.2282	0.1609	-0.234
Mof_I 	I 	0.3543	0.0685	0.2678	-0.13
Mof_Zn	Zn	0.6813	0.139	0.5294	0.639
Mof_I 	I 	0.6393	0.167	0.4526	0.082
Mof_I 	I 	0.7439	0.2194	0.559	-0.783
Mof_I 	I 	0.38923	0.7613	0.662	-0.063
Mof_I 	I 	0.35327	0.9222	0.769	-0.385
Mof_I 	I 	0.5299	0.6526	0.8728	0.016
Mof_I 	I 	0.6297	0.7203	0.8079	-0.32
Mof_I 	I 	0.0225	0.8509	0.3724	-0.073
Mof_I 	I 	0.1219	0.7612	0.31	-0.19
Mof_I 	I 	0.1443	0.3188	0.9558	0.066
Mof_I 	I 	0.2486	0.2717	0.0658	-0.476
Mof_I 	I 	0.383	0.2245	0.1633	-0.106
Mof_I 	I 	0.3553	0.0474	0.2696	-0.202
Mof_Zn	Zn	0.87357	0.40641	0.69371	1.157
Mof_Zn	Zn	0.08301	0.11187	0.84442	1.158
Mof_Zn	Zn	0.58206	0.37503	0.34502	1.157
Mof_Zn	Zn	0.67702	0.84923	0.02532	1.15
Mof_Zn	Zn	0.87367	0.57842	0.19489	1.159
Mof_N 	N 	0.141	0.6544	0.5703	-0.311
Mof_C 	C 	0.1064	0.6228	0.5651	0.124
Mof_H 	H 	0.0963	0.5905	0.539	-0.038
Mof_C 	C 	0.0829	0.6327	0.5948	-0.166
Mof_H 	H 	0.0581	0.6031	0.5904	0.099
Mof_C 	C 	0.0946	0.6838	0.6302	0.098
Mof_C 	C 	0.131	0.7231	0.6346	-0.154
Mof_H 	H 	0.1409	0.7603	0.6591	0.093
Mof_C 	C 	0.152	0.7084	0.6046	0.096
Mof_H 	H 	0.1765	0.7384	0.6076	-0.024
Mof_N 	N 	0.9215	0.4887	0.695	-0.276
Mof_C 	C 	0.9378	0.5376	0.7302	0.075
Mof_H 	H 	0.9267	0.534	0.7555	-0.007
Mof_C 	C 	0.9693	0.5921	0.7314	-0.126
Mof_H 	H 	0.9805	0.6247	0.7571	0.078
Mof_C 	C 	0.9846	0.5983	0.6936	0.054
Mof_C 	C 	0.967	0.5511	0.6576	-0.128
Mof_H 	H 	0.976	0.5581	0.631	0.088
Mof_C 	C 	0.9371	0.495	0.6591	0.077
Mof_H 	H 	0.9269	0.4586	0.6344	-0.017
Mof_N 	N 	0.0702	0.0115	0.799	-0.283
Mof_C 	C 	0.0965	0.9869	0.7755	0.086
Mof_H 	H 	0.1194	0.0226	0.7774	-0.019
Mof_C 	C 	0.0927	0.9135	0.7486	-0.131
Mof_H 	H 	0.1124	0.8988	0.7328	0.085
Mof_C 	C 	0.0598	0.8625	0.7455	0.062
Mof_C 	C 	0.032	0.8853	0.7698	-0.126
Mof_H 	H 	0.009	0.8501	0.7684	0.073
Mof_C 	C 	0.0383	0.959	0.7958	0.074
Mof_H 	H 	0.0192	0.9741	0.8125	-0.01
Mof_C 	C 	0.0696	0.6991	0.6619	0.082
Mof_N 	N 	0.0393	0.643	0.6621	-0.133
Mof_C 	C 	0.0184	0.6591	0.6919	0.09
Mof_N 	N 	0.0244	0.7256	0.7211	-0.147
Mof_C 	C 	0.0545	0.78	0.7169	0.088
Mof_N 	N 	0.0779	0.7714	0.6894	-0.134
Mof_N 	N 	0.8301	0.4688	0.6485	-0.272
Mof_C 	C 	0.8218	0.553	0.6547	0.068
Mof_H 	H 	0.8358	0.5826	0.6801	-0.003
Mof_C 	C 	0.7932	0.6002	0.6254	-0.109
Mof_H 	H 	0.7883	0.6613	0.6301	0.078
Mof_C 	C 	0.7718	0.5545	0.5884	0.033
Mof_C 	C 	0.7807	0.4656	0.5831	-0.112
Mof_H 	H 	0.7663	0.4323	0.5591	0.081
Mof_C 	C 	0.8104	0.4265	0.613	0.063
Mof_H 	H 	0.8173	0.3666	0.6083	0.005
Mof_N 	N 	0.6218	0.445	0.3929	-0.281
Mof_C 	C 	0.6174	0.5308	0.3968	0.086
Mof_H 	H 	0.5983	0.5602	0.3753	-0.01
Mof_C 	C 	0.6391	0.5809	0.4303	-0.127
Mof_H 	H 	0.6345	0.643	0.4321	0.099
Mof_C 	C 	0.6676	0.5384	0.4613	0.065
Mof_C 	C 	0.6727	0.4486	0.4552	-0.143
Mof_H 	H 	0.6925	0.4165	0.4747	0.068
Mof_C 	C 	0.6493	0.4067	0.4213	0.094
Mof_H 	H 	0.6533	0.3448	0.418	-0.034
Mof_N 	N 	0.686	0.0038	0.5267	-0.302
Mof_C 	C 	0.7156	0.9695	0.5545	0.083
Mof_H 	H 	0.7325	0.0082	0.574	-0.019
Mof_C 	C 	0.7237	0.8761	0.5571	-0.132
Mof_H 	H 	0.7466	0.8541	0.5763	0.078
Mof_C 	C 	0.6986	0.8202	0.5319	0.064
Mof_C 	C 	0.6676	0.8557	0.502	-0.127
Mof_H 	H 	0.6495	0.8182	0.4832	0.087
Mof_C 	C 	0.6634	0.9484	0.5	0.077
Mof_H 	H 	0.643	0.9727	0.4781	-0.017
Mof_C 	C 	0.7407	0.6	0.5566	0.086
Mof_N 	N 	0.7197	0.5512	0.5242	-0.147
Mof_C 	C 	0.6914	0.5901	0.4968	0.106
Mof_N 	N 	0.6826	0.6759	0.4998	-0.133
Mof_C 	C 	0.7057	0.7211	0.5317	0.1
Mof_N 	N 	0.7338	0.6863	0.5618	-0.147
Mof_N 	N 	0.5699	0.4791	0.2993	-0.271
Mof_C 	C 	0.5959	0.498	0.2758	0.07
Mof_H 	H 	0.6184	0.4608	0.2785	-0.018
Mof_C 	C 	0.5921	0.5711	0.2467	-0.111
Mof_H 	H 	0.611	0.5826	0.2292	0.077
Mof_C 	C 	0.5587	0.6259	0.245	0.042
Mof_C 	C 	0.5309	0.6043	0.2697	-0.112
Mof_H 	H 	0.508	0.6397	0.2685	0.067
Mof_C 	C 	0.5378	0.5291	0.2962	0.064
Mof_H 	H 	0.5189	0.5128	0.3129	-0.012
Mof_N 	N 	0.6441	0.8299	0.0716	-0.273
Mof_C 	C 	0.6124	0.8824	0.0697	0.051
Mof_H 	H 	0.6077	0.9303	0.0494	-0.01
Mof_C 	C 	0.5855	0.8662	0.0985	-0.09
Mof_H 	H 	0.5619	0.8998	0.0955	0.075
Mof_C 	C 	0.5946	0.8003	0.131	0.044
Mof_C 	C 	0.6305	0.7575	0.1363	-0.089
Mof_H 	H 	0.6389	0.7179	0.1602	0.074
Mof_C 	C 	0.6558	0.7742	0.1046	0.05
Mof_H 	H 	0.6805	0.7448	0.1078	-0.005
Mof_N 	N 	0.4212	0.9974	0.1952	-0.276
Mof_C 	C 	0.4345	0.9871	0.1594	0.075
Mof_H 	H 	0.4199	0.0127	0.1331	-0.019
Mof_C 	C 	0.4707	0.939	0.1571	-0.111
Mof_H 	H 	0.4827	0.9417	0.1324	0.082
Mof_C 	C 	0.4863	0.8877	0.1939	0.039
Mof_C 	C 	0.4704	0.8947	0.2305	-0.109
Mof_H 	H 	0.4811	0.8604	0.2558	0.071
Mof_C 	C 	0.4376	0.9533	0.2311	0.057
Mof_H 	H 	0.4278	0.9602	0.2572	-0.004
Mof_C 	C 	0.5532	0.7056	0.2163	0.097
Mof_N 	N 	0.5761	0.7152	0.1881	-0.143
Mof_C 	C 	0.5691	0.7849	0.1629	0.118
Mof_N 	N 	0.5406	0.8441	0.1618	-0.137
Mof_C 	C 	0.5191	0.8294	0.193	0.089
Mof_N 	N 	0.5252	0.763	0.222	-0.151
Mof_N 	N 	0.6883	0.9862	0.0309	-0.271
Mof_C 	C 	0.6648	0.0394	0.0028	0.06
Mof_H 	H 	0.6437	0.0145	0.9819	-0.014
Mof_C 	C 	0.6707	0.1289	0.0035	-0.118
Mof_H 	H 	0.6541	0.1646	0.9822	0.083
Mof_C 	C 	0.6993	0.1692	0.0334	0.054
Mof_C 	C 	0.7228	0.1133	0.0648	-0.122
Mof_H 	H 	0.7417	0.1367	0.0887	0.079
Mof_C 	C 	0.7168	0.022	0.059	0.074
Mof_H 	H 	0.735	0.9833	0.0769	-0.007
Mof_N 	N 	0.8307	0.5183	0.1491	-0.275
Mof_C 	C 	0.8098	0.5627	0.1145	0.057
Mof_H 	H 	0.8154	0.6237	0.1106	0.003
Mof_C 	C 	0.78	0.5206	0.0841	-0.113
Mof_H 	H 	0.7659	0.553	0.0596	0.081
Mof_C 	C 	0.7708	0.4331	0.0894	0.045
Mof_C 	C 	0.7923	0.3886	0.1251	-0.115
Mof_H 	H 	0.7872	0.3276	0.1298	0.085
Mof_C 	C 	0.8214	0.4341	0.1543	0.071
Mof_H 	H 	0.8353	0.4031	0.1792	-0.004
Mof_N 	N 	0.6224	0.5429	0.8913	-0.269
Mof_C 	C 	0.6161	0.455	0.8972	0.065
Mof_H 	H 	0.5947	0.4261	0.8783	-0.002
Mof_C 	C 	0.6399	0.4063	0.93	-0.117
Mof_H 	H 	0.6368	0.3436	0.9315	0.092
Mof_C 	C 	0.6676	0.4483	0.9598	0.062
Mof_C 	C 	0.6749	0.5373	0.9557	-0.117
Mof_H 	H 	0.6948	0.5671	0.9763	0.068
Mof_C 	C 	0.6516	0.5833	0.9193	0.057
Mof_H 	H 	0.657	0.6442	0.9148	-0.011
Mof_C 	C 	0.7053	0.2659	0.033	0.097
Mof_N 	N 	0.7348	0.301	0.0629	-0.141
Mof_C 	C 	0.7401	0.3894	0.0574	0.081
Mof_N 	N 	0.7207	0.4404	0.0249	-0.145
Mof_C 	C 	0.6909	0.3956	0.9993	0.099
Mof_N 	N 	0.6813	0.3111	0.0016	-0.136
Mof_Zn	Zn	0.17032	0.6374	0.51918	0.633
Mof_I 	I 	0.12347	0.6538	0.44507	-0.5
Mof_I 	I 	0.22977	0.7397	0.53865	0.373
Mof_I 	I 	0.8867	0.2555	0.6496	-0.262
Mof_I 	I 	0.8573	0.408	0.7591	0.022
Mof_I 	I 	0.0219	0.1326	0.87977	-0.361
Mof_I 	I 	0.11604	0.2329	0.8128	-0.023
Mof_I 	I 	0.52304	0.3466	0.3838	-0.252
Mof_I 	I 	0.61464	0.2534	0.3095	-0.145
Mof_I 	I 	0.6285	0.8265	0.9474	-0.464
Mof_I 	I 	0.7364	0.7622	0.0476	0.127
Mof_I 	I 	0.8913	0.7282	0.1609	-0.233
Mof_I 	I 	0.8543	0.5685	0.2678	-0.128
Mof_Zn	Zn	0.1813	0.639	0.5294	0.639
Mof_I 	I 	0.1393	0.667	0.4526	0.083
Mof_I 	I 	0.2439	0.7194	0.559	-0.782
Mof_I 	I 	0.88923	0.2613	0.662	-0.064
Mof_I 	I 	0.85327	0.4222	0.769	-0.386
Mof_I 	I 	0.0299	0.1526	0.8728	0.014
Mof_I 	I 	0.1297	0.2203	0.8079	-0.32
Mof_I 	I 	0.5225	0.3509	0.3724	-0.074
Mof_I 	I 	0.6219	0.2612	0.31	-0.191
Mof_I 	I 	0.6443	0.8188	0.9558	0.067
Mof_I 	I 	0.7486	0.7717	0.0658	-0.476
Mof_I 	I 	0.883	0.7245	0.1633	-0.105
Mof_I 	I 	0.8553	0.5474	0.2696	-0.201
Mof_Zn	Zn	0.62643	0.90641	0.30629	1.157
Mof_Zn	Zn	0.41699	0.61187	0.15558	1.158
Mof_Zn	Zn	0.91794	0.87503	0.65498	1.157
Mof_Zn	Zn	0.82298	0.34923	0.97468	1.15
Mof_Zn	Zn	0.62633	0.07842	0.80511	1.159
Mof_N 	N 	0.359	0.1544	0.4297	-0.311
Mof_C 	C 	0.3936	0.1228	0.4349	0.123
Mof_H 	H 	0.4037	0.0905	0.461	-0.038
Mof_C 	C 	0.4171	0.1327	0.4052	-0.167
Mof_H 	H 	0.4419	0.1031	0.4096	0.099
Mof_C 	C 	0.4054	0.1838	0.3698	0.098
Mof_C 	C 	0.369	0.2231	0.3654	-0.154
Mof_H 	H 	0.3591	0.2603	0.3409	0.093
Mof_C 	C 	0.348	0.2084	0.3954	0.096
Mof_H 	H 	0.3235	0.2384	0.3924	-0.024
Mof_N 	N 	0.5785	0.9887	0.305	-0.275
Mof_C 	C 	0.5622	0.0376	0.2698	0.072
Mof_H 	H 	0.5733	0.034	0.2445	-0.008
Mof_C 	C 	0.5307	0.0921	0.2686	-0.127
Mof_H 	H 	0.5195	0.1247	0.2429	0.078
Mof_C 	C 	0.5154	0.0983	0.3064	0.056
Mof_C 	C 	0.533	0.0511	0.3424	-0.135
Mof_H 	H 	0.524	0.0581	0.369	0.089
Mof_C 	C 	0.5629	0.995	0.3409	0.084
Mof_H 	H 	0.5731	0.9586	0.3656	-0.018
Mof_N 	N 	0.4298	0.5115	0.201	-0.278
Mof_C 	C 	0.4035	0.4869	0.2245	0.074
Mof_H 	H 	0.3806	0.5226	0.2226	-0.013
Mof_C 	C 	0.4073	0.4135	0.2514	-0.125
Mof_H 	H 	0.3876	0.3988	0.2672	0.082
Mof_C 	C 	0.4402	0.3625	0.2545	0.058
Mof_C 	C 	0.468	0.3853	0.2302	-0.122
Mof_H 	H 	0.491	0.3501	0.2316	0.071
Mof_C 	C 	0.4617	0.459	0.2042	0.069
Mof_H 	H 	0.4808	0.4741	0.1875	-0.009
Mof_C 	C 	0.4304	0.1991	0.3381	0.082
Mof_N 	N 	0.4607	0.143	0.3379	-0.133
Mof_C 	C 	0.4816	0.1591	0.3081	0.089
Mof_N 	N 	0.4756	0.2256	0.2789	-0.148
Mof_C 	C 	0.4455	0.28	0.2831	0.089
Mof_N 	N 	0.4221	0.2714	0.3106	-0.134
Mof_N 	N 	0.6699	0.9688	0.3515	-0.269
Mof_C 	C 	0.6782	0.053	0.3453	0.062
Mof_H 	H 	0.6642	0.0826	0.3199	-0.002
Mof_C 	C 	0.7068	0.1002	0.3746	-0.104
Mof_H 	H 	0.7117	0.1613	0.3699	0.077
Mof_C 	C 	0.7282	0.0545	0.4116	0.026
Mof_C 	C 	0.7193	0.9656	0.4169	-0.105
Mof_H 	H 	0.7337	0.9323	0.4409	0.08
Mof_C 	C 	0.6896	0.9265	0.387	0.06
Mof_H 	H 	0.6827	0.8666	0.3917	0.006
Mof_N 	N 	0.8782	0.945	0.6071	-0.278
Mof_C 	C 	0.8826	0.0308	0.6032	0.079
Mof_H 	H 	0.9017	0.0602	0.6247	-0.008
Mof_C 	C 	0.8609	0.0809	0.5697	-0.122
Mof_H 	H 	0.8655	0.143	0.5679	0.097
Mof_C 	C 	0.8324	0.0384	0.5387	0.058
Mof_C 	C 	0.8273	0.9486	0.5448	-0.135
Mof_H 	H 	0.8075	0.9165	0.5253	0.066
Mof_C 	C 	0.8507	0.9067	0.5787	0.091
Mof_H 	H 	0.8467	0.8448	0.582	-0.032
Mof_N 	N 	0.814	0.5038	0.4733	-0.297
Mof_C 	C 	0.7844	0.4695	0.4455	0.071
Mof_H 	H 	0.7675	0.5082	0.426	-0.013
Mof_C 	C 	0.7763	0.3761	0.4429	-0.126
Mof_H 	H 	0.7534	0.3541	0.4237	0.076
Mof_C 	C 	0.8014	0.3202	0.4681	0.06
Mof_C 	C 	0.8324	0.3557	0.498	-0.123
Mof_H 	H 	0.8505	0.3182	0.5168	0.086
Mof_C 	C 	0.8366	0.4484	0.5	0.071
Mof_H 	H 	0.857	0.4727	0.5219	-0.016
Mof_C 	C 	0.7593	0.1	0.4434	0.087
Mof_N 	N 	0.7803	0.0512	0.4758	-0.149
Mof_C 	C 	0.8086	0.0901	0.5032	0.107
Mof_N 	N 	0.8174	0.1759	0.5002	-0.133
Mof_C 	C 	0.7943	0.2211	0.4683	0.101
Mof_N 	N 	0.7662	0.1863	0.4382	-0.147
Mof_N 	N 	0.9301	0.9791	0.7007	-0.27
Mof_C 	C 	0.9041	0.998	0.7242	0.075
Mof_H 	H 	0.8816	0.9608	0.7215	-0.019
Mof_C 	C 	0.9079	0.0711	0.7533	-0.115
Mof_H 	H 	0.889	0.0826	0.7708	0.078
Mof_C 	C 	0.9413	0.1259	0.755	0.043
Mof_C 	C 	0.9691	0.1043	0.7303	-0.112
Mof_H 	H 	0.992	0.1397	0.7315	0.066
Mof_C 	C 	0.9622	0.0291	0.7038	0.061
Mof_H 	H 	0.9811	0.0128	0.6871	-0.013
Mof_N 	N 	0.8559	0.3299	0.9284	-0.273
Mof_C 	C 	0.8876	0.3824	0.9303	0.05
Mof_H 	H 	0.8923	0.4303	0.9506	-0.011
Mof_C 	C 	0.9145	0.3662	0.9015	-0.09
Mof_H 	H 	0.9381	0.3998	0.9045	0.075
Mof_C 	C 	0.9054	0.3003	0.869	0.043
Mof_C 	C 	0.8695	0.2575	0.8637	-0.089
Mof_H 	H 	0.8611	0.2179	0.8398	0.074
Mof_C 	C 	0.8442	0.2742	0.8954	0.05
Mof_H 	H 	0.8195	0.2448	0.8922	-0.005
Mof_N 	N 	0.0788	0.4974	0.8048	-0.276
Mof_C 	C 	0.0655	0.4871	0.8406	0.067
Mof_H 	H 	0.0801	0.5127	0.8669	-0.014
Mof_C 	C 	0.0293	0.439	0.8429	-0.109
Mof_H 	H 	0.0173	0.4417	0.8676	0.08
Mof_C 	C 	0.0137	0.3877	0.8061	0.038
Mof_C 	C 	0.0296	0.3947	0.7695	-0.108
Mof_H 	H 	0.0189	0.3604	0.7442	0.07
Mof_C 	C 	0.0624	0.4533	0.7689	0.056
Mof_H 	H 	0.0722	0.4602	0.7428	-0.005
Mof_C 	C 	0.9468	0.2056	0.7837	0.097
Mof_N 	N 	0.9239	0.2152	0.8119	-0.143
Mof_C 	C 	0.9309	0.2849	0.8371	0.118
Mof_N 	N 	0.9594	0.3441	0.8382	-0.137
Mof_C 	C 	0.9809	0.3294	0.807	0.089
Mof_N 	N 	0.9748	0.263	0.778	-0.151
Mof_N 	N 	0.8117	0.4862	0.9691	-0.276
Mof_C 	C 	0.8352	0.5394	0.9972	0.066
Mof_H 	H 	0.8563	0.5145	0.0181	-0.015
Mof_C 	C 	0.8293	0.6289	0.9965	-0.123
Mof_H 	H 	0.8459	0.6646	0.0178	0.084
Mof_C 	C 	0.8007	0.6692	0.9666	0.058
Mof_C 	C 	0.7772	0.6133	0.9352	-0.129
Mof_H 	H 	0.7583	0.6367	0.9113	0.082
Mof_C 	C 	0.7832	0.522	0.941	0.087
Mof_H 	H 	0.765	0.4833	0.9231	-0.013
Mof_N 	N 	0.6693	0.0183	0.8509	-0.278
Mof_C 	C 	0.6902	0.0627	0.8855	0.06
Mof_H 	H 	0.6846	0.1237	0.8894	0.002
Mof_C 	C 	0.72	0.0206	0.9159	-0.121
Mof_H 	H 	0.7341	0.053	0.9404	0.083
Mof_C 	C 	0.7292	0.9331	0.9106	0.052
Mof_C 	C 	0.7077	0.8886	0.8749	-0.12
Mof_H 	H 	0.7128	0.8276	0.8702	0.087
Mof_C 	C 	0.6786	0.9341	0.8457	0.077
Mof_H 	H 	0.6647	0.9031	0.8208	-0.005
Mof_N 	N 	0.8776	0.0429	0.1087	-0.271
Mof_C 	C 	0.8839	0.955	0.1028	0.071
Mof_H 	H 	0.9053	0.9261	0.1217	-0.003
Mof_C 	C 	0.8601	0.9063	0.07	-0.122
Mof_H 	H 	0.8632	0.8436	0.0685	0.094
Mof_C 	C 	0.8324	0.9483	0.0402	0.069
Mof_C 	C 	0.8251	0.0373	0.0443	-0.125
Mof_H 	H 	0.8052	0.0671	0.0237	0.07
Mof_C 	C 	0.8484	0.0833	0.0807	0.06
Mof_H 	H 	0.843	0.1442	0.0852	-0.012
Mof_C 	C 	0.7947	0.7659	0.967	0.096
Mof_N 	N 	0.7652	0.801	0.9371	-0.141
Mof_C 	C 	0.7599	0.8894	0.9426	0.079
Mof_N 	N 	0.7793	0.9404	0.9751	-0.143
Mof_C 	C 	0.8091	0.8956	0.0007	0.098
Mof_N 	N 	0.8187	0.8111	0.9984	-0.135
Mof_Zn	Zn	0.32968	0.1374	0.48082	0.633
Mof_I 	I 	0.37653	0.1538	0.55493	-0.5
Mof_I 	I 	0.27023	0.2397	0.46135	0.373
Mof_I 	I 	0.6133	0.7555	0.3504	-0.262
Mof_I 	I 	0.6427	0.908	0.2409	0.024
Mof_I 	I 	0.4781	0.6326	0.12023	-0.361
Mof_I 	I 	0.38396	0.7329	0.1872	-0.022
Mof_I 	I 	0.97696	0.8466	0.6162	-0.251
Mof_I 	I 	0.88536	0.7534	0.6905	-0.145
Mof_I 	I 	0.8715	0.3265	0.0526	-0.464
Mof_I 	I 	0.7636	0.2622	0.9524	0.127
Mof_I 	I 	0.6087	0.2282	0.8391	-0.234
Mof_I 	I 	0.6457	0.0685	0.7322	-0.13
Mof_Zn	Zn	0.3187	0.139	0.4706	0.639
Mof_I 	I 	0.3607	0.167	0.5474	0.082
Mof_I 	I 	0.2561	0.2194	0.441	-0.783
Mof_I 	I 	0.61077	0.7613	0.338	-0.063
Mof_I 	I 	0.64673	0.9222	0.231	-0.385
Mof_I 	I 	0.4701	0.6526	0.1272	0.016
Mof_I 	I 	0.3703	0.7203	0.1921	-0.32
Mof_I 	I 	0.9775	0.8509	0.6276	-0.073
Mof_I 	I 	0.8781	0.7612	0.69	-0.19
Mof_I 	I 	0.8557	0.3188	0.0442	0.066
Mof_I 	I 	0.7514	0.2717	0.9342	-0.476
Mof_I 	I 	0.617	0.2245	0.8367	-0.106
Mof_I 	I 	0.6447	0.0474	0.7304	-0.202
Mof_Zn	Zn	0.12643	0.40641	0.30629	1.157
Mof_Zn	Zn	0.91699	0.11187	0.15558	1.158
Mof_Zn	Zn	0.41794	0.37503	0.65498	1.157
Mof_Zn	Zn	0.32298	0.84923	0.97468	1.15
Mof_Zn	Zn	0.12633	0.57842	0.80511	1.159
Mof_N 	N 	0.859	0.6544	0.4297	-0.311
Mof_C 	C 	0.8936	0.6228	0.4349	0.124
Mof_H 	H 	0.9037	0.5905	0.461	-0.038
Mof_C 	C 	0.9171	0.6327	0.4052	-0.166
Mof_H 	H 	0.9419	0.6031	0.4096	0.099
Mof_C 	C 	0.9054	0.6838	0.3698	0.098
Mof_C 	C 	0.869	0.7231	0.3654	-0.154
Mof_H 	H 	0.8591	0.7603	0.3409	0.093
Mof_C 	C 	0.848	0.7084	0.3954	0.096
Mof_H 	H 	0.8235	0.7384	0.3924	-0.024
Mof_N 	N 	0.0785	0.4887	0.305	-0.276
Mof_C 	C 	0.0622	0.5376	0.2698	0.075
Mof_H 	H 	0.0733	0.534	0.2445	-0.007
Mof_C 	C 	0.0307	0.5921	0.2686	-0.126
Mof_H 	H 	0.0195	0.6247	0.2429	0.078
Mof_C 	C 	0.0154	0.5983	0.3064	0.054
Mof_C 	C 	0.033	0.5511	0.3424	-0.128
Mof_H 	H 	0.024	0.5581	0.369	0.088
Mof_C 	C 	0.0629	0.495	0.3409	0.077
Mof_H 	H 	0.0731	0.4586	0.3656	-0.017
Mof_N 	N 	0.9298	0.0115	0.201	-0.283
Mof_C 	C 	0.9035	0.9869	0.2245	0.086
Mof_H 	H 	0.8806	0.0226	0.2226	-0.019
Mof_C 	C 	0.9073	0.9135	0.2514	-0.131
Mof_H 	H 	0.8876	0.8988	0.2672	0.085
Mof_C 	C 	0.9402	0.8625	0.2545	0.062
Mof_C 	C 	0.968	0.8853	0.2302	-0.126
Mof_H 	H 	0.991	0.8501	0.2316	0.073
Mof_C 	C 	0.9617	0.959	0.2042	0.074
Mof_H 	H 	0.9808	0.9741	0.1875	-0.01
Mof_C 	C 	0.9304	0.6991	0.3381	0.082
Mof_N 	N 	0.9607	0.643	0.3379	-0.133
Mof_C 	C 	0.9816	0.6591	0.3081	0.09
Mof_N 	N 	0.9756	0.7256	0.2789	-0.147
Mof_C 	C 	0.9455	0.78	0.2831	0.088
Mof_N 	N 	0.9221	0.7714	0.3106	-0.134
Mof_N 	N 	0.1699	0.4688	0.3515	-0.272
Mof_C 	C 	0.1782	0.553	0.3453	0.068
Mof_H 	H 	0.1642	0.5826	0.3199	-0.003
Mof_C 	C 	0.2068	0.6002	0.3746	-0.109
Mof_H 	H 	0.2117	0.6613	0.3699	0.078
Mof_C 	C 	0.2282	0.5545	0.4116	0.033
Mof_C 	C 	0.2193	0.4656	0.4169	-0.112
Mof_H 	H 	0.2337	0.4323	0.4409	0.081
Mof_C 	C 	0.1896	0.4265	0.387	0.063
Mof_H 	H 	0.1827	0.3666	0.3917	0.005
Mof_N 	N 	0.3782	0.445	0.6071	-0.281
Mof_C 	C 	0.3826	0.5308	0.6032	0.086
Mof_H 	H 	0.4017	0.5602	0.6247	-0.01
Mof_C 	C 	0.3609	0.5809	0.5697	-0.127
Mof_H 	H 	0.3655	0.643	0.5679	0.099
Mof_C 	C 	0.3324	0.5384	0.5387	0.065
Mof_C 	C 	0.3273	0.4486	0.5448	-0.143
Mof_H 	H 	0.3075	0.4165	0.5253	0.068
Mof_C 	C 	0.3507	0.4067	0.5787	0.094
Mof_H 	H 	0.3467	0.3448	0.582	-0.034
Mof_N 	N 	0.314	0.0038	0.4733	-0.302
Mof_C 	C 	0.2844	0.9695	0.4455	0.083
Mof_H 	H 	0.2675	0.0082	0.426	-0.019
Mof_C 	C 	0.2763	0.8761	0.4429	-0.132
Mof_H 	H 	0.2534	0.8541	0.4237	0.078
Mof_C 	C 	0.3014	0.8202	0.4681	0.064
Mof_C 	C 	0.3324	0.8557	0.498	-0.127
Mof_H 	H 	0.3505	0.8182	0.5168	0.087
Mof_C 	C 	0.3366	0.9484	0.5	0.077
Mof_H 	H 	0.357	0.9727	0.5219	-0.017
Mof_C 	C 	0.2593	0.6	0.4434	0.086
Mof_N 	N 	0.2803	0.5512	0.4758	-0.147
Mof_C 	C 	0.3086	0.5901	0.5032	0.106
Mof_N 	N 	0.3174	0.6759	0.5002	-0.133
Mof_C 	C 	0.2943	0.7211	0.4683	0.1
Mof_N 	N 	0.2662	0.6863	0.4382	-0.147
Mof_N 	N 	0.4301	0.4791	0.7007	-0.271
Mof_C 	C 	0.4041	0.498	0.7242	0.07
Mof_H 	H 	0.3816	0.4608	0.7215	-0.018
Mof_C 	C 	0.4079	0.5711	0.7533	-0.111
Mof_H 	H 	0.389	0.5826	0.7708	0.077
Mof_C 	C 	0.4413	0.6259	0.755	0.042
Mof_C 	C 	0.4691	0.6043	0.7303	-0.112
Mof_H 	H 	0.492	0.6397	0.7315	0.067
Mof_C 	C 	0.4622	0.5291	0.7038	0.064
Mof_H 	H 	0.4811	0.5128	0.6871	-0.012
Mof_N 	N 	0.3559	0.8299	0.9284	-0.273
Mof_C 	C 	0.3876	0.8824	0.9303	0.051
Mof_H 	H 	0.3923	0.9303	0.9506	-0.01
Mof_C 	C 	0.4145	0.8662	0.9015	-0.09
Mof_H 	H 	0.4381	0.8998	0.9045	0.075
Mof_C 	C 	0.4054	0.8003	0.869	0.044
Mof_C 	C 	0.3695	0.7575	0.8637	-0.089
Mof_H 	H 	0.3611	0.7179	0.8398	0.074
Mof_C 	C 	0.3442	0.7742	0.8954	0.05
Mof_H 	H 	0.3195	0.7448	0.8922	-0.005
Mof_N 	N 	0.5788	0.9974	0.8048	-0.276
Mof_C 	C 	0.5655	0.9871	0.8406	0.075
Mof_H 	H 	0.5801	0.0127	0.8669	-0.019
Mof_C 	C 	0.5293	0.939	0.8429	-0.111
Mof_H 	H 	0.5173	0.9417	0.8676	0.082
Mof_C 	C 	0.5137	0.8877	0.8061	0.039
Mof_C 	C 	0.5296	0.8947	0.7695	-0.109
Mof_H 	H 	0.5189	0.8604	0.7442	0.071
Mof_C 	C 	0.5624	0.9533	0.7689	0.057
Mof_H 	H 	0.5722	0.9602	0.7428	-0.004
Mof_C 	C 	0.4468	0.7056	0.7837	0.097
Mof_N 	N 	0.4239	0.7152	0.8119	-0.143
Mof_C 	C 	0.4309	0.7849	0.8371	0.118
Mof_N 	N 	0.4594	0.8441	0.8382	-0.137
Mof_C 	C 	0.4809	0.8294	0.807	0.089
Mof_N 	N 	0.4748	0.763	0.778	-0.151
Mof_N 	N 	0.3117	0.9862	0.9691	-0.271
Mof_C 	C 	0.3352	0.0394	0.9972	0.06
Mof_H 	H 	0.3563	0.0145	0.0181	-0.014
Mof_C 	C 	0.3293	0.1289	0.9965	-0.118
Mof_H 	H 	0.3459	0.1646	0.0178	0.083
Mof_C 	C 	0.3007	0.1692	0.9666	0.054
Mof_C 	C 	0.2772	0.1133	0.9352	-0.122
Mof_H 	H 	0.2583	0.1367	0.9113	0.079
Mof_C 	C 	0.2832	0.022	0.941	0.074
Mof_H 	H 	0.265	0.9833	0.9231	-0.007
Mof_N 	N 	0.1693	0.5183	0.8509	-0.275
Mof_C 	C 	0.1902	0.5627	0.8855	0.057
Mof_H 	H 	0.1846	0.6237	0.8894	0.003
Mof_C 	C 	0.22	0.5206	0.9159	-0.113
Mof_H 	H 	0.2341	0.553	0.9404	0.081
Mof_C 	C 	0.2292	0.4331	0.9106	0.045
Mof_C 	C 	0.2077	0.3886	0.8749	-0.115
Mof_H 	H 	0.2128	0.3276	0.8702	0.085
Mof_C 	C 	0.1786	0.4341	0.8457	0.071
Mof_H 	H 	0.1647	0.4031	0.8208	-0.004
Mof_N 	N 	0.3776	0.5429	0.1087	-0.269
Mof_C 	C 	0.3839	0.455	0.1028	0.065
Mof_H 	H 	0.4053	0.4261	0.1217	-0.002
Mof_C 	C 	0.3601	0.4063	0.07	-0.117
Mof_H 	H 	0.3632	0.3436	0.0685	0.092
Mof_C 	C 	0.3324	0.4483	0.0402	0.062
Mof_C 	C 	0.3251	0.5373	0.0443	-0.117
Mof_H 	H 	0.3052	0.5671	0.0237	0.068
Mof_C 	C 	0.3484	0.5833	0.0807	0.057
Mof_H 	H 	0.343	0.6442	0.0852	-0.011
Mof_C 	C 	0.2947	0.2659	0.967	0.097
Mof_N 	N 	0.2652	0.301	0.9371	-0.141
Mof_C 	C 	0.2599	0.3894	0.9426	0.081
Mof_N 	N 	0.2793	0.4404	0.9751	-0.145
Mof_C 	C 	0.3091	0.3956	0.0007	0.099
Mof_N 	N 	0.3187	0.3111	0.9984	-0.136
Mof_Zn	Zn	0.82968	0.6374	0.48082	0.633
Mof_I 	I 	0.87653	0.6538	0.55493	-0.5
Mof_I 	I 	0.77023	0.7397	0.46135	0.373
Mof_I 	I 	0.1133	0.2555	0.3504	-0.262
Mof_I 	I 	0.1427	0.408	0.2409	0.022
Mof_I 	I 	0.9781	0.1326	0.12023	-0.361
Mof_I 	I 	0.88396	0.2329	0.1872	-0.023
Mof_I 	I 	0.47696	0.3466	0.6162	-0.252
Mof_I 	I 	0.38536	0.2534	0.6905	-0.145
Mof_I 	I 	0.3715	0.8265	0.0526	-0.464
Mof_I 	I 	0.2636	0.7622	0.9524	0.127
Mof_I 	I 	0.1087	0.7282	0.8391	-0.233
Mof_I 	I 	0.1457	0.5685	0.7322	-0.128
Mof_Zn	Zn	0.8187	0.639	0.4706	0.639
Mof_I 	I 	0.8607	0.667	0.5474	0.083
Mof_I 	I 	0.7561	0.7194	0.441	-0.782
Mof_I 	I 	0.11077	0.2613	0.338	-0.064
Mof_I 	I 	0.14673	0.4222	0.231	-0.386
Mof_I 	I 	0.9701	0.1526	0.1272	0.014
Mof_I 	I 	0.8703	0.2203	0.1921	-0.32
Mof_I 	I 	0.4775	0.3509	0.6276	-0.074
Mof_I 	I 	0.3781	0.2612	0.69	-0.191
Mof_I 	I 	0.3557	0.8188	0.0442	0.067
Mof_I 	I 	0.2514	0.7717	0.9342	-0.476
Mof_I 	I 	0.117	0.7245	0.8367	-0.105
Mof_I 	I 	0.1447	0.5474	0.7304	-0.201
_end
