# CIF file generated by openbabel 3.1.0, see https://openbabel.org
data_I
_chemical_name_common 'cg200332y_si_002_clean'
_cell_length_a 8.477
_cell_length_b 8.795
_cell_length_c 8.929
_cell_angle_alpha 92.248
_cell_angle_beta 95.825
_cell_angle_gamma 98.076
_space_group_name_H-M_alt 'P 1'
_space_group_name_Hall 'P 1'
loop_
    _symmetry_equiv_pos_as_xyz
    x,y,z
loop_
    _atom_site_label
    _atom_site_type_symbol
    _atom_site_fract_x
    _atom_site_fract_y
    _atom_site_fract_z
    _atom_site_occupancy
    Ga1      Ga       0.01132    0.48296    0.25211    1.000
    Ga2      Ga       0.98868    0.51704    0.74789    1.000
    P1       P        0.23569    0.56332    0.53090    1.000
    P2       P        0.99446    0.73159    0.01901    1.000
    P3       P        0.76431    0.43668    0.46910    1.000
    P4       P        0.00554    0.26841    0.98099    1.000
    H1       H        0.00000    0.00000    0.00000    1.000
    H2       H        0.50000    0.50000    0.50000    1.000
    O1       O        0.41811    0.57650    0.56685    1.000
    O2       O        0.17730    0.71519    0.52304    1.000
    O3       O        0.08270    0.63926    0.13644    1.000
    O4       O        0.82270    0.28481    0.47696    1.000
    O5       O        0.18252    0.30270    0.98361    1.000
    O6       O        0.16074    0.47087    0.65759    1.000
    O7       O        0.93693    0.09956    0.93595    1.000
    O8       O        0.81748    0.69730    0.01639    1.000
    O9       O        0.94995    0.30463    0.13687    1.000
    O10      O        0.81094    0.53706    0.61908    1.000
    O11      O        0.91730    0.36074    0.86356    1.000
    O12      O        0.06307    0.90044    0.06405    1.000
    O13      O        0.05005    0.69537    0.86313    1.000
    O14      O        0.58189    0.42350    0.43315    1.000
    O15      O        0.18906    0.46294    0.38092    1.000
    O16      O        0.83926    0.52913    0.34241    1.000
