data_functionalizedCrystal
_audit_creation_method	'EQeq! by Chris Wilmer'
_symmetry_space_group_name_H-M	'P1'
_symmetry_Int_Tables_number	1
_symmetry_cell_setting	triclinic
loop_
_symmetry_equiv_pos_as_xyz
  x,y,z
_cell_length_a	11.665
_cell_length_b	11.924
_cell_length_c	13.223
_cell_angle_alpha	104.585
_cell_angle_beta	108.268
_cell_angle_gamma	111.132
loop_
_atom_site_label
_atom_site_type_symbol
_atom_site_fract_x
_atom_site_fract_y
_atom_site_fract_z
_atom_site_charge
Mof_La	La	0.74998	0.08746	0.92504	2.235
Mof_La	La	0.25888	0.59055	0.42086	2.306
Mof_O 	O 	0.0943	0.5019	0.2004	-0.375
Mof_O 	O 	0.9133	0.3369	0.0397	-0.355
Mof_O 	O 	0.09	0.3368	0.3065	-0.373
Mof_O 	O 	0.8976	0.1746	0.1495	-0.36
Mof_O 	O 	0.6223	0.3068	0.6962	-0.351
Mof_O 	O 	0.647	0.2205	0.8294	-0.347
Mof_O 	O 	0.8254	0.1607	0.7746	-0.363
Mof_O 	O 	0.7813	0.225	0.6295	-0.369
Mof_O 	O 	0.4868	0.9463	0.7764	-0.364
Mof_O 	O 	0.3223	0.7749	0.6092	-0.392
Mof_O 	O 	0.5188	0.7602	0.5499	-0.376
Mof_O 	O 	0.6746	0.8884	0.7362	-0.365
Mof_O 	O 	0.0038	0.1369	0.9722	-0.354
Mof_O 	O 	0.1714	0.0852	0.0332	-0.345
Mof_O 	O 	0.6113	0.158	0.0199	-0.355
Mof_O 	O 	0.4017	0.0797	0.0137	-0.339
Mof_O 	O 	0.397	0.4785	0.3605	-0.36
Mof_O 	O 	0.5993	0.4803	0.4297	-0.343
Mof_O 	O 	0.0187	0.5594	0.396	-0.375
Mof_O 	O 	0.8468	0.5066	0.4468	-0.334
Mof_C 	C 	0.0011	0.3845	0.1428	0.263
Mof_C 	C 	0.995	0.2907	0.2043	0.267
Mof_C 	C 	0.6706	0.2491	0.7506	0.259
Mof_C 	C 	0.7671	0.208	0.7148	0.271
Mof_C 	C 	0.4455	0.8537	0.6813	0.269
Mof_C 	C 	0.5562	0.8326	0.6537	0.255
Mof_C 	C 	0.0509	0.0637	0.0012	0.271
Mof_C 	C 	0.5027	0.0684	0.0093	0.267
Mof_C 	C 	0.4991	0.4884	0.4398	0.264
Mof_C 	C 	0.962	0.5199	0.456	0.269
Mof_La	La	0.25002	0.91254	0.07496	2.234
Mof_La	La	0.74112	0.40945	0.57914	2.305
Mof_O 	O 	0.9057	0.4981	0.7996	-0.375
Mof_O 	O 	0.0867	0.6631	0.9603	-0.355
Mof_O 	O 	0.91	0.6632	0.6935	-0.373
Mof_O 	O 	0.1024	0.8254	0.8505	-0.36
Mof_O 	O 	0.3777	0.6932	0.3038	-0.351
Mof_O 	O 	0.353	0.7795	0.1706	-0.347
Mof_O 	O 	0.1746	0.8393	0.2254	-0.363
Mof_O 	O 	0.2187	0.775	0.3705	-0.369
Mof_O 	O 	0.5132	0.0537	0.2236	-0.364
Mof_O 	O 	0.6777	0.2251	0.3908	-0.392
Mof_O 	O 	0.4812	0.2398	0.4501	-0.376
Mof_O 	O 	0.3254	0.1116	0.2638	-0.365
Mof_O 	O 	0.9962	0.8631	0.0278	-0.354
Mof_O 	O 	0.8286	0.9148	0.9668	-0.345
Mof_O 	O 	0.3887	0.842	0.9801	-0.355
Mof_O 	O 	0.5983	0.9203	0.9863	-0.339
Mof_O 	O 	0.603	0.5215	0.6395	-0.36
Mof_O 	O 	0.4007	0.5197	0.5703	-0.343
Mof_O 	O 	0.9813	0.4406	0.604	-0.375
Mof_O 	O 	0.1532	0.4934	0.5532	-0.334
Mof_C 	C 	0.9989	0.6155	0.8572	0.263
Mof_C 	C 	0.005	0.7093	0.7957	0.267
Mof_C 	C 	0.3294	0.7509	0.2494	0.259
Mof_C 	C 	0.2329	0.792	0.2852	0.271
Mof_C 	C 	0.5545	0.1463	0.3187	0.269
Mof_C 	C 	0.4438	0.1674	0.3463	0.255
Mof_C 	C 	0.9491	0.9363	0.9988	0.271
Mof_C 	C 	0.4973	0.9316	0.9907	0.267
Mof_C 	C 	0.5009	0.5116	0.5602	0.264
Mof_C 	C 	0.038	0.4801	0.544	0.269
_end
