data_functionalizedCrystal
_audit_creation_method	'EQeq! by Chris Wilmer'
_symmetry_space_group_name_H-M	'P1'
_symmetry_Int_Tables_number	1
_symmetry_cell_setting	triclinic
loop_
_symmetry_equiv_pos_as_xyz
  x,y,z
_cell_length_a	18.7077
_cell_length_b	21.5264
_cell_length_c	24.8114
_cell_angle_alpha	90
_cell_angle_beta	90
_cell_angle_gamma	90
loop_
_atom_site_label
_atom_site_type_symbol
_atom_site_fract_x
_atom_site_fract_y
_atom_site_fract_z
_atom_site_charge
Mof_Zn	Zn	0.76128	0.85589	0.96442	1.206
Mof_Zn	Zn	0.73872	0.35589	0.03558	1.206
Mof_Zn	Zn	0.23872	0.14411	0.46442	1.206
Mof_Zn	Zn	0.26128	0.64411	0.53558	1.206
Mof_Zn	Zn	0.23872	0.14411	0.03558	1.206
Mof_Zn	Zn	0.26128	0.64411	0.96442	1.206
Mof_Zn	Zn	0.76128	0.85589	0.53558	1.206
Mof_Zn	Zn	0.73872	0.35589	0.46442	1.206
Mof_Zn	Zn	0.27181	0.84398	0.25	1.2
Mof_Zn	Zn	0.77061	0.02945	0.25	1.201
Mof_Zn	Zn	0.22819	0.34398	0.75	1.2
Mof_Zn	Zn	0.72939	0.52945	0.75	1.201
Mof_Zn	Zn	0.72819	0.15602	0.75	1.2
Mof_Zn	Zn	0.22939	0.97055	0.75	1.201
Mof_Zn	Zn	0.77181	0.65602	0.25	1.2
Mof_Zn	Zn	0.27061	0.47055	0.25	1.201
Mof_H 	H 	0.1554	0.8097	0.0225	-0.006
Mof_H 	H 	0.1072	0.7689	0.0602	0.003
Mof_H 	H 	0.0742	0.0088	0.0446	0.226
Mof_H 	H 	0.9115	0.936	0.1677	0.007
Mof_H 	H 	0.9197	0.8634	0.1672	0.002
Mof_H 	H 	0.2786	0.7632	0.0595	0.037
Mof_H 	H 	0.3402	0.7719	0.1457	0.006
Mof_H 	H 	0.8876	0.8769	0.0368	-0.014
Mof_H 	H 	0.7647	0.9082	0.1627	0.032
Mof_H 	H 	0.6889	0.8892	0.0848	0.023
Mof_H 	H 	0.3758	0.0802	0.4166	-0.007
Mof_H 	H 	0.2557	0.9753	0.3239	0.039
Mof_H 	H 	0.1787	0.0389	0.3807	0.019
Mof_H 	H 	0.3989	0.9549	0.324	0.017
Mof_H 	H 	0.4125	0.0224	0.3023	0.009
Mof_H 	H 	0.8265	0.1327	0.3394	0.01
Mof_H 	H 	0.6205	0.1337	0.4474	0.018
Mof_H 	H 	0.5806	0.1578	0.3957	0.02
Mof_H 	H 	0.5548	0.6797	0.8208	0.082
Mof_H 	H 	0.957	0.7944	0.1374	0.326
Mof_H 	H 	0.9938	0.764	0.0871	0.316
Mof_H 	H 	0.0372	0.7737	0.1405	0.324
Mof_H 	H 	0.915	0.0126	0.1213	0.32
Mof_H 	H 	0.984	0.0536	0.1173	0.328
Mof_H 	H 	0.9392	0.0392	0.0654	0.309
Mof_H 	H 	0.1989	0.891	0.0134	0.346
Mof_H 	H 	0.1625	0.9455	0.9818	0.319
Mof_H 	H 	0.2035	0.959	0.0356	0.332
Mof_H 	H 	0.4099	0.8952	0.377	0.265
Mof_H 	H 	0.4803	0.8602	0.3928	0.266
Mof_H 	H 	0.4279	0.8834	0.4379	0.261
Mof_H 	H 	0.4499	0.0997	0.312	0.287
Mof_H 	H 	0.4779	0.1481	0.3542	0.292
Mof_H 	H 	0.5305	0.1196	0.3118	0.289
Mof_H 	H 	0.6492	0.9818	0.4999	0.271
Mof_H 	H 	0.6871	0.0275	0.4599	0.268
Mof_H 	H 	0.6371	0.0535	0.5052	0.268
Mof_H 	H 	0.638	0.047	0.3291	0.008
Mof_H 	H 	0.5022	0.7721	0.9814	0.02
Mof_H 	H 	0.64	0.7393	0.8666	0.021
Mof_H 	H 	0.443	0.67	0.8549	0.015
Mof_H 	H 	0.731	0.173	0.408	0.063
Mof_H 	H 	0.153	0.839	0.1627	-0.012
Mof_H 	H 	0.3446	0.3097	0.9775	-0.006
Mof_H 	H 	0.3928	0.2689	0.9398	0.003
Mof_H 	H 	0.4258	0.5088	0.9554	0.229
Mof_H 	H 	0.5885	0.436	0.8323	0.008
Mof_H 	H 	0.5803	0.3634	0.8328	0.003
Mof_H 	H 	0.2214	0.2632	0.9405	0.037
Mof_H 	H 	0.1598	0.2719	0.8543	0.006
Mof_H 	H 	0.6124	0.3769	0.9632	-0.014
Mof_H 	H 	0.7353	0.4082	0.8373	0.032
Mof_H 	H 	0.8111	0.3892	0.9152	0.023
Mof_H 	H 	0.1242	0.5802	0.5834	-0.007
Mof_H 	H 	0.2443	0.4753	0.6761	0.037
Mof_H 	H 	0.3213	0.5389	0.6193	0.02
Mof_H 	H 	0.1011	0.4549	0.676	0.017
Mof_H 	H 	0.0875	0.5224	0.6977	0.01
Mof_H 	H 	0.6735	0.6327	0.6606	0.01
Mof_H 	H 	0.8795	0.6337	0.5526	0.018
Mof_H 	H 	0.9194	0.6578	0.6043	0.02
Mof_H 	H 	0.9452	0.1797	0.1792	0.081
Mof_H 	H 	0.543	0.2944	0.8626	0.327
Mof_H 	H 	0.5062	0.264	0.9129	0.318
Mof_H 	H 	0.4628	0.2737	0.8595	0.325
Mof_H 	H 	0.585	0.5126	0.8787	0.32
Mof_H 	H 	0.516	0.5536	0.8827	0.328
Mof_H 	H 	0.5608	0.5392	0.9346	0.308
Mof_H 	H 	0.3011	0.391	0.9866	0.346
Mof_H 	H 	0.3375	0.4455	0.0182	0.32
Mof_H 	H 	0.2965	0.459	0.9644	0.332
Mof_H 	H 	0.0901	0.3952	0.623	0.264
Mof_H 	H 	0.0197	0.3602	0.6072	0.265
Mof_H 	H 	0.0721	0.3834	0.5621	0.26
Mof_H 	H 	0.0501	0.5997	0.688	0.285
Mof_H 	H 	0.0221	0.6481	0.6458	0.291
Mof_H 	H 	0.9695	0.6196	0.6882	0.287
Mof_H 	H 	0.8508	0.4818	0.5001	0.272
Mof_H 	H 	0.8129	0.5275	0.5401	0.268
Mof_H 	H 	0.8629	0.5535	0.4948	0.269
Mof_H 	H 	0.862	0.547	0.6709	0.008
Mof_H 	H 	0.9978	0.2721	0.0186	0.02
Mof_H 	H 	0.86	0.2393	0.1334	0.022
Mof_H 	H 	0.057	0.17	0.1451	0.016
Mof_H 	H 	0.769	0.673	0.592	0.063
Mof_H 	H 	0.347	0.339	0.8373	-0.012
Mof_H 	H 	0.8446	0.1903	0.5225	-0.007
Mof_H 	H 	0.8928	0.2311	0.5602	0.003
Mof_H 	H 	0.9258	0.9912	0.5446	0.227
Mof_H 	H 	0.0885	0.064	0.6677	0.007
Mof_H 	H 	0.0803	0.1366	0.6672	0.002
Mof_H 	H 	0.7214	0.2368	0.5595	0.037
Mof_H 	H 	0.6598	0.2281	0.6457	0.006
Mof_H 	H 	0.1124	0.1231	0.5368	-0.014
Mof_H 	H 	0.2353	0.0918	0.6627	0.032
Mof_H 	H 	0.3111	0.1108	0.5848	0.023
Mof_H 	H 	0.6242	0.9198	0.9166	-0.007
Mof_H 	H 	0.7443	0.0247	0.8239	0.039
Mof_H 	H 	0.8213	0.9611	0.8807	0.019
Mof_H 	H 	0.6011	0.0451	0.824	0.016
Mof_H 	H 	0.5875	0.9776	0.8023	0.008
Mof_H 	H 	0.1735	0.8673	0.8394	0.011
Mof_H 	H 	0.3795	0.8663	0.9474	0.018
Mof_H 	H 	0.4194	0.8422	0.8957	0.02
Mof_H 	H 	0.4452	0.3203	0.3208	0.082
Mof_H 	H 	0.043	0.2056	0.6374	0.325
Mof_H 	H 	0.0062	0.236	0.5871	0.315
Mof_H 	H 	0.9628	0.2263	0.6405	0.323
Mof_H 	H 	0.085	0.9874	0.6213	0.321
Mof_H 	H 	0.016	0.9464	0.6173	0.328
Mof_H 	H 	0.0608	0.9608	0.5654	0.309
Mof_H 	H 	0.8011	0.109	0.5134	0.346
Mof_H 	H 	0.8375	0.0545	0.4818	0.32
Mof_H 	H 	0.7965	0.041	0.5356	0.333
Mof_H 	H 	0.5901	0.1048	0.877	0.265
Mof_H 	H 	0.5197	0.1398	0.8928	0.266
Mof_H 	H 	0.5721	0.1166	0.9379	0.261
Mof_H 	H 	0.5501	0.9003	0.812	0.287
Mof_H 	H 	0.5221	0.8519	0.8542	0.293
Mof_H 	H 	0.4695	0.8804	0.8118	0.289
Mof_H 	H 	0.3508	0.0182	0.9999	0.273
Mof_H 	H 	0.3129	0.9725	0.9599	0.27
Mof_H 	H 	0.3629	0.9465	0.0052	0.27
Mof_H 	H 	0.362	0.953	0.8291	0.008
Mof_H 	H 	0.4978	0.2279	0.4814	0.02
Mof_H 	H 	0.36	0.2607	0.3666	0.021
Mof_H 	H 	0.557	0.33	0.3549	0.015
Mof_H 	H 	0.269	0.827	0.908	0.063
Mof_H 	H 	0.847	0.161	0.6627	-0.012
Mof_H 	H 	0.6554	0.6903	0.4775	-0.007
Mof_H 	H 	0.6072	0.7311	0.4398	0.002
Mof_H 	H 	0.5742	0.4912	0.4554	0.229
Mof_H 	H 	0.4115	0.564	0.3323	0.008
Mof_H 	H 	0.4197	0.6366	0.3328	0.003
Mof_H 	H 	0.7786	0.7368	0.4405	0.037
Mof_H 	H 	0.8402	0.7281	0.3543	0.006
Mof_H 	H 	0.3876	0.6231	0.4632	-0.014
Mof_H 	H 	0.2647	0.5918	0.3373	0.032
Mof_H 	H 	0.1889	0.6108	0.4152	0.023
Mof_H 	H 	0.8758	0.4198	0.0834	-0.007
Mof_H 	H 	0.7557	0.5247	0.1761	0.037
Mof_H 	H 	0.6787	0.4611	0.1193	0.02
Mof_H 	H 	0.8989	0.5451	0.176	0.017
Mof_H 	H 	0.9125	0.4776	0.1977	0.01
Mof_H 	H 	0.3265	0.3673	0.1606	0.01
Mof_H 	H 	0.1205	0.3663	0.0526	0.018
Mof_H 	H 	0.0806	0.3422	0.1043	0.02
Mof_H 	H 	0.0548	0.8203	0.6792	0.081
Mof_H 	H 	0.457	0.7056	0.3626	0.327
Mof_H 	H 	0.4938	0.736	0.4129	0.318
Mof_H 	H 	0.5372	0.7263	0.3595	0.325
Mof_H 	H 	0.415	0.4874	0.3787	0.32
Mof_H 	H 	0.484	0.4464	0.3827	0.328
Mof_H 	H 	0.4392	0.4608	0.4346	0.309
Mof_H 	H 	0.6989	0.609	0.4866	0.347
Mof_H 	H 	0.6625	0.5545	0.5182	0.32
Mof_H 	H 	0.7035	0.541	0.4644	0.333
Mof_H 	H 	0.9099	0.6048	0.123	0.264
Mof_H 	H 	0.9803	0.6398	0.1072	0.265
Mof_H 	H 	0.9279	0.6166	0.0621	0.26
Mof_H 	H 	0.9499	0.4003	0.188	0.285
Mof_H 	H 	0.9779	0.3519	0.1458	0.291
Mof_H 	H 	0.0305	0.3804	0.1882	0.287
Mof_H 	H 	0.1492	0.5182	0.0001	0.272
Mof_H 	H 	0.1871	0.4725	0.0401	0.269
Mof_H 	H 	0.1371	0.4465	0.9948	0.269
Mof_H 	H 	0.138	0.453	0.1709	0.008
Mof_H 	H 	0.0022	0.7279	0.5186	0.02
Mof_H 	H 	0.14	0.7607	0.6334	0.022
Mof_H 	H 	0.943	0.83	0.6451	0.016
Mof_H 	H 	0.231	0.327	0.092	0.063
Mof_H 	H 	0.653	0.661	0.3373	-0.012
Mof_H 	H 	0.8446	0.1903	0.9775	-0.006
Mof_H 	H 	0.8928	0.2311	0.9398	0.003
Mof_H 	H 	0.9258	0.9912	0.9554	0.226
Mof_H 	H 	0.0885	0.064	0.8323	0.007
Mof_H 	H 	0.0803	0.1366	0.8328	0.002
Mof_H 	H 	0.7214	0.2368	0.9405	0.037
Mof_H 	H 	0.6598	0.2281	0.8543	0.006
Mof_H 	H 	0.1124	0.1231	0.9632	-0.014
Mof_H 	H 	0.2353	0.0918	0.8373	0.032
Mof_H 	H 	0.3111	0.1108	0.9152	0.023
Mof_H 	H 	0.6242	0.9198	0.5834	-0.007
Mof_H 	H 	0.7443	0.0247	0.6761	0.039
Mof_H 	H 	0.8213	0.9611	0.6193	0.019
Mof_H 	H 	0.6011	0.0451	0.676	0.017
Mof_H 	H 	0.5875	0.9776	0.6977	0.009
Mof_H 	H 	0.1735	0.8673	0.6606	0.01
Mof_H 	H 	0.3795	0.8663	0.5526	0.018
Mof_H 	H 	0.4194	0.8422	0.6043	0.02
Mof_H 	H 	0.4452	0.3203	0.1792	0.082
Mof_H 	H 	0.043	0.2056	0.8626	0.326
Mof_H 	H 	0.0062	0.236	0.9129	0.316
Mof_H 	H 	0.9628	0.2263	0.8595	0.324
Mof_H 	H 	0.085	0.9874	0.8787	0.32
Mof_H 	H 	0.016	0.9464	0.8827	0.328
Mof_H 	H 	0.0608	0.9608	0.9346	0.309
Mof_H 	H 	0.8011	0.109	0.9866	0.346
Mof_H 	H 	0.8375	0.0545	0.0182	0.319
Mof_H 	H 	0.7965	0.041	0.9644	0.332
Mof_H 	H 	0.5901	0.1048	0.623	0.265
Mof_H 	H 	0.5197	0.1398	0.6072	0.266
Mof_H 	H 	0.5721	0.1166	0.5621	0.261
Mof_H 	H 	0.5501	0.9003	0.688	0.287
Mof_H 	H 	0.5221	0.8519	0.6458	0.292
Mof_H 	H 	0.4695	0.8804	0.6882	0.289
Mof_H 	H 	0.3508	0.0182	0.5001	0.271
Mof_H 	H 	0.3129	0.9725	0.5401	0.268
Mof_H 	H 	0.3629	0.9465	0.4948	0.268
Mof_H 	H 	0.362	0.953	0.6709	0.008
Mof_H 	H 	0.4978	0.2279	0.0186	0.02
Mof_H 	H 	0.36	0.2607	0.1334	0.021
Mof_H 	H 	0.557	0.33	0.1451	0.015
Mof_H 	H 	0.269	0.827	0.592	0.063
Mof_H 	H 	0.847	0.161	0.8373	-0.012
Mof_H 	H 	0.6554	0.6903	0.0225	-0.006
Mof_H 	H 	0.6072	0.7311	0.0602	0.003
Mof_H 	H 	0.5742	0.4912	0.0446	0.229
Mof_H 	H 	0.4115	0.564	0.1677	0.008
Mof_H 	H 	0.4197	0.6366	0.1672	0.003
Mof_H 	H 	0.7786	0.7368	0.0595	0.037
Mof_H 	H 	0.8402	0.7281	0.1457	0.006
Mof_H 	H 	0.3876	0.6231	0.0368	-0.014
Mof_H 	H 	0.2647	0.5918	0.1627	0.032
Mof_H 	H 	0.1889	0.6108	0.0848	0.023
Mof_H 	H 	0.8758	0.4198	0.4166	-0.007
Mof_H 	H 	0.7557	0.5247	0.3239	0.037
Mof_H 	H 	0.6787	0.4611	0.3807	0.02
Mof_H 	H 	0.8989	0.5451	0.324	0.017
Mof_H 	H 	0.9125	0.4776	0.3023	0.01
Mof_H 	H 	0.3265	0.3673	0.3394	0.01
Mof_H 	H 	0.1205	0.3663	0.4474	0.018
Mof_H 	H 	0.0806	0.3422	0.3957	0.02
Mof_H 	H 	0.0548	0.8203	0.8208	0.081
Mof_H 	H 	0.457	0.7056	0.1374	0.327
Mof_H 	H 	0.4938	0.736	0.0871	0.318
Mof_H 	H 	0.5372	0.7263	0.1405	0.325
Mof_H 	H 	0.415	0.4874	0.1213	0.32
Mof_H 	H 	0.484	0.4464	0.1173	0.328
Mof_H 	H 	0.4392	0.4608	0.0654	0.308
Mof_H 	H 	0.6989	0.609	0.0134	0.346
Mof_H 	H 	0.6625	0.5545	0.9818	0.32
Mof_H 	H 	0.7035	0.541	0.0356	0.332
Mof_H 	H 	0.9099	0.6048	0.377	0.264
Mof_H 	H 	0.9803	0.6398	0.3928	0.265
Mof_H 	H 	0.9279	0.6166	0.4379	0.26
Mof_H 	H 	0.9499	0.4003	0.312	0.285
Mof_H 	H 	0.9779	0.3519	0.3542	0.291
Mof_H 	H 	0.0305	0.3804	0.3118	0.287
Mof_H 	H 	0.1492	0.5182	0.4999	0.272
Mof_H 	H 	0.1871	0.4725	0.4599	0.268
Mof_H 	H 	0.1371	0.4465	0.5052	0.269
Mof_H 	H 	0.138	0.453	0.3291	0.008
Mof_H 	H 	0.0022	0.7279	0.9814	0.02
Mof_H 	H 	0.14	0.7607	0.8666	0.022
Mof_H 	H 	0.943	0.83	0.8549	0.016
Mof_H 	H 	0.231	0.327	0.408	0.063
Mof_H 	H 	0.653	0.661	0.1627	-0.012
Mof_H 	H 	0.1554	0.8097	0.4775	-0.007
Mof_H 	H 	0.1072	0.7689	0.4398	0.003
Mof_H 	H 	0.0742	0.0088	0.4554	0.227
Mof_H 	H 	0.9115	0.936	0.3323	0.007
Mof_H 	H 	0.9197	0.8634	0.3328	0.002
Mof_H 	H 	0.2786	0.7632	0.4405	0.037
Mof_H 	H 	0.3402	0.7719	0.3543	0.006
Mof_H 	H 	0.8876	0.8769	0.4632	-0.014
Mof_H 	H 	0.7647	0.9082	0.3373	0.032
Mof_H 	H 	0.6889	0.8892	0.4152	0.023
Mof_H 	H 	0.3758	0.0802	0.0834	-0.007
Mof_H 	H 	0.2557	0.9753	0.1761	0.039
Mof_H 	H 	0.1787	0.0389	0.1193	0.019
Mof_H 	H 	0.3989	0.9549	0.176	0.016
Mof_H 	H 	0.4125	0.0224	0.1977	0.008
Mof_H 	H 	0.8265	0.1327	0.1606	0.011
Mof_H 	H 	0.6205	0.1337	0.0526	0.018
Mof_H 	H 	0.5806	0.1578	0.1043	0.02
Mof_H 	H 	0.5548	0.6797	0.6792	0.082
Mof_H 	H 	0.957	0.7944	0.3626	0.325
Mof_H 	H 	0.9938	0.764	0.4129	0.315
Mof_H 	H 	0.0372	0.7737	0.3595	0.323
Mof_H 	H 	0.915	0.0126	0.3787	0.321
Mof_H 	H 	0.984	0.0536	0.3827	0.328
Mof_H 	H 	0.9392	0.0392	0.4346	0.309
Mof_H 	H 	0.1989	0.891	0.4866	0.346
Mof_H 	H 	0.1625	0.9455	0.5182	0.32
Mof_H 	H 	0.2035	0.959	0.4644	0.333
Mof_H 	H 	0.4099	0.8952	0.123	0.265
Mof_H 	H 	0.4803	0.8602	0.1072	0.266
Mof_H 	H 	0.4279	0.8834	0.0621	0.261
Mof_H 	H 	0.4499	0.0997	0.188	0.287
Mof_H 	H 	0.4779	0.1481	0.1458	0.293
Mof_H 	H 	0.5305	0.1196	0.1882	0.289
Mof_H 	H 	0.6492	0.9818	0.0001	0.273
Mof_H 	H 	0.6871	0.0275	0.0401	0.27
Mof_H 	H 	0.6371	0.0535	0.9948	0.27
Mof_H 	H 	0.638	0.047	0.1709	0.008
Mof_H 	H 	0.5022	0.7721	0.5186	0.02
Mof_H 	H 	0.64	0.7393	0.6334	0.021
Mof_H 	H 	0.443	0.67	0.6451	0.015
Mof_H 	H 	0.731	0.173	0.092	0.063
Mof_H 	H 	0.153	0.839	0.3373	-0.012
Mof_H 	H 	0.3446	0.3097	0.5225	-0.007
Mof_H 	H 	0.3928	0.2689	0.5602	0.002
Mof_H 	H 	0.4258	0.5088	0.5446	0.229
Mof_H 	H 	0.5885	0.436	0.6677	0.008
Mof_H 	H 	0.5803	0.3634	0.6672	0.003
Mof_H 	H 	0.2214	0.2632	0.5595	0.037
Mof_H 	H 	0.1598	0.2719	0.6457	0.006
Mof_H 	H 	0.6124	0.3769	0.5368	-0.014
Mof_H 	H 	0.7353	0.4082	0.6627	0.032
Mof_H 	H 	0.8111	0.3892	0.5848	0.023
Mof_H 	H 	0.1242	0.5802	0.9166	-0.007
Mof_H 	H 	0.2443	0.4753	0.8239	0.037
Mof_H 	H 	0.3213	0.5389	0.8807	0.02
Mof_H 	H 	0.1011	0.4549	0.824	0.017
Mof_H 	H 	0.0875	0.5224	0.8023	0.01
Mof_H 	H 	0.6735	0.6327	0.8394	0.01
Mof_H 	H 	0.8795	0.6337	0.9474	0.018
Mof_H 	H 	0.9194	0.6578	0.8957	0.02
Mof_H 	H 	0.9452	0.1797	0.3208	0.081
Mof_H 	H 	0.543	0.2944	0.6374	0.327
Mof_H 	H 	0.5062	0.264	0.5871	0.318
Mof_H 	H 	0.4628	0.2737	0.6405	0.325
Mof_H 	H 	0.585	0.5126	0.6213	0.32
Mof_H 	H 	0.516	0.5536	0.6173	0.328
Mof_H 	H 	0.5608	0.5392	0.5654	0.309
Mof_H 	H 	0.3011	0.391	0.5134	0.347
Mof_H 	H 	0.3375	0.4455	0.4818	0.32
Mof_H 	H 	0.2965	0.459	0.5356	0.333
Mof_H 	H 	0.0901	0.3952	0.877	0.264
Mof_H 	H 	0.0197	0.3602	0.8928	0.265
Mof_H 	H 	0.0721	0.3834	0.9379	0.26
Mof_H 	H 	0.0501	0.5997	0.812	0.285
Mof_H 	H 	0.0221	0.6481	0.8542	0.291
Mof_H 	H 	0.9695	0.6196	0.8118	0.287
Mof_H 	H 	0.8508	0.4818	0.9999	0.272
Mof_H 	H 	0.8129	0.5275	0.9599	0.269
Mof_H 	H 	0.8629	0.5535	0.0052	0.269
Mof_H 	H 	0.862	0.547	0.8291	0.008
Mof_H 	H 	0.9978	0.2721	0.4814	0.02
Mof_H 	H 	0.86	0.2393	0.3666	0.022
Mof_H 	H 	0.057	0.17	0.3549	0.016
Mof_H 	H 	0.769	0.673	0.908	0.063
Mof_H 	H 	0.347	0.339	0.6627	-0.012
Mof_H 	H 	0.688	0.842	0.25	0.042
Mof_H 	H 	0.12	0.122	0.25	0.427
Mof_H 	H 	0.007	0.132	0.25	-0.12
Mof_H 	H 	0.187	0.033	0.25	-0.153
Mof_H 	H 	0.995	0.943	0.25	-0.021
Mof_H 	H 	0.634	0.742	0.25	0.027
Mof_H 	H 	0.506	0.927	0.25	0.056
Mof_H 	H 	0.508	0.736	0.25	0.041
Mof_H 	H 	0.812	0.342	0.75	0.042
Mof_H 	H 	0.38	0.622	0.75	0.437
Mof_H 	H 	0.493	0.632	0.75	-0.124
Mof_H 	H 	0.313	0.533	0.75	-0.159
Mof_H 	H 	0.505	0.443	0.75	-0.022
Mof_H 	H 	0.866	0.242	0.75	0.027
Mof_H 	H 	0.994	0.427	0.75	0.055
Mof_H 	H 	0.992	0.236	0.75	0.041
Mof_H 	H 	0.312	0.158	0.75	0.042
Mof_H 	H 	0.88	0.878	0.75	0.427
Mof_H 	H 	0.993	0.868	0.75	-0.12
Mof_H 	H 	0.813	0.967	0.75	-0.153
Mof_H 	H 	0.005	0.057	0.75	-0.021
Mof_H 	H 	0.366	0.258	0.75	0.027
Mof_H 	H 	0.494	0.073	0.75	0.056
Mof_H 	H 	0.492	0.264	0.75	0.041
Mof_H 	H 	0.188	0.658	0.25	0.042
Mof_H 	H 	0.62	0.378	0.25	0.437
Mof_H 	H 	0.507	0.368	0.25	-0.124
Mof_H 	H 	0.687	0.467	0.25	-0.159
Mof_H 	H 	0.495	0.557	0.25	-0.022
Mof_H 	H 	0.134	0.758	0.25	0.027
Mof_H 	H 	0.006	0.573	0.25	0.055
Mof_H 	H 	0.008	0.764	0.25	0.041
Mof_C 	C 	0.135	0.8068	0.0584	0.104
Mof_C 	C 	0.0871	0.8614	0.06795	-0.372
Mof_C 	C 	0.1061	0.9196	0.0483	0.531
Mof_C 	C 	0.0621	0.9701	0.0586	-0.6
Mof_C 	C 	0.0006	0.9642	0.0894	0.497
Mof_C 	C 	0.9815	0.9059	0.1101	-0.354
Mof_C 	C 	0.0239	0.8543	0.09829	0.442
Mof_C 	C 	0.9155	0.8999	0.1445	0.086
Mof_C 	C 	0.1898	0.8216	0.1498	0.101
Mof_C 	C 	0.2601	0.7797	0.0912	-0.021
Mof_C 	C 	0.2935	0.7845	0.139	0.016
Mof_C 	C 	0.8475	0.8824	0.0584	0.083
Mof_C 	C 	0.7802	0.8995	0.1279	-0.018
Mof_C 	C 	0.7386	0.8893	0.0847	0.004
Mof_C 	C 	0.3359	0.062	0.40095	0.075
Mof_C 	C 	0.2705	0.0043	0.3494	-0.014
Mof_C 	C 	0.2284	0.0391	0.3813	-0.005
Mof_C 	C 	0.4047	0.998	0.3346	0.047
Mof_C 	C 	0.4685	0.004	0.37146	-0.261
Mof_C 	C 	0.4876	0.9545	0.4054	0.327
Mof_C 	C 	0.5816	0.0157	0.4428	0.352
Mof_C 	C 	0.5438	0.9608	0.4402	-0.248
Mof_C 	C 	0.5631	0.0652	0.4097	-0.271
Mof_C 	C 	0.507	0.0594	0.37264	0.36
Mof_C 	C 	0.7795	0.1206	0.3455	0.029
Mof_C 	C 	0.7367	0.1442	0.3838	-0.056
Mof_C 	C 	0.6802	0.0743	0.3384	0.072
Mof_C 	C 	0.6079	0.1234	0.4105	0.045
Mof_C 	C 	0.6346	0.7989	0.9587	0.334
Mof_C 	C 	0.5796	0.75985	0.93034	-0.129
Mof_C 	C 	0.5953	0.7319	0.8816	0.041
Mof_C 	C 	0.5444	0.697	0.8542	-0.142
Mof_C 	C 	0.3887	0.7063	0.9505	0.343
Mof_C 	C 	0.4614	0.71598	0.92591	-0.13
Mof_C 	C 	0.5112	0.7525	0.9515	0.049
Mof_C 	C 	0.4778	0.6884	0.8776	0.045
Mof_C 	C 	0.0009	0.7908	0.1176	-0.968
Mof_C 	C 	0.9555	0.0229	0.0993	-0.992
Mof_C 	C 	0.1739	0.9297	0.017	-1.068
Mof_C 	C 	0.4477	0.8926	0.4031	-0.801
Mof_C 	C 	0.4898	0.1114	0.3342	-0.875
Mof_C 	C 	0.6444	0.02	0.4803	-0.841
Mof_C 	C 	0.365	0.3068	0.9416	0.104
Mof_C 	C 	0.4129	0.3614	0.93205	-0.373
Mof_C 	C 	0.3939	0.4196	0.9517	0.533
Mof_C 	C 	0.4379	0.4701	0.9414	-0.603
Mof_C 	C 	0.4994	0.4642	0.9106	0.496
Mof_C 	C 	0.5185	0.4059	0.8899	-0.353
Mof_C 	C 	0.4761	0.3543	0.90171	0.442
Mof_C 	C 	0.5845	0.3999	0.8555	0.086
Mof_C 	C 	0.3102	0.3216	0.8502	0.101
Mof_C 	C 	0.2399	0.2797	0.9088	-0.021
Mof_C 	C 	0.2065	0.2845	0.861	0.016
Mof_C 	C 	0.6525	0.3824	0.9416	0.083
Mof_C 	C 	0.7198	0.3995	0.8721	-0.018
Mof_C 	C 	0.7614	0.3893	0.9153	0.004
Mof_C 	C 	0.1641	0.562	0.59905	0.075
Mof_C 	C 	0.2295	0.5043	0.6506	-0.012
Mof_C 	C 	0.2716	0.5391	0.6187	-0.006
Mof_C 	C 	0.0953	0.498	0.6654	0.044
Mof_C 	C 	0.0315	0.504	0.62854	-0.259
Mof_C 	C 	0.0124	0.4545	0.5946	0.325
Mof_C 	C 	0.9184	0.5157	0.5572	0.351
Mof_C 	C 	0.9562	0.4608	0.5598	-0.247
Mof_C 	C 	0.9369	0.5652	0.5903	-0.27
Mof_C 	C 	0.993	0.5594	0.62736	0.358
Mof_C 	C 	0.7205	0.6206	0.6545	0.029
Mof_C 	C 	0.7633	0.6442	0.6162	-0.057
Mof_C 	C 	0.8198	0.5743	0.6616	0.072
Mof_C 	C 	0.8921	0.6234	0.5895	0.045
Mof_C 	C 	0.8654	0.2989	0.0413	0.334
Mof_C 	C 	0.9204	0.25985	0.06966	-0.128
Mof_C 	C 	0.9047	0.2319	0.1184	0.04
Mof_C 	C 	0.9556	0.197	0.1458	-0.14
Mof_C 	C 	0.1113	0.2063	0.0495	0.343
Mof_C 	C 	0.0386	0.21598	0.07409	-0.13
Mof_C 	C 	0.9888	0.2525	0.0485	0.051
Mof_C 	C 	0.0222	0.1884	0.1224	0.043
Mof_C 	C 	0.4991	0.2908	0.8824	-0.972
Mof_C 	C 	0.5445	0.5229	0.9007	-0.991
Mof_C 	C 	0.3261	0.4297	0.983	-1.069
Mof_C 	C 	0.0523	0.3926	0.5969	-0.799
Mof_C 	C 	0.0102	0.6114	0.6658	-0.87
Mof_C 	C 	0.8556	0.52	0.5197	-0.842
Mof_C 	C 	0.865	0.1932	0.5584	0.104
Mof_C 	C 	0.9129	0.1386	0.56795	-0.373
Mof_C 	C 	0.8939	0.0804	0.5483	0.532
Mof_C 	C 	0.9379	0.0299	0.5586	-0.601
Mof_C 	C 	0.9994	0.0358	0.5894	0.498
Mof_C 	C 	0.0185	0.0941	0.6101	-0.355
Mof_C 	C 	0.9761	0.1457	0.59829	0.442
Mof_C 	C 	0.0845	0.1001	0.6445	0.087
Mof_C 	C 	0.8102	0.1784	0.6498	0.101
Mof_C 	C 	0.7399	0.2203	0.5912	-0.021
Mof_C 	C 	0.7065	0.2155	0.639	0.016
Mof_C 	C 	0.1525	0.1176	0.5584	0.083
Mof_C 	C 	0.2198	0.1005	0.6279	-0.018
Mof_C 	C 	0.2614	0.1107	0.5847	0.004
Mof_C 	C 	0.6641	0.938	0.90095	0.075
Mof_C 	C 	0.7295	0.9957	0.8494	-0.015
Mof_C 	C 	0.7716	0.9609	0.8813	-0.005
Mof_C 	C 	0.5953	0.002	0.8346	0.048
Mof_C 	C 	0.5315	0.996	0.87146	-0.263
Mof_C 	C 	0.5124	0.0455	0.9054	0.328
Mof_C 	C 	0.4184	0.9843	0.9428	0.353
Mof_C 	C 	0.4562	0.0392	0.9402	-0.248
Mof_C 	C 	0.4369	0.9348	0.9097	-0.272
Mof_C 	C 	0.493	0.9406	0.87264	0.361
Mof_C 	C 	0.2205	0.8794	0.8455	0.029
Mof_C 	C 	0.2633	0.8558	0.8838	-0.056
Mof_C 	C 	0.3198	0.9257	0.8384	0.072
Mof_C 	C 	0.3921	0.8766	0.9105	0.046
Mof_C 	C 	0.3654	0.2011	0.4587	0.334
Mof_C 	C 	0.4204	0.24015	0.43034	-0.128
Mof_C 	C 	0.4047	0.2681	0.3816	0.04
Mof_C 	C 	0.4556	0.303	0.3542	-0.142
Mof_C 	C 	0.6113	0.2937	0.4505	0.343
Mof_C 	C 	0.5386	0.28402	0.42591	-0.13
Mof_C 	C 	0.4888	0.2475	0.4515	0.049
Mof_C 	C 	0.5222	0.3116	0.3776	0.045
Mof_C 	C 	0.9991	0.2092	0.6176	-0.966
Mof_C 	C 	0.0445	0.9771	0.5993	-0.993
Mof_C 	C 	0.8261	0.0703	0.517	-1.07
Mof_C 	C 	0.5523	0.1074	0.9031	-0.802
Mof_C 	C 	0.5102	0.8886	0.8342	-0.876
Mof_C 	C 	0.3556	0.98	0.9803	-0.846
Mof_C 	C 	0.635	0.6932	0.4416	0.104
Mof_C 	C 	0.5871	0.6386	0.43205	-0.374
Mof_C 	C 	0.6061	0.5804	0.4517	0.533
Mof_C 	C 	0.5621	0.5299	0.4414	-0.604
Mof_C 	C 	0.5006	0.5358	0.4106	0.497
Mof_C 	C 	0.4815	0.5941	0.3899	-0.353
Mof_C 	C 	0.5239	0.6457	0.40171	0.442
Mof_C 	C 	0.4155	0.6001	0.3555	0.086
Mof_C 	C 	0.6898	0.6784	0.3502	0.101
Mof_C 	C 	0.7601	0.7203	0.4088	-0.021
Mof_C 	C 	0.7935	0.7155	0.361	0.016
Mof_C 	C 	0.3475	0.6176	0.4416	0.083
Mof_C 	C 	0.2802	0.6005	0.3721	-0.018
Mof_C 	C 	0.2386	0.6107	0.4153	0.004
Mof_C 	C 	0.8359	0.438	0.09905	0.075
Mof_C 	C 	0.7705	0.4957	0.1506	-0.012
Mof_C 	C 	0.7284	0.4609	0.1187	-0.006
Mof_C 	C 	0.9047	0.502	0.1654	0.044
Mof_C 	C 	0.9685	0.496	0.12854	-0.259
Mof_C 	C 	0.9876	0.5455	0.0946	0.326
Mof_C 	C 	0.0816	0.4843	0.0572	0.352
Mof_C 	C 	0.0438	0.5392	0.0598	-0.247
Mof_C 	C 	0.0631	0.4348	0.0903	-0.27
Mof_C 	C 	0.007	0.4406	0.12736	0.357
Mof_C 	C 	0.2795	0.3794	0.1545	0.029
Mof_C 	C 	0.2367	0.3558	0.1162	-0.057
Mof_C 	C 	0.1802	0.4257	0.1616	0.072
Mof_C 	C 	0.1079	0.3766	0.0895	0.045
Mof_C 	C 	0.1346	0.7011	0.5413	0.334
Mof_C 	C 	0.0796	0.74015	0.56966	-0.128
Mof_C 	C 	0.0953	0.7681	0.6184	0.04
Mof_C 	C 	0.0444	0.803	0.6458	-0.14
Mof_C 	C 	0.8887	0.7937	0.5495	0.342
Mof_C 	C 	0.9614	0.78402	0.57409	-0.13
Mof_C 	C 	0.0112	0.7475	0.5485	0.05
Mof_C 	C 	0.9778	0.8116	0.6224	0.043
Mof_C 	C 	0.5009	0.7092	0.3824	-0.972
Mof_C 	C 	0.4555	0.4771	0.4007	-0.991
Mof_C 	C 	0.6739	0.5703	0.483	-1.07
Mof_C 	C 	0.9477	0.6074	0.0969	-0.799
Mof_C 	C 	0.9898	0.3886	0.1658	-0.869
Mof_C 	C 	0.1444	0.48	0.0197	-0.844
Mof_C 	C 	0.865	0.1932	0.9416	0.104
Mof_C 	C 	0.9129	0.1386	0.93205	-0.372
Mof_C 	C 	0.8939	0.0804	0.9517	0.531
Mof_C 	C 	0.9379	0.0299	0.9414	-0.6
Mof_C 	C 	0.9994	0.0358	0.9106	0.497
Mof_C 	C 	0.0185	0.0941	0.8899	-0.354
Mof_C 	C 	0.9761	0.1457	0.90171	0.442
Mof_C 	C 	0.0845	0.1001	0.8555	0.086
Mof_C 	C 	0.8102	0.1784	0.8502	0.101
Mof_C 	C 	0.7399	0.2203	0.9088	-0.021
Mof_C 	C 	0.7065	0.2155	0.861	0.016
Mof_C 	C 	0.1525	0.1176	0.9416	0.083
Mof_C 	C 	0.2198	0.1005	0.8721	-0.018
Mof_C 	C 	0.2614	0.1107	0.9153	0.004
Mof_C 	C 	0.6641	0.938	0.59905	0.075
Mof_C 	C 	0.7295	0.9957	0.6506	-0.014
Mof_C 	C 	0.7716	0.9609	0.6187	-0.005
Mof_C 	C 	0.5953	0.002	0.6654	0.047
Mof_C 	C 	0.5315	0.996	0.62854	-0.261
Mof_C 	C 	0.5124	0.0455	0.5946	0.327
Mof_C 	C 	0.4184	0.9843	0.5572	0.352
Mof_C 	C 	0.4562	0.0392	0.5598	-0.248
Mof_C 	C 	0.4369	0.9348	0.5903	-0.271
Mof_C 	C 	0.493	0.9406	0.62736	0.36
Mof_C 	C 	0.2205	0.8794	0.6545	0.029
Mof_C 	C 	0.2633	0.8558	0.6162	-0.056
Mof_C 	C 	0.3198	0.9257	0.6616	0.072
Mof_C 	C 	0.3921	0.8766	0.5895	0.045
Mof_C 	C 	0.3654	0.2011	0.0413	0.334
Mof_C 	C 	0.4204	0.24015	0.06966	-0.129
Mof_C 	C 	0.4047	0.2681	0.1184	0.041
Mof_C 	C 	0.4556	0.303	0.1458	-0.142
Mof_C 	C 	0.6113	0.2937	0.0495	0.343
Mof_C 	C 	0.5386	0.28402	0.07409	-0.13
Mof_C 	C 	0.4888	0.2475	0.0485	0.049
Mof_C 	C 	0.5222	0.3116	0.1224	0.045
Mof_C 	C 	0.9991	0.2092	0.8824	-0.968
Mof_C 	C 	0.0445	0.9771	0.9007	-0.992
Mof_C 	C 	0.8261	0.0703	0.983	-1.068
Mof_C 	C 	0.5523	0.1074	0.5969	-0.801
Mof_C 	C 	0.5102	0.8886	0.6658	-0.875
Mof_C 	C 	0.3556	0.98	0.5197	-0.841
Mof_C 	C 	0.635	0.6932	0.0584	0.104
Mof_C 	C 	0.5871	0.6386	0.06795	-0.373
Mof_C 	C 	0.6061	0.5804	0.0483	0.533
Mof_C 	C 	0.5621	0.5299	0.0586	-0.603
Mof_C 	C 	0.5006	0.5358	0.0894	0.496
Mof_C 	C 	0.4815	0.5941	0.1101	-0.353
Mof_C 	C 	0.5239	0.6457	0.09829	0.442
Mof_C 	C 	0.4155	0.6001	0.1445	0.086
Mof_C 	C 	0.6898	0.6784	0.1498	0.101
Mof_C 	C 	0.7601	0.7203	0.0912	-0.021
Mof_C 	C 	0.7935	0.7155	0.139	0.016
Mof_C 	C 	0.3475	0.6176	0.0584	0.083
Mof_C 	C 	0.2802	0.6005	0.1279	-0.018
Mof_C 	C 	0.2386	0.6107	0.0847	0.004
Mof_C 	C 	0.8359	0.438	0.40095	0.075
Mof_C 	C 	0.7705	0.4957	0.3494	-0.012
Mof_C 	C 	0.7284	0.4609	0.3813	-0.006
Mof_C 	C 	0.9047	0.502	0.3346	0.044
Mof_C 	C 	0.9685	0.496	0.37146	-0.259
Mof_C 	C 	0.9876	0.5455	0.4054	0.325
Mof_C 	C 	0.0816	0.4843	0.4428	0.351
Mof_C 	C 	0.0438	0.5392	0.4402	-0.247
Mof_C 	C 	0.0631	0.4348	0.4097	-0.27
Mof_C 	C 	0.007	0.4406	0.37264	0.358
Mof_C 	C 	0.2795	0.3794	0.3455	0.029
Mof_C 	C 	0.2367	0.3558	0.3838	-0.057
Mof_C 	C 	0.1802	0.4257	0.3384	0.072
Mof_C 	C 	0.1079	0.3766	0.4105	0.045
Mof_C 	C 	0.1346	0.7011	0.9587	0.334
Mof_C 	C 	0.0796	0.74015	0.93034	-0.128
Mof_C 	C 	0.0953	0.7681	0.8816	0.04
Mof_C 	C 	0.0444	0.803	0.8542	-0.14
Mof_C 	C 	0.8887	0.7937	0.9505	0.343
Mof_C 	C 	0.9614	0.78402	0.92591	-0.13
Mof_C 	C 	0.0112	0.7475	0.9515	0.051
Mof_C 	C 	0.9778	0.8116	0.8776	0.043
Mof_C 	C 	0.5009	0.7092	0.1176	-0.972
Mof_C 	C 	0.4555	0.4771	0.0993	-0.991
Mof_C 	C 	0.6739	0.5703	0.017	-1.069
Mof_C 	C 	0.9477	0.6074	0.4031	-0.799
Mof_C 	C 	0.9898	0.3886	0.3342	-0.87
Mof_C 	C 	0.1444	0.48	0.4803	-0.842
Mof_C 	C 	0.135	0.8068	0.4416	0.104
Mof_C 	C 	0.0871	0.8614	0.43205	-0.373
Mof_C 	C 	0.1061	0.9196	0.4517	0.532
Mof_C 	C 	0.0621	0.9701	0.4414	-0.601
Mof_C 	C 	0.0006	0.9642	0.4106	0.498
Mof_C 	C 	0.9815	0.9059	0.3899	-0.355
Mof_C 	C 	0.0239	0.8543	0.40171	0.442
Mof_C 	C 	0.9155	0.8999	0.3555	0.087
Mof_C 	C 	0.1898	0.8216	0.3502	0.101
Mof_C 	C 	0.2601	0.7797	0.4088	-0.021
Mof_C 	C 	0.2935	0.7845	0.361	0.016
Mof_C 	C 	0.8475	0.8824	0.4416	0.083
Mof_C 	C 	0.7802	0.8995	0.3721	-0.018
Mof_C 	C 	0.7386	0.8893	0.4153	0.004
Mof_C 	C 	0.3359	0.062	0.09905	0.075
Mof_C 	C 	0.2705	0.0043	0.1506	-0.015
Mof_C 	C 	0.2284	0.0391	0.1187	-0.005
Mof_C 	C 	0.4047	0.998	0.1654	0.048
Mof_C 	C 	0.4685	0.004	0.12854	-0.263
Mof_C 	C 	0.4876	0.9545	0.0946	0.328
Mof_C 	C 	0.5816	0.0157	0.0572	0.353
Mof_C 	C 	0.5438	0.9608	0.0598	-0.248
Mof_C 	C 	0.5631	0.0652	0.0903	-0.272
Mof_C 	C 	0.507	0.0594	0.12736	0.361
Mof_C 	C 	0.7795	0.1206	0.1545	0.029
Mof_C 	C 	0.7367	0.1442	0.1162	-0.056
Mof_C 	C 	0.6802	0.0743	0.1616	0.072
Mof_C 	C 	0.6079	0.1234	0.0895	0.046
Mof_C 	C 	0.6346	0.7989	0.5413	0.334
Mof_C 	C 	0.5796	0.75985	0.56966	-0.128
Mof_C 	C 	0.5953	0.7319	0.6184	0.04
Mof_C 	C 	0.5444	0.697	0.6458	-0.142
Mof_C 	C 	0.3887	0.7063	0.5495	0.343
Mof_C 	C 	0.4614	0.71598	0.57409	-0.13
Mof_C 	C 	0.5112	0.7525	0.5485	0.049
Mof_C 	C 	0.4778	0.6884	0.6224	0.045
Mof_C 	C 	0.0009	0.7908	0.3824	-0.966
Mof_C 	C 	0.9555	0.0229	0.4007	-0.993
Mof_C 	C 	0.1739	0.9297	0.483	-1.07
Mof_C 	C 	0.4477	0.8926	0.0969	-0.802
Mof_C 	C 	0.4898	0.1114	0.1658	-0.876
Mof_C 	C 	0.6444	0.02	0.0197	-0.846
Mof_C 	C 	0.365	0.3068	0.5584	0.104
Mof_C 	C 	0.4129	0.3614	0.56795	-0.374
Mof_C 	C 	0.3939	0.4196	0.5483	0.533
Mof_C 	C 	0.4379	0.4701	0.5586	-0.604
Mof_C 	C 	0.4994	0.4642	0.5894	0.497
Mof_C 	C 	0.5185	0.4059	0.6101	-0.353
Mof_C 	C 	0.4761	0.3543	0.59829	0.442
Mof_C 	C 	0.5845	0.3999	0.6445	0.086
Mof_C 	C 	0.3102	0.3216	0.6498	0.101
Mof_C 	C 	0.2399	0.2797	0.5912	-0.021
Mof_C 	C 	0.2065	0.2845	0.639	0.016
Mof_C 	C 	0.6525	0.3824	0.5584	0.083
Mof_C 	C 	0.7198	0.3995	0.6279	-0.018
Mof_C 	C 	0.7614	0.3893	0.5847	0.004
Mof_C 	C 	0.1641	0.562	0.90095	0.075
Mof_C 	C 	0.2295	0.5043	0.8494	-0.012
Mof_C 	C 	0.2716	0.5391	0.8813	-0.006
Mof_C 	C 	0.0953	0.498	0.8346	0.044
Mof_C 	C 	0.0315	0.504	0.87146	-0.259
Mof_C 	C 	0.0124	0.4545	0.9054	0.326
Mof_C 	C 	0.9184	0.5157	0.9428	0.352
Mof_C 	C 	0.9562	0.4608	0.9402	-0.247
Mof_C 	C 	0.9369	0.5652	0.9097	-0.27
Mof_C 	C 	0.993	0.5594	0.87264	0.357
Mof_C 	C 	0.7205	0.6206	0.8455	0.029
Mof_C 	C 	0.7633	0.6442	0.8838	-0.057
Mof_C 	C 	0.8198	0.5743	0.8384	0.072
Mof_C 	C 	0.8921	0.6234	0.9105	0.045
Mof_C 	C 	0.8654	0.2989	0.4587	0.334
Mof_C 	C 	0.9204	0.25985	0.43034	-0.128
Mof_C 	C 	0.9047	0.2319	0.3816	0.04
Mof_C 	C 	0.9556	0.197	0.3542	-0.14
Mof_C 	C 	0.1113	0.2063	0.4505	0.342
Mof_C 	C 	0.0386	0.21598	0.42591	-0.13
Mof_C 	C 	0.9888	0.2525	0.4515	0.05
Mof_C 	C 	0.0222	0.1884	0.3776	0.043
Mof_C 	C 	0.4991	0.2908	0.6176	-0.972
Mof_C 	C 	0.5445	0.5229	0.5993	-0.991
Mof_C 	C 	0.3261	0.4297	0.517	-1.07
Mof_C 	C 	0.0523	0.3926	0.9031	-0.799
Mof_C 	C 	0.0102	0.6114	0.8342	-0.869
Mof_C 	C 	0.8556	0.52	0.9803	-0.844
Mof_C 	C 	0.9099	0.0448	0.25	0.373
Mof_C 	C 	0.9894	0.0378	0.25	-0.33
Mof_C 	C 	0.0305	0.0918	0.25	0.438
Mof_C 	C 	0.1037	0.0889	0.25	-0.853
Mof_C 	C 	0.1381	0.0334	0.25	0.539
Mof_C 	C 	0.0997	0.9782	0.25	-0.359
Mof_C 	C 	0.0246	0.9808	0.25	0.245
Mof_C 	C 	0.1376	0.9166	0.25	0.433
Mof_C 	C 	0.6385	0.9559	0.25	0.32
Mof_C 	C 	0.6021	0.894	0.25	-0.081
Mof_C 	C 	0.6395	0.8399	0.25	-0.015
Mof_C 	C 	0.6045	0.7831	0.25	-0.055
Mof_C 	C 	0.5313	0.7816	0.25	-0.015
Mof_C 	C 	0.4907	0.8356	0.25	-0.085
Mof_C 	C 	0.5273	0.8921	0.25	-0.008
Mof_C 	C 	0.4097	0.8301	0.25	0.299
Mof_C 	C 	0.5901	0.5448	0.75	0.374
Mof_C 	C 	0.5106	0.5378	0.75	-0.338
Mof_C 	C 	0.4695	0.5918	0.75	0.453
Mof_C 	C 	0.3963	0.5889	0.75	-0.875
Mof_C 	C 	0.3619	0.5334	0.75	0.556
Mof_C 	C 	0.4003	0.4782	0.75	-0.368
Mof_C 	C 	0.4754	0.4808	0.75	0.25
Mof_C 	C 	0.3624	0.4166	0.75	0.436
Mof_C 	C 	0.8615	0.4559	0.75	0.321
Mof_C 	C 	0.8979	0.394	0.75	-0.081
Mof_C 	C 	0.8605	0.3399	0.75	-0.014
Mof_C 	C 	0.8955	0.2831	0.75	-0.056
Mof_C 	C 	0.9687	0.2816	0.75	-0.014
Mof_C 	C 	0.0093	0.3356	0.75	-0.086
Mof_C 	C 	0.9727	0.3921	0.75	-0.006
Mof_C 	C 	0.0903	0.3301	0.75	0.3
Mof_C 	C 	0.0901	0.9552	0.75	0.373
Mof_C 	C 	0.0106	0.9622	0.75	-0.33
Mof_C 	C 	0.9695	0.9082	0.75	0.438
Mof_C 	C 	0.8963	0.9111	0.75	-0.853
Mof_C 	C 	0.8619	0.9666	0.75	0.539
Mof_C 	C 	0.9003	0.0218	0.75	-0.359
Mof_C 	C 	0.9754	0.0192	0.75	0.245
Mof_C 	C 	0.8624	0.0834	0.75	0.433
Mof_C 	C 	0.3615	0.0441	0.75	0.32
Mof_C 	C 	0.3979	0.106	0.75	-0.081
Mof_C 	C 	0.3605	0.1601	0.75	-0.015
Mof_C 	C 	0.3955	0.2169	0.75	-0.055
Mof_C 	C 	0.4687	0.2184	0.75	-0.015
Mof_C 	C 	0.5093	0.1644	0.75	-0.085
Mof_C 	C 	0.4727	0.1079	0.75	-0.008
Mof_C 	C 	0.5903	0.1699	0.75	0.299
Mof_C 	C 	0.4099	0.4552	0.25	0.374
Mof_C 	C 	0.4894	0.4622	0.25	-0.338
Mof_C 	C 	0.5305	0.4082	0.25	0.453
Mof_C 	C 	0.6037	0.4111	0.25	-0.875
Mof_C 	C 	0.6381	0.4666	0.25	0.556
Mof_C 	C 	0.5997	0.5218	0.25	-0.368
Mof_C 	C 	0.5246	0.5192	0.25	0.25
Mof_C 	C 	0.6376	0.5834	0.25	0.436
Mof_C 	C 	0.1385	0.5441	0.25	0.321
Mof_C 	C 	0.1021	0.606	0.25	-0.081
Mof_C 	C 	0.1395	0.6601	0.25	-0.014
Mof_C 	C 	0.1045	0.7169	0.25	-0.056
Mof_C 	C 	0.0313	0.7184	0.25	-0.014
Mof_C 	C 	0.9907	0.6644	0.25	-0.086
Mof_C 	C 	0.0273	0.6079	0.25	-0.006
Mof_C 	C 	0.9097	0.6699	0.25	0.3
Mof_N 	N 	0.2493	0.8103	0.17603	-0.271
Mof_N 	N 	0.78091	0.87912	0.04067	-0.276
Mof_N 	N 	0.7441	0.0766	0.31708	-0.271
Mof_N 	N 	0.26947	0.07488	0.41474	-0.27
Mof_N 	N 	0.1936	0.804	0.09856	-0.14
Mof_N 	N 	0.8501	0.8947	0.1109	-0.138
Mof_N 	N 	0.33886	0.0197	0.36195	-0.132
Mof_N 	N 	0.6732	0.11419	0.3786	-0.125
Mof_N 	N 	0.2507	0.3103	0.82397	-0.271
Mof_N 	N 	0.71909	0.37912	0.95933	-0.276
Mof_N 	N 	0.7559	0.5766	0.68292	-0.271
Mof_N 	N 	0.23053	0.57488	0.58526	-0.27
Mof_N 	N 	0.3064	0.304	0.90144	-0.14
Mof_N 	N 	0.6499	0.3947	0.8891	-0.138
Mof_N 	N 	0.16114	0.5197	0.63805	-0.132
Mof_N 	N 	0.8268	0.61419	0.6214	-0.125
Mof_N 	N 	0.7507	0.1897	0.67603	-0.271
Mof_N 	N 	0.21909	0.12088	0.54067	-0.276
Mof_N 	N 	0.2559	0.9234	0.81708	-0.271
Mof_N 	N 	0.73053	0.92512	0.91474	-0.27
Mof_N 	N 	0.8064	0.196	0.59856	-0.14
Mof_N 	N 	0.1499	0.1053	0.6109	-0.138
Mof_N 	N 	0.66114	0.9803	0.86195	-0.132
Mof_N 	N 	0.3268	0.88581	0.8786	-0.125
Mof_N 	N 	0.7493	0.6897	0.32397	-0.271
Mof_N 	N 	0.28091	0.62088	0.45933	-0.276
Mof_N 	N 	0.2441	0.4234	0.18292	-0.271
Mof_N 	N 	0.76947	0.42512	0.08526	-0.27
Mof_N 	N 	0.6936	0.696	0.40144	-0.14
Mof_N 	N 	0.3501	0.6053	0.3891	-0.138
Mof_N 	N 	0.83886	0.4803	0.13805	-0.132
Mof_N 	N 	0.1732	0.38581	0.1214	-0.125
Mof_N 	N 	0.7507	0.1897	0.82397	-0.271
Mof_N 	N 	0.21909	0.12088	0.95933	-0.276
Mof_N 	N 	0.2559	0.9234	0.68292	-0.271
Mof_N 	N 	0.73053	0.92512	0.58526	-0.27
Mof_N 	N 	0.8064	0.196	0.90144	-0.14
Mof_N 	N 	0.1499	0.1053	0.8891	-0.138
Mof_N 	N 	0.66114	0.9803	0.63805	-0.132
Mof_N 	N 	0.3268	0.88581	0.6214	-0.125
Mof_N 	N 	0.7493	0.6897	0.17603	-0.271
Mof_N 	N 	0.28091	0.62088	0.04067	-0.276
Mof_N 	N 	0.2441	0.4234	0.31708	-0.271
Mof_N 	N 	0.76947	0.42512	0.41474	-0.27
Mof_N 	N 	0.6936	0.696	0.09856	-0.14
Mof_N 	N 	0.3501	0.6053	0.1109	-0.138
Mof_N 	N 	0.83886	0.4803	0.36195	-0.132
Mof_N 	N 	0.1732	0.38581	0.3786	-0.125
Mof_N 	N 	0.2493	0.8103	0.32397	-0.271
Mof_N 	N 	0.78091	0.87912	0.45933	-0.276
Mof_N 	N 	0.7441	0.0766	0.18292	-0.271
Mof_N 	N 	0.26947	0.07488	0.08526	-0.27
Mof_N 	N 	0.1936	0.804	0.40144	-0.14
Mof_N 	N 	0.8501	0.8947	0.3891	-0.138
Mof_N 	N 	0.33886	0.0197	0.13805	-0.132
Mof_N 	N 	0.6732	0.11419	0.1214	-0.125
Mof_N 	N 	0.2507	0.3103	0.67603	-0.271
Mof_N 	N 	0.71909	0.37912	0.54067	-0.276
Mof_N 	N 	0.7559	0.5766	0.81708	-0.271
Mof_N 	N 	0.23053	0.57488	0.91474	-0.27
Mof_N 	N 	0.3064	0.304	0.59856	-0.14
Mof_N 	N 	0.6499	0.3947	0.6109	-0.138
Mof_N 	N 	0.16114	0.5197	0.86195	-0.132
Mof_N 	N 	0.8268	0.61419	0.8786	-0.125
Mof_O 	O 	0.69875	0.78802	0.94381	-0.463
Mof_O 	O 	0.61678	0.83789	0.99176	-0.337
Mof_O 	O 	0.35545	0.65804	0.93299	-0.466
Mof_O 	O 	0.36607	0.74237	0.98467	-0.33
Mof_O 	O 	0.80125	0.28802	0.05619	-0.463
Mof_O 	O 	0.88322	0.33789	0.00824	-0.337
Mof_O 	O 	0.14455	0.15804	0.06701	-0.466
Mof_O 	O 	0.13393	0.24237	0.01533	-0.33
Mof_O 	O 	0.30125	0.21198	0.44381	-0.463
Mof_O 	O 	0.38322	0.16211	0.49176	-0.337
Mof_O 	O 	0.64455	0.34196	0.43299	-0.466
Mof_O 	O 	0.63393	0.25763	0.48467	-0.33
Mof_O 	O 	0.19875	0.71198	0.55619	-0.463
Mof_O 	O 	0.11678	0.66211	0.50824	-0.337
Mof_O 	O 	0.85545	0.84196	0.56701	-0.466
Mof_O 	O 	0.86607	0.75763	0.51533	-0.33
Mof_O 	O 	0.30125	0.21198	0.05619	-0.463
Mof_O 	O 	0.38322	0.16211	0.00824	-0.337
Mof_O 	O 	0.64455	0.34196	0.06701	-0.466
Mof_O 	O 	0.63393	0.25763	0.01533	-0.33
Mof_O 	O 	0.19875	0.71198	0.94381	-0.463
Mof_O 	O 	0.11678	0.66211	0.99176	-0.337
Mof_O 	O 	0.85545	0.84196	0.93299	-0.466
Mof_O 	O 	0.86607	0.75763	0.98467	-0.33
Mof_O 	O 	0.69875	0.78802	0.55619	-0.463
Mof_O 	O 	0.61678	0.83789	0.50824	-0.337
Mof_O 	O 	0.35545	0.65804	0.56701	-0.466
Mof_O 	O 	0.36607	0.74237	0.51533	-0.33
Mof_O 	O 	0.80125	0.28802	0.44381	-0.463
Mof_O 	O 	0.88322	0.33789	0.49176	-0.337
Mof_O 	O 	0.14455	0.15804	0.43299	-0.466
Mof_O 	O 	0.13393	0.24237	0.48467	-0.33
Mof_O 	O 	0.8839	0.0978	0.25	-0.375
Mof_O 	O 	0.871	0.99534	0.25	-0.46
Mof_O 	O 	0.1023	0.86847	0.25	-0.333
Mof_O 	O 	0.2063	0.91886	0.25	-0.473
Mof_O 	O 	0.7083	0.95436	0.25	-0.45
Mof_O 	O 	0.6034	0.00444	0.25	-0.31
Mof_O 	O 	0.3727	0.87966	0.25	-0.441
Mof_O 	O 	0.3836	0.7779	0.25	-0.363
Mof_O 	O 	0.6161	0.5978	0.75	-0.376
Mof_O 	O 	0.629	0.49534	0.75	-0.46
Mof_O 	O 	0.3977	0.36847	0.75	-0.334
Mof_O 	O 	0.2937	0.41886	0.75	-0.474
Mof_O 	O 	0.7917	0.45436	0.75	-0.45
Mof_O 	O 	0.8966	0.50444	0.75	-0.31
Mof_O 	O 	0.1273	0.37966	0.75	-0.441
Mof_O 	O 	0.1164	0.2779	0.75	-0.363
Mof_O 	O 	0.1161	0.9022	0.75	-0.375
Mof_O 	O 	0.129	0.00466	0.75	-0.46
Mof_O 	O 	0.8977	0.13153	0.75	-0.333
Mof_O 	O 	0.7937	0.08114	0.75	-0.473
Mof_O 	O 	0.2917	0.04564	0.75	-0.45
Mof_O 	O 	0.3966	0.99556	0.75	-0.31
Mof_O 	O 	0.6273	0.12034	0.75	-0.441
Mof_O 	O 	0.6164	0.2221	0.75	-0.363
Mof_O 	O 	0.3839	0.4022	0.25	-0.376
Mof_O 	O 	0.371	0.50466	0.25	-0.46
Mof_O 	O 	0.6023	0.63153	0.25	-0.334
Mof_O 	O 	0.7063	0.58114	0.25	-0.474
Mof_O 	O 	0.2083	0.54564	0.25	-0.45
Mof_O 	O 	0.1034	0.49556	0.25	-0.31
Mof_O 	O 	0.8727	0.62034	0.25	-0.441
Mof_O 	O 	0.8836	0.7221	0.25	-0.363
_end
