# CIF file generated by openbabel 3.1.0, see https://openbabel.org
data_I
_chemical_name_common 'image0'
_cell_length_a 6.5192
_cell_length_b 15.4818
_cell_length_c 16.9913
_cell_angle_alpha 89.23
_cell_angle_beta 84.607
_cell_angle_gamma 85.574
_space_group_name_H-M_alt 'P 1'
_space_group_name_Hall 'P 1'
loop_
    _symmetry_equiv_pos_as_xyz
    x,y,z
loop_
    _atom_site_label
    _atom_site_type_symbol
    _atom_site_fract_x
    _atom_site_fract_y
    _atom_site_fract_z
    _atom_site_occupancy
    Ag1      Ag       0.72880    0.02035    0.05761    1.000
    Ag2      Ag       0.74721    0.53013    0.43691    1.000
    N1       N        0.43990    0.10340    0.07280    1.000
    N2       N        0.30470    0.10970    0.01460    1.000
    N3       N        0.23710    0.22130    0.09460    1.000
    N4       N        0.48370    0.48640    0.38210    1.000
    N5       N        0.37360    0.42280    0.42340    1.000
    N6       N        0.27550    0.43400    0.30390    1.000
    N7       N        0.85510    0.39500    0.50660    1.000
    N8       N        0.97640    0.39670    0.57090    1.000
    N9       N        0.78650    0.28620    0.58600    1.000
    N10      N        0.84200    0.07970    0.92420    1.000
    N11      N        0.99250    0.02210    0.88610    1.000
    N12      N        0.78420    0.07070    0.79980    1.000
    C1       C        0.39470    0.16960    0.11950    1.000
    H1       H        0.46270    0.17990    0.16450    1.000
    C2       C        0.18570    0.18130    0.02910    1.000
    H2       H        0.07940    0.20200    0.99840    1.000
    C3       C        0.41700    0.49150    0.31100    1.000
    H3       H        0.46200    0.53000    0.27100    1.000
    C4       C        0.25380    0.39310    0.37560    1.000
    H4       H        0.16380    0.34940    0.38840    1.000
    C5       C        0.14570    0.30620    0.12690    1.000
    C6       C        0.25680    0.32600    0.20050    1.000
    H5       H        0.23530    0.28090    0.24090    1.000
    H6       H        0.40570    0.32720    0.18600    1.000
    C7       C        0.16730    0.41440    0.23290    1.000
    C8       C        0.20220    0.48490    0.17020    1.000
    H7       H        0.35030    0.48690    0.15460    1.000
    H8       H        0.14900    0.54160    0.19170    1.000
    C9       C        0.08910    0.46440    0.09810    1.000
    H9       H        0.10850    0.51030    0.05750    1.000
    C10      C        0.18450    0.37640    0.06420    1.000
    H10      H        0.12090    0.36310    0.01620    1.000
    H11      H        0.33330    0.37910    0.05050    1.000
    C11      C        0.91710    0.30030    0.15060    1.000
    H12      H        0.89680    0.25560    0.19130    1.000
    H13      H        0.84680    0.28520    0.10470    1.000
    C12      C        0.82810    0.39010    0.18300    1.000
    H14      H        0.67820    0.38840    0.19840    1.000
    C13      C        0.94020    0.41080    0.25700    1.000
    H15      H        0.88300    0.46650    0.27940    1.000
    H16      H        0.91900    0.36580    0.29750    1.000
    C14      C        0.86210    0.45890    0.12130    1.000
    H17      H        0.80160    0.51500    0.14200    1.000
    H18      H        0.79280    0.44570    0.07470    1.000
    C15      C        0.74770    0.32810    0.51760    1.000
    H19      H        0.65500    0.31090    0.48280    1.000
    C16      C        0.93000    0.33060    0.61680    1.000
    H20      H        0.98830    0.31640    0.66430    1.000
    C17      C        0.72120    0.10720    0.87050    1.000
    H21      H        0.60560    0.14710    0.87990    1.000
    C18      C        0.95190    0.01730    0.81230    1.000
    H22      H        0.02820    0.98200    0.77370    1.000
    C19      C        0.70530    0.20310    0.61380    1.000
    C20      C        0.77830    0.18020    0.69560    1.000
    H23      H        0.92950    0.17700    0.69270    1.000
    H24      H        0.72360    0.22500    0.73380    1.000
    C21      C        0.70030    0.09260    0.72200    1.000
    C22      C        0.78430    0.02180    0.66290    1.000
    H25      H        0.93560    0.01700    0.65880    1.000
    H26      H        0.73580    0.96590    0.68110    1.000
    C23      C        0.70880    0.04490    0.58230    1.000
    H27      H        0.76180    0.99930    0.54370    1.000
    C24      C        0.79010    0.13240    0.55450    1.000
    H28      H        0.94150    0.12780    0.55050    1.000
    H29      H        0.74600    0.14730    0.50210    1.000
    C25      C        0.46860    0.21080    0.62100    1.000
    H30      H        0.41880    0.22670    0.56970    1.000
    H31      H        0.41560    0.25590    0.65910    1.000
    C26      C        0.39170    0.12270    0.64880    1.000
    H32      H        0.23880    0.12660    0.65320    1.000
    C27      C        0.46740    0.09770    0.72950    1.000
    H33      H        0.41250    0.14120    0.76890    1.000
    H34      H        0.41870    0.04160    0.74670    1.000
    C28      C        0.47570    0.05300    0.58840    1.000
    H35      H        0.42300    0.99730    0.60480    1.000
    H36      H        0.42830    0.06840    0.53670    1.000
    Ag3      Ag       0.27120    0.97965    0.94239    1.000
    Ag4      Ag       0.25279    0.46987    0.56309    1.000
    N13      N        0.56010    0.89660    0.92720    1.000
    N14      N        0.69530    0.89030    0.98540    1.000
    N15      N        0.76290    0.77870    0.90540    1.000
    N16      N        0.51630    0.51360    0.61790    1.000
    N17      N        0.62640    0.57720    0.57660    1.000
    N18      N        0.72450    0.56600    0.69610    1.000
    N19      N        0.14490    0.60500    0.49340    1.000
    N20      N        0.02360    0.60330    0.42910    1.000
    N21      N        0.21350    0.71380    0.41400    1.000
    N22      N        0.15800    0.92030    0.07580    1.000
    N23      N        0.00750    0.97790    0.11390    1.000
    N24      N        0.21580    0.92930    0.20020    1.000
    C29      C        0.60530    0.83040    0.88050    1.000
    H37      H        0.53730    0.82010    0.83550    1.000
    C30      C        0.81430    0.81870    0.97090    1.000
    H38      H        0.92060    0.79800    0.00160    1.000
    C31      C        0.58300    0.50850    0.68900    1.000
    H39      H        0.53800    0.47000    0.72900    1.000
    C32      C        0.74620    0.60690    0.62440    1.000
    H40      H        0.83620    0.65060    0.61160    1.000
    C33      C        0.85430    0.69380    0.87310    1.000
    C34      C        0.74320    0.67400    0.79950    1.000
    H41      H        0.76470    0.71910    0.75910    1.000
    H42      H        0.59430    0.67280    0.81400    1.000
    C35      C        0.83270    0.58560    0.76710    1.000
    C36      C        0.79780    0.51510    0.82980    1.000
    H43      H        0.64970    0.51310    0.84540    1.000
    H44      H        0.85100    0.45840    0.80830    1.000
    C37      C        0.91090    0.53560    0.90190    1.000
    H45      H        0.89150    0.48970    0.94250    1.000
    C38      C        0.81550    0.62360    0.93580    1.000
    H46      H        0.87910    0.63690    0.98380    1.000
    H47      H        0.66670    0.62090    0.94950    1.000
    C39      C        0.08290    0.69970    0.84940    1.000
    H48      H        0.10320    0.74440    0.80870    1.000
    H49      H        0.15320    0.71480    0.89530    1.000
    C40      C        0.17190    0.60990    0.81700    1.000
    H50      H        0.32180    0.61160    0.80160    1.000
    C41      C        0.05980    0.58920    0.74300    1.000
    H51      H        0.11700    0.53350    0.72060    1.000
    H52      H        0.08100    0.63420    0.70250    1.000
    C42      C        0.13790    0.54110    0.87870    1.000
    H53      H        0.19840    0.48500    0.85800    1.000
    H54      H        0.20720    0.55430    0.92530    1.000
    C43      C        0.25230    0.67190    0.48240    1.000
    H55      H        0.34500    0.68910    0.51720    1.000
    C44      C        0.07000    0.66940    0.38320    1.000
    H56      H        0.01170    0.68360    0.33570    1.000
    C45      C        0.27880    0.89280    0.12950    1.000
    H57      H        0.39440    0.85290    0.12010    1.000
    C46      C        0.04810    0.98270    0.18770    1.000
    H58      H        0.97180    0.01800    0.22630    1.000
    C47      C        0.29470    0.79690    0.38620    1.000
    C48      C        0.22170    0.81980    0.30440    1.000
    H59      H        0.07050    0.82300    0.30730    1.000
    H60      H        0.27640    0.77500    0.26620    1.000
    C49      C        0.29970    0.90740    0.27800    1.000
    C50      C        0.21570    0.97820    0.33710    1.000
    H61      H        0.06440    0.98300    0.34120    1.000
    H62      H        0.26420    0.03410    0.31890    1.000
    C51      C        0.29120    0.95510    0.41770    1.000
    H63      H        0.23820    0.00070    0.45630    1.000
    C52      C        0.20990    0.86760    0.44550    1.000
    H64      H        0.05850    0.87220    0.44950    1.000
    H65      H        0.25400    0.85270    0.49790    1.000
    C53      C        0.53140    0.78920    0.37900    1.000
    H66      H        0.58120    0.77330    0.43030    1.000
    H67      H        0.58440    0.74410    0.34090    1.000
    C54      C        0.60830    0.87730    0.35120    1.000
    H68      H        0.76120    0.87340    0.34680    1.000
    C55      C        0.53260    0.90230    0.27050    1.000
    H69      H        0.58750    0.85880    0.23110    1.000
    H70      H        0.58130    0.95840    0.25330    1.000
    C56      C        0.52430    0.94700    0.41160    1.000
    H71      H        0.57700    0.00270    0.39520    1.000
    H72      H        0.57170    0.93160    0.46330    1.000
