data_functionalizedCrystal
_audit_creation_method	'EQeq! by Chris Wilmer'
_symmetry_space_group_name_H-M	'P1'
_symmetry_Int_Tables_number	1
_symmetry_cell_setting	triclinic
loop_
_symmetry_equiv_pos_as_xyz
  x,y,z
_cell_length_a	17.0405
_cell_length_b	13.6295
_cell_length_c	7.4617
_cell_angle_alpha	90
_cell_angle_beta	90
_cell_angle_gamma	90
loop_
_atom_site_label
_atom_site_type_symbol
_atom_site_fract_x
_atom_site_fract_y
_atom_site_fract_z
_atom_site_charge
Mof_C 	C 	0.6115	0.469	0.784	-0.742
Mof_H 	H 	0.6388	0.4126	0.7389	0.21
Mof_H 	H 	0.5626	0.4487	0.8367	0.212
Mof_H 	H 	0.6431	0.5005	0.874	0.199
Mof_C 	C 	0.5965	0.5368	0.64	0.247
Mof_C 	C 	0.5332	0.5359	0.514	-0.171
Mof_C 	C 	0.5441	0.6126	0.401	0.281
Mof_C 	C 	0.4999	0.6497	0.244	-0.785
Mof_H 	H 	0.5197	0.713	0.2102	0.252
Mof_H 	H 	0.4453	0.655	0.274	0.242
Mof_H 	H 	0.5059	0.605	0.1452	0.248
Mof_N 	N 	0.6437	0.6137	0.5987	-0.246
Mof_N 	N 	0.6114	0.6561	0.453	-0.215
Mof_H 	H 	0.6316	0.7058	0.3993	0.094
Mof_C 	C 	0.1115	0.969	0.284	-0.723
Mof_H 	H 	0.1388	0.9126	0.2389	0.217
Mof_H 	H 	0.0626	0.9487	0.3367	0.222
Mof_H 	H 	0.1431	0.0005	0.374	0.205
Mof_C 	C 	0.0965	0.0368	0.14	0.235
Mof_C 	C 	0.0332	0.0359	0.014	-0.113
Mof_C 	C 	0.0441	0.1126	0.901	0.174
Mof_C 	C 	0.9999	0.1497	0.744	-0.59
Mof_H 	H 	0.0197	0.213	0.7102	0.182
Mof_H 	H 	0.9453	0.155	0.774	0.175
Mof_H 	H 	0.0059	0.105	0.6452	0.175
Mof_N 	N 	0.1437	0.1137	0.0987	-0.227
Mof_N 	N 	0.1114	0.1561	0.953	-0.213
Mof_H 	H 	0.1316	0.2058	0.8993	0.08
Mof_C 	C 	0.3885	0.531	0.784	-0.741
Mof_H 	H 	0.3612	0.5874	0.7389	0.211
Mof_H 	H 	0.4374	0.5513	0.8367	0.213
Mof_H 	H 	0.3569	0.4995	0.874	0.2
Mof_C 	C 	0.4035	0.4632	0.64	0.247
Mof_C 	C 	0.4668	0.4641	0.514	-0.171
Mof_C 	C 	0.4559	0.3874	0.401	0.281
Mof_C 	C 	0.5001	0.3503	0.244	-0.785
Mof_H 	H 	0.4803	0.287	0.2102	0.252
Mof_H 	H 	0.5547	0.345	0.274	0.242
Mof_H 	H 	0.4941	0.395	0.1452	0.248
Mof_N 	N 	0.3563	0.3863	0.5987	-0.246
Mof_N 	N 	0.3886	0.3439	0.453	-0.215
Mof_H 	H 	0.3684	0.2942	0.3993	0.094
Mof_C 	C 	0.8885	0.031	0.284	-0.723
Mof_H 	H 	0.8612	0.0874	0.2389	0.217
Mof_H 	H 	0.9374	0.0513	0.3367	0.222
Mof_H 	H 	0.8569	0.9995	0.374	0.205
Mof_C 	C 	0.9035	0.9632	0.14	0.235
Mof_C 	C 	0.9668	0.9641	0.014	-0.113
Mof_C 	C 	0.9559	0.8874	0.901	0.174
Mof_C 	C 	0.0001	0.8503	0.744	-0.59
Mof_H 	H 	0.9803	0.787	0.7102	0.182
Mof_H 	H 	0.0547	0.845	0.774	0.175
Mof_H 	H 	0.9941	0.895	0.6452	0.175
Mof_N 	N 	0.8563	0.8863	0.0987	-0.227
Mof_N 	N 	0.8886	0.8439	0.953	-0.213
Mof_H 	H 	0.8684	0.7942	0.8993	0.08
Mof_C 	C 	0.1115	0.531	0.784	-0.744
Mof_H 	H 	0.1388	0.5874	0.7389	0.213
Mof_H 	H 	0.0626	0.5513	0.8367	0.215
Mof_H 	H 	0.1431	0.4995	0.874	0.202
Mof_C 	C 	0.0965	0.4632	0.64	0.248
Mof_C 	C 	0.0332	0.4641	0.514	-0.167
Mof_C 	C 	0.0441	0.3874	0.401	0.27
Mof_C 	C 	0.9999	0.3503	0.244	-0.752
Mof_H 	H 	0.0197	0.287	0.2102	0.241
Mof_H 	H 	0.9453	0.345	0.274	0.234
Mof_H 	H 	0.0059	0.395	0.1452	0.237
Mof_N 	N 	0.1437	0.3863	0.5987	-0.246
Mof_N 	N 	0.1114	0.3439	0.453	-0.213
Mof_H 	H 	0.1316	0.2942	0.3993	0.094
Mof_C 	C 	0.6115	0.031	0.284	-0.759
Mof_H 	H 	0.6388	0.0874	0.2389	0.226
Mof_H 	H 	0.5626	0.0513	0.3367	0.228
Mof_H 	H 	0.6431	0.9995	0.374	0.217
Mof_C 	C 	0.5965	0.9632	0.14	0.25
Mof_C 	C 	0.5332	0.9641	0.014	-0.122
Mof_C 	C 	0.5441	0.8874	0.901	0.201
Mof_C 	C 	0.4999	0.8503	0.744	-0.674
Mof_H 	H 	0.5197	0.787	0.7102	0.209
Mof_H 	H 	0.4453	0.845	0.774	0.197
Mof_H 	H 	0.5059	0.895	0.6452	0.203
Mof_N 	N 	0.6437	0.8863	0.0987	-0.23
Mof_N 	N 	0.6114	0.8439	0.953	-0.219
Mof_H 	H 	0.6316	0.7942	0.8993	0.082
Mof_C 	C 	0.8885	0.469	0.784	-0.744
Mof_H 	H 	0.8612	0.4126	0.7389	0.213
Mof_H 	H 	0.9374	0.4487	0.8367	0.215
Mof_H 	H 	0.8569	0.5005	0.874	0.202
Mof_C 	C 	0.9035	0.5368	0.64	0.248
Mof_C 	C 	0.9668	0.5359	0.514	-0.167
Mof_C 	C 	0.9559	0.6126	0.401	0.27
Mof_C 	C 	0.0001	0.6497	0.244	-0.752
Mof_H 	H 	0.9803	0.713	0.2102	0.241
Mof_H 	H 	0.0547	0.655	0.274	0.234
Mof_H 	H 	0.9941	0.605	0.1452	0.237
Mof_N 	N 	0.8563	0.6137	0.5987	-0.246
Mof_N 	N 	0.8886	0.6561	0.453	-0.213
Mof_H 	H 	0.8684	0.7058	0.3993	0.094
Mof_C 	C 	0.3885	0.969	0.284	-0.759
Mof_H 	H 	0.3612	0.9126	0.2389	0.226
Mof_H 	H 	0.4374	0.9487	0.3367	0.228
Mof_H 	H 	0.3569	0.0005	0.374	0.217
Mof_C 	C 	0.4035	0.0368	0.14	0.25
Mof_C 	C 	0.4668	0.0359	0.014	-0.122
Mof_C 	C 	0.4559	0.1126	0.901	0.201
Mof_C 	C 	0.5001	0.1497	0.744	-0.674
Mof_H 	H 	0.4803	0.213	0.7102	0.209
Mof_H 	H 	0.5547	0.155	0.774	0.197
Mof_H 	H 	0.4941	0.105	0.6452	0.203
Mof_N 	N 	0.3563	0.1137	0.0987	-0.23
Mof_N 	N 	0.3886	0.1561	0.953	-0.219
Mof_H 	H 	0.3684	0.2058	0.8993	0.082
Mof_Cu	Cu	0.75	0.6483	0.6853	0.832
Mof_I 	I 	0.75	0.84344	0.5465	-0.498
Mof_Cu	Cu	0.25	0.1483	0.1853	0.842
Mof_I 	I 	0.25	0.34344	0.0465	-0.444
Mof_Cu	Cu	0.25	0.3517	0.6853	0.832
Mof_I 	I 	0.25	0.15656	0.5465	-0.498
Mof_Cu	Cu	0.75	0.8517	0.1853	0.842
Mof_I 	I 	0.75	0.65656	0.0465	-0.444
_end
