# CIF file generated by openbabel 3.1.0, see https://openbabel.org
data_I
_chemical_name_common 'image0'
_cell_length_a 11.5516
_cell_length_b 17.1677
_cell_length_c 8.7185
_cell_angle_alpha 90
_cell_angle_beta 130.635
_cell_angle_gamma 90
_space_group_name_H-M_alt 'P 1'
_space_group_name_Hall 'P 1'
loop_
    _symmetry_equiv_pos_as_xyz
    x,y,z
loop_
    _atom_site_label
    _atom_site_type_symbol
    _atom_site_fract_x
    _atom_site_fract_y
    _atom_site_fract_z
    _atom_site_occupancy
    Y1       Y        0.44100    0.12800    0.26050    1.000
    O1       O        0.67060    0.17050    0.36150    1.000
    O2       O        0.56850    0.07590    0.58430    1.000
    O3       O        0.52380    0.23650    0.47220    1.000
    O4       O        0.70810    0.32500    0.65240    1.000
    O5       O        0.85230    0.26310    0.53840    1.000
    O6       O        0.57220    0.98340    0.77000    1.000
    O7       O        0.31850    0.92160    0.43300    1.000
    O8       O        0.30930    0.01760    0.25300    1.000
    C1       C        0.73710    0.23430    0.48420    1.000
    C2       C        0.65290    0.27170    0.54950    1.000
    C3       C        0.51900    0.01940    0.60560    1.000
    C4       C        0.37140    0.98440    0.41300    1.000
    Y2       Y        0.94100    0.62800    0.26050    1.000
    O9       O        0.17060    0.67050    0.36150    1.000
    O10      O        0.06850    0.57590    0.58430    1.000
    O11      O        0.02380    0.73650    0.47220    1.000
    O12      O        0.20810    0.82500    0.65240    1.000
    O13      O        0.35230    0.76310    0.53840    1.000
    O14      O        0.07220    0.48340    0.77000    1.000
    O15      O        0.81850    0.42160    0.43300    1.000
    O16      O        0.80930    0.51760    0.25300    1.000
    C5       C        0.23710    0.73430    0.48420    1.000
    C6       C        0.15290    0.77170    0.54950    1.000
    C7       C        0.01900    0.51940    0.60560    1.000
    C8       C        0.87140    0.48440    0.41300    1.000
    Y3       Y        0.44100    0.87200    0.76050    1.000
    O17      O        0.67060    0.82950    0.86150    1.000
    O18      O        0.56850    0.92410    0.08430    1.000
    O19      O        0.52380    0.76350    0.97220    1.000
    O20      O        0.70810    0.67500    0.15240    1.000
    O21      O        0.85230    0.73690    0.03840    1.000
    O22      O        0.57220    0.01660    0.27000    1.000
    O23      O        0.31850    0.07840    0.93300    1.000
    O24      O        0.30930    0.98240    0.75300    1.000
    C9       C        0.73710    0.76570    0.98420    1.000
    C10      C        0.65290    0.72830    0.04950    1.000
    C11      C        0.51900    0.98060    0.10560    1.000
    C12      C        0.37140    0.01560    0.91300    1.000
    Y4       Y        0.94100    0.37200    0.76050    1.000
    O25      O        0.17060    0.32950    0.86150    1.000
    O26      O        0.06850    0.42410    0.08430    1.000
    O27      O        0.02380    0.26350    0.97220    1.000
    O28      O        0.20810    0.17500    0.15240    1.000
    O29      O        0.35230    0.23690    0.03840    1.000
    O30      O        0.07220    0.51660    0.27000    1.000
    O31      O        0.81850    0.57840    0.93300    1.000
    O32      O        0.80930    0.48240    0.75300    1.000
    C13      C        0.23710    0.26570    0.98420    1.000
    C14      C        0.15290    0.22830    0.04950    1.000
    C15      C        0.01900    0.48060    0.10560    1.000
    C16      C        0.87140    0.51560    0.91300    1.000
