# CIF file generated by openbabel 3.1.0, see https://openbabel.org
data_I
_chemical_name_common 'image0'
_cell_length_a 27.568
_cell_length_b 13.7285
_cell_length_c 45.836
_cell_angle_alpha 90
_cell_angle_beta 90
_cell_angle_gamma 90
_space_group_name_H-M_alt 'P 1'
_space_group_name_Hall 'P 1'
loop_
    _symmetry_equiv_pos_as_xyz
    x,y,z
loop_
    _atom_site_label
    _atom_site_type_symbol
    _atom_site_fract_x
    _atom_site_fract_y
    _atom_site_fract_z
    _atom_site_occupancy
    C1       C        0.72250    0.54630    0.25920    1.000
    H1       H        0.69110    0.55110    0.26760    1.000
    C2       C        0.72640    0.51080    0.23122    1.000
    H2       H        0.69840    0.49160    0.22060    1.000
    C3       C        0.77230    0.50390    0.21892    1.000
    C4       C        0.81270    0.52700    0.23540    1.000
    H3       H        0.84450    0.51940    0.22770    1.000
    C5       C        0.80530    0.56180    0.26364    1.000
    H4       H        0.83280    0.57730    0.27520    1.000
    C6       C        0.77810    0.47630    0.18762    1.000
    C7       C        0.74260    0.44090    0.14457    1.000
    C8       C        0.82430    0.44340    0.14855    1.000
    C9       C        0.69800    0.42670    0.12682    1.000
    C10      C        0.65240    0.43950    0.13995    1.000
    H5       H        0.64980    0.45850    0.15980    1.000
    C11      C        0.61160    0.42360    0.12320    1.000
    H6       H        0.58070    0.43350    0.13190    1.000
    C12      C        0.65770    0.38420    0.08267    1.000
    H7       H        0.65950    0.36520    0.06280    1.000
    C13      C        0.70000    0.39980    0.09780    1.000
    H8       H        0.73040    0.39220    0.08840    1.000
    C14      C        0.87260    0.43210    0.13502    1.000
    C15      C        0.87750    0.41710    0.10531    1.000
    H9       H        0.84980    0.41630    0.09300    1.000
    C16      C        0.92360    0.40320    0.09385    1.000
    H10      H        0.92690    0.39530    0.07330    1.000
    C17      C        0.95910    0.41630    0.13911    1.000
    H11      H        0.98730    0.41650    0.15100    1.000
    C18      C        0.91430    0.43270    0.15208    1.000
    H12      H        0.91210    0.44420    0.17250    1.000
    C19      C        0.81020    0.62660    0.36603    1.000
    H13      H        0.81130    0.69580    0.36570    1.000
    C20      C        0.83180    0.57700    0.38889    1.000
    H14      H        0.84760    0.61220    0.40400    1.000
    C21      C        0.83050    0.47710    0.38972    1.000
    C22      C        0.80740    0.42820    0.36750    1.000
    H15      H        0.80560    0.35910    0.36750    1.000
    C23      C        0.78660    0.48170    0.34494    1.000
    H16      H        0.77110    0.44790    0.32940    1.000
    C24      C        0.85460    0.42350    0.41370    1.000
    C25      C        0.88980    0.42240    0.45789    1.000
    C26      C        0.88880    0.28530    0.43045    1.000
    C27      C        0.94970    0.48080    0.52937    1.000
    H17      H        0.96940    0.44910    0.54350    1.000
    C28      C        0.93520    0.42960    0.50550    1.000
    H18      H        0.94450    0.36340    0.50310    1.000
    C29      C        0.90680    0.47520    0.48457    1.000
    C30      C        0.89490    0.57270    0.48838    1.000
    H19      H        0.87600    0.60640    0.47430    1.000
    C31      C        0.91130    0.61930    0.51314    1.000
    H20      H        0.90370    0.68630    0.51570    1.000
    C32      C        0.93280    0.02940    0.44310    1.000
    H21      H        0.93910    0.98770    0.45920    1.000
    C33      C        0.91600    0.12370    0.44830    1.000
    H22      H        0.91190    0.14630    0.46770    1.000
    C34      C        0.90530    0.18400    0.42506    1.000
    C35      C        0.91210    0.14860    0.39690    1.000
    H23      H        0.90540    0.18810    0.38040    1.000
    C36      C        0.92880    0.05490    0.39370    1.000
    H24      H        0.93240    0.03000    0.37450    1.000
    I1       I        0.80479    0.81030    0.30392    1.000
    I2       I        0.66305    0.67193    0.32371    1.000
    I3       I        0.07666    0.28118    0.13319    1.000
    I4       I        0.01521    0.27862    0.04296    1.000
    I5       I        0.48303    0.45231    0.10041    1.000
    I6       I        0.55086    0.17495    0.06648    1.000
    N1       N        0.76100    0.57440    0.27529    1.000
    N2       N        0.73680    0.46380    0.17245    1.000
    N3       N        0.78550    0.43010    0.13105    1.000
    N4       N        0.82270    0.46650    0.17689    1.000
    N5       N        0.61360    0.39500    0.09530    1.000
    N6       N        0.96410    0.40030    0.11056    1.000
    N7       N        0.78760    0.57940    0.34430    1.000
    N8       N        0.86590    0.47300    0.43781    1.000
    N9       N        0.90170    0.32800    0.45566    1.000
    N10      N        0.86490    0.32930    0.40881    1.000
    N11      N        0.93730    0.57430    0.53376    1.000
    N12      N        0.94010    0.99640    0.41620    1.000
    Zn1      Zn       0.75324    0.65755    0.31220    1.000
    Zn2      Zn       0.02980    0.36176    0.09205    1.000
    Zn3      Zn       0.54954    0.35904    0.07372    1.000
    C37      C        0.77750    0.45370    0.75920    1.000
    H25      H        0.80890    0.44890    0.76760    1.000
    C38      C        0.77360    0.48920    0.73122    1.000
    H26      H        0.80160    0.50840    0.72060    1.000
    C39      C        0.72770    0.49610    0.71892    1.000
    C40      C        0.68730    0.47300    0.73540    1.000
    H27      H        0.65550    0.48060    0.72770    1.000
    C41      C        0.69470    0.43820    0.76364    1.000
    H28      H        0.66720    0.42270    0.77520    1.000
    C42      C        0.72190    0.52370    0.68762    1.000
    C43      C        0.75740    0.55910    0.64457    1.000
    C44      C        0.67570    0.55660    0.64855    1.000
    C45      C        0.80200    0.57330    0.62682    1.000
    C46      C        0.84760    0.56050    0.63995    1.000
    H29      H        0.85020    0.54150    0.65980    1.000
    C47      C        0.88840    0.57640    0.62320    1.000
    H30      H        0.91930    0.56650    0.63190    1.000
    C48      C        0.84230    0.61580    0.58267    1.000
    H31      H        0.84050    0.63480    0.56280    1.000
    C49      C        0.80000    0.60020    0.59780    1.000
    H32      H        0.76960    0.60780    0.58840    1.000
    C50      C        0.62740    0.56790    0.63502    1.000
    C51      C        0.62250    0.58290    0.60531    1.000
    H33      H        0.65020    0.58370    0.59300    1.000
    C52      C        0.57640    0.59680    0.59385    1.000
    H34      H        0.57310    0.60470    0.57330    1.000
    C53      C        0.54090    0.58370    0.63911    1.000
    H35      H        0.51270    0.58350    0.65100    1.000
    C54      C        0.58570    0.56730    0.65208    1.000
    H36      H        0.58790    0.55580    0.67250    1.000
    C55      C        0.68980    0.37340    0.86603    1.000
    H37      H        0.68870    0.30420    0.86570    1.000
    C56      C        0.66820    0.42300    0.88889    1.000
    H38      H        0.65240    0.38780    0.90400    1.000
    C57      C        0.66950    0.52290    0.88972    1.000
    C58      C        0.69260    0.57180    0.86750    1.000
    H39      H        0.69440    0.64090    0.86750    1.000
    C59      C        0.71340    0.51830    0.84494    1.000
    H40      H        0.72890    0.55210    0.82940    1.000
    C60      C        0.64540    0.57650    0.91370    1.000
    C61      C        0.61020    0.57760    0.95789    1.000
    C62      C        0.61120    0.71470    0.93045    1.000
    C63      C        0.55030    0.51920    0.02937    1.000
    H41      H        0.53060    0.55090    0.04350    1.000
    C64      C        0.56480    0.57040    0.00550    1.000
    H42      H        0.55550    0.63660    0.00310    1.000
    C65      C        0.59320    0.52480    0.98457    1.000
    C66      C        0.60510    0.42730    0.98838    1.000
    H43      H        0.62400    0.39360    0.97430    1.000
    C67      C        0.58870    0.38070    0.01314    1.000
    H44      H        0.59630    0.31370    0.01570    1.000
    C68      C        0.56720    0.97060    0.94310    1.000
    H45      H        0.56090    0.01230    0.95920    1.000
    C69      C        0.58400    0.87630    0.94830    1.000
    H46      H        0.58810    0.85370    0.96770    1.000
    C70      C        0.59470    0.81600    0.92506    1.000
    C71      C        0.58790    0.85140    0.89690    1.000
    H47      H        0.59460    0.81190    0.88040    1.000
    C72      C        0.57120    0.94510    0.89370    1.000
    H48      H        0.56760    0.97000    0.87450    1.000
    I7       I        0.69521    0.18970    0.80392    1.000
    I8       I        0.83695    0.32807    0.82371    1.000
    I9       I        0.42334    0.71882    0.63319    1.000
    I10      I        0.48479    0.72138    0.54296    1.000
    I11      I        0.01697    0.54769    0.60041    1.000
    I12      I        0.94914    0.82505    0.56648    1.000
    N13      N        0.73900    0.42560    0.77529    1.000
    N14      N        0.76320    0.53620    0.67245    1.000
    N15      N        0.71450    0.56990    0.63105    1.000
    N16      N        0.67730    0.53350    0.67689    1.000
    N17      N        0.88640    0.60500    0.59530    1.000
    N18      N        0.53590    0.59970    0.61056    1.000
    N19      N        0.71240    0.42060    0.84430    1.000
    N20      N        0.63410    0.52700    0.93781    1.000
    N21      N        0.59830    0.67200    0.95566    1.000
    N22      N        0.63510    0.67070    0.90881    1.000
    N23      N        0.56270    0.42570    0.03376    1.000
    N24      N        0.55990    0.00360    0.91620    1.000
    Zn4      Zn       0.74676    0.34245    0.81220    1.000
    Zn5      Zn       0.47020    0.63824    0.59205    1.000
    Zn6      Zn       0.95046    0.64096    0.57372    1.000
    C73      C        0.27750    0.04630    0.24080    1.000
    H49      H        0.30890    0.05110    0.23240    1.000
    C74      C        0.27360    0.01080    0.26878    1.000
    H50      H        0.30160    0.99160    0.27940    1.000
    C75      C        0.22770    0.00390    0.28108    1.000
    C76      C        0.18730    0.02700    0.26460    1.000
    H51      H        0.15550    0.01940    0.27230    1.000
    C77      C        0.19470    0.06180    0.23636    1.000
    H52      H        0.16720    0.07730    0.22480    1.000
    C78      C        0.22190    0.97630    0.31238    1.000
    C79      C        0.25740    0.94090    0.35543    1.000
    C80      C        0.17570    0.94340    0.35145    1.000
    C81      C        0.30200    0.92670    0.37318    1.000
    C82      C        0.34760    0.93950    0.36005    1.000
    H53      H        0.35020    0.95850    0.34020    1.000
    C83      C        0.38840    0.92360    0.37680    1.000
    H54      H        0.41930    0.93350    0.36810    1.000
    C84      C        0.34230    0.88420    0.41733    1.000
    H55      H        0.34050    0.86520    0.43720    1.000
    C85      C        0.30000    0.89980    0.40220    1.000
    H56      H        0.26960    0.89220    0.41160    1.000
    C86      C        0.12740    0.93210    0.36498    1.000
    C87      C        0.12250    0.91710    0.39469    1.000
    H57      H        0.15020    0.91630    0.40700    1.000
    C88      C        0.07640    0.90320    0.40615    1.000
    H58      H        0.07310    0.89530    0.42670    1.000
    C89      C        0.04090    0.91630    0.36089    1.000
    H59      H        0.01270    0.91650    0.34900    1.000
    C90      C        0.08570    0.93270    0.34792    1.000
    H60      H        0.08790    0.94420    0.32750    1.000
    C91      C        0.18980    0.12660    0.13397    1.000
    H61      H        0.18870    0.19580    0.13430    1.000
    C92      C        0.16820    0.07700    0.11111    1.000
    H62      H        0.15240    0.11220    0.09600    1.000
    C93      C        0.16950    0.97710    0.11028    1.000
    C94      C        0.19260    0.92820    0.13250    1.000
    H63      H        0.19440    0.85910    0.13250    1.000
    C95      C        0.21340    0.98170    0.15506    1.000
    H64      H        0.22890    0.94790    0.17060    1.000
    C96      C        0.14540    0.92350    0.08630    1.000
    C97      C        0.11020    0.92240    0.04211    1.000
    C98      C        0.11120    0.78530    0.06955    1.000
    C99      C        0.05030    0.98080    0.97063    1.000
    H65      H        0.03060    0.94910    0.95650    1.000
    C100     C        0.06480    0.92960    0.99450    1.000
    H66      H        0.05550    0.86340    0.99690    1.000
    C101     C        0.09320    0.97520    0.01543    1.000
    C102     C        0.10510    0.07270    0.01162    1.000
    H67      H        0.12400    0.10640    0.02570    1.000
    C103     C        0.08870    0.11930    0.98686    1.000
    H68      H        0.09630    0.18630    0.98430    1.000
    C104     C        0.06720    0.52940    0.05690    1.000
    H69      H        0.06090    0.48770    0.04080    1.000
    C105     C        0.08400    0.62370    0.05170    1.000
    H70      H        0.08810    0.64630    0.03230    1.000
    C106     C        0.09470    0.68400    0.07494    1.000
    C107     C        0.08790    0.64860    0.10310    1.000
    H71      H        0.09460    0.68810    0.11960    1.000
    C108     C        0.07120    0.55490    0.10630    1.000
    H72      H        0.06760    0.53000    0.12550    1.000
    I13      I        0.19521    0.31030    0.19608    1.000
    I14      I        0.33695    0.17193    0.17628    1.000
    I15      I        0.92334    0.78118    0.36681    1.000
    I16      I        0.98479    0.77862    0.45704    1.000
    I17      I        0.51697    0.95231    0.39959    1.000
    I18      I        0.44914    0.67495    0.43352    1.000
    N25      N        0.23900    0.07440    0.22471    1.000
    N26      N        0.26320    0.96380    0.32755    1.000
    N27      N        0.21450    0.93010    0.36895    1.000
    N28      N        0.17730    0.96650    0.32311    1.000
    N29      N        0.38640    0.89500    0.40470    1.000
    N30      N        0.03590    0.90030    0.38944    1.000
    N31      N        0.21240    0.07940    0.15570    1.000
    N32      N        0.13410    0.97300    0.06219    1.000
    N33      N        0.09830    0.82800    0.04434    1.000
    N34      N        0.13510    0.82930    0.09119    1.000
    N35      N        0.06270    0.07430    0.96624    1.000
    N36      N        0.05990    0.49640    0.08380    1.000
    Zn7      Zn       0.24676    0.15755    0.18780    1.000
    Zn8      Zn       0.97020    0.86176    0.40795    1.000
    Zn9      Zn       0.45046    0.85904    0.42628    1.000
    C109     C        0.22250    0.95370    0.74080    1.000
    H73      H        0.19110    0.94890    0.73240    1.000
    C110     C        0.22640    0.98920    0.76878    1.000
    H74      H        0.19840    0.00840    0.77940    1.000
    C111     C        0.27230    0.99610    0.78108    1.000
    C112     C        0.31270    0.97300    0.76460    1.000
    H75      H        0.34450    0.98060    0.77230    1.000
    C113     C        0.30530    0.93820    0.73636    1.000
    H76      H        0.33280    0.92270    0.72480    1.000
    C114     C        0.27810    0.02370    0.81238    1.000
    C115     C        0.24260    0.05910    0.85543    1.000
    C116     C        0.32430    0.05660    0.85145    1.000
    C117     C        0.19800    0.07330    0.87318    1.000
    C118     C        0.15240    0.06050    0.86005    1.000
    H77      H        0.14980    0.04150    0.84020    1.000
    C119     C        0.11160    0.07640    0.87680    1.000
    H78      H        0.08070    0.06650    0.86810    1.000
    C120     C        0.15770    0.11580    0.91733    1.000
    H79      H        0.15950    0.13480    0.93720    1.000
    C121     C        0.20000    0.10020    0.90220    1.000
    H80      H        0.23040    0.10780    0.91160    1.000
    C122     C        0.37260    0.06790    0.86498    1.000
    C123     C        0.37750    0.08290    0.89469    1.000
    H81      H        0.34980    0.08370    0.90700    1.000
    C124     C        0.42360    0.09680    0.90615    1.000
    H82      H        0.42690    0.10470    0.92670    1.000
    C125     C        0.45910    0.08370    0.86089    1.000
    H83      H        0.48730    0.08350    0.84900    1.000
    C126     C        0.41430    0.06730    0.84792    1.000
    H84      H        0.41210    0.05580    0.82750    1.000
    C127     C        0.31020    0.87340    0.63397    1.000
    H85      H        0.31130    0.80420    0.63430    1.000
    C128     C        0.33180    0.92300    0.61111    1.000
    H86      H        0.34760    0.88780    0.59600    1.000
    C129     C        0.33050    0.02290    0.61028    1.000
    C130     C        0.30740    0.07180    0.63250    1.000
    H87      H        0.30560    0.14090    0.63250    1.000
    C131     C        0.28660    0.01830    0.65506    1.000
    H88      H        0.27110    0.05210    0.67060    1.000
    C132     C        0.35460    0.07650    0.58630    1.000
    C133     C        0.38980    0.07760    0.54211    1.000
    C134     C        0.38880    0.21470    0.56955    1.000
    C135     C        0.44970    0.01920    0.47063    1.000
    H89      H        0.46940    0.05090    0.45650    1.000
    C136     C        0.43520    0.07040    0.49450    1.000
    H90      H        0.44450    0.13660    0.49690    1.000
    C137     C        0.40680    0.02480    0.51543    1.000
    C138     C        0.39490    0.92730    0.51162    1.000
    H91      H        0.37600    0.89360    0.52570    1.000
    C139     C        0.41130    0.88070    0.48686    1.000
    H92      H        0.40370    0.81370    0.48430    1.000
    C140     C        0.43280    0.47060    0.55690    1.000
    H93      H        0.43910    0.51230    0.54080    1.000
    C141     C        0.41600    0.37630    0.55170    1.000
    H94      H        0.41190    0.35370    0.53230    1.000
    C142     C        0.40530    0.31600    0.57494    1.000
    C143     C        0.41210    0.35140    0.60310    1.000
    H95      H        0.40540    0.31190    0.61960    1.000
    C144     C        0.42880    0.44510    0.60630    1.000
    H96      H        0.43240    0.47000    0.62550    1.000
    I19      I        0.30479    0.68970    0.69608    1.000
    I20      I        0.16305    0.82807    0.67629    1.000
    I21      I        0.57666    0.21882    0.86681    1.000
    I22      I        0.51521    0.22138    0.95704    1.000
    I23      I        0.98303    0.04769    0.89959    1.000
    I24      I        0.05086    0.32505    0.93352    1.000
    N37      N        0.26100    0.92560    0.72471    1.000
    N38      N        0.23680    0.03620    0.82755    1.000
    N39      N        0.28550    0.06990    0.86895    1.000
    N40      N        0.32270    0.03350    0.82311    1.000
    N41      N        0.11360    0.10500    0.90470    1.000
    N42      N        0.46410    0.09970    0.88944    1.000
    N43      N        0.28760    0.92060    0.65570    1.000
    N44      N        0.36590    0.02700    0.56219    1.000
    N45      N        0.40170    0.17200    0.54434    1.000
    N46      N        0.36490    0.17070    0.59119    1.000
    N47      N        0.43730    0.92570    0.46624    1.000
    N48      N        0.44010    0.50360    0.58380    1.000
    Zn10     Zn       0.25324    0.84245    0.68780    1.000
    Zn11     Zn       0.52980    0.13824    0.90795    1.000
    Zn12     Zn       0.04954    0.14096    0.92628    1.000
    C145     C        0.27750    0.45370    0.74080    1.000
    H97      H        0.30890    0.44890    0.73240    1.000
    C146     C        0.27360    0.48920    0.76878    1.000
    H98      H        0.30160    0.50840    0.77940    1.000
    C147     C        0.22770    0.49610    0.78108    1.000
    C148     C        0.18730    0.47300    0.76460    1.000
    H99      H        0.15550    0.48060    0.77230    1.000
    C149     C        0.19470    0.43820    0.73636    1.000
    H100     H        0.16720    0.42270    0.72480    1.000
    C150     C        0.22190    0.52370    0.81238    1.000
    C151     C        0.25740    0.55910    0.85543    1.000
    C152     C        0.17570    0.55660    0.85145    1.000
    C153     C        0.30200    0.57330    0.87318    1.000
    C154     C        0.34760    0.56050    0.86005    1.000
    H101     H        0.35020    0.54150    0.84020    1.000
    C155     C        0.38840    0.57640    0.87680    1.000
    H102     H        0.41930    0.56650    0.86810    1.000
    C156     C        0.34230    0.61580    0.91733    1.000
    H103     H        0.34050    0.63480    0.93720    1.000
    C157     C        0.30000    0.60020    0.90220    1.000
    H104     H        0.26960    0.60780    0.91160    1.000
    C158     C        0.12740    0.56790    0.86498    1.000
    C159     C        0.12250    0.58290    0.89469    1.000
    H105     H        0.15020    0.58370    0.90700    1.000
    C160     C        0.07640    0.59680    0.90615    1.000
    H106     H        0.07310    0.60470    0.92670    1.000
    C161     C        0.04090    0.58370    0.86089    1.000
    H107     H        0.01270    0.58350    0.84900    1.000
    C162     C        0.08570    0.56730    0.84792    1.000
    H108     H        0.08790    0.55580    0.82750    1.000
    C163     C        0.18980    0.37340    0.63397    1.000
    H109     H        0.18870    0.30420    0.63430    1.000
    C164     C        0.16820    0.42300    0.61111    1.000
    H110     H        0.15240    0.38780    0.59600    1.000
    C165     C        0.16950    0.52290    0.61028    1.000
    C166     C        0.19260    0.57180    0.63250    1.000
    H111     H        0.19440    0.64090    0.63250    1.000
    C167     C        0.21340    0.51830    0.65506    1.000
    H112     H        0.22890    0.55210    0.67060    1.000
    C168     C        0.14540    0.57650    0.58630    1.000
    C169     C        0.11020    0.57760    0.54211    1.000
    C170     C        0.11120    0.71470    0.56955    1.000
    C171     C        0.05030    0.51920    0.47063    1.000
    H113     H        0.03060    0.55090    0.45650    1.000
    C172     C        0.06480    0.57040    0.49450    1.000
    H114     H        0.05550    0.63660    0.49690    1.000
    C173     C        0.09320    0.52480    0.51543    1.000
    C174     C        0.10510    0.42730    0.51162    1.000
    H115     H        0.12400    0.39360    0.52570    1.000
    C175     C        0.08870    0.38070    0.48686    1.000
    H116     H        0.09630    0.31370    0.48430    1.000
    C176     C        0.06720    0.97060    0.55690    1.000
    H117     H        0.06090    0.01230    0.54080    1.000
    C177     C        0.08400    0.87630    0.55170    1.000
    H118     H        0.08810    0.85370    0.53230    1.000
    C178     C        0.09470    0.81600    0.57494    1.000
    C179     C        0.08790    0.85140    0.60310    1.000
    H119     H        0.09460    0.81190    0.61960    1.000
    C180     C        0.07120    0.94510    0.60630    1.000
    H120     H        0.06760    0.97000    0.62550    1.000
    I25      I        0.19521    0.18970    0.69608    1.000
    I26      I        0.33695    0.32807    0.67629    1.000
    I27      I        0.92334    0.71882    0.86681    1.000
    I28      I        0.98479    0.72138    0.95704    1.000
    I29      I        0.51697    0.54769    0.89959    1.000
    I30      I        0.44914    0.82505    0.93352    1.000
    N49      N        0.23900    0.42560    0.72471    1.000
    N50      N        0.26320    0.53620    0.82755    1.000
    N51      N        0.21450    0.56990    0.86895    1.000
    N52      N        0.17730    0.53350    0.82311    1.000
    N53      N        0.38640    0.60500    0.90470    1.000
    N54      N        0.03590    0.59970    0.88944    1.000
    N55      N        0.21240    0.42060    0.65570    1.000
    N56      N        0.13410    0.52700    0.56219    1.000
    N57      N        0.09830    0.67200    0.54434    1.000
    N58      N        0.13510    0.67070    0.59119    1.000
    N59      N        0.06270    0.42570    0.46624    1.000
    N60      N        0.05990    0.00360    0.58380    1.000
    Zn13     Zn       0.24676    0.34245    0.68780    1.000
    Zn14     Zn       0.97020    0.63824    0.90795    1.000
    Zn15     Zn       0.45046    0.64096    0.92628    1.000
    C181     C        0.22250    0.54630    0.24080    1.000
    H121     H        0.19110    0.55110    0.23240    1.000
    C182     C        0.22640    0.51080    0.26878    1.000
    H122     H        0.19840    0.49160    0.27940    1.000
    C183     C        0.27230    0.50390    0.28108    1.000
    C184     C        0.31270    0.52700    0.26460    1.000
    H123     H        0.34450    0.51940    0.27230    1.000
    C185     C        0.30530    0.56180    0.23636    1.000
    H124     H        0.33280    0.57730    0.22480    1.000
    C186     C        0.27810    0.47630    0.31238    1.000
    C187     C        0.24260    0.44090    0.35543    1.000
    C188     C        0.32430    0.44340    0.35145    1.000
    C189     C        0.19800    0.42670    0.37318    1.000
    C190     C        0.15240    0.43950    0.36005    1.000
    H125     H        0.14980    0.45850    0.34020    1.000
    C191     C        0.11160    0.42360    0.37680    1.000
    H126     H        0.08070    0.43350    0.36810    1.000
    C192     C        0.15770    0.38420    0.41733    1.000
    H127     H        0.15950    0.36520    0.43720    1.000
    C193     C        0.20000    0.39980    0.40220    1.000
    H128     H        0.23040    0.39220    0.41160    1.000
    C194     C        0.37260    0.43210    0.36498    1.000
    C195     C        0.37750    0.41710    0.39469    1.000
    H129     H        0.34980    0.41630    0.40700    1.000
    C196     C        0.42360    0.40320    0.40615    1.000
    H130     H        0.42690    0.39530    0.42670    1.000
    C197     C        0.45910    0.41630    0.36089    1.000
    H131     H        0.48730    0.41650    0.34900    1.000
    C198     C        0.41430    0.43270    0.34792    1.000
    H132     H        0.41210    0.44420    0.32750    1.000
    C199     C        0.31020    0.62660    0.13397    1.000
    H133     H        0.31130    0.69580    0.13430    1.000
    C200     C        0.33180    0.57700    0.11111    1.000
    H134     H        0.34760    0.61220    0.09600    1.000
    C201     C        0.33050    0.47710    0.11028    1.000
    C202     C        0.30740    0.42820    0.13250    1.000
    H135     H        0.30560    0.35910    0.13250    1.000
    C203     C        0.28660    0.48170    0.15506    1.000
    H136     H        0.27110    0.44790    0.17060    1.000
    C204     C        0.35460    0.42350    0.08630    1.000
    C205     C        0.38980    0.42240    0.04211    1.000
    C206     C        0.38880    0.28530    0.06955    1.000
    C207     C        0.44970    0.48080    0.97063    1.000
    H137     H        0.46940    0.44910    0.95650    1.000
    C208     C        0.43520    0.42960    0.99450    1.000
    H138     H        0.44450    0.36340    0.99690    1.000
    C209     C        0.40680    0.47520    0.01543    1.000
    C210     C        0.39490    0.57270    0.01162    1.000
    H139     H        0.37600    0.60640    0.02570    1.000
    C211     C        0.41130    0.61930    0.98686    1.000
    H140     H        0.40370    0.68630    0.98430    1.000
    C212     C        0.43280    0.02940    0.05690    1.000
    H141     H        0.43910    0.98770    0.04080    1.000
    C213     C        0.41600    0.12370    0.05170    1.000
    H142     H        0.41190    0.14630    0.03230    1.000
    C214     C        0.40530    0.18400    0.07494    1.000
    C215     C        0.41210    0.14860    0.10310    1.000
    H143     H        0.40540    0.18810    0.11960    1.000
    C216     C        0.42880    0.05490    0.10630    1.000
    H144     H        0.43240    0.03000    0.12550    1.000
    I31      I        0.30479    0.81030    0.19608    1.000
    I32      I        0.16305    0.67193    0.17628    1.000
    I33      I        0.57666    0.28118    0.36681    1.000
    I34      I        0.51521    0.27862    0.45704    1.000
    I35      I        0.98303    0.45231    0.39959    1.000
    I36      I        0.05086    0.17495    0.43352    1.000
    N61      N        0.26100    0.57440    0.22471    1.000
    N62      N        0.23680    0.46380    0.32755    1.000
    N63      N        0.28550    0.43010    0.36895    1.000
    N64      N        0.32270    0.46650    0.32311    1.000
    N65      N        0.11360    0.39500    0.40470    1.000
    N66      N        0.46410    0.40030    0.38944    1.000
    N67      N        0.28760    0.57940    0.15570    1.000
    N68      N        0.36590    0.47300    0.06219    1.000
    N69      N        0.40170    0.32800    0.04434    1.000
    N70      N        0.36490    0.32930    0.09119    1.000
    N71      N        0.43730    0.57430    0.96624    1.000
    N72      N        0.44010    0.99640    0.08380    1.000
    Zn16     Zn       0.25324    0.65755    0.18780    1.000
    Zn17     Zn       0.52980    0.36176    0.40795    1.000
    Zn18     Zn       0.04954    0.35904    0.42628    1.000
    C217     C        0.72250    0.95370    0.75920    1.000
    H145     H        0.69110    0.94890    0.76760    1.000
    C218     C        0.72640    0.98920    0.73122    1.000
    H146     H        0.69840    0.00840    0.72060    1.000
    C219     C        0.77230    0.99610    0.71892    1.000
    C220     C        0.81270    0.97300    0.73540    1.000
    H147     H        0.84450    0.98060    0.72770    1.000
    C221     C        0.80530    0.93820    0.76364    1.000
    H148     H        0.83280    0.92270    0.77520    1.000
    C222     C        0.77810    0.02370    0.68762    1.000
    C223     C        0.74260    0.05910    0.64457    1.000
    C224     C        0.82430    0.05660    0.64855    1.000
    C225     C        0.69800    0.07330    0.62682    1.000
    C226     C        0.65240    0.06050    0.63995    1.000
    H149     H        0.64980    0.04150    0.65980    1.000
    C227     C        0.61160    0.07640    0.62320    1.000
    H150     H        0.58070    0.06650    0.63190    1.000
    C228     C        0.65770    0.11580    0.58267    1.000
    H151     H        0.65950    0.13480    0.56280    1.000
    C229     C        0.70000    0.10020    0.59780    1.000
    H152     H        0.73040    0.10780    0.58840    1.000
    C230     C        0.87260    0.06790    0.63502    1.000
    C231     C        0.87750    0.08290    0.60531    1.000
    H153     H        0.84980    0.08370    0.59300    1.000
    C232     C        0.92360    0.09680    0.59385    1.000
    H154     H        0.92690    0.10470    0.57330    1.000
    C233     C        0.95910    0.08370    0.63911    1.000
    H155     H        0.98730    0.08350    0.65100    1.000
    C234     C        0.91430    0.06730    0.65208    1.000
    H156     H        0.91210    0.05580    0.67250    1.000
    C235     C        0.81020    0.87340    0.86603    1.000
    H157     H        0.81130    0.80420    0.86570    1.000
    C236     C        0.83180    0.92300    0.88889    1.000
    H158     H        0.84760    0.88780    0.90400    1.000
    C237     C        0.83050    0.02290    0.88972    1.000
    C238     C        0.80740    0.07180    0.86750    1.000
    H159     H        0.80560    0.14090    0.86750    1.000
    C239     C        0.78660    0.01830    0.84494    1.000
    H160     H        0.77110    0.05210    0.82940    1.000
    C240     C        0.85460    0.07650    0.91370    1.000
    C241     C        0.88980    0.07760    0.95789    1.000
    C242     C        0.88880    0.21470    0.93045    1.000
    C243     C        0.94970    0.01920    0.02937    1.000
    H161     H        0.96940    0.05090    0.04350    1.000
    C244     C        0.93520    0.07040    0.00550    1.000
    H162     H        0.94450    0.13660    0.00310    1.000
    C245     C        0.90680    0.02480    0.98457    1.000
    C246     C        0.89490    0.92730    0.98838    1.000
    H163     H        0.87600    0.89360    0.97430    1.000
    C247     C        0.91130    0.88070    0.01314    1.000
    H164     H        0.90370    0.81370    0.01570    1.000
    C248     C        0.93280    0.47060    0.94310    1.000
    H165     H        0.93910    0.51230    0.95920    1.000
    C249     C        0.91600    0.37630    0.94830    1.000
    H166     H        0.91190    0.35370    0.96770    1.000
    C250     C        0.90530    0.31600    0.92506    1.000
    C251     C        0.91210    0.35140    0.89690    1.000
    H167     H        0.90540    0.31190    0.88040    1.000
    C252     C        0.92880    0.44510    0.89370    1.000
    H168     H        0.93240    0.47000    0.87450    1.000
    I37      I        0.80479    0.68970    0.80392    1.000
    I38      I        0.66305    0.82807    0.82371    1.000
    I39      I        0.07666    0.21882    0.63319    1.000
    I40      I        0.01521    0.22138    0.54296    1.000
    I41      I        0.48303    0.04769    0.60041    1.000
    I42      I        0.55086    0.32505    0.56648    1.000
    N73      N        0.76100    0.92560    0.77529    1.000
    N74      N        0.73680    0.03620    0.67245    1.000
    N75      N        0.78550    0.06990    0.63105    1.000
    N76      N        0.82270    0.03350    0.67689    1.000
    N77      N        0.61360    0.10500    0.59530    1.000
    N78      N        0.96410    0.09970    0.61056    1.000
    N79      N        0.78760    0.92060    0.84430    1.000
    N80      N        0.86590    0.02700    0.93781    1.000
    N81      N        0.90170    0.17200    0.95566    1.000
    N82      N        0.86490    0.17070    0.90881    1.000
    N83      N        0.93730    0.92570    0.03376    1.000
    N84      N        0.94010    0.50360    0.91620    1.000
    Zn19     Zn       0.75324    0.84245    0.81220    1.000
    Zn20     Zn       0.02980    0.13824    0.59205    1.000
    Zn21     Zn       0.54954    0.14096    0.57372    1.000
    C253     C        0.77750    0.04630    0.25920    1.000
    H169     H        0.80890    0.05110    0.26760    1.000
    C254     C        0.77360    0.01080    0.23122    1.000
    H170     H        0.80160    0.99160    0.22060    1.000
    C255     C        0.72770    0.00390    0.21892    1.000
    C256     C        0.68730    0.02700    0.23540    1.000
    H171     H        0.65550    0.01940    0.22770    1.000
    C257     C        0.69470    0.06180    0.26364    1.000
    H172     H        0.66720    0.07730    0.27520    1.000
    C258     C        0.72190    0.97630    0.18762    1.000
    C259     C        0.75740    0.94090    0.14457    1.000
    C260     C        0.67570    0.94340    0.14855    1.000
    C261     C        0.80200    0.92670    0.12682    1.000
    C262     C        0.84760    0.93950    0.13995    1.000
    H173     H        0.85020    0.95850    0.15980    1.000
    C263     C        0.88840    0.92360    0.12320    1.000
    H174     H        0.91930    0.93350    0.13190    1.000
    C264     C        0.84230    0.88420    0.08267    1.000
    H175     H        0.84050    0.86520    0.06280    1.000
    C265     C        0.80000    0.89980    0.09780    1.000
    H176     H        0.76960    0.89220    0.08840    1.000
    C266     C        0.62740    0.93210    0.13502    1.000
    C267     C        0.62250    0.91710    0.10531    1.000
    H177     H        0.65020    0.91630    0.09300    1.000
    C268     C        0.57640    0.90320    0.09385    1.000
    H178     H        0.57310    0.89530    0.07330    1.000
    C269     C        0.54090    0.91630    0.13911    1.000
    H179     H        0.51270    0.91650    0.15100    1.000
    C270     C        0.58570    0.93270    0.15208    1.000
    H180     H        0.58790    0.94420    0.17250    1.000
    C271     C        0.68980    0.12660    0.36603    1.000
    H181     H        0.68870    0.19580    0.36570    1.000
    C272     C        0.66820    0.07700    0.38889    1.000
    H182     H        0.65240    0.11220    0.40400    1.000
    C273     C        0.66950    0.97710    0.38972    1.000
    C274     C        0.69260    0.92820    0.36750    1.000
    H183     H        0.69440    0.85910    0.36750    1.000
    C275     C        0.71340    0.98170    0.34494    1.000
    H184     H        0.72890    0.94790    0.32940    1.000
    C276     C        0.64540    0.92350    0.41370    1.000
    C277     C        0.61020    0.92240    0.45789    1.000
    C278     C        0.61120    0.78530    0.43045    1.000
    C279     C        0.55030    0.98080    0.52937    1.000
    H185     H        0.53060    0.94910    0.54350    1.000
    C280     C        0.56480    0.92960    0.50550    1.000
    H186     H        0.55550    0.86340    0.50310    1.000
    C281     C        0.59320    0.97520    0.48457    1.000
    C282     C        0.60510    0.07270    0.48838    1.000
    H187     H        0.62400    0.10640    0.47430    1.000
    C283     C        0.58870    0.11930    0.51314    1.000
    H188     H        0.59630    0.18630    0.51570    1.000
    C284     C        0.56720    0.52940    0.44310    1.000
    H189     H        0.56090    0.48770    0.45920    1.000
    C285     C        0.58400    0.62370    0.44830    1.000
    H190     H        0.58810    0.64630    0.46770    1.000
    C286     C        0.59470    0.68400    0.42506    1.000
    C287     C        0.58790    0.64860    0.39690    1.000
    H191     H        0.59460    0.68810    0.38040    1.000
    C288     C        0.57120    0.55490    0.39370    1.000
    H192     H        0.56760    0.53000    0.37450    1.000
    I43      I        0.69521    0.31030    0.30392    1.000
    I44      I        0.83695    0.17193    0.32371    1.000
    I45      I        0.42334    0.78118    0.13319    1.000
    I46      I        0.48479    0.77862    0.04296    1.000
    I47      I        0.01697    0.95231    0.10041    1.000
    I48      I        0.94914    0.67495    0.06648    1.000
    N85      N        0.73900    0.07440    0.27529    1.000
    N86      N        0.76320    0.96380    0.17245    1.000
    N87      N        0.71450    0.93010    0.13105    1.000
    N88      N        0.67730    0.96650    0.17689    1.000
    N89      N        0.88640    0.89500    0.09530    1.000
    N90      N        0.53590    0.90030    0.11056    1.000
    N91      N        0.71240    0.07940    0.34430    1.000
    N92      N        0.63410    0.97300    0.43781    1.000
    N93      N        0.59830    0.82800    0.45566    1.000
    N94      N        0.63510    0.82930    0.40881    1.000
    N95      N        0.56270    0.07430    0.53376    1.000
    N96      N        0.55990    0.49640    0.41620    1.000
    Zn22     Zn       0.74676    0.15755    0.31220    1.000
    Zn23     Zn       0.47020    0.86176    0.09205    1.000
    Zn24     Zn       0.95046    0.85904    0.07372    1.000
