data_functionalizedCrystal
_audit_creation_method	'EQeq! by Chris Wilmer'
_symmetry_space_group_name_H-M	'P1'
_symmetry_Int_Tables_number	1
_symmetry_cell_setting	triclinic
loop_
_symmetry_equiv_pos_as_xyz
  x,y,z
_cell_length_a	11.2655
_cell_length_b	11.9962
_cell_length_c	12.5019
_cell_angle_alpha	90
_cell_angle_beta	94.294
_cell_angle_gamma	90
loop_
_atom_site_label
_atom_site_type_symbol
_atom_site_fract_x
_atom_site_fract_y
_atom_site_fract_z
_atom_site_charge
Mof_Zn	Zn	0.15934	0.52578	0.48153	1.238
Mof_S 	S 	0.76197	0.53372	0.28456	0.516
Mof_C 	C 	0.42507	0.63356	0.31654	-0.08
Mof_C 	C 	0.41209	0.72208	0.24532	0.053
Mof_H 	H 	0.3401	0.7602	0.2374	0.059
Mof_C 	C 	0.50562	0.75449	0.18561	-0.107
Mof_C 	C 	0.61277	0.69696	0.19678	0.064
Mof_H 	H 	0.6754	0.7176	0.1566	0.055
Mof_C 	C 	0.62587	0.60879	0.26812	-0.088
Mof_C 	C 	0.53317	0.57749	0.3288	0.043
Mof_H 	H 	0.5434	0.5191	0.3776	0.059
Mof_C 	C 	0.3236	0.5984	0.37899	0.32
Mof_C 	C 	0.49201	0.85135	0.1101	0.409
Mof_O 	O 	0.22645	0.64719	0.36615	-0.339
Mof_O 	O 	0.33714	0.51875	0.44392	-0.376
Mof_O 	O 	0.56036	0.85563	0.03567	-0.461
Mof_O 	O 	0.41181	0.92124	0.12643	-0.444
Mof_O 	O 	0.81864	0.57261	0.3883	-0.413
Mof_O 	O 	0.73054	0.41834	0.2882	-0.273
Mof_O 	O 	0.83052	0.5651	0.19739	-0.226
Mof_Zn	Zn	0.34066	0.02578	0.01847	1.236
Mof_S 	S 	0.73803	0.03372	0.21544	0.511
Mof_C 	C 	0.07493	0.13356	0.18346	-0.083
Mof_C 	C 	0.08791	0.22208	0.25468	0.053
Mof_H 	H 	0.1599	0.2602	0.2626	0.059
Mof_C 	C 	0.99438	0.25449	0.31439	-0.106
Mof_C 	C 	0.88723	0.19696	0.30322	0.064
Mof_H 	H 	0.8246	0.2176	0.3434	0.055
Mof_C 	C 	0.87413	0.10879	0.23188	-0.089
Mof_C 	C 	0.96683	0.07749	0.1712	0.045
Mof_H 	H 	0.9566	0.0191	0.1224	0.058
Mof_C 	C 	0.1764	0.0984	0.12101	0.321
Mof_C 	C 	0.00799	0.35135	0.3899	0.408
Mof_O 	O 	0.27355	0.14719	0.13385	-0.342
Mof_O 	O 	0.16286	0.01875	0.05608	-0.38
Mof_O 	O 	0.93964	0.35563	0.46433	-0.465
Mof_O 	O 	0.08819	0.42124	0.37357	-0.448
Mof_O 	O 	0.68136	0.07261	0.1117	-0.415
Mof_O 	O 	0.76946	0.91834	0.2118	-0.267
Mof_O 	O 	0.66948	0.0651	0.30261	-0.226
Mof_Zn	Zn	0.84066	0.47422	0.51847	1.239
Mof_S 	S 	0.23803	0.46628	0.71544	0.517
Mof_C 	C 	0.57493	0.36644	0.68346	-0.079
Mof_C 	C 	0.58791	0.27792	0.75468	0.054
Mof_H 	H 	0.6599	0.2398	0.7626	0.059
Mof_C 	C 	0.49438	0.24551	0.81439	-0.107
Mof_C 	C 	0.38723	0.30304	0.80322	0.064
Mof_H 	H 	0.3246	0.2824	0.8434	0.055
Mof_C 	C 	0.37413	0.39121	0.73188	-0.088
Mof_C 	C 	0.46683	0.42251	0.6712	0.043
Mof_H 	H 	0.4566	0.4809	0.6224	0.059
Mof_C 	C 	0.6764	0.4016	0.62101	0.32
Mof_C 	C 	0.50799	0.14865	0.8899	0.409
Mof_O 	O 	0.77355	0.35281	0.63385	-0.339
Mof_O 	O 	0.66286	0.48125	0.55608	-0.376
Mof_O 	O 	0.43964	0.14437	0.96433	-0.461
Mof_O 	O 	0.58819	0.07876	0.87357	-0.444
Mof_O 	O 	0.18136	0.42739	0.6117	-0.413
Mof_O 	O 	0.26946	0.58166	0.7118	-0.273
Mof_O 	O 	0.16948	0.4349	0.80261	-0.226
Mof_Zn	Zn	0.65934	0.97422	0.98153	1.236
Mof_S 	S 	0.26197	0.96628	0.78456	0.511
Mof_C 	C 	0.92507	0.86644	0.81654	-0.083
Mof_C 	C 	0.91209	0.77792	0.74532	0.053
Mof_H 	H 	0.8401	0.7398	0.7374	0.059
Mof_C 	C 	0.00562	0.74551	0.68561	-0.106
Mof_C 	C 	0.11277	0.80304	0.69678	0.064
Mof_H 	H 	0.1754	0.7824	0.6566	0.055
Mof_C 	C 	0.12587	0.89121	0.76812	-0.089
Mof_C 	C 	0.03317	0.92251	0.8288	0.045
Mof_H 	H 	0.0434	0.9809	0.8776	0.058
Mof_C 	C 	0.8236	0.9016	0.87899	0.321
Mof_C 	C 	0.99201	0.64865	0.6101	0.408
Mof_O 	O 	0.72645	0.85281	0.86615	-0.342
Mof_O 	O 	0.83714	0.98125	0.94392	-0.38
Mof_O 	O 	0.06036	0.64437	0.53567	-0.465
Mof_O 	O 	0.91181	0.57876	0.62643	-0.448
Mof_O 	O 	0.31864	0.92739	0.8883	-0.415
Mof_O 	O 	0.23054	0.08166	0.7882	-0.267
Mof_O 	O 	0.33052	0.9349	0.69739	-0.226
_end
