# CIF file generated by openbabel 3.1.0, see https://openbabel.org
data_I
_chemical_name_common 'image0'
_cell_length_a 10.902
_cell_length_b 16.715
_cell_length_c 19.201
_cell_angle_alpha 90
_cell_angle_beta 90
_cell_angle_gamma 90
_space_group_name_H-M_alt 'P 1'
_space_group_name_Hall 'P 1'
loop_
    _symmetry_equiv_pos_as_xyz
    x,y,z
loop_
    _atom_site_label
    _atom_site_type_symbol
    _atom_site_fract_x
    _atom_site_fract_y
    _atom_site_fract_z
    _atom_site_occupancy
    O1       O        0.86510    0.85200    0.31350    1.000
    O2       O        0.72010    0.84450    0.39320    1.000
    C1       C        0.98600    0.17670    0.49110    1.000
    H1       H        0.97480    0.17400    0.54120    1.000
    H2       H        0.07330    0.18060    0.48180    1.000
    C2       C        0.93540    0.10040    0.45760    1.000
    C3       C        0.98040    0.07580    0.39330    1.000
    H3       H        0.03850    0.10650    0.37010    1.000
    C4       C        0.93770    0.00470    0.36400    1.000
    H4       H        0.96650    0.98900    0.32050    1.000
    C5       C        0.85360    0.95720    0.39830    1.000
    C6       C        0.80820    0.98260    0.46280    1.000
    H5       H        0.74990    0.95200    0.48600    1.000
    C7       C        0.85080    0.05490    0.49280    1.000
    H6       H        0.82170    0.07150    0.53600    1.000
    C8       C        0.81220    0.88210    0.36760    1.000
    O3       O        0.63490    0.14800    0.81350    1.000
    O4       O        0.77990    0.15550    0.89320    1.000
    C9       C        0.51400    0.82330    0.99110    1.000
    H7       H        0.52520    0.82600    0.04120    1.000
    H8       H        0.42670    0.81940    0.98180    1.000
    C10      C        0.56460    0.89960    0.95760    1.000
    C11      C        0.51960    0.92420    0.89330    1.000
    H9       H        0.46150    0.89350    0.87010    1.000
    C12      C        0.56230    0.99530    0.86400    1.000
    H10      H        0.53350    0.01100    0.82050    1.000
    C13      C        0.64640    0.04280    0.89830    1.000
    C14      C        0.69180    0.01740    0.96280    1.000
    H11      H        0.75010    0.04800    0.98600    1.000
    C15      C        0.64920    0.94510    0.99280    1.000
    H12      H        0.67830    0.92850    0.03600    1.000
    C16      C        0.68780    0.11790    0.86760    1.000
    O5       O        0.13490    0.35200    0.68650    1.000
    O6       O        0.27990    0.34450    0.60680    1.000
    C17      C        0.01400    0.67670    0.50890    1.000
    H13      H        0.02520    0.67400    0.45880    1.000
    H14      H        0.92670    0.68060    0.51820    1.000
    C18      C        0.06460    0.60040    0.54240    1.000
    C19      C        0.01960    0.57580    0.60670    1.000
    H15      H        0.96150    0.60650    0.62990    1.000
    C20      C        0.06230    0.50470    0.63600    1.000
    H16      H        0.03350    0.48900    0.67950    1.000
    C21      C        0.14640    0.45720    0.60170    1.000
    C22      C        0.19180    0.48260    0.53720    1.000
    H17      H        0.25010    0.45200    0.51400    1.000
    C23      C        0.14920    0.55490    0.50720    1.000
    H18      H        0.17830    0.57150    0.46400    1.000
    C24      C        0.18780    0.38210    0.63240    1.000
    O7       O        0.36510    0.64800    0.18650    1.000
    O8       O        0.22010    0.65550    0.10680    1.000
    C25      C        0.48600    0.32330    0.00890    1.000
    H19      H        0.47480    0.32600    0.95880    1.000
    H20      H        0.57330    0.31940    0.01820    1.000
    C26      C        0.43540    0.39960    0.04240    1.000
    C27      C        0.48040    0.42420    0.10670    1.000
    H21      H        0.53850    0.39350    0.12990    1.000
    C28      C        0.43770    0.49530    0.13600    1.000
    H22      H        0.46650    0.51100    0.17950    1.000
    C29      C        0.35360    0.54280    0.10170    1.000
    C30      C        0.30820    0.51740    0.03720    1.000
    H23      H        0.24990    0.54800    0.01400    1.000
    C31      C        0.35080    0.44510    0.00720    1.000
    H24      H        0.32170    0.42850    0.96400    1.000
    C32      C        0.31220    0.61790    0.13240    1.000
    O9       O        0.13490    0.14800    0.68650    1.000
    O10      O        0.27990    0.15550    0.60680    1.000
    C33      C        0.01400    0.82330    0.50890    1.000
    H25      H        0.02520    0.82600    0.45880    1.000
    H26      H        0.92670    0.81940    0.51820    1.000
    C34      C        0.06460    0.89960    0.54240    1.000
    C35      C        0.01960    0.92420    0.60670    1.000
    H27      H        0.96150    0.89350    0.62990    1.000
    C36      C        0.06230    0.99530    0.63600    1.000
    H28      H        0.03350    0.01100    0.67950    1.000
    C37      C        0.14640    0.04280    0.60170    1.000
    C38      C        0.19180    0.01740    0.53720    1.000
    H29      H        0.25010    0.04800    0.51400    1.000
    C39      C        0.14920    0.94510    0.50720    1.000
    H30      H        0.17830    0.92850    0.46400    1.000
    C40      C        0.18780    0.11790    0.63240    1.000
    O11      O        0.36510    0.85200    0.18650    1.000
    O12      O        0.22010    0.84450    0.10680    1.000
    C41      C        0.48600    0.17670    0.00890    1.000
    H31      H        0.47480    0.17400    0.95880    1.000
    H32      H        0.57330    0.18060    0.01820    1.000
    C42      C        0.43540    0.10040    0.04240    1.000
    C43      C        0.48040    0.07580    0.10670    1.000
    H33      H        0.53850    0.10650    0.12990    1.000
    C44      C        0.43770    0.00470    0.13600    1.000
    H34      H        0.46650    0.98900    0.17950    1.000
    C45      C        0.35360    0.95720    0.10170    1.000
    C46      C        0.30820    0.98260    0.03720    1.000
    H35      H        0.24990    0.95200    0.01400    1.000
    C47      C        0.35080    0.05490    0.00720    1.000
    H36      H        0.32170    0.07150    0.96400    1.000
    C48      C        0.31220    0.88210    0.13240    1.000
    O13      O        0.86510    0.64800    0.31350    1.000
    O14      O        0.72010    0.65550    0.39320    1.000
    C49      C        0.98600    0.32330    0.49110    1.000
    H37      H        0.97480    0.32600    0.54120    1.000
    H38      H        0.07330    0.31940    0.48180    1.000
    C50      C        0.93540    0.39960    0.45760    1.000
    C51      C        0.98040    0.42420    0.39330    1.000
    H39      H        0.03850    0.39350    0.37010    1.000
    C52      C        0.93770    0.49530    0.36400    1.000
    H40      H        0.96650    0.51100    0.32050    1.000
    C53      C        0.85360    0.54280    0.39830    1.000
    C54      C        0.80820    0.51740    0.46280    1.000
    H41      H        0.74990    0.54800    0.48600    1.000
    C55      C        0.85080    0.44510    0.49280    1.000
    H42      H        0.82170    0.42850    0.53600    1.000
    C56      C        0.81220    0.61790    0.36760    1.000
    O15      O        0.63490    0.35200    0.81350    1.000
    O16      O        0.77990    0.34450    0.89320    1.000
    C57      C        0.51400    0.67670    0.99110    1.000
    H43      H        0.52520    0.67400    0.04120    1.000
    H44      H        0.42670    0.68060    0.98180    1.000
    C58      C        0.56460    0.60040    0.95760    1.000
    C59      C        0.51960    0.57580    0.89330    1.000
    H45      H        0.46150    0.60650    0.87010    1.000
    C60      C        0.56230    0.50470    0.86400    1.000
    H46      H        0.53350    0.48900    0.82050    1.000
    C61      C        0.64640    0.45720    0.89830    1.000
    C62      C        0.69180    0.48260    0.96280    1.000
    H47      H        0.75010    0.45200    0.98600    1.000
    C63      C        0.64920    0.55490    0.99280    1.000
    H48      H        0.67830    0.57150    0.03600    1.000
    C64      C        0.68780    0.38210    0.86760    1.000
    N1       N        0.92250    0.25000    0.46330    1.000
    Tb1      Tb       0.79233    0.25000    0.79635    1.000
    O17      O        0.68920    0.25000    0.69410    1.000
    O18      O        0.49000    0.25000    0.66400    1.000
    O19      O        0.84950    0.25000    0.33830    1.000
    H49      H        0.85440    0.25000    0.29570    1.000
    O20      O        0.64790    0.25000    0.31490    1.000
    C65      C        0.60650    0.25000    0.65140    1.000
    C66      C        0.63500    0.25000    0.57150    1.000
    C67      C        0.54440    0.25000    0.52290    1.000
    H50      H        0.46210    0.25000    0.53580    1.000
    C68      C        0.57870    0.25000    0.45440    1.000
    H51      H        0.51830    0.25000    0.42030    1.000
    C69      C        0.70200    0.25000    0.43420    1.000
    C70      C        0.79160    0.25000    0.48590    1.000
    C71      C        0.75790    0.25000    0.55360    1.000
    H52      H        0.81750    0.25000    0.58830    1.000
    C72      C        0.73030    0.25000    0.35730    1.000
    N2       N        0.57750    0.75000    0.96330    1.000
    Tb2      Tb       0.70767    0.75000    0.29635    1.000
    O21      O        0.81080    0.75000    0.19410    1.000
    O22      O        0.01000    0.75000    0.16400    1.000
    O23      O        0.65050    0.75000    0.83830    1.000
    H53      H        0.64560    0.75000    0.79570    1.000
    O24      O        0.85210    0.75000    0.81490    1.000
    C73      C        0.89350    0.75000    0.15140    1.000
    C74      C        0.86500    0.75000    0.07150    1.000
    C75      C        0.95560    0.75000    0.02290    1.000
    H54      H        0.03790    0.75000    0.03580    1.000
    C76      C        0.92130    0.75000    0.95440    1.000
    H55      H        0.98170    0.75000    0.92030    1.000
    C77      C        0.79800    0.75000    0.93420    1.000
    C78      C        0.70840    0.75000    0.98590    1.000
    C79      C        0.74210    0.75000    0.05360    1.000
    H56      H        0.68250    0.75000    0.08830    1.000
    C80      C        0.76970    0.75000    0.85730    1.000
    N3       N        0.07750    0.75000    0.53670    1.000
    Tb3      Tb       0.20767    0.75000    0.20365    1.000
    O25      O        0.31080    0.75000    0.30590    1.000
    O26      O        0.51000    0.75000    0.33600    1.000
    O27      O        0.15050    0.75000    0.66170    1.000
    H57      H        0.14560    0.75000    0.70430    1.000
    O28      O        0.35210    0.75000    0.68510    1.000
    C81      C        0.39350    0.75000    0.34860    1.000
    C82      C        0.36500    0.75000    0.42850    1.000
    C83      C        0.45560    0.75000    0.47710    1.000
    H58      H        0.53790    0.75000    0.46420    1.000
    C84      C        0.42130    0.75000    0.54560    1.000
    H59      H        0.48170    0.75000    0.57970    1.000
    C85      C        0.29800    0.75000    0.56580    1.000
    C86      C        0.20840    0.75000    0.51410    1.000
    C87      C        0.24210    0.75000    0.44640    1.000
    H60      H        0.18250    0.75000    0.41170    1.000
    C88      C        0.26970    0.75000    0.64270    1.000
    N4       N        0.42250    0.25000    0.03670    1.000
    Tb4      Tb       0.29233    0.25000    0.70365    1.000
    O29      O        0.18920    0.25000    0.80590    1.000
    O30      O        0.99000    0.25000    0.83600    1.000
    O31      O        0.34950    0.25000    0.16170    1.000
    H61      H        0.35440    0.25000    0.20430    1.000
    O32      O        0.14790    0.25000    0.18510    1.000
    C89      C        0.10650    0.25000    0.84860    1.000
    C90      C        0.13500    0.25000    0.92850    1.000
    C91      C        0.04440    0.25000    0.97710    1.000
    H62      H        0.96210    0.25000    0.96420    1.000
    C92      C        0.07870    0.25000    0.04560    1.000
    H63      H        0.01830    0.25000    0.07970    1.000
    C93      C        0.20200    0.25000    0.06580    1.000
    C94      C        0.29160    0.25000    0.01410    1.000
    C95      C        0.25790    0.25000    0.94640    1.000
    H64      H        0.31750    0.25000    0.91170    1.000
    C96      C        0.23030    0.25000    0.14270    1.000
