data_functionalizedCrystal
_audit_creation_method	'EQeq! by Chris Wilmer'
_symmetry_space_group_name_H-M	'P1'
_symmetry_Int_Tables_number	1
_symmetry_cell_setting	triclinic
loop_
_symmetry_equiv_pos_as_xyz
  x,y,z
_cell_length_a	11.671
_cell_length_b	11.8916
_cell_length_c	14.305
_cell_angle_alpha	110.633
_cell_angle_beta	99.92
_cell_angle_gamma	101.351
loop_
_atom_site_label
_atom_site_type_symbol
_atom_site_fract_x
_atom_site_fract_y
_atom_site_fract_z
_atom_site_charge
Mof_Er	Er	0.90152	0.0278	0.89531	2.05
Mof_Er	Er	0.5843	0.9184	0.56925	2.149
Mof_Er	Er	0.09848	0.9722	0.10469	2.05
Mof_Er	Er	0.4157	0.0816	0.43075	2.149
Mof_C 	C 	0.8949	0.7502	0.9015	0.606
Mof_C 	C 	0.8298	0.6121	0.8453	-0.237
Mof_C 	C 	0.7107	0.5667	0.8429	0.315
Mof_C 	C 	0.6468	0.443	0.7865	0.32
Mof_C 	C 	0.7018	0.3585	0.7298	-0.236
Mof_C 	C 	0.8218	0.4036	0.7338	0.313
Mof_C 	C 	0.8848	0.5285	0.7901	0.318
Mof_C 	C 	0.6281	0.2282	0.6569	0.591
Mof_C 	C 	0.1438	0.0327	0.8911	0.512
Mof_C 	C 	0.2661	0.0201	0.8797	-0.236
Mof_C 	C 	0.299	0.9117	0.8695	0.309
Mof_C 	C 	0.4115	0.9002	0.8555	0.319
Mof_C 	C 	0.4944	0.9958	0.8501	-0.273
Mof_C 	C 	0.4622	0.1039	0.8601	0.313
Mof_C 	C 	0.3509	0.1161	0.8746	0.312
Mof_C 	C 	0.6144	0.9832	0.8279	0.663
Mof_C 	C 	0.8688	0.9342	0.641	0.605
Mof_C 	C 	0.9859	0.9269	0.6125	-0.246
Mof_C 	C 	0.017	0.8164	0.5828	0.315
Mof_C 	C 	0.1305	0.8107	0.5705	0.322
Mof_C 	C 	0.2203	0.9182	0.5872	-0.239
Mof_C 	C 	0.1877	0.0296	0.616	0.306
Mof_C 	C 	0.0735	0.0332	0.6262	0.306
Mof_C 	C 	0.3433	0.9125	0.577	0.519
Mof_C 	C 	0.1051	0.2498	0.0985	0.606
Mof_C 	C 	0.1702	0.3879	0.1547	-0.237
Mof_C 	C 	0.2893	0.4333	0.1571	0.315
Mof_C 	C 	0.3532	0.557	0.2135	0.32
Mof_C 	C 	0.2982	0.6415	0.2702	-0.236
Mof_C 	C 	0.1782	0.5964	0.2662	0.313
Mof_C 	C 	0.1152	0.4715	0.2099	0.318
Mof_C 	C 	0.3719	0.7718	0.3431	0.591
Mof_C 	C 	0.8562	0.9673	0.1089	0.512
Mof_C 	C 	0.7339	0.9799	0.1203	-0.236
Mof_C 	C 	0.701	0.0883	0.1305	0.309
Mof_C 	C 	0.5885	0.0998	0.1445	0.319
Mof_C 	C 	0.5056	0.0042	0.1499	-0.273
Mof_C 	C 	0.5378	0.8961	0.1399	0.313
Mof_C 	C 	0.6491	0.8839	0.1254	0.312
Mof_C 	C 	0.3856	0.0168	0.1721	0.663
Mof_C 	C 	0.1312	0.0658	0.359	0.605
Mof_C 	C 	0.0141	0.0731	0.3875	-0.246
Mof_C 	C 	0.983	0.1836	0.4172	0.315
Mof_C 	C 	0.8695	0.1893	0.4295	0.322
Mof_C 	C 	0.7797	0.0818	0.4128	-0.239
Mof_C 	C 	0.8123	0.9704	0.384	0.306
Mof_C 	C 	0.9265	0.9668	0.3738	0.306
Mof_C 	C 	0.6567	0.0875	0.423	0.519
Mof_O 	O 	0.8491	0.8187	0.8665	-0.467
Mof_O 	O 	0.9841	0.7823	0.9771	-0.472
Mof_O 	O 	0.6654	0.1386	0.667	-0.454
Mof_O 	O 	0.5388	0.2222	0.5909	-0.48
Mof_O 	O 	0.0918	0.0887	0.8468	-0.367
Mof_O 	O 	0.0917	0.9815	0.9432	-0.578
Mof_O 	O 	0.702	0.0065	0.9029	-0.496
Mof_O 	O 	0.6182	0.9536	0.7369	-0.586
Mof_O 	O 	0.8623	0.9197	0.7218	-0.526
Mof_O 	O 	0.7883	0.9509	0.581	-0.482
Mof_O 	O 	0.4062	0.9927	0.5514	-0.614
Mof_O 	O 	0.3875	0.8335	0.5958	-0.385
Mof_O 	O 	0.1509	0.1813	0.1335	-0.467
Mof_O 	O 	0.0159	0.2177	0.0229	-0.472
Mof_O 	O 	0.3346	0.8614	0.333	-0.454
Mof_O 	O 	0.4612	0.7778	0.4091	-0.48
Mof_O 	O 	0.9082	0.9113	0.1532	-0.367
Mof_O 	O 	0.9083	0.0185	0.0568	-0.578
Mof_O 	O 	0.298	0.9935	0.0971	-0.496
Mof_O 	O 	0.3818	0.0464	0.2631	-0.586
Mof_O 	O 	0.1377	0.0803	0.2782	-0.526
Mof_O 	O 	0.2117	0.0491	0.419	-0.482
Mof_O 	O 	0.5938	0.0073	0.4486	-0.614
Mof_O 	O 	0.6125	0.1665	0.4042	-0.385
Mof_F 	F 	0.653	0.6438	0.8954	-0.332
Mof_F 	F 	0.5304	0.4048	0.7852	-0.311
Mof_F 	F 	0.8769	0.3276	0.6775	-0.353
Mof_F 	F 	0.9985	0.5685	0.786	-0.328
Mof_F 	F 	0.2211	0.8131	0.8691	-0.356
Mof_F 	F 	0.4384	0.793	0.845	-0.347
Mof_F 	F 	0.5402	0.1993	0.8547	-0.364
Mof_F 	F 	0.3269	0.224	0.8848	-0.311
Mof_F 	F 	0.9352	0.7104	0.5666	-0.339
Mof_F 	F 	0.1527	0.6996	0.5405	-0.325
Mof_F 	F 	0.2701	0.1378	0.6397	-0.368
Mof_F 	F 	0.0478	0.1431	0.6551	-0.355
Mof_F 	F 	0.347	0.3562	0.1046	-0.332
Mof_F 	F 	0.4696	0.5952	0.2148	-0.311
Mof_F 	F 	0.1231	0.6724	0.3225	-0.353
Mof_F 	F 	0.0015	0.4315	0.214	-0.328
Mof_F 	F 	0.7789	0.1869	0.1309	-0.356
Mof_F 	F 	0.5616	0.207	0.155	-0.347
Mof_F 	F 	0.4598	0.8007	0.1453	-0.364
Mof_F 	F 	0.6731	0.776	0.1152	-0.311
Mof_F 	F 	0.0648	0.2896	0.4334	-0.339
Mof_F 	F 	0.8473	0.3004	0.4595	-0.325
Mof_F 	F 	0.7299	0.8622	0.3603	-0.368
Mof_F 	F 	0.9522	0.8569	0.3449	-0.355
_end
