# CIF file generated by openbabel 3.1.0, see https://openbabel.org
data_I
_chemical_name_common 'MOXPEV_charged'
_cell_length_a 14.1838
_cell_length_b 14.1838
_cell_length_c 21.64
_cell_angle_alpha 93.5527
_cell_angle_beta 93.5527
_cell_angle_gamma 119.588
_space_group_name_H-M_alt 'P 1'
_space_group_name_Hall 'P 1'
loop_
    _symmetry_equiv_pos_as_xyz
    x,y,z
loop_
    _atom_site_label
    _atom_site_type_symbol
    _atom_site_fract_x
    _atom_site_fract_y
    _atom_site_fract_z
    _atom_site_occupancy
    Cu1      Cu       0.23287    0.98521    0.42960    1.000
    Cu2      Cu       0.01479    0.76713    0.07040    1.000
    Cu3      Cu       0.76713    0.01479    0.57040    1.000
    Cu4      Cu       0.98521    0.23287    0.92960    1.000
    H1       H        0.51230    0.88330    0.20820    1.000
    H2       H        0.40170    0.76990    0.19410    1.000
    H3       H        0.40540    0.83280    0.28850    1.000
    H4       H        0.34980    0.86760    0.37790    1.000
    H5       H        0.22480    0.02580    0.29890    1.000
    H6       H        0.27580    0.99200    0.20220    1.000
    H7       H        0.53170    0.74710    0.06420    1.000
    H8       H        0.50990    0.71470    0.13310    1.000
    H9       H        0.84110    0.98830    0.13420    1.000
    H10      H        0.97840    0.95860    0.10600    1.000
    H11      H        0.77210    0.64410    0.06720    1.000
    H12      H        0.63390    0.67290    0.09700    1.000
    H13      H        0.59270    0.99210    0.11820    1.000
    H14      H        0.47850    0.97550    0.08970    1.000
    H15      H        0.69780    0.11620    0.07880    1.000
    H16      H        0.86440    0.22540    0.04310    1.000
    H17      H        0.80020    0.01100    0.90270    1.000
    H18      H        0.63730    0.89370    0.93550    1.000
    H19      H        0.37300    0.75580    0.02900    1.000
    H20      H        0.31310    0.79170    0.07710    1.000
    H21      H        0.22410    0.46250    0.11870    1.000
    H22      H        0.08690    0.31430    0.06320    1.000
    H23      H        0.07780    0.47840    0.92720    1.000
    H24      H        0.20680    0.63400    0.98460    1.000
    H25      H        0.11670    0.48770    0.29180    1.000
    H26      H        0.23010    0.59830    0.30590    1.000
    H27      H        0.16720    0.59460    0.21150    1.000
    H28      H        0.13240    0.65020    0.12210    1.000
    H29      H        0.97420    0.77520    0.20110    1.000
    H30      H        0.00800    0.72420    0.29780    1.000
    H31      H        0.25290    0.46830    0.43580    1.000
    H32      H        0.28530    0.49010    0.36690    1.000
    H33      H        0.01170    0.15890    0.36580    1.000
    H34      H        0.04140    0.02160    0.39400    1.000
    H35      H        0.35590    0.22790    0.43280    1.000
    H36      H        0.32710    0.36610    0.40300    1.000
    H37      H        0.00790    0.40730    0.38180    1.000
    H38      H        0.02450    0.52150    0.41030    1.000
    H39      H        0.88380    0.30220    0.42120    1.000
    H40      H        0.77460    0.13560    0.45690    1.000
    H41      H        0.98900    0.19980    0.59730    1.000
    H42      H        0.10630    0.36270    0.56450    1.000
    H43      H        0.24420    0.62700    0.47100    1.000
    H44      H        0.20830    0.68690    0.42290    1.000
    H45      H        0.53750    0.77590    0.38130    1.000
    H46      H        0.68570    0.91310    0.43680    1.000
    H47      H        0.52160    0.92220    0.57280    1.000
    H48      H        0.36600    0.79320    0.51540    1.000
    H49      H        0.48770    0.11670    0.79180    1.000
    H50      H        0.59830    0.23010    0.80590    1.000
    H51      H        0.59460    0.16720    0.71150    1.000
    H52      H        0.65020    0.13240    0.62210    1.000
    H53      H        0.77520    0.97420    0.70110    1.000
    H54      H        0.72420    0.00800    0.79780    1.000
    H55      H        0.46830    0.25290    0.93580    1.000
    H56      H        0.49010    0.28530    0.86690    1.000
    H57      H        0.15890    0.01170    0.86580    1.000
    H58      H        0.02160    0.04140    0.89400    1.000
    H59      H        0.22790    0.35590    0.93280    1.000
    H60      H        0.36610    0.32710    0.90300    1.000
    H61      H        0.40730    0.00790    0.88180    1.000
    H62      H        0.52150    0.02450    0.91030    1.000
    H63      H        0.30220    0.88380    0.92120    1.000
    H64      H        0.13560    0.77460    0.95690    1.000
    H65      H        0.19980    0.98900    0.09730    1.000
    H66      H        0.36270    0.10630    0.06450    1.000
    H67      H        0.62700    0.24420    0.97100    1.000
    H68      H        0.68690    0.20830    0.92290    1.000
    H69      H        0.77590    0.53750    0.88130    1.000
    H70      H        0.91310    0.68570    0.93680    1.000
    H71      H        0.92220    0.52160    0.07280    1.000
    H72      H        0.79320    0.36600    0.01540    1.000
    H73      H        0.88330    0.51230    0.70820    1.000
    H74      H        0.76990    0.40170    0.69410    1.000
    H75      H        0.83280    0.40540    0.78850    1.000
    H76      H        0.86760    0.34980    0.87790    1.000
    H77      H        0.02580    0.22480    0.79890    1.000
    H78      H        0.99200    0.27580    0.70220    1.000
    H79      H        0.74710    0.53170    0.56420    1.000
    H80      H        0.71470    0.50990    0.63310    1.000
    H81      H        0.98830    0.84110    0.63420    1.000
    H82      H        0.95860    0.97840    0.60600    1.000
    H83      H        0.64410    0.77210    0.56720    1.000
    H84      H        0.67290    0.63390    0.59700    1.000
    H85      H        0.99210    0.59270    0.61820    1.000
    H86      H        0.97550    0.47850    0.58970    1.000
    H87      H        0.11620    0.69780    0.57880    1.000
    H88      H        0.22540    0.86440    0.54310    1.000
    H89      H        0.01100    0.80020    0.40270    1.000
    H90      H        0.89370    0.63730    0.43550    1.000
    H91      H        0.75580    0.37300    0.52900    1.000
    H92      H        0.79170    0.31310    0.57710    1.000
    H93      H        0.46250    0.22410    0.61870    1.000
    H94      H        0.31430    0.08690    0.56320    1.000
    H95      H        0.47840    0.07780    0.42720    1.000
    H96      H        0.63400    0.20680    0.48460    1.000
    C1       C        0.46932    0.83302    0.11216    1.000
    C2       C        0.44417    0.84271    0.18051    1.000
    C3       C        0.34946    0.91484    0.23844    1.000
    C4       C        0.36890    0.87300    0.28986    1.000
    C5       C        0.33353    0.89229    0.34159    1.000
    C6       C        0.25983    0.98447    0.29591    1.000
    C7       C        0.29253    0.96779    0.23851    1.000
    C8       C        0.53679    0.77559    0.10742    1.000
    C9       C        0.72210    0.83158    0.11483    1.000
    C10      C        0.82578    0.91772    0.12002    1.000
    C11      C        0.90770    0.89806    0.10389    1.000
    C12      C        0.78832    0.71502    0.08140    1.000
    C13      C        0.70467    0.73279    0.09792    1.000
    C14      C        0.52590    0.94352    0.09072    1.000
    C15      C        0.64856    0.99428    0.00949    1.000
    C16      C        0.71709    0.09291    0.04252    1.000
    C17      C        0.81696    0.15752    0.02021    1.000
    C18      C        0.78045    0.03313    0.93920    1.000
    C19      C        0.68184    0.96276    0.95775    1.000
    C20      C        0.36159    0.76137    0.07293    1.000
    C21      C        0.23307    0.56947    0.05781    1.000
    C22      C        0.19435    0.46869    0.08018    1.000
    C23      C        0.11449    0.38109    0.04607    1.000
    C24      C        0.10606    0.47472    0.96679    1.000
    C25      C        0.18457    0.56727    0.00108    1.000
    C26      C        0.16698    0.53068    0.38784    1.000
    C27      C        0.15729    0.55583    0.31949    1.000
    C28      C        0.08516    0.65054    0.26156    1.000
    C29      C        0.12700    0.63110    0.21014    1.000
    C30      C        0.10771    0.66647    0.15841    1.000
    C31      C        0.01553    0.74017    0.20409    1.000
    C32      C        0.03221    0.70747    0.26149    1.000
    C33      C        0.22441    0.46321    0.39258    1.000
    C34      C        0.16842    0.27790    0.38517    1.000
    C35      C        0.08228    0.17422    0.37998    1.000
    C36      C        0.10194    0.09230    0.39611    1.000
    C37      C        0.28498    0.21168    0.41860    1.000
    C38      C        0.26721    0.29533    0.40208    1.000
    C39      C        0.05648    0.47410    0.40928    1.000
    C40      C        0.00572    0.35144    0.49051    1.000
    C41      C        0.90709    0.28291    0.45748    1.000
    C42      C        0.84248    0.18304    0.47979    1.000
    C43      C        0.96687    0.21955    0.56080    1.000
    C44      C        0.03724    0.31816    0.54225    1.000
    C45      C        0.23863    0.63841    0.42707    1.000
    C46      C        0.43053    0.76693    0.44219    1.000
    C47      C        0.53131    0.80565    0.41982    1.000
    C48      C        0.61891    0.88551    0.45393    1.000
    C49      C        0.52528    0.89394    0.53321    1.000
    C50      C        0.43273    0.81543    0.49892    1.000
    C51      C        0.53068    0.16698    0.88784    1.000
    C52      C        0.55583    0.15729    0.81949    1.000
    C53      C        0.65054    0.08516    0.76156    1.000
    C54      C        0.63110    0.12700    0.71014    1.000
    C55      C        0.66647    0.10771    0.65841    1.000
    C56      C        0.74017    0.01553    0.70409    1.000
    C57      C        0.70747    0.03221    0.76149    1.000
    C58      C        0.46321    0.22441    0.89258    1.000
    C59      C        0.27790    0.16842    0.88517    1.000
    C60      C        0.17422    0.08228    0.87998    1.000
    C61      C        0.09230    0.10194    0.89611    1.000
    C62      C        0.21168    0.28498    0.91860    1.000
    C63      C        0.29533    0.26721    0.90208    1.000
    C64      C        0.47410    0.05648    0.90928    1.000
    C65      C        0.35144    0.00572    0.99051    1.000
    C66      C        0.28291    0.90709    0.95748    1.000
    C67      C        0.18304    0.84248    0.97979    1.000
    C68      C        0.21955    0.96687    0.06080    1.000
    C69      C        0.31816    0.03724    0.04225    1.000
    C70      C        0.63841    0.23863    0.92707    1.000
    C71      C        0.76693    0.43053    0.94219    1.000
    C72      C        0.80565    0.53131    0.91982    1.000
    C73      C        0.88551    0.61891    0.95393    1.000
    C74      C        0.89394    0.52528    0.03321    1.000
    C75      C        0.81543    0.43273    0.99892    1.000
    C76      C        0.83302    0.46932    0.61216    1.000
    C77      C        0.84271    0.44417    0.68051    1.000
    C78      C        0.91484    0.34946    0.73844    1.000
    C79      C        0.87300    0.36890    0.78986    1.000
    C80      C        0.89229    0.33353    0.84159    1.000
    C81      C        0.98447    0.25983    0.79591    1.000
    C82      C        0.96779    0.29253    0.73851    1.000
    C83      C        0.77559    0.53679    0.60742    1.000
    C84      C        0.83158    0.72210    0.61483    1.000
    C85      C        0.91772    0.82578    0.62002    1.000
    C86      C        0.89806    0.90770    0.60389    1.000
    C87      C        0.71502    0.78832    0.58140    1.000
    C88      C        0.73279    0.70467    0.59792    1.000
    C89      C        0.94352    0.52590    0.59072    1.000
    C90      C        0.99428    0.64856    0.50949    1.000
    C91      C        0.09291    0.71709    0.54252    1.000
    C92      C        0.15752    0.81696    0.52021    1.000
    C93      C        0.03313    0.78045    0.43920    1.000
    C94      C        0.96276    0.68184    0.45775    1.000
    C95      C        0.76137    0.36159    0.57293    1.000
    C96      C        0.56947    0.23307    0.55781    1.000
    C97      C        0.46869    0.19435    0.58018    1.000
    C98      C        0.38109    0.11449    0.54607    1.000
    C99      C        0.47472    0.10606    0.46679    1.000
    C100     C        0.56727    0.18457    0.50108    1.000
    N1       N        0.27687    0.94357    0.34654    1.000
    N2       N        0.89526    0.80020    0.08554    1.000
    N3       N        0.85164    0.13164    0.96888    1.000
    N4       N        0.06963    0.37985    0.98907    1.000
    N5       N        0.05643    0.72313    0.15346    1.000
    N6       N        0.19980    0.10474    0.41446    1.000
    N7       N        0.86836    0.14836    0.53112    1.000
    N8       N        0.62015    0.93037    0.51093    1.000
    N9       N        0.72313    0.05643    0.65346    1.000
    N10      N        0.10474    0.19980    0.91446    1.000
    N11      N        0.14836    0.86836    0.03112    1.000
    N12      N        0.93037    0.62015    0.01093    1.000
    N13      N        0.94357    0.27687    0.84654    1.000
    N14      N        0.80020    0.89526    0.58554    1.000
    N15      N        0.13164    0.85164    0.46888    1.000
    N16      N        0.37985    0.06963    0.48907    1.000
    O1       O        0.38411    0.89819    0.18297    1.000
    O2       O        0.64953    0.85693    0.12961    1.000
    O3       O        0.55114    0.92584    0.02831    1.000
    O4       O        0.31525    0.65655    0.09552    1.000
    O5       O        0.10181    0.61589    0.31703    1.000
    O6       O        0.14307    0.35047    0.37039    1.000
    O7       O        0.07416    0.44886    0.47169    1.000
    O8       O        0.34345    0.68475    0.40448    1.000
    O9       O        0.61589    0.10181    0.81703    1.000
    O10      O        0.35047    0.14307    0.87039    1.000
    O11      O        0.44886    0.07416    0.97169    1.000
    O12      O        0.68475    0.34345    0.90448    1.000
    O13      O        0.89819    0.38411    0.68297    1.000
    O14      O        0.85693    0.64953    0.62961    1.000
    O15      O        0.92584    0.55114    0.52831    1.000
    O16      O        0.65655    0.31525    0.59552    1.000
    B1       B        0.72339    0.11141    0.30690    1.000
    F1       F        0.80874    0.20830    0.30769    1.000
    F2       F        0.65966    0.11440    0.34716    1.000
    F3       F        0.67051    0.08007    0.25123    1.000
    F4       F        0.75427    0.04189    0.32125    1.000
    B2       B        0.88859    0.27661    0.19310    1.000
    F5       F        0.79170    0.19126    0.19231    1.000
    F6       F        0.88560    0.34034    0.15284    1.000
    F7       F        0.91993    0.32949    0.24877    1.000
    F8       F        0.95811    0.24573    0.17875    1.000
    B3       B        0.27661    0.88859    0.69310    1.000
    F9       F        0.19126    0.79170    0.69231    1.000
    F10      F        0.34034    0.88560    0.65284    1.000
    F11      F        0.32949    0.91993    0.74877    1.000
    F12      F        0.24573    0.95811    0.67875    1.000
    B4       B        0.11141    0.72339    0.80690    1.000
    F13      F        0.20830    0.80874    0.80769    1.000
    F14      F        0.11440    0.65966    0.84716    1.000
    F15      F        0.08007    0.67051    0.75123    1.000
    F16      F        0.04189    0.75427    0.82125    1.000
    B5       B        0.42787    0.57213    0.25000    1.000
    F17      F        0.48678    0.56748    0.20390    1.000
    F18      F        0.46830    0.67640    0.27269    1.000
    F19      F        0.43252    0.51322    0.29610    1.000
    F20      F        0.32360    0.53170    0.22731    1.000
    B6       B        0.57213    0.42787    0.75000    1.000
    F21      F        0.51322    0.43252    0.79610    1.000
    F22      F        0.53170    0.32360    0.72731    1.000
    F23      F        0.56748    0.48678    0.70390    1.000
    F24      F        0.67640    0.46830    0.77269    1.000
