# CIF file generated by openbabel 3.1.0, see https://openbabel.org
data_I
_chemical_name_common 'image0'
_cell_length_a 18.6294
_cell_length_b 9.9345
_cell_length_c 14.7424
_cell_angle_alpha 90
_cell_angle_beta 90
_cell_angle_gamma 90
_space_group_name_H-M_alt 'P 1'
_space_group_name_Hall 'P 1'
loop_
    _symmetry_equiv_pos_as_xyz
    x,y,z
loop_
    _atom_site_label
    _atom_site_type_symbol
    _atom_site_fract_x
    _atom_site_fract_y
    _atom_site_fract_z
    _atom_site_occupancy
    Cd1      Cd       0.46845    0.95931    0.10302    1.000
    Na1      Na       0.55967    0.94520    0.87570    1.000
    O1       O        0.49300    0.81000    0.99480    1.000
    O2       O        0.47290    0.68650    0.11620    1.000
    O3       O        0.45700    0.18170    0.07090    1.000
    O4       O        0.48230    0.09430    0.94010    1.000
    O5       O        0.52060    0.50770    0.73550    1.000
    H1       H        0.53910    0.58240    0.73160    1.000
    O6       O        0.57580    0.98880    0.16550    1.000
    O7       O        0.52280    0.12800    0.26320    1.000
    O8       O        0.84270    0.09420    0.10960    1.000
    O9       O        0.90240    0.06720    0.23530    1.000
    O10      O        0.73650    0.21850    0.48000    1.000
    H2       H        0.71030    0.17600    0.51440    1.000
    C1       C        0.48420    0.69680    0.03300    1.000
    C2       C        0.48660    0.57350    0.97420    1.000
    C3       C        0.47950    0.44310    0.00940    1.000
    H3       H        0.47110    0.43010    0.07090    1.000
    C4       C        0.48530    0.33320    0.95150    1.000
    C5       C        0.47510    0.19290    0.99020    1.000
    C6       C        0.49960    0.34860    0.85910    1.000
    H4       H        0.50480    0.27410    0.82140    1.000
    C7       C        0.50600    0.48000    0.82450    1.000
    C8       C        0.49730    0.59020    0.88040    1.000
    H5       H        0.49860    0.67640    0.85590    1.000
    C9       C        0.57630    0.07280    0.23150    1.000
    C10      C        0.65010    0.10290    0.26960    1.000
    C11      C        0.71060    0.08690    0.21560    1.000
    H6       H        0.70590    0.05560    0.15640    1.000
    C12      C        0.77860    0.11810    0.25030    1.000
    C13      C        0.84530    0.09100    0.19400    1.000
    C14      C        0.78440    0.16510    0.33910    1.000
    H7       H        0.82930    0.18830    0.36180    1.000
    C15      C        0.72480    0.17800    0.39370    1.000
    C16      C        0.65660    0.14570    0.35800    1.000
    H8       H        0.61600    0.15340    0.39430    1.000
    Cd2      Cd       0.53155    0.04069    0.60302    1.000
    Na2      Na       0.44033    0.05480    0.37570    1.000
    O11      O        0.50700    0.19000    0.49480    1.000
    O12      O        0.52710    0.31350    0.61620    1.000
    O13      O        0.54300    0.81830    0.57090    1.000
    O14      O        0.51770    0.90570    0.44010    1.000
    O15      O        0.47940    0.49230    0.23550    1.000
    H9       H        0.46090    0.41760    0.23160    1.000
    O16      O        0.42420    0.01120    0.66550    1.000
    O17      O        0.47720    0.87200    0.76320    1.000
    O18      O        0.15730    0.90580    0.60960    1.000
    O19      O        0.09760    0.93280    0.73530    1.000
    O20      O        0.26350    0.78150    0.98000    1.000
    H10      H        0.28970    0.82400    0.01440    1.000
    C17      C        0.51580    0.30320    0.53300    1.000
    C18      C        0.51340    0.42650    0.47420    1.000
    C19      C        0.52050    0.55690    0.50940    1.000
    H11      H        0.52890    0.56990    0.57090    1.000
    C20      C        0.51470    0.66680    0.45150    1.000
    C21      C        0.52490    0.80710    0.49020    1.000
    C22      C        0.50040    0.65140    0.35910    1.000
    H12      H        0.49520    0.72590    0.32140    1.000
    C23      C        0.49400    0.52000    0.32450    1.000
    C24      C        0.50270    0.40980    0.38040    1.000
    H13      H        0.50140    0.32360    0.35590    1.000
    C25      C        0.42370    0.92720    0.73150    1.000
    C26      C        0.34990    0.89710    0.76960    1.000
    C27      C        0.28940    0.91310    0.71560    1.000
    H14      H        0.29410    0.94440    0.65640    1.000
    C28      C        0.22140    0.88190    0.75030    1.000
    C29      C        0.15470    0.90900    0.69400    1.000
    C30      C        0.21560    0.83490    0.83910    1.000
    H15      H        0.17070    0.81170    0.86180    1.000
    C31      C        0.27520    0.82200    0.89370    1.000
    C32      C        0.34340    0.85430    0.85800    1.000
    H16      H        0.38400    0.84660    0.89430    1.000
    Cd3      Cd       0.96845    0.04069    0.10302    1.000
    Na3      Na       0.05967    0.05480    0.87570    1.000
    O21      O        0.99300    0.19000    0.99480    1.000
    O22      O        0.97290    0.31350    0.11620    1.000
    O23      O        0.95700    0.81830    0.07090    1.000
    O24      O        0.98230    0.90570    0.94010    1.000
    O25      O        0.02060    0.49230    0.73550    1.000
    H17      H        0.03910    0.41760    0.73160    1.000
    O26      O        0.07580    0.01120    0.16550    1.000
    O27      O        0.02280    0.87200    0.26320    1.000
    O28      O        0.34270    0.90580    0.10960    1.000
    O29      O        0.40240    0.93280    0.23530    1.000
    O30      O        0.23650    0.78150    0.48000    1.000
    H18      H        0.21030    0.82400    0.51440    1.000
    C33      C        0.98420    0.30320    0.03300    1.000
    C34      C        0.98660    0.42650    0.97420    1.000
    C35      C        0.97950    0.55690    0.00940    1.000
    H19      H        0.97110    0.56990    0.07090    1.000
    C36      C        0.98530    0.66680    0.95150    1.000
    C37      C        0.97510    0.80710    0.99020    1.000
    C38      C        0.99960    0.65140    0.85910    1.000
    H20      H        0.00480    0.72590    0.82140    1.000
    C39      C        0.00600    0.52000    0.82450    1.000
    C40      C        0.99730    0.40980    0.88040    1.000
    H21      H        0.99860    0.32360    0.85590    1.000
    C41      C        0.07630    0.92720    0.23150    1.000
    C42      C        0.15010    0.89710    0.26960    1.000
    C43      C        0.21060    0.91310    0.21560    1.000
    H22      H        0.20590    0.94440    0.15640    1.000
    C44      C        0.27860    0.88190    0.25030    1.000
    C45      C        0.34530    0.90900    0.19400    1.000
    C46      C        0.28440    0.83490    0.33910    1.000
    H23      H        0.32930    0.81170    0.36180    1.000
    C47      C        0.22480    0.82200    0.39370    1.000
    C48      C        0.15660    0.85430    0.35800    1.000
    H24      H        0.11600    0.84660    0.39430    1.000
    Cd4      Cd       0.03155    0.95931    0.60302    1.000
    Na4      Na       0.94033    0.94520    0.37570    1.000
    O31      O        0.00700    0.81000    0.49480    1.000
    O32      O        0.02710    0.68650    0.61620    1.000
    O33      O        0.04300    0.18170    0.57090    1.000
    O34      O        0.01770    0.09430    0.44010    1.000
    O35      O        0.97940    0.50770    0.23550    1.000
    H25      H        0.96090    0.58240    0.23160    1.000
    O36      O        0.92420    0.98880    0.66550    1.000
    O37      O        0.97720    0.12800    0.76320    1.000
    O38      O        0.65730    0.09420    0.60960    1.000
    O39      O        0.59760    0.06720    0.73530    1.000
    O40      O        0.76350    0.21850    0.98000    1.000
    H26      H        0.78970    0.17600    0.01440    1.000
    C49      C        0.01580    0.69680    0.53300    1.000
    C50      C        0.01340    0.57350    0.47420    1.000
    C51      C        0.02050    0.44310    0.50940    1.000
    H27      H        0.02890    0.43010    0.57090    1.000
    C52      C        0.01470    0.33320    0.45150    1.000
    C53      C        0.02490    0.19290    0.49020    1.000
    C54      C        0.00040    0.34860    0.35910    1.000
    H28      H        0.99520    0.27410    0.32140    1.000
    C55      C        0.99400    0.48000    0.32450    1.000
    C56      C        0.00270    0.59020    0.38040    1.000
    H29      H        0.00140    0.67640    0.35590    1.000
    C57      C        0.92370    0.07280    0.73150    1.000
    C58      C        0.84990    0.10290    0.76960    1.000
    C59      C        0.78940    0.08690    0.71560    1.000
    H30      H        0.79410    0.05560    0.65640    1.000
    C60      C        0.72140    0.11810    0.75030    1.000
    C61      C        0.65470    0.09100    0.69400    1.000
    C62      C        0.71560    0.16510    0.83910    1.000
    H31      H        0.67070    0.18830    0.86180    1.000
    C63      C        0.77520    0.17800    0.89370    1.000
    C64      C        0.84340    0.14570    0.85800    1.000
    H32      H        0.88400    0.15340    0.89430    1.000
