# CIF file generated by openbabel 3.1.0, see https://openbabel.org
data_I
_chemical_name_common 'MARXEK_clean'
_cell_length_a 10.2245
_cell_length_b 10.2245
_cell_length_c 14.369
_cell_angle_alpha 90
_cell_angle_beta 90
_cell_angle_gamma 90
_space_group_name_H-M_alt 'P 1'
_space_group_name_Hall 'P 1'
loop_
    _symmetry_equiv_pos_as_xyz
    x,y,z
loop_
    _atom_site_label
    _atom_site_type_symbol
    _atom_site_fract_x
    _atom_site_fract_y
    _atom_site_fract_z
    _atom_site_occupancy
    Lu1      Lu       0.85181    0.14819    0.87500    1.000
    Lu2      Lu       0.14819    0.85181    0.37500    1.000
    Lu3      Lu       0.85181    0.85181    0.62500    1.000
    Lu4      Lu       0.14819    0.14819    0.12500    1.000
    H1       H        0.92100    0.55850    0.87100    1.000
    H2       H        0.07900    0.44150    0.37100    1.000
    H3       H        0.44150    0.92100    0.62100    1.000
    H4       H        0.55850    0.07900    0.12100    1.000
    H5       H        0.07900    0.55850    0.12900    1.000
    H6       H        0.92100    0.44150    0.62900    1.000
    H7       H        0.55850    0.92100    0.37900    1.000
    H8       H        0.44150    0.07900    0.87900    1.000
    H9       H        0.00000    0.90000    0.00000    1.000
    H10      H        0.00000    0.10000    0.50000    1.000
    H11      H        0.10000    0.00000    0.75000    1.000
    H12      H        0.90000    0.00000    0.25000    1.000
    C1       C        0.95340    0.60410    0.92210    1.000
    C2       C        0.95590    0.74070    0.92190    1.000
    C3       C        0.91140    0.81910    0.83870    1.000
    C4       C        0.04660    0.39590    0.42210    1.000
    C5       C        0.04410    0.25930    0.42190    1.000
    C6       C        0.08860    0.18090    0.33870    1.000
    C7       C        0.39590    0.95340    0.67210    1.000
    C8       C        0.25930    0.95590    0.67190    1.000
    C9       C        0.18090    0.91140    0.58870    1.000
    C10      C        0.60410    0.04660    0.17210    1.000
    C11      C        0.74070    0.04410    0.17190    1.000
    C12      C        0.81910    0.08860    0.08870    1.000
    C13      C        0.04660    0.60410    0.07790    1.000
    C14      C        0.04410    0.74070    0.07810    1.000
    C15      C        0.08860    0.81910    0.16130    1.000
    C16      C        0.95340    0.39590    0.57790    1.000
    C17      C        0.95590    0.25930    0.57810    1.000
    C18      C        0.91140    0.18090    0.66130    1.000
    C19      C        0.60410    0.95340    0.32790    1.000
    C20      C        0.74070    0.95590    0.32810    1.000
    C21      C        0.81910    0.91140    0.41130    1.000
    C22      C        0.39590    0.04660    0.82790    1.000
    C23      C        0.25930    0.04410    0.82810    1.000
    C24      C        0.18090    0.08860    0.91130    1.000
    C25      C        0.00000    0.38720    0.00000    1.000
    C26      C        0.00000    0.53680    0.00000    1.000
    C27      C        0.00000    0.80910    0.00000    1.000
    C28      C        0.00000    0.61280    0.50000    1.000
    C29      C        0.00000    0.46320    0.50000    1.000
    C30      C        0.00000    0.19090    0.50000    1.000
    C31      C        0.61280    0.00000    0.75000    1.000
    C32      C        0.46320    0.00000    0.75000    1.000
    C33      C        0.19090    0.00000    0.75000    1.000
    C34      C        0.38720    0.00000    0.25000    1.000
    C35      C        0.53680    0.00000    0.25000    1.000
    C36      C        0.80910    0.00000    0.25000    1.000
    O1       O        0.92680    0.33350    0.94190    1.000
    O2       O        0.88610    0.93580    0.85020    1.000
    O3       O        0.90410    0.76010    0.76210    1.000
    O4       O        0.07320    0.66650    0.44190    1.000
    O5       O        0.11390    0.06420    0.35020    1.000
    O6       O        0.09590    0.23990    0.26210    1.000
    O7       O        0.66650    0.92680    0.69190    1.000
    O8       O        0.06420    0.88610    0.60020    1.000
    O9       O        0.23990    0.90410    0.51210    1.000
    O10      O        0.33350    0.07320    0.19190    1.000
    O11      O        0.93580    0.11390    0.10020    1.000
    O12      O        0.76010    0.09590    0.01210    1.000
    O13      O        0.07320    0.33350    0.05810    1.000
    O14      O        0.11390    0.93580    0.14980    1.000
    O15      O        0.09590    0.76010    0.23790    1.000
    O16      O        0.92680    0.66650    0.55810    1.000
    O17      O        0.88610    0.06420    0.64980    1.000
    O18      O        0.90410    0.23990    0.73790    1.000
    O19      O        0.33350    0.92680    0.30810    1.000
    O20      O        0.93580    0.88610    0.39980    1.000
    O21      O        0.76010    0.90410    0.48790    1.000
    O22      O        0.66650    0.07320    0.80810    1.000
    O23      O        0.06420    0.11390    0.89980    1.000
    O24      O        0.23990    0.09590    0.98790    1.000
