# CIF file generated by openbabel 3.1.0, see https://openbabel.org
data_I
_chemical_name_common 'image0'
_cell_length_a 17.53
_cell_length_b 20.037
_cell_length_c 21.05
_cell_angle_alpha 90
_cell_angle_beta 90
_cell_angle_gamma 90
_space_group_name_H-M_alt 'P 1'
_space_group_name_Hall 'P 1'
loop_
    _symmetry_equiv_pos_as_xyz
    x,y,z
loop_
    _atom_site_label
    _atom_site_type_symbol
    _atom_site_fract_x
    _atom_site_fract_y
    _atom_site_fract_z
    _atom_site_occupancy
    Cu1      Cu       0.13370    0.58833    0.04910    1.000
    Cu2      Cu       0.97701    0.66596    0.06968    1.000
    O1       O        0.11256    0.43425    0.89130    1.000
    O2       O        0.30639    0.82026    0.97720    1.000
    O3       O        0.43340    0.69840    0.85500    1.000
    O4       O        0.07029    0.56458    0.97508    1.000
    O5       O        0.96550    0.62929    0.98489    1.000
    O6       O        0.37110    0.69180    0.62520    1.000
    O7       O        0.39860    0.81603    0.04809    1.000
    O8       O        0.05800    0.61316    0.75379    1.000
    O9       O        0.98750    0.41866    0.89306    1.000
    N1       N        0.28510    0.61440    0.59703    1.000
    O10      O        0.17730    0.49957    0.44747    1.000
    O11      O        0.40130    0.56330    0.46408    1.000
    O12      O        0.43240    0.56660    0.07078    1.000
    O13      O        0.41220    0.54150    0.56824    1.000
    O14      O        0.44640    0.59377    0.96886    1.000
    C1       C        0.31020    0.66950    0.81730    1.000
    C2       C        0.97830    0.56730    0.89150    1.000
    O15      O        0.24110    0.48400    0.53730    1.000
    N2       N        0.10330    0.55700    0.84002    1.000
    C3       C        0.23750    0.64500    0.83060    1.000
    C4       C        0.21310    0.63260    0.71810    1.000
    C5       C        0.35940    0.78980    0.00260    1.000
    N3       N        0.33840    0.69760    0.92591    1.000
    C6       C        0.31600    0.65490    0.63860    1.000
    C7       C        0.36590    0.69090    0.86820    1.000
    C8       C        0.22110    0.51910    0.49210    1.000
    C9       C        0.04710    0.45440    0.88226    1.000
    C10      C        0.18930    0.62740    0.78090    1.000
    C11      C        0.28740    0.65280    0.70520    1.000
    C12      C        0.33500    0.67320    0.75460    1.000
    C13      C        0.38010    0.56750    0.52150    1.000
    C14      C        0.11080    0.59950    0.79120    1.000
    C15      C        0.03180    0.52350    0.85300    1.000
    C16      C        0.30890    0.61230    0.53070    1.000
    C17      C        0.42350    0.60400    0.02360    1.000
    C18      C        0.38380    0.71920    0.98030    1.000
    C19      C        0.00790    0.58850    0.95610    1.000
    C20      C        0.24400    0.59250    0.48710    1.000
    C21      C        0.37840    0.66940    0.03520    1.000
    Cu3      Cu       0.49424    0.51478    0.43913    1.000
    H1       H        0.93090    0.54330    0.89750    1.000
    H2       H        0.96710    0.60700    0.86700    1.000
    H3       H        0.22140    0.64040    0.87240    1.000
    H4       H        0.17850    0.62370    0.68470    1.000
    H5       H        0.29090    0.68880    0.93200    1.000
    H6       H        0.38340    0.68920    0.74550    1.000
    H7       H        0.32340    0.65780    0.51880    1.000
    H8       H        0.25850    0.60180    0.44400    1.000
    H9       H        0.19990    0.61980    0.49740    1.000
    H10      H        0.32540    0.65820    0.04220    1.000
    H11      H        0.39780    0.69030    0.07340    1.000
    H12      H        0.43890    0.72300    0.96830    1.000
    H13      H        0.14630    0.54450    0.86720    1.000
    H14      H        0.25880    0.58540    0.60960    1.000
    H15      H        0.01220    0.51290    0.81380    1.000
    Cu4      Cu       0.13370    0.41167    0.45090    1.000
    Cu5      Cu       0.97701    0.33404    0.43032    1.000
    O16      O        0.11256    0.56575    0.60870    1.000
    O17      O        0.30639    0.17974    0.52280    1.000
    O18      O        0.43340    0.30160    0.64500    1.000
    O19      O        0.07029    0.43542    0.52492    1.000
    O20      O        0.96550    0.37071    0.51511    1.000
    O21      O        0.37110    0.30820    0.87480    1.000
    O22      O        0.39860    0.18397    0.45191    1.000
    O23      O        0.05800    0.38684    0.74621    1.000
    O24      O        0.98750    0.58134    0.60694    1.000
    N4       N        0.28510    0.38560    0.90297    1.000
    O25      O        0.17730    0.50043    0.05253    1.000
    O26      O        0.40130    0.43670    0.03592    1.000
    O27      O        0.43240    0.43340    0.42922    1.000
    O28      O        0.41220    0.45850    0.93176    1.000
    O29      O        0.44640    0.40623    0.53114    1.000
    C22      C        0.31020    0.33050    0.68270    1.000
    C23      C        0.97830    0.43270    0.60850    1.000
    O30      O        0.24110    0.51600    0.96270    1.000
    N5       N        0.10330    0.44300    0.65998    1.000
    C24      C        0.23750    0.35500    0.66940    1.000
    C25      C        0.21310    0.36740    0.78190    1.000
    C26      C        0.35940    0.21020    0.49740    1.000
    N6       N        0.33840    0.30240    0.57409    1.000
    C27      C        0.31600    0.34510    0.86140    1.000
    C28      C        0.36590    0.30910    0.63180    1.000
    C29      C        0.22110    0.48090    0.00790    1.000
    C30      C        0.04710    0.54560    0.61774    1.000
    C31      C        0.18930    0.37260    0.71910    1.000
    C32      C        0.28740    0.34720    0.79480    1.000
    C33      C        0.33500    0.32680    0.74540    1.000
    C34      C        0.38010    0.43250    0.97850    1.000
    C35      C        0.11080    0.40050    0.70880    1.000
    C36      C        0.03180    0.47650    0.64700    1.000
    C37      C        0.30890    0.38770    0.96930    1.000
    C38      C        0.42350    0.39600    0.47640    1.000
    C39      C        0.38380    0.28080    0.51970    1.000
    C40      C        0.00790    0.41150    0.54390    1.000
    C41      C        0.24400    0.40750    0.01290    1.000
    C42      C        0.37840    0.33060    0.46480    1.000
    Cu6      Cu       0.49424    0.48522    0.06087    1.000
    H16      H        0.93090    0.45670    0.60250    1.000
    H17      H        0.96710    0.39300    0.63300    1.000
    H18      H        0.22140    0.35960    0.62760    1.000
    H19      H        0.17850    0.37630    0.81530    1.000
    H20      H        0.29090    0.31120    0.56800    1.000
    H21      H        0.38340    0.31080    0.75450    1.000
    H22      H        0.32340    0.34220    0.98120    1.000
    H23      H        0.25850    0.39820    0.05600    1.000
    H24      H        0.19990    0.38020    0.00260    1.000
    H25      H        0.32540    0.34180    0.45780    1.000
    H26      H        0.39780    0.30970    0.42660    1.000
    H27      H        0.43890    0.27700    0.53170    1.000
    H28      H        0.14630    0.45550    0.63280    1.000
    H29      H        0.25880    0.41460    0.89040    1.000
    H30      H        0.01220    0.48710    0.68620    1.000
    Cu7      Cu       0.36630    0.08833    0.45090    1.000
    Cu8      Cu       0.52299    0.16596    0.43032    1.000
    O31      O        0.38744    0.93425    0.60870    1.000
    O32      O        0.19361    0.32026    0.52280    1.000
    O33      O        0.06660    0.19840    0.64500    1.000
    O34      O        0.42971    0.06458    0.52492    1.000
    O35      O        0.53450    0.12929    0.51511    1.000
    O36      O        0.12890    0.19180    0.87480    1.000
    O37      O        0.10140    0.31603    0.45191    1.000
    O38      O        0.44200    0.11316    0.74621    1.000
    O39      O        0.51250    0.91866    0.60694    1.000
    N7       N        0.21490    0.11440    0.90297    1.000
    O40      O        0.32270    0.99957    0.05253    1.000
    O41      O        0.09870    0.06330    0.03592    1.000
    O42      O        0.06760    0.06660    0.42922    1.000
    O43      O        0.08780    0.04150    0.93176    1.000
    O44      O        0.05360    0.09377    0.53114    1.000
    C43      C        0.18980    0.16950    0.68270    1.000
    C44      C        0.52170    0.06730    0.60850    1.000
    O45      O        0.25890    0.98400    0.96270    1.000
    N8       N        0.39670    0.05700    0.65998    1.000
    C45      C        0.26250    0.14500    0.66940    1.000
    C46      C        0.28690    0.13260    0.78190    1.000
    C47      C        0.14060    0.28980    0.49740    1.000
    N9       N        0.16160    0.19760    0.57409    1.000
    C48      C        0.18400    0.15490    0.86140    1.000
    C49      C        0.13410    0.19090    0.63180    1.000
    C50      C        0.27890    0.01910    0.00790    1.000
    C51      C        0.45290    0.95440    0.61774    1.000
    C52      C        0.31070    0.12740    0.71910    1.000
    C53      C        0.21260    0.15280    0.79480    1.000
    C54      C        0.16500    0.17320    0.74540    1.000
    C55      C        0.11990    0.06750    0.97850    1.000
    C56      C        0.38920    0.09950    0.70880    1.000
    C57      C        0.46820    0.02350    0.64700    1.000
    C58      C        0.19110    0.11230    0.96930    1.000
    C59      C        0.07650    0.10400    0.47640    1.000
    C60      C        0.11620    0.21920    0.51970    1.000
    C61      C        0.49210    0.08850    0.54390    1.000
    C62      C        0.25600    0.09250    0.01290    1.000
    C63      C        0.12160    0.16940    0.46480    1.000
    Cu9      Cu       0.00576    0.01478    0.06087    1.000
    H31      H        0.56910    0.04330    0.60250    1.000
    H32      H        0.53290    0.10700    0.63300    1.000
    H33      H        0.27860    0.14040    0.62760    1.000
    H34      H        0.32150    0.12370    0.81530    1.000
    H35      H        0.20910    0.18880    0.56800    1.000
    H36      H        0.11660    0.18920    0.75450    1.000
    H37      H        0.17660    0.15780    0.98120    1.000
    H38      H        0.24150    0.10180    0.05600    1.000
    H39      H        0.30010    0.11980    0.00260    1.000
    H40      H        0.17460    0.15820    0.45780    1.000
    H41      H        0.10220    0.19030    0.42660    1.000
    H42      H        0.06110    0.22300    0.53170    1.000
    H43      H        0.35370    0.04450    0.63280    1.000
    H44      H        0.24120    0.08540    0.89040    1.000
    H45      H        0.48780    0.01290    0.68620    1.000
    Cu10     Cu       0.36630    0.91167    0.04910    1.000
    Cu11     Cu       0.52299    0.83404    0.06968    1.000
    O46      O        0.38744    0.06575    0.89130    1.000
    O47      O        0.19361    0.67974    0.97720    1.000
    O48      O        0.06660    0.80160    0.85500    1.000
    O49      O        0.42971    0.93542    0.97508    1.000
    O50      O        0.53450    0.87071    0.98489    1.000
    O51      O        0.12890    0.80820    0.62520    1.000
    O52      O        0.10140    0.68397    0.04809    1.000
    O53      O        0.44200    0.88684    0.75379    1.000
    O54      O        0.51250    0.08134    0.89306    1.000
    N10      N        0.21490    0.88560    0.59703    1.000
    O55      O        0.32270    0.00043    0.44747    1.000
    O56      O        0.09870    0.93670    0.46408    1.000
    O57      O        0.06760    0.93340    0.07078    1.000
    O58      O        0.08780    0.95850    0.56824    1.000
    O59      O        0.05360    0.90623    0.96886    1.000
    C64      C        0.18980    0.83050    0.81730    1.000
    C65      C        0.52170    0.93270    0.89150    1.000
    O60      O        0.25890    0.01600    0.53730    1.000
    N11      N        0.39670    0.94300    0.84002    1.000
    C66      C        0.26250    0.85500    0.83060    1.000
    C67      C        0.28690    0.86740    0.71810    1.000
    C68      C        0.14060    0.71020    0.00260    1.000
    N12      N        0.16160    0.80240    0.92591    1.000
    C69      C        0.18400    0.84510    0.63860    1.000
    C70      C        0.13410    0.80910    0.86820    1.000
    C71      C        0.27890    0.98090    0.49210    1.000
    C72      C        0.45290    0.04560    0.88226    1.000
    C73      C        0.31070    0.87260    0.78090    1.000
    C74      C        0.21260    0.84720    0.70520    1.000
    C75      C        0.16500    0.82680    0.75460    1.000
    C76      C        0.11990    0.93250    0.52150    1.000
    C77      C        0.38920    0.90050    0.79120    1.000
    C78      C        0.46820    0.97650    0.85300    1.000
    C79      C        0.19110    0.88770    0.53070    1.000
    C80      C        0.07650    0.89600    0.02360    1.000
    C81      C        0.11620    0.78080    0.98030    1.000
    C82      C        0.49210    0.91150    0.95610    1.000
    C83      C        0.25600    0.90750    0.48710    1.000
    C84      C        0.12160    0.83060    0.03520    1.000
    Cu12     Cu       0.00576    0.98522    0.43913    1.000
    H46      H        0.56910    0.95670    0.89750    1.000
    H47      H        0.53290    0.89300    0.86700    1.000
    H48      H        0.27860    0.85960    0.87240    1.000
    H49      H        0.32150    0.87630    0.68470    1.000
    H50      H        0.20910    0.81120    0.93200    1.000
    H51      H        0.11660    0.81080    0.74550    1.000
    H52      H        0.17660    0.84220    0.51880    1.000
    H53      H        0.24150    0.89820    0.44400    1.000
    H54      H        0.30010    0.88020    0.49740    1.000
    H55      H        0.17460    0.84180    0.04220    1.000
    H56      H        0.10220    0.80970    0.07340    1.000
    H57      H        0.06110    0.77700    0.96830    1.000
    H58      H        0.35370    0.95550    0.86720    1.000
    H59      H        0.24120    0.91460    0.60960    1.000
    H60      H        0.48780    0.98710    0.81380    1.000
    Cu13     Cu       0.86630    0.41167    0.95090    1.000
    Cu14     Cu       0.02299    0.33404    0.93032    1.000
    O61      O        0.88744    0.56575    0.10870    1.000
    O62      O        0.69361    0.17974    0.02280    1.000
    O63      O        0.56660    0.30160    0.14500    1.000
    O64      O        0.92971    0.43542    0.02492    1.000
    O65      O        0.03450    0.37071    0.01511    1.000
    O66      O        0.62890    0.30820    0.37480    1.000
    O67      O        0.60140    0.18397    0.95191    1.000
    O68      O        0.94200    0.38684    0.24621    1.000
    O69      O        0.01250    0.58134    0.10694    1.000
    N13      N        0.71490    0.38560    0.40297    1.000
    O70      O        0.82270    0.50043    0.55253    1.000
    O71      O        0.59870    0.43670    0.53592    1.000
    O72      O        0.56760    0.43340    0.92922    1.000
    O73      O        0.58780    0.45850    0.43176    1.000
    O74      O        0.55360    0.40623    0.03114    1.000
    C85      C        0.68980    0.33050    0.18270    1.000
    C86      C        0.02170    0.43270    0.10850    1.000
    O75      O        0.75890    0.51600    0.46270    1.000
    N14      N        0.89670    0.44300    0.15998    1.000
    C87      C        0.76250    0.35500    0.16940    1.000
    C88      C        0.78690    0.36740    0.28190    1.000
    C89      C        0.64060    0.21020    0.99740    1.000
    N15      N        0.66160    0.30240    0.07409    1.000
    C90      C        0.68400    0.34510    0.36140    1.000
    C91      C        0.63410    0.30910    0.13180    1.000
    C92      C        0.77890    0.48090    0.50790    1.000
    C93      C        0.95290    0.54560    0.11774    1.000
    C94      C        0.81070    0.37260    0.21910    1.000
    C95      C        0.71260    0.34720    0.29480    1.000
    C96      C        0.66500    0.32680    0.24540    1.000
    C97      C        0.61990    0.43250    0.47850    1.000
    C98      C        0.88920    0.40050    0.20880    1.000
    C99      C        0.96820    0.47650    0.14700    1.000
    C100     C        0.69110    0.38770    0.46930    1.000
    C101     C        0.57650    0.39600    0.97640    1.000
    C102     C        0.61620    0.28080    0.01970    1.000
    C103     C        0.99210    0.41150    0.04390    1.000
    C104     C        0.75600    0.40750    0.51290    1.000
    C105     C        0.62160    0.33060    0.96480    1.000
    Cu15     Cu       0.50576    0.48522    0.56087    1.000
    H61      H        0.06910    0.45670    0.10250    1.000
    H62      H        0.03290    0.39300    0.13300    1.000
    H63      H        0.77860    0.35960    0.12760    1.000
    H64      H        0.82150    0.37630    0.31530    1.000
    H65      H        0.70910    0.31120    0.06800    1.000
    H66      H        0.61660    0.31080    0.25450    1.000
    H67      H        0.67660    0.34220    0.48120    1.000
    H68      H        0.74150    0.39820    0.55600    1.000
    H69      H        0.80010    0.38020    0.50260    1.000
    H70      H        0.67460    0.34180    0.95780    1.000
    H71      H        0.60220    0.30970    0.92660    1.000
    H72      H        0.56110    0.27700    0.03170    1.000
    H73      H        0.85370    0.45550    0.13280    1.000
    H74      H        0.74120    0.41460    0.39040    1.000
    H75      H        0.98780    0.48710    0.18620    1.000
    Cu16     Cu       0.86630    0.58833    0.54910    1.000
    Cu17     Cu       0.02299    0.66596    0.56968    1.000
    O76      O        0.88744    0.43425    0.39130    1.000
    O77      O        0.69361    0.82026    0.47720    1.000
    O78      O        0.56660    0.69840    0.35500    1.000
    O79      O        0.92971    0.56458    0.47508    1.000
    O80      O        0.03450    0.62929    0.48489    1.000
    O81      O        0.62890    0.69180    0.12520    1.000
    O82      O        0.60140    0.81603    0.54809    1.000
    O83      O        0.94200    0.61316    0.25379    1.000
    O84      O        0.01250    0.41866    0.39306    1.000
    N16      N        0.71490    0.61440    0.09703    1.000
    O85      O        0.82270    0.49957    0.94747    1.000
    O86      O        0.59870    0.56330    0.96408    1.000
    O87      O        0.56760    0.56660    0.57078    1.000
    O88      O        0.58780    0.54150    0.06824    1.000
    O89      O        0.55360    0.59377    0.46886    1.000
    C106     C        0.68980    0.66950    0.31730    1.000
    C107     C        0.02170    0.56730    0.39150    1.000
    O90      O        0.75890    0.48400    0.03730    1.000
    N17      N        0.89670    0.55700    0.34002    1.000
    C108     C        0.76250    0.64500    0.33060    1.000
    C109     C        0.78690    0.63260    0.21810    1.000
    C110     C        0.64060    0.78980    0.50260    1.000
    N18      N        0.66160    0.69760    0.42591    1.000
    C111     C        0.68400    0.65490    0.13860    1.000
    C112     C        0.63410    0.69090    0.36820    1.000
    C113     C        0.77890    0.51910    0.99210    1.000
    C114     C        0.95290    0.45440    0.38226    1.000
    C115     C        0.81070    0.62740    0.28090    1.000
    C116     C        0.71260    0.65280    0.20520    1.000
    C117     C        0.66500    0.67320    0.25460    1.000
    C118     C        0.61990    0.56750    0.02150    1.000
    C119     C        0.88920    0.59950    0.29120    1.000
    C120     C        0.96820    0.52350    0.35300    1.000
    C121     C        0.69110    0.61230    0.03070    1.000
    C122     C        0.57650    0.60400    0.52360    1.000
    C123     C        0.61620    0.71920    0.48030    1.000
    C124     C        0.99210    0.58850    0.45610    1.000
    C125     C        0.75600    0.59250    0.98710    1.000
    C126     C        0.62160    0.66940    0.53520    1.000
    Cu18     Cu       0.50576    0.51478    0.93913    1.000
    H76      H        0.06910    0.54330    0.39750    1.000
    H77      H        0.03290    0.60700    0.36700    1.000
    H78      H        0.77860    0.64040    0.37240    1.000
    H79      H        0.82150    0.62370    0.18470    1.000
    H80      H        0.70910    0.68880    0.43200    1.000
    H81      H        0.61660    0.68920    0.24550    1.000
    H82      H        0.67660    0.65780    0.01880    1.000
    H83      H        0.74150    0.60180    0.94400    1.000
    H84      H        0.80010    0.61980    0.99740    1.000
    H85      H        0.67460    0.65820    0.54220    1.000
    H86      H        0.60220    0.69030    0.57340    1.000
    H87      H        0.56110    0.72300    0.46830    1.000
    H88      H        0.85370    0.54450    0.36720    1.000
    H89      H        0.74120    0.58540    0.10960    1.000
    H90      H        0.98780    0.51290    0.31380    1.000
    Cu19     Cu       0.63370    0.91167    0.54910    1.000
    Cu20     Cu       0.47701    0.83404    0.56968    1.000
    O91      O        0.61256    0.06575    0.39130    1.000
    O92      O        0.80639    0.67974    0.47720    1.000
    O93      O        0.93340    0.80160    0.35500    1.000
    O94      O        0.57029    0.93542    0.47508    1.000
    O95      O        0.46550    0.87071    0.48489    1.000
    O96      O        0.87110    0.80820    0.12520    1.000
    O97      O        0.89860    0.68397    0.54809    1.000
    O98      O        0.55800    0.88684    0.25379    1.000
    O99      O        0.48750    0.08134    0.39306    1.000
    N19      N        0.78510    0.88560    0.09703    1.000
    O100     O        0.67730    0.00043    0.94747    1.000
    O101     O        0.90130    0.93670    0.96408    1.000
    O102     O        0.93240    0.93340    0.57078    1.000
    O103     O        0.91220    0.95850    0.06824    1.000
    O104     O        0.94640    0.90623    0.46886    1.000
    C127     C        0.81020    0.83050    0.31730    1.000
    C128     C        0.47830    0.93270    0.39150    1.000
    O105     O        0.74110    0.01600    0.03730    1.000
    N20      N        0.60330    0.94300    0.34002    1.000
    C129     C        0.73750    0.85500    0.33060    1.000
    C130     C        0.71310    0.86740    0.21810    1.000
    C131     C        0.85940    0.71020    0.50260    1.000
    N21      N        0.83840    0.80240    0.42591    1.000
    C132     C        0.81600    0.84510    0.13860    1.000
    C133     C        0.86590    0.80910    0.36820    1.000
    C134     C        0.72110    0.98090    0.99210    1.000
    C135     C        0.54710    0.04560    0.38226    1.000
    C136     C        0.68930    0.87260    0.28090    1.000
    C137     C        0.78740    0.84720    0.20520    1.000
    C138     C        0.83500    0.82680    0.25460    1.000
    C139     C        0.88010    0.93250    0.02150    1.000
    C140     C        0.61080    0.90050    0.29120    1.000
    C141     C        0.53180    0.97650    0.35300    1.000
    C142     C        0.80890    0.88770    0.03070    1.000
    C143     C        0.92350    0.89600    0.52360    1.000
    C144     C        0.88380    0.78080    0.48030    1.000
    C145     C        0.50790    0.91150    0.45610    1.000
    C146     C        0.74400    0.90750    0.98710    1.000
    C147     C        0.87840    0.83060    0.53520    1.000
    Cu21     Cu       0.99424    0.98522    0.93913    1.000
    H91      H        0.43090    0.95670    0.39750    1.000
    H92      H        0.46710    0.89300    0.36700    1.000
    H93      H        0.72140    0.85960    0.37240    1.000
    H94      H        0.67850    0.87630    0.18470    1.000
    H95      H        0.79090    0.81120    0.43200    1.000
    H96      H        0.88340    0.81080    0.24550    1.000
    H97      H        0.82340    0.84220    0.01880    1.000
    H98      H        0.75850    0.89820    0.94400    1.000
    H99      H        0.69990    0.88020    0.99740    1.000
    H100     H        0.82540    0.84180    0.54220    1.000
    H101     H        0.89780    0.80970    0.57340    1.000
    H102     H        0.93890    0.77700    0.46830    1.000
    H103     H        0.64630    0.95550    0.36720    1.000
    H104     H        0.75880    0.91460    0.10960    1.000
    H105     H        0.51220    0.98710    0.31380    1.000
    Cu22     Cu       0.63370    0.08833    0.95090    1.000
    Cu23     Cu       0.47701    0.16596    0.93032    1.000
    O106     O        0.61256    0.93425    0.10870    1.000
    O107     O        0.80639    0.32026    0.02280    1.000
    O108     O        0.93340    0.19840    0.14500    1.000
    O109     O        0.57029    0.06458    0.02492    1.000
    O110     O        0.46550    0.12929    0.01511    1.000
    O111     O        0.87110    0.19180    0.37480    1.000
    O112     O        0.89860    0.31603    0.95191    1.000
    O113     O        0.55800    0.11316    0.24621    1.000
    O114     O        0.48750    0.91866    0.10694    1.000
    N22      N        0.78510    0.11440    0.40297    1.000
    O115     O        0.67730    0.99957    0.55253    1.000
    O116     O        0.90130    0.06330    0.53592    1.000
    O117     O        0.93240    0.06660    0.92922    1.000
    O118     O        0.91220    0.04150    0.43176    1.000
    O119     O        0.94640    0.09377    0.03114    1.000
    C148     C        0.81020    0.16950    0.18270    1.000
    C149     C        0.47830    0.06730    0.10850    1.000
    O120     O        0.74110    0.98400    0.46270    1.000
    N23      N        0.60330    0.05700    0.15998    1.000
    C150     C        0.73750    0.14500    0.16940    1.000
    C151     C        0.71310    0.13260    0.28190    1.000
    C152     C        0.85940    0.28980    0.99740    1.000
    N24      N        0.83840    0.19760    0.07409    1.000
    C153     C        0.81600    0.15490    0.36140    1.000
    C154     C        0.86590    0.19090    0.13180    1.000
    C155     C        0.72110    0.01910    0.50790    1.000
    C156     C        0.54710    0.95440    0.11774    1.000
    C157     C        0.68930    0.12740    0.21910    1.000
    C158     C        0.78740    0.15280    0.29480    1.000
    C159     C        0.83500    0.17320    0.24540    1.000
    C160     C        0.88010    0.06750    0.47850    1.000
    C161     C        0.61080    0.09950    0.20880    1.000
    C162     C        0.53180    0.02350    0.14700    1.000
    C163     C        0.80890    0.11230    0.46930    1.000
    C164     C        0.92350    0.10400    0.97640    1.000
    C165     C        0.88380    0.21920    0.01970    1.000
    C166     C        0.50790    0.08850    0.04390    1.000
    C167     C        0.74400    0.09250    0.51290    1.000
    C168     C        0.87840    0.16940    0.96480    1.000
    Cu24     Cu       0.99424    0.01478    0.56087    1.000
    H106     H        0.43090    0.04330    0.10250    1.000
    H107     H        0.46710    0.10700    0.13300    1.000
    H108     H        0.72140    0.14040    0.12760    1.000
    H109     H        0.67850    0.12370    0.31530    1.000
    H110     H        0.79090    0.18880    0.06800    1.000
    H111     H        0.88340    0.18920    0.25450    1.000
    H112     H        0.82340    0.15780    0.48120    1.000
    H113     H        0.75850    0.10180    0.55600    1.000
    H114     H        0.69990    0.11980    0.50260    1.000
    H115     H        0.82540    0.15820    0.95780    1.000
    H116     H        0.89780    0.19030    0.92660    1.000
    H117     H        0.93890    0.22300    0.03170    1.000
    H118     H        0.64630    0.04450    0.13280    1.000
    H119     H        0.75880    0.08540    0.39040    1.000
    H120     H        0.51220    0.01290    0.18620    1.000
