# CIF file generated by openbabel 3.1.0, see https://openbabel.org
data_I
_chemical_name_common 'image0'
_cell_length_a 33.943
_cell_length_b 18.5224
_cell_length_c 21.2174
_cell_angle_alpha 90
_cell_angle_beta 116.291
_cell_angle_gamma 90
_space_group_name_H-M_alt 'P 1'
_space_group_name_Hall 'P 1'
loop_
    _symmetry_equiv_pos_as_xyz
    x,y,z
loop_
    _atom_site_label
    _atom_site_type_symbol
    _atom_site_fract_x
    _atom_site_fract_y
    _atom_site_fract_z
    _atom_site_occupancy
    Cd1      Cd       0.70985    0.09876    0.80078    1.000
    Cd2      Cd       0.32245    0.38881    0.30651    1.000
    Cd3      Cd       0.32203    0.44911    0.46072    1.000
    C1       C        0.62230    0.10530    0.73400    1.000
    C2       C        0.57180    0.10300    0.70960    1.000
    C3       C        0.57370    0.13600    0.68260    1.000
    C4       C        0.55500    0.16800    0.67440    1.000
    H1       H        0.57200    0.20620    0.67170    1.000
    C5       C        0.55690    0.15500    0.62580    1.000
    H2       H        0.57820    0.16380    0.61050    1.000
    C6       C        0.50010    0.16700    0.63770    1.000
    H3       H        0.48390    0.20650    0.61220    1.000
    C7       C        0.51470    0.17000    0.57000    1.000
    H4       H        0.50730    0.18220    0.52320    1.000
    C8       C        0.48040    0.10960    0.64570    1.000
    C9       C        0.47900    0.15860    0.61300    1.000
    C10      C        0.49820    0.04640    0.68110    1.000
    H5       H        0.48190    0.00760    0.68460    1.000
    C11      C        0.49790    0.13600    0.67500    1.000
    H6       H        0.48570    0.13410    0.70660    1.000
    C12      C        0.54360    0.04900    0.71090    1.000
    H7       H        0.55760    0.00730    0.73560    1.000
    C13      C        0.54300    0.11200    0.69000    1.000
    H8       H        0.54920    0.06670    0.70990    1.000
    C14      C        0.43800    0.12700    0.61500    1.000
    C15      C        0.43950    0.17700    0.57940    1.000
    C16      C        0.28470    0.29400    0.40210    1.000
    C17      C        0.30170    0.23180    0.44720    1.000
    C18      C        0.34850    0.22090    0.48510    1.000
    H9       H        0.36810    0.25030    0.47740    1.000
    C19      C        0.36350    0.16380    0.53450    1.000
    C20      C        0.33450    0.12280    0.54980    1.000
    H10      H        0.34530    0.08560    0.58250    1.000
    C21      C        0.28890    0.13680    0.51680    1.000
    C22      C        0.27380    0.19130    0.46470    1.000
    H11      H        0.24380    0.20030    0.44120    1.000
    C23      C        0.25940    0.09480    0.53370    1.000
    C24      C        0.09570    0.91580    0.07920    1.000
    C25      C        0.04410    0.90810    0.02970    1.000
    C26      C        0.02430    0.84990    0.04860    1.000
    H12      H        0.03820    0.81260    0.08000    1.000
    C27      C        0.98330    0.86000    0.01320    1.000
    H13      H        0.96660    0.85850    0.03810    1.000
    C28      C        0.96190    0.87320    0.94610    1.000
    C29      C        0.98500    0.92310    0.92270    1.000
    H14      H        0.97050    0.94390    0.87830    1.000
    C30      C        0.02770    0.94070    0.96420    1.000
    H15      H        0.04410    0.97120    0.95010    1.000
    C31      C        0.91450    0.86450    0.91050    1.000
    C32      C        0.75780    0.96920    0.80840    1.000
    C33      C        0.77860    0.90040    0.81780    1.000
    C34      C        0.75370    0.83850    0.78910    1.000
    H16      H        0.72350    0.84240    0.76240    1.000
    C35      C        0.77370    0.77040    0.80010    1.000
    C36      C        0.81890    0.76760    0.83230    1.000
    H17      H        0.83270    0.72290    0.83890    1.000
    C37      C        0.84430    0.82890    0.85520    1.000
    C38      C        0.82450    0.89530    0.85050    1.000
    H18      H        0.84160    0.93640    0.86900    1.000
    C39      C        0.74550    0.70580    0.77420    1.000
    N1       N        0.41000    0.15340    0.57450    1.000
    N2       N        0.89080    0.82440    0.89720    1.000
    O1       O        0.64270    0.10750    0.69310    1.000
    O2       O        0.64310    0.14210    0.73050    1.000
    O3       O        0.63610    0.04660    0.78270    1.000
    O4       O        0.24420    0.29920    0.36310    1.000
    O5       O        0.31320    0.33810    0.39810    1.000
    O6       O        0.27180    0.05570    0.58670    1.000
    O7       O        0.21770    0.09800    0.48980    1.000
    O8       O        0.12050    0.95170    0.07500    1.000
    O9       O        0.11050    0.88080    0.13920    1.000
    O10      O        0.71720    0.97850    0.77480    1.000
    O11      O        0.78220    0.02660    0.84020    1.000
    O12      O        0.76290    0.64460    0.77580    1.000
    O13      O        0.70570    0.71390    0.74960    1.000
    N3       N        0.39040    0.33500    0.85900    1.000
    O14      O        0.35720    0.16170    0.73430    1.000
    Cd4      Cd       0.20985    0.59876    0.80078    1.000
    Cd5      Cd       0.82245    0.88881    0.30651    1.000
    Cd6      Cd       0.82203    0.94911    0.46072    1.000
    C40      C        0.12230    0.60530    0.73400    1.000
    C41      C        0.07180    0.60300    0.70960    1.000
    C42      C        0.07370    0.63600    0.68260    1.000
    C43      C        0.05500    0.66800    0.67440    1.000
    H19      H        0.07200    0.70620    0.67170    1.000
    C44      C        0.05690    0.65500    0.62580    1.000
    H20      H        0.07820    0.66380    0.61050    1.000
    C45      C        0.00010    0.66700    0.63770    1.000
    H21      H        0.98390    0.70650    0.61220    1.000
    C46      C        0.01470    0.67000    0.57000    1.000
    H22      H        0.00730    0.68220    0.52320    1.000
    C47      C        0.98040    0.60960    0.64570    1.000
    C48      C        0.97900    0.65860    0.61300    1.000
    C49      C        0.99820    0.54640    0.68110    1.000
    H23      H        0.98190    0.50760    0.68460    1.000
    C50      C        0.99790    0.63600    0.67500    1.000
    H24      H        0.98570    0.63410    0.70660    1.000
    C51      C        0.04360    0.54900    0.71090    1.000
    H25      H        0.05760    0.50730    0.73560    1.000
    C52      C        0.04300    0.61200    0.69000    1.000
    H26      H        0.04920    0.56670    0.70990    1.000
    C53      C        0.93800    0.62700    0.61500    1.000
    C54      C        0.93950    0.67700    0.57940    1.000
    C55      C        0.78470    0.79400    0.40210    1.000
    C56      C        0.80170    0.73180    0.44720    1.000
    C57      C        0.84850    0.72090    0.48510    1.000
    H27      H        0.86810    0.75030    0.47740    1.000
    C58      C        0.86350    0.66380    0.53450    1.000
    C59      C        0.83450    0.62280    0.54980    1.000
    H28      H        0.84530    0.58560    0.58250    1.000
    C60      C        0.78890    0.63680    0.51680    1.000
    C61      C        0.77380    0.69130    0.46470    1.000
    H29      H        0.74380    0.70030    0.44120    1.000
    C62      C        0.75940    0.59480    0.53370    1.000
    C63      C        0.59570    0.41580    0.07920    1.000
    C64      C        0.54410    0.40810    0.02970    1.000
    C65      C        0.52430    0.34990    0.04860    1.000
    H30      H        0.53820    0.31260    0.08000    1.000
    C66      C        0.48330    0.36000    0.01320    1.000
    H31      H        0.46660    0.35850    0.03810    1.000
    C67      C        0.46190    0.37320    0.94610    1.000
    C68      C        0.48500    0.42310    0.92270    1.000
    H32      H        0.47050    0.44390    0.87830    1.000
    C69      C        0.52770    0.44070    0.96420    1.000
    H33      H        0.54410    0.47120    0.95010    1.000
    C70      C        0.41450    0.36450    0.91050    1.000
    C71      C        0.25780    0.46920    0.80840    1.000
    C72      C        0.27860    0.40040    0.81780    1.000
    C73      C        0.25370    0.33850    0.78910    1.000
    H34      H        0.22350    0.34240    0.76240    1.000
    C74      C        0.27370    0.27040    0.80010    1.000
    C75      C        0.31890    0.26760    0.83230    1.000
    H35      H        0.33270    0.22290    0.83890    1.000
    C76      C        0.34430    0.32890    0.85520    1.000
    C77      C        0.32450    0.39530    0.85050    1.000
    H36      H        0.34160    0.43640    0.86900    1.000
    C78      C        0.24550    0.20580    0.77420    1.000
    N4       N        0.91000    0.65340    0.57450    1.000
    N5       N        0.39080    0.32440    0.89720    1.000
    O15      O        0.14270    0.60750    0.69310    1.000
    O16      O        0.14310    0.64210    0.73050    1.000
    O17      O        0.13610    0.54660    0.78270    1.000
    O18      O        0.74420    0.79920    0.36310    1.000
    O19      O        0.81320    0.83810    0.39810    1.000
    O20      O        0.77180    0.55570    0.58670    1.000
    O21      O        0.71770    0.59800    0.48980    1.000
    O22      O        0.62050    0.45170    0.07500    1.000
    O23      O        0.61050    0.38080    0.13920    1.000
    O24      O        0.21720    0.47850    0.77480    1.000
    O25      O        0.28220    0.52660    0.84020    1.000
    O26      O        0.26290    0.14460    0.77580    1.000
    O27      O        0.20570    0.21390    0.74960    1.000
    N6       N        0.89040    0.83500    0.85900    1.000
    O28      O        0.85720    0.66170    0.73430    1.000
    Cd7      Cd       0.29015    0.09876    0.69922    1.000
    Cd8      Cd       0.67755    0.38881    0.19349    1.000
    Cd9      Cd       0.67797    0.44911    0.03928    1.000
    C79      C        0.37770    0.10530    0.76600    1.000
    C80      C        0.42820    0.10300    0.79040    1.000
    C81      C        0.42630    0.13600    0.81740    1.000
    C82      C        0.44500    0.16800    0.82560    1.000
    H37      H        0.42800    0.20620    0.82830    1.000
    C83      C        0.44310    0.15500    0.87420    1.000
    H38      H        0.42180    0.16380    0.88950    1.000
    C84      C        0.49990    0.16700    0.86230    1.000
    H39      H        0.51610    0.20650    0.88780    1.000
    C85      C        0.48530    0.17000    0.93000    1.000
    H40      H        0.49270    0.18220    0.97680    1.000
    C86      C        0.51960    0.10960    0.85430    1.000
    C87      C        0.52100    0.15860    0.88700    1.000
    C88      C        0.50180    0.04640    0.81890    1.000
    H41      H        0.51810    0.00760    0.81540    1.000
    C89      C        0.50210    0.13600    0.82500    1.000
    H42      H        0.51430    0.13410    0.79340    1.000
    C90      C        0.45640    0.04900    0.78910    1.000
    H43      H        0.44240    0.00730    0.76440    1.000
    C91      C        0.45700    0.11200    0.81000    1.000
    H44      H        0.45080    0.06670    0.79010    1.000
    C92      C        0.56200    0.12700    0.88500    1.000
    C93      C        0.56050    0.17700    0.92060    1.000
    C94      C        0.71530    0.29400    0.09790    1.000
    C95      C        0.69830    0.23180    0.05280    1.000
    C96      C        0.65150    0.22090    0.01490    1.000
    H45      H        0.63190    0.25030    0.02260    1.000
    C97      C        0.63650    0.16380    0.96550    1.000
    C98      C        0.66550    0.12280    0.95020    1.000
    H46      H        0.65470    0.08560    0.91750    1.000
    C99      C        0.71110    0.13680    0.98320    1.000
    C100     C        0.72620    0.19130    0.03530    1.000
    H47      H        0.75620    0.20030    0.05880    1.000
    C101     C        0.74060    0.09480    0.96630    1.000
    C102     C        0.90430    0.91580    0.42080    1.000
    C103     C        0.95590    0.90810    0.47030    1.000
    C104     C        0.97570    0.84990    0.45140    1.000
    H48      H        0.96180    0.81260    0.42000    1.000
    C105     C        0.01670    0.86000    0.48680    1.000
    H49      H        0.03340    0.85850    0.46190    1.000
    C106     C        0.03810    0.87320    0.55390    1.000
    C107     C        0.01500    0.92310    0.57730    1.000
    H50      H        0.02950    0.94390    0.62170    1.000
    C108     C        0.97230    0.94070    0.53580    1.000
    H51      H        0.95590    0.97120    0.54990    1.000
    C109     C        0.08550    0.86450    0.58950    1.000
    C110     C        0.24220    0.96920    0.69160    1.000
    C111     C        0.22140    0.90040    0.68220    1.000
    C112     C        0.24630    0.83850    0.71090    1.000
    H52      H        0.27650    0.84240    0.73760    1.000
    C113     C        0.22630    0.77040    0.69990    1.000
    C114     C        0.18110    0.76760    0.66770    1.000
    H53      H        0.16730    0.72290    0.66110    1.000
    C115     C        0.15570    0.82890    0.64480    1.000
    C116     C        0.17550    0.89530    0.64950    1.000
    H54      H        0.15840    0.93640    0.63100    1.000
    C117     C        0.25450    0.70580    0.72580    1.000
    N7       N        0.59000    0.15340    0.92550    1.000
    N8       N        0.10920    0.82440    0.60280    1.000
    O29      O        0.35730    0.10750    0.80690    1.000
    O30      O        0.35690    0.14210    0.76950    1.000
    O31      O        0.36390    0.04660    0.71730    1.000
    O32      O        0.75580    0.29920    0.13690    1.000
    O33      O        0.68680    0.33810    0.10190    1.000
    O34      O        0.72820    0.05570    0.91330    1.000
    O35      O        0.78230    0.09800    0.01020    1.000
    O36      O        0.87950    0.95170    0.42500    1.000
    O37      O        0.88950    0.88080    0.36080    1.000
    O38      O        0.28280    0.97850    0.72520    1.000
    O39      O        0.21780    0.02660    0.65980    1.000
    O40      O        0.23710    0.64460    0.72420    1.000
    O41      O        0.29430    0.71390    0.75040    1.000
    N9       N        0.60960    0.33500    0.64100    1.000
    O42      O        0.64280    0.16170    0.76570    1.000
    Cd10     Cd       0.79015    0.59876    0.69922    1.000
    Cd11     Cd       0.17755    0.88881    0.19349    1.000
    Cd12     Cd       0.17797    0.94911    0.03928    1.000
    C118     C        0.87770    0.60530    0.76600    1.000
    C119     C        0.92820    0.60300    0.79040    1.000
    C120     C        0.92630    0.63600    0.81740    1.000
    C121     C        0.94500    0.66800    0.82560    1.000
    H55      H        0.92800    0.70620    0.82830    1.000
    C122     C        0.94310    0.65500    0.87420    1.000
    H56      H        0.92180    0.66380    0.88950    1.000
    C123     C        0.99990    0.66700    0.86230    1.000
    H57      H        0.01610    0.70650    0.88780    1.000
    C124     C        0.98530    0.67000    0.93000    1.000
    H58      H        0.99270    0.68220    0.97680    1.000
    C125     C        0.01960    0.60960    0.85430    1.000
    C126     C        0.02100    0.65860    0.88700    1.000
    C127     C        0.00180    0.54640    0.81890    1.000
    H59      H        0.01810    0.50760    0.81540    1.000
    C128     C        0.00210    0.63600    0.82500    1.000
    H60      H        0.01430    0.63410    0.79340    1.000
    C129     C        0.95640    0.54900    0.78910    1.000
    H61      H        0.94240    0.50730    0.76440    1.000
    C130     C        0.95700    0.61200    0.81000    1.000
    H62      H        0.95080    0.56670    0.79010    1.000
    C131     C        0.06200    0.62700    0.88500    1.000
    C132     C        0.06050    0.67700    0.92060    1.000
    C133     C        0.21530    0.79400    0.09790    1.000
    C134     C        0.19830    0.73180    0.05280    1.000
    C135     C        0.15150    0.72090    0.01490    1.000
    H63      H        0.13190    0.75030    0.02260    1.000
    C136     C        0.13650    0.66380    0.96550    1.000
    C137     C        0.16550    0.62280    0.95020    1.000
    H64      H        0.15470    0.58560    0.91750    1.000
    C138     C        0.21110    0.63680    0.98320    1.000
    C139     C        0.22620    0.69130    0.03530    1.000
    H65      H        0.25620    0.70030    0.05880    1.000
    C140     C        0.24060    0.59480    0.96630    1.000
    C141     C        0.40430    0.41580    0.42080    1.000
    C142     C        0.45590    0.40810    0.47030    1.000
    C143     C        0.47570    0.34990    0.45140    1.000
    H66      H        0.46180    0.31260    0.42000    1.000
    C144     C        0.51670    0.36000    0.48680    1.000
    H67      H        0.53340    0.35850    0.46190    1.000
    C145     C        0.53810    0.37320    0.55390    1.000
    C146     C        0.51500    0.42310    0.57730    1.000
    H68      H        0.52950    0.44390    0.62170    1.000
    C147     C        0.47230    0.44070    0.53580    1.000
    H69      H        0.45590    0.47120    0.54990    1.000
    C148     C        0.58550    0.36450    0.58950    1.000
    C149     C        0.74220    0.46920    0.69160    1.000
    C150     C        0.72140    0.40040    0.68220    1.000
    C151     C        0.74630    0.33850    0.71090    1.000
    H70      H        0.77650    0.34240    0.73760    1.000
    C152     C        0.72630    0.27040    0.69990    1.000
    C153     C        0.68110    0.26760    0.66770    1.000
    H71      H        0.66730    0.22290    0.66110    1.000
    C154     C        0.65570    0.32890    0.64480    1.000
    C155     C        0.67550    0.39530    0.64950    1.000
    H72      H        0.65840    0.43640    0.63100    1.000
    C156     C        0.75450    0.20580    0.72580    1.000
    N10      N        0.09000    0.65340    0.92550    1.000
    N11      N        0.60920    0.32440    0.60280    1.000
    O43      O        0.85730    0.60750    0.80690    1.000
    O44      O        0.85690    0.64210    0.76950    1.000
    O45      O        0.86390    0.54660    0.71730    1.000
    O46      O        0.25580    0.79920    0.13690    1.000
    O47      O        0.18680    0.83810    0.10190    1.000
    O48      O        0.22820    0.55570    0.91330    1.000
    O49      O        0.28230    0.59800    0.01020    1.000
    O50      O        0.37950    0.45170    0.42500    1.000
    O51      O        0.38950    0.38080    0.36080    1.000
    O52      O        0.78280    0.47850    0.72520    1.000
    O53      O        0.71780    0.52660    0.65980    1.000
    O54      O        0.73710    0.14460    0.72420    1.000
    O55      O        0.79430    0.21390    0.75040    1.000
    N12      N        0.10960    0.83500    0.64100    1.000
    O56      O        0.14280    0.66170    0.76570    1.000
    Cd13     Cd       0.29015    0.90124    0.19922    1.000
    Cd14     Cd       0.67755    0.61119    0.69349    1.000
    Cd15     Cd       0.67797    0.55089    0.53928    1.000
    C157     C        0.37770    0.89470    0.26600    1.000
    C158     C        0.42820    0.89700    0.29040    1.000
    C159     C        0.42630    0.86400    0.31740    1.000
    C160     C        0.44500    0.83200    0.32560    1.000
    H73      H        0.42800    0.79380    0.32830    1.000
    C161     C        0.44310    0.84500    0.37420    1.000
    H74      H        0.42180    0.83620    0.38950    1.000
    C162     C        0.49990    0.83300    0.36230    1.000
    H75      H        0.51610    0.79350    0.38780    1.000
    C163     C        0.48530    0.83000    0.43000    1.000
    H76      H        0.49270    0.81780    0.47680    1.000
    C164     C        0.51960    0.89040    0.35430    1.000
    C165     C        0.52100    0.84140    0.38700    1.000
    C166     C        0.50180    0.95360    0.31890    1.000
    H77      H        0.51810    0.99240    0.31540    1.000
    C167     C        0.50210    0.86400    0.32500    1.000
    H78      H        0.51430    0.86590    0.29340    1.000
    C168     C        0.45640    0.95100    0.28910    1.000
    H79      H        0.44240    0.99270    0.26440    1.000
    C169     C        0.45700    0.88800    0.31000    1.000
    H80      H        0.45080    0.93330    0.29010    1.000
    C170     C        0.56200    0.87300    0.38500    1.000
    C171     C        0.56050    0.82300    0.42060    1.000
    C172     C        0.71530    0.70600    0.59790    1.000
    C173     C        0.69830    0.76820    0.55280    1.000
    C174     C        0.65150    0.77910    0.51490    1.000
    H81      H        0.63190    0.74970    0.52260    1.000
    C175     C        0.63650    0.83620    0.46550    1.000
    C176     C        0.66550    0.87720    0.45020    1.000
    H82      H        0.65470    0.91440    0.41750    1.000
    C177     C        0.71110    0.86320    0.48320    1.000
    C178     C        0.72620    0.80870    0.53530    1.000
    H83      H        0.75620    0.79970    0.55880    1.000
    C179     C        0.74060    0.90520    0.46630    1.000
    C180     C        0.90430    0.08420    0.92080    1.000
    C181     C        0.95590    0.09190    0.97030    1.000
    C182     C        0.97570    0.15010    0.95140    1.000
    H84      H        0.96180    0.18740    0.92000    1.000
    C183     C        0.01670    0.14000    0.98680    1.000
    H85      H        0.03340    0.14150    0.96190    1.000
    C184     C        0.03810    0.12680    0.05390    1.000
    C185     C        0.01500    0.07690    0.07730    1.000
    H86      H        0.02950    0.05610    0.12170    1.000
    C186     C        0.97230    0.05930    0.03580    1.000
    H87      H        0.95590    0.02880    0.04990    1.000
    C187     C        0.08550    0.13550    0.08950    1.000
    C188     C        0.24220    0.03080    0.19160    1.000
    C189     C        0.22140    0.09960    0.18220    1.000
    C190     C        0.24630    0.16150    0.21090    1.000
    H88      H        0.27650    0.15760    0.23760    1.000
    C191     C        0.22630    0.22960    0.19990    1.000
    C192     C        0.18110    0.23240    0.16770    1.000
    H89      H        0.16730    0.27710    0.16110    1.000
    C193     C        0.15570    0.17110    0.14480    1.000
    C194     C        0.17550    0.10470    0.14950    1.000
    H90      H        0.15840    0.06360    0.13100    1.000
    C195     C        0.25450    0.29420    0.22580    1.000
    N13      N        0.59000    0.84660    0.42550    1.000
    N14      N        0.10920    0.17560    0.10280    1.000
    O57      O        0.35730    0.89250    0.30690    1.000
    O58      O        0.35690    0.85790    0.26950    1.000
    O59      O        0.36390    0.95340    0.21730    1.000
    O60      O        0.75580    0.70080    0.63690    1.000
    O61      O        0.68680    0.66190    0.60190    1.000
    O62      O        0.72820    0.94430    0.41330    1.000
    O63      O        0.78230    0.90200    0.51020    1.000
    O64      O        0.87950    0.04830    0.92500    1.000
    O65      O        0.88950    0.11920    0.86080    1.000
    O66      O        0.28280    0.02150    0.22520    1.000
    O67      O        0.21780    0.97340    0.15980    1.000
    O68      O        0.23710    0.35540    0.22420    1.000
    O69      O        0.29430    0.28610    0.25040    1.000
    N15      N        0.60960    0.66500    0.14100    1.000
    O70      O        0.64280    0.83830    0.26570    1.000
    Cd16     Cd       0.79015    0.40124    0.19922    1.000
    Cd17     Cd       0.17755    0.11119    0.69349    1.000
    Cd18     Cd       0.17797    0.05089    0.53928    1.000
    C196     C        0.87770    0.39470    0.26600    1.000
    C197     C        0.92820    0.39700    0.29040    1.000
    C198     C        0.92630    0.36400    0.31740    1.000
    C199     C        0.94500    0.33200    0.32560    1.000
    H91      H        0.92800    0.29380    0.32830    1.000
    C200     C        0.94310    0.34500    0.37420    1.000
    H92      H        0.92180    0.33620    0.38950    1.000
    C201     C        0.99990    0.33300    0.36230    1.000
    H93      H        0.01610    0.29350    0.38780    1.000
    C202     C        0.98530    0.33000    0.43000    1.000
    H94      H        0.99270    0.31780    0.47680    1.000
    C203     C        0.01960    0.39040    0.35430    1.000
    C204     C        0.02100    0.34140    0.38700    1.000
    C205     C        0.00180    0.45360    0.31890    1.000
    H95      H        0.01810    0.49240    0.31540    1.000
    C206     C        0.00210    0.36400    0.32500    1.000
    H96      H        0.01430    0.36590    0.29340    1.000
    C207     C        0.95640    0.45100    0.28910    1.000
    H97      H        0.94240    0.49270    0.26440    1.000
    C208     C        0.95700    0.38800    0.31000    1.000
    H98      H        0.95080    0.43330    0.29010    1.000
    C209     C        0.06200    0.37300    0.38500    1.000
    C210     C        0.06050    0.32300    0.42060    1.000
    C211     C        0.21530    0.20600    0.59790    1.000
    C212     C        0.19830    0.26820    0.55280    1.000
    C213     C        0.15150    0.27910    0.51490    1.000
    H99      H        0.13190    0.24970    0.52260    1.000
    C214     C        0.13650    0.33620    0.46550    1.000
    C215     C        0.16550    0.37720    0.45020    1.000
    H100     H        0.15470    0.41440    0.41750    1.000
    C216     C        0.21110    0.36320    0.48320    1.000
    C217     C        0.22620    0.30870    0.53530    1.000
    H101     H        0.25620    0.29970    0.55880    1.000
    C218     C        0.24060    0.40520    0.46630    1.000
    C219     C        0.40430    0.58420    0.92080    1.000
    C220     C        0.45590    0.59190    0.97030    1.000
    C221     C        0.47570    0.65010    0.95140    1.000
    H102     H        0.46180    0.68740    0.92000    1.000
    C222     C        0.51670    0.64000    0.98680    1.000
    H103     H        0.53340    0.64150    0.96190    1.000
    C223     C        0.53810    0.62680    0.05390    1.000
    C224     C        0.51500    0.57690    0.07730    1.000
    H104     H        0.52950    0.55610    0.12170    1.000
    C225     C        0.47230    0.55930    0.03580    1.000
    H105     H        0.45590    0.52880    0.04990    1.000
    C226     C        0.58550    0.63550    0.08950    1.000
    C227     C        0.74220    0.53080    0.19160    1.000
    C228     C        0.72140    0.59960    0.18220    1.000
    C229     C        0.74630    0.66150    0.21090    1.000
    H106     H        0.77650    0.65760    0.23760    1.000
    C230     C        0.72630    0.72960    0.19990    1.000
    C231     C        0.68110    0.73240    0.16770    1.000
    H107     H        0.66730    0.77710    0.16110    1.000
    C232     C        0.65570    0.67110    0.14480    1.000
    C233     C        0.67550    0.60470    0.14950    1.000
    H108     H        0.65840    0.56360    0.13100    1.000
    C234     C        0.75450    0.79420    0.22580    1.000
    N16      N        0.09000    0.34660    0.42550    1.000
    N17      N        0.60920    0.67560    0.10280    1.000
    O71      O        0.85730    0.39250    0.30690    1.000
    O72      O        0.85690    0.35790    0.26950    1.000
    O73      O        0.86390    0.45340    0.21730    1.000
    O74      O        0.25580    0.20080    0.63690    1.000
    O75      O        0.18680    0.16190    0.60190    1.000
    O76      O        0.22820    0.44430    0.41330    1.000
    O77      O        0.28230    0.40200    0.51020    1.000
    O78      O        0.37950    0.54830    0.92500    1.000
    O79      O        0.38950    0.61920    0.86080    1.000
    O80      O        0.78280    0.52150    0.22520    1.000
    O81      O        0.71780    0.47340    0.15980    1.000
    O82      O        0.73710    0.85540    0.22420    1.000
    O83      O        0.79430    0.78610    0.25040    1.000
    N18      N        0.10960    0.16500    0.14100    1.000
    O84      O        0.14280    0.33830    0.26570    1.000
    Cd19     Cd       0.70985    0.90124    0.30078    1.000
    Cd20     Cd       0.32245    0.61119    0.80651    1.000
    Cd21     Cd       0.32203    0.55089    0.96072    1.000
    C235     C        0.62230    0.89470    0.23400    1.000
    C236     C        0.57180    0.89700    0.20960    1.000
    C237     C        0.57370    0.86400    0.18260    1.000
    C238     C        0.55500    0.83200    0.17440    1.000
    H109     H        0.57200    0.79380    0.17170    1.000
    C239     C        0.55690    0.84500    0.12580    1.000
    H110     H        0.57820    0.83620    0.11050    1.000
    C240     C        0.50010    0.83300    0.13770    1.000
    H111     H        0.48390    0.79350    0.11220    1.000
    C241     C        0.51470    0.83000    0.07000    1.000
    H112     H        0.50730    0.81780    0.02320    1.000
    C242     C        0.48040    0.89040    0.14570    1.000
    C243     C        0.47900    0.84140    0.11300    1.000
    C244     C        0.49820    0.95360    0.18110    1.000
    H113     H        0.48190    0.99240    0.18460    1.000
    C245     C        0.49790    0.86400    0.17500    1.000
    H114     H        0.48570    0.86590    0.20660    1.000
    C246     C        0.54360    0.95100    0.21090    1.000
    H115     H        0.55760    0.99270    0.23560    1.000
    C247     C        0.54300    0.88800    0.19000    1.000
    H116     H        0.54920    0.93330    0.20990    1.000
    C248     C        0.43800    0.87300    0.11500    1.000
    C249     C        0.43950    0.82300    0.07940    1.000
    C250     C        0.28470    0.70600    0.90210    1.000
    C251     C        0.30170    0.76820    0.94720    1.000
    C252     C        0.34850    0.77910    0.98510    1.000
    H117     H        0.36810    0.74970    0.97740    1.000
    C253     C        0.36350    0.83620    0.03450    1.000
    C254     C        0.33450    0.87720    0.04980    1.000
    H118     H        0.34530    0.91440    0.08250    1.000
    C255     C        0.28890    0.86320    0.01680    1.000
    C256     C        0.27380    0.80870    0.96470    1.000
    H119     H        0.24380    0.79970    0.94120    1.000
    C257     C        0.25940    0.90520    0.03370    1.000
    C258     C        0.09570    0.08420    0.57920    1.000
    C259     C        0.04410    0.09190    0.52970    1.000
    C260     C        0.02430    0.15010    0.54860    1.000
    H120     H        0.03820    0.18740    0.58000    1.000
    C261     C        0.98330    0.14000    0.51320    1.000
    H121     H        0.96660    0.14150    0.53810    1.000
    C262     C        0.96190    0.12680    0.44610    1.000
    C263     C        0.98500    0.07690    0.42270    1.000
    H122     H        0.97050    0.05610    0.37830    1.000
    C264     C        0.02770    0.05930    0.46420    1.000
    H123     H        0.04410    0.02880    0.45010    1.000
    C265     C        0.91450    0.13550    0.41050    1.000
    C266     C        0.75780    0.03080    0.30840    1.000
    C267     C        0.77860    0.09960    0.31780    1.000
    C268     C        0.75370    0.16150    0.28910    1.000
    H124     H        0.72350    0.15760    0.26240    1.000
    C269     C        0.77370    0.22960    0.30010    1.000
    C270     C        0.81890    0.23240    0.33230    1.000
    H125     H        0.83270    0.27710    0.33890    1.000
    C271     C        0.84430    0.17110    0.35520    1.000
    C272     C        0.82450    0.10470    0.35050    1.000
    H126     H        0.84160    0.06360    0.36900    1.000
    C273     C        0.74550    0.29420    0.27420    1.000
    N19      N        0.41000    0.84660    0.07450    1.000
    N20      N        0.89080    0.17560    0.39720    1.000
    O85      O        0.64270    0.89250    0.19310    1.000
    O86      O        0.64310    0.85790    0.23050    1.000
    O87      O        0.63610    0.95340    0.28270    1.000
    O88      O        0.24420    0.70080    0.86310    1.000
    O89      O        0.31320    0.66190    0.89810    1.000
    O90      O        0.27180    0.94430    0.08670    1.000
    O91      O        0.21770    0.90200    0.98980    1.000
    O92      O        0.12050    0.04830    0.57500    1.000
    O93      O        0.11050    0.11920    0.63920    1.000
    O94      O        0.71720    0.02150    0.27480    1.000
    O95      O        0.78220    0.97340    0.34020    1.000
    O96      O        0.76290    0.35540    0.27580    1.000
    O97      O        0.70570    0.28610    0.24960    1.000
    N21      N        0.39040    0.66500    0.35900    1.000
    O98      O        0.35720    0.83830    0.23430    1.000
    Cd22     Cd       0.20985    0.40124    0.30078    1.000
    Cd23     Cd       0.82245    0.11119    0.80651    1.000
    Cd24     Cd       0.82203    0.05089    0.96072    1.000
    C274     C        0.12230    0.39470    0.23400    1.000
    C275     C        0.07180    0.39700    0.20960    1.000
    C276     C        0.07370    0.36400    0.18260    1.000
    C277     C        0.05500    0.33200    0.17440    1.000
    H127     H        0.07200    0.29380    0.17170    1.000
    C278     C        0.05690    0.34500    0.12580    1.000
    H128     H        0.07820    0.33620    0.11050    1.000
    C279     C        0.00010    0.33300    0.13770    1.000
    H129     H        0.98390    0.29350    0.11220    1.000
    C280     C        0.01470    0.33000    0.07000    1.000
    H130     H        0.00730    0.31780    0.02320    1.000
    C281     C        0.98040    0.39040    0.14570    1.000
    C282     C        0.97900    0.34140    0.11300    1.000
    C283     C        0.99820    0.45360    0.18110    1.000
    H131     H        0.98190    0.49240    0.18460    1.000
    C284     C        0.99790    0.36400    0.17500    1.000
    H132     H        0.98570    0.36590    0.20660    1.000
    C285     C        0.04360    0.45100    0.21090    1.000
    H133     H        0.05760    0.49270    0.23560    1.000
    C286     C        0.04300    0.38800    0.19000    1.000
    H134     H        0.04920    0.43330    0.20990    1.000
    C287     C        0.93800    0.37300    0.11500    1.000
    C288     C        0.93950    0.32300    0.07940    1.000
    C289     C        0.78470    0.20600    0.90210    1.000
    C290     C        0.80170    0.26820    0.94720    1.000
    C291     C        0.84850    0.27910    0.98510    1.000
    H135     H        0.86810    0.24970    0.97740    1.000
    C292     C        0.86350    0.33620    0.03450    1.000
    C293     C        0.83450    0.37720    0.04980    1.000
    H136     H        0.84530    0.41440    0.08250    1.000
    C294     C        0.78890    0.36320    0.01680    1.000
    C295     C        0.77380    0.30870    0.96470    1.000
    H137     H        0.74380    0.29970    0.94120    1.000
    C296     C        0.75940    0.40520    0.03370    1.000
    C297     C        0.59570    0.58420    0.57920    1.000
    C298     C        0.54410    0.59190    0.52970    1.000
    C299     C        0.52430    0.65010    0.54860    1.000
    H138     H        0.53820    0.68740    0.58000    1.000
    C300     C        0.48330    0.64000    0.51320    1.000
    H139     H        0.46660    0.64150    0.53810    1.000
    C301     C        0.46190    0.62680    0.44610    1.000
    C302     C        0.48500    0.57690    0.42270    1.000
    H140     H        0.47050    0.55610    0.37830    1.000
    C303     C        0.52770    0.55930    0.46420    1.000
    H141     H        0.54410    0.52880    0.45010    1.000
    C304     C        0.41450    0.63550    0.41050    1.000
    C305     C        0.25780    0.53080    0.30840    1.000
    C306     C        0.27860    0.59960    0.31780    1.000
    C307     C        0.25370    0.66150    0.28910    1.000
    H142     H        0.22350    0.65760    0.26240    1.000
    C308     C        0.27370    0.72960    0.30010    1.000
    C309     C        0.31890    0.73240    0.33230    1.000
    H143     H        0.33270    0.77710    0.33890    1.000
    C310     C        0.34430    0.67110    0.35520    1.000
    C311     C        0.32450    0.60470    0.35050    1.000
    H144     H        0.34160    0.56360    0.36900    1.000
    C312     C        0.24550    0.79420    0.27420    1.000
    N22      N        0.91000    0.34660    0.07450    1.000
    N23      N        0.39080    0.67560    0.39720    1.000
    O99      O        0.14270    0.39250    0.19310    1.000
    O100     O        0.14310    0.35790    0.23050    1.000
    O101     O        0.13610    0.45340    0.28270    1.000
    O102     O        0.74420    0.20080    0.86310    1.000
    O103     O        0.81320    0.16190    0.89810    1.000
    O104     O        0.77180    0.44430    0.08670    1.000
    O105     O        0.71770    0.40200    0.98980    1.000
    O106     O        0.62050    0.54830    0.57500    1.000
    O107     O        0.61050    0.61920    0.63920    1.000
    O108     O        0.21720    0.52150    0.27480    1.000
    O109     O        0.28220    0.47340    0.34020    1.000
    O110     O        0.26290    0.85540    0.27580    1.000
    O111     O        0.20570    0.78610    0.24960    1.000
    N24      N        0.89040    0.16500    0.35900    1.000
    O112     O        0.85720    0.33830    0.23430    1.000
