data_functionalizedCrystal
_audit_creation_method	'EQeq! by Chris Wilmer'
_symmetry_space_group_name_H-M	'P1'
_symmetry_Int_Tables_number	1
_symmetry_cell_setting	triclinic
loop_
_symmetry_equiv_pos_as_xyz
  x,y,z
_cell_length_a	13.936
_cell_length_b	13.936
_cell_length_c	17.469
_cell_angle_alpha	90
_cell_angle_beta	90
_cell_angle_gamma	90
loop_
_atom_site_label
_atom_site_type_symbol
_atom_site_fract_x
_atom_site_fract_y
_atom_site_fract_z
_atom_site_charge
Mof_Nd	Nd	0.28547	0.67676	0.74981	1.835
Mof_N 	N 	0.4706	0.6773	0.7503	-0.21
Mof_O 	O 	0.3673	0.5646	0.8418	-0.502
Mof_O 	O 	0.1726	0.6737	0.645	-0.558
Mof_O 	O 	0.3683	0.7883	0.6584	-0.532
Mof_O 	O 	0.5036	0.8499	0.6052	-0.537
Mof_O 	O 	0.1118	0.544	0.9078	-0.462
Mof_O 	O 	0.5025	0.5056	0.8967	-0.482
Mof_O 	O 	0.1714	0.6802	0.8536	-0.551
Mof_O 	O 	0.1122	0.8087	0.5918	-0.527
Mof_C 	C 	0.056	0.6571	0.5484	-0.136
Mof_C 	C 	0.5203	0.7329	0.7014	-0.112
Mof_C 	C 	0.5194	0.6215	0.7988	-0.094
Mof_C 	C 	0.6689	0.6773	0.7507	-0.116
Mof_H 	H 	0.7356	0.6777	0.7511	0.049
Mof_C 	C 	0.119	0.7186	0.5996	0.406
Mof_C 	C 	0.6182	0.6202	0.8017	0.018
Mof_H 	H 	0.6502	0.582	0.8371	0.01
Mof_C 	C 	0.4595	0.7958	0.6502	0.384
Mof_C 	C 	0.6191	0.7333	0.6994	0.023
Mof_H 	H 	0.6517	0.7708	0.6639	-0.016
Mof_C 	C 	0.1182	0.6345	0.8999	0.404
Mof_C 	C 	0.0558	0.6971	0.951	-0.122
Mof_C 	C 	0.0555	0.7958	0.9484	0.291
Mof_H 	H 	0.0921	0.8286	0.9124	-0.115
Mof_C 	C 	0.4578	0.558	0.8504	0.385
Mof_C 	C 	0.0564	0.5571	0.5517	0.068
Mof_H 	H 	0.0936	0.5249	0.5876	-0.033
Mof_Nd	Nd	0.78547	0.17676	0.24981	1.93
Mof_N 	N 	0.9706	0.1773	0.2503	-0.141
Mof_O 	O 	0.8673	0.0646	0.3418	-0.507
Mof_O 	O 	0.6726	0.1737	0.145	-0.544
Mof_O 	O 	0.8683	0.2883	0.1584	-0.544
Mof_O 	O 	0.0036	0.3499	0.1052	-0.59
Mof_O 	O 	0.6118	0.044	0.4078	-0.422
Mof_O 	O 	0.0025	0.0056	0.3967	-0.504
Mof_O 	O 	0.6714	0.1802	0.3536	-0.539
Mof_O 	O 	0.6122	0.3087	0.0918	-0.505
Mof_C 	C 	0.556	0.1571	0.0484	-0.059
Mof_C 	C 	0.0203	0.2329	0.2014	-0.232
Mof_C 	C 	0.0194	0.1215	0.2988	-0.206
Mof_C 	C 	0.1689	0.1773	0.2507	-0.207
Mof_H 	H 	0.2356	0.1777	0.2511	0.078
Mof_C 	C 	0.619	0.2186	0.0996	0.383
Mof_C 	C 	0.1182	0.1202	0.3017	0.112
Mof_H 	H 	0.1502	0.082	0.3371	-0.022
Mof_C 	C 	0.9595	0.2958	0.1502	0.509
Mof_C 	C 	0.1191	0.2333	0.1994	0.123
Mof_H 	H 	0.1517	0.2708	0.1639	-0.054
Mof_C 	C 	0.6182	0.1345	0.3999	0.384
Mof_C 	C 	0.5558	0.1971	0.451	-0.087
Mof_C 	C 	0.5555	0.2958	0.4484	0.019
Mof_H 	H 	0.5921	0.3286	0.4124	-0.009
Mof_C 	C 	0.9578	0.058	0.3504	0.494
Mof_C 	C 	0.5564	0.0571	0.0517	-0.124
Mof_H 	H 	0.5936	0.0249	0.0876	0.065
Mof_Nd	Nd	0.71453	0.67676	0.25019	1.819
Mof_N 	N 	0.5294	0.6773	0.2497	-0.21
Mof_O 	O 	0.6327	0.5646	0.1582	-0.523
Mof_O 	O 	0.8274	0.6737	0.355	-0.548
Mof_O 	O 	0.6317	0.7883	0.3416	-0.531
Mof_O 	O 	0.4964	0.8499	0.3948	-0.541
Mof_O 	O 	0.8882	0.544	0.0922	-0.483
Mof_O 	O 	0.4975	0.5056	0.1033	-0.544
Mof_O 	O 	0.8286	0.6802	0.1464	-0.558
Mof_O 	O 	0.8878	0.8087	0.4082	-0.498
Mof_C 	C 	0.944	0.6571	0.4516	-0.093
Mof_C 	C 	0.4797	0.7329	0.2986	-0.121
Mof_C 	C 	0.4806	0.6215	0.2012	-0.117
Mof_C 	C 	0.3311	0.6773	0.2493	-0.135
Mof_H 	H 	0.2644	0.6777	0.2489	0.028
Mof_C 	C 	0.881	0.7186	0.4004	0.401
Mof_C 	C 	0.3818	0.6202	0.1983	0.02
Mof_H 	H 	0.3498	0.582	0.1629	-0.024
Mof_C 	C 	0.5405	0.7958	0.3498	0.384
Mof_C 	C 	0.3809	0.7333	0.3006	0.022
Mof_H 	H 	0.3483	0.7708	0.3361	-0.026
Mof_C 	C 	0.8818	0.6345	0.1001	0.403
Mof_C 	C 	0.9442	0.6971	0.049	-0.166
Mof_C 	C 	0.9445	0.7958	0.0516	0.24
Mof_H 	H 	0.9079	0.8286	0.0876	-0.11
Mof_C 	C 	0.5422	0.558	0.1496	0.388
Mof_C 	C 	0.9436	0.5571	0.4483	0.114
Mof_H 	H 	0.9064	0.5249	0.4124	-0.034
Mof_Nd	Nd	0.21453	0.17676	0.75019	1.909
Mof_N 	N 	0.0294	0.1773	0.7497	-0.289
Mof_O 	O 	0.1327	0.0646	0.6582	-0.458
Mof_O 	O 	0.3274	0.1737	0.855	-0.526
Mof_O 	O 	0.1317	0.2883	0.8416	-0.474
Mof_O 	O 	0.9964	0.3499	0.8948	-0.39
Mof_O 	O 	0.3882	0.044	0.5922	-0.422
Mof_O 	O 	0.9975	0.0056	0.6033	-0.368
Mof_O 	O 	0.3286	0.1802	0.6464	-0.539
Mof_O 	O 	0.3878	0.3087	0.9082	-0.456
Mof_C 	C 	0.444	0.1571	0.9516	0.03
Mof_C 	C 	0.9797	0.2329	0.7986	0.05
Mof_C 	C 	0.9806	0.1215	0.7012	0.053
Mof_C 	C 	0.8311	0.1773	0.7493	0.016
Mof_H 	H 	0.7644	0.1777	0.7489	0.019
Mof_C 	C 	0.381	0.2186	0.9004	0.377
Mof_C 	C 	0.8818	0.1202	0.6983	-0.09
Mof_H 	H 	0.8498	0.082	0.6629	0.062
Mof_C 	C 	0.0405	0.2958	0.8498	0.259
Mof_C 	C 	0.8809	0.2333	0.8006	-0.089
Mof_H 	H 	0.8483	0.2708	0.8361	0.057
Mof_C 	C 	0.3818	0.1345	0.6001	0.384
Mof_C 	C 	0.4442	0.1971	0.549	-0.087
Mof_C 	C 	0.4445	0.2958	0.5516	0.019
Mof_H 	H 	0.4079	0.3286	0.5876	-0.01
Mof_C 	C 	0.0422	0.058	0.6496	0.261
Mof_C 	C 	0.4436	0.0571	0.9483	-0.023
Mof_H 	H 	0.4064	0.0249	0.9124	0.059
Mof_Nd	Nd	0.5	0.96231	0.5	1.527
Mof_Nd	Nd	-7.44057e-33	0.46231	-0	1.535
Mof_Nd	Nd	-5.0906e-33	0.89133	0.5	1.455
Mof_N 	N 	2.34997e-33	0.706	0.5	-0.209
Mof_C 	C 	-5.0906e-33	0.507	0.5	-0.227
Mof_H 	H 	-1.25312e-32	0.4403	0.5	0.064
Mof_Nd	Nd	0.5	0.39133	-0	1.639
Mof_N 	N 	0.5	0.206	-0	-0.277
Mof_C 	C 	0.5	0.007	-0	0.11
Mof_H 	H 	0.5	0.9403	-0	-0.164
Mof_N 	N 	-7.44057e-33	0.6463	-0	-0.25
Mof_C 	C 	-7.44057e-33	0.8445	-0	-0.502
Mof_H 	H 	-7.44057e-33	0.9113	-0	0.091
Mof_N 	N 	0.5	0.1463	0.5	-0.178
Mof_C 	C 	0.5	0.3445	0.5	-0.113
Mof_H 	H 	0.5	0.4113	0.5	0.039
_end
