# CIF file generated by openbabel 3.1.0, see https://openbabel.org
data_I
_chemical_name_common 'GOXMEN_clean'
_cell_length_a 10.402
_cell_length_b 16.373
_cell_length_c 17.0657
_cell_angle_alpha 61.3339
_cell_angle_beta 87.3193
_cell_angle_gamma 84.4049
_space_group_name_H-M_alt 'P 1'
_space_group_name_Hall 'P 1'
loop_
    _symmetry_equiv_pos_as_xyz
    x,y,z
loop_
    _atom_site_label
    _atom_site_type_symbol
    _atom_site_fract_x
    _atom_site_fract_y
    _atom_site_fract_z
    _atom_site_occupancy
    Co1      Co       0.04590    0.69374    0.05320    1.000
    Co2      Co       0.54640    0.37047    0.69878    1.000
    H1       H        0.80690    0.71360    0.31460    1.000
    H2       H        0.31660    0.67450    0.14080    1.000
    H3       H        0.68860    0.41830    0.96140    1.000
    H4       H        0.72540    0.55340    0.41660    1.000
    H5       H        0.81870    0.25850    0.78940    1.000
    H6       H        0.51700    0.37780    0.88980    1.000
    H7       H        0.55950    0.63040    0.18300    1.000
    H8       H        0.27650    0.38750    0.78840    1.000
    H9       H        0.77880    0.62400    0.13840    1.000
    H10      H        0.27870    0.71860    0.71480    1.000
    H11      H        0.23560    0.79660    0.53820    1.000
    H12      H        0.28450    0.27500    0.72700    1.000
    H13      H        0.73830    0.00500    0.63480    1.000
    H14      H        0.56130    0.18840    0.90440    1.000
    H15      H        0.93140    0.10570    0.60960    1.000
    H16      H        0.25780    0.96670    0.93640    1.000
    H17      H        0.01150    0.45890    0.75760    1.000
    H18      H        0.19490    0.59350    0.85940    1.000
    H19      H        0.20840    0.26030    0.37680    1.000
    H20      H        0.03680    0.31520    0.27780    1.000
    H21      H        0.01320    0.47790    0.16360    1.000
    H22      H        0.00640    0.75760    0.20580    1.000
    H23      H        0.09460    0.21940    0.76200    1.000
    H24      H        0.54120    0.10380    0.58000    1.000
    H25      H        0.38690    0.45880    0.41620    1.000
    H26      H        0.50130    0.60610    0.53180    1.000
    H27      H        0.80230    0.46340    0.71760    1.000
    H28      H        0.83200    0.52260    0.94080    1.000
    H29      H        0.45340    0.76820    0.48400    1.000
    H30      H        0.42580    0.05690    0.94900    1.000
    H31      H        0.89900    0.99260    0.85180    1.000
    H32      H        0.35590    0.36780    0.36800    1.000
    H33      H        0.52860    0.24160    0.59640    1.000
    C1       C        0.09600    0.35620    0.27440    1.000
    C2       C        0.40700    0.72310    0.52960    1.000
    C3       C        0.54000    0.50410    0.43040    1.000
    C4       C        0.59750    0.19600    0.61920    1.000
    C5       C        0.60800    0.11910    0.60320    1.000
    C6       C        0.43980    0.62780    0.56040    1.000
    C7       C        0.01650    0.56740    0.90500    1.000
    C8       C        0.28000    0.60570    0.68080    1.000
    C9       C        0.41260    0.11570    0.89960    1.000
    C10      C        0.45160    0.49780    0.38560    1.000
    C11      C        0.28350    0.69790    0.67260    1.000
    C12      C        0.84970    0.10590    0.63420    1.000
    C13      C        0.08030    0.96490    0.90820    1.000
    C14      C        0.09240    0.15510    0.79580    1.000
    C15      C        0.25400    0.46890    0.26900    1.000
    C16      C        0.12080    0.56820    0.85540    1.000
    C17      C        0.49180    0.18650    0.87320    1.000
    C18      C        0.81140    0.65220    0.16840    1.000
    C19      C        0.98340    0.11550    0.80000    1.000
    C20      C        0.19800    0.32320    0.33440    1.000
    C21      C        0.90220    0.52360    0.90460    1.000
    C22      C        0.65340    0.60040    0.29580    1.000
    C23      C        0.01210    0.48640    0.79420    1.000
    C24      C        0.33720    0.23470    0.77540    1.000
    C25      C        0.29870    0.44780    0.75080    1.000
    C26      C        0.11610    0.53040    0.79780    1.000
    C27      C        0.28480    0.38510    0.33060    1.000
    C28      C        0.07860    0.45340    0.20620    1.000
    C29      C        0.19400    0.10430    0.83860    1.000
    C30      C        0.75400    0.44080    0.77000    1.000
    C31      C        0.69170    0.41940    0.90640    1.000
    C32      C        0.68700    0.20120    0.66700    1.000
    C33      C        0.02480    0.60800    0.96920    1.000
    C34      C        0.44640    0.54910    0.28740    1.000
    C35      C        0.59830    0.39510    0.86600    1.000
    C36      C        0.93650    0.72720    0.20400    1.000
    C37      C        0.82390    0.69890    0.26860    1.000
    C38      C        0.97310    0.01960    0.85280    1.000
    C39      C        0.54200    0.44820    0.53080    1.000
    C40      C        0.18660    0.00250    0.90200    1.000
    C41      C        0.89890    0.48570    0.85340    1.000
    C42      C        0.06690    0.86330    0.96220    1.000
    C43      C        0.80400    0.14410    0.68960    1.000
    C44      C        0.73170    0.06610    0.62540    1.000
    C45      C        0.16700    0.50290    0.21180    1.000
    C46      C        0.37300    0.56610    0.63780    1.000
    C47      C        0.55400    0.59880    0.24500    1.000
    C48      C        0.29700    0.74870    0.57280    1.000
    C49      C        0.28330    0.61650    0.17180    1.000
    C50      C        0.65500    0.55430    0.38440    1.000
    C51      C        0.80070    0.23560    0.75100    1.000
    N1       N        0.30800    0.14630    0.83960    1.000
    N2       N        0.91460    0.69900    0.14280    1.000
    N3       N        0.78560    0.44420    0.84580    1.000
    N4       N        0.86950    0.17060    0.74580    1.000
    N5       N        0.39580    0.46740    0.69680    1.000
    N6       N        0.22600    0.53380    0.74560    1.000
    N7       N        0.44700    0.25360    0.79140    1.000
    N8       N        0.70030    0.26780    0.69660    1.000
    N9       N        0.64450    0.40040    0.78260    1.000
    N10      N        0.33750    0.54780    0.24060    1.000
    N11      N        0.17660    0.59710    0.14940    1.000
    N12      N        0.75490    0.64910    0.24720    1.000
    O1       O        0.46420    0.40040    0.57220    1.000
    O2       O        0.94060    0.59920    0.02500    1.000
    O3       O        0.10910    0.66480    0.95100    1.000
    O4       O        0.63700    0.47120    0.57220    1.000
    O5       O        0.14650    0.81630    0.02740    1.000
    O6       O        0.97230    0.82710    0.95120    1.000
    Co3      Co       0.54590    0.74694    0.94680    1.000
    Co4      Co       0.04640    0.06925    0.30122    1.000
    H34      H        0.33200    0.46340    0.05920    1.000
    H35      H        0.81660    0.81530    0.85920    1.000
    H36      H        0.04120    0.68380    0.42000    1.000
    H37      H        0.85590    0.73580    0.63200    1.000
    H38      H        0.06130    0.09280    0.09560    1.000
    H39      H        0.69490    0.45290    0.14060    1.000
    H40      H        0.95340    0.25220    0.51600    1.000
    H41      H        0.30690    0.02820    0.68540    1.000
    H42      H        0.01700    0.26760    0.11020    1.000
    H43      H        0.27880    0.76240    0.86160    1.000
    H44      H        0.70840    0.63710    0.62320    1.000
    H45      H        0.92580    0.00590    0.05100    1.000
    H46      H        0.02860    0.83800    0.40360    1.000
    H47      H        0.77870    0.43340    0.28520    1.000
    H48      H        0.30230    0.18100    0.28240    1.000
    H49      H        0.31870    0.04790    0.21060    1.000
    H50      H        0.77650    0.17590    0.21160    1.000
    H51      H        0.78450    0.00200    0.27300    1.000
    H52      H        0.51150    0.21650    0.24240    1.000
    H53      H        0.88690    0.87500    0.58380    1.000
    H54      H        0.18860    0.37970    0.03860    1.000
    H55      H        0.05950    0.81340    0.81700    1.000
    H56      H        0.39900    0.84440    0.14820    1.000
    H57      H        0.59460    0.98140    0.23800    1.000
    H58      H        0.23830    0.63980    0.36520    1.000
    H59      H        0.73560    0.33480    0.46180    1.000
    H60      H        0.50640    0.96340    0.79420    1.000
    H61      H        0.51320    0.64150    0.83640    1.000
    H62      H        0.43140    0.71530    0.39040    1.000
    H63      H        0.53680    0.59300    0.72220    1.000
    H64      H        0.00130    0.13790    0.46820    1.000
    H65      H        0.22540    0.97000    0.58340    1.000
    H66      H        0.75780    0.90310    0.06360    1.000
    C52      C        0.43650    0.93120    0.79600    1.000
    C53      C        0.04200    0.97900    0.46920    1.000
    C54      C        0.52480    0.57720    0.03080    1.000
    C55      C        0.66700    0.71470    0.78820    1.000
    C56      C        0.59240    0.95090    0.20420    1.000
    C57      C        0.83720    0.01010    0.22460    1.000
    C58      C        0.09750    0.81520    0.38080    1.000
    C59      C        0.68660    0.90450    0.09800    1.000
    C60      C        0.59600    0.63060    0.72560    1.000
    C61      C        0.47310    0.87240    0.14720    1.000
    C62      C        0.90700    0.25270    0.47040    1.000
    C63      C        0.15500    0.93870    0.61560    1.000
    C64      C        0.57860    0.65960    0.79380    1.000
    C65      C        0.10800    0.72230    0.39680    1.000
    C66      C        0.78350    0.37050    0.32740    1.000
    C67      C        0.91260    0.01530    0.10040    1.000
    C68      C        0.79700    0.32150    0.42720    1.000
    C69      C        0.61610    0.32820    0.20220    1.000
    C70      C        0.19170    0.32580    0.09360    1.000
    C71      C        0.25400    0.21080    0.23000    1.000
    C72      C        0.79870    0.19860    0.24920    1.000
    C73      C        0.69800    0.65760    0.66560    1.000
    C74      C        0.34970    0.74010    0.36580    1.000
    C75      C        0.93980    0.18820    0.43960    1.000
    C76      C        0.48340    0.91550    0.20000    1.000
    C77      C        0.78480    0.71570    0.66940    1.000
    C78      C        0.58030    0.87310    0.09180    1.000
    C79      C        0.39890    0.33910    0.14660    1.000
    C80      C        0.78330    0.78830    0.82820    1.000
    C81      C        0.05400    0.84380    0.75500    1.000
    C82      C        0.18700    0.86820    0.33300    1.000
    C83      C        0.31140    0.82060    0.83160    1.000
    C84      C        0.15340    0.89620    0.70420    1.000
    C85      C        0.69400    0.94290    0.16140    1.000
    C86      C        0.75400    0.73790    0.73100    1.000
    C87      C        0.51210    0.28060    0.20580    1.000
    C88      C        0.78000    0.28650    0.31920    1.000
    C89      C        0.99180    0.05970    0.12680    1.000
    C90      C        0.95160    0.88340    0.61440    1.000
    C91      C        0.23170    0.69150    0.37460    1.000
    C92      C        0.51650    0.47240    0.09500    1.000
    C93      C        0.09830    0.26110    0.13400    1.000
    C94      C        0.30400    0.83370    0.31040    1.000
    C95      C        0.94640    0.83650    0.71260    1.000
    C96      C        0.62080    0.42360    0.14460    1.000
    C97      C        0.04000    0.93450    0.56960    1.000
    C98      C        0.30070    0.98660    0.24900    1.000
    C99      C        0.32390    0.96750    0.73140    1.000
    C100     C        0.87300    0.20390    0.36220    1.000
    C101     C        0.56690    0.82550    0.03780    1.000
    C102     C        0.40220    0.42820    0.09540    1.000
    N13      N        0.67660    0.74650    0.85060    1.000
    N14      N        0.72600    0.27940    0.25440    1.000
    N15      N        0.36950    0.91640    0.25420    1.000
    N16      N        0.25490    0.89630    0.75280    1.000
    N17      N        0.80800    0.98590    0.16040    1.000
    N18      N        0.41460    0.84180    0.85720    1.000
    N19      N        0.20030    0.96440    0.30340    1.000
    N20      N        0.83750    0.78840    0.75940    1.000
    N21      N        0.14450    0.18300    0.21740    1.000
    N22      N        0.28560    0.29000    0.15420    1.000
    N23      N        0.94700    0.04500    0.20860    1.000
    N24      N        0.89580    0.16420    0.30320    1.000
    O7       O        0.44060    0.62420    0.97500    1.000
    O8       O        0.47230    0.77830    0.04880    1.000
    O9       O        0.64650    0.84370    0.97260    1.000
    O10      O        0.96420    0.97260    0.42780    1.000
    O11      O        0.13700    0.04340    0.42780    1.000
    O12      O        0.60910    0.61580    0.04900    1.000
