# CIF file generated by openbabel 3.1.0, see https://openbabel.org
data_I
_chemical_name_common 'image0'
_cell_length_a 10.2089
_cell_length_b 11.479
_cell_length_c 11.6675
_cell_angle_alpha 112.685
_cell_angle_beta 103.952
_cell_angle_gamma 94.644
_space_group_name_H-M_alt 'P 1'
_space_group_name_Hall 'P 1'
loop_
    _symmetry_equiv_pos_as_xyz
    x,y,z
loop_
    _atom_site_label
    _atom_site_type_symbol
    _atom_site_fract_x
    _atom_site_fract_y
    _atom_site_fract_z
    _atom_site_occupancy
    C1       C        0.50690    0.20580    0.15980    1.000
    H1       H        0.59650    0.20210    0.20700    1.000
    H2       H        0.43780    0.15570    0.17400    1.000
    H3       H        0.49490    0.29360    0.18960    1.000
    C2       C        0.49370    0.15220    0.01570    1.000
    C3       C        0.36650    0.15040    0.93090    1.000
    C4       C        0.34550    0.11820    0.79600    1.000
    C5       C        0.21570    0.13890    0.71800    1.000
    H4       H        0.21690    0.11280    0.62960    1.000
    H5       H        0.21050    0.22830    0.75460    1.000
    H6       H        0.13720    0.08860    0.72010    1.000
    C6       C        0.43250    0.03370    0.60340    1.000
    C7       C        0.47890    0.90460    0.55220    1.000
    H7       H        0.57100    0.91230    0.60540    1.000
    H8       H        0.41800    0.83970    0.55880    1.000
    C8       C        0.52190    0.13790    0.58860    1.000
    H9       H        0.48700    0.21720    0.61660    1.000
    H10      H        0.61550    0.15440    0.64340    1.000
    C9       C        0.88300    0.99850    0.79100    1.000
    H11      H        0.81930    0.04120    0.83280    1.000
    H12      H        0.84080    0.95820    0.69850    1.000
    H13      H        0.96390    0.06030    0.81130    1.000
    C10      C        0.92240    0.89800    0.83840    1.000
    C11      C        0.01570    0.82420    0.78800    1.000
    C12      C        0.04030    0.71270    0.80840    1.000
    C13      C        0.12030    0.62460    0.73160    1.000
    H14      H        0.12820    0.55390    0.75590    1.000
    H15      H        0.21050    0.67160    0.74980    1.000
    H16      H        0.07320    0.59230    0.64040    1.000
    C14      C        0.00420    0.56630    0.91480    1.000
    C15      C        0.12090    0.60220    0.04100    1.000
    H17      H        0.20720    0.63210    0.03090    1.000
    H18      H        0.10280    0.67150    0.11190    1.000
    C16      C        0.86750    0.51430    0.92650    1.000
    H19      H        0.84260    0.58120    0.99430    1.000
    H20      H        0.79570    0.48960    0.84530    1.000
    N1       N        0.43790    0.07290    0.73960    1.000
    H21      H        0.51110    0.06510    0.78890    1.000
    N2       N        0.98820    0.67920    0.88630    1.000
    H22      H        0.93910    0.72910    0.92500    1.000
    O1       O        0.59180    0.11140    0.97580    1.000
    O2       O        0.86750    0.88140    0.91800    1.000
    Ag1      Ag       0.22681    0.96111    0.91920    1.000
    C17      C        0.49310    0.79420    0.84020    1.000
    H23      H        0.40350    0.79790    0.79300    1.000
    H24      H        0.56220    0.84430    0.82600    1.000
    H25      H        0.50510    0.70640    0.81040    1.000
    C18      C        0.50630    0.84780    0.98430    1.000
    C19      C        0.63350    0.84960    0.06910    1.000
    C20      C        0.65450    0.88180    0.20400    1.000
    C21      C        0.78430    0.86110    0.28200    1.000
    H26      H        0.78310    0.88720    0.37040    1.000
    H27      H        0.78950    0.77170    0.24540    1.000
    H28      H        0.86280    0.91140    0.27990    1.000
    C22      C        0.56750    0.96630    0.39660    1.000
    C23      C        0.52110    0.09540    0.44780    1.000
    H29      H        0.42900    0.08770    0.39460    1.000
    H30      H        0.58200    0.16030    0.44120    1.000
    C24      C        0.47810    0.86210    0.41140    1.000
    H31      H        0.51300    0.78280    0.38340    1.000
    H32      H        0.38450    0.84560    0.35660    1.000
    C25      C        0.11700    0.00150    0.20900    1.000
    H33      H        0.18070    0.95880    0.16720    1.000
    H34      H        0.15920    0.04180    0.30150    1.000
    H35      H        0.03610    0.93970    0.18870    1.000
    C26      C        0.07760    0.10200    0.16160    1.000
    C27      C        0.98430    0.17580    0.21200    1.000
    C28      C        0.95970    0.28730    0.19160    1.000
    C29      C        0.87970    0.37540    0.26840    1.000
    H36      H        0.87180    0.44610    0.24410    1.000
    H37      H        0.78950    0.32840    0.25020    1.000
    H38      H        0.92680    0.40770    0.35960    1.000
    C30      C        0.99580    0.43370    0.08520    1.000
    C31      C        0.87910    0.39780    0.95900    1.000
    H39      H        0.79280    0.36790    0.96910    1.000
    H40      H        0.89720    0.32850    0.88810    1.000
    C32      C        0.13250    0.48570    0.07350    1.000
    H41      H        0.15740    0.41880    0.00570    1.000
    H42      H        0.20430    0.51040    0.15470    1.000
    N3       N        0.56210    0.92710    0.26040    1.000
    H43      H        0.48890    0.93490    0.21110    1.000
    N4       N        0.01180    0.32080    0.11370    1.000
    H44      H        0.06090    0.27090    0.07500    1.000
    O3       O        0.40820    0.88860    0.02420    1.000
    O4       O        0.13250    0.11860    0.08200    1.000
    Ag2      Ag       0.77319    0.03889    0.08080    1.000
