# CIF file generated by openbabel 3.1.0, see https://openbabel.org
data_I
_chemical_name_common 'image0'
_cell_length_a 9.444
_cell_length_b 9.156
_cell_length_c 9.756
_cell_angle_alpha 90
_cell_angle_beta 117.459
_cell_angle_gamma 90
_space_group_name_H-M_alt 'P 1'
_space_group_name_Hall 'P 1'
loop_
    _symmetry_equiv_pos_as_xyz
    x,y,z
loop_
    _atom_site_label
    _atom_site_type_symbol
    _atom_site_fract_x
    _atom_site_fract_y
    _atom_site_fract_z
    _atom_site_occupancy
    P1       P        0.85350    0.34470    0.02730    1.000
    P2       P        0.32960    0.10130    0.06240    1.000
    O1       O        0.00080    0.41610    0.15200    1.000
    O2       O        0.74720    0.44930    0.90430    1.000
    O3       O        0.75070    0.26870    0.08870    1.000
    O4       O        0.24070    0.06040    0.88980    1.000
    O5       O        0.34240    0.96400    0.16490    1.000
    O6       O        0.22790    0.22010    0.08710    1.000
    O7       O        0.49720    0.15000    0.11270    1.000
    O8       O        0.91100    0.22410    0.94620    1.000
    H1       H        0.93780    0.16510    0.00450    1.000
    H2       H        0.26670    0.88200    0.09510    1.000
    P3       P        0.64650    0.34470    0.47270    1.000
    P4       P        0.17040    0.10130    0.43760    1.000
    O9       O        0.49920    0.41610    0.34800    1.000
    O10      O        0.75280    0.44930    0.59570    1.000
    O11      O        0.74930    0.26870    0.41130    1.000
    O12      O        0.25930    0.06040    0.61020    1.000
    O13      O        0.15760    0.96400    0.33510    1.000
    O14      O        0.27210    0.22010    0.41290    1.000
    O15      O        0.00280    0.15000    0.38730    1.000
    O16      O        0.58900    0.22410    0.55380    1.000
    H3       H        0.56220    0.16510    0.49550    1.000
    H4       H        0.23330    0.88200    0.40490    1.000
    P5       P        0.14650    0.65530    0.97270    1.000
    P6       P        0.67040    0.89870    0.93760    1.000
    O17      O        0.99920    0.58390    0.84800    1.000
    O18      O        0.25280    0.55070    0.09570    1.000
    O19      O        0.24930    0.73130    0.91130    1.000
    O20      O        0.75930    0.93960    0.11020    1.000
    O21      O        0.65760    0.03600    0.83510    1.000
    O22      O        0.77210    0.77990    0.91290    1.000
    O23      O        0.50280    0.85000    0.88730    1.000
    O24      O        0.08900    0.77590    0.05380    1.000
    H5       H        0.06220    0.83490    0.99550    1.000
    H6       H        0.73330    0.11800    0.90490    1.000
    P7       P        0.35350    0.65530    0.52730    1.000
    P8       P        0.82960    0.89870    0.56240    1.000
    O25      O        0.50080    0.58390    0.65200    1.000
    O26      O        0.24720    0.55070    0.40430    1.000
    O27      O        0.25070    0.73130    0.58870    1.000
    O28      O        0.74070    0.93960    0.38980    1.000
    O29      O        0.84240    0.03600    0.66490    1.000
    O30      O        0.72790    0.77990    0.58710    1.000
    O31      O        0.99720    0.85000    0.61270    1.000
    O32      O        0.41100    0.77590    0.44620    1.000
    H7       H        0.43780    0.83490    0.50450    1.000
    H8       H        0.76670    0.11800    0.59510    1.000
    In1      In       0.25000    0.39060    0.25000    1.000
    In2      In       0.75000    0.60940    0.75000    1.000
    In3      In       0.75000    0.11720    0.25000    1.000
    In4      In       0.25000    0.88280    0.75000    1.000
