data_functionalizedCrystal
_audit_creation_method	'EQeq! by Chris Wilmer'
_symmetry_space_group_name_H-M	'P1'
_symmetry_Int_Tables_number	1
_symmetry_cell_setting	triclinic
loop_
_symmetry_equiv_pos_as_xyz
  x,y,z
_cell_length_a	9.4391
_cell_length_b	16.2024
_cell_length_c	23.9864
_cell_angle_alpha	108.354
_cell_angle_beta	90
_cell_angle_gamma	90
loop_
_atom_site_label
_atom_site_type_symbol
_atom_site_fract_x
_atom_site_fract_y
_atom_site_fract_z
_atom_site_charge
Mof_Tb	Tb	0.49953	0.70184	0.90304	2.083
Mof_Tb	Tb	0.49953	0.29816	0.59696	2.072
Mof_Tb	Tb	0.50047	0.29816	0.09696	2.065
Mof_Tb	Tb	0.50047	0.70184	0.40304	2.075
Mof_Ca	Ca	0.00232	0.5	0.75	1.052
Mof_Ca	Ca	0.99768	0.5	0.25	1.463
Mof_Ca	Ca	-7.2502e-33	0.5	-0	0.829
Mof_Ca	Ca	1.45004e-32	0.5	0.5	0.877
Mof_Ca	Ca	-0	0	-0	0.792
Mof_Ca	Ca	-0	3.2652e-17	0.5	0.837
Mof_H 	H 	0.3133	0.9013	0.1164	0.039
Mof_H 	H 	0.4699	0.0174	0.1309	0.014
Mof_H 	H 	0.643	0.0101	0.0609	-0.017
Mof_H 	H 	0.3883	0.8674	0.7449	0.05
Mof_H 	H 	0.5688	0.8065	0.6785	0.05
Mof_H 	H 	0.7204	0.707	0.6975	0.061
Mof_H 	H 	0.6493	0.4183	0.961	0.049
Mof_H 	H 	0.4738	0.3243	0.9093	0.052
Mof_H 	H 	0.3152	0.3721	0.8525	0.024
Mof_H 	H 	0.3133	0.0987	0.3836	0.009
Mof_H 	H 	0.4699	0.9826	0.3691	0.098
Mof_H 	H 	0.643	0.9899	0.4391	0.082
Mof_H 	H 	0.3883	0.1326	0.7551	0.036
Mof_H 	H 	0.5688	0.1935	0.8215	0.049
Mof_H 	H 	0.7204	0.293	0.8025	0.059
Mof_H 	H 	0.6493	0.5817	0.539	0.038
Mof_H 	H 	0.4738	0.6757	0.5907	0.051
Mof_H 	H 	0.3152	0.6279	0.6475	0.022
Mof_H 	H 	0.6867	0.0987	0.8836	0.051
Mof_H 	H 	0.5301	0.9826	0.8691	0.086
Mof_H 	H 	0.357	0.9899	0.9391	0.095
Mof_H 	H 	0.6117	0.1326	0.2551	0.05
Mof_H 	H 	0.4312	0.1935	0.3215	0.05
Mof_H 	H 	0.2796	0.293	0.3025	0.02
Mof_H 	H 	0.3507	0.5817	0.039	0.016
Mof_H 	H 	0.5262	0.6757	0.0907	0.056
Mof_H 	H 	0.6848	0.6279	0.1475	0.041
Mof_H 	H 	0.6867	0.9013	0.6164	0.076
Mof_H 	H 	0.5301	0.0174	0.6309	0.007
Mof_H 	H 	0.357	0.0101	0.5609	-0.014
Mof_H 	H 	0.6117	0.8674	0.2449	0.063
Mof_H 	H 	0.4312	0.8065	0.1785	0.052
Mof_H 	H 	0.2796	0.707	0.1975	0.023
Mof_H 	H 	0.3507	0.4183	0.461	0.022
Mof_H 	H 	0.5262	0.3243	0.4093	0.058
Mof_H 	H 	0.6848	0.3721	0.3525	0.042
Mof_C 	C 	0.3037	0.7505	0.0258	0.294
Mof_C 	C 	0.3968	0.8295	0.0391	-0.06
Mof_C 	C 	0.3836	0.9	0.0889	-0.027
Mof_C 	C 	0.4767	0.9689	0.0976	-0.022
Mof_C 	C 	0.5794	0.9645	0.056	0.078
Mof_C 	C 	0.587	0.8916	0.0068	-0.133
Mof_C 	C 	0.6932	0.8803	0.959	0.431
Mof_C 	C 	0.3188	0.8311	0.8455	0.33
Mof_C 	C 	0.4305	0.7958	0.7986	-0.024
Mof_C 	C 	0.4478	0.8251	0.7507	-0.036
Mof_C 	C 	0.5561	0.7896	0.7118	-0.033
Mof_C 	C 	0.6445	0.7295	0.7224	-0.023
Mof_C 	C 	0.6195	0.7028	0.7707	-0.027
Mof_C 	C 	0.7096	0.6365	0.7868	0.376
Mof_C 	C 	0.693	0.5884	0.9678	0.382
Mof_C 	C 	0.5866	0.5205	0.9347	-0.04
Mof_C 	C 	0.5835	0.4363	0.9384	-0.012
Mof_C 	C 	0.4798	0.3806	0.9075	-0.049
Mof_C 	C 	0.3855	0.409	0.8738	-0.006
Mof_C 	C 	0.3969	0.4931	0.8722	-0.062
Mof_C 	C 	0.2981	0.5319	0.8382	0.379
Mof_C 	C 	0.3037	0.2495	0.4742	0.331
Mof_C 	C 	0.3968	0.1705	0.4609	-0.056
Mof_C 	C 	0.3836	0.1	0.4111	0.009
Mof_C 	C 	0.4767	0.0311	0.4024	-0.121
Mof_C 	C 	0.5794	0.0355	0.444	-0.049
Mof_C 	C 	0.587	0.1084	0.4932	-0.047
Mof_C 	C 	0.6932	0.1197	0.541	0.377
Mof_C 	C 	0.3188	0.1689	0.6545	0.336
Mof_C 	C 	0.4305	0.2042	0.7014	-0.033
Mof_C 	C 	0.4478	0.1749	0.7493	-0.03
Mof_C 	C 	0.5561	0.2104	0.7882	-0.042
Mof_C 	C 	0.6445	0.2705	0.7776	-0.021
Mof_C 	C 	0.6195	0.2972	0.7293	-0.03
Mof_C 	C 	0.7096	0.3635	0.7132	0.375
Mof_C 	C 	0.693	0.4116	0.5322	0.386
Mof_C 	C 	0.5866	0.4795	0.5653	-0.05
Mof_C 	C 	0.5835	0.5637	0.5616	-0.009
Mof_C 	C 	0.4798	0.6194	0.5925	-0.058
Mof_C 	C 	0.3855	0.591	0.6262	-0.005
Mof_C 	C 	0.3969	0.5069	0.6278	-0.066
Mof_C 	C 	0.2981	0.4681	0.6618	0.378
Mof_C 	C 	0.6963	0.2495	0.9742	0.353
Mof_C 	C 	0.6032	0.1705	0.9609	-0.003
Mof_C 	C 	0.6164	0.1	0.9111	-0.033
Mof_C 	C 	0.5233	0.0311	0.9024	-0.069
Mof_C 	C 	0.4206	0.0355	0.944	-0.103
Mof_C 	C 	0.413	0.1084	0.9932	0.018
Mof_C 	C 	0.3068	0.1197	0.041	0.333
Mof_C 	C 	0.6812	0.1689	0.1545	0.33
Mof_C 	C 	0.5695	0.2042	0.2014	-0.027
Mof_C 	C 	0.5522	0.1749	0.2493	-0.027
Mof_C 	C 	0.4439	0.2104	0.2882	-0.062
Mof_C 	C 	0.3555	0.2705	0.2776	-0.005
Mof_C 	C 	0.3805	0.2972	0.2293	-0.065
Mof_C 	C 	0.2904	0.3635	0.2132	0.402
Mof_C 	C 	0.307	0.4116	0.0322	0.389
Mof_C 	C 	0.4134	0.4795	0.0653	-0.073
Mof_C 	C 	0.4165	0.5637	0.0616	-0.006
Mof_C 	C 	0.5202	0.6194	0.0925	-0.067
Mof_C 	C 	0.6145	0.591	0.1262	-0.003
Mof_C 	C 	0.6031	0.5069	0.1278	-0.064
Mof_C 	C 	0.7019	0.4681	0.1618	0.391
Mof_C 	C 	0.6963	0.7505	0.5258	0.317
Mof_C 	C 	0.6032	0.8295	0.5391	-0.013
Mof_C 	C 	0.6164	0.9	0.5889	-0.061
Mof_C 	C 	0.5233	0.9689	0.5976	0.016
Mof_C 	C 	0.4206	0.9645	0.556	0.038
Mof_C 	C 	0.413	0.8916	0.5068	-0.077
Mof_C 	C 	0.3068	0.8803	0.459	0.395
Mof_C 	C 	0.6812	0.8311	0.3455	0.325
Mof_C 	C 	0.5695	0.7958	0.2986	-0.019
Mof_C 	C 	0.5522	0.8251	0.2507	-0.032
Mof_C 	C 	0.4439	0.7896	0.2118	-0.052
Mof_C 	C 	0.3555	0.7295	0.2224	-0.008
Mof_C 	C 	0.3805	0.7028	0.2707	-0.061
Mof_C 	C 	0.2904	0.6365	0.2868	0.403
Mof_C 	C 	0.307	0.5884	0.4678	0.392
Mof_C 	C 	0.4134	0.5205	0.4347	-0.069
Mof_C 	C 	0.4165	0.4363	0.4384	-0.005
Mof_C 	C 	0.5202	0.3806	0.4075	-0.063
Mof_C 	C 	0.6145	0.409	0.3738	-0.001
Mof_C 	C 	0.6031	0.4931	0.3722	-0.062
Mof_C 	C 	0.7019	0.5319	0.3382	0.391
Mof_N 	N 	0.495	0.8257	0.9982	-0.153
Mof_N 	N 	0.515	0.7356	0.80815	-0.198
Mof_N 	N 	0.4952	0.5475	0.9034	-0.193
Mof_N 	N 	0.495	0.1743	0.5018	-0.191
Mof_N 	N 	0.515	0.2644	0.69185	-0.197
Mof_N 	N 	0.4952	0.4525	0.5966	-0.192
Mof_N 	N 	0.505	0.1743	0.0018	-0.234
Mof_N 	N 	0.485	0.2644	0.19185	-0.193
Mof_N 	N 	0.5048	0.4525	0.0966	-0.19
Mof_N 	N 	0.505	0.8257	0.4982	-0.194
Mof_N 	N 	0.485	0.7356	0.30815	-0.195
Mof_N 	N 	0.5048	0.5475	0.4034	-0.191
Mof_O 	O 	0.3202	0.6947	0.97502	-0.428
Mof_O 	O 	0.2206	0.7437	0.0638	-0.312
Mof_O 	O 	0.6766	0.8143	0.91402	-0.445
Mof_O 	O 	0.7885	0.9353	0.96531	-0.343
Mof_O 	O 	0.327	0.8054	0.89004	-0.453
Mof_O 	O 	0.2319	0.8836	0.8382	-0.294
Mof_O 	O 	0.8043	0.598	0.75241	-0.354
Mof_O 	O 	0.6812	0.6257	0.83534	-0.456
Mof_O 	O 	0.6721	0.6642	0.96569	-0.438
Mof_O 	O 	0.7902	0.5663	0.99461	-0.363
Mof_O 	O 	0.3214	0.6107	0.84197	-0.484
Mof_O 	O 	0.2003	0.4867	0.80982	-0.43
Mof_O 	O 	0.3202	0.3053	0.52498	-0.461
Mof_O 	O 	0.2206	0.2563	0.4362	-0.324
Mof_O 	O 	0.6766	0.1857	0.58598	-0.441
Mof_O 	O 	0.7885	0.0647	0.53469	-0.384
Mof_O 	O 	0.327	0.1946	0.60996	-0.465
Mof_O 	O 	0.2319	0.1164	0.6618	-0.319
Mof_O 	O 	0.8043	0.402	0.74759	-0.354
Mof_O 	O 	0.6812	0.3743	0.66466	-0.456
Mof_O 	O 	0.6721	0.3358	0.53431	-0.449
Mof_O 	O 	0.7902	0.4337	0.50539	-0.389
Mof_O 	O 	0.3214	0.3893	0.65803	-0.485
Mof_O 	O 	0.2003	0.5133	0.69018	-0.432
Mof_O 	O 	0.6798	0.3053	0.02498	-0.46
Mof_O 	O 	0.7794	0.2563	0.9362	-0.259
Mof_O 	O 	0.3234	0.1857	0.08598	-0.464
Mof_O 	O 	0.2115	0.0647	0.03469	-0.446
Mof_O 	O 	0.673	0.1946	0.10996	-0.441
Mof_O 	O 	0.7681	0.1164	0.1618	-0.259
Mof_O 	O 	0.1957	0.402	0.24759	-0.491
Mof_O 	O 	0.3188	0.3743	0.16466	-0.503
Mof_O 	O 	0.3279	0.3358	0.03431	-0.489
Mof_O 	O 	0.2098	0.4337	0.00539	-0.465
Mof_O 	O 	0.6786	0.3893	0.15803	-0.475
Mof_O 	O 	0.7997	0.5133	0.19018	-0.433
Mof_O 	O 	0.6798	0.6947	0.47502	-0.431
Mof_O 	O 	0.7794	0.7437	0.5638	-0.255
Mof_O 	O 	0.3234	0.8143	0.41402	-0.472
Mof_O 	O 	0.2115	0.9353	0.46531	-0.422
Mof_O 	O 	0.673	0.8054	0.39004	-0.433
Mof_O 	O 	0.7681	0.8836	0.3382	-0.24
Mof_O 	O 	0.1957	0.598	0.25241	-0.49
Mof_O 	O 	0.3188	0.6257	0.33534	-0.503
Mof_O 	O 	0.3279	0.6642	0.46569	-0.481
Mof_O 	O 	0.2098	0.5663	0.49461	-0.459
Mof_O 	O 	0.6786	0.6107	0.34197	-0.475
Mof_O 	O 	0.7997	0.4867	0.30982	-0.433
_end
