data_functionalizedCrystal
_audit_creation_method	'EQeq! by Chris Wilmer'
_symmetry_space_group_name_H-M	'P1'
_symmetry_Int_Tables_number	1
_symmetry_cell_setting	triclinic
loop_
_symmetry_equiv_pos_as_xyz
  x,y,z
_cell_length_a	14.485
_cell_length_b	12.321
_cell_length_c	16.948
_cell_angle_alpha	90
_cell_angle_beta	93.491
_cell_angle_gamma	90
loop_
_atom_site_label
_atom_site_type_symbol
_atom_site_fract_x
_atom_site_fract_y
_atom_site_fract_z
_atom_site_charge
Mof_Cu	Cu	0.6958	0.83086	0.00593	0.618
Mof_C 	C 	0.5826	0.1094	0.3493	-0.045
Mof_C 	C 	0.5782	0.8503	0.1547	-0.056
Mof_N 	N 	0.6248	0.1262	0.4077	-0.247
Mof_N 	N 	0.6244	0.8474	0.0998	-0.214
Mof_C 	C 	0.6733	0.6375	0.9855	-0.531
Mof_N 	N 	0.6103	0.5865	0.98631	-0.18
Mof_Cu	Cu	0.74709	0.75181	0.07209	0.619
Mof_C 	C 	0.6149	0.1205	0.3214	-0.05
Mof_C 	C 	0.6013	0.837	0.1732	-0.046
Mof_N 	N 	0.6734	0.1517	0.3621	-0.235
Mof_N 	N 	0.6469	0.8138	0.1311	-0.173
Mof_Cu	Cu	0.1958	0.33086	0.00593	0.607
Mof_C 	C 	0.0826	0.6094	0.3493	-0.001
Mof_C 	C 	0.0782	0.3503	0.1547	-0.049
Mof_N 	N 	0.1248	0.6262	0.4077	-0.258
Mof_N 	N 	0.1244	0.3474	0.0998	-0.234
Mof_C 	C 	0.1733	0.1375	0.9855	-0.553
Mof_N 	N 	0.1103	0.0865	0.98631	-0.201
Mof_Cu	Cu	0.24709	0.25181	0.07209	0.608
Mof_C 	C 	0.1149	0.6205	0.3214	-0.075
Mof_C 	C 	0.1013	0.337	0.1732	-0.054
Mof_N 	N 	0.1734	0.6517	0.3621	-0.23
Mof_N 	N 	0.1469	0.3138	0.1311	-0.179
Mof_Cu	Cu	0.3042	0.83086	0.49407	0.637
Mof_C 	C 	0.4174	0.1094	0.1507	-0.086
Mof_C 	C 	0.4218	0.8503	0.3453	-0.07
Mof_N 	N 	0.3752	0.1262	0.0923	-0.257
Mof_N 	N 	0.3756	0.8474	0.4002	-0.199
Mof_C 	C 	0.3267	0.6375	0.5145	-0.569
Mof_N 	N 	0.3897	0.5865	0.51369	-0.199
Mof_Cu	Cu	0.25291	0.75181	0.42791	0.625
Mof_C 	C 	0.3851	0.1205	0.1786	-0.02
Mof_C 	C 	0.3987	0.837	0.3268	-0.031
Mof_N 	N 	0.3266	0.1517	0.1379	-0.255
Mof_N 	N 	0.3531	0.8138	0.3689	-0.185
Mof_Cu	Cu	0.8042	0.33086	0.49407	0.641
Mof_C 	C 	0.9174	0.6094	0.1507	-0.132
Mof_C 	C 	0.9218	0.3503	0.3453	-0.026
Mof_N 	N 	0.8752	0.6262	0.0923	-0.218
Mof_N 	N 	0.8756	0.3474	0.4002	-0.196
Mof_C 	C 	0.8267	0.1375	0.5145	-0.566
Mof_N 	N 	0.8897	0.0865	0.51369	-0.177
Mof_Cu	Cu	0.75291	0.25181	0.42791	0.628
Mof_C 	C 	0.8851	0.6205	0.1786	0.142
Mof_C 	C 	0.8987	0.337	0.3268	0.019
Mof_N 	N 	0.8266	0.6517	0.1379	-0.278
Mof_N 	N 	0.8531	0.3138	0.3689	-0.204
Mof_Cu	Cu	0.3042	0.16914	0.99407	0.653
Mof_C 	C 	0.4174	0.8906	0.6507	-0.107
Mof_C 	C 	0.4218	0.1497	0.8453	-0.071
Mof_N 	N 	0.3752	0.8738	0.5923	-0.217
Mof_N 	N 	0.3756	0.1526	0.9002	-0.209
Mof_C 	C 	0.3267	0.3625	0.0145	-0.602
Mof_N 	N 	0.3897	0.4135	0.01369	-0.206
Mof_Cu	Cu	0.25291	0.24819	0.92791	0.637
Mof_C 	C 	0.3851	0.8795	0.6786	0.018
Mof_C 	C 	0.3987	0.163	0.8268	-0.037
Mof_N 	N 	0.3266	0.8483	0.6379	-0.245
Mof_N 	N 	0.3531	0.1862	0.8689	-0.181
Mof_Cu	Cu	0.8042	0.66914	0.99407	0.664
Mof_C 	C 	0.9174	0.3906	0.6507	-0.139
Mof_C 	C 	0.9218	0.6497	0.8453	-0.024
Mof_N 	N 	0.8752	0.3738	0.5923	-0.202
Mof_N 	N 	0.8756	0.6526	0.9002	-0.186
Mof_C 	C 	0.8267	0.8625	0.0145	-0.574
Mof_N 	N 	0.8897	0.9135	0.01369	-0.153
Mof_Cu	Cu	0.75291	0.74819	0.92791	0.645
Mof_C 	C 	0.8851	0.3795	0.6786	0.148
Mof_C 	C 	0.8987	0.663	0.8268	0.022
Mof_N 	N 	0.8266	0.3483	0.6379	-0.277
Mof_N 	N 	0.8531	0.6862	0.8689	-0.197
Mof_Cu	Cu	0.6958	0.16914	0.50593	0.631
Mof_C 	C 	0.5826	0.8906	0.8493	-0.086
Mof_C 	C 	0.5782	0.1497	0.6547	-0.056
Mof_N 	N 	0.6248	0.8738	0.9077	-0.203
Mof_N 	N 	0.6244	0.1526	0.5998	-0.226
Mof_C 	C 	0.6733	0.3625	0.4855	-0.562
Mof_N 	N 	0.6103	0.4135	0.48631	-0.198
Mof_Cu	Cu	0.74709	0.24819	0.57209	0.628
Mof_C 	C 	0.6149	0.8795	0.8214	0.007
Mof_C 	C 	0.6013	0.163	0.6732	-0.056
Mof_N 	N 	0.6734	0.8483	0.8621	-0.231
Mof_N 	N 	0.6469	0.1862	0.6311	-0.168
Mof_Cu	Cu	0.1958	0.66914	0.50593	0.631
Mof_C 	C 	0.0826	0.3906	0.8493	-0.029
Mof_C 	C 	0.0782	0.6497	0.6547	-0.044
Mof_N 	N 	0.1248	0.3738	0.9077	-0.233
Mof_N 	N 	0.1244	0.6526	0.5998	-0.225
Mof_C 	C 	0.1733	0.8625	0.4855	-0.564
Mof_N 	N 	0.1103	0.9135	0.48631	-0.187
Mof_Cu	Cu	0.24709	0.74819	0.57209	0.626
Mof_C 	C 	0.1149	0.3795	0.8214	-0.045
Mof_C 	C 	0.1013	0.663	0.6732	-0.049
Mof_N 	N 	0.1734	0.3483	0.8621	-0.234
Mof_N 	N 	0.1469	0.6862	0.6311	-0.172
Mof_Ag	Ag	0.5	0.09802	0.25	0.166
Mof_Ag	Ag	0.5	0.85352	0.25	0.272
Mof_Ag	Ag	1.16352e-33	0.59802	0.25	0.105
Mof_Ag	Ag	1.16352e-33	0.35352	0.25	0.048
Mof_Ag	Ag	0.5	0.90198	0.75	0.326
Mof_Ag	Ag	0.5	0.14648	0.75	0.168
Mof_Ag	Ag	3.49055e-33	0.40198	0.75	0.1
Mof_Ag	Ag	-9.41399e-18	0.64648	0.75	0.119
Mof_Cu	Cu	0.5	0.5	-0	0.698
Mof_Cu	Cu	-0	0	-0	0.636
Mof_Cu	Cu	0.5	0.5	0.5	0.722
Mof_Cu	Cu	2.32703e-33	0	0.5	0.66
_end
