data_functionalizedCrystal
_audit_creation_method	'EQeq! by Chris Wilmer'
_symmetry_space_group_name_H-M	'P1'
_symmetry_Int_Tables_number	1
_symmetry_cell_setting	triclinic
loop_
_symmetry_equiv_pos_as_xyz
  x,y,z
_cell_length_a	10.819
_cell_length_b	16.73
_cell_length_c	17.37
_cell_angle_alpha	114.65
_cell_angle_beta	93.04
_cell_angle_gamma	99.62
loop_
_atom_site_label
_atom_site_type_symbol
_atom_site_fract_x
_atom_site_fract_y
_atom_site_fract_z
_atom_site_charge
Mof_O 	O 	0.8176	0.9905	0.0492	-0.607
Mof_O 	O 	0.4629	0.2398	0.0394	-0.843
Mof_O 	O 	0.303	0.1793	0.0898	-0.59
Mof_C 	C 	0.4143	0.1893	0.0724	0.459
Mof_C 	C 	0.4931	0.1334	0.0903	-0.032
Mof_O 	O 	0.9294	0.9228	0.8861	-0.669
Mof_Ce	Ce	0.08282	0.14097	0.0128	2.884
Mof_Ce	Ce	0.37144	0.34357	0.996	2.453
Mof_Ce	Ce	0.43799	0.86573	0.40561	2.212
Mof_C 	C 	0.2607	0.9723	0.6425	-0.016
Mof_O 	O 	0.9936	0.2513	0.9668	-0.763
Mof_O 	O 	0.6119	0.1376	0.0668	-0.552
Mof_O 	O 	0.8411	0.3587	0.9465	-0.541
Mof_O 	O 	0.8541	0.1226	0.0405	-0.83
Mof_O 	O 	0.2263	0.1652	0.9139	-0.686
Mof_O 	O 	0.5998	0.3739	0.9723	-0.844
Mof_O 	O 	0.1548	0.3261	0.9307	-0.61
Mof_O 	O 	0.9366	0.0501	0.8738	-0.593
Mof_O 	O 	0.7614	0.9629	0.7313	-0.2
Mof_O 	O 	0.3761	0.2113	0.8517	-0.593
Mof_O 	O 	0.2228	0.3304	0.093	-0.682
Mof_O 	O 	0.3835	0.0018	0.5457	-0.637
Mof_O 	O 	0.2978	0.4824	0.2385	-0.207
Mof_O 	O 	0.6256	0.4958	0.9467	-0.665
Mof_O 	O 	0.0773	0.275	0.1533	-0.614
Mof_C 	C 	0.1928	0.4208	0.2332	-0.065
Mof_C 	C 	0.6634	0.4305	0.9509	0.464
Mof_O 	O 	0.3069	0.0574	0.7039	-0.231
Mof_C 	C 	0.2494	0.0654	0.7739	-0.039
Mof_C 	C 	0.7883	0.0614	0.0541	0.485
Mof_C 	C 	0.9624	0.3635	0.9234	-0.054
Mof_C 	C 	0.6623	0.0735	0.0805	-0.027
Mof_C 	C 	0.0421	0.3087	0.9417	0.463
Mof_O 	O 	0.6282	0.0221	0.6386	-0.575
Mof_O 	O 	0.2723	0.8645	0.5069	-0.48
Mof_C 	C 	0.1627	0.3359	0.1545	0.433
Mof_C 	C 	0.7902	0.42	0.9289	-0.053
Mof_O 	O 	0.5549	0.8802	0.5377	-0.543
Mof_C 	C 	0.169	0.988	0.7579	-0.027
Mof_H 	H 	0.1185	0.9765	0.7954	0.02
Mof_C 	C 	0.2853	0.1522	0.8513	0.434
Mof_O 	O 	0.3936	0.7094	0.3844	-0.548
Mof_C 	C 	0.9837	0.4246	0.8911	-0.004
Mof_H 	H 	0.057	0.4398	0.8703	-0.051
Mof_C 	C 	0.8988	0.9667	0.8481	0.479
Mof_C 	C 	0.8735	0.4613	0.8949	-0.051
Mof_H 	H 	0.8612	0.5051	0.8773	-0
Mof_C 	C 	0.6195	0.9383	0.6062	0.444
Mof_C 	C 	0.468	0.07	0.1189	-0.024
Mof_H 	H 	0.3941	0.0543	0.139	-0.009
Mof_C 	C 	0.6921	0.9023	0.6563	-0.023
Mof_C 	C 	0.8166	0.9153	0.7652	-0.054
Mof_C 	C 	0.1762	0.928	0.674	-0.054
Mof_H 	H 	0.1314	0.8689	0.645	0.038
Mof_C 	C 	0.3095	0.9448	0.5603	0.376
Mof_C 	C 	0.7832	0.8265	0.7137	-0.014
Mof_H 	H 	0.8083	0.7801	0.7226	0.023
Mof_C 	C 	0.5784	0.031	0.1123	-0.054
Mof_H 	H 	0.5894	0.9851	0.1272	0.007
Mof_C 	C 	0.2023	0.546	0.35	-0.077
Mof_H 	H 	0.1825	0.5876	0.4008	0.038
Mof_O 	O 	0.4981	0.6201	0.288	-0.366
Mof_C 	C 	0.3002	0.5586	0.3107	-0
Mof_C 	C 	0.7013	0.8186	0.6431	-0.051
Mof_H 	H 	0.6616	0.7655	0.5965	0.035
Mof_C 	C 	0.1338	0.4575	0.3003	-0.016
Mof_H 	H 	0.0605	0.4298	0.3123	-0.011
Mof_C 	C 	0.4066	0.6348	0.329	0.348
Mof_K 	K 	0.73215	0.25778	0.02	3.177
Mof_O 	O 	0.1824	0.0095	0.9508	-0.606
Mof_O 	O 	0.5371	0.7602	0.9606	-0.842
Mof_O 	O 	0.697	0.8207	0.9102	-0.589
Mof_C 	C 	0.5857	0.8107	0.9276	0.46
Mof_C 	C 	0.5069	0.8666	0.9097	-0.031
Mof_O 	O 	0.0706	0.0772	0.1139	-0.668
Mof_Ce	Ce	0.91718	0.85903	0.9872	2.884
Mof_Ce	Ce	0.62856	0.65643	0.004	2.453
Mof_Ce	Ce	0.56201	0.13427	0.59439	2.212
Mof_C 	C 	0.7393	0.0277	0.3575	-0.016
Mof_O 	O 	0.0064	0.7487	0.0332	-0.763
Mof_O 	O 	0.3881	0.8624	0.9332	-0.552
Mof_O 	O 	0.1589	0.6413	0.0535	-0.541
Mof_O 	O 	0.1459	0.8774	0.9595	-0.83
Mof_O 	O 	0.7737	0.8348	0.0861	-0.686
Mof_O 	O 	0.4002	0.6261	0.0277	-0.844
Mof_O 	O 	0.8452	0.6739	0.0693	-0.61
Mof_O 	O 	0.0634	0.9499	0.1262	-0.593
Mof_O 	O 	0.2386	0.0371	0.2687	-0.2
Mof_O 	O 	0.6239	0.7887	0.1483	-0.593
Mof_O 	O 	0.7772	0.6696	0.907	-0.682
Mof_O 	O 	0.6165	0.9982	0.4543	-0.637
Mof_O 	O 	0.7022	0.5176	0.7615	-0.207
Mof_O 	O 	0.3744	0.5042	0.0533	-0.665
Mof_O 	O 	0.9227	0.725	0.8467	-0.614
Mof_C 	C 	0.8072	0.5792	0.7668	-0.065
Mof_C 	C 	0.3366	0.5695	0.0491	0.464
Mof_O 	O 	0.6931	0.9426	0.2961	-0.231
Mof_C 	C 	0.7506	0.9346	0.2261	-0.039
Mof_C 	C 	0.2117	0.9386	0.9459	0.485
Mof_C 	C 	0.0376	0.6365	0.0766	-0.054
Mof_C 	C 	0.3377	0.9265	0.9195	-0.027
Mof_C 	C 	0.9579	0.6913	0.0583	0.463
Mof_O 	O 	0.3718	0.9779	0.3614	-0.575
Mof_O 	O 	0.7277	0.1355	0.4931	-0.48
Mof_C 	C 	0.8373	0.6641	0.8455	0.433
Mof_C 	C 	0.2098	0.58	0.0711	-0.053
Mof_O 	O 	0.4451	0.1198	0.4623	-0.543
Mof_C 	C 	0.831	0.012	0.2421	-0.027
Mof_H 	H 	0.8815	0.0235	0.2046	0.02
Mof_C 	C 	0.7147	0.8478	0.1487	0.434
Mof_O 	O 	0.6064	0.2906	0.6156	-0.548
Mof_C 	C 	0.0163	0.5754	0.1089	-0.004
Mof_H 	H 	0.943	0.5602	0.1297	-0.051
Mof_C 	C 	0.1012	0.0333	0.1519	0.479
Mof_C 	C 	0.1265	0.5387	0.1051	-0.051
Mof_H 	H 	0.1388	0.4949	0.1227	-0
Mof_C 	C 	0.3805	0.0617	0.3938	0.444
Mof_C 	C 	0.532	0.93	0.8811	-0.024
Mof_H 	H 	0.6059	0.9457	0.861	-0.009
Mof_C 	C 	0.3079	0.0977	0.3437	-0.023
Mof_C 	C 	0.1834	0.0847	0.2348	-0.054
Mof_C 	C 	0.8238	0.072	0.326	-0.054
Mof_H 	H 	0.8686	0.1311	0.355	0.038
Mof_C 	C 	0.6905	0.0552	0.4397	0.376
Mof_C 	C 	0.2168	0.1735	0.2863	-0.014
Mof_H 	H 	0.1917	0.2199	0.2774	0.023
Mof_C 	C 	0.4216	0.969	0.8877	-0.054
Mof_H 	H 	0.4106	0.0149	0.8728	0.007
Mof_C 	C 	0.7977	0.454	0.65	-0.077
Mof_H 	H 	0.8175	0.4124	0.5992	0.038
Mof_O 	O 	0.5019	0.3799	0.712	-0.366
Mof_C 	C 	0.6998	0.4414	0.6893	-0
Mof_C 	C 	0.2987	0.1814	0.3569	-0.051
Mof_H 	H 	0.3384	0.2345	0.4035	0.035
Mof_C 	C 	0.8662	0.5425	0.6997	-0.016
Mof_H 	H 	0.9395	0.5702	0.6877	-0.011
Mof_C 	C 	0.5934	0.3652	0.671	0.348
Mof_K 	K 	0.26785	0.74222	0.98	3.177
_end
