data_functionalizedCrystal
_audit_creation_method	'EQeq! by Chris Wilmer'
_symmetry_space_group_name_H-M	'P1'
_symmetry_Int_Tables_number	1
_symmetry_cell_setting	triclinic
loop_
_symmetry_equiv_pos_as_xyz
  x,y,z
_cell_length_a	13.8325
_cell_length_b	40.435
_cell_length_c	60.962
_cell_angle_alpha	90
_cell_angle_beta	90
_cell_angle_gamma	90
loop_
_atom_site_label
_atom_site_type_symbol
_atom_site_fract_x
_atom_site_fract_y
_atom_site_fract_z
_atom_site_charge
Mof_O 	O 	0.044	0.5362	0.5276	-0.398
Mof_O 	O 	0.0665	0.546	0.4843	-0.459
Mof_C 	C 	0.7886	0.70142	0.37632	0.065
Mof_C 	C 	0.7762	0.7199	0.39533	-0.096
Mof_H 	H 	0.8107	0.7146	0.4079	0.066
Mof_C 	C 	0.712	0.7464	0.39551	-0.023
Mof_H 	H 	0.7037	0.7588	0.4082	0.042
Mof_C 	C 	0.6604	0.7543	0.3767	-0.015
Mof_C 	C 	0.6728	0.7358	0.35767	-0.021
Mof_H 	H 	0.6383	0.7412	0.3451	0.048
Mof_C 	C 	0.737	0.7094	0.35749	-0.098
Mof_H 	H 	0.7453	0.697	0.3448	0.067
Mof_Cu	Cu	0.08789	0.5093	0.50401	0.901
Mof_C 	C 	0.7817	0.5699	0.57602	0.013
Mof_C 	C 	0.6947	0.55794	0.58418	-0.04
Mof_H 	H 	0.6688	0.5384	0.5787	0.046
Mof_C 	C 	0.6464	0.5751	0.60061	-0.08
Mof_H 	H 	0.5882	0.5671	0.6061	0.063
Mof_C 	C 	0.6852	0.6043	0.60888	0.054
Mof_C 	C 	0.7722	0.61627	0.60071	-0.076
Mof_H 	H 	0.7982	0.6358	0.6062	0.07
Mof_C 	C 	0.8205	0.5991	0.58428	-0.04
Mof_H 	H 	0.8788	0.6071	0.5788	0.07
Mof_C 	C 	0.8837	0.65261	0.39461	0.065
Mof_C 	C 	0.9711	0.6365	0.39816	-0.098
Mof_H 	H 	0.024	0.641	0.3893	0.065
Mof_C 	C 	0.9793	0.6135	0.41502	-0.021
Mof_H 	H 	0.0377	0.6027	0.4174	0.036
Mof_C 	C 	0.9002	0.6067	0.42834	-0.016
Mof_C 	C 	0.8128	0.6228	0.42479	-0.022
Mof_H 	H 	0.7599	0.6183	0.4337	0.038
Mof_C 	C 	0.8046	0.6458	0.40793	-0.099
Mof_H 	H 	0.7462	0.6566	0.4056	0.066
Mof_C 	C 	0.9123	0.5539	0.5516	-0.164
Mof_H 	H 	0.9542	0.5669	0.5598	0.12
Mof_C 	C 	0.9104	0.5822	0.4464	0.047
Mof_H 	H 	0.8535	0.5719	0.4508	0.036
Mof_C 	C 	0.8228	0.5529	0.5571	0.014
Mof_H 	H 	0.7811	0.5404	0.5484	0.047
Mof_C 	C 	0.602	0.7841	0.3774	0.068
Mof_C 	C 	0.9897	0.573	0.4571	-0.228
Mof_H 	H 	0.047	0.5836	0.4534	0.126
Mof_C 	C 	0.9549	0.5337	0.5312	0.326
Mof_C 	C 	0.995	0.5469	0.4748	0.423
Mof_O 	O 	0.8832	0.5191	0.52094	-0.394
Mof_O 	O 	0.9125	0.53	0.47612	-0.401
Mof_C 	C 	0.494	0.8294	0.372	0.454
Mof_O 	O 	0.4916	0.8433	0.3913	-0.372
Mof_O 	O 	0.456	0.8379	0.3572	-0.469
Mof_C 	C 	0.286	0.8761	0.4807	0.058
Mof_O 	O 	0.3269	0.8755	0.4305	-0.373
Mof_C 	C 	0.551	0.7993	0.3665	-0.125
Mof_C 	C 	0.682	0.4427	0.3896	-0.006
Mof_O 	O 	0.044	0.0362	0.0276	-0.397
Mof_O 	O 	0.0665	0.046	0.9843	-0.458
Mof_C 	C 	0.7886	0.20142	0.87632	0.066
Mof_C 	C 	0.7762	0.2199	0.89533	-0.095
Mof_H 	H 	0.8107	0.2146	0.9079	0.067
Mof_C 	C 	0.712	0.2464	0.89551	-0.022
Mof_H 	H 	0.7037	0.2588	0.9082	0.043
Mof_C 	C 	0.6604	0.2543	0.8767	-0.014
Mof_C 	C 	0.6728	0.2358	0.85767	-0.02
Mof_H 	H 	0.6383	0.2412	0.8451	0.049
Mof_C 	C 	0.737	0.2094	0.85749	-0.097
Mof_H 	H 	0.7453	0.197	0.8448	0.068
Mof_Cu	Cu	0.08789	0.0093	0.00401	0.902
Mof_C 	C 	0.7817	0.0699	0.07602	0.014
Mof_C 	C 	0.6947	0.05794	0.08418	-0.039
Mof_H 	H 	0.6688	0.0384	0.0787	0.047
Mof_C 	C 	0.6464	0.0751	0.10061	-0.079
Mof_H 	H 	0.5882	0.0671	0.1061	0.064
Mof_C 	C 	0.6852	0.1043	0.10888	0.055
Mof_C 	C 	0.7722	0.11627	0.10071	-0.075
Mof_H 	H 	0.7982	0.1358	0.1062	0.071
Mof_C 	C 	0.8205	0.0991	0.08428	-0.039
Mof_H 	H 	0.8788	0.1071	0.0788	0.071
Mof_C 	C 	0.8837	0.15261	0.89461	0.066
Mof_C 	C 	0.9711	0.1365	0.89816	-0.097
Mof_H 	H 	0.024	0.141	0.8893	0.066
Mof_C 	C 	0.9793	0.1135	0.91502	-0.02
Mof_H 	H 	0.0377	0.1027	0.9174	0.037
Mof_C 	C 	0.9002	0.1067	0.92834	-0.015
Mof_C 	C 	0.8128	0.1228	0.92479	-0.021
Mof_H 	H 	0.7599	0.1183	0.9337	0.039
Mof_C 	C 	0.8046	0.1458	0.90793	-0.098
Mof_H 	H 	0.7462	0.1566	0.9056	0.067
Mof_C 	C 	0.9123	0.0539	0.0516	-0.163
Mof_H 	H 	0.9542	0.0669	0.0598	0.12
Mof_C 	C 	0.9104	0.0822	0.9464	0.047
Mof_H 	H 	0.8535	0.0719	0.9508	0.036
Mof_C 	C 	0.8228	0.0529	0.0571	0.014
Mof_H 	H 	0.7811	0.0404	0.0484	0.047
Mof_C 	C 	0.602	0.2841	0.8774	0.068
Mof_C 	C 	0.9897	0.073	0.9571	-0.228
Mof_H 	H 	0.047	0.0836	0.9534	0.126
Mof_C 	C 	0.9549	0.0337	0.0312	0.326
Mof_C 	C 	0.995	0.0469	0.9748	0.423
Mof_O 	O 	0.8832	0.0191	0.02094	-0.394
Mof_O 	O 	0.9125	0.03	0.97612	-0.401
Mof_C 	C 	0.494	0.3294	0.872	0.454
Mof_O 	O 	0.4916	0.3433	0.8913	-0.372
Mof_O 	O 	0.456	0.3379	0.8572	-0.469
Mof_C 	C 	0.286	0.3761	0.9807	0.058
Mof_O 	O 	0.3269	0.3755	0.9305	-0.373
Mof_C 	C 	0.551	0.2993	0.8665	-0.125
Mof_C 	C 	0.682	0.9427	0.8896	-0.006
Mof_O 	O 	0.544	0.5362	0.0276	-0.397
Mof_O 	O 	0.5665	0.546	0.9843	-0.458
Mof_C 	C 	0.2886	0.70142	0.87632	0.066
Mof_C 	C 	0.2762	0.7199	0.89533	-0.095
Mof_H 	H 	0.3107	0.7146	0.9079	0.067
Mof_C 	C 	0.212	0.7464	0.89551	-0.022
Mof_H 	H 	0.2037	0.7588	0.9082	0.042
Mof_C 	C 	0.1604	0.7543	0.8767	-0.014
Mof_C 	C 	0.1728	0.7358	0.85767	-0.019
Mof_H 	H 	0.1383	0.7412	0.8451	0.049
Mof_C 	C 	0.237	0.7094	0.85749	-0.098
Mof_H 	H 	0.2453	0.697	0.8448	0.068
Mof_Cu	Cu	0.58789	0.5093	0.00401	0.902
Mof_C 	C 	0.2817	0.5699	0.07602	0.014
Mof_C 	C 	0.1947	0.55794	0.08418	-0.039
Mof_H 	H 	0.1688	0.5384	0.0787	0.047
Mof_C 	C 	0.1464	0.5751	0.10061	-0.079
Mof_H 	H 	0.0882	0.5671	0.1061	0.064
Mof_C 	C 	0.1852	0.6043	0.10888	0.055
Mof_C 	C 	0.2722	0.61627	0.10071	-0.075
Mof_H 	H 	0.2982	0.6358	0.1062	0.071
Mof_C 	C 	0.3205	0.5991	0.08428	-0.039
Mof_H 	H 	0.3788	0.6071	0.0788	0.071
Mof_C 	C 	0.3837	0.65261	0.89461	0.066
Mof_C 	C 	0.4711	0.6365	0.89816	-0.098
Mof_H 	H 	0.524	0.641	0.8893	0.066
Mof_C 	C 	0.4793	0.6135	0.91502	-0.02
Mof_H 	H 	0.5377	0.6027	0.9174	0.038
Mof_C 	C 	0.4002	0.6067	0.92834	-0.015
Mof_C 	C 	0.3128	0.6228	0.92479	-0.021
Mof_H 	H 	0.2599	0.6183	0.9337	0.039
Mof_C 	C 	0.3046	0.6458	0.90793	-0.098
Mof_H 	H 	0.2462	0.6566	0.9056	0.067
Mof_C 	C 	0.4123	0.5539	0.0516	-0.164
Mof_H 	H 	0.4542	0.5669	0.0598	0.12
Mof_C 	C 	0.4104	0.5822	0.9464	0.047
Mof_H 	H 	0.3535	0.5719	0.9508	0.036
Mof_C 	C 	0.3228	0.5529	0.0571	0.014
Mof_H 	H 	0.2811	0.5404	0.0484	0.047
Mof_C 	C 	0.102	0.7841	0.8774	0.068
Mof_C 	C 	0.4897	0.573	0.9571	-0.228
Mof_H 	H 	0.547	0.5836	0.9534	0.126
Mof_C 	C 	0.4549	0.5337	0.0312	0.326
Mof_C 	C 	0.495	0.5469	0.9748	0.423
Mof_O 	O 	0.3832	0.5191	0.02094	-0.394
Mof_O 	O 	0.4125	0.53	0.97612	-0.401
Mof_C 	C 	0.994	0.8294	0.872	0.455
Mof_O 	O 	0.9916	0.8433	0.8913	-0.372
Mof_O 	O 	0.956	0.8379	0.8572	-0.469
Mof_C 	C 	0.786	0.8761	0.9807	0.058
Mof_O 	O 	0.8269	0.8755	0.9305	-0.373
Mof_C 	C 	0.051	0.7993	0.8665	-0.126
Mof_C 	C 	0.182	0.4427	0.8896	-0.006
Mof_O 	O 	0.544	0.0362	0.5276	-0.397
Mof_O 	O 	0.5665	0.046	0.4843	-0.458
Mof_C 	C 	0.2886	0.20142	0.37632	0.066
Mof_C 	C 	0.2762	0.2199	0.39533	-0.095
Mof_H 	H 	0.3107	0.2146	0.4079	0.067
Mof_C 	C 	0.212	0.2464	0.39551	-0.022
Mof_H 	H 	0.2037	0.2588	0.4082	0.042
Mof_C 	C 	0.1604	0.2543	0.3767	-0.014
Mof_C 	C 	0.1728	0.2358	0.35767	-0.019
Mof_H 	H 	0.1383	0.2412	0.3451	0.049
Mof_C 	C 	0.237	0.2094	0.35749	-0.098
Mof_H 	H 	0.2453	0.197	0.3448	0.068
Mof_Cu	Cu	0.58789	0.0093	0.50401	0.902
Mof_C 	C 	0.2817	0.0699	0.57602	0.014
Mof_C 	C 	0.1947	0.05794	0.58418	-0.039
Mof_H 	H 	0.1688	0.0384	0.5787	0.047
Mof_C 	C 	0.1464	0.0751	0.60061	-0.079
Mof_H 	H 	0.0882	0.0671	0.6061	0.064
Mof_C 	C 	0.1852	0.1043	0.60888	0.055
Mof_C 	C 	0.2722	0.11627	0.60071	-0.075
Mof_H 	H 	0.2982	0.1358	0.6062	0.071
Mof_C 	C 	0.3205	0.0991	0.58428	-0.039
Mof_H 	H 	0.3788	0.1071	0.5788	0.071
Mof_C 	C 	0.3837	0.15261	0.39461	0.066
Mof_C 	C 	0.4711	0.1365	0.39816	-0.098
Mof_H 	H 	0.524	0.141	0.3893	0.066
Mof_C 	C 	0.4793	0.1135	0.41502	-0.02
Mof_H 	H 	0.5377	0.1027	0.4174	0.038
Mof_C 	C 	0.4002	0.1067	0.42834	-0.015
Mof_C 	C 	0.3128	0.1228	0.42479	-0.021
Mof_H 	H 	0.2599	0.1183	0.4337	0.039
Mof_C 	C 	0.3046	0.1458	0.40793	-0.098
Mof_H 	H 	0.2462	0.1566	0.4056	0.067
Mof_C 	C 	0.4123	0.0539	0.5516	-0.164
Mof_H 	H 	0.4542	0.0669	0.5598	0.12
Mof_C 	C 	0.4104	0.0822	0.4464	0.047
Mof_H 	H 	0.3535	0.0719	0.4508	0.036
Mof_C 	C 	0.3228	0.0529	0.5571	0.014
Mof_H 	H 	0.2811	0.0404	0.5484	0.047
Mof_C 	C 	0.102	0.2841	0.3774	0.068
Mof_C 	C 	0.4897	0.073	0.4571	-0.228
Mof_H 	H 	0.547	0.0836	0.4534	0.126
Mof_C 	C 	0.4549	0.0337	0.5312	0.326
Mof_C 	C 	0.495	0.0469	0.4748	0.423
Mof_O 	O 	0.3832	0.0191	0.52094	-0.394
Mof_O 	O 	0.4125	0.03	0.47612	-0.401
Mof_C 	C 	0.994	0.3294	0.372	0.455
Mof_O 	O 	0.9916	0.3433	0.3913	-0.372
Mof_O 	O 	0.956	0.3379	0.3572	-0.469
Mof_C 	C 	0.786	0.3761	0.4807	0.058
Mof_O 	O 	0.8269	0.3755	0.4305	-0.373
Mof_C 	C 	0.051	0.2993	0.3665	-0.126
Mof_C 	C 	0.182	0.9427	0.3896	-0.006
Mof_O 	O 	0.706	0.2138	0.5276	-0.397
Mof_O 	O 	0.6835	0.204	0.4843	-0.458
Mof_C 	C 	0.9614	0.04858	0.37632	0.066
Mof_C 	C 	0.9738	0.0301	0.39533	-0.095
Mof_H 	H 	0.9393	0.0354	0.4079	0.067
Mof_C 	C 	0.038	0.0036	0.39551	-0.023
Mof_H 	H 	0.0463	0.9912	0.4082	0.043
Mof_C 	C 	0.0896	0.9957	0.3767	-0.013
Mof_C 	C 	0.0772	0.0142	0.35767	-0.02
Mof_H 	H 	0.1117	0.0088	0.3451	0.049
Mof_C 	C 	0.013	0.0406	0.35749	-0.097
Mof_H 	H 	0.0047	0.053	0.3448	0.068
Mof_Cu	Cu	0.66211	0.2407	0.50401	0.902
Mof_C 	C 	0.9683	0.1801	0.57602	0.014
Mof_C 	C 	0.0553	0.19206	0.58418	-0.039
Mof_H 	H 	0.0812	0.2116	0.5787	0.047
Mof_C 	C 	0.1036	0.1749	0.60061	-0.079
Mof_H 	H 	0.1618	0.1829	0.6061	0.064
Mof_C 	C 	0.0648	0.1457	0.60888	0.055
Mof_C 	C 	0.9778	0.13373	0.60071	-0.075
Mof_H 	H 	0.9518	0.1142	0.6062	0.071
Mof_C 	C 	0.9295	0.1509	0.58428	-0.039
Mof_H 	H 	0.8712	0.1429	0.5788	0.071
Mof_C 	C 	0.8663	0.09739	0.39461	0.066
Mof_C 	C 	0.7789	0.1135	0.39816	-0.097
Mof_H 	H 	0.726	0.109	0.3893	0.066
Mof_C 	C 	0.7707	0.1365	0.41502	-0.02
Mof_H 	H 	0.7123	0.1473	0.4174	0.038
Mof_C 	C 	0.8498	0.1433	0.42834	-0.014
Mof_C 	C 	0.9372	0.1272	0.42479	-0.021
Mof_H 	H 	0.9901	0.1317	0.4337	0.04
Mof_C 	C 	0.9454	0.1042	0.40793	-0.097
Mof_H 	H 	0.0038	0.0934	0.4056	0.066
Mof_C 	C 	0.8377	0.1961	0.5516	-0.163
Mof_H 	H 	0.7958	0.1831	0.5598	0.12
Mof_C 	C 	0.8396	0.1678	0.4464	0.047
Mof_H 	H 	0.8965	0.1781	0.4508	0.036
Mof_C 	C 	0.9272	0.1971	0.5571	0.014
Mof_H 	H 	0.9689	0.2096	0.5484	0.047
Mof_C 	C 	0.148	0.9659	0.3774	0.067
Mof_C 	C 	0.7603	0.177	0.4571	-0.228
Mof_H 	H 	0.703	0.1664	0.4534	0.126
Mof_C 	C 	0.7951	0.2163	0.5312	0.326
Mof_C 	C 	0.755	0.2031	0.4748	0.423
Mof_O 	O 	0.8668	0.2309	0.52094	-0.394
Mof_O 	O 	0.8375	0.22	0.47612	-0.401
Mof_C 	C 	0.256	0.9206	0.372	0.454
Mof_O 	O 	0.2584	0.9067	0.3913	-0.372
Mof_O 	O 	0.294	0.9121	0.3572	-0.469
Mof_C 	C 	0.464	0.8739	0.4807	0.058
Mof_O 	O 	0.4231	0.8745	0.4305	-0.373
Mof_C 	C 	0.199	0.9507	0.3665	-0.125
Mof_C 	C 	0.068	0.3073	0.3896	-0.006
Mof_O 	O 	0.706	0.7138	0.0276	-0.397
Mof_O 	O 	0.6835	0.704	0.9843	-0.458
Mof_C 	C 	0.9614	0.54858	0.87632	0.066
Mof_C 	C 	0.9738	0.5301	0.89533	-0.095
Mof_H 	H 	0.9393	0.5354	0.9079	0.067
Mof_C 	C 	0.038	0.5036	0.89551	-0.022
Mof_H 	H 	0.0463	0.4912	0.9082	0.043
Mof_C 	C 	0.0896	0.4957	0.8767	-0.014
Mof_C 	C 	0.0772	0.5142	0.85767	-0.02
Mof_H 	H 	0.1117	0.5088	0.8451	0.049
Mof_C 	C 	0.013	0.5406	0.85749	-0.097
Mof_H 	H 	0.0047	0.553	0.8448	0.068
Mof_Cu	Cu	0.66211	0.7407	0.00401	0.902
Mof_C 	C 	0.9683	0.6801	0.07602	0.014
Mof_C 	C 	0.0553	0.69206	0.08418	-0.039
Mof_H 	H 	0.0812	0.7116	0.0787	0.047
Mof_C 	C 	0.1036	0.6749	0.10061	-0.079
Mof_H 	H 	0.1618	0.6829	0.1061	0.064
Mof_C 	C 	0.0648	0.6457	0.10888	0.055
Mof_C 	C 	0.9778	0.63373	0.10071	-0.075
Mof_H 	H 	0.9518	0.6142	0.1062	0.071
Mof_C 	C 	0.9295	0.6509	0.08428	-0.039
Mof_H 	H 	0.8712	0.6429	0.0788	0.071
Mof_C 	C 	0.8663	0.59739	0.89461	0.066
Mof_C 	C 	0.7789	0.6135	0.89816	-0.097
Mof_H 	H 	0.726	0.609	0.8893	0.066
Mof_C 	C 	0.7707	0.6365	0.91502	-0.02
Mof_H 	H 	0.7123	0.6473	0.9174	0.038
Mof_C 	C 	0.8498	0.6433	0.92834	-0.014
Mof_C 	C 	0.9372	0.6272	0.92479	-0.021
Mof_H 	H 	0.9901	0.6317	0.9337	0.04
Mof_C 	C 	0.9454	0.6042	0.90793	-0.097
Mof_H 	H 	0.0038	0.5934	0.9056	0.066
Mof_C 	C 	0.8377	0.6961	0.0516	-0.163
Mof_H 	H 	0.7958	0.6831	0.0598	0.12
Mof_C 	C 	0.8396	0.6678	0.9464	0.047
Mof_H 	H 	0.8965	0.6781	0.9508	0.036
Mof_C 	C 	0.9272	0.6971	0.0571	0.014
Mof_H 	H 	0.9689	0.7096	0.0484	0.047
Mof_C 	C 	0.148	0.4659	0.8774	0.067
Mof_C 	C 	0.7603	0.677	0.9571	-0.228
Mof_H 	H 	0.703	0.6664	0.9534	0.126
Mof_C 	C 	0.7951	0.7163	0.0312	0.326
Mof_C 	C 	0.755	0.7031	0.9748	0.423
Mof_O 	O 	0.8668	0.7309	0.02094	-0.394
Mof_O 	O 	0.8375	0.72	0.97612	-0.401
Mof_C 	C 	0.256	0.4206	0.872	0.454
Mof_O 	O 	0.2584	0.4067	0.8913	-0.372
Mof_O 	O 	0.294	0.4121	0.8572	-0.469
Mof_C 	C 	0.464	0.3739	0.9807	0.058
Mof_O 	O 	0.4231	0.3745	0.9305	-0.373
Mof_C 	C 	0.199	0.4507	0.8665	-0.125
Mof_C 	C 	0.068	0.8073	0.8896	-0.006
Mof_O 	O 	0.206	0.2138	0.0276	-0.397
Mof_O 	O 	0.1835	0.204	0.9843	-0.458
Mof_C 	C 	0.4614	0.04858	0.87632	0.066
Mof_C 	C 	0.4738	0.0301	0.89533	-0.095
Mof_H 	H 	0.4393	0.0354	0.9079	0.067
Mof_C 	C 	0.538	0.0036	0.89551	-0.022
Mof_H 	H 	0.5463	0.9912	0.9082	0.043
Mof_C 	C 	0.5896	0.9957	0.8767	-0.014
Mof_C 	C 	0.5772	0.0142	0.85767	-0.02
Mof_H 	H 	0.6117	0.0088	0.8451	0.049
Mof_C 	C 	0.513	0.0406	0.85749	-0.097
Mof_H 	H 	0.5047	0.053	0.8448	0.068
Mof_Cu	Cu	0.16211	0.2407	0.00401	0.902
Mof_C 	C 	0.4683	0.1801	0.07602	0.014
Mof_C 	C 	0.5553	0.19206	0.08418	-0.039
Mof_H 	H 	0.5812	0.2116	0.0787	0.047
Mof_C 	C 	0.6036	0.1749	0.10061	-0.079
Mof_H 	H 	0.6618	0.1829	0.1061	0.064
Mof_C 	C 	0.5648	0.1457	0.10888	0.055
Mof_C 	C 	0.4778	0.13373	0.10071	-0.075
Mof_H 	H 	0.4518	0.1142	0.1062	0.071
Mof_C 	C 	0.4295	0.1509	0.08428	-0.039
Mof_H 	H 	0.3712	0.1429	0.0788	0.071
Mof_C 	C 	0.3663	0.09739	0.89461	0.066
Mof_C 	C 	0.2789	0.1135	0.89816	-0.098
Mof_H 	H 	0.226	0.109	0.8893	0.066
Mof_C 	C 	0.2707	0.1365	0.91502	-0.02
Mof_H 	H 	0.2123	0.1473	0.9174	0.037
Mof_C 	C 	0.3498	0.1433	0.92834	-0.015
Mof_C 	C 	0.4372	0.1272	0.92479	-0.021
Mof_H 	H 	0.4901	0.1317	0.9337	0.039
Mof_C 	C 	0.4454	0.1042	0.90793	-0.098
Mof_H 	H 	0.5038	0.0934	0.9056	0.067
Mof_C 	C 	0.3377	0.1961	0.0516	-0.164
Mof_H 	H 	0.2958	0.1831	0.0598	0.12
Mof_C 	C 	0.3396	0.1678	0.9464	0.047
Mof_H 	H 	0.3965	0.1781	0.9508	0.036
Mof_C 	C 	0.4272	0.1971	0.0571	0.014
Mof_H 	H 	0.4689	0.2096	0.0484	0.047
Mof_C 	C 	0.648	0.9659	0.8774	0.068
Mof_C 	C 	0.2603	0.177	0.9571	-0.228
Mof_H 	H 	0.203	0.1664	0.9534	0.126
Mof_C 	C 	0.2951	0.2163	0.0312	0.326
Mof_C 	C 	0.255	0.2031	0.9748	0.423
Mof_O 	O 	0.3668	0.2309	0.02094	-0.394
Mof_O 	O 	0.3375	0.22	0.97612	-0.401
Mof_C 	C 	0.756	0.9206	0.872	0.454
Mof_O 	O 	0.7584	0.9067	0.8913	-0.372
Mof_O 	O 	0.794	0.9121	0.8572	-0.469
Mof_C 	C 	0.964	0.8739	0.9807	0.058
Mof_O 	O 	0.9231	0.8745	0.9305	-0.373
Mof_C 	C 	0.699	0.9507	0.8665	-0.125
Mof_C 	C 	0.568	0.3073	0.8896	-0.006
Mof_O 	O 	0.206	0.7138	0.5276	-0.397
Mof_O 	O 	0.1835	0.704	0.4843	-0.458
Mof_C 	C 	0.4614	0.54858	0.37632	0.066
Mof_C 	C 	0.4738	0.5301	0.39533	-0.095
Mof_H 	H 	0.4393	0.5354	0.4079	0.067
Mof_C 	C 	0.538	0.5036	0.39551	-0.022
Mof_H 	H 	0.5463	0.4912	0.4082	0.043
Mof_C 	C 	0.5896	0.4957	0.3767	-0.014
Mof_C 	C 	0.5772	0.5142	0.35767	-0.02
Mof_H 	H 	0.6117	0.5088	0.3451	0.049
Mof_C 	C 	0.513	0.5406	0.35749	-0.097
Mof_H 	H 	0.5047	0.553	0.3448	0.068
Mof_Cu	Cu	0.16211	0.7407	0.50401	0.902
Mof_C 	C 	0.4683	0.6801	0.57602	0.014
Mof_C 	C 	0.5553	0.69206	0.58418	-0.039
Mof_H 	H 	0.5812	0.7116	0.5787	0.047
Mof_C 	C 	0.6036	0.6749	0.60061	-0.079
Mof_H 	H 	0.6618	0.6829	0.6061	0.064
Mof_C 	C 	0.5648	0.6457	0.60888	0.055
Mof_C 	C 	0.4778	0.63373	0.60071	-0.075
Mof_H 	H 	0.4518	0.6142	0.6062	0.071
Mof_C 	C 	0.4295	0.6509	0.58428	-0.039
Mof_H 	H 	0.3712	0.6429	0.5788	0.071
Mof_C 	C 	0.3663	0.59739	0.39461	0.066
Mof_C 	C 	0.2789	0.6135	0.39816	-0.098
Mof_H 	H 	0.226	0.609	0.3893	0.066
Mof_C 	C 	0.2707	0.6365	0.41502	-0.02
Mof_H 	H 	0.2123	0.6473	0.4174	0.037
Mof_C 	C 	0.3498	0.6433	0.42834	-0.015
Mof_C 	C 	0.4372	0.6272	0.42479	-0.021
Mof_H 	H 	0.4901	0.6317	0.4337	0.039
Mof_C 	C 	0.4454	0.6042	0.40793	-0.098
Mof_H 	H 	0.5038	0.5934	0.4056	0.067
Mof_C 	C 	0.3377	0.6961	0.5516	-0.164
Mof_H 	H 	0.2958	0.6831	0.5598	0.12
Mof_C 	C 	0.3396	0.6678	0.4464	0.047
Mof_H 	H 	0.3965	0.6781	0.4508	0.036
Mof_C 	C 	0.4272	0.6971	0.5571	0.014
Mof_H 	H 	0.4689	0.7096	0.5484	0.047
Mof_C 	C 	0.648	0.4659	0.3774	0.068
Mof_C 	C 	0.2603	0.677	0.4571	-0.228
Mof_H 	H 	0.203	0.6664	0.4534	0.126
Mof_C 	C 	0.2951	0.7163	0.5312	0.326
Mof_C 	C 	0.255	0.7031	0.4748	0.423
Mof_O 	O 	0.3668	0.7309	0.52094	-0.394
Mof_O 	O 	0.3375	0.72	0.47612	-0.401
Mof_C 	C 	0.756	0.4206	0.372	0.454
Mof_O 	O 	0.7584	0.4067	0.3913	-0.372
Mof_O 	O 	0.794	0.4121	0.3572	-0.469
Mof_C 	C 	0.964	0.3739	0.4807	0.058
Mof_O 	O 	0.9231	0.3745	0.4305	-0.373
Mof_C 	C 	0.699	0.4507	0.3665	-0.125
Mof_C 	C 	0.568	0.8073	0.3896	-0.006
Mof_O 	O 	0.706	0.5362	0.2224	-0.397
Mof_O 	O 	0.6835	0.546	0.2657	-0.458
Mof_C 	C 	0.9614	0.70142	0.37368	0.066
Mof_C 	C 	0.9738	0.7199	0.35467	-0.095
Mof_H 	H 	0.9393	0.7146	0.3421	0.067
Mof_C 	C 	0.038	0.7464	0.35449	-0.022
Mof_H 	H 	0.0463	0.7588	0.3418	0.043
Mof_C 	C 	0.0896	0.7543	0.3733	-0.014
Mof_C 	C 	0.0772	0.7358	0.39233	-0.02
Mof_H 	H 	0.1117	0.7412	0.4049	0.049
Mof_C 	C 	0.013	0.7094	0.39251	-0.097
Mof_H 	H 	0.0047	0.697	0.4052	0.068
Mof_Cu	Cu	0.66211	0.5093	0.24599	0.902
Mof_C 	C 	0.9683	0.5699	0.17398	0.014
Mof_C 	C 	0.0553	0.55794	0.16582	-0.039
Mof_H 	H 	0.0812	0.5384	0.1713	0.047
Mof_C 	C 	0.1036	0.5751	0.14939	-0.079
Mof_H 	H 	0.1618	0.5671	0.1439	0.064
Mof_C 	C 	0.0648	0.6043	0.14112	0.055
Mof_C 	C 	0.9778	0.61627	0.14929	-0.075
Mof_H 	H 	0.9518	0.6358	0.1438	0.071
Mof_C 	C 	0.9295	0.5991	0.16572	-0.039
Mof_H 	H 	0.8712	0.6071	0.1712	0.071
Mof_C 	C 	0.8663	0.65261	0.35539	0.066
Mof_C 	C 	0.7789	0.6365	0.35184	-0.097
Mof_H 	H 	0.726	0.641	0.3607	0.066
Mof_C 	C 	0.7707	0.6135	0.33498	-0.02
Mof_H 	H 	0.7123	0.6027	0.3326	0.038
Mof_C 	C 	0.8498	0.6067	0.32166	-0.014
Mof_C 	C 	0.9372	0.6228	0.32521	-0.021
Mof_H 	H 	0.9901	0.6183	0.3163	0.04
Mof_C 	C 	0.9454	0.6458	0.34207	-0.097
Mof_H 	H 	0.0038	0.6566	0.3444	0.066
Mof_C 	C 	0.8377	0.5539	0.1984	-0.163
Mof_H 	H 	0.7958	0.5669	0.1902	0.12
Mof_C 	C 	0.8396	0.5822	0.3036	0.047
Mof_H 	H 	0.8965	0.5719	0.2992	0.036
Mof_C 	C 	0.9272	0.5529	0.1929	0.014
Mof_H 	H 	0.9689	0.5404	0.2016	0.047
Mof_C 	C 	0.148	0.7841	0.3726	0.067
Mof_C 	C 	0.7603	0.573	0.2929	-0.228
Mof_H 	H 	0.703	0.5836	0.2966	0.126
Mof_C 	C 	0.7951	0.5337	0.2188	0.326
Mof_C 	C 	0.755	0.5469	0.2752	0.423
Mof_O 	O 	0.8668	0.5191	0.22906	-0.394
Mof_O 	O 	0.8375	0.53	0.27388	-0.401
Mof_C 	C 	0.256	0.8294	0.378	0.454
Mof_O 	O 	0.2584	0.8433	0.3587	-0.372
Mof_O 	O 	0.294	0.8379	0.3928	-0.469
Mof_C 	C 	0.464	0.8761	0.2693	0.058
Mof_O 	O 	0.4231	0.8755	0.3195	-0.373
Mof_C 	C 	0.199	0.7993	0.3835	-0.125
Mof_C 	C 	0.068	0.4427	0.3604	-0.006
Mof_O 	O 	0.706	0.0362	0.7224	-0.397
Mof_O 	O 	0.6835	0.046	0.7657	-0.458
Mof_C 	C 	0.9614	0.20142	0.87368	0.066
Mof_C 	C 	0.9738	0.2199	0.85467	-0.095
Mof_H 	H 	0.9393	0.2146	0.8421	0.067
Mof_C 	C 	0.038	0.2464	0.85449	-0.022
Mof_H 	H 	0.0463	0.2588	0.8418	0.043
Mof_C 	C 	0.0896	0.2543	0.8733	-0.014
Mof_C 	C 	0.0772	0.2358	0.89233	-0.02
Mof_H 	H 	0.1117	0.2412	0.9049	0.049
Mof_C 	C 	0.013	0.2094	0.89251	-0.097
Mof_H 	H 	0.0047	0.197	0.9052	0.068
Mof_Cu	Cu	0.66211	0.0093	0.74599	0.902
Mof_C 	C 	0.9683	0.0699	0.67398	0.014
Mof_C 	C 	0.0553	0.05794	0.66582	-0.039
Mof_H 	H 	0.0812	0.0384	0.6713	0.047
Mof_C 	C 	0.1036	0.0751	0.64939	-0.079
Mof_H 	H 	0.1618	0.0671	0.6439	0.064
Mof_C 	C 	0.0648	0.1043	0.64112	0.055
Mof_C 	C 	0.9778	0.11627	0.64929	-0.075
Mof_H 	H 	0.9518	0.1358	0.6438	0.071
Mof_C 	C 	0.9295	0.0991	0.66572	-0.039
Mof_H 	H 	0.8712	0.1071	0.6712	0.071
Mof_C 	C 	0.8663	0.15261	0.85539	0.066
Mof_C 	C 	0.7789	0.1365	0.85184	-0.097
Mof_H 	H 	0.726	0.141	0.8607	0.066
Mof_C 	C 	0.7707	0.1135	0.83498	-0.02
Mof_H 	H 	0.7123	0.1027	0.8326	0.038
Mof_C 	C 	0.8498	0.1067	0.82166	-0.014
Mof_C 	C 	0.9372	0.1228	0.82521	-0.021
Mof_H 	H 	0.9901	0.1183	0.8163	0.04
Mof_C 	C 	0.9454	0.1458	0.84207	-0.097
Mof_H 	H 	0.0038	0.1566	0.8444	0.066
Mof_C 	C 	0.8377	0.0539	0.6984	-0.163
Mof_H 	H 	0.7958	0.0669	0.6902	0.12
Mof_C 	C 	0.8396	0.0822	0.8036	0.047
Mof_H 	H 	0.8965	0.0719	0.7992	0.036
Mof_C 	C 	0.9272	0.0529	0.6929	0.014
Mof_H 	H 	0.9689	0.0404	0.7016	0.047
Mof_C 	C 	0.148	0.2841	0.8726	0.067
Mof_C 	C 	0.7603	0.073	0.7929	-0.228
Mof_H 	H 	0.703	0.0836	0.7966	0.126
Mof_C 	C 	0.7951	0.0337	0.7188	0.326
Mof_C 	C 	0.755	0.0469	0.7752	0.423
Mof_O 	O 	0.8668	0.0191	0.72906	-0.394
Mof_O 	O 	0.8375	0.03	0.77388	-0.401
Mof_C 	C 	0.256	0.3294	0.878	0.454
Mof_O 	O 	0.2584	0.3433	0.8587	-0.372
Mof_O 	O 	0.294	0.3379	0.8928	-0.469
Mof_C 	C 	0.464	0.3761	0.7693	0.058
Mof_O 	O 	0.4231	0.3755	0.8195	-0.373
Mof_C 	C 	0.199	0.2993	0.8835	-0.125
Mof_C 	C 	0.068	0.9427	0.8604	-0.006
Mof_O 	O 	0.206	0.5362	0.7224	-0.397
Mof_O 	O 	0.1835	0.546	0.7657	-0.458
Mof_C 	C 	0.4614	0.70142	0.87368	0.066
Mof_C 	C 	0.4738	0.7199	0.85467	-0.095
Mof_H 	H 	0.4393	0.7146	0.8421	0.067
Mof_C 	C 	0.538	0.7464	0.85449	-0.022
Mof_H 	H 	0.5463	0.7588	0.8418	0.043
Mof_C 	C 	0.5896	0.7543	0.8733	-0.014
Mof_C 	C 	0.5772	0.7358	0.89233	-0.02
Mof_H 	H 	0.6117	0.7412	0.9049	0.049
Mof_C 	C 	0.513	0.7094	0.89251	-0.097
Mof_H 	H 	0.5047	0.697	0.9052	0.068
Mof_Cu	Cu	0.16211	0.5093	0.74599	0.902
Mof_C 	C 	0.4683	0.5699	0.67398	0.014
Mof_C 	C 	0.5553	0.55794	0.66582	-0.039
Mof_H 	H 	0.5812	0.5384	0.6713	0.047
Mof_C 	C 	0.6036	0.5751	0.64939	-0.079
Mof_H 	H 	0.6618	0.5671	0.6439	0.064
Mof_C 	C 	0.5648	0.6043	0.64112	0.055
Mof_C 	C 	0.4778	0.61627	0.64929	-0.075
Mof_H 	H 	0.4518	0.6358	0.6438	0.071
Mof_C 	C 	0.4295	0.5991	0.66572	-0.039
Mof_H 	H 	0.3712	0.6071	0.6712	0.071
Mof_C 	C 	0.3663	0.65261	0.85539	0.066
Mof_C 	C 	0.2789	0.6365	0.85184	-0.098
Mof_H 	H 	0.226	0.641	0.8607	0.066
Mof_C 	C 	0.2707	0.6135	0.83498	-0.02
Mof_H 	H 	0.2123	0.6027	0.8326	0.037
Mof_C 	C 	0.3498	0.6067	0.82166	-0.015
Mof_C 	C 	0.4372	0.6228	0.82521	-0.021
Mof_H 	H 	0.4901	0.6183	0.8163	0.039
Mof_C 	C 	0.4454	0.6458	0.84207	-0.098
Mof_H 	H 	0.5038	0.6566	0.8444	0.067
Mof_C 	C 	0.3377	0.5539	0.6984	-0.164
Mof_H 	H 	0.2958	0.5669	0.6902	0.12
Mof_C 	C 	0.3396	0.5822	0.8036	0.047
Mof_H 	H 	0.3965	0.5719	0.7992	0.036
Mof_C 	C 	0.4272	0.5529	0.6929	0.014
Mof_H 	H 	0.4689	0.5404	0.7016	0.047
Mof_C 	C 	0.648	0.7841	0.8726	0.068
Mof_C 	C 	0.2603	0.573	0.7929	-0.228
Mof_H 	H 	0.203	0.5836	0.7966	0.126
Mof_C 	C 	0.2951	0.5337	0.7188	0.326
Mof_C 	C 	0.255	0.5469	0.7752	0.423
Mof_O 	O 	0.3668	0.5191	0.72906	-0.394
Mof_O 	O 	0.3375	0.53	0.77388	-0.401
Mof_C 	C 	0.756	0.8294	0.878	0.454
Mof_O 	O 	0.7584	0.8433	0.8587	-0.372
Mof_O 	O 	0.794	0.8379	0.8928	-0.469
Mof_C 	C 	0.964	0.8761	0.7693	0.058
Mof_O 	O 	0.9231	0.8755	0.8195	-0.373
Mof_C 	C 	0.699	0.7993	0.8835	-0.125
Mof_C 	C 	0.568	0.4427	0.8604	-0.006
Mof_O 	O 	0.206	0.0362	0.2224	-0.397
Mof_O 	O 	0.1835	0.046	0.2657	-0.458
Mof_C 	C 	0.4614	0.20142	0.37368	0.066
Mof_C 	C 	0.4738	0.2199	0.35467	-0.095
Mof_H 	H 	0.4393	0.2146	0.3421	0.067
Mof_C 	C 	0.538	0.2464	0.35449	-0.022
Mof_H 	H 	0.5463	0.2588	0.3418	0.043
Mof_C 	C 	0.5896	0.2543	0.3733	-0.014
Mof_C 	C 	0.5772	0.2358	0.39233	-0.02
Mof_H 	H 	0.6117	0.2412	0.4049	0.049
Mof_C 	C 	0.513	0.2094	0.39251	-0.097
Mof_H 	H 	0.5047	0.197	0.4052	0.068
Mof_Cu	Cu	0.16211	0.0093	0.24599	0.902
Mof_C 	C 	0.4683	0.0699	0.17398	0.014
Mof_C 	C 	0.5553	0.05794	0.16582	-0.039
Mof_H 	H 	0.5812	0.0384	0.1713	0.047
Mof_C 	C 	0.6036	0.0751	0.14939	-0.079
Mof_H 	H 	0.6618	0.0671	0.1439	0.064
Mof_C 	C 	0.5648	0.1043	0.14112	0.055
Mof_C 	C 	0.4778	0.11627	0.14929	-0.075
Mof_H 	H 	0.4518	0.1358	0.1438	0.071
Mof_C 	C 	0.4295	0.0991	0.16572	-0.039
Mof_H 	H 	0.3712	0.1071	0.1712	0.071
Mof_C 	C 	0.3663	0.15261	0.35539	0.066
Mof_C 	C 	0.2789	0.1365	0.35184	-0.098
Mof_H 	H 	0.226	0.141	0.3607	0.066
Mof_C 	C 	0.2707	0.1135	0.33498	-0.02
Mof_H 	H 	0.2123	0.1027	0.3326	0.037
Mof_C 	C 	0.3498	0.1067	0.32166	-0.015
Mof_C 	C 	0.4372	0.1228	0.32521	-0.021
Mof_H 	H 	0.4901	0.1183	0.3163	0.039
Mof_C 	C 	0.4454	0.1458	0.34207	-0.098
Mof_H 	H 	0.5038	0.1566	0.3444	0.067
Mof_C 	C 	0.3377	0.0539	0.1984	-0.164
Mof_H 	H 	0.2958	0.0669	0.1902	0.12
Mof_C 	C 	0.3396	0.0822	0.3036	0.047
Mof_H 	H 	0.3965	0.0719	0.2992	0.036
Mof_C 	C 	0.4272	0.0529	0.1929	0.014
Mof_H 	H 	0.4689	0.0404	0.2016	0.047
Mof_C 	C 	0.648	0.2841	0.3726	0.068
Mof_C 	C 	0.2603	0.073	0.2929	-0.228
Mof_H 	H 	0.203	0.0836	0.2966	0.126
Mof_C 	C 	0.2951	0.0337	0.2188	0.326
Mof_C 	C 	0.255	0.0469	0.2752	0.423
Mof_O 	O 	0.3668	0.0191	0.22906	-0.394
Mof_O 	O 	0.3375	0.03	0.27388	-0.401
Mof_C 	C 	0.756	0.3294	0.378	0.454
Mof_O 	O 	0.7584	0.3433	0.3587	-0.372
Mof_O 	O 	0.794	0.3379	0.3928	-0.469
Mof_C 	C 	0.964	0.3761	0.2693	0.058
Mof_O 	O 	0.9231	0.3755	0.3195	-0.373
Mof_C 	C 	0.699	0.2993	0.3835	-0.125
Mof_C 	C 	0.568	0.9427	0.3604	-0.006
Mof_O 	O 	0.044	0.2138	0.2224	-0.397
Mof_O 	O 	0.0665	0.204	0.2657	-0.458
Mof_C 	C 	0.7886	0.04858	0.37368	0.066
Mof_C 	C 	0.7762	0.0301	0.35467	-0.095
Mof_H 	H 	0.8107	0.0354	0.3421	0.067
Mof_C 	C 	0.712	0.0036	0.35449	-0.022
Mof_H 	H 	0.7037	0.9912	0.3418	0.043
Mof_C 	C 	0.6604	0.9957	0.3733	-0.014
Mof_C 	C 	0.6728	0.0142	0.39233	-0.02
Mof_H 	H 	0.6383	0.0088	0.4049	0.049
Mof_C 	C 	0.737	0.0406	0.39251	-0.097
Mof_H 	H 	0.7453	0.053	0.4052	0.068
Mof_Cu	Cu	0.08789	0.2407	0.24599	0.902
Mof_C 	C 	0.7817	0.1801	0.17398	0.014
Mof_C 	C 	0.6947	0.19206	0.16582	-0.039
Mof_H 	H 	0.6688	0.2116	0.1713	0.047
Mof_C 	C 	0.6464	0.1749	0.14939	-0.079
Mof_H 	H 	0.5882	0.1829	0.1439	0.064
Mof_C 	C 	0.6852	0.1457	0.14112	0.055
Mof_C 	C 	0.7722	0.13373	0.14929	-0.075
Mof_H 	H 	0.7982	0.1142	0.1438	0.071
Mof_C 	C 	0.8205	0.1509	0.16572	-0.039
Mof_H 	H 	0.8788	0.1429	0.1712	0.071
Mof_C 	C 	0.8837	0.09739	0.35539	0.066
Mof_C 	C 	0.9711	0.1135	0.35184	-0.097
Mof_H 	H 	0.024	0.109	0.3607	0.066
Mof_C 	C 	0.9793	0.1365	0.33498	-0.02
Mof_H 	H 	0.0377	0.1473	0.3326	0.037
Mof_C 	C 	0.9002	0.1433	0.32166	-0.015
Mof_C 	C 	0.8128	0.1272	0.32521	-0.021
Mof_H 	H 	0.7599	0.1317	0.3163	0.039
Mof_C 	C 	0.8046	0.1042	0.34207	-0.098
Mof_H 	H 	0.7462	0.0934	0.3444	0.067
Mof_C 	C 	0.9123	0.1961	0.1984	-0.163
Mof_H 	H 	0.9542	0.1831	0.1902	0.12
Mof_C 	C 	0.9104	0.1678	0.3036	0.047
Mof_H 	H 	0.8535	0.1781	0.2992	0.036
Mof_C 	C 	0.8228	0.1971	0.1929	0.014
Mof_H 	H 	0.7811	0.2096	0.2016	0.047
Mof_C 	C 	0.602	0.9659	0.3726	0.068
Mof_C 	C 	0.9897	0.177	0.2929	-0.228
Mof_H 	H 	0.047	0.1664	0.2966	0.126
Mof_C 	C 	0.9549	0.2163	0.2188	0.326
Mof_C 	C 	0.995	0.2031	0.2752	0.423
Mof_O 	O 	0.8832	0.2309	0.22906	-0.394
Mof_O 	O 	0.9125	0.22	0.27388	-0.401
Mof_C 	C 	0.494	0.9206	0.378	0.454
Mof_O 	O 	0.4916	0.9067	0.3587	-0.372
Mof_O 	O 	0.456	0.9121	0.3928	-0.469
Mof_C 	C 	0.286	0.8739	0.2693	0.058
Mof_O 	O 	0.3269	0.8745	0.3195	-0.373
Mof_C 	C 	0.551	0.9507	0.3835	-0.125
Mof_C 	C 	0.682	0.3073	0.3604	-0.006
Mof_O 	O 	0.044	0.7138	0.7224	-0.397
Mof_O 	O 	0.0665	0.704	0.7657	-0.458
Mof_C 	C 	0.7886	0.54858	0.87368	0.066
Mof_C 	C 	0.7762	0.5301	0.85467	-0.095
Mof_H 	H 	0.8107	0.5354	0.8421	0.067
Mof_C 	C 	0.712	0.5036	0.85449	-0.022
Mof_H 	H 	0.7037	0.4912	0.8418	0.043
Mof_C 	C 	0.6604	0.4957	0.8733	-0.014
Mof_C 	C 	0.6728	0.5142	0.89233	-0.02
Mof_H 	H 	0.6383	0.5088	0.9049	0.049
Mof_C 	C 	0.737	0.5406	0.89251	-0.097
Mof_H 	H 	0.7453	0.553	0.9052	0.068
Mof_Cu	Cu	0.08789	0.7407	0.74599	0.902
Mof_C 	C 	0.7817	0.6801	0.67398	0.014
Mof_C 	C 	0.6947	0.69206	0.66582	-0.039
Mof_H 	H 	0.6688	0.7116	0.6713	0.047
Mof_C 	C 	0.6464	0.6749	0.64939	-0.079
Mof_H 	H 	0.5882	0.6829	0.6439	0.064
Mof_C 	C 	0.6852	0.6457	0.64112	0.055
Mof_C 	C 	0.7722	0.63373	0.64929	-0.075
Mof_H 	H 	0.7982	0.6142	0.6438	0.071
Mof_C 	C 	0.8205	0.6509	0.66572	-0.039
Mof_H 	H 	0.8788	0.6429	0.6712	0.071
Mof_C 	C 	0.8837	0.59739	0.85539	0.066
Mof_C 	C 	0.9711	0.6135	0.85184	-0.097
Mof_H 	H 	0.024	0.609	0.8607	0.066
Mof_C 	C 	0.9793	0.6365	0.83498	-0.02
Mof_H 	H 	0.0377	0.6473	0.8326	0.037
Mof_C 	C 	0.9002	0.6433	0.82166	-0.015
Mof_C 	C 	0.8128	0.6272	0.82521	-0.021
Mof_H 	H 	0.7599	0.6317	0.8163	0.039
Mof_C 	C 	0.8046	0.6042	0.84207	-0.098
Mof_H 	H 	0.7462	0.5934	0.8444	0.067
Mof_C 	C 	0.9123	0.6961	0.6984	-0.163
Mof_H 	H 	0.9542	0.6831	0.6902	0.12
Mof_C 	C 	0.9104	0.6678	0.8036	0.047
Mof_H 	H 	0.8535	0.6781	0.7992	0.036
Mof_C 	C 	0.8228	0.6971	0.6929	0.014
Mof_H 	H 	0.7811	0.7096	0.7016	0.047
Mof_C 	C 	0.602	0.4659	0.8726	0.068
Mof_C 	C 	0.9897	0.677	0.7929	-0.228
Mof_H 	H 	0.047	0.6664	0.7966	0.126
Mof_C 	C 	0.9549	0.7163	0.7188	0.326
Mof_C 	C 	0.995	0.7031	0.7752	0.423
Mof_O 	O 	0.8832	0.7309	0.72906	-0.394
Mof_O 	O 	0.9125	0.72	0.77388	-0.401
Mof_C 	C 	0.494	0.4206	0.878	0.454
Mof_O 	O 	0.4916	0.4067	0.8587	-0.372
Mof_O 	O 	0.456	0.4121	0.8928	-0.469
Mof_C 	C 	0.286	0.3739	0.7693	0.058
Mof_O 	O 	0.3269	0.3745	0.8195	-0.373
Mof_C 	C 	0.551	0.4507	0.8835	-0.125
Mof_C 	C 	0.682	0.8073	0.8604	-0.006
Mof_O 	O 	0.544	0.2138	0.7224	-0.397
Mof_O 	O 	0.5665	0.204	0.7657	-0.458
Mof_C 	C 	0.2886	0.04858	0.87368	0.066
Mof_C 	C 	0.2762	0.0301	0.85467	-0.095
Mof_H 	H 	0.3107	0.0354	0.8421	0.067
Mof_C 	C 	0.212	0.0036	0.85449	-0.022
Mof_H 	H 	0.2037	0.9912	0.8418	0.043
Mof_C 	C 	0.1604	0.9957	0.8733	-0.014
Mof_C 	C 	0.1728	0.0142	0.89233	-0.02
Mof_H 	H 	0.1383	0.0088	0.9049	0.049
Mof_C 	C 	0.237	0.0406	0.89251	-0.097
Mof_H 	H 	0.2453	0.053	0.9052	0.068
Mof_Cu	Cu	0.58789	0.2407	0.74599	0.902
Mof_C 	C 	0.2817	0.1801	0.67398	0.014
Mof_C 	C 	0.1947	0.19206	0.66582	-0.039
Mof_H 	H 	0.1688	0.2116	0.6713	0.047
Mof_C 	C 	0.1464	0.1749	0.64939	-0.079
Mof_H 	H 	0.0882	0.1829	0.6439	0.064
Mof_C 	C 	0.1852	0.1457	0.64112	0.055
Mof_C 	C 	0.2722	0.13373	0.64929	-0.075
Mof_H 	H 	0.2982	0.1142	0.6438	0.071
Mof_C 	C 	0.3205	0.1509	0.66572	-0.039
Mof_H 	H 	0.3788	0.1429	0.6712	0.071
Mof_C 	C 	0.3837	0.09739	0.85539	0.066
Mof_C 	C 	0.4711	0.1135	0.85184	-0.098
Mof_H 	H 	0.524	0.109	0.8607	0.066
Mof_C 	C 	0.4793	0.1365	0.83498	-0.02
Mof_H 	H 	0.5377	0.1473	0.8326	0.038
Mof_C 	C 	0.4002	0.1433	0.82166	-0.015
Mof_C 	C 	0.3128	0.1272	0.82521	-0.021
Mof_H 	H 	0.2599	0.1317	0.8163	0.039
Mof_C 	C 	0.3046	0.1042	0.84207	-0.098
Mof_H 	H 	0.2462	0.0934	0.8444	0.067
Mof_C 	C 	0.4123	0.1961	0.6984	-0.164
Mof_H 	H 	0.4542	0.1831	0.6902	0.12
Mof_C 	C 	0.4104	0.1678	0.8036	0.047
Mof_H 	H 	0.3535	0.1781	0.7992	0.036
Mof_C 	C 	0.3228	0.1971	0.6929	0.014
Mof_H 	H 	0.2811	0.2096	0.7016	0.047
Mof_C 	C 	0.102	0.9659	0.8726	0.068
Mof_C 	C 	0.4897	0.177	0.7929	-0.228
Mof_H 	H 	0.547	0.1664	0.7966	0.126
Mof_C 	C 	0.4549	0.2163	0.7188	0.326
Mof_C 	C 	0.495	0.2031	0.7752	0.423
Mof_O 	O 	0.3832	0.2309	0.72906	-0.394
Mof_O 	O 	0.4125	0.22	0.77388	-0.401
Mof_C 	C 	0.994	0.9206	0.878	0.455
Mof_O 	O 	0.9916	0.9067	0.8587	-0.372
Mof_O 	O 	0.956	0.9121	0.8928	-0.469
Mof_C 	C 	0.786	0.8739	0.7693	0.058
Mof_O 	O 	0.8269	0.8745	0.8195	-0.373
Mof_C 	C 	0.051	0.9507	0.8835	-0.126
Mof_C 	C 	0.182	0.3073	0.8604	-0.006
Mof_O 	O 	0.544	0.7138	0.2224	-0.397
Mof_O 	O 	0.5665	0.704	0.2657	-0.458
Mof_C 	C 	0.2886	0.54858	0.37368	0.066
Mof_C 	C 	0.2762	0.5301	0.35467	-0.095
Mof_H 	H 	0.3107	0.5354	0.3421	0.067
Mof_C 	C 	0.212	0.5036	0.35449	-0.022
Mof_H 	H 	0.2037	0.4912	0.3418	0.042
Mof_C 	C 	0.1604	0.4957	0.3733	-0.014
Mof_C 	C 	0.1728	0.5142	0.39233	-0.019
Mof_H 	H 	0.1383	0.5088	0.4049	0.049
Mof_C 	C 	0.237	0.5406	0.39251	-0.098
Mof_H 	H 	0.2453	0.553	0.4052	0.068
Mof_Cu	Cu	0.58789	0.7407	0.24599	0.902
Mof_C 	C 	0.2817	0.6801	0.17398	0.014
Mof_C 	C 	0.1947	0.69206	0.16582	-0.039
Mof_H 	H 	0.1688	0.7116	0.1713	0.047
Mof_C 	C 	0.1464	0.6749	0.14939	-0.079
Mof_H 	H 	0.0882	0.6829	0.1439	0.064
Mof_C 	C 	0.1852	0.6457	0.14112	0.055
Mof_C 	C 	0.2722	0.63373	0.14929	-0.075
Mof_H 	H 	0.2982	0.6142	0.1438	0.071
Mof_C 	C 	0.3205	0.6509	0.16572	-0.039
Mof_H 	H 	0.3788	0.6429	0.1712	0.071
Mof_C 	C 	0.3837	0.59739	0.35539	0.066
Mof_C 	C 	0.4711	0.6135	0.35184	-0.098
Mof_H 	H 	0.524	0.609	0.3607	0.066
Mof_C 	C 	0.4793	0.6365	0.33498	-0.02
Mof_H 	H 	0.5377	0.6473	0.3326	0.038
Mof_C 	C 	0.4002	0.6433	0.32166	-0.015
Mof_C 	C 	0.3128	0.6272	0.32521	-0.021
Mof_H 	H 	0.2599	0.6317	0.3163	0.039
Mof_C 	C 	0.3046	0.6042	0.34207	-0.098
Mof_H 	H 	0.2462	0.5934	0.3444	0.067
Mof_C 	C 	0.4123	0.6961	0.1984	-0.164
Mof_H 	H 	0.4542	0.6831	0.1902	0.12
Mof_C 	C 	0.4104	0.6678	0.3036	0.047
Mof_H 	H 	0.3535	0.6781	0.2992	0.036
Mof_C 	C 	0.3228	0.6971	0.1929	0.014
Mof_H 	H 	0.2811	0.7096	0.2016	0.047
Mof_C 	C 	0.102	0.4659	0.3726	0.068
Mof_C 	C 	0.4897	0.677	0.2929	-0.228
Mof_H 	H 	0.547	0.6664	0.2966	0.126
Mof_C 	C 	0.4549	0.7163	0.2188	0.326
Mof_C 	C 	0.495	0.7031	0.2752	0.423
Mof_O 	O 	0.3832	0.7309	0.22906	-0.394
Mof_O 	O 	0.4125	0.72	0.27388	-0.401
Mof_C 	C 	0.994	0.4206	0.378	0.455
Mof_O 	O 	0.9916	0.4067	0.3587	-0.372
Mof_O 	O 	0.956	0.4121	0.3928	-0.469
Mof_C 	C 	0.786	0.3739	0.2693	0.058
Mof_O 	O 	0.8269	0.3745	0.3195	-0.373
Mof_C 	C 	0.051	0.4507	0.3835	-0.126
Mof_C 	C 	0.182	0.8073	0.3604	-0.006
Mof_O 	O 	0.956	0.4638	0.4724	-0.397
Mof_O 	O 	0.9335	0.454	0.5157	-0.458
Mof_C 	C 	0.2114	0.29858	0.62368	0.066
Mof_C 	C 	0.2238	0.2801	0.60467	-0.095
Mof_H 	H 	0.1893	0.2854	0.5921	0.067
Mof_C 	C 	0.288	0.2536	0.60449	-0.022
Mof_H 	H 	0.2963	0.2412	0.5918	0.043
Mof_C 	C 	0.3396	0.2457	0.6233	-0.014
Mof_C 	C 	0.3272	0.2642	0.64233	-0.02
Mof_H 	H 	0.3617	0.2588	0.6549	0.049
Mof_C 	C 	0.263	0.2906	0.64251	-0.097
Mof_H 	H 	0.2547	0.303	0.6552	0.068
Mof_Cu	Cu	0.91211	0.4907	0.49599	0.902
Mof_C 	C 	0.2183	0.4301	0.42398	0.014
Mof_C 	C 	0.3053	0.44206	0.41582	-0.039
Mof_H 	H 	0.3312	0.4616	0.4213	0.047
Mof_C 	C 	0.3536	0.4249	0.39939	-0.079
Mof_H 	H 	0.4118	0.4329	0.3939	0.064
Mof_C 	C 	0.3148	0.3957	0.39112	0.055
Mof_C 	C 	0.2278	0.38373	0.39929	-0.075
Mof_H 	H 	0.2018	0.3642	0.3938	0.071
Mof_C 	C 	0.1795	0.4009	0.41572	-0.039
Mof_H 	H 	0.1212	0.3929	0.4212	0.071
Mof_C 	C 	0.1163	0.34739	0.60539	0.066
Mof_C 	C 	0.0289	0.3635	0.60184	-0.097
Mof_H 	H 	0.976	0.359	0.6107	0.066
Mof_C 	C 	0.0207	0.3865	0.58498	-0.02
Mof_H 	H 	0.9623	0.3973	0.5826	0.037
Mof_C 	C 	0.0998	0.3933	0.57166	-0.015
Mof_C 	C 	0.1872	0.3772	0.57521	-0.021
Mof_H 	H 	0.2401	0.3817	0.5663	0.039
Mof_C 	C 	0.1954	0.3542	0.59207	-0.098
Mof_H 	H 	0.2538	0.3434	0.5944	0.067
Mof_C 	C 	0.0877	0.4461	0.4484	-0.163
Mof_H 	H 	0.0458	0.4331	0.4402	0.12
Mof_C 	C 	0.0896	0.4178	0.5536	0.047
Mof_H 	H 	0.1465	0.4281	0.5492	0.036
Mof_C 	C 	0.1772	0.4471	0.4429	0.014
Mof_H 	H 	0.2189	0.4596	0.4516	0.047
Mof_C 	C 	0.398	0.2159	0.6226	0.068
Mof_C 	C 	0.0103	0.427	0.5429	-0.228
Mof_H 	H 	0.953	0.4164	0.5466	0.126
Mof_C 	C 	0.0451	0.4663	0.4688	0.326
Mof_C 	C 	0.005	0.4531	0.5252	0.423
Mof_O 	O 	0.1168	0.4809	0.47906	-0.394
Mof_O 	O 	0.0875	0.47	0.52388	-0.401
Mof_C 	C 	0.506	0.1706	0.628	0.454
Mof_O 	O 	0.5084	0.1567	0.6087	-0.372
Mof_O 	O 	0.544	0.1621	0.6428	-0.469
Mof_C 	C 	0.714	0.1239	0.5193	0.058
Mof_O 	O 	0.6731	0.1245	0.5695	-0.373
Mof_C 	C 	0.449	0.2007	0.6335	-0.125
Mof_C 	C 	0.318	0.5573	0.6104	-0.006
Mof_O 	O 	0.956	0.9638	0.9724	-0.397
Mof_O 	O 	0.9335	0.954	0.0157	-0.458
Mof_C 	C 	0.2114	0.79858	0.12368	0.066
Mof_C 	C 	0.2238	0.7801	0.10467	-0.095
Mof_H 	H 	0.1893	0.7854	0.0921	0.067
Mof_C 	C 	0.288	0.7536	0.10449	-0.022
Mof_H 	H 	0.2963	0.7412	0.0918	0.043
Mof_C 	C 	0.3396	0.7457	0.1233	-0.014
Mof_C 	C 	0.3272	0.7642	0.14233	-0.02
Mof_H 	H 	0.3617	0.7588	0.1549	0.049
Mof_C 	C 	0.263	0.7906	0.14251	-0.097
Mof_H 	H 	0.2547	0.803	0.1552	0.068
Mof_Cu	Cu	0.91211	0.9907	0.99599	0.902
Mof_C 	C 	0.2183	0.9301	0.92398	0.014
Mof_C 	C 	0.3053	0.94206	0.91582	-0.039
Mof_H 	H 	0.3312	0.9616	0.9213	0.047
Mof_C 	C 	0.3536	0.9249	0.89939	-0.079
Mof_H 	H 	0.4118	0.9329	0.8939	0.064
Mof_C 	C 	0.3148	0.8957	0.89112	0.055
Mof_C 	C 	0.2278	0.88373	0.89929	-0.075
Mof_H 	H 	0.2018	0.8642	0.8938	0.071
Mof_C 	C 	0.1795	0.9009	0.91572	-0.039
Mof_H 	H 	0.1212	0.8929	0.9212	0.071
Mof_C 	C 	0.1163	0.84739	0.10539	0.066
Mof_C 	C 	0.0289	0.8635	0.10184	-0.097
Mof_H 	H 	0.976	0.859	0.1107	0.066
Mof_C 	C 	0.0207	0.8865	0.08498	-0.02
Mof_H 	H 	0.9623	0.8973	0.0826	0.037
Mof_C 	C 	0.0998	0.8933	0.07166	-0.015
Mof_C 	C 	0.1872	0.8772	0.07521	-0.021
Mof_H 	H 	0.2401	0.8817	0.0663	0.039
Mof_C 	C 	0.1954	0.8542	0.09207	-0.098
Mof_H 	H 	0.2538	0.8434	0.0944	0.067
Mof_C 	C 	0.0877	0.9461	0.9484	-0.163
Mof_H 	H 	0.0458	0.9331	0.9402	0.12
Mof_C 	C 	0.0896	0.9178	0.0536	0.047
Mof_H 	H 	0.1465	0.9281	0.0492	0.036
Mof_C 	C 	0.1772	0.9471	0.9429	0.014
Mof_H 	H 	0.2189	0.9596	0.9516	0.047
Mof_C 	C 	0.398	0.7159	0.1226	0.068
Mof_C 	C 	0.0103	0.927	0.0429	-0.228
Mof_H 	H 	0.953	0.9164	0.0466	0.126
Mof_C 	C 	0.0451	0.9663	0.9688	0.326
Mof_C 	C 	0.005	0.9531	0.0252	0.423
Mof_O 	O 	0.1168	0.9809	0.97906	-0.394
Mof_O 	O 	0.0875	0.97	0.02388	-0.401
Mof_C 	C 	0.506	0.6706	0.128	0.454
Mof_O 	O 	0.5084	0.6567	0.1087	-0.372
Mof_O 	O 	0.544	0.6621	0.1428	-0.469
Mof_C 	C 	0.714	0.6239	0.0193	0.058
Mof_O 	O 	0.6731	0.6245	0.0695	-0.373
Mof_C 	C 	0.449	0.7007	0.1335	-0.125
Mof_C 	C 	0.318	0.0573	0.1104	-0.006
Mof_O 	O 	0.456	0.4638	0.9724	-0.397
Mof_O 	O 	0.4335	0.454	0.0157	-0.458
Mof_C 	C 	0.7114	0.29858	0.12368	0.066
Mof_C 	C 	0.7238	0.2801	0.10467	-0.095
Mof_H 	H 	0.6893	0.2854	0.0921	0.067
Mof_C 	C 	0.788	0.2536	0.10449	-0.022
Mof_H 	H 	0.7963	0.2412	0.0918	0.042
Mof_C 	C 	0.8396	0.2457	0.1233	-0.014
Mof_C 	C 	0.8272	0.2642	0.14233	-0.019
Mof_H 	H 	0.8617	0.2588	0.1549	0.049
Mof_C 	C 	0.763	0.2906	0.14251	-0.098
Mof_H 	H 	0.7547	0.303	0.1552	0.068
Mof_Cu	Cu	0.41211	0.4907	0.99599	0.902
Mof_C 	C 	0.7183	0.4301	0.92398	0.014
Mof_C 	C 	0.8053	0.44206	0.91582	-0.039
Mof_H 	H 	0.8312	0.4616	0.9213	0.047
Mof_C 	C 	0.8536	0.4249	0.89939	-0.079
Mof_H 	H 	0.9118	0.4329	0.8939	0.064
Mof_C 	C 	0.8148	0.3957	0.89112	0.055
Mof_C 	C 	0.7278	0.38373	0.89929	-0.075
Mof_H 	H 	0.7018	0.3642	0.8938	0.071
Mof_C 	C 	0.6795	0.4009	0.91572	-0.039
Mof_H 	H 	0.6212	0.3929	0.9212	0.071
Mof_C 	C 	0.6163	0.34739	0.10539	0.066
Mof_C 	C 	0.5289	0.3635	0.10184	-0.098
Mof_H 	H 	0.476	0.359	0.1107	0.066
Mof_C 	C 	0.5207	0.3865	0.08498	-0.02
Mof_H 	H 	0.4623	0.3973	0.0826	0.038
Mof_C 	C 	0.5998	0.3933	0.07166	-0.015
Mof_C 	C 	0.6872	0.3772	0.07521	-0.021
Mof_H 	H 	0.7401	0.3817	0.0663	0.039
Mof_C 	C 	0.6954	0.3542	0.09207	-0.098
Mof_H 	H 	0.7538	0.3434	0.0944	0.067
Mof_C 	C 	0.5877	0.4461	0.9484	-0.164
Mof_H 	H 	0.5458	0.4331	0.9402	0.12
Mof_C 	C 	0.5896	0.4178	0.0536	0.047
Mof_H 	H 	0.6465	0.4281	0.0492	0.036
Mof_C 	C 	0.6772	0.4471	0.9429	0.014
Mof_H 	H 	0.7189	0.4596	0.9516	0.047
Mof_C 	C 	0.898	0.2159	0.1226	0.068
Mof_C 	C 	0.5103	0.427	0.0429	-0.228
Mof_H 	H 	0.453	0.4164	0.0466	0.126
Mof_C 	C 	0.5451	0.4663	0.9688	0.326
Mof_C 	C 	0.505	0.4531	0.0252	0.423
Mof_O 	O 	0.6168	0.4809	0.97906	-0.394
Mof_O 	O 	0.5875	0.47	0.02388	-0.401
Mof_C 	C 	0.006	0.1706	0.128	0.455
Mof_O 	O 	0.0084	0.1567	0.1087	-0.372
Mof_O 	O 	0.044	0.1621	0.1428	-0.469
Mof_C 	C 	0.214	0.1239	0.0193	0.058
Mof_O 	O 	0.1731	0.1245	0.0695	-0.373
Mof_C 	C 	0.949	0.2007	0.1335	-0.126
Mof_C 	C 	0.818	0.5573	0.1104	-0.006
Mof_O 	O 	0.456	0.9638	0.4724	-0.397
Mof_O 	O 	0.4335	0.954	0.5157	-0.458
Mof_C 	C 	0.7114	0.79858	0.62368	0.066
Mof_C 	C 	0.7238	0.7801	0.60467	-0.095
Mof_H 	H 	0.6893	0.7854	0.5921	0.067
Mof_C 	C 	0.788	0.7536	0.60449	-0.022
Mof_H 	H 	0.7963	0.7412	0.5918	0.042
Mof_C 	C 	0.8396	0.7457	0.6233	-0.014
Mof_C 	C 	0.8272	0.7642	0.64233	-0.019
Mof_H 	H 	0.8617	0.7588	0.6549	0.049
Mof_C 	C 	0.763	0.7906	0.64251	-0.098
Mof_H 	H 	0.7547	0.803	0.6552	0.068
Mof_Cu	Cu	0.41211	0.9907	0.49599	0.902
Mof_C 	C 	0.7183	0.9301	0.42398	0.014
Mof_C 	C 	0.8053	0.94206	0.41582	-0.039
Mof_H 	H 	0.8312	0.9616	0.4213	0.047
Mof_C 	C 	0.8536	0.9249	0.39939	-0.079
Mof_H 	H 	0.9118	0.9329	0.3939	0.064
Mof_C 	C 	0.8148	0.8957	0.39112	0.055
Mof_C 	C 	0.7278	0.88373	0.39929	-0.075
Mof_H 	H 	0.7018	0.8642	0.3938	0.071
Mof_C 	C 	0.6795	0.9009	0.41572	-0.039
Mof_H 	H 	0.6212	0.8929	0.4212	0.071
Mof_C 	C 	0.6163	0.84739	0.60539	0.066
Mof_C 	C 	0.5289	0.8635	0.60184	-0.098
Mof_H 	H 	0.476	0.859	0.6107	0.066
Mof_C 	C 	0.5207	0.8865	0.58498	-0.02
Mof_H 	H 	0.4623	0.8973	0.5826	0.038
Mof_C 	C 	0.5998	0.8933	0.57166	-0.015
Mof_C 	C 	0.6872	0.8772	0.57521	-0.021
Mof_H 	H 	0.7401	0.8817	0.5663	0.039
Mof_C 	C 	0.6954	0.8542	0.59207	-0.098
Mof_H 	H 	0.7538	0.8434	0.5944	0.067
Mof_C 	C 	0.5877	0.9461	0.4484	-0.164
Mof_H 	H 	0.5458	0.9331	0.4402	0.12
Mof_C 	C 	0.5896	0.9178	0.5536	0.047
Mof_H 	H 	0.6465	0.9281	0.5492	0.036
Mof_C 	C 	0.6772	0.9471	0.4429	0.014
Mof_H 	H 	0.7189	0.9596	0.4516	0.047
Mof_C 	C 	0.898	0.7159	0.6226	0.068
Mof_C 	C 	0.5103	0.927	0.5429	-0.228
Mof_H 	H 	0.453	0.9164	0.5466	0.126
Mof_C 	C 	0.5451	0.9663	0.4688	0.326
Mof_C 	C 	0.505	0.9531	0.5252	0.423
Mof_O 	O 	0.6168	0.9809	0.47906	-0.394
Mof_O 	O 	0.5875	0.97	0.52388	-0.401
Mof_C 	C 	0.006	0.6706	0.628	0.455
Mof_O 	O 	0.0084	0.6567	0.6087	-0.372
Mof_O 	O 	0.044	0.6621	0.6428	-0.469
Mof_C 	C 	0.214	0.6239	0.5193	0.058
Mof_O 	O 	0.1731	0.6245	0.5695	-0.373
Mof_C 	C 	0.949	0.7007	0.6335	-0.126
Mof_C 	C 	0.818	0.0573	0.6104	-0.006
Mof_O 	O 	0.294	0.7862	0.4724	-0.397
Mof_O 	O 	0.3165	0.796	0.5157	-0.458
Mof_C 	C 	0.0386	0.95142	0.62368	0.066
Mof_C 	C 	0.0262	0.9699	0.60467	-0.095
Mof_H 	H 	0.0607	0.9646	0.5921	0.067
Mof_C 	C 	0.962	0.9964	0.60449	-0.023
Mof_H 	H 	0.9537	0.0088	0.5918	0.043
Mof_C 	C 	0.9104	0.0043	0.6233	-0.013
Mof_C 	C 	0.9228	0.9858	0.64233	-0.02
Mof_H 	H 	0.8883	0.9912	0.6549	0.049
Mof_C 	C 	0.987	0.9594	0.64251	-0.097
Mof_H 	H 	0.9953	0.947	0.6552	0.068
Mof_Cu	Cu	0.33789	0.7593	0.49599	0.902
Mof_C 	C 	0.0317	0.8199	0.42398	0.014
Mof_C 	C 	0.9447	0.80794	0.41582	-0.039
Mof_H 	H 	0.9188	0.7884	0.4213	0.047
Mof_C 	C 	0.8964	0.8251	0.39939	-0.079
Mof_H 	H 	0.8382	0.8171	0.3939	0.064
Mof_C 	C 	0.9352	0.8543	0.39112	0.055
Mof_C 	C 	0.0222	0.86627	0.39929	-0.075
Mof_H 	H 	0.0482	0.8858	0.3938	0.071
Mof_C 	C 	0.0705	0.8491	0.41572	-0.039
Mof_H 	H 	0.1288	0.8571	0.4212	0.071
Mof_C 	C 	0.1337	0.90261	0.60539	0.066
Mof_C 	C 	0.2211	0.8865	0.60184	-0.097
Mof_H 	H 	0.274	0.891	0.6107	0.066
Mof_C 	C 	0.2293	0.8635	0.58498	-0.02
Mof_H 	H 	0.2877	0.8527	0.5826	0.038
Mof_C 	C 	0.1502	0.8567	0.57166	-0.014
Mof_C 	C 	0.0628	0.8728	0.57521	-0.021
Mof_H 	H 	0.0099	0.8683	0.5663	0.04
Mof_C 	C 	0.0546	0.8958	0.59207	-0.097
Mof_H 	H 	0.9962	0.9066	0.5944	0.066
Mof_C 	C 	0.1623	0.8039	0.4484	-0.163
Mof_H 	H 	0.2042	0.8169	0.4402	0.12
Mof_C 	C 	0.1604	0.8322	0.5536	0.047
Mof_H 	H 	0.1035	0.8219	0.5492	0.036
Mof_C 	C 	0.0728	0.8029	0.4429	0.014
Mof_H 	H 	0.0311	0.7904	0.4516	0.047
Mof_C 	C 	0.852	0.0341	0.6226	0.067
Mof_C 	C 	0.2397	0.823	0.5429	-0.228
Mof_H 	H 	0.297	0.8336	0.5466	0.126
Mof_C 	C 	0.2049	0.7837	0.4688	0.326
Mof_C 	C 	0.245	0.7969	0.5252	0.423
Mof_O 	O 	0.1332	0.7691	0.47906	-0.394
Mof_O 	O 	0.1625	0.78	0.52388	-0.401
Mof_C 	C 	0.744	0.0794	0.628	0.454
Mof_O 	O 	0.7416	0.0933	0.6087	-0.372
Mof_O 	O 	0.706	0.0879	0.6428	-0.469
Mof_C 	C 	0.536	0.1261	0.5193	0.058
Mof_O 	O 	0.5769	0.1255	0.5695	-0.373
Mof_C 	C 	0.801	0.0493	0.6335	-0.125
Mof_C 	C 	0.932	0.6927	0.6104	-0.006
Mof_O 	O 	0.294	0.2862	0.9724	-0.397
Mof_O 	O 	0.3165	0.296	0.0157	-0.458
Mof_C 	C 	0.0386	0.45142	0.12368	0.066
Mof_C 	C 	0.0262	0.4699	0.10467	-0.095
Mof_H 	H 	0.0607	0.4646	0.0921	0.067
Mof_C 	C 	0.962	0.4964	0.10449	-0.022
Mof_H 	H 	0.9537	0.5088	0.0918	0.043
Mof_C 	C 	0.9104	0.5043	0.1233	-0.014
Mof_C 	C 	0.9228	0.4858	0.14233	-0.02
Mof_H 	H 	0.8883	0.4912	0.1549	0.049
Mof_C 	C 	0.987	0.4594	0.14251	-0.097
Mof_H 	H 	0.9953	0.447	0.1552	0.068
Mof_Cu	Cu	0.33789	0.2593	0.99599	0.902
Mof_C 	C 	0.0317	0.3199	0.92398	0.014
Mof_C 	C 	0.9447	0.30794	0.91582	-0.039
Mof_H 	H 	0.9188	0.2884	0.9213	0.047
Mof_C 	C 	0.8964	0.3251	0.89939	-0.079
Mof_H 	H 	0.8382	0.3171	0.8939	0.064
Mof_C 	C 	0.9352	0.3543	0.89112	0.055
Mof_C 	C 	0.0222	0.36627	0.89929	-0.075
Mof_H 	H 	0.0482	0.3858	0.8938	0.071
Mof_C 	C 	0.0705	0.3491	0.91572	-0.039
Mof_H 	H 	0.1288	0.3571	0.9212	0.071
Mof_C 	C 	0.1337	0.40261	0.10539	0.066
Mof_C 	C 	0.2211	0.3865	0.10184	-0.097
Mof_H 	H 	0.274	0.391	0.1107	0.066
Mof_C 	C 	0.2293	0.3635	0.08498	-0.02
Mof_H 	H 	0.2877	0.3527	0.0826	0.038
Mof_C 	C 	0.1502	0.3567	0.07166	-0.014
Mof_C 	C 	0.0628	0.3728	0.07521	-0.021
Mof_H 	H 	0.0099	0.3683	0.0663	0.04
Mof_C 	C 	0.0546	0.3958	0.09207	-0.097
Mof_H 	H 	0.9962	0.4066	0.0944	0.066
Mof_C 	C 	0.1623	0.3039	0.9484	-0.163
Mof_H 	H 	0.2042	0.3169	0.9402	0.12
Mof_C 	C 	0.1604	0.3322	0.0536	0.047
Mof_H 	H 	0.1035	0.3219	0.0492	0.036
Mof_C 	C 	0.0728	0.3029	0.9429	0.014
Mof_H 	H 	0.0311	0.2904	0.9516	0.047
Mof_C 	C 	0.852	0.5341	0.1226	0.067
Mof_C 	C 	0.2397	0.323	0.0429	-0.228
Mof_H 	H 	0.297	0.3336	0.0466	0.126
Mof_C 	C 	0.2049	0.2837	0.9688	0.326
Mof_C 	C 	0.245	0.2969	0.0252	0.423
Mof_O 	O 	0.1332	0.2691	0.97906	-0.394
Mof_O 	O 	0.1625	0.28	0.02388	-0.401
Mof_C 	C 	0.744	0.5794	0.128	0.454
Mof_O 	O 	0.7416	0.5933	0.1087	-0.372
Mof_O 	O 	0.706	0.5879	0.1428	-0.469
Mof_C 	C 	0.536	0.6261	0.0193	0.058
Mof_O 	O 	0.5769	0.6255	0.0695	-0.373
Mof_C 	C 	0.801	0.5493	0.1335	-0.125
Mof_C 	C 	0.932	0.1927	0.1104	-0.006
Mof_O 	O 	0.794	0.7862	0.9724	-0.397
Mof_O 	O 	0.8165	0.796	0.0157	-0.458
Mof_C 	C 	0.5386	0.95142	0.12368	0.066
Mof_C 	C 	0.5262	0.9699	0.10467	-0.095
Mof_H 	H 	0.5607	0.9646	0.0921	0.067
Mof_C 	C 	0.462	0.9964	0.10449	-0.022
Mof_H 	H 	0.4537	0.0088	0.0918	0.043
Mof_C 	C 	0.4104	0.0043	0.1233	-0.014
Mof_C 	C 	0.4228	0.9858	0.14233	-0.02
Mof_H 	H 	0.3883	0.9912	0.1549	0.049
Mof_C 	C 	0.487	0.9594	0.14251	-0.097
Mof_H 	H 	0.4953	0.947	0.1552	0.068
Mof_Cu	Cu	0.83789	0.7593	0.99599	0.902
Mof_C 	C 	0.5317	0.8199	0.92398	0.014
Mof_C 	C 	0.4447	0.80794	0.91582	-0.039
Mof_H 	H 	0.4188	0.7884	0.9213	0.047
Mof_C 	C 	0.3964	0.8251	0.89939	-0.079
Mof_H 	H 	0.3382	0.8171	0.8939	0.064
Mof_C 	C 	0.4352	0.8543	0.89112	0.055
Mof_C 	C 	0.5222	0.86627	0.89929	-0.075
Mof_H 	H 	0.5482	0.8858	0.8938	0.071
Mof_C 	C 	0.5705	0.8491	0.91572	-0.039
Mof_H 	H 	0.6288	0.8571	0.9212	0.071
Mof_C 	C 	0.6337	0.90261	0.10539	0.066
Mof_C 	C 	0.7211	0.8865	0.10184	-0.098
Mof_H 	H 	0.774	0.891	0.1107	0.066
Mof_C 	C 	0.7293	0.8635	0.08498	-0.02
Mof_H 	H 	0.7877	0.8527	0.0826	0.037
Mof_C 	C 	0.6502	0.8567	0.07166	-0.015
Mof_C 	C 	0.5628	0.8728	0.07521	-0.021
Mof_H 	H 	0.5099	0.8683	0.0663	0.039
Mof_C 	C 	0.5546	0.8958	0.09207	-0.098
Mof_H 	H 	0.4962	0.9066	0.0944	0.067
Mof_C 	C 	0.6623	0.8039	0.9484	-0.164
Mof_H 	H 	0.7042	0.8169	0.9402	0.12
Mof_C 	C 	0.6604	0.8322	0.0536	0.047
Mof_H 	H 	0.6035	0.8219	0.0492	0.036
Mof_C 	C 	0.5728	0.8029	0.9429	0.014
Mof_H 	H 	0.5311	0.7904	0.9516	0.047
Mof_C 	C 	0.352	0.0341	0.1226	0.068
Mof_C 	C 	0.7397	0.823	0.0429	-0.228
Mof_H 	H 	0.797	0.8336	0.0466	0.126
Mof_C 	C 	0.7049	0.7837	0.9688	0.326
Mof_C 	C 	0.745	0.7969	0.0252	0.423
Mof_O 	O 	0.6332	0.7691	0.97906	-0.394
Mof_O 	O 	0.6625	0.78	0.02388	-0.401
Mof_C 	C 	0.244	0.0794	0.128	0.454
Mof_O 	O 	0.2416	0.0933	0.1087	-0.372
Mof_O 	O 	0.206	0.0879	0.1428	-0.469
Mof_C 	C 	0.036	0.1261	0.0193	0.058
Mof_O 	O 	0.0769	0.1255	0.0695	-0.373
Mof_C 	C 	0.301	0.0493	0.1335	-0.125
Mof_C 	C 	0.432	0.6927	0.1104	-0.006
Mof_O 	O 	0.794	0.2862	0.4724	-0.397
Mof_O 	O 	0.8165	0.296	0.5157	-0.458
Mof_C 	C 	0.5386	0.45142	0.62368	0.066
Mof_C 	C 	0.5262	0.4699	0.60467	-0.095
Mof_H 	H 	0.5607	0.4646	0.5921	0.067
Mof_C 	C 	0.462	0.4964	0.60449	-0.022
Mof_H 	H 	0.4537	0.5088	0.5918	0.043
Mof_C 	C 	0.4104	0.5043	0.6233	-0.014
Mof_C 	C 	0.4228	0.4858	0.64233	-0.02
Mof_H 	H 	0.3883	0.4912	0.6549	0.049
Mof_C 	C 	0.487	0.4594	0.64251	-0.097
Mof_H 	H 	0.4953	0.447	0.6552	0.068
Mof_Cu	Cu	0.83789	0.2593	0.49599	0.902
Mof_C 	C 	0.5317	0.3199	0.42398	0.014
Mof_C 	C 	0.4447	0.30794	0.41582	-0.039
Mof_H 	H 	0.4188	0.2884	0.4213	0.047
Mof_C 	C 	0.3964	0.3251	0.39939	-0.079
Mof_H 	H 	0.3382	0.3171	0.3939	0.064
Mof_C 	C 	0.4352	0.3543	0.39112	0.055
Mof_C 	C 	0.5222	0.36627	0.39929	-0.075
Mof_H 	H 	0.5482	0.3858	0.3938	0.071
Mof_C 	C 	0.5705	0.3491	0.41572	-0.039
Mof_H 	H 	0.6288	0.3571	0.4212	0.071
Mof_C 	C 	0.6337	0.40261	0.60539	0.066
Mof_C 	C 	0.7211	0.3865	0.60184	-0.098
Mof_H 	H 	0.774	0.391	0.6107	0.066
Mof_C 	C 	0.7293	0.3635	0.58498	-0.02
Mof_H 	H 	0.7877	0.3527	0.5826	0.037
Mof_C 	C 	0.6502	0.3567	0.57166	-0.015
Mof_C 	C 	0.5628	0.3728	0.57521	-0.021
Mof_H 	H 	0.5099	0.3683	0.5663	0.039
Mof_C 	C 	0.5546	0.3958	0.59207	-0.098
Mof_H 	H 	0.4962	0.4066	0.5944	0.067
Mof_C 	C 	0.6623	0.3039	0.4484	-0.164
Mof_H 	H 	0.7042	0.3169	0.4402	0.12
Mof_C 	C 	0.6604	0.3322	0.5536	0.047
Mof_H 	H 	0.6035	0.3219	0.5492	0.036
Mof_C 	C 	0.5728	0.3029	0.4429	0.014
Mof_H 	H 	0.5311	0.2904	0.4516	0.047
Mof_C 	C 	0.352	0.5341	0.6226	0.068
Mof_C 	C 	0.7397	0.323	0.5429	-0.228
Mof_H 	H 	0.797	0.3336	0.5466	0.126
Mof_C 	C 	0.7049	0.2837	0.4688	0.326
Mof_C 	C 	0.745	0.2969	0.5252	0.423
Mof_O 	O 	0.6332	0.2691	0.47906	-0.394
Mof_O 	O 	0.6625	0.28	0.52388	-0.401
Mof_C 	C 	0.244	0.5794	0.628	0.454
Mof_O 	O 	0.2416	0.5933	0.6087	-0.372
Mof_O 	O 	0.206	0.5879	0.6428	-0.469
Mof_C 	C 	0.036	0.6261	0.5193	0.058
Mof_O 	O 	0.0769	0.6255	0.5695	-0.373
Mof_C 	C 	0.301	0.5493	0.6335	-0.125
Mof_C 	C 	0.432	0.1927	0.6104	-0.006
Mof_O 	O 	0.294	0.4638	0.7776	-0.397
Mof_O 	O 	0.3165	0.454	0.7343	-0.458
Mof_C 	C 	0.0386	0.29858	0.62632	0.066
Mof_C 	C 	0.0262	0.2801	0.64533	-0.095
Mof_H 	H 	0.0607	0.2854	0.6579	0.067
Mof_C 	C 	0.962	0.2536	0.64551	-0.022
Mof_H 	H 	0.9537	0.2412	0.6582	0.043
Mof_C 	C 	0.9104	0.2457	0.6267	-0.014
Mof_C 	C 	0.9228	0.2642	0.60767	-0.02
Mof_H 	H 	0.8883	0.2588	0.5951	0.049
Mof_C 	C 	0.987	0.2906	0.60749	-0.097
Mof_H 	H 	0.9953	0.303	0.5948	0.068
Mof_Cu	Cu	0.33789	0.4907	0.75401	0.902
Mof_C 	C 	0.0317	0.4301	0.82602	0.014
Mof_C 	C 	0.9447	0.44206	0.83418	-0.039
Mof_H 	H 	0.9188	0.4616	0.8287	0.047
Mof_C 	C 	0.8964	0.4249	0.85061	-0.079
Mof_H 	H 	0.8382	0.4329	0.8561	0.064
Mof_C 	C 	0.9352	0.3957	0.85888	0.055
Mof_C 	C 	0.0222	0.38373	0.85071	-0.075
Mof_H 	H 	0.0482	0.3642	0.8562	0.071
Mof_C 	C 	0.0705	0.4009	0.83428	-0.039
Mof_H 	H 	0.1288	0.3929	0.8288	0.071
Mof_C 	C 	0.1337	0.34739	0.64461	0.066
Mof_C 	C 	0.2211	0.3635	0.64816	-0.097
Mof_H 	H 	0.274	0.359	0.6393	0.066
Mof_C 	C 	0.2293	0.3865	0.66502	-0.02
Mof_H 	H 	0.2877	0.3973	0.6674	0.038
Mof_C 	C 	0.1502	0.3933	0.67834	-0.014
Mof_C 	C 	0.0628	0.3772	0.67479	-0.021
Mof_H 	H 	0.0099	0.3817	0.6837	0.04
Mof_C 	C 	0.0546	0.3542	0.65793	-0.097
Mof_H 	H 	0.9962	0.3434	0.6556	0.066
Mof_C 	C 	0.1623	0.4461	0.8016	-0.163
Mof_H 	H 	0.2042	0.4331	0.8098	0.12
Mof_C 	C 	0.1604	0.4178	0.6964	0.047
Mof_H 	H 	0.1035	0.4281	0.7008	0.036
Mof_C 	C 	0.0728	0.4471	0.8071	0.014
Mof_H 	H 	0.0311	0.4596	0.7984	0.047
Mof_C 	C 	0.852	0.2159	0.6274	0.067
Mof_C 	C 	0.2397	0.427	0.7071	-0.228
Mof_H 	H 	0.297	0.4164	0.7034	0.126
Mof_C 	C 	0.2049	0.4663	0.7812	0.326
Mof_C 	C 	0.245	0.4531	0.7248	0.423
Mof_O 	O 	0.1332	0.4809	0.77094	-0.394
Mof_O 	O 	0.1625	0.47	0.72612	-0.401
Mof_C 	C 	0.744	0.1706	0.622	0.454
Mof_O 	O 	0.7416	0.1567	0.6413	-0.372
Mof_O 	O 	0.706	0.1621	0.6072	-0.469
Mof_C 	C 	0.536	0.1239	0.7307	0.058
Mof_O 	O 	0.5769	0.1245	0.6805	-0.373
Mof_C 	C 	0.801	0.2007	0.6165	-0.125
Mof_C 	C 	0.932	0.5573	0.6396	-0.006
Mof_O 	O 	0.294	0.9638	0.2776	-0.397
Mof_O 	O 	0.3165	0.954	0.2343	-0.458
Mof_C 	C 	0.0386	0.79858	0.12632	0.066
Mof_C 	C 	0.0262	0.7801	0.14533	-0.095
Mof_H 	H 	0.0607	0.7854	0.1579	0.067
Mof_C 	C 	0.962	0.7536	0.14551	-0.022
Mof_H 	H 	0.9537	0.7412	0.1582	0.043
Mof_C 	C 	0.9104	0.7457	0.1267	-0.014
Mof_C 	C 	0.9228	0.7642	0.10767	-0.02
Mof_H 	H 	0.8883	0.7588	0.0951	0.049
Mof_C 	C 	0.987	0.7906	0.10749	-0.097
Mof_H 	H 	0.9953	0.803	0.0948	0.068
Mof_Cu	Cu	0.33789	0.9907	0.25401	0.902
Mof_C 	C 	0.0317	0.9301	0.32602	0.014
Mof_C 	C 	0.9447	0.94206	0.33418	-0.039
Mof_H 	H 	0.9188	0.9616	0.3287	0.047
Mof_C 	C 	0.8964	0.9249	0.35061	-0.079
Mof_H 	H 	0.8382	0.9329	0.3561	0.064
Mof_C 	C 	0.9352	0.8957	0.35888	0.055
Mof_C 	C 	0.0222	0.88373	0.35071	-0.075
Mof_H 	H 	0.0482	0.8642	0.3562	0.071
Mof_C 	C 	0.0705	0.9009	0.33428	-0.039
Mof_H 	H 	0.1288	0.8929	0.3288	0.071
Mof_C 	C 	0.1337	0.84739	0.14461	0.066
Mof_C 	C 	0.2211	0.8635	0.14816	-0.097
Mof_H 	H 	0.274	0.859	0.1393	0.066
Mof_C 	C 	0.2293	0.8865	0.16502	-0.02
Mof_H 	H 	0.2877	0.8973	0.1674	0.038
Mof_C 	C 	0.1502	0.8933	0.17834	-0.014
Mof_C 	C 	0.0628	0.8772	0.17479	-0.021
Mof_H 	H 	0.0099	0.8817	0.1837	0.04
Mof_C 	C 	0.0546	0.8542	0.15793	-0.097
Mof_H 	H 	0.9962	0.8434	0.1556	0.066
Mof_C 	C 	0.1623	0.9461	0.3016	-0.163
Mof_H 	H 	0.2042	0.9331	0.3098	0.12
Mof_C 	C 	0.1604	0.9178	0.1964	0.047
Mof_H 	H 	0.1035	0.9281	0.2008	0.036
Mof_C 	C 	0.0728	0.9471	0.3071	0.014
Mof_H 	H 	0.0311	0.9596	0.2984	0.047
Mof_C 	C 	0.852	0.7159	0.1274	0.067
Mof_C 	C 	0.2397	0.927	0.2071	-0.228
Mof_H 	H 	0.297	0.9164	0.2034	0.126
Mof_C 	C 	0.2049	0.9663	0.2812	0.326
Mof_C 	C 	0.245	0.9531	0.2248	0.423
Mof_O 	O 	0.1332	0.9809	0.27094	-0.394
Mof_O 	O 	0.1625	0.97	0.22612	-0.401
Mof_C 	C 	0.744	0.6706	0.122	0.454
Mof_O 	O 	0.7416	0.6567	0.1413	-0.372
Mof_O 	O 	0.706	0.6621	0.1072	-0.469
Mof_C 	C 	0.536	0.6239	0.2307	0.058
Mof_O 	O 	0.5769	0.6245	0.1805	-0.373
Mof_C 	C 	0.801	0.7007	0.1165	-0.125
Mof_C 	C 	0.932	0.0573	0.1396	-0.006
Mof_O 	O 	0.794	0.4638	0.2776	-0.397
Mof_O 	O 	0.8165	0.454	0.2343	-0.458
Mof_C 	C 	0.5386	0.29858	0.12632	0.066
Mof_C 	C 	0.5262	0.2801	0.14533	-0.095
Mof_H 	H 	0.5607	0.2854	0.1579	0.067
Mof_C 	C 	0.462	0.2536	0.14551	-0.022
Mof_H 	H 	0.4537	0.2412	0.1582	0.043
Mof_C 	C 	0.4104	0.2457	0.1267	-0.014
Mof_C 	C 	0.4228	0.2642	0.10767	-0.02
Mof_H 	H 	0.3883	0.2588	0.0951	0.049
Mof_C 	C 	0.487	0.2906	0.10749	-0.097
Mof_H 	H 	0.4953	0.303	0.0948	0.068
Mof_Cu	Cu	0.83789	0.4907	0.25401	0.902
Mof_C 	C 	0.5317	0.4301	0.32602	0.014
Mof_C 	C 	0.4447	0.44206	0.33418	-0.039
Mof_H 	H 	0.4188	0.4616	0.3287	0.047
Mof_C 	C 	0.3964	0.4249	0.35061	-0.079
Mof_H 	H 	0.3382	0.4329	0.3561	0.064
Mof_C 	C 	0.4352	0.3957	0.35888	0.055
Mof_C 	C 	0.5222	0.38373	0.35071	-0.075
Mof_H 	H 	0.5482	0.3642	0.3562	0.071
Mof_C 	C 	0.5705	0.4009	0.33428	-0.039
Mof_H 	H 	0.6288	0.3929	0.3288	0.071
Mof_C 	C 	0.6337	0.34739	0.14461	0.066
Mof_C 	C 	0.7211	0.3635	0.14816	-0.098
Mof_H 	H 	0.774	0.359	0.1393	0.066
Mof_C 	C 	0.7293	0.3865	0.16502	-0.02
Mof_H 	H 	0.7877	0.3973	0.1674	0.037
Mof_C 	C 	0.6502	0.3933	0.17834	-0.015
Mof_C 	C 	0.5628	0.3772	0.17479	-0.021
Mof_H 	H 	0.5099	0.3817	0.1837	0.039
Mof_C 	C 	0.5546	0.3542	0.15793	-0.098
Mof_H 	H 	0.4962	0.3434	0.1556	0.067
Mof_C 	C 	0.6623	0.4461	0.3016	-0.164
Mof_H 	H 	0.7042	0.4331	0.3098	0.12
Mof_C 	C 	0.6604	0.4178	0.1964	0.047
Mof_H 	H 	0.6035	0.4281	0.2008	0.036
Mof_C 	C 	0.5728	0.4471	0.3071	0.014
Mof_H 	H 	0.5311	0.4596	0.2984	0.047
Mof_C 	C 	0.352	0.2159	0.1274	0.068
Mof_C 	C 	0.7397	0.427	0.2071	-0.228
Mof_H 	H 	0.797	0.4164	0.2034	0.126
Mof_C 	C 	0.7049	0.4663	0.2812	0.326
Mof_C 	C 	0.745	0.4531	0.2248	0.423
Mof_O 	O 	0.6332	0.4809	0.27094	-0.394
Mof_O 	O 	0.6625	0.47	0.22612	-0.401
Mof_C 	C 	0.244	0.1706	0.122	0.454
Mof_O 	O 	0.2416	0.1567	0.1413	-0.372
Mof_O 	O 	0.206	0.1621	0.1072	-0.469
Mof_C 	C 	0.036	0.1239	0.2307	0.058
Mof_O 	O 	0.0769	0.1245	0.1805	-0.373
Mof_C 	C 	0.301	0.2007	0.1165	-0.125
Mof_C 	C 	0.432	0.5573	0.1396	-0.006
Mof_O 	O 	0.794	0.9638	0.7776	-0.397
Mof_O 	O 	0.8165	0.954	0.7343	-0.458
Mof_C 	C 	0.5386	0.79858	0.62632	0.066
Mof_C 	C 	0.5262	0.7801	0.64533	-0.095
Mof_H 	H 	0.5607	0.7854	0.6579	0.067
Mof_C 	C 	0.462	0.7536	0.64551	-0.022
Mof_H 	H 	0.4537	0.7412	0.6582	0.043
Mof_C 	C 	0.4104	0.7457	0.6267	-0.014
Mof_C 	C 	0.4228	0.7642	0.60767	-0.02
Mof_H 	H 	0.3883	0.7588	0.5951	0.049
Mof_C 	C 	0.487	0.7906	0.60749	-0.097
Mof_H 	H 	0.4953	0.803	0.5948	0.068
Mof_Cu	Cu	0.83789	0.9907	0.75401	0.902
Mof_C 	C 	0.5317	0.9301	0.82602	0.014
Mof_C 	C 	0.4447	0.94206	0.83418	-0.039
Mof_H 	H 	0.4188	0.9616	0.8287	0.047
Mof_C 	C 	0.3964	0.9249	0.85061	-0.079
Mof_H 	H 	0.3382	0.9329	0.8561	0.064
Mof_C 	C 	0.4352	0.8957	0.85888	0.055
Mof_C 	C 	0.5222	0.88373	0.85071	-0.075
Mof_H 	H 	0.5482	0.8642	0.8562	0.071
Mof_C 	C 	0.5705	0.9009	0.83428	-0.039
Mof_H 	H 	0.6288	0.8929	0.8288	0.071
Mof_C 	C 	0.6337	0.84739	0.64461	0.066
Mof_C 	C 	0.7211	0.8635	0.64816	-0.098
Mof_H 	H 	0.774	0.859	0.6393	0.066
Mof_C 	C 	0.7293	0.8865	0.66502	-0.02
Mof_H 	H 	0.7877	0.8973	0.6674	0.037
Mof_C 	C 	0.6502	0.8933	0.67834	-0.015
Mof_C 	C 	0.5628	0.8772	0.67479	-0.021
Mof_H 	H 	0.5099	0.8817	0.6837	0.039
Mof_C 	C 	0.5546	0.8542	0.65793	-0.098
Mof_H 	H 	0.4962	0.8434	0.6556	0.067
Mof_C 	C 	0.6623	0.9461	0.8016	-0.164
Mof_H 	H 	0.7042	0.9331	0.8098	0.12
Mof_C 	C 	0.6604	0.9178	0.6964	0.047
Mof_H 	H 	0.6035	0.9281	0.7008	0.036
Mof_C 	C 	0.5728	0.9471	0.8071	0.014
Mof_H 	H 	0.5311	0.9596	0.7984	0.047
Mof_C 	C 	0.352	0.7159	0.6274	0.068
Mof_C 	C 	0.7397	0.927	0.7071	-0.228
Mof_H 	H 	0.797	0.9164	0.7034	0.126
Mof_C 	C 	0.7049	0.9663	0.7812	0.326
Mof_C 	C 	0.745	0.9531	0.7248	0.423
Mof_O 	O 	0.6332	0.9809	0.77094	-0.394
Mof_O 	O 	0.6625	0.97	0.72612	-0.401
Mof_C 	C 	0.244	0.6706	0.622	0.454
Mof_O 	O 	0.2416	0.6567	0.6413	-0.372
Mof_O 	O 	0.206	0.6621	0.6072	-0.469
Mof_C 	C 	0.036	0.6239	0.7307	0.058
Mof_O 	O 	0.0769	0.6245	0.6805	-0.373
Mof_C 	C 	0.301	0.7007	0.6165	-0.125
Mof_C 	C 	0.432	0.0573	0.6396	-0.006
Mof_O 	O 	0.956	0.7862	0.7776	-0.397
Mof_O 	O 	0.9335	0.796	0.7343	-0.458
Mof_C 	C 	0.2114	0.95142	0.62632	0.066
Mof_C 	C 	0.2238	0.9699	0.64533	-0.095
Mof_H 	H 	0.1893	0.9646	0.6579	0.067
Mof_C 	C 	0.288	0.9964	0.64551	-0.022
Mof_H 	H 	0.2963	0.0088	0.6582	0.043
Mof_C 	C 	0.3396	0.0043	0.6267	-0.014
Mof_C 	C 	0.3272	0.9858	0.60767	-0.02
Mof_H 	H 	0.3617	0.9912	0.5951	0.049
Mof_C 	C 	0.263	0.9594	0.60749	-0.097
Mof_H 	H 	0.2547	0.947	0.5948	0.068
Mof_Cu	Cu	0.91211	0.7593	0.75401	0.902
Mof_C 	C 	0.2183	0.8199	0.82602	0.014
Mof_C 	C 	0.3053	0.80794	0.83418	-0.039
Mof_H 	H 	0.3312	0.7884	0.8287	0.047
Mof_C 	C 	0.3536	0.8251	0.85061	-0.079
Mof_H 	H 	0.4118	0.8171	0.8561	0.064
Mof_C 	C 	0.3148	0.8543	0.85888	0.055
Mof_C 	C 	0.2278	0.86627	0.85071	-0.075
Mof_H 	H 	0.2018	0.8858	0.8562	0.071
Mof_C 	C 	0.1795	0.8491	0.83428	-0.039
Mof_H 	H 	0.1212	0.8571	0.8288	0.071
Mof_C 	C 	0.1163	0.90261	0.64461	0.066
Mof_C 	C 	0.0289	0.8865	0.64816	-0.097
Mof_H 	H 	0.976	0.891	0.6393	0.066
Mof_C 	C 	0.0207	0.8635	0.66502	-0.02
Mof_H 	H 	0.9623	0.8527	0.6674	0.037
Mof_C 	C 	0.0998	0.8567	0.67834	-0.015
Mof_C 	C 	0.1872	0.8728	0.67479	-0.021
Mof_H 	H 	0.2401	0.8683	0.6837	0.039
Mof_C 	C 	0.1954	0.8958	0.65793	-0.098
Mof_H 	H 	0.2538	0.9066	0.6556	0.067
Mof_C 	C 	0.0877	0.8039	0.8016	-0.163
Mof_H 	H 	0.0458	0.8169	0.8098	0.12
Mof_C 	C 	0.0896	0.8322	0.6964	0.047
Mof_H 	H 	0.1465	0.8219	0.7008	0.036
Mof_C 	C 	0.1772	0.8029	0.8071	0.014
Mof_H 	H 	0.2189	0.7904	0.7984	0.047
Mof_C 	C 	0.398	0.0341	0.6274	0.068
Mof_C 	C 	0.0103	0.823	0.7071	-0.228
Mof_H 	H 	0.953	0.8336	0.7034	0.126
Mof_C 	C 	0.0451	0.7837	0.7812	0.326
Mof_C 	C 	0.005	0.7969	0.7248	0.423
Mof_O 	O 	0.1168	0.7691	0.77094	-0.394
Mof_O 	O 	0.0875	0.78	0.72612	-0.401
Mof_C 	C 	0.506	0.0794	0.622	0.454
Mof_O 	O 	0.5084	0.0933	0.6413	-0.372
Mof_O 	O 	0.544	0.0879	0.6072	-0.469
Mof_C 	C 	0.714	0.1261	0.7307	0.058
Mof_O 	O 	0.6731	0.1255	0.6805	-0.373
Mof_C 	C 	0.449	0.0493	0.6165	-0.125
Mof_C 	C 	0.318	0.6927	0.6396	-0.006
Mof_O 	O 	0.956	0.2862	0.2776	-0.397
Mof_O 	O 	0.9335	0.296	0.2343	-0.458
Mof_C 	C 	0.2114	0.45142	0.12632	0.066
Mof_C 	C 	0.2238	0.4699	0.14533	-0.095
Mof_H 	H 	0.1893	0.4646	0.1579	0.067
Mof_C 	C 	0.288	0.4964	0.14551	-0.022
Mof_H 	H 	0.2963	0.5088	0.1582	0.043
Mof_C 	C 	0.3396	0.5043	0.1267	-0.014
Mof_C 	C 	0.3272	0.4858	0.10767	-0.02
Mof_H 	H 	0.3617	0.4912	0.0951	0.049
Mof_C 	C 	0.263	0.4594	0.10749	-0.097
Mof_H 	H 	0.2547	0.447	0.0948	0.068
Mof_Cu	Cu	0.91211	0.2593	0.25401	0.902
Mof_C 	C 	0.2183	0.3199	0.32602	0.014
Mof_C 	C 	0.3053	0.30794	0.33418	-0.039
Mof_H 	H 	0.3312	0.2884	0.3287	0.047
Mof_C 	C 	0.3536	0.3251	0.35061	-0.079
Mof_H 	H 	0.4118	0.3171	0.3561	0.064
Mof_C 	C 	0.3148	0.3543	0.35888	0.055
Mof_C 	C 	0.2278	0.36627	0.35071	-0.075
Mof_H 	H 	0.2018	0.3858	0.3562	0.071
Mof_C 	C 	0.1795	0.3491	0.33428	-0.039
Mof_H 	H 	0.1212	0.3571	0.3288	0.071
Mof_C 	C 	0.1163	0.40261	0.14461	0.066
Mof_C 	C 	0.0289	0.3865	0.14816	-0.097
Mof_H 	H 	0.976	0.391	0.1393	0.066
Mof_C 	C 	0.0207	0.3635	0.16502	-0.02
Mof_H 	H 	0.9623	0.3527	0.1674	0.037
Mof_C 	C 	0.0998	0.3567	0.17834	-0.015
Mof_C 	C 	0.1872	0.3728	0.17479	-0.021
Mof_H 	H 	0.2401	0.3683	0.1837	0.039
Mof_C 	C 	0.1954	0.3958	0.15793	-0.098
Mof_H 	H 	0.2538	0.4066	0.1556	0.067
Mof_C 	C 	0.0877	0.3039	0.3016	-0.163
Mof_H 	H 	0.0458	0.3169	0.3098	0.12
Mof_C 	C 	0.0896	0.3322	0.1964	0.047
Mof_H 	H 	0.1465	0.3219	0.2008	0.036
Mof_C 	C 	0.1772	0.3029	0.3071	0.014
Mof_H 	H 	0.2189	0.2904	0.2984	0.047
Mof_C 	C 	0.398	0.5341	0.1274	0.068
Mof_C 	C 	0.0103	0.323	0.2071	-0.228
Mof_H 	H 	0.953	0.3336	0.2034	0.126
Mof_C 	C 	0.0451	0.2837	0.2812	0.326
Mof_C 	C 	0.005	0.2969	0.2248	0.423
Mof_O 	O 	0.1168	0.2691	0.27094	-0.394
Mof_O 	O 	0.0875	0.28	0.22612	-0.401
Mof_C 	C 	0.506	0.5794	0.122	0.454
Mof_O 	O 	0.5084	0.5933	0.1413	-0.372
Mof_O 	O 	0.544	0.5879	0.1072	-0.469
Mof_C 	C 	0.714	0.6261	0.2307	0.058
Mof_O 	O 	0.6731	0.6255	0.1805	-0.373
Mof_C 	C 	0.449	0.5493	0.1165	-0.125
Mof_C 	C 	0.318	0.1927	0.1396	-0.006
Mof_O 	O 	0.456	0.7862	0.2776	-0.397
Mof_O 	O 	0.4335	0.796	0.2343	-0.458
Mof_C 	C 	0.7114	0.95142	0.12632	0.066
Mof_C 	C 	0.7238	0.9699	0.14533	-0.095
Mof_H 	H 	0.6893	0.9646	0.1579	0.067
Mof_C 	C 	0.788	0.9964	0.14551	-0.022
Mof_H 	H 	0.7963	0.0088	0.1582	0.043
Mof_C 	C 	0.8396	0.0043	0.1267	-0.014
Mof_C 	C 	0.8272	0.9858	0.10767	-0.02
Mof_H 	H 	0.8617	0.9912	0.0951	0.049
Mof_C 	C 	0.763	0.9594	0.10749	-0.097
Mof_H 	H 	0.7547	0.947	0.0948	0.068
Mof_Cu	Cu	0.41211	0.7593	0.25401	0.902
Mof_C 	C 	0.7183	0.8199	0.32602	0.014
Mof_C 	C 	0.8053	0.80794	0.33418	-0.039
Mof_H 	H 	0.8312	0.7884	0.3287	0.047
Mof_C 	C 	0.8536	0.8251	0.35061	-0.079
Mof_H 	H 	0.9118	0.8171	0.3561	0.064
Mof_C 	C 	0.8148	0.8543	0.35888	0.055
Mof_C 	C 	0.7278	0.86627	0.35071	-0.075
Mof_H 	H 	0.7018	0.8858	0.3562	0.071
Mof_C 	C 	0.6795	0.8491	0.33428	-0.039
Mof_H 	H 	0.6212	0.8571	0.3288	0.071
Mof_C 	C 	0.6163	0.90261	0.14461	0.066
Mof_C 	C 	0.5289	0.8865	0.14816	-0.098
Mof_H 	H 	0.476	0.891	0.1393	0.066
Mof_C 	C 	0.5207	0.8635	0.16502	-0.02
Mof_H 	H 	0.4623	0.8527	0.1674	0.038
Mof_C 	C 	0.5998	0.8567	0.17834	-0.015
Mof_C 	C 	0.6872	0.8728	0.17479	-0.021
Mof_H 	H 	0.7401	0.8683	0.1837	0.039
Mof_C 	C 	0.6954	0.8958	0.15793	-0.098
Mof_H 	H 	0.7538	0.9066	0.1556	0.067
Mof_C 	C 	0.5877	0.8039	0.3016	-0.164
Mof_H 	H 	0.5458	0.8169	0.3098	0.12
Mof_C 	C 	0.5896	0.8322	0.1964	0.047
Mof_H 	H 	0.6465	0.8219	0.2008	0.036
Mof_C 	C 	0.6772	0.8029	0.3071	0.014
Mof_H 	H 	0.7189	0.7904	0.2984	0.047
Mof_C 	C 	0.898	0.0341	0.1274	0.068
Mof_C 	C 	0.5103	0.823	0.2071	-0.228
Mof_H 	H 	0.453	0.8336	0.2034	0.126
Mof_C 	C 	0.5451	0.7837	0.2812	0.326
Mof_C 	C 	0.505	0.7969	0.2248	0.423
Mof_O 	O 	0.6168	0.7691	0.27094	-0.394
Mof_O 	O 	0.5875	0.78	0.22612	-0.401
Mof_C 	C 	0.006	0.0794	0.122	0.455
Mof_O 	O 	0.0084	0.0933	0.1413	-0.372
Mof_O 	O 	0.044	0.0879	0.1072	-0.469
Mof_C 	C 	0.214	0.1261	0.2307	0.058
Mof_O 	O 	0.1731	0.1255	0.1805	-0.373
Mof_C 	C 	0.949	0.0493	0.1165	-0.126
Mof_C 	C 	0.818	0.6927	0.1396	-0.006
Mof_O 	O 	0.456	0.2862	0.7776	-0.397
Mof_O 	O 	0.4335	0.296	0.7343	-0.458
Mof_C 	C 	0.7114	0.45142	0.62632	0.066
Mof_C 	C 	0.7238	0.4699	0.64533	-0.095
Mof_H 	H 	0.6893	0.4646	0.6579	0.067
Mof_C 	C 	0.788	0.4964	0.64551	-0.022
Mof_H 	H 	0.7963	0.5088	0.6582	0.042
Mof_C 	C 	0.8396	0.5043	0.6267	-0.014
Mof_C 	C 	0.8272	0.4858	0.60767	-0.019
Mof_H 	H 	0.8617	0.4912	0.5951	0.049
Mof_C 	C 	0.763	0.4594	0.60749	-0.098
Mof_H 	H 	0.7547	0.447	0.5948	0.068
Mof_Cu	Cu	0.41211	0.2593	0.75401	0.902
Mof_C 	C 	0.7183	0.3199	0.82602	0.014
Mof_C 	C 	0.8053	0.30794	0.83418	-0.039
Mof_H 	H 	0.8312	0.2884	0.8287	0.047
Mof_C 	C 	0.8536	0.3251	0.85061	-0.079
Mof_H 	H 	0.9118	0.3171	0.8561	0.064
Mof_C 	C 	0.8148	0.3543	0.85888	0.055
Mof_C 	C 	0.7278	0.36627	0.85071	-0.075
Mof_H 	H 	0.7018	0.3858	0.8562	0.071
Mof_C 	C 	0.6795	0.3491	0.83428	-0.039
Mof_H 	H 	0.6212	0.3571	0.8288	0.071
Mof_C 	C 	0.6163	0.40261	0.64461	0.066
Mof_C 	C 	0.5289	0.3865	0.64816	-0.098
Mof_H 	H 	0.476	0.391	0.6393	0.066
Mof_C 	C 	0.5207	0.3635	0.66502	-0.02
Mof_H 	H 	0.4623	0.3527	0.6674	0.038
Mof_C 	C 	0.5998	0.3567	0.67834	-0.015
Mof_C 	C 	0.6872	0.3728	0.67479	-0.021
Mof_H 	H 	0.7401	0.3683	0.6837	0.039
Mof_C 	C 	0.6954	0.3958	0.65793	-0.098
Mof_H 	H 	0.7538	0.4066	0.6556	0.067
Mof_C 	C 	0.5877	0.3039	0.8016	-0.164
Mof_H 	H 	0.5458	0.3169	0.8098	0.12
Mof_C 	C 	0.5896	0.3322	0.6964	0.047
Mof_H 	H 	0.6465	0.3219	0.7008	0.036
Mof_C 	C 	0.6772	0.3029	0.8071	0.014
Mof_H 	H 	0.7189	0.2904	0.7984	0.047
Mof_C 	C 	0.898	0.5341	0.6274	0.068
Mof_C 	C 	0.5103	0.323	0.7071	-0.228
Mof_H 	H 	0.453	0.3336	0.7034	0.126
Mof_C 	C 	0.5451	0.2837	0.7812	0.326
Mof_C 	C 	0.505	0.2969	0.7248	0.423
Mof_O 	O 	0.6168	0.2691	0.77094	-0.394
Mof_O 	O 	0.5875	0.28	0.72612	-0.401
Mof_C 	C 	0.006	0.5794	0.622	0.455
Mof_O 	O 	0.0084	0.5933	0.6413	-0.372
Mof_O 	O 	0.044	0.5879	0.6072	-0.469
Mof_C 	C 	0.214	0.6261	0.7307	0.058
Mof_O 	O 	0.1731	0.6255	0.6805	-0.373
Mof_C 	C 	0.949	0.5493	0.6165	-0.126
Mof_C 	C 	0.818	0.1927	0.6396	-0.006
Mof_Cu	Cu	0.375	0.875	0.39606	0.953
Mof_C 	C 	0.375	0.875	0.4441	0.603
Mof_N 	N 	0.375	0.875	0.4664	-0.216
Mof_Cu	Cu	0.375	0.375	0.89606	0.953
Mof_C 	C 	0.375	0.375	0.9441	0.603
Mof_N 	N 	0.375	0.375	0.9664	-0.216
Mof_Cu	Cu	0.875	0.875	0.89606	0.953
Mof_C 	C 	0.875	0.875	0.9441	0.603
Mof_N 	N 	0.875	0.875	0.9664	-0.216
Mof_Cu	Cu	0.875	0.375	0.39606	0.953
Mof_C 	C 	0.875	0.375	0.4441	0.603
Mof_N 	N 	0.875	0.375	0.4664	-0.216
Mof_Cu	Cu	0.375	0.875	0.35394	0.953
Mof_C 	C 	0.375	0.875	0.3059	0.603
Mof_N 	N 	0.375	0.875	0.2836	-0.216
Mof_Cu	Cu	0.375	0.375	0.85394	0.953
Mof_C 	C 	0.375	0.375	0.8059	0.603
Mof_N 	N 	0.375	0.375	0.7836	-0.216
Mof_Cu	Cu	0.875	0.875	0.85394	0.953
Mof_C 	C 	0.875	0.875	0.8059	0.603
Mof_N 	N 	0.875	0.875	0.7836	-0.216
Mof_Cu	Cu	0.875	0.375	0.35394	0.953
Mof_C 	C 	0.875	0.375	0.3059	0.603
Mof_N 	N 	0.875	0.375	0.2836	-0.216
Mof_Cu	Cu	0.625	0.125	0.60394	0.953
Mof_C 	C 	0.625	0.125	0.5559	0.603
Mof_N 	N 	0.625	0.125	0.5336	-0.216
Mof_Cu	Cu	0.625	0.625	0.10394	0.953
Mof_C 	C 	0.625	0.625	0.0559	0.603
Mof_N 	N 	0.625	0.625	0.0336	-0.216
Mof_Cu	Cu	0.125	0.125	0.10394	0.953
Mof_C 	C 	0.125	0.125	0.0559	0.603
Mof_N 	N 	0.125	0.125	0.0336	-0.216
Mof_Cu	Cu	0.125	0.625	0.60394	0.953
Mof_C 	C 	0.125	0.625	0.5559	0.603
Mof_N 	N 	0.125	0.625	0.5336	-0.216
Mof_Cu	Cu	0.625	0.125	0.64606	0.953
Mof_C 	C 	0.625	0.125	0.6941	0.603
Mof_N 	N 	0.625	0.125	0.7164	-0.216
Mof_Cu	Cu	0.625	0.625	0.14606	0.953
Mof_C 	C 	0.625	0.625	0.1941	0.603
Mof_N 	N 	0.625	0.625	0.2164	-0.216
Mof_Cu	Cu	0.125	0.125	0.14606	0.953
Mof_C 	C 	0.125	0.125	0.1941	0.603
Mof_N 	N 	0.125	0.125	0.2164	-0.216
Mof_Cu	Cu	0.125	0.625	0.64606	0.953
Mof_C 	C 	0.125	0.625	0.6941	0.603
Mof_N 	N 	0.125	0.625	0.7164	-0.216
Mof_C 	C 	0.875	0.677	0.375	-0.087
Mof_C 	C 	0.875	0.177	0.875	-0.087
Mof_C 	C 	0.375	0.677	0.875	-0.087
Mof_C 	C 	0.375	0.177	0.375	-0.087
Mof_C 	C 	0.875	0.073	0.375	-0.087
Mof_C 	C 	0.875	0.573	0.875	-0.087
Mof_C 	C 	0.375	0.073	0.875	-0.087
Mof_C 	C 	0.375	0.573	0.375	-0.087
Mof_C 	C 	0.125	0.323	0.625	-0.087
Mof_C 	C 	0.125	0.823	0.125	-0.087
Mof_C 	C 	0.625	0.323	0.125	-0.087
Mof_C 	C 	0.625	0.823	0.625	-0.087
Mof_C 	C 	0.125	0.927	0.625	-0.087
Mof_C 	C 	0.125	0.427	0.125	-0.087
Mof_C 	C 	0.625	0.927	0.125	-0.087
Mof_C 	C 	0.625	0.427	0.625	-0.087
Mof_C 	C 	0.625	0.625	0.625	-0.076
Mof_C 	C 	0.125	0.125	0.625	-0.076
Mof_C 	C 	0.125	0.625	0.125	-0.076
Mof_C 	C 	0.625	0.125	0.125	-0.076
Mof_C 	C 	0.375	0.375	0.375	-0.076
Mof_C 	C 	0.875	0.875	0.375	-0.076
Mof_C 	C 	0.875	0.375	0.875	-0.076
Mof_C 	C 	0.375	0.875	0.875	-0.076
_end
