data_functionalizedCrystal
_audit_creation_method	'EQeq! by Chris Wilmer'
_symmetry_space_group_name_H-M	'P1'
_symmetry_Int_Tables_number	1
_symmetry_cell_setting	triclinic
loop_
_symmetry_equiv_pos_as_xyz
  x,y,z
_cell_length_a	8.265
_cell_length_b	8.265
_cell_length_c	15.512
_cell_angle_alpha	90
_cell_angle_beta	90
_cell_angle_gamma	90
loop_
_atom_site_label
_atom_site_type_symbol
_atom_site_fract_x
_atom_site_fract_y
_atom_site_fract_z
_atom_site_charge
Mof_C 	C 	0.499	0.2913	0.1597	-0.018
Mof_N 	N 	0.52	0.1962	0.1077	-0.139
Mof_N 	N 	0.2188	0.059	0.0163	-0.148
Mof_H 	H 	0.21037	0.17509	0.98435	0.05
Mof_H 	H 	0.21037	0.07763	0.08507	0.042
Mof_H 	H 	0.09931	0.8855	0.03229	0.044
Mof_H 	H 	0.09931	0.98296	0.93158	0.049
Mof_C 	C 	0.501	0.7087	0.1597	-0.016
Mof_N 	N 	0.48	0.8038	0.1077	-0.135
Mof_N 	N 	0.7812	0.941	0.0163	-0.148
Mof_H 	H 	0.78963	0.82491	0.98435	0.058
Mof_H 	H 	0.78963	0.92237	0.08507	0.052
Mof_H 	H 	0.90069	0.1145	0.03229	0.026
Mof_H 	H 	0.90069	0.01704	0.93158	0.027
Mof_C 	C 	0.7087	0.499	0.6597	-0.013
Mof_N 	N 	0.8038	0.52	0.6077	-0.133
Mof_N 	N 	0.941	0.2188	0.5163	-0.125
Mof_H 	H 	0.82491	0.21037	0.48435	0.044
Mof_H 	H 	0.92237	0.21037	0.58507	0.045
Mof_H 	H 	0.1145	0.09931	0.53229	0.035
Mof_H 	H 	0.01704	0.09931	0.43158	0.03
Mof_C 	C 	0.2913	0.501	0.6597	-0.018
Mof_N 	N 	0.1962	0.48	0.6077	-0.139
Mof_N 	N 	0.059	0.7812	0.5163	-0.152
Mof_H 	H 	0.17509	0.78963	0.48435	0.052
Mof_H 	H 	0.07763	0.78963	0.58507	0.05
Mof_H 	H 	0.8855	0.90069	0.53229	0.033
Mof_H 	H 	0.98296	0.90069	0.43158	0.034
Mof_C 	C 	0.501	0.2913	0.8403	-0.016
Mof_N 	N 	0.48	0.1962	0.8923	-0.135
Mof_N 	N 	0.7812	0.059	0.9837	-0.134
Mof_H 	H 	0.78963	0.17509	0.01565	0.043
Mof_H 	H 	0.78963	0.07763	0.91493	0.049
Mof_H 	H 	0.90069	0.8855	0.96771	0.042
Mof_H 	H 	0.90069	0.98296	0.06842	0.038
Mof_C 	C 	0.499	0.7087	0.8403	-0.013
Mof_N 	N 	0.52	0.8038	0.8923	-0.131
Mof_N 	N 	0.2188	0.941	0.9837	-0.11
Mof_H 	H 	0.21037	0.82491	0.01565	0.035
Mof_H 	H 	0.21037	0.92237	0.91493	0.042
Mof_H 	H 	0.09931	0.1145	0.96771	0.044
Mof_H 	H 	0.09931	0.01704	0.06842	0.035
Mof_C 	C 	0.2913	0.499	0.3403	-0.018
Mof_N 	N 	0.1962	0.52	0.3923	-0.138
Mof_N 	N 	0.059	0.2188	0.4837	-0.14
Mof_H 	H 	0.17509	0.21037	0.51565	0.045
Mof_H 	H 	0.07763	0.21037	0.41493	0.043
Mof_H 	H 	0.8855	0.09931	0.46771	0.044
Mof_H 	H 	0.98296	0.09931	0.56842	0.045
Mof_C 	C 	0.7087	0.501	0.3403	-0.014
Mof_N 	N 	0.8038	0.48	0.3923	-0.133
Mof_N 	N 	0.941	0.7812	0.4837	-0.136
Mof_H 	H 	0.82491	0.78963	0.51565	0.051
Mof_H 	H 	0.92237	0.78963	0.41493	0.052
Mof_H 	H 	0.1145	0.90069	0.46771	0.023
Mof_H 	H 	0.01704	0.90069	0.56842	0.019
Mof_Cd	Cd	0.5	0.5	0.25	0.261
Mof_Cd	Cd	0.5	0.5	0.75	0.262
Mof_Cd	Cd	0.5	0	-0	0.348
Mof_Cd	Cd	-8.39302e-33	0.5	0.5	0.357
Mof_C 	C 	0.0822	0	-0	-0.112
Mof_C 	C 	0.9178	0	-0	-0.031
Mof_C 	C 	3.51849e-33	0.0822	0.5	-0.093
Mof_C 	C 	-8.39302e-33	0.9178	0.5	-0.011
_end
