data_functionalizedCrystal
_audit_creation_method	'EQeq! by Chris Wilmer'
_symmetry_space_group_name_H-M	'P1'
_symmetry_Int_Tables_number	1
_symmetry_cell_setting	triclinic
loop_
_symmetry_equiv_pos_as_xyz
  x,y,z
_cell_length_a	11.9199
_cell_length_b	31.2246
_cell_length_c	31.2246
_cell_angle_alpha	61.5943
_cell_angle_beta	82.6894
_cell_angle_gamma	97.3106
loop_
_atom_site_label
_atom_site_type_symbol
_atom_site_fract_x
_atom_site_fract_y
_atom_site_fract_z
_atom_site_charge
Mof_Cu	Cu	0.11962	0.76848	0.21032	0.908
Mof_Cu	Cu	0.88021	0.71665	0.27231	0.907
Mof_Cu	Cu	0.30439	0.50578	0.27591	0.907
Mof_Cu	Cu	0.37983	0.72004	0.50424	0.907
Mof_Cu	Cu	0.32994	0.21032	0.0212	0.908
Mof_Cu	Cu	0.15252	0.27231	0.01104	0.907
Mof_Cu	Cu	0.5803	0.27591	0.21831	0.907
Mof_Cu	Cu	0.88407	0.50424	0.77572	0.907
Mof_Cu	Cu	0.35114	0.0212	0.76848	0.908
Mof_Cu	Cu	0.16356	0.01104	0.71665	0.907
Mof_Cu	Cu	0.79861	0.21831	0.50578	0.907
Mof_Cu	Cu	0.65979	0.77572	0.72004	0.907
Mof_Cu	Cu	0.88038	0.23152	0.78968	0.908
Mof_Cu	Cu	0.11979	0.28335	0.72769	0.907
Mof_Cu	Cu	0.69561	0.49422	0.72409	0.906
Mof_Cu	Cu	0.62017	0.27996	0.49576	0.906
Mof_Cu	Cu	0.67006	0.78968	0.9788	0.907
Mof_Cu	Cu	0.84748	0.72769	0.98896	0.906
Mof_Cu	Cu	0.4197	0.72409	0.78169	0.906
Mof_Cu	Cu	0.11593	0.49576	0.22428	0.906
Mof_Cu	Cu	0.64886	0.9788	0.23152	0.907
Mof_Cu	Cu	0.83644	0.98896	0.28335	0.906
Mof_Cu	Cu	0.20139	0.78169	0.49422	0.906
Mof_Cu	Cu	0.34021	0.22428	0.27996	0.906
Mof_H 	H 	0.7244	0.8472	0.0188	0.043
Mof_H 	H 	0.742	0.902	0.0466	0.036
Mof_H 	H 	0.581	0.9091	0.0927	0.058
Mof_H 	H 	0.4048	0.8613	0.1094	0.064
Mof_H 	H 	0.1606	0.7295	0.0898	0.062
Mof_H 	H 	0.1508	0.6804	0.0542	0.055
Mof_H 	H 	0.3185	0.6761	0.0112	0.044
Mof_H 	H 	0.4938	0.7239	0.9987	0.026
Mof_H 	H 	0.7739	0.76	0.2025	0.029
Mof_H 	H 	0.6451	0.7965	0.1562	0.04
Mof_H 	H 	0.4645	0.7498	0.1671	0.058
Mof_H 	H 	0.4147	0.6676	0.2223	0.06
Mof_H 	H 	0.516	0.5187	0.3626	0.065
Mof_H 	H 	0.6457	0.4874	0.4102	0.062
Mof_H 	H 	0.8277	0.5386	0.3933	0.034
Mof_H 	H 	0.8717	0.6188	0.3325	0.043
Mof_H 	H 	0.4585	0.4799	0.235	0.027
Mof_H 	H 	0.6217	0.4647	0.203	0.041
Mof_H 	H 	0.7428	0.4231	0.2535	0.057
Mof_H 	H 	0.6965	0.3929	0.3367	0.061
Mof_H 	H 	0.4323	0.3821	0.4816	0.065
Mof_H 	H 	0.2748	0.4031	0.5098	0.059
Mof_H 	H 	0.161	0.447	0.455	0.035
Mof_H 	H 	0.2101	0.4721	0.3727	0.04
Mof_H 	H 	0.3021	0.6619	0.4677	0.043
Mof_H 	H 	0.2624	0.6032	0.4456	0.035
Mof_H 	H 	0.4105	0.5871	0.4019	0.061
Mof_H 	H 	0.5958	0.6302	0.3814	0.063
Mof_H 	H 	0.8789	0.7581	0.3911	0.06
Mof_H 	H 	0.9099	0.8082	0.4238	0.058
Mof_H 	H 	0.7575	0.8204	0.4675	0.041
Mof_H 	H 	0.5732	0.7796	0.4816	0.029
Mof_H 	H 	0.0519	0.8315	0.2581	0.036
Mof_H 	H 	0.057	0.7843	0.3081	0.039
Mof_H 	H 	0.9371	0.797	0.2971	0.041
Mof_H 	H 	0.0581	0.6948	0.1784	0.026
Mof_H 	H 	0.9273	0.6969	0.179	0.025
Mof_H 	H 	0.9626	0.6541	0.2244	0.021
Mof_H 	H 	0.0939	0.3906	0.3032	0.032
Mof_H 	H 	0.1641	0.3961	0.3402	0.026
Mof_H 	H 	0.2274	0.3927	0.2951	0.027
Mof_H 	H 	0.1962	0.6067	0.174	0.037
Mof_H 	H 	0.3269	0.6109	0.1773	0.043
Mof_H 	H 	0.2355	0.6101	0.2185	0.038
Mof_H 	H 	0.7432	0.0188	0.134	0.043
Mof_H 	H 	0.7886	0.0466	0.0514	0.037
Mof_H 	H 	0.6737	0.0927	0.9982	0.057
Mof_H 	H 	0.5142	0.1094	0.0293	0.065
Mof_H 	H 	0.2504	0.0898	0.1807	0.062
Mof_H 	H 	0.205	0.0542	0.2654	0.055
Mof_H 	H 	0.3297	0.0112	0.3127	0.044
Mof_H 	H 	0.4925	0.9987	0.2774	0.025
Mof_H 	H 	0.9764	0.2025	0.0375	0.03
Mof_H 	H 	0.8013	0.1562	0.0473	0.04
Mof_H 	H 	0.6316	0.1671	0.0831	0.058
Mof_H 	H 	0.637	0.2223	0.1101	0.06
Mof_H 	H 	0.8786	0.3626	0.1187	0.064
Mof_H 	H 	0.0559	0.4102	0.1024	0.062
Mof_H 	H 	0.221	0.3933	0.0681	0.034
Mof_H 	H 	0.2042	0.3325	0.0487	0.043
Mof_H 	H 	0.6935	0.235	0.2851	0.027
Mof_H 	H 	0.8247	0.203	0.3323	0.04
Mof_H 	H 	0.9963	0.2535	0.3234	0.059
Mof_H 	H 	0.0332	0.3367	0.2704	0.059
Mof_H 	H 	0.9139	0.4816	0.1363	0.065
Mof_H 	H 	0.7846	0.5098	0.0871	0.059
Mof_H 	H 	0.616	0.455	0.098	0.035
Mof_H 	H 	0.5828	0.3727	0.1552	0.041
Mof_H 	H 	0.7698	0.4677	0.8704	0.043
Mof_H 	H 	0.708	0.4456	0.9512	0.034
Mof_H 	H 	0.8124	0.4019	0.011	0.062
Mof_H 	H 	0.9772	0.3814	0.9884	0.062
Mof_H 	H 	0.27	0.3911	0.8508	0.059
Mof_H 	H 	0.3337	0.4238	0.768	0.059
Mof_H 	H 	0.225	0.4675	0.7121	0.041
Mof_H 	H 	0.0548	0.4816	0.7388	0.03
Mof_H 	H 	0.31	0.2581	0.9104	0.037
Mof_H 	H 	0.3651	0.3081	0.9076	0.039
Mof_H 	H 	0.2342	0.2971	0.9059	0.042
Mof_H 	H 	0.2365	0.1784	0.1268	0.027
Mof_H 	H 	0.1063	0.179	0.1241	0.025
Mof_H 	H 	0.187	0.2244	0.1215	0.021
Mof_H 	H 	0.3971	0.3032	0.3062	0.032
Mof_H 	H 	0.5043	0.3402	0.2637	0.026
Mof_H 	H 	0.5225	0.2951	0.3122	0.028
Mof_H 	H 	0.3702	0.174	0.2193	0.037
Mof_H 	H 	0.5042	0.1773	0.2118	0.043
Mof_H 	H 	0.454	0.2185	0.1714	0.038
Mof_H 	H 	0.8772	0.134	0.8472	0.043
Mof_H 	H 	0.84	0.0514	0.902	0.036
Mof_H 	H 	0.6719	0.9982	0.9091	0.057
Mof_H 	H 	0.5435	0.0293	0.8613	0.064
Mof_H 	H 	0.4311	0.1807	0.7295	0.062
Mof_H 	H 	0.4704	0.2654	0.6804	0.055
Mof_H 	H 	0.6424	0.3127	0.6761	0.044
Mof_H 	H 	0.7699	0.2774	0.7239	0.026
Mof_H 	H 	0.0139	0.0375	0.76	0.028
Mof_H 	H 	0.8486	0.0473	0.7965	0.041
Mof_H 	H 	0.7147	0.0831	0.7498	0.057
Mof_H 	H 	0.7471	0.1101	0.6676	0.06
Mof_H 	H 	0.9973	0.1187	0.5187	0.066
Mof_H 	H 	0.1583	0.1024	0.4874	0.061
Mof_H 	H 	0.2891	0.0681	0.5386	0.035
Mof_H 	H 	0.2529	0.0487	0.6188	0.042
Mof_H 	H 	0.9786	0.2851	0.4799	0.028
Mof_H 	H 	0.157	0.3323	0.4647	0.04
Mof_H 	H 	0.3197	0.3234	0.4231	0.057
Mof_H 	H 	0.3036	0.2704	0.3929	0.06
Mof_H 	H 	0.0502	0.1363	0.3821	0.062
Mof_H 	H 	0.8717	0.0871	0.4031	0.061
Mof_H 	H 	0.714	0.098	0.447	0.034
Mof_H 	H 	0.738	0.1552	0.4721	0.042
Mof_H 	H 	0.6402	0.8704	0.6619	0.043
Mof_H 	H 	0.6592	0.9512	0.6032	0.034
Mof_H 	H 	0.8234	0.011	0.5871	0.062
Mof_H 	H 	0.9656	0.9884	0.6302	0.063
Mof_H 	H 	0.1208	0.8508	0.7581	0.06
Mof_H 	H 	0.1017	0.768	0.8082	0.058
Mof_H 	H 	0.9371	0.7121	0.8204	0.042
Mof_H 	H 	0.7936	0.7388	0.7796	0.029
Mof_H 	H 	0.2204	0.9104	0.8315	0.037
Mof_H 	H 	0.2727	0.9076	0.7843	0.039
Mof_H 	H 	0.1401	0.9059	0.797	0.042
Mof_H 	H 	0.3633	0.1268	0.6948	0.027
Mof_H 	H 	0.2304	0.1241	0.6969	0.026
Mof_H 	H 	0.3085	0.1215	0.6541	0.021
Mof_H 	H 	0.7033	0.3062	0.3906	0.032
Mof_H 	H 	0.768	0.2637	0.3961	0.026
Mof_H 	H 	0.8347	0.3122	0.3927	0.028
Mof_H 	H 	0.5895	0.2193	0.6067	0.037
Mof_H 	H 	0.716	0.2118	0.6109	0.043
Mof_H 	H 	0.6254	0.1714	0.6101	0.038
Mof_H 	H 	0.2756	0.1528	0.9812	0.043
Mof_H 	H 	0.258	0.098	0.9534	0.036
Mof_H 	H 	0.419	0.0909	0.9073	0.058
Mof_H 	H 	0.5952	0.1387	0.8906	0.064
Mof_H 	H 	0.8394	0.2705	0.9102	0.062
Mof_H 	H 	0.8492	0.3196	0.9458	0.055
Mof_H 	H 	0.6815	0.3239	0.9888	0.044
Mof_H 	H 	0.5062	0.2761	0.0013	0.026
Mof_H 	H 	0.2261	0.24	0.7975	0.029
Mof_H 	H 	0.3549	0.2035	0.8438	0.04
Mof_H 	H 	0.5355	0.2502	0.8329	0.058
Mof_H 	H 	0.5853	0.3324	0.7777	0.06
Mof_H 	H 	0.484	0.4813	0.6374	0.065
Mof_H 	H 	0.3543	0.5126	0.5898	0.062
Mof_H 	H 	0.1723	0.4614	0.6067	0.034
Mof_H 	H 	0.1283	0.3812	0.6675	0.043
Mof_H 	H 	0.5415	0.5201	0.765	0.027
Mof_H 	H 	0.3783	0.5353	0.797	0.041
Mof_H 	H 	0.2572	0.5769	0.7465	0.057
Mof_H 	H 	0.3035	0.6071	0.6633	0.061
Mof_H 	H 	0.5677	0.6179	0.5184	0.065
Mof_H 	H 	0.7252	0.5969	0.4902	0.059
Mof_H 	H 	0.839	0.553	0.545	0.035
Mof_H 	H 	0.7899	0.5279	0.6273	0.04
Mof_H 	H 	0.6979	0.3381	0.5323	0.043
Mof_H 	H 	0.7376	0.3968	0.5544	0.035
Mof_H 	H 	0.5895	0.4129	0.5981	0.061
Mof_H 	H 	0.4042	0.3698	0.6186	0.063
Mof_H 	H 	0.1211	0.2419	0.6089	0.06
Mof_H 	H 	0.0901	0.1918	0.5762	0.058
Mof_H 	H 	0.2425	0.1796	0.5325	0.041
Mof_H 	H 	0.4268	0.2204	0.5184	0.029
Mof_H 	H 	0.9481	0.1685	0.7419	0.036
Mof_H 	H 	0.943	0.2157	0.6919	0.039
Mof_H 	H 	0.0629	0.203	0.7029	0.041
Mof_H 	H 	0.9419	0.3052	0.8216	0.026
Mof_H 	H 	0.0727	0.3031	0.821	0.025
Mof_H 	H 	0.0374	0.3459	0.7756	0.021
Mof_H 	H 	0.9061	0.6094	0.6968	0.032
Mof_H 	H 	0.8359	0.6039	0.6598	0.026
Mof_H 	H 	0.7726	0.6073	0.7049	0.027
Mof_H 	H 	0.8038	0.3933	0.826	0.037
Mof_H 	H 	0.6731	0.3891	0.8227	0.043
Mof_H 	H 	0.7645	0.3899	0.7815	0.038
Mof_H 	H 	0.2568	0.9812	0.866	0.043
Mof_H 	H 	0.2114	0.9534	0.9486	0.037
Mof_H 	H 	0.3263	0.9073	0.0018	0.057
Mof_H 	H 	0.4858	0.8906	0.9707	0.065
Mof_H 	H 	0.7496	0.9102	0.8193	0.062
Mof_H 	H 	0.795	0.9458	0.7346	0.055
Mof_H 	H 	0.6703	0.9888	0.6873	0.044
Mof_H 	H 	0.5075	0.0013	0.7226	0.025
Mof_H 	H 	0.0236	0.7975	0.9625	0.03
Mof_H 	H 	0.1987	0.8438	0.9527	0.04
Mof_H 	H 	0.3684	0.8329	0.9169	0.058
Mof_H 	H 	0.363	0.7777	0.8899	0.06
Mof_H 	H 	0.1214	0.6374	0.8813	0.064
Mof_H 	H 	0.9441	0.5898	0.8976	0.062
Mof_H 	H 	0.779	0.6067	0.9319	0.034
Mof_H 	H 	0.7958	0.6675	0.9513	0.043
Mof_H 	H 	0.3065	0.765	0.7149	0.027
Mof_H 	H 	0.1753	0.797	0.6677	0.04
Mof_H 	H 	0.0037	0.7465	0.6766	0.059
Mof_H 	H 	0.9668	0.6633	0.7296	0.059
Mof_H 	H 	0.0861	0.5184	0.8637	0.065
Mof_H 	H 	0.2154	0.4902	0.9129	0.059
Mof_H 	H 	0.384	0.545	0.902	0.035
Mof_H 	H 	0.4172	0.6273	0.8448	0.041
Mof_H 	H 	0.2302	0.5323	0.1296	0.043
Mof_H 	H 	0.292	0.5544	0.0488	0.034
Mof_H 	H 	0.1876	0.5981	0.989	0.062
Mof_H 	H 	0.0228	0.6186	0.0116	0.062
Mof_H 	H 	0.73	0.6089	0.1492	0.059
Mof_H 	H 	0.6663	0.5762	0.232	0.059
Mof_H 	H 	0.775	0.5325	0.2879	0.041
Mof_H 	H 	0.9452	0.5184	0.2612	0.03
Mof_H 	H 	0.69	0.7419	0.0896	0.037
Mof_H 	H 	0.6349	0.6919	0.0924	0.039
Mof_H 	H 	0.7658	0.7029	0.0941	0.042
Mof_H 	H 	0.7635	0.8216	0.8732	0.027
Mof_H 	H 	0.8937	0.821	0.8759	0.025
Mof_H 	H 	0.813	0.7756	0.8785	0.021
Mof_H 	H 	0.6029	0.6968	0.6938	0.032
Mof_H 	H 	0.4957	0.6598	0.7363	0.026
Mof_H 	H 	0.4775	0.7049	0.6878	0.028
Mof_H 	H 	0.6298	0.826	0.7807	0.037
Mof_H 	H 	0.4958	0.8227	0.7882	0.043
Mof_H 	H 	0.546	0.7815	0.8286	0.038
Mof_H 	H 	0.1228	0.866	0.1528	0.043
Mof_H 	H 	0.16	0.9486	0.098	0.036
Mof_H 	H 	0.3281	0.0018	0.0909	0.057
Mof_H 	H 	0.4565	0.9707	0.1387	0.064
Mof_H 	H 	0.5689	0.8193	0.2705	0.062
Mof_H 	H 	0.5296	0.7346	0.3196	0.055
Mof_H 	H 	0.3576	0.6873	0.3239	0.044
Mof_H 	H 	0.2301	0.7226	0.2761	0.026
Mof_H 	H 	0.9861	0.9625	0.24	0.028
Mof_H 	H 	0.1514	0.9527	0.2035	0.041
Mof_H 	H 	0.2853	0.9169	0.2502	0.057
Mof_H 	H 	0.2529	0.8899	0.3324	0.06
Mof_H 	H 	0.0027	0.8813	0.4813	0.066
Mof_H 	H 	0.8417	0.8976	0.5126	0.061
Mof_H 	H 	0.7109	0.9319	0.4614	0.035
Mof_H 	H 	0.7471	0.9513	0.3812	0.042
Mof_H 	H 	0.0214	0.7149	0.5201	0.028
Mof_H 	H 	0.843	0.6677	0.5353	0.04
Mof_H 	H 	0.6803	0.6766	0.5769	0.057
Mof_H 	H 	0.6964	0.7296	0.6071	0.06
Mof_H 	H 	0.9498	0.8637	0.6179	0.062
Mof_H 	H 	0.1283	0.9129	0.5969	0.061
Mof_H 	H 	0.286	0.902	0.553	0.034
Mof_H 	H 	0.262	0.8448	0.5279	0.042
Mof_H 	H 	0.3598	0.1296	0.3381	0.043
Mof_H 	H 	0.3408	0.0488	0.3968	0.034
Mof_H 	H 	0.1766	0.989	0.4129	0.062
Mof_H 	H 	0.0344	0.0116	0.3698	0.063
Mof_H 	H 	0.8792	0.1492	0.2419	0.06
Mof_H 	H 	0.8983	0.232	0.1918	0.058
Mof_H 	H 	0.0629	0.2879	0.1796	0.042
Mof_H 	H 	0.2064	0.2612	0.2204	0.029
Mof_H 	H 	0.7796	0.0896	0.1685	0.037
Mof_H 	H 	0.7273	0.0924	0.2157	0.039
Mof_H 	H 	0.8599	0.0941	0.203	0.042
Mof_H 	H 	0.6367	0.8732	0.3052	0.027
Mof_H 	H 	0.7696	0.8759	0.3031	0.026
Mof_H 	H 	0.6915	0.8785	0.3459	0.021
Mof_H 	H 	0.2967	0.6938	0.6094	0.032
Mof_H 	H 	0.232	0.7363	0.6039	0.026
Mof_H 	H 	0.1653	0.6878	0.6073	0.028
Mof_H 	H 	0.4105	0.7807	0.3933	0.037
Mof_H 	H 	0.284	0.7882	0.3891	0.043
Mof_H 	H 	0.3746	0.8286	0.3899	0.038
Mof_C 	C 	0.54935	0.81895	0.0462	0.057
Mof_C 	C 	0.65934	0.84965	0.03673	-0.101
Mof_C 	C 	0.66979	0.88208	0.05341	-0.006
Mof_C 	C 	0.57222	0.88642	0.08136	-0.043
Mof_C 	C 	0.46801	0.85795	0.09132	-0.066
Mof_C 	C 	0.45176	0.82242	0.07484	0.031
Mof_C 	C 	0.34441	0.79174	0.08481	-0.102
Mof_C 	C 	0.2394	0.79242	0.11702	0.342
Mof_C 	C 	0.33424	0.75939	0.06527	0.038
Mof_C 	C 	0.22772	0.72908	0.07132	-0.069
Mof_C 	C 	0.22181	0.69939	0.05066	-0.037
Mof_C 	C 	0.32311	0.69744	0.02411	-0.016
Mof_C 	C 	0.42803	0.72578	0.01669	-0.091
Mof_C 	C 	0.43631	0.75837	0.03674	0.054
Mof_C 	C 	0.67362	0.69028	0.24432	0.058
Mof_C 	C 	0.70163	0.74097	0.20768	-0.098
Mof_C 	C 	0.62524	0.76278	0.17966	-0.012
Mof_C 	C 	0.51634	0.73444	0.18612	-0.04
Mof_C 	C 	0.4864	0.6858	0.2192	-0.065
Mof_C 	C 	0.56346	0.66127	0.24999	0.037
Mof_C 	C 	0.53454	0.61096	0.28644	-0.106
Mof_C 	C 	0.42081	0.57897	0.29264	0.348
Mof_C 	C 	0.61103	0.58978	0.31689	0.031
Mof_C 	C 	0.58702	0.53933	0.35617	-0.065
Mof_C 	C 	0.66397	0.52053	0.38432	-0.046
Mof_C 	C 	0.77374	0.55161	0.37439	-0.002
Mof_C 	C 	0.79978	0.59921	0.33817	-0.105
Mof_C 	C 	0.72042	0.62078	0.30802	0.061
Mof_C 	C 	0.47579	0.44646	0.30779	0.053
Mof_C 	C 	0.50563	0.46286	0.25597	-0.093
Mof_C 	C 	0.60299	0.45368	0.23701	-0.014
Mof_C 	C 	0.67549	0.42807	0.2675	-0.039
Mof_C 	C 	0.64852	0.41075	0.31669	-0.068
Mof_C 	C 	0.54819	0.41898	0.33911	0.038
Mof_C 	C 	0.51807	0.40225	0.38994	-0.104
Mof_C 	C 	0.58875	0.37102	0.42447	0.337
Mof_C 	C 	0.42105	0.41404	0.40869	0.032
Mof_C 	C 	0.38843	0.4	0.45951	-0.067
Mof_C 	C 	0.29454	0.41235	0.47633	-0.044
Mof_C 	C 	0.2264	0.43925	0.44305	-0.007
Mof_C 	C 	0.2551	0.45392	0.39412	-0.099
Mof_C 	C 	0.35341	0.44189	0.37516	0.058
Mof_C 	C 	0.47682	0.68241	0.44045	0.062
Mof_C 	C 	0.36208	0.65542	0.45108	-0.101
Mof_C 	C 	0.33807	0.62084	0.43753	-0.002
Mof_C 	C 	0.42759	0.61111	0.41094	-0.048
Mof_C 	C 	0.53781	0.63683	0.3988	-0.063
Mof_C 	C 	0.56614	0.67364	0.41242	0.029
Mof_C 	C 	0.67872	0.70134	0.40028	-0.098
Mof_C 	C 	0.77476	0.69629	0.36751	0.329
Mof_C 	C 	0.703	0.73448	0.41788	0.033
Mof_C 	C 	0.81684	0.76148	0.40966	-0.066
Mof_C 	C 	0.8349	0.79166	0.42856	-0.042
Mof_C 	C 	0.743	0.79871	0.45541	-0.01
Mof_C 	C 	0.63354	0.77428	0.46386	-0.097
Mof_C 	C 	0.60896	0.74068	0.4464	0.057
Mof_C 	C 	0.0137	0.79767	0.28247	-0.03
Mof_C 	C 	0.98447	0.68867	0.19906	0.014
Mof_C 	C 	0.16667	0.40504	0.30603	0.001
Mof_C 	C 	0.24858	0.59736	0.19622	-0.036
Mof_C 	C 	0.59555	0.0462	0.13485	0.057
Mof_C 	C 	0.69607	0.03673	0.11362	-0.1
Mof_C 	C 	0.7232	0.05341	0.06451	-0.008
Mof_C 	C 	0.65358	0.08136	0.03222	-0.041
Mof_C 	C 	0.55933	0.09132	0.05073	-0.067
Mof_C 	C 	0.5266	0.07484	0.10274	0.032
Mof_C 	C 	0.42922	0.08481	0.12345	-0.103
Mof_C 	C 	0.35642	0.11702	0.09056	0.342
Mof_C 	C 	0.39951	0.06527	0.17534	0.038
Mof_C 	C 	0.29904	0.07132	0.1996	-0.069
Mof_C 	C 	0.27247	0.05066	0.24995	-0.037
Mof_C 	C 	0.34722	0.02411	0.27845	-0.016
Mof_C 	C 	0.44472	0.01669	0.25753	-0.09
Mof_C 	C 	0.47305	0.03674	0.20489	0.053
Mof_C 	C 	0.91794	0.24432	0.0654	0.059
Mof_C 	C 	0.90931	0.20768	0.05135	-0.099
Mof_C 	C 	0.8049	0.17966	0.05756	-0.012
Mof_C 	C 	0.70246	0.18612	0.07944	-0.041
Mof_C 	C 	0.7056	0.2192	0.095	-0.065
Mof_C 	C 	0.81345	0.24999	0.08874	0.036
Mof_C 	C 	0.82098	0.28644	0.1026	-0.106
Mof_C 	C 	0.71345	0.29264	0.12839	0.348
Mof_C 	C 	0.92792	0.31689	0.09333	0.031
Mof_C 	C 	0.94319	0.35617	0.1045	-0.063
Mof_C 	C 	0.04829	0.38432	0.09515	-0.049
Mof_C 	C 	0.14813	0.37439	0.074	-0.001
Mof_C 	C 	0.13795	0.33817	0.06262	-0.106
Mof_C 	C 	0.02844	0.30802	0.0712	0.061
Mof_C 	C 	0.78358	0.30779	0.24575	0.055
Mof_C 	C 	0.7616	0.25597	0.28117	-0.095
Mof_C 	C 	0.84	0.23701	0.30931	-0.012
Mof_C 	C 	0.94299	0.2675	0.30443	-0.043
Mof_C 	C 	0.96521	0.31669	0.27256	-0.062
Mof_C 	C 	0.8873	0.33911	0.24191	0.035
Mof_C 	C 	0.90801	0.38994	0.20781	-0.102
Mof_C 	C 	0.01322	0.42447	0.20451	0.334
Mof_C 	C 	0.82974	0.40869	0.17727	0.031
Mof_C 	C 	0.84794	0.45951	0.14049	-0.066
Mof_C 	C 	0.77087	0.47633	0.11132	-0.045
Mof_C 	C 	0.66945	0.44305	0.1177	-0.007
Mof_C 	C 	0.64922	0.39412	0.15196	-0.099
Mof_C 	C 	0.72857	0.37516	0.18295	0.058
Mof_C 	C 	0.91727	0.44045	0.87714	0.063
Mof_C 	C 	0.81316	0.45108	0.8935	-0.103
Mof_C 	C 	0.7756	0.43753	0.94163	0
Mof_C 	C 	0.83853	0.41094	0.97795	-0.051
Mof_C 	C 	0.93661	0.3988	0.96437	-0.06
Mof_C 	C 	0.97856	0.41242	0.91394	0.026
Mof_C 	C 	0.079	0.40028	0.89838	-0.096
Mof_C 	C 	0.14227	0.36751	0.9362	0.329
Mof_C 	C 	0.12088	0.41788	0.84764	0.032
Mof_C 	C 	0.2265	0.40966	0.82886	-0.064
Mof_C 	C 	0.26346	0.42856	0.77978	-0.044
Mof_C 	C 	0.19841	0.45541	0.74588	-0.009
Mof_C 	C 	0.0974	0.46386	0.76186	-0.098
Mof_C 	C 	0.05536	0.4464	0.81292	0.059
Mof_C 	C 	0.29617	0.28247	0.91986	-0.031
Mof_C 	C 	0.18353	0.19906	0.11227	0.012
Mof_C 	C 	0.4727	0.30603	0.28893	0.001
Mof_C 	C 	0.4448	0.19622	0.20642	-0.036
Mof_C 	C 	0.7304	0.13485	0.81895	0.057
Mof_C 	C 	0.80969	0.11362	0.84965	-0.1
Mof_C 	C 	0.78771	0.06451	0.88208	-0.007
Mof_C 	C 	0.6858	0.03222	0.88642	-0.043
Mof_C 	C 	0.61006	0.05073	0.85795	-0.067
Mof_C 	C 	0.62934	0.10274	0.82242	0.031
Mof_C 	C 	0.55267	0.12345	0.79174	-0.102
Mof_C 	C 	0.44698	0.09056	0.79242	0.342
Mof_C 	C 	0.57485	0.17534	0.75939	0.038
Mof_C 	C 	0.49864	0.1996	0.72908	-0.069
Mof_C 	C 	0.52242	0.24995	0.69939	-0.037
Mof_C 	C 	0.62567	0.27845	0.69744	-0.016
Mof_C 	C 	0.70225	0.25753	0.72578	-0.09
Mof_C 	C 	0.67794	0.20489	0.75837	0.053
Mof_C 	C 	0.98334	0.0654	0.69028	0.058
Mof_C 	C 	0.96066	0.05135	0.74097	-0.096
Mof_C 	C 	0.86246	0.05756	0.76278	-0.013
Mof_C 	C 	0.7819	0.07944	0.73444	-0.04
Mof_C 	C 	0.8006	0.095	0.6858	-0.066
Mof_C 	C 	0.90219	0.08874	0.66127	0.037
Mof_C 	C 	0.92358	0.1026	0.61096	-0.106
Mof_C 	C 	0.84184	0.12839	0.57897	0.348
Mof_C 	C 	0.02125	0.09333	0.58978	0.031
Mof_C 	C 	0.04769	0.1045	0.53933	-0.068
Mof_C 	C 	0.14344	0.09515	0.52053	-0.044
Mof_C 	C 	0.22213	0.074	0.55161	-0.003
Mof_C 	C 	0.20057	0.06262	0.59921	-0.104
Mof_C 	C 	0.09964	0.0712	0.62078	0.061
Mof_C 	C 	0.02933	0.24575	0.44646	0.054
Mof_C 	C 	0.04277	0.28117	0.46286	-0.096
Mof_C 	C 	0.14931	0.30931	0.45368	-0.012
Mof_C 	C 	0.24742	0.30443	0.42807	-0.042
Mof_C 	C 	0.23777	0.27256	0.41075	-0.066
Mof_C 	C 	0.12921	0.24191	0.41898	0.036
Mof_C 	C 	0.11582	0.20781	0.40225	-0.102
Mof_C 	C 	0.21773	0.20451	0.37102	0.336
Mof_C 	C 	0.00701	0.17727	0.41404	0.026
Mof_C 	C 	0.98843	0.14049	0.4	-0.059
Mof_C 	C 	0.88219	0.11132	0.41235	-0.05
Mof_C 	C 	0.78715	0.1177	0.43925	-0.002
Mof_C 	C 	0.80118	0.15196	0.45392	-0.103
Mof_C 	C 	0.91152	0.18295	0.44189	0.062
Mof_C 	C 	0.79441	0.87714	0.68241	0.062
Mof_C 	C 	0.70666	0.8935	0.65542	-0.102
Mof_C 	C 	0.71723	0.94163	0.62084	-0.001
Mof_C 	C 	0.81648	0.97795	0.61111	-0.05
Mof_C 	C 	0.90098	0.96437	0.63683	-0.061
Mof_C 	C 	0.8925	0.91394	0.67364	0.029
Mof_C 	C 	0.97738	0.89838	0.70134	-0.099
Mof_C 	C 	0.07847	0.9362	0.69629	0.33
Mof_C 	C 	0.96852	0.84764	0.73448	0.033
Mof_C 	C 	0.05536	0.82886	0.76148	-0.065
Mof_C 	C 	0.04324	0.77978	0.79166	-0.041
Mof_C 	C 	0.94429	0.74588	0.79871	-0.013
Mof_C 	C 	0.85926	0.76186	0.77428	-0.096
Mof_C 	C 	0.86828	0.81292	0.74068	0.057
Mof_C 	C 	0.21603	0.91986	0.79767	-0.032
Mof_C 	C 	0.2958	0.11227	0.68867	0.011
Mof_C 	C 	0.76163	0.28893	0.40504	0.001
Mof_C 	C 	0.65122	0.20642	0.59736	-0.036
Mof_C 	C 	0.45065	0.18105	0.9538	0.057
Mof_C 	C 	0.34066	0.15035	0.96327	-0.101
Mof_C 	C 	0.33021	0.11792	0.94659	-0.006
Mof_C 	C 	0.42778	0.11358	0.91864	-0.043
Mof_C 	C 	0.53199	0.14205	0.90868	-0.066
Mof_C 	C 	0.54824	0.17758	0.92516	0.031
Mof_C 	C 	0.65559	0.20826	0.91519	-0.102
Mof_C 	C 	0.7606	0.20758	0.88298	0.342
Mof_C 	C 	0.66576	0.24061	0.93473	0.038
Mof_C 	C 	0.77228	0.27092	0.92868	-0.069
Mof_C 	C 	0.77819	0.30061	0.94934	-0.037
Mof_C 	C 	0.67689	0.30256	0.97589	-0.016
Mof_C 	C 	0.57197	0.27422	0.98331	-0.091
Mof_C 	C 	0.56369	0.24163	0.96326	0.054
Mof_C 	C 	0.32638	0.30972	0.75568	0.058
Mof_C 	C 	0.29837	0.25903	0.79232	-0.098
Mof_C 	C 	0.37476	0.23722	0.82034	-0.012
Mof_C 	C 	0.48366	0.26556	0.81388	-0.04
Mof_C 	C 	0.5136	0.3142	0.7808	-0.065
Mof_C 	C 	0.43654	0.33873	0.75001	0.037
Mof_C 	C 	0.46546	0.38904	0.71356	-0.106
Mof_C 	C 	0.57919	0.42103	0.70736	0.348
Mof_C 	C 	0.38897	0.41022	0.68311	0.031
Mof_C 	C 	0.41298	0.46067	0.64383	-0.065
Mof_C 	C 	0.33603	0.47947	0.61568	-0.046
Mof_C 	C 	0.22626	0.44839	0.62561	-0.002
Mof_C 	C 	0.20022	0.40079	0.66183	-0.105
Mof_C 	C 	0.27958	0.37922	0.69198	0.061
Mof_C 	C 	0.52421	0.55354	0.69221	0.053
Mof_C 	C 	0.49437	0.53714	0.74403	-0.093
Mof_C 	C 	0.39701	0.54632	0.76299	-0.014
Mof_C 	C 	0.32451	0.57193	0.7325	-0.039
Mof_C 	C 	0.35148	0.58925	0.68331	-0.068
Mof_C 	C 	0.45181	0.58102	0.66089	0.038
Mof_C 	C 	0.48193	0.59775	0.61006	-0.104
Mof_C 	C 	0.41125	0.62898	0.57553	0.337
Mof_C 	C 	0.57895	0.58596	0.59131	0.032
Mof_C 	C 	0.61157	0.6	0.54049	-0.067
Mof_C 	C 	0.70546	0.58765	0.52367	-0.044
Mof_C 	C 	0.7736	0.56075	0.55695	-0.007
Mof_C 	C 	0.7449	0.54608	0.60588	-0.099
Mof_C 	C 	0.64659	0.55811	0.62484	0.058
Mof_C 	C 	0.52318	0.31759	0.55955	0.062
Mof_C 	C 	0.63792	0.34458	0.54892	-0.101
Mof_C 	C 	0.66193	0.37916	0.56247	-0.002
Mof_C 	C 	0.57241	0.38889	0.58906	-0.048
Mof_C 	C 	0.46219	0.36317	0.6012	-0.063
Mof_C 	C 	0.43386	0.32636	0.58758	0.029
Mof_C 	C 	0.32128	0.29866	0.59972	-0.098
Mof_C 	C 	0.22524	0.30371	0.63249	0.329
Mof_C 	C 	0.297	0.26552	0.58212	0.033
Mof_C 	C 	0.18316	0.23852	0.59034	-0.066
Mof_C 	C 	0.1651	0.20834	0.57144	-0.042
Mof_C 	C 	0.257	0.20129	0.54459	-0.01
Mof_C 	C 	0.36646	0.22572	0.53614	-0.097
Mof_C 	C 	0.39104	0.25932	0.5536	0.057
Mof_C 	C 	0.9863	0.20233	0.71753	-0.03
Mof_C 	C 	0.01553	0.31133	0.80094	0.014
Mof_C 	C 	0.83333	0.59496	0.69397	0.001
Mof_C 	C 	0.75142	0.40264	0.80378	-0.036
Mof_C 	C 	0.40445	0.9538	0.86515	0.057
Mof_C 	C 	0.30393	0.96327	0.88638	-0.1
Mof_C 	C 	0.2768	0.94659	0.93549	-0.008
Mof_C 	C 	0.34642	0.91864	0.96778	-0.041
Mof_C 	C 	0.44067	0.90868	0.94927	-0.067
Mof_C 	C 	0.4734	0.92516	0.89726	0.032
Mof_C 	C 	0.57078	0.91519	0.87655	-0.103
Mof_C 	C 	0.64358	0.88298	0.90944	0.342
Mof_C 	C 	0.60049	0.93473	0.82466	0.038
Mof_C 	C 	0.70096	0.92868	0.8004	-0.069
Mof_C 	C 	0.72753	0.94934	0.75005	-0.037
Mof_C 	C 	0.65278	0.97589	0.72155	-0.016
Mof_C 	C 	0.55528	0.98331	0.74247	-0.09
Mof_C 	C 	0.52695	0.96326	0.79511	0.053
Mof_C 	C 	0.08206	0.75568	0.9346	0.059
Mof_C 	C 	0.09069	0.79232	0.94865	-0.099
Mof_C 	C 	0.1951	0.82034	0.94244	-0.012
Mof_C 	C 	0.29754	0.81388	0.92056	-0.041
Mof_C 	C 	0.2944	0.7808	0.905	-0.065
Mof_C 	C 	0.18655	0.75001	0.91126	0.036
Mof_C 	C 	0.17902	0.71356	0.8974	-0.106
Mof_C 	C 	0.28655	0.70736	0.87161	0.348
Mof_C 	C 	0.07208	0.68311	0.90667	0.031
Mof_C 	C 	0.05681	0.64383	0.8955	-0.063
Mof_C 	C 	0.95171	0.61568	0.90485	-0.049
Mof_C 	C 	0.85187	0.62561	0.926	-0.001
Mof_C 	C 	0.86205	0.66183	0.93738	-0.106
Mof_C 	C 	0.97156	0.69198	0.9288	0.061
Mof_C 	C 	0.21642	0.69221	0.75425	0.055
Mof_C 	C 	0.2384	0.74403	0.71883	-0.095
Mof_C 	C 	0.16	0.76299	0.69069	-0.012
Mof_C 	C 	0.05701	0.7325	0.69557	-0.043
Mof_C 	C 	0.03479	0.68331	0.72744	-0.062
Mof_C 	C 	0.1127	0.66089	0.75809	0.035
Mof_C 	C 	0.09199	0.61006	0.79219	-0.102
Mof_C 	C 	0.98678	0.57553	0.79549	0.334
Mof_C 	C 	0.17026	0.59131	0.82273	0.031
Mof_C 	C 	0.15206	0.54049	0.85951	-0.066
Mof_C 	C 	0.22913	0.52367	0.88868	-0.045
Mof_C 	C 	0.33055	0.55695	0.8823	-0.007
Mof_C 	C 	0.35078	0.60588	0.84804	-0.099
Mof_C 	C 	0.27143	0.62484	0.81705	0.058
Mof_C 	C 	0.08273	0.55955	0.12286	0.063
Mof_C 	C 	0.18684	0.54892	0.1065	-0.103
Mof_C 	C 	0.2244	0.56247	0.05837	0
Mof_C 	C 	0.16147	0.58906	0.02205	-0.051
Mof_C 	C 	0.06339	0.6012	0.03563	-0.06
Mof_C 	C 	0.02144	0.58758	0.08606	0.026
Mof_C 	C 	0.921	0.59972	0.10162	-0.096
Mof_C 	C 	0.85773	0.63249	0.0638	0.329
Mof_C 	C 	0.87912	0.58212	0.15236	0.032
Mof_C 	C 	0.7735	0.59034	0.17114	-0.064
Mof_C 	C 	0.73654	0.57144	0.22022	-0.044
Mof_C 	C 	0.80159	0.54459	0.25412	-0.009
Mof_C 	C 	0.9026	0.53614	0.23814	-0.098
Mof_C 	C 	0.94464	0.5536	0.18708	0.059
Mof_C 	C 	0.70383	0.71753	0.08014	-0.031
Mof_C 	C 	0.81647	0.80094	0.88773	0.012
Mof_C 	C 	0.5273	0.69397	0.71107	0.001
Mof_C 	C 	0.5552	0.80378	0.79358	-0.036
Mof_C 	C 	0.2696	0.86515	0.18105	0.057
Mof_C 	C 	0.19031	0.88638	0.15035	-0.1
Mof_C 	C 	0.21229	0.93549	0.11792	-0.007
Mof_C 	C 	0.3142	0.96778	0.11358	-0.043
Mof_C 	C 	0.38994	0.94927	0.14205	-0.067
Mof_C 	C 	0.37066	0.89726	0.17758	0.031
Mof_C 	C 	0.44733	0.87655	0.20826	-0.102
Mof_C 	C 	0.55302	0.90944	0.20758	0.342
Mof_C 	C 	0.42515	0.82466	0.24061	0.038
Mof_C 	C 	0.50136	0.8004	0.27092	-0.069
Mof_C 	C 	0.47758	0.75005	0.30061	-0.037
Mof_C 	C 	0.37433	0.72155	0.30256	-0.016
Mof_C 	C 	0.29775	0.74247	0.27422	-0.09
Mof_C 	C 	0.32206	0.79511	0.24163	0.053
Mof_C 	C 	0.01666	0.9346	0.30972	0.058
Mof_C 	C 	0.03934	0.94865	0.25903	-0.096
Mof_C 	C 	0.13754	0.94244	0.23722	-0.013
Mof_C 	C 	0.2181	0.92056	0.26556	-0.04
Mof_C 	C 	0.1994	0.905	0.3142	-0.066
Mof_C 	C 	0.09781	0.91126	0.33873	0.037
Mof_C 	C 	0.07642	0.8974	0.38904	-0.106
Mof_C 	C 	0.15816	0.87161	0.42103	0.348
Mof_C 	C 	0.97875	0.90667	0.41022	0.031
Mof_C 	C 	0.95231	0.8955	0.46067	-0.068
Mof_C 	C 	0.85656	0.90485	0.47947	-0.044
Mof_C 	C 	0.77787	0.926	0.44839	-0.003
Mof_C 	C 	0.79943	0.93738	0.40079	-0.104
Mof_C 	C 	0.90036	0.9288	0.37922	0.061
Mof_C 	C 	0.97067	0.75425	0.55354	0.054
Mof_C 	C 	0.95723	0.71883	0.53714	-0.096
Mof_C 	C 	0.85069	0.69069	0.54632	-0.012
Mof_C 	C 	0.75258	0.69557	0.57193	-0.042
Mof_C 	C 	0.76223	0.72744	0.58925	-0.066
Mof_C 	C 	0.87079	0.75809	0.58102	0.036
Mof_C 	C 	0.88418	0.79219	0.59775	-0.102
Mof_C 	C 	0.78227	0.79549	0.62898	0.336
Mof_C 	C 	0.99299	0.82273	0.58596	0.026
Mof_C 	C 	0.01157	0.85951	0.6	-0.059
Mof_C 	C 	0.11781	0.88868	0.58765	-0.05
Mof_C 	C 	0.21285	0.8823	0.56075	-0.002
Mof_C 	C 	0.19882	0.84804	0.54608	-0.103
Mof_C 	C 	0.08848	0.81705	0.55811	0.062
Mof_C 	C 	0.20559	0.12286	0.31759	0.062
Mof_C 	C 	0.29334	0.1065	0.34458	-0.102
Mof_C 	C 	0.28277	0.05837	0.37916	-0.001
Mof_C 	C 	0.18352	0.02205	0.38889	-0.05
Mof_C 	C 	0.09902	0.03563	0.36317	-0.061
Mof_C 	C 	0.1075	0.08606	0.32636	0.029
Mof_C 	C 	0.02262	0.10162	0.29866	-0.099
Mof_C 	C 	0.92153	0.0638	0.30371	0.33
Mof_C 	C 	0.03148	0.15236	0.26552	0.033
Mof_C 	C 	0.94464	0.17114	0.23852	-0.065
Mof_C 	C 	0.95676	0.22022	0.20834	-0.041
Mof_C 	C 	0.05571	0.25412	0.20129	-0.013
Mof_C 	C 	0.14074	0.23814	0.22572	-0.096
Mof_C 	C 	0.13172	0.18708	0.25932	0.057
Mof_C 	C 	0.78397	0.08014	0.20233	-0.032
Mof_C 	C 	0.7042	0.88773	0.31133	0.011
Mof_C 	C 	0.23837	0.71107	0.59496	0.001
Mof_C 	C 	0.34878	0.79358	0.40264	-0.036
Mof_N 	N 	0.54168	0.78752	0.02728	-0.217
Mof_N 	N 	0.74847	0.66941	0.2728	-0.217
Mof_N 	N 	0.38049	0.45785	0.32548	-0.217
Mof_N 	N 	0.5	0.71525	0.45625	-0.218
Mof_N 	N 	0.56896	0.02728	0.1852	-0.217
Mof_N 	N 	0.02127	0.2728	0.05779	-0.218
Mof_N 	N 	0.70597	0.32548	0.21667	-0.218
Mof_N 	N 	0.95625	0.45625	0.8285	-0.219
Mof_N 	N 	0.75416	0.1852	0.78752	-0.217
Mof_N 	N 	0.07906	0.05779	0.66941	-0.217
Mof_N 	N 	0.92264	0.21667	0.45785	-0.218
Mof_N 	N 	0.78475	0.8285	0.71525	-0.218
Mof_N 	N 	0.45832	0.21248	0.97272	-0.217
Mof_N 	N 	0.25153	0.33059	0.7272	-0.217
Mof_N 	N 	0.61951	0.54215	0.67452	-0.217
Mof_N 	N 	0.5	0.28475	0.54375	-0.218
Mof_N 	N 	0.43104	0.97272	0.8148	-0.217
Mof_N 	N 	0.97873	0.7272	0.94221	-0.218
Mof_N 	N 	0.29403	0.67452	0.78333	-0.218
Mof_N 	N 	0.04375	0.54375	0.1715	-0.219
Mof_N 	N 	0.24584	0.8148	0.21248	-0.217
Mof_N 	N 	0.92094	0.94221	0.33059	-0.217
Mof_N 	N 	0.07736	0.78333	0.54215	-0.218
Mof_N 	N 	0.21525	0.1715	0.28475	-0.218
Mof_O 	O 	0.22803	0.76151	0.16312	-0.398
Mof_O 	O 	0.17857	0.82134	0.09803	-0.305
Mof_O 	O 	0.42469	0.55977	0.2648	-0.403
Mof_O 	O 	0.33772	0.5725	0.32334	-0.304
Mof_O 	O 	0.55592	0.32467	0.44091	-0.396
Mof_O 	O 	0.66878	0.39127	0.43383	-0.302
Mof_O 	O 	0.77758	0.72276	0.32102	-0.396
Mof_O 	O 	0.84116	0.66889	0.38601	-0.295
Mof_O 	O 	0.00614	0.7683	0.25898	-0.449
Mof_O 	O 	0.99216	0.71799	0.22151	-0.455
Mof_O 	O 	0.1882	0.45696	0.27626	-0.454
Mof_O 	O 	0.22956	0.54437	0.22429	-0.448
Mof_O 	O 	0.39115	0.16312	0.07537	-0.398
Mof_O 	O 	0.2766	0.09803	0.08063	-0.305
Mof_O 	O 	0.68949	0.2648	0.17543	-0.403
Mof_O 	O 	0.66106	0.32334	0.10416	-0.304
Mof_O 	O 	0.99683	0.44091	0.23442	-0.394
Mof_O 	O 	0.10261	0.43383	0.1749	-0.301
Mof_O 	O 	0.0986	0.32102	0.95622	-0.395
Mof_O 	O 	0.22717	0.38601	0.9451	-0.294
Mof_O 	O 	0.26512	0.25898	0.97272	-0.448
Mof_O 	O 	0.21367	0.22151	0.0605	-0.454
Mof_O 	O 	0.46446	0.27626	0.26678	-0.454
Mof_O 	O 	0.45385	0.22429	0.23134	-0.448
Mof_O 	O 	0.46652	0.07537	0.76151	-0.398
Mof_O 	O 	0.35723	0.08063	0.82134	-0.305
Mof_O 	O 	0.86492	0.17543	0.55977	-0.403
Mof_O 	O 	0.76522	0.10416	0.5725	-0.304
Mof_O 	O 	0.23125	0.23442	0.32467	-0.396
Mof_O 	O 	0.27751	0.1749	0.39127	-0.302
Mof_O 	O 	0.05482	0.95622	0.72276	-0.396
Mof_O 	O 	0.17227	0.9451	0.66889	-0.294
Mof_O 	O 	0.23784	0.97272	0.7683	-0.448
Mof_O 	O 	0.27417	0.0605	0.71799	-0.454
Mof_O 	O 	0.73124	0.26678	0.45696	-0.454
Mof_O 	O 	0.68519	0.23134	0.54437	-0.448
Mof_O 	O 	0.77197	0.23849	0.83688	-0.398
Mof_O 	O 	0.82143	0.17866	0.90197	-0.305
Mof_O 	O 	0.57531	0.44023	0.7352	-0.403
Mof_O 	O 	0.66228	0.4275	0.67666	-0.304
Mof_O 	O 	0.44408	0.67533	0.55909	-0.396
Mof_O 	O 	0.33122	0.60873	0.56617	-0.302
Mof_O 	O 	0.22242	0.27724	0.67898	-0.396
Mof_O 	O 	0.15884	0.33111	0.61399	-0.295
Mof_O 	O 	0.99386	0.2317	0.74102	-0.449
Mof_O 	O 	0.00784	0.28201	0.77849	-0.455
Mof_O 	O 	0.8118	0.54304	0.72374	-0.454
Mof_O 	O 	0.77044	0.45563	0.77571	-0.448
Mof_O 	O 	0.60885	0.83688	0.92463	-0.398
Mof_O 	O 	0.7234	0.90197	0.91937	-0.305
Mof_O 	O 	0.31051	0.7352	0.82457	-0.403
Mof_O 	O 	0.33894	0.67666	0.89584	-0.304
Mof_O 	O 	0.00317	0.55909	0.76558	-0.394
Mof_O 	O 	0.89739	0.56617	0.8251	-0.301
Mof_O 	O 	0.9014	0.67898	0.04378	-0.395
Mof_O 	O 	0.77283	0.61399	0.0549	-0.294
Mof_O 	O 	0.73488	0.74102	0.02728	-0.448
Mof_O 	O 	0.78633	0.77849	0.9395	-0.454
Mof_O 	O 	0.53554	0.72374	0.73322	-0.454
Mof_O 	O 	0.54615	0.77571	0.76866	-0.448
Mof_O 	O 	0.53348	0.92463	0.23849	-0.398
Mof_O 	O 	0.64277	0.91937	0.17866	-0.305
Mof_O 	O 	0.13508	0.82457	0.44023	-0.403
Mof_O 	O 	0.23478	0.89584	0.4275	-0.304
Mof_O 	O 	0.76875	0.76558	0.67533	-0.396
Mof_O 	O 	0.72249	0.8251	0.60873	-0.302
Mof_O 	O 	0.94518	0.04378	0.27724	-0.396
Mof_O 	O 	0.82773	0.0549	0.33111	-0.294
Mof_O 	O 	0.76216	0.02728	0.2317	-0.448
Mof_O 	O 	0.72583	0.9395	0.28201	-0.454
Mof_O 	O 	0.26876	0.73322	0.54304	-0.454
Mof_O 	O 	0.31481	0.76866	0.45563	-0.448
_end
