# CIF file generated by openbabel 3.1.0, see https://openbabel.org
data_I
_chemical_name_common 'image0'
_cell_length_a 27.581
_cell_length_b 27.581
_cell_length_c 43.468
_cell_angle_alpha 90
_cell_angle_beta 90
_cell_angle_gamma 90
_space_group_name_H-M_alt 'P 1'
_space_group_name_Hall 'P 1'
loop_
    _symmetry_equiv_pos_as_xyz
    x,y,z
loop_
    _atom_site_label
    _atom_site_type_symbol
    _atom_site_fract_x
    _atom_site_fract_y
    _atom_site_fract_z
    _atom_site_occupancy
    C1       C        0.22140    0.23970    0.27654    1.000
    C2       C        0.20020    0.25890    0.25041    1.000
    C3       C        0.16150    0.23540    0.23670    1.000
    H1       H        0.14690    0.24860    0.21880    1.000
    C4       C        0.14400    0.19260    0.24910    1.000
    H2       H        0.11750    0.17640    0.23970    1.000
    C5       C        0.16530    0.17330    0.27520    1.000
    H3       H        0.15330    0.14400    0.28370    1.000
    C6       C        0.20400    0.19690    0.28900    1.000
    C7       C        0.22730    0.16810    0.31750    1.000
    H4       H        0.25620    0.18830    0.32290    1.000
    C8       C        0.20460    0.15660    0.34920    1.000
    H5       H        0.22880    0.14040    0.36220    1.000
    H6       H        0.17660    0.13520    0.34640    1.000
    H7       H        0.19420    0.18680    0.35900    1.000
    C9       C        0.24990    0.12360    0.30200    1.000
    H8       H        0.26820    0.10490    0.31730    1.000
    H9       H        0.27180    0.13420    0.28550    1.000
    H10      H        0.22420    0.10330    0.29330    1.000
    C10      C        0.22100    0.30490    0.23680    1.000
    H11      H        0.25430    0.31310    0.24430    1.000
    C11      C        0.18400    0.34390    0.24230    1.000
    H12      H        0.17780    0.34680    0.26440    1.000
    H13      H        0.15380    0.33550    0.23170    1.000
    H14      H        0.19620    0.37480    0.23440    1.000
    C12      C        0.21750    0.29920    0.20170    1.000
    H15      H        0.24120    0.27510    0.19470    1.000
    H16      H        0.22420    0.33040    0.19180    1.000
    H17      H        0.18480    0.28840    0.19620    1.000
    C13      C        0.38570    0.49377    0.40065    1.000
    C14      C        0.37180    0.53740    0.38898    1.000
    C15      C        0.37240    0.57750    0.40712    1.000
    H18      H        0.36270    0.60790    0.39900    1.000
    C16      C        0.38690    0.57410    0.43694    1.000
    H19      H        0.38740    0.60210    0.44960    1.000
    C17      C        0.40090    0.53050    0.44862    1.000
    H20      H        0.41100    0.52810    0.46940    1.000
    C18      C        0.40030    0.49035    0.43047    1.000
    C19      C        0.41580    0.44140    0.44270    1.000
    H21      H        0.40830    0.41540    0.42740    1.000
    C20      C        0.39430    0.42880    0.47410    1.000
    H22      H        0.35890    0.42850    0.47260    1.000
    H23      H        0.40450    0.45310    0.48920    1.000
    H24      H        0.40590    0.39670    0.48050    1.000
    C21      C        0.46700    0.43630    0.45420    1.000
    H25      H        0.47230    0.40300    0.46120    1.000
    H26      H        0.47230    0.45880    0.47130    1.000
    H27      H        0.48970    0.44380    0.43750    1.000
    C22      C        0.43160    0.22090    0.41250    1.000
    H28      H        0.43240    0.19630    0.39730    1.000
    C23      C        0.46100    0.21690    0.43770    1.000
    H29      H        0.48360    0.19100    0.43940    1.000
    C24      C        0.45710    0.25240    0.46139    1.000
    C25      C        0.48900    0.24770    0.48963    1.000
    C26      C        0.42510    0.28870    0.45782    1.000
    H30      H        0.42130    0.31220    0.47360    1.000
    C27      C        0.39770    0.29160    0.43120    1.000
    H31      H        0.37550    0.31770    0.42860    1.000
    C28      C        0.50640    0.26860    0.54157    1.000
    H32      H        0.49700    0.28550    0.55970    1.000
    C29      C        0.47570    0.26850    0.51670    1.000
    H33      H        0.44470    0.28330    0.51840    1.000
    C30      C        0.53170    0.22340    0.48880    1.000
    H34      H        0.54140    0.20640    0.47080    1.000
    C31      C        0.56160    0.22370    0.51506    1.000
    H35      H        0.59200    0.20760    0.51420    1.000
    N1       N        0.40220    0.25840    0.40904    1.000
    N2       N        0.54860    0.24590    0.54115    1.000
    O1       O        0.38500    0.45330    0.38200    1.000
    O2       O        0.35572    0.36703    0.38072    1.000
    O3       O        0.31630    0.42930    0.34766    1.000
    O4       O        0.30470    0.43270    0.40489    1.000
    O5       O        0.26290    0.26010    0.28883    1.000
    O6       O        0.30130    0.28113    0.33846    1.000
    O7       O        0.26320    0.34626    0.30674    1.000
    O8       O        0.21050    0.28500    0.33312    1.000
    O9       O        0.37640    0.26350    0.38316    1.000
    P1       P        0.33592    0.41791    0.37871    1.000
    P2       P        0.25889    0.29618    0.31924    1.000
    Zn1      Zn       0.31648    0.30863    0.37807    1.000
    Zn2      Zn       0.25624    0.40563    0.33049    1.000
    C32      C        0.35650    0.54280    0.35550    1.000
    H36      H        0.35910    0.51070    0.34500    1.000
    C33      C        0.30310    0.55880    0.35600    1.000
    H37      H        0.29150    0.56280    0.33480    1.000
    H38      H        0.30020    0.58970    0.36690    1.000
    H39      H        0.28360    0.53410    0.36640    1.000
    C34      C        0.39310    0.57910    0.34040    1.000
    H40      H        0.42620    0.56680    0.34300    1.000
    H41      H        0.39030    0.61080    0.35050    1.000
    H42      H        0.38570    0.58240    0.31850    1.000
    C35      C        0.72140    0.73970    0.77654    1.000
    C36      C        0.70020    0.75890    0.75041    1.000
    C37      C        0.66150    0.73540    0.73670    1.000
    H43      H        0.64690    0.74860    0.71880    1.000
    C38      C        0.64400    0.69260    0.74910    1.000
    H44      H        0.61750    0.67640    0.73970    1.000
    C39      C        0.66530    0.67330    0.77520    1.000
    H45      H        0.65330    0.64400    0.78370    1.000
    C40      C        0.70400    0.69690    0.78900    1.000
    C41      C        0.72730    0.66810    0.81750    1.000
    H46      H        0.75620    0.68830    0.82290    1.000
    C42      C        0.70460    0.65660    0.84920    1.000
    H47      H        0.72880    0.64040    0.86220    1.000
    H48      H        0.67660    0.63520    0.84640    1.000
    H49      H        0.69420    0.68680    0.85900    1.000
    C43      C        0.74990    0.62360    0.80200    1.000
    H50      H        0.76820    0.60490    0.81730    1.000
    H51      H        0.77180    0.63420    0.78550    1.000
    H52      H        0.72420    0.60330    0.79330    1.000
    C44      C        0.72100    0.80490    0.73680    1.000
    H53      H        0.75430    0.81310    0.74430    1.000
    C45      C        0.68400    0.84390    0.74230    1.000
    H54      H        0.67780    0.84680    0.76440    1.000
    H55      H        0.65380    0.83550    0.73170    1.000
    H56      H        0.69620    0.87480    0.73440    1.000
    C46      C        0.71750    0.79920    0.70170    1.000
    H57      H        0.74120    0.77510    0.69470    1.000
    H58      H        0.72420    0.83040    0.69180    1.000
    H59      H        0.68480    0.78840    0.69620    1.000
    C47      C        0.88570    0.99377    0.90065    1.000
    C48      C        0.87180    0.03740    0.88898    1.000
    C49      C        0.87240    0.07750    0.90712    1.000
    H60      H        0.86270    0.10790    0.89900    1.000
    C50      C        0.88690    0.07410    0.93694    1.000
    H61      H        0.88740    0.10210    0.94960    1.000
    C51      C        0.90090    0.03050    0.94862    1.000
    H62      H        0.91100    0.02810    0.96940    1.000
    C52      C        0.90030    0.99035    0.93047    1.000
    C53      C        0.91580    0.94140    0.94270    1.000
    H63      H        0.90830    0.91540    0.92740    1.000
    C54      C        0.89430    0.92880    0.97410    1.000
    H64      H        0.85890    0.92850    0.97260    1.000
    H65      H        0.90450    0.95310    0.98920    1.000
    H66      H        0.90590    0.89670    0.98050    1.000
    C55      C        0.96700    0.93630    0.95420    1.000
    H67      H        0.97230    0.90300    0.96120    1.000
    H68      H        0.97230    0.95880    0.97130    1.000
    H69      H        0.98970    0.94380    0.93750    1.000
    C56      C        0.93160    0.72090    0.91250    1.000
    H70      H        0.93240    0.69630    0.89730    1.000
    C57      C        0.96100    0.71690    0.93770    1.000
    H71      H        0.98360    0.69100    0.93940    1.000
    C58      C        0.95710    0.75240    0.96139    1.000
    C59      C        0.98900    0.74770    0.98963    1.000
    C60      C        0.92510    0.78870    0.95782    1.000
    H72      H        0.92130    0.81220    0.97360    1.000
    C61      C        0.89770    0.79160    0.93120    1.000
    H73      H        0.87550    0.81770    0.92860    1.000
    C62      C        0.00640    0.76860    0.04157    1.000
    H74      H        0.99700    0.78550    0.05970    1.000
    C63      C        0.97570    0.76850    0.01670    1.000
    H75      H        0.94470    0.78330    0.01840    1.000
    C64      C        0.03170    0.72340    0.98880    1.000
    H76      H        0.04140    0.70640    0.97080    1.000
    C65      C        0.06160    0.72370    0.01506    1.000
    H77      H        0.09200    0.70760    0.01420    1.000
    N3       N        0.90220    0.75840    0.90904    1.000
    N4       N        0.04860    0.74590    0.04115    1.000
    O10      O        0.88500    0.95330    0.88200    1.000
    O11      O        0.85572    0.86703    0.88072    1.000
    O12      O        0.81630    0.92930    0.84766    1.000
    O13      O        0.80470    0.93270    0.90489    1.000
    O14      O        0.76290    0.76010    0.78883    1.000
    O15      O        0.80130    0.78113    0.83846    1.000
    O16      O        0.76320    0.84626    0.80674    1.000
    O17      O        0.71050    0.78500    0.83312    1.000
    O18      O        0.87640    0.76350    0.88316    1.000
    P3       P        0.83592    0.91791    0.87871    1.000
    P4       P        0.75889    0.79618    0.81924    1.000
    Zn3      Zn       0.81648    0.80863    0.87807    1.000
    Zn4      Zn       0.75624    0.90563    0.83049    1.000
    C66      C        0.85650    0.04280    0.85550    1.000
    H78      H        0.85910    0.01070    0.84500    1.000
    C67      C        0.80310    0.05880    0.85600    1.000
    H79      H        0.79150    0.06280    0.83480    1.000
    H80      H        0.80020    0.08970    0.86690    1.000
    H81      H        0.78360    0.03410    0.86640    1.000
    C68      C        0.89310    0.07910    0.84040    1.000
    H82      H        0.92620    0.06680    0.84300    1.000
    H83      H        0.89030    0.11080    0.85050    1.000
    H84      H        0.88570    0.08240    0.81850    1.000
    C69      C        0.77860    0.76030    0.27654    1.000
    C70      C        0.79980    0.74110    0.25041    1.000
    C71      C        0.83850    0.76460    0.23670    1.000
    H85      H        0.85310    0.75140    0.21880    1.000
    C72      C        0.85600    0.80740    0.24910    1.000
    H86      H        0.88250    0.82360    0.23970    1.000
    C73      C        0.83470    0.82670    0.27520    1.000
    H87      H        0.84670    0.85600    0.28370    1.000
    C74      C        0.79600    0.80310    0.28900    1.000
    C75      C        0.77270    0.83190    0.31750    1.000
    H88      H        0.74380    0.81170    0.32290    1.000
    C76      C        0.79540    0.84340    0.34920    1.000
    H89      H        0.77120    0.85960    0.36220    1.000
    H90      H        0.82340    0.86480    0.34640    1.000
    H91      H        0.80580    0.81320    0.35900    1.000
    C77      C        0.75010    0.87640    0.30200    1.000
    H92      H        0.73180    0.89510    0.31730    1.000
    H93      H        0.72820    0.86580    0.28550    1.000
    H94      H        0.77580    0.89670    0.29330    1.000
    C78      C        0.77900    0.69510    0.23680    1.000
    H95      H        0.74570    0.68690    0.24430    1.000
    C79      C        0.81600    0.65610    0.24230    1.000
    H96      H        0.82220    0.65320    0.26440    1.000
    H97      H        0.84620    0.66450    0.23170    1.000
    H98      H        0.80380    0.62520    0.23440    1.000
    C80      C        0.78250    0.70080    0.20170    1.000
    H99      H        0.75880    0.72490    0.19470    1.000
    H100     H        0.77580    0.66960    0.19180    1.000
    H101     H        0.81520    0.71160    0.19620    1.000
    C81      C        0.61430    0.50623    0.40065    1.000
    C82      C        0.62820    0.46260    0.38898    1.000
    C83      C        0.62760    0.42250    0.40712    1.000
    H102     H        0.63730    0.39210    0.39900    1.000
    C84      C        0.61310    0.42590    0.43694    1.000
    H103     H        0.61260    0.39790    0.44960    1.000
    C85      C        0.59910    0.46950    0.44862    1.000
    H104     H        0.58900    0.47190    0.46940    1.000
    C86      C        0.59970    0.50965    0.43047    1.000
    C87      C        0.58420    0.55860    0.44270    1.000
    H105     H        0.59170    0.58460    0.42740    1.000
    C88      C        0.60570    0.57120    0.47410    1.000
    H106     H        0.64110    0.57150    0.47260    1.000
    H107     H        0.59550    0.54690    0.48920    1.000
    H108     H        0.59410    0.60330    0.48050    1.000
    C89      C        0.53300    0.56370    0.45420    1.000
    H109     H        0.52770    0.59700    0.46120    1.000
    H110     H        0.52770    0.54120    0.47130    1.000
    H111     H        0.51030    0.55620    0.43750    1.000
    C90      C        0.56840    0.77910    0.41250    1.000
    H112     H        0.56760    0.80370    0.39730    1.000
    C91      C        0.53900    0.78310    0.43770    1.000
    H113     H        0.51640    0.80900    0.43940    1.000
    C92      C        0.54290    0.74760    0.46139    1.000
    C93      C        0.51100    0.75230    0.48963    1.000
    C94      C        0.57490    0.71130    0.45782    1.000
    H114     H        0.57870    0.68780    0.47360    1.000
    C95      C        0.60230    0.70840    0.43120    1.000
    H115     H        0.62450    0.68230    0.42860    1.000
    C96      C        0.49360    0.73140    0.54157    1.000
    H116     H        0.50300    0.71450    0.55970    1.000
    C97      C        0.52430    0.73150    0.51670    1.000
    H117     H        0.55530    0.71670    0.51840    1.000
    C98      C        0.46830    0.77660    0.48880    1.000
    H118     H        0.45860    0.79360    0.47080    1.000
    C99      C        0.43840    0.77630    0.51506    1.000
    H119     H        0.40800    0.79240    0.51420    1.000
    N5       N        0.59780    0.74160    0.40904    1.000
    N6       N        0.45140    0.75410    0.54115    1.000
    O19      O        0.61500    0.54670    0.38200    1.000
    O20      O        0.64428    0.63297    0.38072    1.000
    O21      O        0.68370    0.57070    0.34766    1.000
    O22      O        0.69530    0.56730    0.40489    1.000
    O23      O        0.73710    0.73990    0.28883    1.000
    O24      O        0.69870    0.71887    0.33846    1.000
    O25      O        0.73680    0.65374    0.30674    1.000
    O26      O        0.78950    0.71500    0.33312    1.000
    O27      O        0.62360    0.73650    0.38316    1.000
    P5       P        0.66408    0.58209    0.37871    1.000
    P6       P        0.74111    0.70382    0.31924    1.000
    Zn5      Zn       0.68352    0.69137    0.37807    1.000
    Zn6      Zn       0.74376    0.59437    0.33049    1.000
    C100     C        0.64350    0.45720    0.35550    1.000
    H120     H        0.64090    0.48930    0.34500    1.000
    C101     C        0.69690    0.44120    0.35600    1.000
    H121     H        0.70850    0.43720    0.33480    1.000
    H122     H        0.69980    0.41030    0.36690    1.000
    H123     H        0.71640    0.46590    0.36640    1.000
    C102     C        0.60690    0.42090    0.34040    1.000
    H124     H        0.57380    0.43320    0.34300    1.000
    H125     H        0.60970    0.38920    0.35050    1.000
    H126     H        0.61430    0.41760    0.31850    1.000
    C103     C        0.27860    0.26030    0.77654    1.000
    C104     C        0.29980    0.24110    0.75041    1.000
    C105     C        0.33850    0.26460    0.73670    1.000
    H127     H        0.35310    0.25140    0.71880    1.000
    C106     C        0.35600    0.30740    0.74910    1.000
    H128     H        0.38250    0.32360    0.73970    1.000
    C107     C        0.33470    0.32670    0.77520    1.000
    H129     H        0.34670    0.35600    0.78370    1.000
    C108     C        0.29600    0.30310    0.78900    1.000
    C109     C        0.27270    0.33190    0.81750    1.000
    H130     H        0.24380    0.31170    0.82290    1.000
    C110     C        0.29540    0.34340    0.84920    1.000
    H131     H        0.27120    0.35960    0.86220    1.000
    H132     H        0.32340    0.36480    0.84640    1.000
    H133     H        0.30580    0.31320    0.85900    1.000
    C111     C        0.25010    0.37640    0.80200    1.000
    H134     H        0.23180    0.39510    0.81730    1.000
    H135     H        0.22820    0.36580    0.78550    1.000
    H136     H        0.27580    0.39670    0.79330    1.000
    C112     C        0.27900    0.19510    0.73680    1.000
    H137     H        0.24570    0.18690    0.74430    1.000
    C113     C        0.31600    0.15610    0.74230    1.000
    H138     H        0.32220    0.15320    0.76440    1.000
    H139     H        0.34620    0.16450    0.73170    1.000
    H140     H        0.30380    0.12520    0.73440    1.000
    C114     C        0.28250    0.20080    0.70170    1.000
    H141     H        0.25880    0.22490    0.69470    1.000
    H142     H        0.27580    0.16960    0.69180    1.000
    H143     H        0.31520    0.21160    0.69620    1.000
    C115     C        0.11430    0.00623    0.90065    1.000
    C116     C        0.12820    0.96260    0.88898    1.000
    C117     C        0.12760    0.92250    0.90712    1.000
    H144     H        0.13730    0.89210    0.89900    1.000
    C118     C        0.11310    0.92590    0.93694    1.000
    H145     H        0.11260    0.89790    0.94960    1.000
    C119     C        0.09910    0.96950    0.94862    1.000
    H146     H        0.08900    0.97190    0.96940    1.000
    C120     C        0.09970    0.00965    0.93047    1.000
    C121     C        0.08420    0.05860    0.94270    1.000
    H147     H        0.09170    0.08460    0.92740    1.000
    C122     C        0.10570    0.07120    0.97410    1.000
    H148     H        0.14110    0.07150    0.97260    1.000
    H149     H        0.09550    0.04690    0.98920    1.000
    H150     H        0.09410    0.10330    0.98050    1.000
    C123     C        0.03300    0.06370    0.95420    1.000
    H151     H        0.02770    0.09700    0.96120    1.000
    H152     H        0.02770    0.04120    0.97130    1.000
    H153     H        0.01030    0.05620    0.93750    1.000
    C124     C        0.06840    0.27910    0.91250    1.000
    H154     H        0.06760    0.30370    0.89730    1.000
    C125     C        0.03900    0.28310    0.93770    1.000
    H155     H        0.01640    0.30900    0.93940    1.000
    C126     C        0.04290    0.24760    0.96139    1.000
    C127     C        0.01100    0.25230    0.98963    1.000
    C128     C        0.07490    0.21130    0.95782    1.000
    H156     H        0.07870    0.18780    0.97360    1.000
    C129     C        0.10230    0.20840    0.93120    1.000
    H157     H        0.12450    0.18230    0.92860    1.000
    C130     C        0.99360    0.23140    0.04157    1.000
    H158     H        0.00300    0.21450    0.05970    1.000
    C131     C        0.02430    0.23150    0.01670    1.000
    H159     H        0.05530    0.21670    0.01840    1.000
    C132     C        0.96830    0.27660    0.98880    1.000
    H160     H        0.95860    0.29360    0.97080    1.000
    C133     C        0.93840    0.27630    0.01506    1.000
    H161     H        0.90800    0.29240    0.01420    1.000
    N7       N        0.09780    0.24160    0.90904    1.000
    N8       N        0.95140    0.25410    0.04115    1.000
    O28      O        0.11500    0.04670    0.88200    1.000
    O29      O        0.14428    0.13297    0.88072    1.000
    O30      O        0.18370    0.07070    0.84766    1.000
    O31      O        0.19530    0.06730    0.90489    1.000
    O32      O        0.23710    0.23990    0.78883    1.000
    O33      O        0.19870    0.21887    0.83846    1.000
    O34      O        0.23680    0.15374    0.80674    1.000
    O35      O        0.28950    0.21500    0.83312    1.000
    O36      O        0.12360    0.23650    0.88316    1.000
    P7       P        0.16408    0.08209    0.87871    1.000
    P8       P        0.24111    0.20382    0.81924    1.000
    Zn7      Zn       0.18352    0.19137    0.87807    1.000
    Zn8      Zn       0.24376    0.09437    0.83049    1.000
    C134     C        0.14350    0.95720    0.85550    1.000
    H162     H        0.14090    0.98930    0.84500    1.000
    C135     C        0.19690    0.94120    0.85600    1.000
    H163     H        0.20850    0.93720    0.83480    1.000
    H164     H        0.19980    0.91030    0.86690    1.000
    H165     H        0.21640    0.96590    0.86640    1.000
    C136     C        0.10690    0.92090    0.84040    1.000
    H166     H        0.07380    0.93320    0.84300    1.000
    H167     H        0.10970    0.88920    0.85050    1.000
    H168     H        0.11430    0.91760    0.81850    1.000
    C137     C        0.23970    0.77860    0.72346    1.000
    C138     C        0.25890    0.79980    0.74959    1.000
    C139     C        0.23540    0.83850    0.76330    1.000
    H169     H        0.24860    0.85310    0.78120    1.000
    C140     C        0.19260    0.85600    0.75090    1.000
    H170     H        0.17640    0.88250    0.76030    1.000
    C141     C        0.17330    0.83470    0.72480    1.000
    H171     H        0.14400    0.84670    0.71630    1.000
    C142     C        0.19690    0.79600    0.71100    1.000
    C143     C        0.16810    0.77270    0.68250    1.000
    H172     H        0.18830    0.74380    0.67710    1.000
    C144     C        0.15660    0.79540    0.65080    1.000
    H173     H        0.14040    0.77120    0.63780    1.000
    H174     H        0.13520    0.82340    0.65360    1.000
    H175     H        0.18680    0.80580    0.64100    1.000
    C145     C        0.12360    0.75010    0.69800    1.000
    H176     H        0.10490    0.73180    0.68270    1.000
    H177     H        0.13420    0.72820    0.71450    1.000
    H178     H        0.10330    0.77580    0.70670    1.000
    C146     C        0.30490    0.77900    0.76320    1.000
    H179     H        0.31310    0.74570    0.75570    1.000
    C147     C        0.34390    0.81600    0.75770    1.000
    H180     H        0.34680    0.82220    0.73560    1.000
    H181     H        0.33550    0.84620    0.76830    1.000
    H182     H        0.37480    0.80380    0.76560    1.000
    C148     C        0.29920    0.78250    0.79830    1.000
    H183     H        0.27510    0.75880    0.80530    1.000
    H184     H        0.33040    0.77580    0.80820    1.000
    H185     H        0.28840    0.81520    0.80380    1.000
    C149     C        0.49377    0.61430    0.59935    1.000
    C150     C        0.53740    0.62820    0.61102    1.000
    C151     C        0.57750    0.62760    0.59288    1.000
    H186     H        0.60790    0.63730    0.60100    1.000
    C152     C        0.57410    0.61310    0.56306    1.000
    H187     H        0.60210    0.61260    0.55040    1.000
    C153     C        0.53050    0.59910    0.55138    1.000
    H188     H        0.52810    0.58900    0.53060    1.000
    C154     C        0.49035    0.59970    0.56953    1.000
    C155     C        0.44140    0.58420    0.55730    1.000
    H189     H        0.41540    0.59170    0.57260    1.000
    C156     C        0.42880    0.60570    0.52590    1.000
    H190     H        0.42850    0.64110    0.52740    1.000
    H191     H        0.45310    0.59550    0.51080    1.000
    H192     H        0.39670    0.59410    0.51950    1.000
    C157     C        0.43630    0.53300    0.54580    1.000
    H193     H        0.40300    0.52770    0.53880    1.000
    H194     H        0.45880    0.52770    0.52870    1.000
    H195     H        0.44380    0.51030    0.56250    1.000
    C158     C        0.22090    0.56840    0.58750    1.000
    H196     H        0.19630    0.56760    0.60270    1.000
    C159     C        0.21690    0.53900    0.56230    1.000
    H197     H        0.19100    0.51640    0.56060    1.000
    C160     C        0.25240    0.54290    0.53861    1.000
    C161     C        0.24770    0.51100    0.51037    1.000
    C162     C        0.28870    0.57490    0.54218    1.000
    H198     H        0.31220    0.57870    0.52640    1.000
    C163     C        0.29160    0.60230    0.56880    1.000
    H199     H        0.31770    0.62450    0.57140    1.000
    C164     C        0.26860    0.49360    0.45843    1.000
    H200     H        0.28550    0.50300    0.44030    1.000
    C165     C        0.26850    0.52430    0.48330    1.000
    H201     H        0.28330    0.55530    0.48160    1.000
    C166     C        0.22340    0.46830    0.51120    1.000
    H202     H        0.20640    0.45860    0.52920    1.000
    C167     C        0.22370    0.43840    0.48494    1.000
    H203     H        0.20760    0.40800    0.48580    1.000
    N9       N        0.25840    0.59780    0.59096    1.000
    N10      N        0.24590    0.45140    0.45885    1.000
    O37      O        0.45330    0.61500    0.61800    1.000
    O38      O        0.36703    0.64428    0.61928    1.000
    O39      O        0.42930    0.68370    0.65234    1.000
    O40      O        0.43270    0.69530    0.59511    1.000
    O41      O        0.26010    0.73710    0.71117    1.000
    O42      O        0.28113    0.69870    0.66154    1.000
    O43      O        0.34626    0.73680    0.69326    1.000
    O44      O        0.28500    0.78950    0.66688    1.000
    O45      O        0.26350    0.62360    0.61684    1.000
    P9       P        0.41791    0.66408    0.62129    1.000
    P10      P        0.29618    0.74111    0.68076    1.000
    Zn9      Zn       0.30863    0.68352    0.62193    1.000
    Zn10     Zn       0.40563    0.74376    0.66951    1.000
    C168     C        0.54280    0.64350    0.64450    1.000
    H204     H        0.51070    0.64090    0.65500    1.000
    C169     C        0.55880    0.69690    0.64400    1.000
    H205     H        0.56280    0.70850    0.66520    1.000
    H206     H        0.58970    0.69980    0.63310    1.000
    H207     H        0.53410    0.71640    0.63360    1.000
    C170     C        0.57910    0.60690    0.65960    1.000
    H208     H        0.56680    0.57380    0.65700    1.000
    H209     H        0.61080    0.60970    0.64950    1.000
    H210     H        0.58240    0.61430    0.68150    1.000
    C171     C        0.73970    0.27860    0.22346    1.000
    C172     C        0.75890    0.29980    0.24959    1.000
    C173     C        0.73540    0.33850    0.26330    1.000
    H211     H        0.74860    0.35310    0.28120    1.000
    C174     C        0.69260    0.35600    0.25090    1.000
    H212     H        0.67640    0.38250    0.26030    1.000
    C175     C        0.67330    0.33470    0.22480    1.000
    H213     H        0.64400    0.34670    0.21630    1.000
    C176     C        0.69690    0.29600    0.21100    1.000
    C177     C        0.66810    0.27270    0.18250    1.000
    H214     H        0.68830    0.24380    0.17710    1.000
    C178     C        0.65660    0.29540    0.15080    1.000
    H215     H        0.64040    0.27120    0.13780    1.000
    H216     H        0.63520    0.32340    0.15360    1.000
    H217     H        0.68680    0.30580    0.14100    1.000
    C179     C        0.62360    0.25010    0.19800    1.000
    H218     H        0.60490    0.23180    0.18270    1.000
    H219     H        0.63420    0.22820    0.21450    1.000
    H220     H        0.60330    0.27580    0.20670    1.000
    C180     C        0.80490    0.27900    0.26320    1.000
    H221     H        0.81310    0.24570    0.25570    1.000
    C181     C        0.84390    0.31600    0.25770    1.000
    H222     H        0.84680    0.32220    0.23560    1.000
    H223     H        0.83550    0.34620    0.26830    1.000
    H224     H        0.87480    0.30380    0.26560    1.000
    C182     C        0.79920    0.28250    0.29830    1.000
    H225     H        0.77510    0.25880    0.30530    1.000
    H226     H        0.83040    0.27580    0.30820    1.000
    H227     H        0.78840    0.31520    0.30380    1.000
    C183     C        0.99377    0.11430    0.09935    1.000
    C184     C        0.03740    0.12820    0.11102    1.000
    C185     C        0.07750    0.12760    0.09288    1.000
    H228     H        0.10790    0.13730    0.10100    1.000
    C186     C        0.07410    0.11310    0.06306    1.000
    H229     H        0.10210    0.11260    0.05040    1.000
    C187     C        0.03050    0.09910    0.05138    1.000
    H230     H        0.02810    0.08900    0.03060    1.000
    C188     C        0.99035    0.09970    0.06953    1.000
    C189     C        0.94140    0.08420    0.05730    1.000
    H231     H        0.91540    0.09170    0.07260    1.000
    C190     C        0.92880    0.10570    0.02590    1.000
    H232     H        0.92850    0.14110    0.02740    1.000
    H233     H        0.95310    0.09550    0.01080    1.000
    H234     H        0.89670    0.09410    0.01950    1.000
    C191     C        0.93630    0.03300    0.04580    1.000
    H235     H        0.90300    0.02770    0.03880    1.000
    H236     H        0.95880    0.02770    0.02870    1.000
    H237     H        0.94380    0.01030    0.06250    1.000
    C192     C        0.72090    0.06840    0.08750    1.000
    H238     H        0.69630    0.06760    0.10270    1.000
    C193     C        0.71690    0.03900    0.06230    1.000
    H239     H        0.69100    0.01640    0.06060    1.000
    C194     C        0.75240    0.04290    0.03861    1.000
    C195     C        0.74770    0.01100    0.01037    1.000
    C196     C        0.78870    0.07490    0.04218    1.000
    H240     H        0.81220    0.07870    0.02640    1.000
    C197     C        0.79160    0.10230    0.06880    1.000
    H241     H        0.81770    0.12450    0.07140    1.000
    C198     C        0.76860    0.99360    0.95843    1.000
    H242     H        0.78550    0.00300    0.94030    1.000
    C199     C        0.76850    0.02430    0.98330    1.000
    H243     H        0.78330    0.05530    0.98160    1.000
    C200     C        0.72340    0.96830    0.01120    1.000
    H244     H        0.70640    0.95860    0.02920    1.000
    C201     C        0.72370    0.93840    0.98494    1.000
    H245     H        0.70760    0.90800    0.98580    1.000
    N11      N        0.75840    0.09780    0.09096    1.000
    N12      N        0.74590    0.95140    0.95885    1.000
    O46      O        0.95330    0.11500    0.11800    1.000
    O47      O        0.86703    0.14428    0.11928    1.000
    O48      O        0.92930    0.18370    0.15234    1.000
    O49      O        0.93270    0.19530    0.09511    1.000
    O50      O        0.76010    0.23710    0.21117    1.000
    O51      O        0.78113    0.19870    0.16154    1.000
    O52      O        0.84626    0.23680    0.19326    1.000
    O53      O        0.78500    0.28950    0.16688    1.000
    O54      O        0.76350    0.12360    0.11684    1.000
    P11      P        0.91791    0.16408    0.12129    1.000
    P12      P        0.79618    0.24111    0.18076    1.000
    Zn11     Zn       0.80863    0.18352    0.12193    1.000
    Zn12     Zn       0.90563    0.24376    0.16951    1.000
    C202     C        0.04280    0.14350    0.14450    1.000
    H246     H        0.01070    0.14090    0.15500    1.000
    C203     C        0.05880    0.19690    0.14400    1.000
    H247     H        0.06280    0.20850    0.16520    1.000
    H248     H        0.08970    0.19980    0.13310    1.000
    H249     H        0.03410    0.21640    0.13360    1.000
    C204     C        0.07910    0.10690    0.15960    1.000
    H250     H        0.06680    0.07380    0.15700    1.000
    H251     H        0.11080    0.10970    0.14950    1.000
    H252     H        0.08240    0.11430    0.18150    1.000
    C205     C        0.76030    0.22140    0.72346    1.000
    C206     C        0.74110    0.20020    0.74959    1.000
    C207     C        0.76460    0.16150    0.76330    1.000
    H253     H        0.75140    0.14690    0.78120    1.000
    C208     C        0.80740    0.14400    0.75090    1.000
    H254     H        0.82360    0.11750    0.76030    1.000
    C209     C        0.82670    0.16530    0.72480    1.000
    H255     H        0.85600    0.15330    0.71630    1.000
    C210     C        0.80310    0.20400    0.71100    1.000
    C211     C        0.83190    0.22730    0.68250    1.000
    H256     H        0.81170    0.25620    0.67710    1.000
    C212     C        0.84340    0.20460    0.65080    1.000
    H257     H        0.85960    0.22880    0.63780    1.000
    H258     H        0.86480    0.17660    0.65360    1.000
    H259     H        0.81320    0.19420    0.64100    1.000
    C213     C        0.87640    0.24990    0.69800    1.000
    H260     H        0.89510    0.26820    0.68270    1.000
    H261     H        0.86580    0.27180    0.71450    1.000
    H262     H        0.89670    0.22420    0.70670    1.000
    C214     C        0.69510    0.22100    0.76320    1.000
    H263     H        0.68690    0.25430    0.75570    1.000
    C215     C        0.65610    0.18400    0.75770    1.000
    H264     H        0.65320    0.17780    0.73560    1.000
    H265     H        0.66450    0.15380    0.76830    1.000
    H266     H        0.62520    0.19620    0.76560    1.000
    C216     C        0.70080    0.21750    0.79830    1.000
    H267     H        0.72490    0.24120    0.80530    1.000
    H268     H        0.66960    0.22420    0.80820    1.000
    H269     H        0.71160    0.18480    0.80380    1.000
    C217     C        0.50623    0.38570    0.59935    1.000
    C218     C        0.46260    0.37180    0.61102    1.000
    C219     C        0.42250    0.37240    0.59288    1.000
    H270     H        0.39210    0.36270    0.60100    1.000
    C220     C        0.42590    0.38690    0.56306    1.000
    H271     H        0.39790    0.38740    0.55040    1.000
    C221     C        0.46950    0.40090    0.55138    1.000
    H272     H        0.47190    0.41100    0.53060    1.000
    C222     C        0.50965    0.40030    0.56953    1.000
    C223     C        0.55860    0.41580    0.55730    1.000
    H273     H        0.58460    0.40830    0.57260    1.000
    C224     C        0.57120    0.39430    0.52590    1.000
    H274     H        0.57150    0.35890    0.52740    1.000
    H275     H        0.54690    0.40450    0.51080    1.000
    H276     H        0.60330    0.40590    0.51950    1.000
    C225     C        0.56370    0.46700    0.54580    1.000
    H277     H        0.59700    0.47230    0.53880    1.000
    H278     H        0.54120    0.47230    0.52870    1.000
    H279     H        0.55620    0.48970    0.56250    1.000
    C226     C        0.77910    0.43160    0.58750    1.000
    H280     H        0.80370    0.43240    0.60270    1.000
    C227     C        0.78310    0.46100    0.56230    1.000
    H281     H        0.80900    0.48360    0.56060    1.000
    C228     C        0.74760    0.45710    0.53861    1.000
    C229     C        0.75230    0.48900    0.51037    1.000
    C230     C        0.71130    0.42510    0.54218    1.000
    H282     H        0.68780    0.42130    0.52640    1.000
    C231     C        0.70840    0.39770    0.56880    1.000
    H283     H        0.68230    0.37550    0.57140    1.000
    C232     C        0.73140    0.50640    0.45843    1.000
    H284     H        0.71450    0.49700    0.44030    1.000
    C233     C        0.73150    0.47570    0.48330    1.000
    H285     H        0.71670    0.44470    0.48160    1.000
    C234     C        0.77660    0.53170    0.51120    1.000
    H286     H        0.79360    0.54140    0.52920    1.000
    C235     C        0.77630    0.56160    0.48494    1.000
    H287     H        0.79240    0.59200    0.48580    1.000
    N13      N        0.74160    0.40220    0.59096    1.000
    N14      N        0.75410    0.54860    0.45885    1.000
    O55      O        0.54670    0.38500    0.61800    1.000
    O56      O        0.63297    0.35572    0.61928    1.000
    O57      O        0.57070    0.31630    0.65234    1.000
    O58      O        0.56730    0.30470    0.59511    1.000
    O59      O        0.73990    0.26290    0.71117    1.000
    O60      O        0.71887    0.30130    0.66154    1.000
    O61      O        0.65374    0.26320    0.69326    1.000
    O62      O        0.71500    0.21050    0.66688    1.000
    O63      O        0.73650    0.37640    0.61684    1.000
    P13      P        0.58209    0.33592    0.62129    1.000
    P14      P        0.70382    0.25889    0.68076    1.000
    Zn13     Zn       0.69137    0.31648    0.62193    1.000
    Zn14     Zn       0.59437    0.25624    0.66951    1.000
    C236     C        0.45720    0.35650    0.64450    1.000
    H288     H        0.48930    0.35910    0.65500    1.000
    C237     C        0.44120    0.30310    0.64400    1.000
    H289     H        0.43720    0.29150    0.66520    1.000
    H290     H        0.41030    0.30020    0.63310    1.000
    H291     H        0.46590    0.28360    0.63360    1.000
    C238     C        0.42090    0.39310    0.65960    1.000
    H292     H        0.43320    0.42620    0.65700    1.000
    H293     H        0.38920    0.39030    0.64950    1.000
    H294     H        0.41760    0.38570    0.68150    1.000
    C239     C        0.26030    0.72140    0.22346    1.000
    C240     C        0.24110    0.70020    0.24959    1.000
    C241     C        0.26460    0.66150    0.26330    1.000
    H295     H        0.25140    0.64690    0.28120    1.000
    C242     C        0.30740    0.64400    0.25090    1.000
    H296     H        0.32360    0.61750    0.26030    1.000
    C243     C        0.32670    0.66530    0.22480    1.000
    H297     H        0.35600    0.65330    0.21630    1.000
    C244     C        0.30310    0.70400    0.21100    1.000
    C245     C        0.33190    0.72730    0.18250    1.000
    H298     H        0.31170    0.75620    0.17710    1.000
    C246     C        0.34340    0.70460    0.15080    1.000
    H299     H        0.35960    0.72880    0.13780    1.000
    H300     H        0.36480    0.67660    0.15360    1.000
    H301     H        0.31320    0.69420    0.14100    1.000
    C247     C        0.37640    0.74990    0.19800    1.000
    H302     H        0.39510    0.76820    0.18270    1.000
    H303     H        0.36580    0.77180    0.21450    1.000
    H304     H        0.39670    0.72420    0.20670    1.000
    C248     C        0.19510    0.72100    0.26320    1.000
    H305     H        0.18690    0.75430    0.25570    1.000
    C249     C        0.15610    0.68400    0.25770    1.000
    H306     H        0.15320    0.67780    0.23560    1.000
    H307     H        0.16450    0.65380    0.26830    1.000
    H308     H        0.12520    0.69620    0.26560    1.000
    C250     C        0.20080    0.71750    0.29830    1.000
    H309     H        0.22490    0.74120    0.30530    1.000
    H310     H        0.16960    0.72420    0.30820    1.000
    H311     H        0.21160    0.68480    0.30380    1.000
    C251     C        0.00623    0.88570    0.09935    1.000
    C252     C        0.96260    0.87180    0.11102    1.000
    C253     C        0.92250    0.87240    0.09288    1.000
    H312     H        0.89210    0.86270    0.10100    1.000
    C254     C        0.92590    0.88690    0.06306    1.000
    H313     H        0.89790    0.88740    0.05040    1.000
    C255     C        0.96950    0.90090    0.05138    1.000
    H314     H        0.97190    0.91100    0.03060    1.000
    C256     C        0.00965    0.90030    0.06953    1.000
    C257     C        0.05860    0.91580    0.05730    1.000
    H315     H        0.08460    0.90830    0.07260    1.000
    C258     C        0.07120    0.89430    0.02590    1.000
    H316     H        0.07150    0.85890    0.02740    1.000
    H317     H        0.04690    0.90450    0.01080    1.000
    H318     H        0.10330    0.90590    0.01950    1.000
    C259     C        0.06370    0.96700    0.04580    1.000
    H319     H        0.09700    0.97230    0.03880    1.000
    H320     H        0.04120    0.97230    0.02870    1.000
    H321     H        0.05620    0.98970    0.06250    1.000
    C260     C        0.27910    0.93160    0.08750    1.000
    H322     H        0.30370    0.93240    0.10270    1.000
    C261     C        0.28310    0.96100    0.06230    1.000
    H323     H        0.30900    0.98360    0.06060    1.000
    C262     C        0.24760    0.95710    0.03861    1.000
    C263     C        0.25230    0.98900    0.01037    1.000
    C264     C        0.21130    0.92510    0.04218    1.000
    H324     H        0.18780    0.92130    0.02640    1.000
    C265     C        0.20840    0.89770    0.06880    1.000
    H325     H        0.18230    0.87550    0.07140    1.000
    C266     C        0.23140    0.00640    0.95843    1.000
    H326     H        0.21450    0.99700    0.94030    1.000
    C267     C        0.23150    0.97570    0.98330    1.000
    H327     H        0.21670    0.94470    0.98160    1.000
    C268     C        0.27660    0.03170    0.01120    1.000
    H328     H        0.29360    0.04140    0.02920    1.000
    C269     C        0.27630    0.06160    0.98494    1.000
    H329     H        0.29240    0.09200    0.98580    1.000
    N15      N        0.24160    0.90220    0.09096    1.000
    N16      N        0.25410    0.04860    0.95885    1.000
    O64      O        0.04670    0.88500    0.11800    1.000
    O65      O        0.13297    0.85572    0.11928    1.000
    O66      O        0.07070    0.81630    0.15234    1.000
    O67      O        0.06730    0.80470    0.09511    1.000
    O68      O        0.23990    0.76290    0.21117    1.000
    O69      O        0.21887    0.80130    0.16154    1.000
    O70      O        0.15374    0.76320    0.19326    1.000
    O71      O        0.21500    0.71050    0.16688    1.000
    O72      O        0.23650    0.87640    0.11684    1.000
    P15      P        0.08209    0.83592    0.12129    1.000
    P16      P        0.20382    0.75889    0.18076    1.000
    Zn15     Zn       0.19137    0.81648    0.12193    1.000
    Zn16     Zn       0.09437    0.75624    0.16951    1.000
    C270     C        0.95720    0.85650    0.14450    1.000
    H330     H        0.98930    0.85910    0.15500    1.000
    C271     C        0.94120    0.80310    0.14400    1.000
    H331     H        0.93720    0.79150    0.16520    1.000
    H332     H        0.91030    0.80020    0.13310    1.000
    H333     H        0.96590    0.78360    0.13360    1.000
    C272     C        0.92090    0.89310    0.15960    1.000
    H334     H        0.93320    0.92620    0.15700    1.000
    H335     H        0.88920    0.89030    0.14950    1.000
    H336     H        0.91760    0.88570    0.18150    1.000
    C273     C        0.27860    0.23970    0.47346    1.000
    C274     C        0.29980    0.25890    0.49959    1.000
    C275     C        0.33850    0.23540    0.51330    1.000
    H337     H        0.35310    0.24860    0.53120    1.000
    C276     C        0.35600    0.19260    0.50090    1.000
    H338     H        0.38250    0.17640    0.51030    1.000
    C277     C        0.33470    0.17330    0.47480    1.000
    H339     H        0.34670    0.14400    0.46630    1.000
    C278     C        0.29600    0.19690    0.46100    1.000
    C279     C        0.27270    0.16810    0.43250    1.000
    H340     H        0.24380    0.18830    0.42710    1.000
    C280     C        0.29540    0.15660    0.40080    1.000
    H341     H        0.27120    0.14040    0.38780    1.000
    H342     H        0.32340    0.13520    0.40360    1.000
    H343     H        0.30580    0.18680    0.39100    1.000
    C281     C        0.25010    0.12360    0.44800    1.000
    H344     H        0.23180    0.10490    0.43270    1.000
    H345     H        0.22820    0.13420    0.46450    1.000
    H346     H        0.27580    0.10330    0.45670    1.000
    C282     C        0.27900    0.30490    0.51320    1.000
    H347     H        0.24570    0.31310    0.50570    1.000
    C283     C        0.31600    0.34390    0.50770    1.000
    H348     H        0.32220    0.34680    0.48560    1.000
    H349     H        0.34620    0.33550    0.51830    1.000
    H350     H        0.30380    0.37480    0.51560    1.000
    C284     C        0.28250    0.29920    0.54830    1.000
    H351     H        0.25880    0.27510    0.55530    1.000
    H352     H        0.27580    0.33040    0.55820    1.000
    H353     H        0.31520    0.28840    0.55380    1.000
    C285     C        0.11430    0.49377    0.34935    1.000
    C286     C        0.12820    0.53740    0.36102    1.000
    C287     C        0.12760    0.57750    0.34288    1.000
    H354     H        0.13730    0.60790    0.35100    1.000
    C288     C        0.11310    0.57410    0.31306    1.000
    H355     H        0.11260    0.60210    0.30040    1.000
    C289     C        0.09910    0.53050    0.30138    1.000
    H356     H        0.08900    0.52810    0.28060    1.000
    C290     C        0.09970    0.49035    0.31953    1.000
    C291     C        0.08420    0.44140    0.30730    1.000
    H357     H        0.09170    0.41540    0.32260    1.000
    C292     C        0.10570    0.42880    0.27590    1.000
    H358     H        0.14110    0.42850    0.27740    1.000
    H359     H        0.09550    0.45310    0.26080    1.000
    H360     H        0.09410    0.39670    0.26950    1.000
    C293     C        0.03300    0.43630    0.29580    1.000
    H361     H        0.02770    0.40300    0.28880    1.000
    H362     H        0.02770    0.45880    0.27870    1.000
    H363     H        0.01030    0.44380    0.31250    1.000
    C294     C        0.06840    0.22090    0.33750    1.000
    H364     H        0.06760    0.19630    0.35270    1.000
    C295     C        0.03900    0.21690    0.31230    1.000
    H365     H        0.01640    0.19100    0.31060    1.000
    C296     C        0.04290    0.25240    0.28861    1.000
    C297     C        0.01100    0.24770    0.26037    1.000
    C298     C        0.07490    0.28870    0.29218    1.000
    H366     H        0.07870    0.31220    0.27640    1.000
    C299     C        0.10230    0.29160    0.31880    1.000
    H367     H        0.12450    0.31770    0.32140    1.000
    C300     C        0.99360    0.26860    0.20843    1.000
    H368     H        0.00300    0.28550    0.19030    1.000
    C301     C        0.02430    0.26850    0.23330    1.000
    H369     H        0.05530    0.28330    0.23160    1.000
    C302     C        0.96830    0.22340    0.26120    1.000
    H370     H        0.95860    0.20640    0.27920    1.000
    C303     C        0.93840    0.22370    0.23494    1.000
    H371     H        0.90800    0.20760    0.23580    1.000
    N17      N        0.09780    0.25840    0.34096    1.000
    N18      N        0.95140    0.24590    0.20885    1.000
    O73      O        0.11500    0.45330    0.36800    1.000
    O74      O        0.14428    0.36703    0.36928    1.000
    O75      O        0.18370    0.42930    0.40234    1.000
    O76      O        0.19530    0.43270    0.34511    1.000
    O77      O        0.23710    0.26010    0.46117    1.000
    O78      O        0.19870    0.28113    0.41154    1.000
    O79      O        0.23680    0.34626    0.44326    1.000
    O80      O        0.28950    0.28500    0.41688    1.000
    O81      O        0.12360    0.26350    0.36684    1.000
    P17      P        0.16408    0.41791    0.37129    1.000
    P18      P        0.24111    0.29618    0.43076    1.000
    Zn17     Zn       0.18352    0.30863    0.37193    1.000
    Zn18     Zn       0.24376    0.40563    0.41951    1.000
    C304     C        0.14350    0.54280    0.39450    1.000
    H372     H        0.14090    0.51070    0.40500    1.000
    C305     C        0.19690    0.55880    0.39400    1.000
    H373     H        0.20850    0.56280    0.41520    1.000
    H374     H        0.19980    0.58970    0.38310    1.000
    H375     H        0.21640    0.53410    0.38360    1.000
    C306     C        0.10690    0.57910    0.40960    1.000
    H376     H        0.07380    0.56680    0.40700    1.000
    H377     H        0.10970    0.61080    0.39950    1.000
    H378     H        0.11430    0.58240    0.43150    1.000
    C307     C        0.77860    0.73970    0.97346    1.000
    C308     C        0.79980    0.75890    0.99959    1.000
    C309     C        0.83850    0.73540    0.01330    1.000
    H379     H        0.85310    0.74860    0.03120    1.000
    C310     C        0.85600    0.69260    0.00090    1.000
    H380     H        0.88250    0.67640    0.01030    1.000
    C311     C        0.83470    0.67330    0.97480    1.000
    H381     H        0.84670    0.64400    0.96630    1.000
    C312     C        0.79600    0.69690    0.96100    1.000
    C313     C        0.77270    0.66810    0.93250    1.000
    H382     H        0.74380    0.68830    0.92710    1.000
    C314     C        0.79540    0.65660    0.90080    1.000
    H383     H        0.77120    0.64040    0.88780    1.000
    H384     H        0.82340    0.63520    0.90360    1.000
    H385     H        0.80580    0.68680    0.89100    1.000
    C315     C        0.75010    0.62360    0.94800    1.000
    H386     H        0.73180    0.60490    0.93270    1.000
    H387     H        0.72820    0.63420    0.96450    1.000
    H388     H        0.77580    0.60330    0.95670    1.000
    C316     C        0.77900    0.80490    0.01320    1.000
    H389     H        0.74570    0.81310    0.00570    1.000
    C317     C        0.81600    0.84390    0.00770    1.000
    H390     H        0.82220    0.84680    0.98560    1.000
    H391     H        0.84620    0.83550    0.01830    1.000
    H392     H        0.80380    0.87480    0.01560    1.000
    C318     C        0.78250    0.79920    0.04830    1.000
    H393     H        0.75880    0.77510    0.05530    1.000
    H394     H        0.77580    0.83040    0.05820    1.000
    H395     H        0.81520    0.78840    0.05380    1.000
    C319     C        0.61430    0.99377    0.84935    1.000
    C320     C        0.62820    0.03740    0.86102    1.000
    C321     C        0.62760    0.07750    0.84288    1.000
    H396     H        0.63730    0.10790    0.85100    1.000
    C322     C        0.61310    0.07410    0.81306    1.000
    H397     H        0.61260    0.10210    0.80040    1.000
    C323     C        0.59910    0.03050    0.80138    1.000
    H398     H        0.58900    0.02810    0.78060    1.000
    C324     C        0.59970    0.99035    0.81953    1.000
    C325     C        0.58420    0.94140    0.80730    1.000
    H399     H        0.59170    0.91540    0.82260    1.000
    C326     C        0.60570    0.92880    0.77590    1.000
    H400     H        0.64110    0.92850    0.77740    1.000
    H401     H        0.59550    0.95310    0.76080    1.000
    H402     H        0.59410    0.89670    0.76950    1.000
    C327     C        0.53300    0.93630    0.79580    1.000
    H403     H        0.52770    0.90300    0.78880    1.000
    H404     H        0.52770    0.95880    0.77870    1.000
    H405     H        0.51030    0.94380    0.81250    1.000
    C328     C        0.56840    0.72090    0.83750    1.000
    H406     H        0.56760    0.69630    0.85270    1.000
    C329     C        0.53900    0.71690    0.81230    1.000
    H407     H        0.51640    0.69100    0.81060    1.000
    C330     C        0.54290    0.75240    0.78861    1.000
    C331     C        0.51100    0.74770    0.76037    1.000
    C332     C        0.57490    0.78870    0.79218    1.000
    H408     H        0.57870    0.81220    0.77640    1.000
    C333     C        0.60230    0.79160    0.81880    1.000
    H409     H        0.62450    0.81770    0.82140    1.000
    C334     C        0.49360    0.76860    0.70843    1.000
    H410     H        0.50300    0.78550    0.69030    1.000
    C335     C        0.52430    0.76850    0.73330    1.000
    H411     H        0.55530    0.78330    0.73160    1.000
    C336     C        0.46830    0.72340    0.76120    1.000
    H412     H        0.45860    0.70640    0.77920    1.000
    C337     C        0.43840    0.72370    0.73494    1.000
    H413     H        0.40800    0.70760    0.73580    1.000
    N19      N        0.59780    0.75840    0.84096    1.000
    N20      N        0.45140    0.74590    0.70885    1.000
    O82      O        0.61500    0.95330    0.86800    1.000
    O83      O        0.64428    0.86703    0.86928    1.000
    O84      O        0.68370    0.92930    0.90234    1.000
    O85      O        0.69530    0.93270    0.84511    1.000
    O86      O        0.73710    0.76010    0.96117    1.000
    O87      O        0.69870    0.78113    0.91154    1.000
    O88      O        0.73680    0.84626    0.94326    1.000
    O89      O        0.78950    0.78500    0.91688    1.000
    O90      O        0.62360    0.76350    0.86684    1.000
    P19      P        0.66408    0.91791    0.87129    1.000
    P20      P        0.74111    0.79618    0.93076    1.000
    Zn19     Zn       0.68352    0.80863    0.87193    1.000
    Zn20     Zn       0.74376    0.90563    0.91951    1.000
    C338     C        0.64350    0.04280    0.89450    1.000
    H414     H        0.64090    0.01070    0.90500    1.000
    C339     C        0.69690    0.05880    0.89400    1.000
    H415     H        0.70850    0.06280    0.91520    1.000
    H416     H        0.69980    0.08970    0.88310    1.000
    H417     H        0.71640    0.03410    0.88360    1.000
    C340     C        0.60690    0.07910    0.90960    1.000
    H418     H        0.57380    0.06680    0.90700    1.000
    H419     H        0.60970    0.11080    0.89950    1.000
    H420     H        0.61430    0.08240    0.93150    1.000
    C341     C        0.72140    0.76030    0.47346    1.000
    C342     C        0.70020    0.74110    0.49959    1.000
    C343     C        0.66150    0.76460    0.51330    1.000
    H421     H        0.64690    0.75140    0.53120    1.000
    C344     C        0.64400    0.80740    0.50090    1.000
    H422     H        0.61750    0.82360    0.51030    1.000
    C345     C        0.66530    0.82670    0.47480    1.000
    H423     H        0.65330    0.85600    0.46630    1.000
    C346     C        0.70400    0.80310    0.46100    1.000
    C347     C        0.72730    0.83190    0.43250    1.000
    H424     H        0.75620    0.81170    0.42710    1.000
    C348     C        0.70460    0.84340    0.40080    1.000
    H425     H        0.72880    0.85960    0.38780    1.000
    H426     H        0.67660    0.86480    0.40360    1.000
    H427     H        0.69420    0.81320    0.39100    1.000
    C349     C        0.74990    0.87640    0.44800    1.000
    H428     H        0.76820    0.89510    0.43270    1.000
    H429     H        0.77180    0.86580    0.46450    1.000
    H430     H        0.72420    0.89670    0.45670    1.000
    C350     C        0.72100    0.69510    0.51320    1.000
    H431     H        0.75430    0.68690    0.50570    1.000
    C351     C        0.68400    0.65610    0.50770    1.000
    H432     H        0.67780    0.65320    0.48560    1.000
    H433     H        0.65380    0.66450    0.51830    1.000
    H434     H        0.69620    0.62520    0.51560    1.000
    C352     C        0.71750    0.70080    0.54830    1.000
    H435     H        0.74120    0.72490    0.55530    1.000
    H436     H        0.72420    0.66960    0.55820    1.000
    H437     H        0.68480    0.71160    0.55380    1.000
    C353     C        0.88570    0.50623    0.34935    1.000
    C354     C        0.87180    0.46260    0.36102    1.000
    C355     C        0.87240    0.42250    0.34288    1.000
    H438     H        0.86270    0.39210    0.35100    1.000
    C356     C        0.88690    0.42590    0.31306    1.000
    H439     H        0.88740    0.39790    0.30040    1.000
    C357     C        0.90090    0.46950    0.30138    1.000
    H440     H        0.91100    0.47190    0.28060    1.000
    C358     C        0.90030    0.50965    0.31953    1.000
    C359     C        0.91580    0.55860    0.30730    1.000
    H441     H        0.90830    0.58460    0.32260    1.000
    C360     C        0.89430    0.57120    0.27590    1.000
    H442     H        0.85890    0.57150    0.27740    1.000
    H443     H        0.90450    0.54690    0.26080    1.000
    H444     H        0.90590    0.60330    0.26950    1.000
    C361     C        0.96700    0.56370    0.29580    1.000
    H445     H        0.97230    0.59700    0.28880    1.000
    H446     H        0.97230    0.54120    0.27870    1.000
    H447     H        0.98970    0.55620    0.31250    1.000
    C362     C        0.93160    0.77910    0.33750    1.000
    H448     H        0.93240    0.80370    0.35270    1.000
    C363     C        0.96100    0.78310    0.31230    1.000
    H449     H        0.98360    0.80900    0.31060    1.000
    C364     C        0.95710    0.74760    0.28861    1.000
    C365     C        0.98900    0.75230    0.26037    1.000
    C366     C        0.92510    0.71130    0.29218    1.000
    H450     H        0.92130    0.68780    0.27640    1.000
    C367     C        0.89770    0.70840    0.31880    1.000
    H451     H        0.87550    0.68230    0.32140    1.000
    C368     C        0.00640    0.73140    0.20843    1.000
    H452     H        0.99700    0.71450    0.19030    1.000
    C369     C        0.97570    0.73150    0.23330    1.000
    H453     H        0.94470    0.71670    0.23160    1.000
    C370     C        0.03170    0.77660    0.26120    1.000
    H454     H        0.04140    0.79360    0.27920    1.000
    C371     C        0.06160    0.77630    0.23494    1.000
    H455     H        0.09200    0.79240    0.23580    1.000
    N21      N        0.90220    0.74160    0.34096    1.000
    N22      N        0.04860    0.75410    0.20885    1.000
    O91      O        0.88500    0.54670    0.36800    1.000
    O92      O        0.85572    0.63297    0.36928    1.000
    O93      O        0.81630    0.57070    0.40234    1.000
    O94      O        0.80470    0.56730    0.34511    1.000
    O95      O        0.76290    0.73990    0.46117    1.000
    O96      O        0.80130    0.71887    0.41154    1.000
    O97      O        0.76320    0.65374    0.44326    1.000
    O98      O        0.71050    0.71500    0.41688    1.000
    O99      O        0.87640    0.73650    0.36684    1.000
    P21      P        0.83592    0.58209    0.37129    1.000
    P22      P        0.75889    0.70382    0.43076    1.000
    Zn21     Zn       0.81648    0.69137    0.37193    1.000
    Zn22     Zn       0.75624    0.59437    0.41951    1.000
    C372     C        0.85650    0.45720    0.39450    1.000
    H456     H        0.85910    0.48930    0.40500    1.000
    C373     C        0.80310    0.44120    0.39400    1.000
    H457     H        0.79150    0.43720    0.41520    1.000
    H458     H        0.80020    0.41030    0.38310    1.000
    H459     H        0.78360    0.46590    0.38360    1.000
    C374     C        0.89310    0.42090    0.40960    1.000
    H460     H        0.92620    0.43320    0.40700    1.000
    H461     H        0.89030    0.38920    0.39950    1.000
    H462     H        0.88570    0.41760    0.43150    1.000
    C375     C        0.22140    0.26030    0.97346    1.000
    C376     C        0.20020    0.24110    0.99959    1.000
    C377     C        0.16150    0.26460    0.01330    1.000
    H463     H        0.14690    0.25140    0.03120    1.000
    C378     C        0.14400    0.30740    0.00090    1.000
    H464     H        0.11750    0.32360    0.01030    1.000
    C379     C        0.16530    0.32670    0.97480    1.000
    H465     H        0.15330    0.35600    0.96630    1.000
    C380     C        0.20400    0.30310    0.96100    1.000
    C381     C        0.22730    0.33190    0.93250    1.000
    H466     H        0.25620    0.31170    0.92710    1.000
    C382     C        0.20460    0.34340    0.90080    1.000
    H467     H        0.22880    0.35960    0.88780    1.000
    H468     H        0.17660    0.36480    0.90360    1.000
    H469     H        0.19420    0.31320    0.89100    1.000
    C383     C        0.24990    0.37640    0.94800    1.000
    H470     H        0.26820    0.39510    0.93270    1.000
    H471     H        0.27180    0.36580    0.96450    1.000
    H472     H        0.22420    0.39670    0.95670    1.000
    C384     C        0.22100    0.19510    0.01320    1.000
    H473     H        0.25430    0.18690    0.00570    1.000
    C385     C        0.18400    0.15610    0.00770    1.000
    H474     H        0.17780    0.15320    0.98560    1.000
    H475     H        0.15380    0.16450    0.01830    1.000
    H476     H        0.19620    0.12520    0.01560    1.000
    C386     C        0.21750    0.20080    0.04830    1.000
    H477     H        0.24120    0.22490    0.05530    1.000
    H478     H        0.22420    0.16960    0.05820    1.000
    H479     H        0.18480    0.21160    0.05380    1.000
    C387     C        0.38570    0.00623    0.84935    1.000
    C388     C        0.37180    0.96260    0.86102    1.000
    C389     C        0.37240    0.92250    0.84288    1.000
    H480     H        0.36270    0.89210    0.85100    1.000
    C390     C        0.38690    0.92590    0.81306    1.000
    H481     H        0.38740    0.89790    0.80040    1.000
    C391     C        0.40090    0.96950    0.80138    1.000
    H482     H        0.41100    0.97190    0.78060    1.000
    C392     C        0.40030    0.00965    0.81953    1.000
    C393     C        0.41580    0.05860    0.80730    1.000
    H483     H        0.40830    0.08460    0.82260    1.000
    C394     C        0.39430    0.07120    0.77590    1.000
    H484     H        0.35890    0.07150    0.77740    1.000
    H485     H        0.40450    0.04690    0.76080    1.000
    H486     H        0.40590    0.10330    0.76950    1.000
    C395     C        0.46700    0.06370    0.79580    1.000
    H487     H        0.47230    0.09700    0.78880    1.000
    H488     H        0.47230    0.04120    0.77870    1.000
    H489     H        0.48970    0.05620    0.81250    1.000
    C396     C        0.43160    0.27910    0.83750    1.000
    H490     H        0.43240    0.30370    0.85270    1.000
    C397     C        0.46100    0.28310    0.81230    1.000
    H491     H        0.48360    0.30900    0.81060    1.000
    C398     C        0.45710    0.24760    0.78861    1.000
    C399     C        0.48900    0.25230    0.76037    1.000
    C400     C        0.42510    0.21130    0.79218    1.000
    H492     H        0.42130    0.18780    0.77640    1.000
    C401     C        0.39770    0.20840    0.81880    1.000
    H493     H        0.37550    0.18230    0.82140    1.000
    C402     C        0.50640    0.23140    0.70843    1.000
    H494     H        0.49700    0.21450    0.69030    1.000
    C403     C        0.47570    0.23150    0.73330    1.000
    H495     H        0.44470    0.21670    0.73160    1.000
    C404     C        0.53170    0.27660    0.76120    1.000
    H496     H        0.54140    0.29360    0.77920    1.000
    C405     C        0.56160    0.27630    0.73494    1.000
    H497     H        0.59200    0.29240    0.73580    1.000
    N23      N        0.40220    0.24160    0.84096    1.000
    N24      N        0.54860    0.25410    0.70885    1.000
    O100     O        0.38500    0.04670    0.86800    1.000
    O101     O        0.35572    0.13297    0.86928    1.000
    O102     O        0.31630    0.07070    0.90234    1.000
    O103     O        0.30470    0.06730    0.84511    1.000
    O104     O        0.26290    0.23990    0.96117    1.000
    O105     O        0.30130    0.21887    0.91154    1.000
    O106     O        0.26320    0.15374    0.94326    1.000
    O107     O        0.21050    0.21500    0.91688    1.000
    O108     O        0.37640    0.23650    0.86684    1.000
    P23      P        0.33592    0.08209    0.87129    1.000
    P24      P        0.25889    0.20382    0.93076    1.000
    Zn23     Zn       0.31648    0.19137    0.87193    1.000
    Zn24     Zn       0.25624    0.09437    0.91951    1.000
    C406     C        0.35650    0.95720    0.89450    1.000
    H498     H        0.35910    0.98930    0.90500    1.000
    C407     C        0.30310    0.94120    0.89400    1.000
    H499     H        0.29150    0.93720    0.91520    1.000
    H500     H        0.30020    0.91030    0.88310    1.000
    H501     H        0.28360    0.96590    0.88360    1.000
    C408     C        0.39310    0.92090    0.90960    1.000
    H502     H        0.42620    0.93320    0.90700    1.000
    H503     H        0.39030    0.88920    0.89950    1.000
    H504     H        0.38570    0.91760    0.93150    1.000
    C409     C        0.26030    0.77860    0.02654    1.000
    C410     C        0.24110    0.79980    0.00041    1.000
    C411     C        0.26460    0.83850    0.98670    1.000
    H505     H        0.25140    0.85310    0.96880    1.000
    C412     C        0.30740    0.85600    0.99910    1.000
    H506     H        0.32360    0.88250    0.98970    1.000
    C413     C        0.32670    0.83470    0.02520    1.000
    H507     H        0.35600    0.84670    0.03370    1.000
    C414     C        0.30310    0.79600    0.03900    1.000
    C415     C        0.33190    0.77270    0.06750    1.000
    H508     H        0.31170    0.74380    0.07290    1.000
    C416     C        0.34340    0.79540    0.09920    1.000
    H509     H        0.35960    0.77120    0.11220    1.000
    H510     H        0.36480    0.82340    0.09640    1.000
    H511     H        0.31320    0.80580    0.10900    1.000
    C417     C        0.37640    0.75010    0.05200    1.000
    H512     H        0.39510    0.73180    0.06730    1.000
    H513     H        0.36580    0.72820    0.03550    1.000
    H514     H        0.39670    0.77580    0.04330    1.000
    C418     C        0.19510    0.77900    0.98680    1.000
    H515     H        0.18690    0.74570    0.99430    1.000
    C419     C        0.15610    0.81600    0.99230    1.000
    H516     H        0.15320    0.82220    0.01440    1.000
    H517     H        0.16450    0.84620    0.98170    1.000
    H518     H        0.12520    0.80380    0.98440    1.000
    C420     C        0.20080    0.78250    0.95170    1.000
    H519     H        0.22490    0.75880    0.94470    1.000
    H520     H        0.16960    0.77580    0.94180    1.000
    H521     H        0.21160    0.81520    0.94620    1.000
    C421     C        0.00623    0.61430    0.15065    1.000
    C422     C        0.96260    0.62820    0.13898    1.000
    C423     C        0.92250    0.62760    0.15712    1.000
    H522     H        0.89210    0.63730    0.14900    1.000
    C424     C        0.92590    0.61310    0.18694    1.000
    H523     H        0.89790    0.61260    0.19960    1.000
    C425     C        0.96950    0.59910    0.19862    1.000
    H524     H        0.97190    0.58900    0.21940    1.000
    C426     C        0.00965    0.59970    0.18047    1.000
    C427     C        0.05860    0.58420    0.19270    1.000
    H525     H        0.08460    0.59170    0.17740    1.000
    C428     C        0.07120    0.60570    0.22410    1.000
    H526     H        0.07150    0.64110    0.22260    1.000
    H527     H        0.04690    0.59550    0.23920    1.000
    H528     H        0.10330    0.59410    0.23050    1.000
    C429     C        0.06370    0.53300    0.20420    1.000
    H529     H        0.09700    0.52770    0.21120    1.000
    H530     H        0.04120    0.52770    0.22130    1.000
    H531     H        0.05620    0.51030    0.18750    1.000
    C430     C        0.27910    0.56840    0.16250    1.000
    H532     H        0.30370    0.56760    0.14730    1.000
    C431     C        0.28310    0.53900    0.18770    1.000
    H533     H        0.30900    0.51640    0.18940    1.000
    C432     C        0.24760    0.54290    0.21139    1.000
    C433     C        0.25230    0.51100    0.23963    1.000
    C434     C        0.21130    0.57490    0.20782    1.000
    H534     H        0.18780    0.57870    0.22360    1.000
    C435     C        0.20840    0.60230    0.18120    1.000
    H535     H        0.18230    0.62450    0.17860    1.000
    C436     C        0.23140    0.49360    0.29157    1.000
    H536     H        0.21450    0.50300    0.30970    1.000
    C437     C        0.23150    0.52430    0.26670    1.000
    H537     H        0.21670    0.55530    0.26840    1.000
    C438     C        0.27660    0.46830    0.23880    1.000
    H538     H        0.29360    0.45860    0.22080    1.000
    C439     C        0.27630    0.43840    0.26506    1.000
    H539     H        0.29240    0.40800    0.26420    1.000
    N25      N        0.24160    0.59780    0.15904    1.000
    N26      N        0.25410    0.45140    0.29115    1.000
    O109     O        0.04670    0.61500    0.13200    1.000
    O110     O        0.13297    0.64428    0.13072    1.000
    O111     O        0.07070    0.68370    0.09766    1.000
    O112     O        0.06730    0.69530    0.15489    1.000
    O113     O        0.23990    0.73710    0.03883    1.000
    O114     O        0.21887    0.69870    0.08846    1.000
    O115     O        0.15374    0.73680    0.05674    1.000
    O116     O        0.21500    0.78950    0.08312    1.000
    O117     O        0.23650    0.62360    0.13316    1.000
    P25      P        0.08209    0.66408    0.12871    1.000
    P26      P        0.20382    0.74111    0.06924    1.000
    Zn25     Zn       0.19137    0.68352    0.12807    1.000
    Zn26     Zn       0.09437    0.74376    0.08049    1.000
    C440     C        0.95720    0.64350    0.10550    1.000
    H540     H        0.98930    0.64090    0.09500    1.000
    C441     C        0.94120    0.69690    0.10600    1.000
    H541     H        0.93720    0.70850    0.08480    1.000
    H542     H        0.91030    0.69980    0.11690    1.000
    H543     H        0.96590    0.71640    0.11640    1.000
    C442     C        0.92090    0.60690    0.09040    1.000
    H544     H        0.93320    0.57380    0.09300    1.000
    H545     H        0.88920    0.60970    0.10050    1.000
    H546     H        0.91760    0.61430    0.06850    1.000
    C443     C        0.76030    0.27860    0.52654    1.000
    C444     C        0.74110    0.29980    0.50041    1.000
    C445     C        0.76460    0.33850    0.48670    1.000
    H547     H        0.75140    0.35310    0.46880    1.000
    C446     C        0.80740    0.35600    0.49910    1.000
    H548     H        0.82360    0.38250    0.48970    1.000
    C447     C        0.82670    0.33470    0.52520    1.000
    H549     H        0.85600    0.34670    0.53370    1.000
    C448     C        0.80310    0.29600    0.53900    1.000
    C449     C        0.83190    0.27270    0.56750    1.000
    H550     H        0.81170    0.24380    0.57290    1.000
    C450     C        0.84340    0.29540    0.59920    1.000
    H551     H        0.85960    0.27120    0.61220    1.000
    H552     H        0.86480    0.32340    0.59640    1.000
    H553     H        0.81320    0.30580    0.60900    1.000
    C451     C        0.87640    0.25010    0.55200    1.000
    H554     H        0.89510    0.23180    0.56730    1.000
    H555     H        0.86580    0.22820    0.53550    1.000
    H556     H        0.89670    0.27580    0.54330    1.000
    C452     C        0.69510    0.27900    0.48680    1.000
    H557     H        0.68690    0.24570    0.49430    1.000
    C453     C        0.65610    0.31600    0.49230    1.000
    H558     H        0.65320    0.32220    0.51440    1.000
    H559     H        0.66450    0.34620    0.48170    1.000
    H560     H        0.62520    0.30380    0.48440    1.000
    C454     C        0.70080    0.28250    0.45170    1.000
    H561     H        0.72490    0.25880    0.44470    1.000
    H562     H        0.66960    0.27580    0.44180    1.000
    H563     H        0.71160    0.31520    0.44620    1.000
    C455     C        0.50623    0.11430    0.65065    1.000
    C456     C        0.46260    0.12820    0.63898    1.000
    C457     C        0.42250    0.12760    0.65712    1.000
    H564     H        0.39210    0.13730    0.64900    1.000
    C458     C        0.42590    0.11310    0.68694    1.000
    H565     H        0.39790    0.11260    0.69960    1.000
    C459     C        0.46950    0.09910    0.69862    1.000
    H566     H        0.47190    0.08900    0.71940    1.000
    C460     C        0.50965    0.09970    0.68047    1.000
    C461     C        0.55860    0.08420    0.69270    1.000
    H567     H        0.58460    0.09170    0.67740    1.000
    C462     C        0.57120    0.10570    0.72410    1.000
    H568     H        0.57150    0.14110    0.72260    1.000
    H569     H        0.54690    0.09550    0.73920    1.000
    H570     H        0.60330    0.09410    0.73050    1.000
    C463     C        0.56370    0.03300    0.70420    1.000
    H571     H        0.59700    0.02770    0.71120    1.000
    H572     H        0.54120    0.02770    0.72130    1.000
    H573     H        0.55620    0.01030    0.68750    1.000
    C464     C        0.77910    0.06840    0.66250    1.000
    H574     H        0.80370    0.06760    0.64730    1.000
    C465     C        0.78310    0.03900    0.68770    1.000
    H575     H        0.80900    0.01640    0.68940    1.000
    C466     C        0.74760    0.04290    0.71139    1.000
    C467     C        0.75230    0.01100    0.73963    1.000
    C468     C        0.71130    0.07490    0.70782    1.000
    H576     H        0.68780    0.07870    0.72360    1.000
    C469     C        0.70840    0.10230    0.68120    1.000
    H577     H        0.68230    0.12450    0.67860    1.000
    C470     C        0.73140    0.99360    0.79157    1.000
    H578     H        0.71450    0.00300    0.80970    1.000
    C471     C        0.73150    0.02430    0.76670    1.000
    H579     H        0.71670    0.05530    0.76840    1.000
    C472     C        0.77660    0.96830    0.73880    1.000
    H580     H        0.79360    0.95860    0.72080    1.000
    C473     C        0.77630    0.93840    0.76506    1.000
    H581     H        0.79240    0.90800    0.76420    1.000
    N27      N        0.74160    0.09780    0.65904    1.000
    N28      N        0.75410    0.95140    0.79115    1.000
    O118     O        0.54670    0.11500    0.63200    1.000
    O119     O        0.63297    0.14428    0.63072    1.000
    O120     O        0.57070    0.18370    0.59766    1.000
    O121     O        0.56730    0.19530    0.65489    1.000
    O122     O        0.73990    0.23710    0.53883    1.000
    O123     O        0.71887    0.19870    0.58846    1.000
    O124     O        0.65374    0.23680    0.55674    1.000
    O125     O        0.71500    0.28950    0.58312    1.000
    O126     O        0.73650    0.12360    0.63316    1.000
    P27      P        0.58209    0.16408    0.62871    1.000
    P28      P        0.70382    0.24111    0.56924    1.000
    Zn27     Zn       0.69137    0.18352    0.62807    1.000
    Zn28     Zn       0.59437    0.24376    0.58049    1.000
    C474     C        0.45720    0.14350    0.60550    1.000
    H582     H        0.48930    0.14090    0.59500    1.000
    C475     C        0.44120    0.19690    0.60600    1.000
    H583     H        0.43720    0.20850    0.58480    1.000
    H584     H        0.41030    0.19980    0.61690    1.000
    H585     H        0.46590    0.21640    0.61640    1.000
    C476     C        0.42090    0.10690    0.59040    1.000
    H586     H        0.43320    0.07380    0.59300    1.000
    H587     H        0.38920    0.10970    0.60050    1.000
    H588     H        0.41760    0.11430    0.56850    1.000
    C477     C        0.73970    0.22140    0.02654    1.000
    C478     C        0.75890    0.20020    0.00041    1.000
    C479     C        0.73540    0.16150    0.98670    1.000
    H589     H        0.74860    0.14690    0.96880    1.000
    C480     C        0.69260    0.14400    0.99910    1.000
    H590     H        0.67640    0.11750    0.98970    1.000
    C481     C        0.67330    0.16530    0.02520    1.000
    H591     H        0.64400    0.15330    0.03370    1.000
    C482     C        0.69690    0.20400    0.03900    1.000
    C483     C        0.66810    0.22730    0.06750    1.000
    H592     H        0.68830    0.25620    0.07290    1.000
    C484     C        0.65660    0.20460    0.09920    1.000
    H593     H        0.64040    0.22880    0.11220    1.000
    H594     H        0.63520    0.17660    0.09640    1.000
    H595     H        0.68680    0.19420    0.10900    1.000
    C485     C        0.62360    0.24990    0.05200    1.000
    H596     H        0.60490    0.26820    0.06730    1.000
    H597     H        0.63420    0.27180    0.03550    1.000
    H598     H        0.60330    0.22420    0.04330    1.000
    C486     C        0.80490    0.22100    0.98680    1.000
    H599     H        0.81310    0.25430    0.99430    1.000
    C487     C        0.84390    0.18400    0.99230    1.000
    H600     H        0.84680    0.17780    0.01440    1.000
    H601     H        0.83550    0.15380    0.98170    1.000
    H602     H        0.87480    0.19620    0.98440    1.000
    C488     C        0.79920    0.21750    0.95170    1.000
    H603     H        0.77510    0.24120    0.94470    1.000
    H604     H        0.83040    0.22420    0.94180    1.000
    H605     H        0.78840    0.18480    0.94620    1.000
    C489     C        0.99377    0.38570    0.15065    1.000
    C490     C        0.03740    0.37180    0.13898    1.000
    C491     C        0.07750    0.37240    0.15712    1.000
    H606     H        0.10790    0.36270    0.14900    1.000
    C492     C        0.07410    0.38690    0.18694    1.000
    H607     H        0.10210    0.38740    0.19960    1.000
    C493     C        0.03050    0.40090    0.19862    1.000
    H608     H        0.02810    0.41100    0.21940    1.000
    C494     C        0.99035    0.40030    0.18047    1.000
    C495     C        0.94140    0.41580    0.19270    1.000
    H609     H        0.91540    0.40830    0.17740    1.000
    C496     C        0.92880    0.39430    0.22410    1.000
    H610     H        0.92850    0.35890    0.22260    1.000
    H611     H        0.95310    0.40450    0.23920    1.000
    H612     H        0.89670    0.40590    0.23050    1.000
    C497     C        0.93630    0.46700    0.20420    1.000
    H613     H        0.90300    0.47230    0.21120    1.000
    H614     H        0.95880    0.47230    0.22130    1.000
    H615     H        0.94380    0.48970    0.18750    1.000
    C498     C        0.72090    0.43160    0.16250    1.000
    H616     H        0.69630    0.43240    0.14730    1.000
    C499     C        0.71690    0.46100    0.18770    1.000
    H617     H        0.69100    0.48360    0.18940    1.000
    C500     C        0.75240    0.45710    0.21139    1.000
    C501     C        0.74770    0.48900    0.23963    1.000
    C502     C        0.78870    0.42510    0.20782    1.000
    H618     H        0.81220    0.42130    0.22360    1.000
    C503     C        0.79160    0.39770    0.18120    1.000
    H619     H        0.81770    0.37550    0.17860    1.000
    C504     C        0.76860    0.50640    0.29157    1.000
    H620     H        0.78550    0.49700    0.30970    1.000
    C505     C        0.76850    0.47570    0.26670    1.000
    H621     H        0.78330    0.44470    0.26840    1.000
    C506     C        0.72340    0.53170    0.23880    1.000
    H622     H        0.70640    0.54140    0.22080    1.000
    C507     C        0.72370    0.56160    0.26506    1.000
    H623     H        0.70760    0.59200    0.26420    1.000
    N29      N        0.75840    0.40220    0.15904    1.000
    N30      N        0.74590    0.54860    0.29115    1.000
    O127     O        0.95330    0.38500    0.13200    1.000
    O128     O        0.86703    0.35572    0.13072    1.000
    O129     O        0.92930    0.31630    0.09766    1.000
    O130     O        0.93270    0.30470    0.15489    1.000
    O131     O        0.76010    0.26290    0.03883    1.000
    O132     O        0.78113    0.30130    0.08846    1.000
    O133     O        0.84626    0.26320    0.05674    1.000
    O134     O        0.78500    0.21050    0.08312    1.000
    O135     O        0.76350    0.37640    0.13316    1.000
    P29      P        0.91791    0.33592    0.12871    1.000
    P30      P        0.79618    0.25889    0.06924    1.000
    Zn29     Zn       0.80863    0.31648    0.12807    1.000
    Zn30     Zn       0.90563    0.25624    0.08049    1.000
    C508     C        0.04280    0.35650    0.10550    1.000
    H624     H        0.01070    0.35910    0.09500    1.000
    C509     C        0.05880    0.30310    0.10600    1.000
    H625     H        0.06280    0.29150    0.08480    1.000
    H626     H        0.08970    0.30020    0.11690    1.000
    H627     H        0.03410    0.28360    0.11640    1.000
    C510     C        0.07910    0.39310    0.09040    1.000
    H628     H        0.06680    0.42620    0.09300    1.000
    H629     H        0.11080    0.39030    0.10050    1.000
    H630     H        0.08240    0.38570    0.06850    1.000
    C511     C        0.23970    0.72140    0.52654    1.000
    C512     C        0.25890    0.70020    0.50041    1.000
    C513     C        0.23540    0.66150    0.48670    1.000
    H631     H        0.24860    0.64690    0.46880    1.000
    C514     C        0.19260    0.64400    0.49910    1.000
    H632     H        0.17640    0.61750    0.48970    1.000
    C515     C        0.17330    0.66530    0.52520    1.000
    H633     H        0.14400    0.65330    0.53370    1.000
    C516     C        0.19690    0.70400    0.53900    1.000
    C517     C        0.16810    0.72730    0.56750    1.000
    H634     H        0.18830    0.75620    0.57290    1.000
    C518     C        0.15660    0.70460    0.59920    1.000
    H635     H        0.14040    0.72880    0.61220    1.000
    H636     H        0.13520    0.67660    0.59640    1.000
    H637     H        0.18680    0.69420    0.60900    1.000
    C519     C        0.12360    0.74990    0.55200    1.000
    H638     H        0.10490    0.76820    0.56730    1.000
    H639     H        0.13420    0.77180    0.53550    1.000
    H640     H        0.10330    0.72420    0.54330    1.000
    C520     C        0.30490    0.72100    0.48680    1.000
    H641     H        0.31310    0.75430    0.49430    1.000
    C521     C        0.34390    0.68400    0.49230    1.000
    H642     H        0.34680    0.67780    0.51440    1.000
    H643     H        0.33550    0.65380    0.48170    1.000
    H644     H        0.37480    0.69620    0.48440    1.000
    C522     C        0.29920    0.71750    0.45170    1.000
    H645     H        0.27510    0.74120    0.44470    1.000
    H646     H        0.33040    0.72420    0.44180    1.000
    H647     H        0.28840    0.68480    0.44620    1.000
    C523     C        0.49377    0.88570    0.65065    1.000
    C524     C        0.53740    0.87180    0.63898    1.000
    C525     C        0.57750    0.87240    0.65712    1.000
    H648     H        0.60790    0.86270    0.64900    1.000
    C526     C        0.57410    0.88690    0.68694    1.000
    H649     H        0.60210    0.88740    0.69960    1.000
    C527     C        0.53050    0.90090    0.69862    1.000
    H650     H        0.52810    0.91100    0.71940    1.000
    C528     C        0.49035    0.90030    0.68047    1.000
    C529     C        0.44140    0.91580    0.69270    1.000
    H651     H        0.41540    0.90830    0.67740    1.000
    C530     C        0.42880    0.89430    0.72410    1.000
    H652     H        0.42850    0.85890    0.72260    1.000
    H653     H        0.45310    0.90450    0.73920    1.000
    H654     H        0.39670    0.90590    0.73050    1.000
    C531     C        0.43630    0.96700    0.70420    1.000
    H655     H        0.40300    0.97230    0.71120    1.000
    H656     H        0.45880    0.97230    0.72130    1.000
    H657     H        0.44380    0.98970    0.68750    1.000
    C532     C        0.22090    0.93160    0.66250    1.000
    H658     H        0.19630    0.93240    0.64730    1.000
    C533     C        0.21690    0.96100    0.68770    1.000
    H659     H        0.19100    0.98360    0.68940    1.000
    C534     C        0.25240    0.95710    0.71139    1.000
    C535     C        0.24770    0.98900    0.73963    1.000
    C536     C        0.28870    0.92510    0.70782    1.000
    H660     H        0.31220    0.92130    0.72360    1.000
    C537     C        0.29160    0.89770    0.68120    1.000
    H661     H        0.31770    0.87550    0.67860    1.000
    C538     C        0.26860    0.00640    0.79157    1.000
    H662     H        0.28550    0.99700    0.80970    1.000
    C539     C        0.26850    0.97570    0.76670    1.000
    H663     H        0.28330    0.94470    0.76840    1.000
    C540     C        0.22340    0.03170    0.73880    1.000
    H664     H        0.20640    0.04140    0.72080    1.000
    C541     C        0.22370    0.06160    0.76506    1.000
    H665     H        0.20760    0.09200    0.76420    1.000
    N31      N        0.25840    0.90220    0.65904    1.000
    N32      N        0.24590    0.04860    0.79115    1.000
    O136     O        0.45330    0.88500    0.63200    1.000
    O137     O        0.36703    0.85572    0.63072    1.000
    O138     O        0.42930    0.81630    0.59766    1.000
    O139     O        0.43270    0.80470    0.65489    1.000
    O140     O        0.26010    0.76290    0.53883    1.000
    O141     O        0.28113    0.80130    0.58846    1.000
    O142     O        0.34626    0.76320    0.55674    1.000
    O143     O        0.28500    0.71050    0.58312    1.000
    O144     O        0.26350    0.87640    0.63316    1.000
    P31      P        0.41791    0.83592    0.62871    1.000
    P32      P        0.29618    0.75889    0.56924    1.000
    Zn31     Zn       0.30863    0.81648    0.62807    1.000
    Zn32     Zn       0.40563    0.75624    0.58049    1.000
    C542     C        0.54280    0.85650    0.60550    1.000
    H666     H        0.51070    0.85910    0.59500    1.000
    C543     C        0.55880    0.80310    0.60600    1.000
    H667     H        0.56280    0.79150    0.58480    1.000
    H668     H        0.58970    0.80020    0.61690    1.000
    H669     H        0.53410    0.78360    0.61640    1.000
    C544     C        0.57910    0.89310    0.59040    1.000
    H670     H        0.56680    0.92620    0.59300    1.000
    H671     H        0.61080    0.89030    0.60050    1.000
    H672     H        0.58240    0.88570    0.56850    1.000
