# CIF file generated by openbabel 3.1.0, see https://openbabel.org
data_I
_chemical_name_common 'image0'
_cell_length_a 15.0393
_cell_length_b 15.0393
_cell_length_c 11.9587
_cell_angle_alpha 90
_cell_angle_beta 90
_cell_angle_gamma 90
_space_group_name_H-M_alt 'P 1'
_space_group_name_Hall 'P 1'
loop_
    _symmetry_equiv_pos_as_xyz
    x,y,z
loop_
    _atom_site_label
    _atom_site_type_symbol
    _atom_site_fract_x
    _atom_site_fract_y
    _atom_site_fract_z
    _atom_site_occupancy
    C1       C        0.75110    0.25510    0.56201    1.000
    C2       C        0.70790    0.32130    0.50330    1.000
    C3       C        0.70930    0.32120    0.38780    1.000
    C4       C        0.75390    0.25480    0.33100    1.000
    C5       C        0.79710    0.18850    0.38970    1.000
    C6       C        0.79570    0.18870    0.50520    1.000
    H1       H        0.67780    0.36600    0.54150    1.000
    H2       H        0.75480    0.25470    0.25320    1.000
    H3       H        0.82480    0.14400    0.54480    1.000
    C7       C        0.66540    0.38840    0.32820    1.000
    O1       O        0.65000    0.46620    0.37160    1.000
    O2       O        0.63790    0.37700    0.22610    1.000
    C8       C        0.84230    0.12110    0.33210    1.000
    O3       O        0.87700    0.13400    0.23380    1.000
    O4       O        0.85230    0.04180    0.37360    1.000
    C9       C        0.24890    0.74490    0.06201    1.000
    C10      C        0.29210    0.67870    0.00330    1.000
    C11      C        0.29070    0.67880    0.88780    1.000
    C12      C        0.24610    0.74520    0.83100    1.000
    C13      C        0.20290    0.81150    0.88970    1.000
    C14      C        0.20430    0.81130    0.00520    1.000
    H4       H        0.32220    0.63400    0.04150    1.000
    H5       H        0.24520    0.74530    0.75320    1.000
    H6       H        0.17520    0.85600    0.04480    1.000
    C15      C        0.33460    0.61160    0.82820    1.000
    O5       O        0.35000    0.53380    0.87160    1.000
    O6       O        0.36210    0.62300    0.72610    1.000
    C16      C        0.15770    0.87890    0.83210    1.000
    O7       O        0.12300    0.86600    0.73380    1.000
    O8       O        0.14770    0.95820    0.87360    1.000
    C17      C        0.74490    0.75110    0.81201    1.000
    C18      C        0.67870    0.70790    0.75330    1.000
    C19      C        0.67880    0.70930    0.63780    1.000
    C20      C        0.74520    0.75390    0.58100    1.000
    C21      C        0.81150    0.79710    0.63970    1.000
    C22      C        0.81130    0.79570    0.75520    1.000
    H7       H        0.63400    0.67780    0.79150    1.000
    H8       H        0.74530    0.75480    0.50320    1.000
    H9       H        0.85600    0.82480    0.79480    1.000
    C23      C        0.61160    0.66540    0.57820    1.000
    O9       O        0.53380    0.65000    0.62160    1.000
    O10      O        0.62300    0.63790    0.47610    1.000
    C24      C        0.87890    0.84230    0.58210    1.000
    O11      O        0.86600    0.87700    0.48380    1.000
    O12      O        0.95820    0.85230    0.62360    1.000
    C25      C        0.25510    0.24890    0.31201    1.000
    C26      C        0.32130    0.29210    0.25330    1.000
    C27      C        0.32120    0.29070    0.13780    1.000
    C28      C        0.25480    0.24610    0.08100    1.000
    C29      C        0.18850    0.20290    0.13970    1.000
    C30      C        0.18870    0.20430    0.25520    1.000
    H10      H        0.36600    0.32220    0.29150    1.000
    H11      H        0.25470    0.24520    0.00320    1.000
    H12      H        0.14400    0.17520    0.29480    1.000
    C31      C        0.38840    0.33460    0.07820    1.000
    O13      O        0.46620    0.35000    0.12160    1.000
    O14      O        0.37700    0.36210    0.97610    1.000
    C32      C        0.12110    0.15770    0.08210    1.000
    O15      O        0.13400    0.12300    0.98380    1.000
    O16      O        0.04180    0.14770    0.12360    1.000
    C33      C        0.24890    0.25510    0.43799    1.000
    C34      C        0.29210    0.32130    0.49670    1.000
    C35      C        0.29070    0.32120    0.61220    1.000
    C36      C        0.24610    0.25480    0.66900    1.000
    C37      C        0.20290    0.18850    0.61030    1.000
    C38      C        0.20430    0.18870    0.49480    1.000
    H13      H        0.32220    0.36600    0.45850    1.000
    H14      H        0.24520    0.25470    0.74680    1.000
    H15      H        0.17520    0.14400    0.45520    1.000
    C39      C        0.33460    0.38840    0.67180    1.000
    O17      O        0.35000    0.46620    0.62840    1.000
    O18      O        0.36210    0.37700    0.77390    1.000
    C40      C        0.15770    0.12110    0.66790    1.000
    O19      O        0.12300    0.13400    0.76620    1.000
    O20      O        0.14770    0.04180    0.62640    1.000
    C41      C        0.75110    0.74490    0.93799    1.000
    C42      C        0.70790    0.67870    0.99670    1.000
    C43      C        0.70930    0.67880    0.11220    1.000
    C44      C        0.75390    0.74520    0.16900    1.000
    C45      C        0.79710    0.81150    0.11030    1.000
    C46      C        0.79570    0.81130    0.99480    1.000
    H16      H        0.67780    0.63400    0.95850    1.000
    H17      H        0.75480    0.74530    0.24680    1.000
    H18      H        0.82480    0.85600    0.95520    1.000
    C47      C        0.66540    0.61160    0.17180    1.000
    O21      O        0.65000    0.53380    0.12840    1.000
    O22      O        0.63790    0.62300    0.27390    1.000
    C48      C        0.84230    0.87890    0.16790    1.000
    O23      O        0.87700    0.86600    0.26620    1.000
    O24      O        0.85230    0.95820    0.12640    1.000
    C49      C        0.25510    0.75110    0.18799    1.000
    C50      C        0.32130    0.70790    0.24670    1.000
    C51      C        0.32120    0.70930    0.36220    1.000
    C52      C        0.25480    0.75390    0.41900    1.000
    C53      C        0.18850    0.79710    0.36030    1.000
    C54      C        0.18870    0.79570    0.24480    1.000
    H19      H        0.36600    0.67780    0.20850    1.000
    H20      H        0.25470    0.75480    0.49680    1.000
    H21      H        0.14400    0.82480    0.20520    1.000
    C55      C        0.38840    0.66540    0.42180    1.000
    O25      O        0.46620    0.65000    0.37840    1.000
    O26      O        0.37700    0.63790    0.52390    1.000
    C56      C        0.12110    0.84230    0.41790    1.000
    O27      O        0.13400    0.87700    0.51620    1.000
    O28      O        0.04180    0.85230    0.37640    1.000
    C57      C        0.74490    0.24890    0.68799    1.000
    C58      C        0.67870    0.29210    0.74670    1.000
    C59      C        0.67880    0.29070    0.86220    1.000
    C60      C        0.74520    0.24610    0.91900    1.000
    C61      C        0.81150    0.20290    0.86030    1.000
    C62      C        0.81130    0.20430    0.74480    1.000
    H22      H        0.63400    0.32220    0.70850    1.000
    H23      H        0.74530    0.24520    0.99680    1.000
    H24      H        0.85600    0.17520    0.70520    1.000
    C63      C        0.61160    0.33460    0.92180    1.000
    O29      O        0.53380    0.35000    0.87840    1.000
    O30      O        0.62300    0.36210    0.02390    1.000
    C64      C        0.87890    0.15770    0.91790    1.000
    O31      O        0.86600    0.12300    0.01620    1.000
    O32      O        0.95820    0.14770    0.87640    1.000
    V1       V        0.93700    0.06300    0.12500    1.000
    V2       V        0.06300    0.93700    0.62500    1.000
    V3       V        0.93700    0.93700    0.37500    1.000
    V4       V        0.06300    0.06300    0.87500    1.000
    O33      O        0.98180    0.00000    0.25000    1.000
    O34      O        0.01820    0.00000    0.75000    1.000
    O35      O        0.00000    0.98180    0.50000    1.000
    O36      O        0.00000    0.01820    0.00000    1.000
    V5       V        0.55700    0.55700    0.37500    1.000
    V6       V        0.44300    0.44300    0.87500    1.000
    V7       V        0.44300    0.55700    0.62500    1.000
    V8       V        0.55700    0.44300    0.12500    1.000
    O37      O        0.49010    0.50000    0.25000    1.000
    O38      O        0.50990    0.50000    0.75000    1.000
    O39      O        0.50000    0.49010    0.50000    1.000
    O40      O        0.50000    0.50990    0.00000    1.000
