data_functionalizedCrystal
_audit_creation_method	'EQeq! by Chris Wilmer'
_symmetry_space_group_name_H-M	'P1'
_symmetry_Int_Tables_number	1
_symmetry_cell_setting	triclinic
loop_
_symmetry_equiv_pos_as_xyz
  x,y,z
_cell_length_a	12.874
_cell_length_b	13.079
_cell_length_c	16.471
_cell_angle_alpha	86.193
_cell_angle_beta	85.954
_cell_angle_gamma	80.815
loop_
_atom_site_label
_atom_site_type_symbol
_atom_site_fract_x
_atom_site_fract_y
_atom_site_fract_z
_atom_site_charge
Mof_Pd	Pd	0.99808	0.77153	0.98839	0.518
Mof_Cu	Cu	0.45856	0.23331	0.48954	0.827
Mof_Na	Na	0.60746	0.39761	0.49518	2.636
Mof_C 	C 	0.9511	0.8453	0.1604	0.124
Mof_C 	C 	0.8789	0.9309	0.1369	-0.164
Mof_C 	C 	0.856	0.9595	0.0566	0.17
Mof_C 	C 	0.7839	0.05	0.0309	-0.138
Mof_H 	H 	0.7503	0.1037	0.0642	0.065
Mof_C 	C 	0.7731	0.0439	0.9505	-0.14
Mof_H 	H 	0.7303	0.0929	0.917	0.068
Mof_C 	C 	0.8379	0.9502	0.9245	0.187
Mof_C 	C 	0.8401	0.912	0.8471	-0.213
Mof_C 	C 	0.905	0.822	0.8227	0.136
Mof_C 	C 	0.9148	0.787	0.741	-0.095
Mof_H 	H 	0.8746	0.8167	0.6967	0.055
Mof_C 	C 	0.9922	0.7039	0.7392	-0.089
Mof_H 	H 	0.0163	0.6642	0.6934	0.057
Mof_C 	C 	0.0312	0.6866	0.8194	0.11
Mof_C 	C 	0.1154	0.6106	0.8404	-0.144
Mof_C 	C 	0.1537	0.5947	0.9179	0.111
Mof_C 	C 	0.2413	0.5177	0.9401	-0.082
Mof_H 	H 	0.2841	0.4719	0.9046	0.057
Mof_C 	C 	0.2515	0.5223	0.0205	-0.09
Mof_H 	H 	0.3022	0.4801	0.0524	0.06
Mof_C 	C 	0.1707	0.6034	0.0486	0.114
Mof_C 	C 	0.1549	0.6307	0.1295	-0.149
Mof_C 	C 	0.0775	0.7106	0.1565	0.11
Mof_C 	C 	0.0561	0.734	0.2407	-0.081
Mof_H 	H 	0.0906	0.6988	0.286	0.054
Mof_C 	C 	0.9771	0.8158	0.2429	-0.094
Mof_H 	H 	0.9449	0.8479	0.2904	0.066
Mof_N 	N 	0.0126	0.7785	0.10871	-0.198
Mof_N 	N 	0.8894	0.9016	0.99009	-0.212
Mof_N 	N 	0.9766	0.7591	0.86942	-0.205
Mof_N 	N 	0.1136	0.6476	0.98494	-0.198
Mof_C 	C 	0.8185	0.9944	0.2021	0.196
Mof_C 	C 	0.7429	0.9518	0.2528	-0.118
Mof_H 	H 	0.7343	0.8817	0.2477	0.077
Mof_C 	C 	0.6802	0.0101	0.3104	0.003
Mof_H 	H 	0.6278	0.9804	0.3432	-0.017
Mof_C 	C 	0.6938	0.1123	0.3204	-0.261
Mof_C 	C 	0.7719	0.1527	0.2723	0.161
Mof_H 	H 	0.784	0.2211	0.2799	-0.027
Mof_C 	C 	0.8328	0.0952	0.2133	-0.282
Mof_H 	H 	0.8848	0.1253	0.1802	0.114
Mof_C 	C 	0.6243	0.1785	0.3795	0.565
Mof_C 	C 	0.7735	0.9745	0.7854	0.334
Mof_C 	C 	0.7968	0.0714	0.7582	-0.435
Mof_H 	H 	0.853	0.0971	0.7804	0.168
Mof_C 	C 	0.7395	0.131	0.6995	0.323
Mof_H 	H 	0.7581	0.1963	0.6807	-0.09
Mof_C 	C 	0.6549	0.0968	0.6677	-0.479
Mof_C 	C 	0.6314	0.9985	0.6939	0.354
Mof_H 	H 	0.5747	0.9731	0.6721	-0.148
Mof_C 	C 	0.6912	0.9376	0.7522	-0.376
Mof_H 	H 	0.6756	0.8706	0.7692	0.153
Mof_C 	C 	0.5936	0.1662	0.605	0.664
Mof_C 	C 	0.165	0.5384	0.7766	0.147
Mof_C 	C 	0.2628	0.5451	0.7384	-0.215
Mof_H 	H 	0.3001	0.5979	0.7522	0.092
Mof_C 	C 	0.3078	0.4765	0.6804	0.12
Mof_H 	H 	0.3752	0.4826	0.6547	-0.124
Mof_C 	C 	0.2537	0.3987	0.6601	-0.231
Mof_C 	C 	0.1556	0.3919	0.698	0.115
Mof_H 	H 	0.118	0.3393	0.6841	-0.002
Mof_C 	C 	0.1113	0.4607	0.7559	-0.202
Mof_H 	H 	0.0439	0.4547	0.7815	0.098
Mof_C 	C 	0.3002	0.3195	0.6	0.411
Mof_C 	C 	0.2229	0.5704	0.1914	0.162
Mof_C 	C 	0.2103	0.4693	0.2178	-0.229
Mof_H 	H 	0.1607	0.4362	0.1934	0.105
Mof_C 	C 	0.2693	0.4166	0.2791	0.162
Mof_H 	H 	0.2604	0.3476	0.2965	-0.026
Mof_C 	C 	0.3416	0.4649	0.3152	-0.295
Mof_C 	C 	0.3569	0.5649	0.2882	0.164
Mof_H 	H 	0.4071	0.5977	0.3121	-0.078
Mof_C 	C 	0.2983	0.616	0.2263	-0.23
Mof_H 	H 	0.3097	0.6837	0.2072	0.105
Mof_C 	C 	0.4029	0.4102	0.3843	0.553
Mof_O 	O 	0.546	0.13943	0.41447	-0.814
Mof_O 	O 	0.6436	0.26632	0.39121	-0.666
Mof_O 	O 	0.622	0.24984	0.58245	-0.778
Mof_O 	O 	0.5139	0.13401	0.57912	-0.855
Mof_O 	O 	0.3899	0.33075	0.56703	-0.562
Mof_O 	O 	0.2496	0.2498	0.5872	-0.372
Mof_O 	O 	0.3935	0.31452	0.3988	-0.512
Mof_O 	O 	0.4577	0.45905	0.42226	-1.007
Mof_N 	N 	0.2055	0.6024	0.501	-0.378
Mof_C 	C 	0.1492	0.6943	0.5224	0.049
Mof_H 	H 	0.1839	0.738	0.5514	-0.044
Mof_C 	C 	0.045	0.73	0.5054	-0.117
Mof_H 	H 	0.0098	0.795	0.5229	0.058
Mof_C 	C 	0.9964	0.6706	0.4642	0.034
Mof_H 	H 	0.9254	0.6923	0.4508	0.023
Mof_C 	C 	0.052	0.5737	0.4402	-0.15
Mof_H 	H 	0.0199	0.5302	0.4089	0.075
Mof_C 	C 	0.1545	0.5439	0.4636	0.125
Mof_H 	H 	0.1892	0.4765	0.4514	-0.06
Mof_Pd	Pd	0.00192	0.22847	0.01161	0.505
Mof_Cu	Cu	0.54144	0.76669	0.51046	0.831
Mof_Na	Na	0.39254	0.60239	0.50482	2.635
Mof_C 	C 	0.0489	0.1547	0.8396	0.106
Mof_C 	C 	0.1211	0.0691	0.8631	-0.149
Mof_C 	C 	0.144	0.0405	0.9434	0.062
Mof_C 	C 	0.2161	0.95	0.9691	-0.048
Mof_H 	H 	0.2497	0.8963	0.9358	0.053
Mof_C 	C 	0.2269	0.9561	0.0495	-0.017
Mof_H 	H 	0.2697	0.9071	0.083	0.047
Mof_C 	C 	0.1621	0.0498	0.0755	0.033
Mof_C 	C 	0.1599	0.088	0.1529	-0.09
Mof_C 	C 	0.095	0.178	0.1773	0.079
Mof_C 	C 	0.0852	0.213	0.259	-0.067
Mof_H 	H 	0.1254	0.1833	0.3033	0.037
Mof_C 	C 	0.0078	0.2961	0.2608	-0.101
Mof_H 	H 	0.9837	0.3358	0.3066	0.059
Mof_C 	C 	0.9688	0.3134	0.1806	0.111
Mof_C 	C 	0.8846	0.3894	0.1596	-0.145
Mof_C 	C 	0.8463	0.4053	0.0821	0.112
Mof_C 	C 	0.7587	0.4823	0.0599	-0.087
Mof_H 	H 	0.7159	0.5281	0.0954	0.06
Mof_C 	C 	0.7485	0.4777	0.9795	-0.086
Mof_H 	H 	0.6978	0.5199	0.9476	0.06
Mof_C 	C 	0.8293	0.3966	0.9514	0.114
Mof_C 	C 	0.8451	0.3693	0.8705	-0.149
Mof_C 	C 	0.9225	0.2894	0.8435	0.109
Mof_C 	C 	0.9439	0.266	0.7593	-0.09
Mof_H 	H 	0.9094	0.3012	0.714	0.057
Mof_C 	C 	0.0229	0.1842	0.7571	-0.091
Mof_H 	H 	0.0551	0.1521	0.7096	0.054
Mof_N 	N 	0.9874	0.2215	0.89129	-0.197
Mof_N 	N 	0.1106	0.0984	0.00991	-0.185
Mof_N 	N 	0.0234	0.2409	0.13058	-0.196
Mof_N 	N 	0.8864	0.3524	0.01506	-0.199
Mof_C 	C 	0.1815	0.0056	0.7979	0.17
Mof_C 	C 	0.2571	0.0482	0.7472	-0.404
Mof_H 	H 	0.2657	0.1183	0.7523	0.162
Mof_C 	C 	0.3198	0.9899	0.6896	0.436
Mof_H 	H 	0.3722	0.0196	0.6568	-0.231
Mof_C 	C 	0.3062	0.8877	0.6796	-0.402
Mof_C 	C 	0.2281	0.8473	0.7277	0.224
Mof_H 	H 	0.216	0.7789	0.7201	-0.045
Mof_C 	C 	0.1672	0.9048	0.7867	-0.22
Mof_H 	H 	0.1152	0.8747	0.8198	0.11
Mof_C 	C 	0.3757	0.8215	0.6205	0.625
Mof_C 	C 	0.2265	0.0255	0.2146	0.03
Mof_C 	C 	0.2032	0.9286	0.2418	-0.088
Mof_H 	H 	0.147	0.9029	0.2196	0.073
Mof_C 	C 	0.2605	0.869	0.3005	0.077
Mof_H 	H 	0.2419	0.8037	0.3193	-0.005
Mof_C 	C 	0.3451	0.9032	0.3323	-0.202
Mof_C 	C 	0.3686	0.0015	0.3061	0.025
Mof_H 	H 	0.4253	0.0269	0.3279	-0.073
Mof_C 	C 	0.3088	0.0624	0.2478	-0.136
Mof_H 	H 	0.3244	0.1294	0.2308	0.067
Mof_C 	C 	0.4064	0.8338	0.395	0.58
Mof_C 	C 	0.835	0.4616	0.2234	0.146
Mof_C 	C 	0.7372	0.4549	0.2616	-0.214
Mof_H 	H 	0.6999	0.4021	0.2478	0.09
Mof_C 	C 	0.6922	0.5235	0.3196	0.119
Mof_H 	H 	0.6248	0.5174	0.3453	-0.123
Mof_C 	C 	0.7463	0.6013	0.3399	-0.228
Mof_C 	C 	0.8444	0.6081	0.302	0.114
Mof_H 	H 	0.882	0.6607	0.3159	-0.001
Mof_C 	C 	0.8887	0.5393	0.2441	-0.201
Mof_H 	H 	0.9561	0.5453	0.2185	0.097
Mof_C 	C 	0.6998	0.6805	0.4	0.409
Mof_C 	C 	0.7771	0.4296	0.8086	0.16
Mof_C 	C 	0.7897	0.5307	0.7822	-0.227
Mof_H 	H 	0.8393	0.5638	0.8066	0.104
Mof_C 	C 	0.7307	0.5834	0.7209	0.16
Mof_H 	H 	0.7396	0.6524	0.7035	-0.025
Mof_C 	C 	0.6584	0.5351	0.6848	-0.293
Mof_C 	C 	0.6431	0.4351	0.7118	0.162
Mof_H 	H 	0.5929	0.4023	0.6879	-0.078
Mof_C 	C 	0.7017	0.384	0.7737	-0.227
Mof_H 	H 	0.6903	0.3163	0.7928	0.101
Mof_C 	C 	0.5971	0.5898	0.6157	0.552
Mof_O 	O 	0.454	0.86057	0.58553	-0.802
Mof_O 	O 	0.3564	0.73368	0.60879	-0.679
Mof_O 	O 	0.378	0.75016	0.41755	-0.752
Mof_O 	O 	0.4861	0.86599	0.42088	-0.813
Mof_O 	O 	0.6101	0.66925	0.43297	-0.56
Mof_O 	O 	0.7504	0.7502	0.4128	-0.362
Mof_O 	O 	0.6065	0.68548	0.6012	-0.509
Mof_O 	O 	0.5423	0.54095	0.57774	-1.006
Mof_N 	N 	0.7945	0.3976	0.499	-0.379
Mof_C 	C 	0.8508	0.3057	0.4776	0.05
Mof_H 	H 	0.8161	0.262	0.4486	-0.05
Mof_C 	C 	0.955	0.27	0.4946	-0.122
Mof_H 	H 	0.9902	0.205	0.4771	0.046
Mof_C 	C 	0.0036	0.3294	0.5358	0.038
Mof_H 	H 	0.0746	0.3077	0.5492	0.019
Mof_C 	C 	0.948	0.4263	0.5598	-0.154
Mof_H 	H 	0.9801	0.4698	0.5911	0.076
Mof_C 	C 	0.8455	0.4561	0.5364	0.127
Mof_H 	H 	0.8108	0.5235	0.5486	-0.06
Mof_Na	Na	0.5	0	0.5	2.532
_end
