data_functionalizedCrystal
_audit_creation_method	'EQeq! by Chris Wilmer'
_symmetry_space_group_name_H-M	'P1'
_symmetry_Int_Tables_number	1
_symmetry_cell_setting	triclinic
loop_
_symmetry_equiv_pos_as_xyz
  x,y,z
_cell_length_a	15.1165
_cell_length_b	15.1165
_cell_length_c	12.0355
_cell_angle_alpha	90
_cell_angle_beta	90
_cell_angle_gamma	90
loop_
_atom_site_label
_atom_site_type_symbol
_atom_site_fract_x
_atom_site_fract_y
_atom_site_fract_z
_atom_site_charge
Mof_O 	O 	0.6019	0.2879	0.7571	-0.511
Mof_O 	O 	0.6191	0.3793	0.6087	-0.481
Mof_C 	C 	0.5934	0.3609	0.7078	0.398
Mof_C 	C 	0.5476	0.4363	0.7605	-0.084
Mof_C 	C 	0.5476	0.4333	0.8796	-0.053
Mof_H 	H 	0.57318	0.38162	0.90735	0.074
Mof_O 	O 	0.1019	0.7879	0.2571	-0.52
Mof_O 	O 	0.1191	0.8793	0.1087	-0.494
Mof_C 	C 	0.0934	0.8609	0.2078	0.402
Mof_C 	C 	0.0476	0.9363	0.2605	-0.089
Mof_C 	C 	0.0476	0.9333	0.3796	0.009
Mof_H 	H 	0.07318	0.88162	0.40735	0.038
Mof_O 	O 	0.8981	0.2121	0.2571	-0.52
Mof_O 	O 	0.8809	0.1207	0.1087	-0.498
Mof_C 	C 	0.9066	0.1391	0.2078	0.403
Mof_C 	C 	0.9524	0.0637	0.2605	-0.099
Mof_C 	C 	0.9524	0.0667	0.3796	-0.002
Mof_H 	H 	0.92682	0.11838	0.40735	0.041
Mof_O 	O 	0.3981	0.7121	0.7571	-0.508
Mof_O 	O 	0.3809	0.6207	0.6087	-0.48
Mof_C 	C 	0.4066	0.6391	0.7078	0.399
Mof_C 	C 	0.4524	0.5637	0.7605	-0.083
Mof_C 	C 	0.4524	0.5667	0.8796	-0.052
Mof_H 	H 	0.42682	0.61838	0.90735	0.075
Mof_O 	O 	0.7121	0.1019	0.0071	-0.613
Mof_O 	O 	0.6207	0.1191	0.8587	-0.521
Mof_C 	C 	0.6391	0.0934	0.9578	0.611
Mof_C 	C 	0.5637	0.0476	0.0105	-0.39
Mof_C 	C 	0.5667	0.0476	0.1296	0.144
Mof_H 	H 	0.61838	0.07318	0.15735	-0.015
Mof_O 	O 	0.2121	0.6019	0.5071	-0.519
Mof_O 	O 	0.1207	0.6191	0.3587	-0.49
Mof_C 	C 	0.1391	0.5934	0.4578	0.41
Mof_C 	C 	0.0637	0.5476	0.5105	-0.12
Mof_C 	C 	0.0667	0.5476	0.6296	0.013
Mof_H 	H 	0.11838	0.57318	0.65735	0.035
Mof_O 	O 	0.7879	0.3981	0.5071	-0.517
Mof_O 	O 	0.8793	0.3809	0.3587	-0.486
Mof_C 	C 	0.8609	0.4066	0.4578	0.409
Mof_C 	C 	0.9363	0.4524	0.5105	-0.111
Mof_C 	C 	0.9333	0.4524	0.6296	0.023
Mof_H 	H 	0.88162	0.42682	0.65735	0.034
Mof_O 	O 	0.2879	0.8981	0.0071	-0.611
Mof_O 	O 	0.3793	0.8809	0.8587	-0.515
Mof_C 	C 	0.3609	0.9066	0.9578	0.613
Mof_C 	C 	0.4363	0.9524	0.0105	-0.374
Mof_C 	C 	0.4333	0.9524	0.1296	0.166
Mof_H 	H 	0.38162	0.92682	0.15735	-0.018
Mof_O 	O 	0.8981	0.2879	0.9929	-0.411
Mof_O 	O 	0.8809	0.3793	0.1413	-0.441
Mof_C 	C 	0.9066	0.3609	0.0422	0.19
Mof_C 	C 	0.9524	0.4363	0.9895	0.198
Mof_C 	C 	0.9524	0.4333	0.8704	-0.169
Mof_H 	H 	0.92682	0.38162	0.84265	0.103
Mof_O 	O 	0.3981	0.7879	0.4929	-0.513
Mof_O 	O 	0.3809	0.8793	0.6413	-0.47
Mof_C 	C 	0.4066	0.8609	0.5422	0.394
Mof_C 	C 	0.4524	0.9363	0.4895	-0.066
Mof_C 	C 	0.4524	0.9333	0.3704	-0.025
Mof_H 	H 	0.42682	0.88162	0.34265	0.05
Mof_O 	O 	0.6019	0.2121	0.4929	-0.516
Mof_O 	O 	0.6191	0.1207	0.6413	-0.478
Mof_C 	C 	0.5934	0.1391	0.5422	0.396
Mof_C 	C 	0.5476	0.0637	0.4895	-0.085
Mof_C 	C 	0.5476	0.0667	0.3704	-0.045
Mof_H 	H 	0.57318	0.11838	0.34265	0.054
Mof_O 	O 	0.1019	0.7121	0.9929	-0.412
Mof_O 	O 	0.1191	0.6207	0.1413	-0.444
Mof_C 	C 	0.0934	0.6391	0.0422	0.192
Mof_C 	C 	0.0476	0.5637	0.9895	0.189
Mof_C 	C 	0.0476	0.5667	0.8704	-0.179
Mof_H 	H 	0.07318	0.61838	0.84265	0.105
Mof_O 	O 	0.7879	0.1019	0.7429	-0.511
Mof_O 	O 	0.8793	0.1191	0.8913	-0.456
Mof_C 	C 	0.8609	0.0934	0.7922	0.394
Mof_C 	C 	0.9363	0.0476	0.7395	-0.078
Mof_C 	C 	0.9333	0.0476	0.6204	-0.012
Mof_H 	H 	0.88162	0.07318	0.59265	0.044
Mof_O 	O 	0.2879	0.6019	0.2429	-0.526
Mof_O 	O 	0.3793	0.6191	0.3913	-0.485
Mof_C 	C 	0.3609	0.5934	0.2922	0.414
Mof_C 	C 	0.4363	0.5476	0.2395	-0.131
Mof_C 	C 	0.4333	0.5476	0.1204	0.021
Mof_H 	H 	0.38162	0.57318	0.09265	0.016
Mof_O 	O 	0.7121	0.3981	0.2429	-0.525
Mof_O 	O 	0.6207	0.3809	0.3913	-0.486
Mof_C 	C 	0.6391	0.4066	0.2922	0.414
Mof_C 	C 	0.5637	0.4524	0.2395	-0.131
Mof_C 	C 	0.5667	0.4524	0.1204	0.021
Mof_H 	H 	0.61838	0.42682	0.09265	0.017
Mof_O 	O 	0.2121	0.8981	0.7429	-0.506
Mof_O 	O 	0.1207	0.8809	0.8913	-0.453
Mof_C 	C 	0.1391	0.9066	0.7922	0.393
Mof_C 	C 	0.0637	0.9524	0.7395	-0.067
Mof_C 	C 	0.0667	0.9524	0.6204	-0.001
Mof_H 	H 	0.11838	0.92682	0.59265	0.043
Mof_V 	V 	0.69102	0.30898	0.5	1.81
Mof_V 	V 	0.19102	0.80898	-0	1.786
Mof_V 	V 	0.80898	0.19102	-0	1.786
Mof_V 	V 	0.30898	0.69102	0.5	1.81
Mof_V 	V 	0.69102	0.19102	0.75	1.811
Mof_V 	V 	0.19102	0.69102	0.25	1.807
Mof_V 	V 	0.80898	0.30898	0.25	1.807
Mof_V 	V 	0.30898	0.80898	0.75	1.812
Mof_O 	O 	0.7444	0.25	0.625	-0.813
Mof_H 	H 	0.806	0.25	0.625	0.231
Mof_O 	O 	0.2444	0.75	0.125	-0.82
Mof_H 	H 	0.306	0.75	0.125	0.226
Mof_O 	O 	0.7556	0.25	0.125	-0.82
Mof_H 	H 	0.694	0.25	0.125	0.225
Mof_O 	O 	0.2556	0.75	0.625	-0.813
Mof_H 	H 	0.194	0.75	0.625	0.231
Mof_O 	O 	0.75	0.2444	0.875	-0.797
Mof_H 	H 	0.75	0.306	0.875	0.236
Mof_O 	O 	0.25	0.7444	0.375	-0.813
Mof_H 	H 	0.25	0.806	0.375	0.232
Mof_O 	O 	0.75	0.2556	0.375	-0.813
Mof_H 	H 	0.75	0.194	0.375	0.231
Mof_O 	O 	0.25	0.7556	0.875	-0.797
Mof_H 	H 	0.25	0.694	0.875	0.236
Mof_C 	C 	0.5	0.5	0.7037	0.042
Mof_C 	C 	0.5	0.5	0.9362	0.097
Mof_H 	H 	0.5	0.5	0.626	0.058
Mof_C 	C 	-1.6866e-33	-1.14734e-33	0.2037	0.019
Mof_C 	C 	-3.28723e-33	-4.58938e-33	0.4362	-0.027
Mof_H 	H 	-7.71208e-34	-1.14734e-33	0.126	0.043
Mof_C 	C 	0.5	0	0.9537	0.395
Mof_C 	C 	0.5	-1.14734e-33	0.1862	-0.133
Mof_H 	H 	0.5	-9.17876e-33	0.876	-0.06
Mof_C 	C 	-7.82437e-33	0.5	0.4537	0.062
Mof_C 	C 	-7.13031e-33	0.5	0.6862	-0.049
Mof_H 	H 	-5.76163e-33	0.5	0.376	0.042
Mof_C 	C 	-4.45116e-33	0.5	0.0463	-0.323
Mof_C 	C 	-1.59281e-32	0.5	0.8138	0.12
Mof_H 	H 	-7.77179e-34	0.5	0.124	0.168
Mof_C 	C 	0.5	0	0.5463	0.011
Mof_C 	C 	0.5	0	0.3138	0.033
Mof_H 	H 	0.5	0	0.624	0.065
Mof_C 	C 	-6.80163e-33	-4.58938e-33	0.7963	0.001
Mof_C 	C 	1.68306e-33	0	0.5638	-0.017
Mof_H 	H 	-6.56968e-33	-9.17876e-33	0.874	0.072
Mof_C 	C 	0.5	0.5	0.2963	0.082
Mof_C 	C 	0.5	0.5	0.0638	-0.084
Mof_H 	H 	0.5	0.5	0.374	0.043
_end
