data_functionalizedCrystal
_audit_creation_method	'EQeq! by Chris Wilmer'
_symmetry_space_group_name_H-M	'P1'
_symmetry_Int_Tables_number	1
_symmetry_cell_setting	triclinic
loop_
_symmetry_equiv_pos_as_xyz
  x,y,z
_cell_length_a	38.068
_cell_length_b	38.068
_cell_length_c	38.068
_cell_angle_alpha	90
_cell_angle_beta	90
_cell_angle_gamma	90
loop_
_atom_site_label
_atom_site_type_symbol
_atom_site_fract_x
_atom_site_fract_y
_atom_site_fract_z
_atom_site_charge
Mof_N 	N 	0.68749	0.53921	0.29407	-0.106
Mof_N 	N 	0.71409	0.53955	0.31716	-0.135
Mof_N 	N 	0.66644	0.56652	0.29908	-0.09
Mof_C 	C 	0.67982	0.58513	0.32625	0.025
Mof_C 	C 	0.7099	0.56781	0.33752	0.012
Mof_H 	H 	0.7248	0.5748	0.3563	0.019
Mof_C 	C 	0.6767	0.6335	0.3694	-0.116
Mof_H 	H 	0.6972	0.6245	0.3804	0.074
Mof_C 	C 	0.66322	0.61688	0.33974	0.06
Mof_N 	N 	0.68749	0.03921	0.79407	-0.106
Mof_N 	N 	0.71409	0.03955	0.81716	-0.135
Mof_N 	N 	0.66644	0.06652	0.79908	-0.091
Mof_C 	C 	0.67982	0.08513	0.82625	0.025
Mof_C 	C 	0.7099	0.06781	0.83752	0.012
Mof_H 	H 	0.7248	0.0748	0.8563	0.019
Mof_C 	C 	0.6767	0.1335	0.8694	-0.116
Mof_H 	H 	0.6972	0.1245	0.8804	0.074
Mof_C 	C 	0.66322	0.11688	0.83974	0.06
Mof_N 	N 	0.18749	0.53921	0.79407	-0.106
Mof_N 	N 	0.21409	0.53955	0.81716	-0.135
Mof_N 	N 	0.16644	0.56652	0.79908	-0.09
Mof_C 	C 	0.17982	0.58513	0.82625	0.025
Mof_C 	C 	0.2099	0.56781	0.83752	0.012
Mof_H 	H 	0.2248	0.5748	0.8563	0.02
Mof_C 	C 	0.1767	0.6335	0.8694	-0.116
Mof_H 	H 	0.1972	0.6245	0.8804	0.074
Mof_C 	C 	0.16322	0.61688	0.83974	0.06
Mof_N 	N 	0.18749	0.03921	0.29407	-0.106
Mof_N 	N 	0.21409	0.03955	0.31716	-0.135
Mof_N 	N 	0.16644	0.06652	0.29908	-0.091
Mof_C 	C 	0.17982	0.08513	0.32625	0.025
Mof_C 	C 	0.2099	0.06781	0.33752	0.012
Mof_H 	H 	0.2248	0.0748	0.3563	0.019
Mof_C 	C 	0.1767	0.1335	0.3694	-0.116
Mof_H 	H 	0.1972	0.1245	0.3804	0.073
Mof_C 	C 	0.16322	0.11688	0.33974	0.059
Mof_N 	N 	0.31251	0.46079	0.29407	-0.106
Mof_N 	N 	0.28591	0.46045	0.31716	-0.135
Mof_N 	N 	0.33356	0.43348	0.29908	-0.09
Mof_C 	C 	0.32018	0.41487	0.32625	0.025
Mof_C 	C 	0.2901	0.43219	0.33752	0.012
Mof_H 	H 	0.2752	0.4252	0.3563	0.019
Mof_C 	C 	0.3233	0.3665	0.3694	-0.116
Mof_H 	H 	0.3028	0.3755	0.3804	0.074
Mof_C 	C 	0.33678	0.38312	0.33974	0.06
Mof_N 	N 	0.31251	0.96079	0.79407	-0.103
Mof_N 	N 	0.28591	0.96045	0.81716	-0.132
Mof_N 	N 	0.33356	0.93348	0.79908	-0.089
Mof_C 	C 	0.32018	0.91487	0.82625	0.026
Mof_C 	C 	0.2901	0.93219	0.83752	0.013
Mof_H 	H 	0.2752	0.9252	0.8563	0.021
Mof_C 	C 	0.3233	0.8665	0.8694	-0.116
Mof_H 	H 	0.3028	0.8755	0.8804	0.075
Mof_C 	C 	0.33678	0.88312	0.83974	0.06
Mof_N 	N 	0.81251	0.46079	0.79407	-0.106
Mof_N 	N 	0.78591	0.46045	0.81716	-0.135
Mof_N 	N 	0.83356	0.43348	0.79908	-0.09
Mof_C 	C 	0.82018	0.41487	0.82625	0.026
Mof_C 	C 	0.7901	0.43219	0.83752	0.013
Mof_H 	H 	0.7752	0.4252	0.8563	0.02
Mof_C 	C 	0.8233	0.3665	0.8694	-0.116
Mof_H 	H 	0.8028	0.3755	0.8804	0.074
Mof_C 	C 	0.83678	0.38312	0.83974	0.06
Mof_N 	N 	0.81251	0.96079	0.29407	-0.103
Mof_N 	N 	0.78591	0.96045	0.31716	-0.132
Mof_N 	N 	0.83356	0.93348	0.29908	-0.089
Mof_C 	C 	0.82018	0.91487	0.32625	0.026
Mof_C 	C 	0.7901	0.93219	0.33752	0.013
Mof_H 	H 	0.7752	0.9252	0.3563	0.02
Mof_C 	C 	0.8233	0.8665	0.3694	-0.116
Mof_H 	H 	0.8028	0.8755	0.3804	0.074
Mof_C 	C 	0.83678	0.88312	0.33974	0.06
Mof_N 	N 	0.31251	0.53921	0.70593	-0.106
Mof_N 	N 	0.28591	0.53955	0.68284	-0.135
Mof_N 	N 	0.33356	0.56652	0.70092	-0.09
Mof_C 	C 	0.32018	0.58513	0.67375	0.025
Mof_C 	C 	0.2901	0.56781	0.66248	0.012
Mof_H 	H 	0.2752	0.5748	0.6437	0.019
Mof_C 	C 	0.3233	0.6335	0.6306	-0.116
Mof_H 	H 	0.3028	0.6245	0.6196	0.074
Mof_C 	C 	0.33678	0.61688	0.66026	0.06
Mof_N 	N 	0.31251	0.03921	0.20593	-0.106
Mof_N 	N 	0.28591	0.03955	0.18284	-0.135
Mof_N 	N 	0.33356	0.06652	0.20092	-0.091
Mof_C 	C 	0.32018	0.08513	0.17375	0.025
Mof_C 	C 	0.2901	0.06781	0.16248	0.012
Mof_H 	H 	0.2752	0.0748	0.1437	0.019
Mof_C 	C 	0.3233	0.1335	0.1306	-0.116
Mof_H 	H 	0.3028	0.1245	0.1196	0.073
Mof_C 	C 	0.33678	0.11688	0.16026	0.059
Mof_N 	N 	0.81251	0.53921	0.20593	-0.106
Mof_N 	N 	0.78591	0.53955	0.18284	-0.135
Mof_N 	N 	0.83356	0.56652	0.20092	-0.09
Mof_C 	C 	0.82018	0.58513	0.17375	0.025
Mof_C 	C 	0.7901	0.56781	0.16248	0.012
Mof_H 	H 	0.7752	0.5748	0.1437	0.019
Mof_C 	C 	0.8233	0.6335	0.1306	-0.116
Mof_H 	H 	0.8028	0.6245	0.1196	0.074
Mof_C 	C 	0.83678	0.61688	0.16026	0.06
Mof_N 	N 	0.81251	0.03921	0.70593	-0.106
Mof_N 	N 	0.78591	0.03955	0.68284	-0.135
Mof_N 	N 	0.83356	0.06652	0.70092	-0.09
Mof_C 	C 	0.82018	0.08513	0.67375	0.025
Mof_C 	C 	0.7901	0.06781	0.66248	0.012
Mof_H 	H 	0.7752	0.0748	0.6437	0.019
Mof_C 	C 	0.8233	0.1335	0.6306	-0.116
Mof_H 	H 	0.8028	0.1245	0.6196	0.074
Mof_C 	C 	0.83678	0.11688	0.66026	0.06
Mof_N 	N 	0.68749	0.46079	0.70593	-0.106
Mof_N 	N 	0.71409	0.46045	0.68284	-0.135
Mof_N 	N 	0.66644	0.43348	0.70092	-0.09
Mof_C 	C 	0.67982	0.41487	0.67375	0.025
Mof_C 	C 	0.7099	0.43219	0.66248	0.012
Mof_H 	H 	0.7248	0.4252	0.6437	0.019
Mof_C 	C 	0.6767	0.3665	0.6306	-0.116
Mof_H 	H 	0.6972	0.3755	0.6196	0.074
Mof_C 	C 	0.66322	0.38312	0.66026	0.06
Mof_N 	N 	0.68749	0.96079	0.20593	-0.102
Mof_N 	N 	0.71409	0.96045	0.18284	-0.131
Mof_N 	N 	0.66644	0.93348	0.20092	-0.088
Mof_C 	C 	0.67982	0.91487	0.17375	0.027
Mof_C 	C 	0.7099	0.93219	0.16248	0.014
Mof_H 	H 	0.7248	0.9252	0.1437	0.021
Mof_C 	C 	0.6767	0.8665	0.1306	-0.115
Mof_H 	H 	0.6972	0.8755	0.1196	0.075
Mof_C 	C 	0.66322	0.88312	0.16026	0.061
Mof_N 	N 	0.18749	0.46079	0.20593	-0.105
Mof_N 	N 	0.21409	0.46045	0.18284	-0.134
Mof_N 	N 	0.16644	0.43348	0.20092	-0.09
Mof_C 	C 	0.17982	0.41487	0.17375	0.026
Mof_C 	C 	0.2099	0.43219	0.16248	0.013
Mof_H 	H 	0.2248	0.4252	0.1437	0.02
Mof_C 	C 	0.1767	0.3665	0.1306	-0.115
Mof_H 	H 	0.1972	0.3755	0.1196	0.074
Mof_C 	C 	0.16322	0.38312	0.16026	0.06
Mof_N 	N 	0.18749	0.96079	0.70593	-0.102
Mof_N 	N 	0.21409	0.96045	0.68284	-0.131
Mof_N 	N 	0.16644	0.93348	0.70092	-0.088
Mof_C 	C 	0.17982	0.91487	0.67375	0.027
Mof_C 	C 	0.2099	0.93219	0.66248	0.014
Mof_H 	H 	0.2248	0.9252	0.6437	0.021
Mof_C 	C 	0.1767	0.8665	0.6306	-0.115
Mof_H 	H 	0.1972	0.8755	0.6196	0.075
Mof_C 	C 	0.16322	0.88312	0.66026	0.061
Mof_N 	N 	0.29407	0.68749	0.53921	-0.105
Mof_N 	N 	0.31716	0.71409	0.53955	-0.134
Mof_N 	N 	0.29908	0.66644	0.56652	-0.089
Mof_C 	C 	0.32625	0.67982	0.58513	0.026
Mof_C 	C 	0.33752	0.7099	0.56781	0.013
Mof_H 	H 	0.3563	0.7248	0.5748	0.02
Mof_C 	C 	0.3694	0.6767	0.6335	-0.115
Mof_H 	H 	0.3804	0.6972	0.6245	0.075
Mof_C 	C 	0.33974	0.66322	0.61688	0.061
Mof_N 	N 	0.29407	0.18749	0.03921	-0.105
Mof_N 	N 	0.31716	0.21409	0.03955	-0.134
Mof_N 	N 	0.29908	0.16644	0.06652	-0.09
Mof_C 	C 	0.32625	0.17982	0.08513	0.026
Mof_C 	C 	0.33752	0.2099	0.06781	0.013
Mof_H 	H 	0.3563	0.2248	0.0748	0.02
Mof_C 	C 	0.3694	0.1767	0.1335	-0.115
Mof_H 	H 	0.3804	0.1972	0.1245	0.074
Mof_C 	C 	0.33974	0.16322	0.11688	0.06
Mof_N 	N 	0.79407	0.68749	0.03921	-0.105
Mof_N 	N 	0.81716	0.71409	0.03955	-0.134
Mof_N 	N 	0.79908	0.66644	0.06652	-0.09
Mof_C 	C 	0.82625	0.67982	0.08513	0.026
Mof_C 	C 	0.83752	0.7099	0.06781	0.013
Mof_H 	H 	0.8563	0.7248	0.0748	0.02
Mof_C 	C 	0.8694	0.6767	0.1335	-0.115
Mof_H 	H 	0.8804	0.6972	0.1245	0.075
Mof_C 	C 	0.83974	0.66322	0.11688	0.061
Mof_N 	N 	0.79407	0.18749	0.53921	-0.105
Mof_N 	N 	0.81716	0.21409	0.53955	-0.134
Mof_N 	N 	0.79908	0.16644	0.56652	-0.089
Mof_C 	C 	0.82625	0.17982	0.58513	0.026
Mof_C 	C 	0.83752	0.2099	0.56781	0.013
Mof_H 	H 	0.8563	0.2248	0.5748	0.021
Mof_C 	C 	0.8694	0.1767	0.6335	-0.115
Mof_H 	H 	0.8804	0.1972	0.6245	0.075
Mof_C 	C 	0.83974	0.16322	0.61688	0.061
Mof_N 	N 	0.29407	0.31251	0.46079	-0.105
Mof_N 	N 	0.31716	0.28591	0.46045	-0.134
Mof_N 	N 	0.29908	0.33356	0.43348	-0.089
Mof_C 	C 	0.32625	0.32018	0.41487	0.026
Mof_C 	C 	0.33752	0.2901	0.43219	0.013
Mof_H 	H 	0.3563	0.2752	0.4252	0.02
Mof_C 	C 	0.3694	0.3233	0.3665	-0.115
Mof_H 	H 	0.3804	0.3028	0.3755	0.075
Mof_C 	C 	0.33974	0.33678	0.38312	0.061
Mof_N 	N 	0.29407	0.81251	0.96079	-0.102
Mof_N 	N 	0.31716	0.78591	0.96045	-0.131
Mof_N 	N 	0.29908	0.83356	0.93348	-0.088
Mof_C 	C 	0.32625	0.82018	0.91487	0.027
Mof_C 	C 	0.33752	0.7901	0.93219	0.014
Mof_H 	H 	0.3563	0.7752	0.9252	0.021
Mof_C 	C 	0.3694	0.8233	0.8665	-0.115
Mof_H 	H 	0.3804	0.8028	0.8755	0.075
Mof_C 	C 	0.33974	0.83678	0.88312	0.061
Mof_N 	N 	0.79407	0.31251	0.96079	-0.102
Mof_N 	N 	0.81716	0.28591	0.96045	-0.131
Mof_N 	N 	0.79908	0.33356	0.93348	-0.088
Mof_C 	C 	0.82625	0.32018	0.91487	0.027
Mof_C 	C 	0.83752	0.2901	0.93219	0.014
Mof_H 	H 	0.8563	0.2752	0.9252	0.022
Mof_C 	C 	0.8694	0.3233	0.8665	-0.115
Mof_H 	H 	0.8804	0.3028	0.8755	0.076
Mof_C 	C 	0.83974	0.33678	0.88312	0.061
Mof_N 	N 	0.79407	0.81251	0.46079	-0.105
Mof_N 	N 	0.81716	0.78591	0.46045	-0.134
Mof_N 	N 	0.79908	0.83356	0.43348	-0.089
Mof_C 	C 	0.82625	0.82018	0.41487	0.027
Mof_C 	C 	0.83752	0.7901	0.43219	0.014
Mof_H 	H 	0.8563	0.7752	0.4252	0.021
Mof_C 	C 	0.8694	0.8233	0.3665	-0.115
Mof_H 	H 	0.8804	0.8028	0.3755	0.075
Mof_C 	C 	0.83974	0.83678	0.38312	0.061
Mof_N 	N 	0.70593	0.31251	0.53921	-0.105
Mof_N 	N 	0.68284	0.28591	0.53955	-0.134
Mof_N 	N 	0.70092	0.33356	0.56652	-0.089
Mof_C 	C 	0.67375	0.32018	0.58513	0.026
Mof_C 	C 	0.66248	0.2901	0.56781	0.013
Mof_H 	H 	0.6437	0.2752	0.5748	0.02
Mof_C 	C 	0.6306	0.3233	0.6335	-0.115
Mof_H 	H 	0.6196	0.3028	0.6245	0.075
Mof_C 	C 	0.66026	0.33678	0.61688	0.061
Mof_N 	N 	0.70593	0.81251	0.03921	-0.105
Mof_N 	N 	0.68284	0.78591	0.03955	-0.134
Mof_N 	N 	0.70092	0.83356	0.06652	-0.089
Mof_C 	C 	0.67375	0.82018	0.08513	0.026
Mof_C 	C 	0.66248	0.7901	0.06781	0.013
Mof_H 	H 	0.6437	0.7752	0.0748	0.02
Mof_C 	C 	0.6306	0.8233	0.1335	-0.115
Mof_H 	H 	0.6196	0.8028	0.1245	0.075
Mof_C 	C 	0.66026	0.83678	0.11688	0.061
Mof_N 	N 	0.20593	0.31251	0.03921	-0.105
Mof_N 	N 	0.18284	0.28591	0.03955	-0.134
Mof_N 	N 	0.20092	0.33356	0.06652	-0.09
Mof_C 	C 	0.17375	0.32018	0.08513	0.026
Mof_C 	C 	0.16248	0.2901	0.06781	0.013
Mof_H 	H 	0.1437	0.2752	0.0748	0.02
Mof_C 	C 	0.1306	0.3233	0.1335	-0.115
Mof_H 	H 	0.1196	0.3028	0.1245	0.074
Mof_C 	C 	0.16026	0.33678	0.11688	0.06
Mof_N 	N 	0.20593	0.81251	0.53921	-0.105
Mof_N 	N 	0.18284	0.78591	0.53955	-0.134
Mof_N 	N 	0.20092	0.83356	0.56652	-0.089
Mof_C 	C 	0.17375	0.82018	0.58513	0.026
Mof_C 	C 	0.16248	0.7901	0.56781	0.013
Mof_H 	H 	0.1437	0.7752	0.5748	0.02
Mof_C 	C 	0.1306	0.8233	0.6335	-0.115
Mof_H 	H 	0.1196	0.8028	0.6245	0.075
Mof_C 	C 	0.16026	0.83678	0.61688	0.061
Mof_N 	N 	0.70593	0.68749	0.46079	-0.105
Mof_N 	N 	0.68284	0.71409	0.46045	-0.134
Mof_N 	N 	0.70092	0.66644	0.43348	-0.089
Mof_C 	C 	0.67375	0.67982	0.41487	0.026
Mof_C 	C 	0.66248	0.7099	0.43219	0.013
Mof_H 	H 	0.6437	0.7248	0.4252	0.02
Mof_C 	C 	0.6306	0.6767	0.3665	-0.115
Mof_H 	H 	0.6196	0.6972	0.3755	0.075
Mof_C 	C 	0.66026	0.66322	0.38312	0.061
Mof_N 	N 	0.70593	0.18749	0.96079	-0.102
Mof_N 	N 	0.68284	0.21409	0.96045	-0.131
Mof_N 	N 	0.70092	0.16644	0.93348	-0.088
Mof_C 	C 	0.67375	0.17982	0.91487	0.027
Mof_C 	C 	0.66248	0.2099	0.93219	0.014
Mof_H 	H 	0.6437	0.2248	0.9252	0.021
Mof_C 	C 	0.6306	0.1767	0.8665	-0.115
Mof_H 	H 	0.6196	0.1972	0.8755	0.075
Mof_C 	C 	0.66026	0.16322	0.88312	0.061
Mof_N 	N 	0.20593	0.68749	0.96079	-0.102
Mof_N 	N 	0.18284	0.71409	0.96045	-0.131
Mof_N 	N 	0.20092	0.66644	0.93348	-0.088
Mof_C 	C 	0.17375	0.67982	0.91487	0.027
Mof_C 	C 	0.16248	0.7099	0.93219	0.014
Mof_H 	H 	0.1437	0.7248	0.9252	0.021
Mof_C 	C 	0.1306	0.6767	0.8665	-0.115
Mof_H 	H 	0.1196	0.6972	0.8755	0.075
Mof_C 	C 	0.16026	0.66322	0.88312	0.061
Mof_N 	N 	0.20593	0.18749	0.46079	-0.105
Mof_N 	N 	0.18284	0.21409	0.46045	-0.134
Mof_N 	N 	0.20092	0.16644	0.43348	-0.09
Mof_C 	C 	0.17375	0.17982	0.41487	0.026
Mof_C 	C 	0.16248	0.2099	0.43219	0.013
Mof_H 	H 	0.1437	0.2248	0.4252	0.02
Mof_C 	C 	0.1306	0.1767	0.3665	-0.115
Mof_H 	H 	0.1196	0.1972	0.3755	0.074
Mof_C 	C 	0.16026	0.16322	0.38312	0.06
Mof_N 	N 	0.53921	0.29407	0.68749	-0.105
Mof_N 	N 	0.53955	0.31716	0.71409	-0.134
Mof_N 	N 	0.56652	0.29908	0.66644	-0.089
Mof_C 	C 	0.58513	0.32625	0.67982	0.026
Mof_C 	C 	0.56781	0.33752	0.7099	0.013
Mof_H 	H 	0.5748	0.3563	0.7248	0.02
Mof_C 	C 	0.6335	0.3694	0.6767	-0.115
Mof_H 	H 	0.6245	0.3804	0.6972	0.075
Mof_C 	C 	0.61688	0.33974	0.66322	0.061
Mof_N 	N 	0.53921	0.79407	0.18749	-0.105
Mof_N 	N 	0.53955	0.81716	0.21409	-0.134
Mof_N 	N 	0.56652	0.79908	0.16644	-0.089
Mof_C 	C 	0.58513	0.82625	0.17982	0.026
Mof_C 	C 	0.56781	0.83752	0.2099	0.013
Mof_H 	H 	0.5748	0.8563	0.2248	0.021
Mof_C 	C 	0.6335	0.8694	0.1767	-0.115
Mof_H 	H 	0.6245	0.8804	0.1972	0.075
Mof_C 	C 	0.61688	0.83974	0.16322	0.061
Mof_N 	N 	0.03921	0.29407	0.18749	-0.105
Mof_N 	N 	0.03955	0.31716	0.21409	-0.134
Mof_N 	N 	0.06652	0.29908	0.16644	-0.09
Mof_C 	C 	0.08513	0.32625	0.17982	0.026
Mof_C 	C 	0.06781	0.33752	0.2099	0.013
Mof_H 	H 	0.0748	0.3563	0.2248	0.02
Mof_C 	C 	0.1335	0.3694	0.1767	-0.115
Mof_H 	H 	0.1245	0.3804	0.1972	0.074
Mof_C 	C 	0.11688	0.33974	0.16322	0.06
Mof_N 	N 	0.03921	0.79407	0.68749	-0.105
Mof_N 	N 	0.03955	0.81716	0.71409	-0.134
Mof_N 	N 	0.06652	0.79908	0.66644	-0.09
Mof_C 	C 	0.08513	0.82625	0.67982	0.026
Mof_C 	C 	0.06781	0.83752	0.7099	0.013
Mof_H 	H 	0.0748	0.8563	0.7248	0.02
Mof_C 	C 	0.1335	0.8694	0.6767	-0.115
Mof_H 	H 	0.1245	0.8804	0.6972	0.075
Mof_C 	C 	0.11688	0.83974	0.66322	0.061
Mof_N 	N 	0.46079	0.29407	0.31251	-0.105
Mof_N 	N 	0.46045	0.31716	0.28591	-0.134
Mof_N 	N 	0.43348	0.29908	0.33356	-0.089
Mof_C 	C 	0.41487	0.32625	0.32018	0.026
Mof_C 	C 	0.43219	0.33752	0.2901	0.013
Mof_H 	H 	0.4252	0.3563	0.2752	0.02
Mof_C 	C 	0.3665	0.3694	0.3233	-0.115
Mof_H 	H 	0.3755	0.3804	0.3028	0.075
Mof_C 	C 	0.38312	0.33974	0.33678	0.061
Mof_N 	N 	0.46079	0.79407	0.81251	-0.105
Mof_N 	N 	0.46045	0.81716	0.78591	-0.134
Mof_N 	N 	0.43348	0.79908	0.83356	-0.089
Mof_C 	C 	0.41487	0.82625	0.82018	0.027
Mof_C 	C 	0.43219	0.83752	0.7901	0.014
Mof_H 	H 	0.4252	0.8563	0.7752	0.021
Mof_C 	C 	0.3665	0.8694	0.8233	-0.115
Mof_H 	H 	0.3755	0.8804	0.8028	0.075
Mof_C 	C 	0.38312	0.83974	0.83678	0.061
Mof_N 	N 	0.96079	0.29407	0.81251	-0.102
Mof_N 	N 	0.96045	0.31716	0.78591	-0.131
Mof_N 	N 	0.93348	0.29908	0.83356	-0.088
Mof_C 	C 	0.91487	0.32625	0.82018	0.027
Mof_C 	C 	0.93219	0.33752	0.7901	0.014
Mof_H 	H 	0.9252	0.3563	0.7752	0.021
Mof_C 	C 	0.8665	0.3694	0.8233	-0.115
Mof_H 	H 	0.8755	0.3804	0.8028	0.075
Mof_C 	C 	0.88312	0.33974	0.83678	0.061
Mof_N 	N 	0.96079	0.79407	0.31251	-0.102
Mof_N 	N 	0.96045	0.81716	0.28591	-0.131
Mof_N 	N 	0.93348	0.79908	0.33356	-0.088
Mof_C 	C 	0.91487	0.82625	0.32018	0.027
Mof_C 	C 	0.93219	0.83752	0.2901	0.014
Mof_H 	H 	0.9252	0.8563	0.2752	0.022
Mof_C 	C 	0.8665	0.8694	0.3233	-0.115
Mof_H 	H 	0.8755	0.8804	0.3028	0.076
Mof_C 	C 	0.88312	0.83974	0.33678	0.061
Mof_N 	N 	0.53921	0.70593	0.31251	-0.105
Mof_N 	N 	0.53955	0.68284	0.28591	-0.134
Mof_N 	N 	0.56652	0.70092	0.33356	-0.089
Mof_C 	C 	0.58513	0.67375	0.32018	0.026
Mof_C 	C 	0.56781	0.66248	0.2901	0.013
Mof_H 	H 	0.5748	0.6437	0.2752	0.02
Mof_C 	C 	0.6335	0.6306	0.3233	-0.115
Mof_H 	H 	0.6245	0.6196	0.3028	0.075
Mof_C 	C 	0.61688	0.66026	0.33678	0.061
Mof_N 	N 	0.53921	0.20593	0.81251	-0.105
Mof_N 	N 	0.53955	0.18284	0.78591	-0.134
Mof_N 	N 	0.56652	0.20092	0.83356	-0.089
Mof_C 	C 	0.58513	0.17375	0.82018	0.026
Mof_C 	C 	0.56781	0.16248	0.7901	0.013
Mof_H 	H 	0.5748	0.1437	0.7752	0.02
Mof_C 	C 	0.6335	0.1306	0.8233	-0.115
Mof_H 	H 	0.6245	0.1196	0.8028	0.075
Mof_C 	C 	0.61688	0.16026	0.83678	0.061
Mof_N 	N 	0.03921	0.70593	0.81251	-0.105
Mof_N 	N 	0.03955	0.68284	0.78591	-0.134
Mof_N 	N 	0.06652	0.70092	0.83356	-0.089
Mof_C 	C 	0.08513	0.67375	0.82018	0.026
Mof_C 	C 	0.06781	0.66248	0.7901	0.013
Mof_H 	H 	0.0748	0.6437	0.7752	0.02
Mof_C 	C 	0.1335	0.6306	0.8233	-0.115
Mof_H 	H 	0.1245	0.6196	0.8028	0.075
Mof_C 	C 	0.11688	0.66026	0.83678	0.061
Mof_N 	N 	0.03921	0.20593	0.31251	-0.105
Mof_N 	N 	0.03955	0.18284	0.28591	-0.134
Mof_N 	N 	0.06652	0.20092	0.33356	-0.09
Mof_C 	C 	0.08513	0.17375	0.32018	0.026
Mof_C 	C 	0.06781	0.16248	0.2901	0.013
Mof_H 	H 	0.0748	0.1437	0.2752	0.02
Mof_C 	C 	0.1335	0.1306	0.3233	-0.115
Mof_H 	H 	0.1245	0.1196	0.3028	0.074
Mof_C 	C 	0.11688	0.16026	0.33678	0.06
Mof_N 	N 	0.46079	0.70593	0.68749	-0.105
Mof_N 	N 	0.46045	0.68284	0.71409	-0.134
Mof_N 	N 	0.43348	0.70092	0.66644	-0.089
Mof_C 	C 	0.41487	0.67375	0.67982	0.026
Mof_C 	C 	0.43219	0.66248	0.7099	0.013
Mof_H 	H 	0.4252	0.6437	0.7248	0.02
Mof_C 	C 	0.3665	0.6306	0.6767	-0.115
Mof_H 	H 	0.3755	0.6196	0.6972	0.075
Mof_C 	C 	0.38312	0.66026	0.66322	0.061
Mof_N 	N 	0.46079	0.20593	0.18749	-0.105
Mof_N 	N 	0.46045	0.18284	0.21409	-0.134
Mof_N 	N 	0.43348	0.20092	0.16644	-0.09
Mof_C 	C 	0.41487	0.17375	0.17982	0.026
Mof_C 	C 	0.43219	0.16248	0.2099	0.013
Mof_H 	H 	0.4252	0.1437	0.2248	0.02
Mof_C 	C 	0.3665	0.1306	0.1767	-0.115
Mof_H 	H 	0.3755	0.1196	0.1972	0.074
Mof_C 	C 	0.38312	0.16026	0.16322	0.06
Mof_N 	N 	0.96079	0.70593	0.18749	-0.102
Mof_N 	N 	0.96045	0.68284	0.21409	-0.131
Mof_N 	N 	0.93348	0.70092	0.16644	-0.088
Mof_C 	C 	0.91487	0.67375	0.17982	0.027
Mof_C 	C 	0.93219	0.66248	0.2099	0.014
Mof_H 	H 	0.9252	0.6437	0.2248	0.021
Mof_C 	C 	0.8665	0.6306	0.1767	-0.115
Mof_H 	H 	0.8755	0.6196	0.1972	0.075
Mof_C 	C 	0.88312	0.66026	0.16322	0.061
Mof_N 	N 	0.96079	0.20593	0.68749	-0.102
Mof_N 	N 	0.96045	0.18284	0.71409	-0.131
Mof_N 	N 	0.93348	0.20092	0.66644	-0.088
Mof_C 	C 	0.91487	0.17375	0.67982	0.027
Mof_C 	C 	0.93219	0.16248	0.7099	0.014
Mof_H 	H 	0.9252	0.1437	0.7248	0.021
Mof_C 	C 	0.8665	0.1306	0.6767	-0.115
Mof_H 	H 	0.8755	0.1196	0.6972	0.075
Mof_C 	C 	0.88312	0.16026	0.66322	0.061
Mof_N 	N 	0.03921	0.18749	0.20593	-0.106
Mof_N 	N 	0.03955	0.21409	0.18284	-0.134
Mof_N 	N 	0.06652	0.16644	0.20092	-0.09
Mof_C 	C 	0.08513	0.17982	0.17375	0.026
Mof_C 	C 	0.06781	0.2099	0.16248	0.013
Mof_H 	H 	0.0748	0.2248	0.1437	0.02
Mof_C 	C 	0.1335	0.1767	0.1306	-0.115
Mof_H 	H 	0.1245	0.1972	0.1196	0.074
Mof_C 	C 	0.11688	0.16322	0.16026	0.06
Mof_N 	N 	0.03921	0.68749	0.70593	-0.105
Mof_N 	N 	0.03955	0.71409	0.68284	-0.134
Mof_N 	N 	0.06652	0.66644	0.70092	-0.09
Mof_C 	C 	0.08513	0.67982	0.67375	0.026
Mof_C 	C 	0.06781	0.7099	0.66248	0.013
Mof_H 	H 	0.0748	0.7248	0.6437	0.02
Mof_C 	C 	0.1335	0.6767	0.6306	-0.115
Mof_H 	H 	0.1245	0.6972	0.6196	0.074
Mof_C 	C 	0.11688	0.66322	0.66026	0.06
Mof_N 	N 	0.53921	0.18749	0.70593	-0.105
Mof_N 	N 	0.53955	0.21409	0.68284	-0.134
Mof_N 	N 	0.56652	0.16644	0.70092	-0.089
Mof_C 	C 	0.58513	0.17982	0.67375	0.026
Mof_C 	C 	0.56781	0.2099	0.66248	0.013
Mof_H 	H 	0.5748	0.2248	0.6437	0.02
Mof_C 	C 	0.6335	0.1767	0.6306	-0.115
Mof_H 	H 	0.6245	0.1972	0.6196	0.075
Mof_C 	C 	0.61688	0.16322	0.66026	0.06
Mof_N 	N 	0.53921	0.68749	0.20593	-0.105
Mof_N 	N 	0.53955	0.71409	0.18284	-0.134
Mof_N 	N 	0.56652	0.66644	0.20092	-0.089
Mof_C 	C 	0.58513	0.67982	0.17375	0.026
Mof_C 	C 	0.56781	0.7099	0.16248	0.013
Mof_H 	H 	0.5748	0.7248	0.1437	0.02
Mof_C 	C 	0.6335	0.6767	0.1306	-0.115
Mof_H 	H 	0.6245	0.6972	0.1196	0.074
Mof_C 	C 	0.61688	0.66322	0.16026	0.06
Mof_N 	N 	0.96079	0.81251	0.20593	-0.102
Mof_N 	N 	0.96045	0.78591	0.18284	-0.131
Mof_N 	N 	0.93348	0.83356	0.20092	-0.088
Mof_C 	C 	0.91487	0.82018	0.17375	0.027
Mof_C 	C 	0.93219	0.7901	0.16248	0.014
Mof_H 	H 	0.9252	0.7752	0.1437	0.021
Mof_C 	C 	0.8665	0.8233	0.1306	-0.115
Mof_H 	H 	0.8755	0.8028	0.1196	0.075
Mof_C 	C 	0.88312	0.83678	0.16026	0.061
Mof_N 	N 	0.96079	0.31251	0.70593	-0.102
Mof_N 	N 	0.96045	0.28591	0.68284	-0.131
Mof_N 	N 	0.93348	0.33356	0.70092	-0.088
Mof_C 	C 	0.91487	0.32018	0.67375	0.027
Mof_C 	C 	0.93219	0.2901	0.66248	0.014
Mof_H 	H 	0.9252	0.2752	0.6437	0.021
Mof_C 	C 	0.8665	0.3233	0.6306	-0.115
Mof_H 	H 	0.8755	0.3028	0.6196	0.075
Mof_C 	C 	0.88312	0.33678	0.66026	0.061
Mof_N 	N 	0.46079	0.81251	0.70593	-0.105
Mof_N 	N 	0.46045	0.78591	0.68284	-0.134
Mof_N 	N 	0.43348	0.83356	0.70092	-0.089
Mof_C 	C 	0.41487	0.82018	0.67375	0.026
Mof_C 	C 	0.43219	0.7901	0.66248	0.013
Mof_H 	H 	0.4252	0.7752	0.6437	0.02
Mof_C 	C 	0.3665	0.8233	0.6306	-0.115
Mof_H 	H 	0.3755	0.8028	0.6196	0.075
Mof_C 	C 	0.38312	0.83678	0.66026	0.061
Mof_N 	N 	0.46079	0.31251	0.20593	-0.105
Mof_N 	N 	0.46045	0.28591	0.18284	-0.134
Mof_N 	N 	0.43348	0.33356	0.20092	-0.089
Mof_C 	C 	0.41487	0.32018	0.17375	0.026
Mof_C 	C 	0.43219	0.2901	0.16248	0.013
Mof_H 	H 	0.4252	0.2752	0.1437	0.02
Mof_C 	C 	0.3665	0.3233	0.1306	-0.115
Mof_H 	H 	0.3755	0.3028	0.1196	0.074
Mof_C 	C 	0.38312	0.33678	0.16026	0.06
Mof_N 	N 	0.03921	0.81251	0.79407	-0.105
Mof_N 	N 	0.03955	0.78591	0.81716	-0.134
Mof_N 	N 	0.06652	0.83356	0.79908	-0.089
Mof_C 	C 	0.08513	0.82018	0.82625	0.026
Mof_C 	C 	0.06781	0.7901	0.83752	0.013
Mof_H 	H 	0.0748	0.7752	0.8563	0.02
Mof_C 	C 	0.1335	0.8233	0.8694	-0.115
Mof_H 	H 	0.1245	0.8028	0.8804	0.075
Mof_C 	C 	0.11688	0.83678	0.83974	0.061
Mof_N 	N 	0.03921	0.31251	0.29407	-0.105
Mof_N 	N 	0.03955	0.28591	0.31716	-0.134
Mof_N 	N 	0.06652	0.33356	0.29908	-0.09
Mof_C 	C 	0.08513	0.32018	0.32625	0.026
Mof_C 	C 	0.06781	0.2901	0.33752	0.013
Mof_H 	H 	0.0748	0.2752	0.3563	0.02
Mof_C 	C 	0.1335	0.3233	0.3694	-0.115
Mof_H 	H 	0.1245	0.3028	0.3804	0.074
Mof_C 	C 	0.11688	0.33678	0.33974	0.06
Mof_N 	N 	0.53921	0.81251	0.29407	-0.105
Mof_N 	N 	0.53955	0.78591	0.31716	-0.134
Mof_N 	N 	0.56652	0.83356	0.29908	-0.089
Mof_C 	C 	0.58513	0.82018	0.32625	0.026
Mof_C 	C 	0.56781	0.7901	0.33752	0.013
Mof_H 	H 	0.5748	0.7752	0.3563	0.02
Mof_C 	C 	0.6335	0.8233	0.3694	-0.115
Mof_H 	H 	0.6245	0.8028	0.3804	0.075
Mof_C 	C 	0.61688	0.83678	0.33974	0.061
Mof_N 	N 	0.53921	0.31251	0.79407	-0.105
Mof_N 	N 	0.53955	0.28591	0.81716	-0.134
Mof_N 	N 	0.56652	0.33356	0.79908	-0.089
Mof_C 	C 	0.58513	0.32018	0.82625	0.026
Mof_C 	C 	0.56781	0.2901	0.83752	0.014
Mof_H 	H 	0.5748	0.2752	0.8563	0.021
Mof_C 	C 	0.6335	0.3233	0.8694	-0.115
Mof_H 	H 	0.6245	0.3028	0.8804	0.075
Mof_C 	C 	0.61688	0.33678	0.83974	0.061
Mof_N 	N 	0.96079	0.18749	0.79407	-0.102
Mof_N 	N 	0.96045	0.21409	0.81716	-0.131
Mof_N 	N 	0.93348	0.16644	0.79908	-0.088
Mof_C 	C 	0.91487	0.17982	0.82625	0.027
Mof_C 	C 	0.93219	0.2099	0.83752	0.014
Mof_H 	H 	0.9252	0.2248	0.8563	0.022
Mof_C 	C 	0.8665	0.1767	0.8694	-0.115
Mof_H 	H 	0.8755	0.1972	0.8804	0.076
Mof_C 	C 	0.88312	0.16322	0.83974	0.061
Mof_N 	N 	0.96079	0.68749	0.29407	-0.102
Mof_N 	N 	0.96045	0.71409	0.31716	-0.131
Mof_N 	N 	0.93348	0.66644	0.29908	-0.088
Mof_C 	C 	0.91487	0.67982	0.32625	0.027
Mof_C 	C 	0.93219	0.7099	0.33752	0.014
Mof_H 	H 	0.9252	0.7248	0.3563	0.021
Mof_C 	C 	0.8665	0.6767	0.3694	-0.115
Mof_H 	H 	0.8755	0.6972	0.3804	0.075
Mof_C 	C 	0.88312	0.66322	0.33974	0.061
Mof_N 	N 	0.46079	0.18749	0.29407	-0.105
Mof_N 	N 	0.46045	0.21409	0.31716	-0.134
Mof_N 	N 	0.43348	0.16644	0.29908	-0.089
Mof_C 	C 	0.41487	0.17982	0.32625	0.026
Mof_C 	C 	0.43219	0.2099	0.33752	0.013
Mof_H 	H 	0.4252	0.2248	0.3563	0.02
Mof_C 	C 	0.3665	0.1767	0.3694	-0.115
Mof_H 	H 	0.3755	0.1972	0.3804	0.075
Mof_C 	C 	0.38312	0.16322	0.33974	0.06
Mof_N 	N 	0.46079	0.68749	0.79407	-0.105
Mof_N 	N 	0.46045	0.71409	0.81716	-0.134
Mof_N 	N 	0.43348	0.66644	0.79908	-0.089
Mof_C 	C 	0.41487	0.67982	0.82625	0.026
Mof_C 	C 	0.43219	0.7099	0.83752	0.014
Mof_H 	H 	0.4252	0.7248	0.8563	0.021
Mof_C 	C 	0.3665	0.6767	0.8694	-0.115
Mof_H 	H 	0.3755	0.6972	0.8804	0.075
Mof_C 	C 	0.38312	0.66322	0.83974	0.061
Mof_N 	N 	0.18749	0.79407	0.96079	-0.102
Mof_N 	N 	0.21409	0.81716	0.96045	-0.131
Mof_N 	N 	0.16644	0.79908	0.93348	-0.088
Mof_C 	C 	0.17982	0.82625	0.91487	0.027
Mof_C 	C 	0.2099	0.83752	0.93219	0.014
Mof_H 	H 	0.2248	0.8563	0.9252	0.022
Mof_C 	C 	0.1767	0.8694	0.8665	-0.115
Mof_H 	H 	0.1972	0.8804	0.8755	0.076
Mof_C 	C 	0.16322	0.83974	0.88312	0.061
Mof_N 	N 	0.18749	0.29407	0.46079	-0.105
Mof_N 	N 	0.21409	0.31716	0.46045	-0.134
Mof_N 	N 	0.16644	0.29908	0.43348	-0.089
Mof_C 	C 	0.17982	0.32625	0.41487	0.026
Mof_C 	C 	0.2099	0.33752	0.43219	0.013
Mof_H 	H 	0.2248	0.3563	0.4252	0.02
Mof_C 	C 	0.1767	0.3694	0.3665	-0.115
Mof_H 	H 	0.1972	0.3804	0.3755	0.075
Mof_C 	C 	0.16322	0.33974	0.38312	0.06
Mof_N 	N 	0.68749	0.79407	0.46079	-0.105
Mof_N 	N 	0.71409	0.81716	0.46045	-0.134
Mof_N 	N 	0.66644	0.79908	0.43348	-0.089
Mof_C 	C 	0.67982	0.82625	0.41487	0.026
Mof_C 	C 	0.7099	0.83752	0.43219	0.014
Mof_H 	H 	0.7248	0.8563	0.4252	0.021
Mof_C 	C 	0.6767	0.8694	0.3665	-0.115
Mof_H 	H 	0.6972	0.8804	0.3755	0.075
Mof_C 	C 	0.66322	0.83974	0.38312	0.061
Mof_N 	N 	0.68749	0.29407	0.96079	-0.102
Mof_N 	N 	0.71409	0.31716	0.96045	-0.131
Mof_N 	N 	0.66644	0.29908	0.93348	-0.088
Mof_C 	C 	0.67982	0.32625	0.91487	0.027
Mof_C 	C 	0.7099	0.33752	0.93219	0.014
Mof_H 	H 	0.7248	0.3563	0.9252	0.021
Mof_C 	C 	0.6767	0.3694	0.8665	-0.115
Mof_H 	H 	0.6972	0.3804	0.8755	0.075
Mof_C 	C 	0.66322	0.33974	0.88312	0.061
Mof_N 	N 	0.81251	0.79407	0.03921	-0.105
Mof_N 	N 	0.78591	0.81716	0.03955	-0.134
Mof_N 	N 	0.83356	0.79908	0.06652	-0.089
Mof_C 	C 	0.82018	0.82625	0.08513	0.026
Mof_C 	C 	0.7901	0.83752	0.06781	0.013
Mof_H 	H 	0.7752	0.8563	0.0748	0.02
Mof_C 	C 	0.8233	0.8694	0.1335	-0.115
Mof_H 	H 	0.8028	0.8804	0.1245	0.075
Mof_C 	C 	0.83678	0.83974	0.11688	0.061
Mof_N 	N 	0.81251	0.29407	0.53921	-0.105
Mof_N 	N 	0.78591	0.31716	0.53955	-0.134
Mof_N 	N 	0.83356	0.29908	0.56652	-0.089
Mof_C 	C 	0.82018	0.32625	0.58513	0.026
Mof_C 	C 	0.7901	0.33752	0.56781	0.013
Mof_H 	H 	0.7752	0.3563	0.5748	0.02
Mof_C 	C 	0.8233	0.3694	0.6335	-0.115
Mof_H 	H 	0.8028	0.3804	0.6245	0.075
Mof_C 	C 	0.83678	0.33974	0.61688	0.061
Mof_N 	N 	0.31251	0.79407	0.53921	-0.105
Mof_N 	N 	0.28591	0.81716	0.53955	-0.134
Mof_N 	N 	0.33356	0.79908	0.56652	-0.089
Mof_C 	C 	0.32018	0.82625	0.58513	0.026
Mof_C 	C 	0.2901	0.83752	0.56781	0.014
Mof_H 	H 	0.2752	0.8563	0.5748	0.021
Mof_C 	C 	0.3233	0.8694	0.6335	-0.115
Mof_H 	H 	0.3028	0.8804	0.6245	0.075
Mof_C 	C 	0.33678	0.83974	0.61688	0.061
Mof_N 	N 	0.31251	0.29407	0.03921	-0.105
Mof_N 	N 	0.28591	0.31716	0.03955	-0.134
Mof_N 	N 	0.33356	0.29908	0.06652	-0.09
Mof_C 	C 	0.32018	0.32625	0.08513	0.026
Mof_C 	C 	0.2901	0.33752	0.06781	0.013
Mof_H 	H 	0.2752	0.3563	0.0748	0.02
Mof_C 	C 	0.3233	0.3694	0.1335	-0.115
Mof_H 	H 	0.3028	0.3804	0.1245	0.074
Mof_C 	C 	0.33678	0.33974	0.11688	0.06
Mof_N 	N 	0.81251	0.20593	0.96079	-0.102
Mof_N 	N 	0.78591	0.18284	0.96045	-0.131
Mof_N 	N 	0.83356	0.20092	0.93348	-0.088
Mof_C 	C 	0.82018	0.17375	0.91487	0.027
Mof_C 	C 	0.7901	0.16248	0.93219	0.014
Mof_H 	H 	0.7752	0.1437	0.9252	0.021
Mof_C 	C 	0.8233	0.1306	0.8665	-0.115
Mof_H 	H 	0.8028	0.1196	0.8755	0.075
Mof_C 	C 	0.83678	0.16026	0.88312	0.061
Mof_N 	N 	0.81251	0.70593	0.46079	-0.105
Mof_N 	N 	0.78591	0.68284	0.46045	-0.134
Mof_N 	N 	0.83356	0.70092	0.43348	-0.089
Mof_C 	C 	0.82018	0.67375	0.41487	0.026
Mof_C 	C 	0.7901	0.66248	0.43219	0.013
Mof_H 	H 	0.7752	0.6437	0.4252	0.02
Mof_C 	C 	0.8233	0.6306	0.3665	-0.115
Mof_H 	H 	0.8028	0.6196	0.3755	0.075
Mof_C 	C 	0.83678	0.66026	0.38312	0.061
Mof_N 	N 	0.31251	0.20593	0.46079	-0.105
Mof_N 	N 	0.28591	0.18284	0.46045	-0.134
Mof_N 	N 	0.33356	0.20092	0.43348	-0.089
Mof_C 	C 	0.32018	0.17375	0.41487	0.026
Mof_C 	C 	0.2901	0.16248	0.43219	0.013
Mof_H 	H 	0.2752	0.1437	0.4252	0.02
Mof_C 	C 	0.3233	0.1306	0.3665	-0.115
Mof_H 	H 	0.3028	0.1196	0.3755	0.074
Mof_C 	C 	0.33678	0.16026	0.38312	0.06
Mof_N 	N 	0.31251	0.70593	0.96079	-0.102
Mof_N 	N 	0.28591	0.68284	0.96045	-0.131
Mof_N 	N 	0.33356	0.70092	0.93348	-0.088
Mof_C 	C 	0.32018	0.67375	0.91487	0.027
Mof_C 	C 	0.2901	0.66248	0.93219	0.014
Mof_H 	H 	0.2752	0.6437	0.9252	0.021
Mof_C 	C 	0.3233	0.6306	0.8665	-0.115
Mof_H 	H 	0.3028	0.6196	0.8755	0.075
Mof_C 	C 	0.33678	0.66026	0.88312	0.061
Mof_N 	N 	0.18749	0.20593	0.03921	-0.106
Mof_N 	N 	0.21409	0.18284	0.03955	-0.134
Mof_N 	N 	0.16644	0.20092	0.06652	-0.09
Mof_C 	C 	0.17982	0.17375	0.08513	0.026
Mof_C 	C 	0.2099	0.16248	0.06781	0.013
Mof_H 	H 	0.2248	0.1437	0.0748	0.02
Mof_C 	C 	0.1767	0.1306	0.1335	-0.115
Mof_H 	H 	0.1972	0.1196	0.1245	0.074
Mof_C 	C 	0.16322	0.16026	0.11688	0.06
Mof_N 	N 	0.18749	0.70593	0.53921	-0.105
Mof_N 	N 	0.21409	0.68284	0.53955	-0.134
Mof_N 	N 	0.16644	0.70092	0.56652	-0.089
Mof_C 	C 	0.17982	0.67375	0.58513	0.026
Mof_C 	C 	0.2099	0.66248	0.56781	0.013
Mof_H 	H 	0.2248	0.6437	0.5748	0.02
Mof_C 	C 	0.1767	0.6306	0.6335	-0.115
Mof_H 	H 	0.1972	0.6196	0.6245	0.075
Mof_C 	C 	0.16322	0.66026	0.61688	0.06
Mof_N 	N 	0.68749	0.20593	0.53921	-0.105
Mof_N 	N 	0.71409	0.18284	0.53955	-0.134
Mof_N 	N 	0.66644	0.20092	0.56652	-0.089
Mof_C 	C 	0.67982	0.17375	0.58513	0.026
Mof_C 	C 	0.7099	0.16248	0.56781	0.013
Mof_H 	H 	0.7248	0.1437	0.5748	0.02
Mof_C 	C 	0.6767	0.1306	0.6335	-0.115
Mof_H 	H 	0.6972	0.1196	0.6245	0.074
Mof_C 	C 	0.66322	0.16026	0.61688	0.06
Mof_N 	N 	0.68749	0.70593	0.03921	-0.105
Mof_N 	N 	0.71409	0.68284	0.03955	-0.134
Mof_N 	N 	0.66644	0.70092	0.06652	-0.09
Mof_C 	C 	0.67982	0.67375	0.08513	0.026
Mof_C 	C 	0.7099	0.66248	0.06781	0.013
Mof_H 	H 	0.7248	0.6437	0.0748	0.02
Mof_C 	C 	0.6767	0.6306	0.1335	-0.115
Mof_H 	H 	0.6972	0.6196	0.1245	0.074
Mof_C 	C 	0.66322	0.66026	0.11688	0.06
Mof_N 	N 	0.79407	0.03921	0.81251	-0.105
Mof_N 	N 	0.81716	0.03955	0.78591	-0.134
Mof_N 	N 	0.79908	0.06652	0.83356	-0.089
Mof_C 	C 	0.82625	0.08513	0.82018	0.026
Mof_C 	C 	0.83752	0.06781	0.7901	0.013
Mof_H 	H 	0.8563	0.0748	0.7752	0.02
Mof_C 	C 	0.8694	0.1335	0.8233	-0.115
Mof_H 	H 	0.8804	0.1245	0.8028	0.075
Mof_C 	C 	0.83974	0.11688	0.83678	0.061
Mof_N 	N 	0.79407	0.53921	0.31251	-0.105
Mof_N 	N 	0.81716	0.53955	0.28591	-0.134
Mof_N 	N 	0.79908	0.56652	0.33356	-0.089
Mof_C 	C 	0.82625	0.58513	0.32018	0.026
Mof_C 	C 	0.83752	0.56781	0.2901	0.014
Mof_H 	H 	0.8563	0.5748	0.2752	0.021
Mof_C 	C 	0.8694	0.6335	0.3233	-0.115
Mof_H 	H 	0.8804	0.6245	0.3028	0.075
Mof_C 	C 	0.83974	0.61688	0.33678	0.061
Mof_N 	N 	0.29407	0.03921	0.31251	-0.105
Mof_N 	N 	0.31716	0.03955	0.28591	-0.134
Mof_N 	N 	0.29908	0.06652	0.33356	-0.09
Mof_C 	C 	0.32625	0.08513	0.32018	0.026
Mof_C 	C 	0.33752	0.06781	0.2901	0.013
Mof_H 	H 	0.3563	0.0748	0.2752	0.02
Mof_C 	C 	0.3694	0.1335	0.3233	-0.115
Mof_H 	H 	0.3804	0.1245	0.3028	0.074
Mof_C 	C 	0.33974	0.11688	0.33678	0.06
Mof_N 	N 	0.29407	0.53921	0.81251	-0.105
Mof_N 	N 	0.31716	0.53955	0.78591	-0.134
Mof_N 	N 	0.29908	0.56652	0.83356	-0.089
Mof_C 	C 	0.32625	0.58513	0.82018	0.026
Mof_C 	C 	0.33752	0.56781	0.7901	0.013
Mof_H 	H 	0.3563	0.5748	0.7752	0.02
Mof_C 	C 	0.3694	0.6335	0.8233	-0.115
Mof_H 	H 	0.3804	0.6245	0.8028	0.075
Mof_C 	C 	0.33974	0.61688	0.83678	0.061
Mof_N 	N 	0.79407	0.96079	0.18749	-0.102
Mof_N 	N 	0.81716	0.96045	0.21409	-0.131
Mof_N 	N 	0.79908	0.93348	0.16644	-0.088
Mof_C 	C 	0.82625	0.91487	0.17982	0.027
Mof_C 	C 	0.83752	0.93219	0.2099	0.014
Mof_H 	H 	0.8563	0.9252	0.2248	0.022
Mof_C 	C 	0.8694	0.8665	0.1767	-0.115
Mof_H 	H 	0.8804	0.8755	0.1972	0.076
Mof_C 	C 	0.83974	0.88312	0.16322	0.061
Mof_N 	N 	0.79407	0.46079	0.68749	-0.105
Mof_N 	N 	0.81716	0.46045	0.71409	-0.134
Mof_N 	N 	0.79908	0.43348	0.66644	-0.089
Mof_C 	C 	0.82625	0.41487	0.67982	0.026
Mof_C 	C 	0.83752	0.43219	0.7099	0.014
Mof_H 	H 	0.8563	0.4252	0.7248	0.021
Mof_C 	C 	0.8694	0.3665	0.6767	-0.115
Mof_H 	H 	0.8804	0.3755	0.6972	0.075
Mof_C 	C 	0.83974	0.38312	0.66322	0.061
Mof_N 	N 	0.29407	0.96079	0.68749	-0.102
Mof_N 	N 	0.31716	0.96045	0.71409	-0.131
Mof_N 	N 	0.29908	0.93348	0.66644	-0.088
Mof_C 	C 	0.32625	0.91487	0.67982	0.027
Mof_C 	C 	0.33752	0.93219	0.7099	0.014
Mof_H 	H 	0.3563	0.9252	0.7248	0.021
Mof_C 	C 	0.3694	0.8665	0.6767	-0.115
Mof_H 	H 	0.3804	0.8755	0.6972	0.075
Mof_C 	C 	0.33974	0.88312	0.66322	0.061
Mof_N 	N 	0.29407	0.46079	0.18749	-0.105
Mof_N 	N 	0.31716	0.46045	0.21409	-0.134
Mof_N 	N 	0.29908	0.43348	0.16644	-0.089
Mof_C 	C 	0.32625	0.41487	0.17982	0.026
Mof_C 	C 	0.33752	0.43219	0.2099	0.013
Mof_H 	H 	0.3563	0.4252	0.2248	0.02
Mof_C 	C 	0.3694	0.3665	0.1767	-0.115
Mof_H 	H 	0.3804	0.3755	0.1972	0.075
Mof_C 	C 	0.33974	0.38312	0.16322	0.06
Mof_N 	N 	0.20593	0.03921	0.18749	-0.106
Mof_N 	N 	0.18284	0.03955	0.21409	-0.134
Mof_N 	N 	0.20092	0.06652	0.16644	-0.09
Mof_C 	C 	0.17375	0.08513	0.17982	0.026
Mof_C 	C 	0.16248	0.06781	0.2099	0.013
Mof_H 	H 	0.1437	0.0748	0.2248	0.02
Mof_C 	C 	0.1306	0.1335	0.1767	-0.115
Mof_H 	H 	0.1196	0.1245	0.1972	0.074
Mof_C 	C 	0.16026	0.11688	0.16322	0.06
Mof_N 	N 	0.20593	0.53921	0.68749	-0.105
Mof_N 	N 	0.18284	0.53955	0.71409	-0.134
Mof_N 	N 	0.20092	0.56652	0.66644	-0.089
Mof_C 	C 	0.17375	0.58513	0.67982	0.026
Mof_C 	C 	0.16248	0.56781	0.7099	0.013
Mof_H 	H 	0.1437	0.5748	0.7248	0.02
Mof_C 	C 	0.1306	0.6335	0.6767	-0.115
Mof_H 	H 	0.1196	0.6245	0.6972	0.074
Mof_C 	C 	0.16026	0.61688	0.66322	0.06
Mof_N 	N 	0.70593	0.03921	0.68749	-0.105
Mof_N 	N 	0.68284	0.03955	0.71409	-0.134
Mof_N 	N 	0.70092	0.06652	0.66644	-0.09
Mof_C 	C 	0.67375	0.08513	0.67982	0.026
Mof_C 	C 	0.66248	0.06781	0.7099	0.013
Mof_H 	H 	0.6437	0.0748	0.7248	0.02
Mof_C 	C 	0.6306	0.1335	0.6767	-0.115
Mof_H 	H 	0.6196	0.1245	0.6972	0.074
Mof_C 	C 	0.66026	0.11688	0.66322	0.06
Mof_N 	N 	0.70593	0.53921	0.18749	-0.105
Mof_N 	N 	0.68284	0.53955	0.21409	-0.134
Mof_N 	N 	0.70092	0.56652	0.16644	-0.089
Mof_C 	C 	0.67375	0.58513	0.17982	0.026
Mof_C 	C 	0.66248	0.56781	0.2099	0.013
Mof_H 	H 	0.6437	0.5748	0.2248	0.02
Mof_C 	C 	0.6306	0.6335	0.1767	-0.115
Mof_H 	H 	0.6196	0.6245	0.1972	0.075
Mof_C 	C 	0.66026	0.61688	0.16322	0.06
Mof_N 	N 	0.20593	0.96079	0.81251	-0.102
Mof_N 	N 	0.18284	0.96045	0.78591	-0.131
Mof_N 	N 	0.20092	0.93348	0.83356	-0.088
Mof_C 	C 	0.17375	0.91487	0.82018	0.027
Mof_C 	C 	0.16248	0.93219	0.7901	0.014
Mof_H 	H 	0.1437	0.9252	0.7752	0.021
Mof_C 	C 	0.1306	0.8665	0.8233	-0.115
Mof_H 	H 	0.1196	0.8755	0.8028	0.075
Mof_C 	C 	0.16026	0.88312	0.83678	0.061
Mof_N 	N 	0.20593	0.46079	0.31251	-0.105
Mof_N 	N 	0.18284	0.46045	0.28591	-0.134
Mof_N 	N 	0.20092	0.43348	0.33356	-0.089
Mof_C 	C 	0.17375	0.41487	0.32018	0.026
Mof_C 	C 	0.16248	0.43219	0.2901	0.013
Mof_H 	H 	0.1437	0.4252	0.2752	0.02
Mof_C 	C 	0.1306	0.3665	0.3233	-0.115
Mof_H 	H 	0.1196	0.3755	0.3028	0.074
Mof_C 	C 	0.16026	0.38312	0.33678	0.06
Mof_N 	N 	0.70593	0.96079	0.31251	-0.102
Mof_N 	N 	0.68284	0.96045	0.28591	-0.131
Mof_N 	N 	0.70092	0.93348	0.33356	-0.088
Mof_C 	C 	0.67375	0.91487	0.32018	0.027
Mof_C 	C 	0.66248	0.93219	0.2901	0.014
Mof_H 	H 	0.6437	0.9252	0.2752	0.021
Mof_C 	C 	0.6306	0.8665	0.3233	-0.115
Mof_H 	H 	0.6196	0.8755	0.3028	0.075
Mof_C 	C 	0.66026	0.88312	0.33678	0.061
Mof_N 	N 	0.70593	0.46079	0.81251	-0.105
Mof_N 	N 	0.68284	0.46045	0.78591	-0.134
Mof_N 	N 	0.70092	0.43348	0.83356	-0.089
Mof_C 	C 	0.67375	0.41487	0.82018	0.026
Mof_C 	C 	0.66248	0.43219	0.7901	0.013
Mof_H 	H 	0.6437	0.4252	0.7752	0.02
Mof_C 	C 	0.6306	0.3665	0.8233	-0.115
Mof_H 	H 	0.6196	0.3755	0.8028	0.075
Mof_C 	C 	0.66026	0.38312	0.83678	0.061
Mof_N 	N 	0.31251	0.46079	0.70593	-0.105
Mof_N 	N 	0.28591	0.46045	0.68284	-0.134
Mof_N 	N 	0.33356	0.43348	0.70092	-0.089
Mof_C 	C 	0.32018	0.41487	0.67375	0.026
Mof_C 	C 	0.2901	0.43219	0.66248	0.013
Mof_H 	H 	0.2752	0.4252	0.6437	0.02
Mof_C 	C 	0.3233	0.3665	0.6306	-0.115
Mof_H 	H 	0.3028	0.3755	0.6196	0.075
Mof_C 	C 	0.33678	0.38312	0.66026	0.061
Mof_N 	N 	0.31251	0.96079	0.20593	-0.102
Mof_N 	N 	0.28591	0.96045	0.18284	-0.131
Mof_N 	N 	0.33356	0.93348	0.20092	-0.088
Mof_C 	C 	0.32018	0.91487	0.17375	0.027
Mof_C 	C 	0.2901	0.93219	0.16248	0.014
Mof_H 	H 	0.2752	0.9252	0.1437	0.021
Mof_C 	C 	0.3233	0.8665	0.1306	-0.115
Mof_H 	H 	0.3028	0.8755	0.1196	0.075
Mof_C 	C 	0.33678	0.88312	0.16026	0.061
Mof_N 	N 	0.81251	0.46079	0.20593	-0.105
Mof_N 	N 	0.78591	0.46045	0.18284	-0.134
Mof_N 	N 	0.83356	0.43348	0.20092	-0.089
Mof_C 	C 	0.82018	0.41487	0.17375	0.026
Mof_C 	C 	0.7901	0.43219	0.16248	0.013
Mof_H 	H 	0.7752	0.4252	0.1437	0.02
Mof_C 	C 	0.8233	0.3665	0.1306	-0.115
Mof_H 	H 	0.8028	0.3755	0.1196	0.075
Mof_C 	C 	0.83678	0.38312	0.16026	0.061
Mof_N 	N 	0.81251	0.96079	0.70593	-0.102
Mof_N 	N 	0.78591	0.96045	0.68284	-0.131
Mof_N 	N 	0.83356	0.93348	0.70092	-0.088
Mof_C 	C 	0.82018	0.91487	0.67375	0.027
Mof_C 	C 	0.7901	0.93219	0.66248	0.014
Mof_H 	H 	0.7752	0.9252	0.6437	0.021
Mof_C 	C 	0.8233	0.8665	0.6306	-0.115
Mof_H 	H 	0.8028	0.8755	0.6196	0.075
Mof_C 	C 	0.83678	0.88312	0.66026	0.061
Mof_N 	N 	0.68749	0.53921	0.70593	-0.105
Mof_N 	N 	0.71409	0.53955	0.68284	-0.134
Mof_N 	N 	0.66644	0.56652	0.70092	-0.089
Mof_C 	C 	0.67982	0.58513	0.67375	0.026
Mof_C 	C 	0.7099	0.56781	0.66248	0.013
Mof_H 	H 	0.7248	0.5748	0.6437	0.02
Mof_C 	C 	0.6767	0.6335	0.6306	-0.115
Mof_H 	H 	0.6972	0.6245	0.6196	0.075
Mof_C 	C 	0.66322	0.61688	0.66026	0.061
Mof_N 	N 	0.68749	0.03921	0.20593	-0.105
Mof_N 	N 	0.71409	0.03955	0.18284	-0.134
Mof_N 	N 	0.66644	0.06652	0.20092	-0.09
Mof_C 	C 	0.67982	0.08513	0.17375	0.026
Mof_C 	C 	0.7099	0.06781	0.16248	0.013
Mof_H 	H 	0.7248	0.0748	0.1437	0.02
Mof_C 	C 	0.6767	0.1335	0.1306	-0.115
Mof_H 	H 	0.6972	0.1245	0.1196	0.074
Mof_C 	C 	0.66322	0.11688	0.16026	0.06
Mof_N 	N 	0.18749	0.53921	0.20593	-0.105
Mof_N 	N 	0.21409	0.53955	0.18284	-0.134
Mof_N 	N 	0.16644	0.56652	0.20092	-0.09
Mof_C 	C 	0.17982	0.58513	0.17375	0.026
Mof_C 	C 	0.2099	0.56781	0.16248	0.013
Mof_H 	H 	0.2248	0.5748	0.1437	0.02
Mof_C 	C 	0.1767	0.6335	0.1306	-0.115
Mof_H 	H 	0.1972	0.6245	0.1196	0.074
Mof_C 	C 	0.16322	0.61688	0.16026	0.06
Mof_N 	N 	0.18749	0.03921	0.70593	-0.105
Mof_N 	N 	0.21409	0.03955	0.68284	-0.134
Mof_N 	N 	0.16644	0.06652	0.70092	-0.09
Mof_C 	C 	0.17982	0.08513	0.67375	0.026
Mof_C 	C 	0.2099	0.06781	0.66248	0.013
Mof_H 	H 	0.2248	0.0748	0.6437	0.02
Mof_C 	C 	0.1767	0.1335	0.6306	-0.115
Mof_H 	H 	0.1972	0.1245	0.6196	0.074
Mof_C 	C 	0.16322	0.11688	0.66026	0.06
Mof_N 	N 	0.68749	0.46079	0.29407	-0.105
Mof_N 	N 	0.71409	0.46045	0.31716	-0.134
Mof_N 	N 	0.66644	0.43348	0.29908	-0.089
Mof_C 	C 	0.67982	0.41487	0.32625	0.026
Mof_C 	C 	0.7099	0.43219	0.33752	0.013
Mof_H 	H 	0.7248	0.4252	0.3563	0.02
Mof_C 	C 	0.6767	0.3665	0.3694	-0.115
Mof_H 	H 	0.6972	0.3755	0.3804	0.075
Mof_C 	C 	0.66322	0.38312	0.33974	0.061
Mof_N 	N 	0.68749	0.96079	0.79407	-0.102
Mof_N 	N 	0.71409	0.96045	0.81716	-0.131
Mof_N 	N 	0.66644	0.93348	0.79908	-0.088
Mof_C 	C 	0.67982	0.91487	0.82625	0.027
Mof_C 	C 	0.7099	0.93219	0.83752	0.014
Mof_H 	H 	0.7248	0.9252	0.8563	0.022
Mof_C 	C 	0.6767	0.8665	0.8694	-0.115
Mof_H 	H 	0.6972	0.8755	0.8804	0.076
Mof_C 	C 	0.66322	0.88312	0.83974	0.061
Mof_N 	N 	0.18749	0.46079	0.79407	-0.105
Mof_N 	N 	0.21409	0.46045	0.81716	-0.134
Mof_N 	N 	0.16644	0.43348	0.79908	-0.089
Mof_C 	C 	0.17982	0.41487	0.82625	0.026
Mof_C 	C 	0.2099	0.43219	0.83752	0.013
Mof_H 	H 	0.2248	0.4252	0.8563	0.021
Mof_C 	C 	0.1767	0.3665	0.8694	-0.115
Mof_H 	H 	0.1972	0.3755	0.8804	0.075
Mof_C 	C 	0.16322	0.38312	0.83974	0.061
Mof_N 	N 	0.18749	0.96079	0.29407	-0.102
Mof_N 	N 	0.21409	0.96045	0.31716	-0.131
Mof_N 	N 	0.16644	0.93348	0.29908	-0.088
Mof_C 	C 	0.17982	0.91487	0.32625	0.027
Mof_C 	C 	0.2099	0.93219	0.33752	0.014
Mof_H 	H 	0.2248	0.9252	0.3563	0.021
Mof_C 	C 	0.1767	0.8665	0.3694	-0.115
Mof_H 	H 	0.1972	0.8755	0.3804	0.075
Mof_C 	C 	0.16322	0.88312	0.33974	0.061
Mof_N 	N 	0.31251	0.53921	0.29407	-0.105
Mof_N 	N 	0.28591	0.53955	0.31716	-0.134
Mof_N 	N 	0.33356	0.56652	0.29908	-0.089
Mof_C 	C 	0.32018	0.58513	0.32625	0.026
Mof_C 	C 	0.2901	0.56781	0.33752	0.013
Mof_H 	H 	0.2752	0.5748	0.3563	0.02
Mof_C 	C 	0.3233	0.6335	0.3694	-0.115
Mof_H 	H 	0.3028	0.6245	0.3804	0.075
Mof_C 	C 	0.33678	0.61688	0.33974	0.061
Mof_N 	N 	0.31251	0.03921	0.79407	-0.105
Mof_N 	N 	0.28591	0.03955	0.81716	-0.134
Mof_N 	N 	0.33356	0.06652	0.79908	-0.089
Mof_C 	C 	0.32018	0.08513	0.82625	0.026
Mof_C 	C 	0.2901	0.06781	0.83752	0.013
Mof_H 	H 	0.2752	0.0748	0.8563	0.02
Mof_C 	C 	0.3233	0.1335	0.8694	-0.115
Mof_H 	H 	0.3028	0.1245	0.8804	0.075
Mof_C 	C 	0.33678	0.11688	0.83974	0.061
Mof_N 	N 	0.81251	0.53921	0.79407	-0.105
Mof_N 	N 	0.78591	0.53955	0.81716	-0.134
Mof_N 	N 	0.83356	0.56652	0.79908	-0.089
Mof_C 	C 	0.82018	0.58513	0.82625	0.026
Mof_C 	C 	0.7901	0.56781	0.83752	0.014
Mof_H 	H 	0.7752	0.5748	0.8563	0.021
Mof_C 	C 	0.8233	0.6335	0.8694	-0.115
Mof_H 	H 	0.8028	0.6245	0.8804	0.075
Mof_C 	C 	0.83678	0.61688	0.83974	0.061
Mof_N 	N 	0.81251	0.03921	0.29407	-0.105
Mof_N 	N 	0.78591	0.03955	0.31716	-0.134
Mof_N 	N 	0.83356	0.06652	0.29908	-0.089
Mof_C 	C 	0.82018	0.08513	0.32625	0.026
Mof_C 	C 	0.7901	0.06781	0.33752	0.013
Mof_H 	H 	0.7752	0.0748	0.3563	0.02
Mof_C 	C 	0.8233	0.1335	0.3694	-0.115
Mof_H 	H 	0.8028	0.1245	0.3804	0.075
Mof_C 	C 	0.83678	0.11688	0.33974	0.061
Mof_N 	N 	0.70593	0.31251	0.46079	-0.105
Mof_N 	N 	0.68284	0.28591	0.46045	-0.134
Mof_N 	N 	0.70092	0.33356	0.43348	-0.089
Mof_C 	C 	0.67375	0.32018	0.41487	0.026
Mof_C 	C 	0.66248	0.2901	0.43219	0.013
Mof_H 	H 	0.6437	0.2752	0.4252	0.02
Mof_C 	C 	0.6306	0.3233	0.3665	-0.115
Mof_H 	H 	0.6196	0.3028	0.3755	0.075
Mof_C 	C 	0.66026	0.33678	0.38312	0.061
Mof_N 	N 	0.70593	0.81251	0.96079	-0.102
Mof_N 	N 	0.68284	0.78591	0.96045	-0.131
Mof_N 	N 	0.70092	0.83356	0.93348	-0.088
Mof_C 	C 	0.67375	0.82018	0.91487	0.027
Mof_C 	C 	0.66248	0.7901	0.93219	0.014
Mof_H 	H 	0.6437	0.7752	0.9252	0.021
Mof_C 	C 	0.6306	0.8233	0.8665	-0.115
Mof_H 	H 	0.6196	0.8028	0.8755	0.075
Mof_C 	C 	0.66026	0.83678	0.88312	0.061
Mof_N 	N 	0.20593	0.31251	0.96079	-0.102
Mof_N 	N 	0.18284	0.28591	0.96045	-0.131
Mof_N 	N 	0.20092	0.33356	0.93348	-0.088
Mof_C 	C 	0.17375	0.32018	0.91487	0.027
Mof_C 	C 	0.16248	0.2901	0.93219	0.014
Mof_H 	H 	0.1437	0.2752	0.9252	0.021
Mof_C 	C 	0.1306	0.3233	0.8665	-0.115
Mof_H 	H 	0.1196	0.3028	0.8755	0.075
Mof_C 	C 	0.16026	0.33678	0.88312	0.061
Mof_N 	N 	0.20593	0.81251	0.46079	-0.105
Mof_N 	N 	0.18284	0.78591	0.46045	-0.134
Mof_N 	N 	0.20092	0.83356	0.43348	-0.089
Mof_C 	C 	0.17375	0.82018	0.41487	0.026
Mof_C 	C 	0.16248	0.7901	0.43219	0.013
Mof_H 	H 	0.1437	0.7752	0.4252	0.02
Mof_C 	C 	0.1306	0.8233	0.3665	-0.115
Mof_H 	H 	0.1196	0.8028	0.3755	0.075
Mof_C 	C 	0.16026	0.83678	0.38312	0.061
Mof_N 	N 	0.70593	0.68749	0.53921	-0.105
Mof_N 	N 	0.68284	0.71409	0.53955	-0.134
Mof_N 	N 	0.70092	0.66644	0.56652	-0.089
Mof_C 	C 	0.67375	0.67982	0.58513	0.026
Mof_C 	C 	0.66248	0.7099	0.56781	0.013
Mof_H 	H 	0.6437	0.7248	0.5748	0.02
Mof_C 	C 	0.6306	0.6767	0.6335	-0.115
Mof_H 	H 	0.6196	0.6972	0.6245	0.075
Mof_C 	C 	0.66026	0.66322	0.61688	0.061
Mof_N 	N 	0.70593	0.18749	0.03921	-0.105
Mof_N 	N 	0.68284	0.21409	0.03955	-0.134
Mof_N 	N 	0.70092	0.16644	0.06652	-0.09
Mof_C 	C 	0.67375	0.17982	0.08513	0.026
Mof_C 	C 	0.66248	0.2099	0.06781	0.013
Mof_H 	H 	0.6437	0.2248	0.0748	0.02
Mof_C 	C 	0.6306	0.1767	0.1335	-0.115
Mof_H 	H 	0.6196	0.1972	0.1245	0.074
Mof_C 	C 	0.66026	0.16322	0.11688	0.06
Mof_N 	N 	0.20593	0.68749	0.03921	-0.105
Mof_N 	N 	0.18284	0.71409	0.03955	-0.134
Mof_N 	N 	0.20092	0.66644	0.06652	-0.09
Mof_C 	C 	0.17375	0.67982	0.08513	0.026
Mof_C 	C 	0.16248	0.7099	0.06781	0.013
Mof_H 	H 	0.1437	0.7248	0.0748	0.02
Mof_C 	C 	0.1306	0.6767	0.1335	-0.115
Mof_H 	H 	0.1196	0.6972	0.1245	0.074
Mof_C 	C 	0.16026	0.66322	0.11688	0.06
Mof_N 	N 	0.20593	0.18749	0.53921	-0.105
Mof_N 	N 	0.18284	0.21409	0.53955	-0.134
Mof_N 	N 	0.20092	0.16644	0.56652	-0.09
Mof_C 	C 	0.17375	0.17982	0.58513	0.026
Mof_C 	C 	0.16248	0.2099	0.56781	0.013
Mof_H 	H 	0.1437	0.2248	0.5748	0.02
Mof_C 	C 	0.1306	0.1767	0.6335	-0.115
Mof_H 	H 	0.1196	0.1972	0.6245	0.074
Mof_C 	C 	0.16026	0.16322	0.61688	0.06
Mof_N 	N 	0.29407	0.68749	0.46079	-0.105
Mof_N 	N 	0.31716	0.71409	0.46045	-0.134
Mof_N 	N 	0.29908	0.66644	0.43348	-0.089
Mof_C 	C 	0.32625	0.67982	0.41487	0.026
Mof_C 	C 	0.33752	0.7099	0.43219	0.013
Mof_H 	H 	0.3563	0.7248	0.4252	0.02
Mof_C 	C 	0.3694	0.6767	0.3665	-0.115
Mof_H 	H 	0.3804	0.6972	0.3755	0.075
Mof_C 	C 	0.33974	0.66322	0.38312	0.061
Mof_N 	N 	0.29407	0.18749	0.96079	-0.102
Mof_N 	N 	0.31716	0.21409	0.96045	-0.131
Mof_N 	N 	0.29908	0.16644	0.93348	-0.088
Mof_C 	C 	0.32625	0.17982	0.91487	0.027
Mof_C 	C 	0.33752	0.2099	0.93219	0.014
Mof_H 	H 	0.3563	0.2248	0.9252	0.021
Mof_C 	C 	0.3694	0.1767	0.8665	-0.115
Mof_H 	H 	0.3804	0.1972	0.8755	0.075
Mof_C 	C 	0.33974	0.16322	0.88312	0.061
Mof_N 	N 	0.79407	0.68749	0.96079	-0.102
Mof_N 	N 	0.81716	0.71409	0.96045	-0.131
Mof_N 	N 	0.79908	0.66644	0.93348	-0.088
Mof_C 	C 	0.82625	0.67982	0.91487	0.027
Mof_C 	C 	0.83752	0.7099	0.93219	0.014
Mof_H 	H 	0.8563	0.7248	0.9252	0.022
Mof_C 	C 	0.8694	0.6767	0.8665	-0.115
Mof_H 	H 	0.8804	0.6972	0.8755	0.076
Mof_C 	C 	0.83974	0.66322	0.88312	0.061
Mof_N 	N 	0.79407	0.18749	0.46079	-0.105
Mof_N 	N 	0.81716	0.21409	0.46045	-0.134
Mof_N 	N 	0.79908	0.16644	0.43348	-0.089
Mof_C 	C 	0.82625	0.17982	0.41487	0.026
Mof_C 	C 	0.83752	0.2099	0.43219	0.013
Mof_H 	H 	0.8563	0.2248	0.4252	0.021
Mof_C 	C 	0.8694	0.1767	0.3665	-0.115
Mof_H 	H 	0.8804	0.1972	0.3755	0.075
Mof_C 	C 	0.83974	0.16322	0.38312	0.061
Mof_N 	N 	0.29407	0.31251	0.53921	-0.105
Mof_N 	N 	0.31716	0.28591	0.53955	-0.134
Mof_N 	N 	0.29908	0.33356	0.56652	-0.089
Mof_C 	C 	0.32625	0.32018	0.58513	0.026
Mof_C 	C 	0.33752	0.2901	0.56781	0.013
Mof_H 	H 	0.3563	0.2752	0.5748	0.02
Mof_C 	C 	0.3694	0.3233	0.6335	-0.115
Mof_H 	H 	0.3804	0.3028	0.6245	0.075
Mof_C 	C 	0.33974	0.33678	0.61688	0.061
Mof_N 	N 	0.29407	0.81251	0.03921	-0.105
Mof_N 	N 	0.31716	0.78591	0.03955	-0.134
Mof_N 	N 	0.29908	0.83356	0.06652	-0.089
Mof_C 	C 	0.32625	0.82018	0.08513	0.026
Mof_C 	C 	0.33752	0.7901	0.06781	0.013
Mof_H 	H 	0.3563	0.7752	0.0748	0.02
Mof_C 	C 	0.3694	0.8233	0.1335	-0.115
Mof_H 	H 	0.3804	0.8028	0.1245	0.075
Mof_C 	C 	0.33974	0.83678	0.11688	0.061
Mof_N 	N 	0.79407	0.31251	0.03921	-0.105
Mof_N 	N 	0.81716	0.28591	0.03955	-0.134
Mof_N 	N 	0.79908	0.33356	0.06652	-0.089
Mof_C 	C 	0.82625	0.32018	0.08513	0.026
Mof_C 	C 	0.83752	0.2901	0.06781	0.013
Mof_H 	H 	0.8563	0.2752	0.0748	0.02
Mof_C 	C 	0.8694	0.3233	0.1335	-0.115
Mof_H 	H 	0.8804	0.3028	0.1245	0.075
Mof_C 	C 	0.83974	0.33678	0.11688	0.061
Mof_N 	N 	0.79407	0.81251	0.53921	-0.105
Mof_N 	N 	0.81716	0.78591	0.53955	-0.134
Mof_N 	N 	0.79908	0.83356	0.56652	-0.089
Mof_C 	C 	0.82625	0.82018	0.58513	0.026
Mof_C 	C 	0.83752	0.7901	0.56781	0.014
Mof_H 	H 	0.8563	0.7752	0.5748	0.021
Mof_C 	C 	0.8694	0.8233	0.6335	-0.115
Mof_H 	H 	0.8804	0.8028	0.6245	0.075
Mof_C 	C 	0.83974	0.83678	0.61688	0.061
Mof_N 	N 	0.46079	0.70593	0.31251	-0.105
Mof_N 	N 	0.46045	0.68284	0.28591	-0.134
Mof_N 	N 	0.43348	0.70092	0.33356	-0.089
Mof_C 	C 	0.41487	0.67375	0.32018	0.026
Mof_C 	C 	0.43219	0.66248	0.2901	0.013
Mof_H 	H 	0.4252	0.6437	0.2752	0.02
Mof_C 	C 	0.3665	0.6306	0.3233	-0.115
Mof_H 	H 	0.3755	0.6196	0.3028	0.075
Mof_C 	C 	0.38312	0.66026	0.33678	0.061
Mof_N 	N 	0.46079	0.20593	0.81251	-0.105
Mof_N 	N 	0.46045	0.18284	0.78591	-0.134
Mof_N 	N 	0.43348	0.20092	0.83356	-0.089
Mof_C 	C 	0.41487	0.17375	0.82018	0.026
Mof_C 	C 	0.43219	0.16248	0.7901	0.013
Mof_H 	H 	0.4252	0.1437	0.7752	0.02
Mof_C 	C 	0.3665	0.1306	0.8233	-0.115
Mof_H 	H 	0.3755	0.1196	0.8028	0.075
Mof_C 	C 	0.38312	0.16026	0.83678	0.061
Mof_N 	N 	0.96079	0.70593	0.81251	-0.102
Mof_N 	N 	0.96045	0.68284	0.78591	-0.131
Mof_N 	N 	0.93348	0.70092	0.83356	-0.088
Mof_C 	C 	0.91487	0.67375	0.82018	0.027
Mof_C 	C 	0.93219	0.66248	0.7901	0.014
Mof_H 	H 	0.9252	0.6437	0.7752	0.021
Mof_C 	C 	0.8665	0.6306	0.8233	-0.115
Mof_H 	H 	0.8755	0.6196	0.8028	0.075
Mof_C 	C 	0.88312	0.66026	0.83678	0.061
Mof_N 	N 	0.96079	0.20593	0.31251	-0.102
Mof_N 	N 	0.96045	0.18284	0.28591	-0.131
Mof_N 	N 	0.93348	0.20092	0.33356	-0.088
Mof_C 	C 	0.91487	0.17375	0.32018	0.027
Mof_C 	C 	0.93219	0.16248	0.2901	0.014
Mof_H 	H 	0.9252	0.1437	0.2752	0.021
Mof_C 	C 	0.8665	0.1306	0.3233	-0.115
Mof_H 	H 	0.8755	0.1196	0.3028	0.075
Mof_C 	C 	0.88312	0.16026	0.33678	0.061
Mof_N 	N 	0.53921	0.70593	0.68749	-0.105
Mof_N 	N 	0.53955	0.68284	0.71409	-0.134
Mof_N 	N 	0.56652	0.70092	0.66644	-0.089
Mof_C 	C 	0.58513	0.67375	0.67982	0.026
Mof_C 	C 	0.56781	0.66248	0.7099	0.013
Mof_H 	H 	0.5748	0.6437	0.7248	0.02
Mof_C 	C 	0.6335	0.6306	0.6767	-0.115
Mof_H 	H 	0.6245	0.6196	0.6972	0.075
Mof_C 	C 	0.61688	0.66026	0.66322	0.061
Mof_N 	N 	0.53921	0.20593	0.18749	-0.105
Mof_N 	N 	0.53955	0.18284	0.21409	-0.134
Mof_N 	N 	0.56652	0.20092	0.16644	-0.09
Mof_C 	C 	0.58513	0.17375	0.17982	0.026
Mof_C 	C 	0.56781	0.16248	0.2099	0.013
Mof_H 	H 	0.5748	0.1437	0.2248	0.02
Mof_C 	C 	0.6335	0.1306	0.1767	-0.115
Mof_H 	H 	0.6245	0.1196	0.1972	0.074
Mof_C 	C 	0.61688	0.16026	0.16322	0.06
Mof_N 	N 	0.03921	0.70593	0.18749	-0.105
Mof_N 	N 	0.03955	0.68284	0.21409	-0.134
Mof_N 	N 	0.06652	0.70092	0.16644	-0.09
Mof_C 	C 	0.08513	0.67375	0.17982	0.026
Mof_C 	C 	0.06781	0.66248	0.2099	0.013
Mof_H 	H 	0.0748	0.6437	0.2248	0.02
Mof_C 	C 	0.1335	0.6306	0.1767	-0.115
Mof_H 	H 	0.1245	0.6196	0.1972	0.074
Mof_C 	C 	0.11688	0.66026	0.16322	0.06
Mof_N 	N 	0.03921	0.20593	0.68749	-0.105
Mof_N 	N 	0.03955	0.18284	0.71409	-0.134
Mof_N 	N 	0.06652	0.20092	0.66644	-0.09
Mof_C 	C 	0.08513	0.17375	0.67982	0.026
Mof_C 	C 	0.06781	0.16248	0.7099	0.013
Mof_H 	H 	0.0748	0.1437	0.7248	0.02
Mof_C 	C 	0.1335	0.1306	0.6767	-0.115
Mof_H 	H 	0.1245	0.1196	0.6972	0.074
Mof_C 	C 	0.11688	0.16026	0.66322	0.06
Mof_N 	N 	0.46079	0.29407	0.68749	-0.105
Mof_N 	N 	0.46045	0.31716	0.71409	-0.134
Mof_N 	N 	0.43348	0.29908	0.66644	-0.089
Mof_C 	C 	0.41487	0.32625	0.67982	0.026
Mof_C 	C 	0.43219	0.33752	0.7099	0.013
Mof_H 	H 	0.4252	0.3563	0.7248	0.02
Mof_C 	C 	0.3665	0.3694	0.6767	-0.115
Mof_H 	H 	0.3755	0.3804	0.6972	0.075
Mof_C 	C 	0.38312	0.33974	0.66322	0.061
Mof_N 	N 	0.46079	0.79407	0.18749	-0.105
Mof_N 	N 	0.46045	0.81716	0.21409	-0.134
Mof_N 	N 	0.43348	0.79908	0.16644	-0.089
Mof_C 	C 	0.41487	0.82625	0.17982	0.026
Mof_C 	C 	0.43219	0.83752	0.2099	0.013
Mof_H 	H 	0.4252	0.8563	0.2248	0.021
Mof_C 	C 	0.3665	0.8694	0.1767	-0.115
Mof_H 	H 	0.3755	0.8804	0.1972	0.075
Mof_C 	C 	0.38312	0.83974	0.16322	0.061
Mof_N 	N 	0.96079	0.29407	0.18749	-0.102
Mof_N 	N 	0.96045	0.31716	0.21409	-0.131
Mof_N 	N 	0.93348	0.29908	0.16644	-0.088
Mof_C 	C 	0.91487	0.32625	0.17982	0.027
Mof_C 	C 	0.93219	0.33752	0.2099	0.014
Mof_H 	H 	0.9252	0.3563	0.2248	0.021
Mof_C 	C 	0.8665	0.3694	0.1767	-0.115
Mof_H 	H 	0.8755	0.3804	0.1972	0.075
Mof_C 	C 	0.88312	0.33974	0.16322	0.061
Mof_N 	N 	0.96079	0.79407	0.68749	-0.102
Mof_N 	N 	0.96045	0.81716	0.71409	-0.131
Mof_N 	N 	0.93348	0.79908	0.66644	-0.088
Mof_C 	C 	0.91487	0.82625	0.67982	0.027
Mof_C 	C 	0.93219	0.83752	0.7099	0.014
Mof_H 	H 	0.9252	0.8563	0.7248	0.022
Mof_C 	C 	0.8665	0.8694	0.6767	-0.115
Mof_H 	H 	0.8755	0.8804	0.6972	0.076
Mof_C 	C 	0.88312	0.83974	0.66322	0.061
Mof_N 	N 	0.53921	0.29407	0.31251	-0.105
Mof_N 	N 	0.53955	0.31716	0.28591	-0.134
Mof_N 	N 	0.56652	0.29908	0.33356	-0.089
Mof_C 	C 	0.58513	0.32625	0.32018	0.026
Mof_C 	C 	0.56781	0.33752	0.2901	0.013
Mof_H 	H 	0.5748	0.3563	0.2752	0.02
Mof_C 	C 	0.6335	0.3694	0.3233	-0.115
Mof_H 	H 	0.6245	0.3804	0.3028	0.075
Mof_C 	C 	0.61688	0.33974	0.33678	0.061
Mof_N 	N 	0.53921	0.79407	0.81251	-0.105
Mof_N 	N 	0.53955	0.81716	0.78591	-0.134
Mof_N 	N 	0.56652	0.79908	0.83356	-0.089
Mof_C 	C 	0.58513	0.82625	0.82018	0.026
Mof_C 	C 	0.56781	0.83752	0.7901	0.014
Mof_H 	H 	0.5748	0.8563	0.7752	0.021
Mof_C 	C 	0.6335	0.8694	0.8233	-0.115
Mof_H 	H 	0.6245	0.8804	0.8028	0.075
Mof_C 	C 	0.61688	0.83974	0.83678	0.061
Mof_N 	N 	0.03921	0.29407	0.81251	-0.105
Mof_N 	N 	0.03955	0.31716	0.78591	-0.134
Mof_N 	N 	0.06652	0.29908	0.83356	-0.089
Mof_C 	C 	0.08513	0.32625	0.82018	0.026
Mof_C 	C 	0.06781	0.33752	0.7901	0.013
Mof_H 	H 	0.0748	0.3563	0.7752	0.02
Mof_C 	C 	0.1335	0.3694	0.8233	-0.115
Mof_H 	H 	0.1245	0.3804	0.8028	0.075
Mof_C 	C 	0.11688	0.33974	0.83678	0.061
Mof_N 	N 	0.03921	0.79407	0.31251	-0.105
Mof_N 	N 	0.03955	0.81716	0.28591	-0.134
Mof_N 	N 	0.06652	0.79908	0.33356	-0.089
Mof_C 	C 	0.08513	0.82625	0.32018	0.026
Mof_C 	C 	0.06781	0.83752	0.2901	0.013
Mof_H 	H 	0.0748	0.8563	0.2752	0.02
Mof_C 	C 	0.1335	0.8694	0.3233	-0.115
Mof_H 	H 	0.1245	0.8804	0.3028	0.075
Mof_C 	C 	0.11688	0.83974	0.33678	0.061
Mof_N 	N 	0.96079	0.81251	0.79407	-0.101
Mof_N 	N 	0.96045	0.78591	0.81716	-0.13
Mof_N 	N 	0.93348	0.83356	0.79908	-0.088
Mof_C 	C 	0.91487	0.82018	0.82625	0.027
Mof_C 	C 	0.93219	0.7901	0.83752	0.014
Mof_H 	H 	0.9252	0.7752	0.8563	0.022
Mof_C 	C 	0.8665	0.8233	0.8694	-0.115
Mof_H 	H 	0.8755	0.8028	0.8804	0.076
Mof_C 	C 	0.88312	0.83678	0.83974	0.062
Mof_N 	N 	0.96079	0.31251	0.29407	-0.102
Mof_N 	N 	0.96045	0.28591	0.31716	-0.131
Mof_N 	N 	0.93348	0.33356	0.29908	-0.088
Mof_C 	C 	0.91487	0.32018	0.32625	0.027
Mof_C 	C 	0.93219	0.2901	0.33752	0.014
Mof_H 	H 	0.9252	0.2752	0.3563	0.021
Mof_C 	C 	0.8665	0.3233	0.3694	-0.115
Mof_H 	H 	0.8755	0.3028	0.3804	0.075
Mof_C 	C 	0.88312	0.33678	0.33974	0.061
Mof_N 	N 	0.46079	0.81251	0.29407	-0.105
Mof_N 	N 	0.46045	0.78591	0.31716	-0.134
Mof_N 	N 	0.43348	0.83356	0.29908	-0.089
Mof_C 	C 	0.41487	0.82018	0.32625	0.026
Mof_C 	C 	0.43219	0.7901	0.33752	0.013
Mof_H 	H 	0.4252	0.7752	0.3563	0.02
Mof_C 	C 	0.3665	0.8233	0.3694	-0.115
Mof_H 	H 	0.3755	0.8028	0.3804	0.075
Mof_C 	C 	0.38312	0.83678	0.33974	0.061
Mof_N 	N 	0.46079	0.31251	0.79407	-0.105
Mof_N 	N 	0.46045	0.28591	0.81716	-0.134
Mof_N 	N 	0.43348	0.33356	0.79908	-0.089
Mof_C 	C 	0.41487	0.32018	0.82625	0.026
Mof_C 	C 	0.43219	0.2901	0.83752	0.014
Mof_H 	H 	0.4252	0.2752	0.8563	0.021
Mof_C 	C 	0.3665	0.3233	0.8694	-0.115
Mof_H 	H 	0.3755	0.3028	0.8804	0.075
Mof_C 	C 	0.38312	0.33678	0.83974	0.061
Mof_N 	N 	0.03921	0.18749	0.79407	-0.105
Mof_N 	N 	0.03955	0.21409	0.81716	-0.134
Mof_N 	N 	0.06652	0.16644	0.79908	-0.09
Mof_C 	C 	0.08513	0.17982	0.82625	0.026
Mof_C 	C 	0.06781	0.2099	0.83752	0.013
Mof_H 	H 	0.0748	0.2248	0.8563	0.02
Mof_C 	C 	0.1335	0.1767	0.8694	-0.115
Mof_H 	H 	0.1245	0.1972	0.8804	0.075
Mof_C 	C 	0.11688	0.16322	0.83974	0.06
Mof_N 	N 	0.03921	0.68749	0.29407	-0.105
Mof_N 	N 	0.03955	0.71409	0.31716	-0.134
Mof_N 	N 	0.06652	0.66644	0.29908	-0.09
Mof_C 	C 	0.08513	0.67982	0.32625	0.026
Mof_C 	C 	0.06781	0.7099	0.33752	0.013
Mof_H 	H 	0.0748	0.7248	0.3563	0.02
Mof_C 	C 	0.1335	0.6767	0.3694	-0.115
Mof_H 	H 	0.1245	0.6972	0.3804	0.074
Mof_C 	C 	0.11688	0.66322	0.33974	0.06
Mof_N 	N 	0.53921	0.18749	0.29407	-0.105
Mof_N 	N 	0.53955	0.21409	0.31716	-0.134
Mof_N 	N 	0.56652	0.16644	0.29908	-0.089
Mof_C 	C 	0.58513	0.17982	0.32625	0.026
Mof_C 	C 	0.56781	0.2099	0.33752	0.013
Mof_H 	H 	0.5748	0.2248	0.3563	0.02
Mof_C 	C 	0.6335	0.1767	0.3694	-0.115
Mof_H 	H 	0.6245	0.1972	0.3804	0.075
Mof_C 	C 	0.61688	0.16322	0.33974	0.06
Mof_N 	N 	0.53921	0.68749	0.79407	-0.105
Mof_N 	N 	0.53955	0.71409	0.81716	-0.134
Mof_N 	N 	0.56652	0.66644	0.79908	-0.089
Mof_C 	C 	0.58513	0.67982	0.82625	0.026
Mof_C 	C 	0.56781	0.7099	0.83752	0.013
Mof_H 	H 	0.5748	0.7248	0.8563	0.021
Mof_C 	C 	0.6335	0.6767	0.8694	-0.115
Mof_H 	H 	0.6245	0.6972	0.8804	0.075
Mof_C 	C 	0.61688	0.66322	0.83974	0.061
Mof_N 	N 	0.96079	0.18749	0.20593	-0.102
Mof_N 	N 	0.96045	0.21409	0.18284	-0.131
Mof_N 	N 	0.93348	0.16644	0.20092	-0.089
Mof_C 	C 	0.91487	0.17982	0.17375	0.027
Mof_C 	C 	0.93219	0.2099	0.16248	0.014
Mof_H 	H 	0.9252	0.2248	0.1437	0.021
Mof_C 	C 	0.8665	0.1767	0.1306	-0.115
Mof_H 	H 	0.8755	0.1972	0.1196	0.075
Mof_C 	C 	0.88312	0.16322	0.16026	0.061
Mof_N 	N 	0.96079	0.68749	0.70593	-0.102
Mof_N 	N 	0.96045	0.71409	0.68284	-0.131
Mof_N 	N 	0.93348	0.66644	0.70092	-0.088
Mof_C 	C 	0.91487	0.67982	0.67375	0.027
Mof_C 	C 	0.93219	0.7099	0.66248	0.014
Mof_H 	H 	0.9252	0.7248	0.6437	0.021
Mof_C 	C 	0.8665	0.6767	0.6306	-0.115
Mof_H 	H 	0.8755	0.6972	0.6196	0.075
Mof_C 	C 	0.88312	0.66322	0.66026	0.061
Mof_N 	N 	0.46079	0.18749	0.70593	-0.105
Mof_N 	N 	0.46045	0.21409	0.68284	-0.134
Mof_N 	N 	0.43348	0.16644	0.70092	-0.089
Mof_C 	C 	0.41487	0.17982	0.67375	0.026
Mof_C 	C 	0.43219	0.2099	0.66248	0.013
Mof_H 	H 	0.4252	0.2248	0.6437	0.02
Mof_C 	C 	0.3665	0.1767	0.6306	-0.115
Mof_H 	H 	0.3755	0.1972	0.6196	0.075
Mof_C 	C 	0.38312	0.16322	0.66026	0.06
Mof_N 	N 	0.46079	0.68749	0.20593	-0.105
Mof_N 	N 	0.46045	0.71409	0.18284	-0.134
Mof_N 	N 	0.43348	0.66644	0.20092	-0.089
Mof_C 	C 	0.41487	0.67982	0.17375	0.026
Mof_C 	C 	0.43219	0.7099	0.16248	0.013
Mof_H 	H 	0.4252	0.7248	0.1437	0.02
Mof_C 	C 	0.3665	0.6767	0.1306	-0.115
Mof_H 	H 	0.3755	0.6972	0.1196	0.074
Mof_C 	C 	0.38312	0.66322	0.16026	0.06
Mof_N 	N 	0.03921	0.81251	0.20593	-0.105
Mof_N 	N 	0.03955	0.78591	0.18284	-0.134
Mof_N 	N 	0.06652	0.83356	0.20092	-0.089
Mof_C 	C 	0.08513	0.82018	0.17375	0.026
Mof_C 	C 	0.06781	0.7901	0.16248	0.013
Mof_H 	H 	0.0748	0.7752	0.1437	0.02
Mof_C 	C 	0.1335	0.8233	0.1306	-0.115
Mof_H 	H 	0.1245	0.8028	0.1196	0.074
Mof_C 	C 	0.11688	0.83678	0.16026	0.06
Mof_N 	N 	0.03921	0.31251	0.70593	-0.105
Mof_N 	N 	0.03955	0.28591	0.68284	-0.134
Mof_N 	N 	0.06652	0.33356	0.70092	-0.09
Mof_C 	C 	0.08513	0.32018	0.67375	0.026
Mof_C 	C 	0.06781	0.2901	0.66248	0.013
Mof_H 	H 	0.0748	0.2752	0.6437	0.02
Mof_C 	C 	0.1335	0.3233	0.6306	-0.115
Mof_H 	H 	0.1245	0.3028	0.6196	0.074
Mof_C 	C 	0.11688	0.33678	0.66026	0.06
Mof_N 	N 	0.53921	0.81251	0.70593	-0.105
Mof_N 	N 	0.53955	0.78591	0.68284	-0.134
Mof_N 	N 	0.56652	0.83356	0.70092	-0.089
Mof_C 	C 	0.58513	0.82018	0.67375	0.026
Mof_C 	C 	0.56781	0.7901	0.66248	0.013
Mof_H 	H 	0.5748	0.7752	0.6437	0.02
Mof_C 	C 	0.6335	0.8233	0.6306	-0.115
Mof_H 	H 	0.6245	0.8028	0.6196	0.075
Mof_C 	C 	0.61688	0.83678	0.66026	0.061
Mof_N 	N 	0.53921	0.31251	0.20593	-0.105
Mof_N 	N 	0.53955	0.28591	0.18284	-0.134
Mof_N 	N 	0.56652	0.33356	0.20092	-0.089
Mof_C 	C 	0.58513	0.32018	0.17375	0.026
Mof_C 	C 	0.56781	0.2901	0.16248	0.013
Mof_H 	H 	0.5748	0.2752	0.1437	0.02
Mof_C 	C 	0.6335	0.3233	0.1306	-0.115
Mof_H 	H 	0.6245	0.3028	0.1196	0.074
Mof_C 	C 	0.61688	0.33678	0.16026	0.06
Mof_N 	N 	0.81251	0.20593	0.03921	-0.105
Mof_N 	N 	0.78591	0.18284	0.03955	-0.134
Mof_N 	N 	0.83356	0.20092	0.06652	-0.089
Mof_C 	C 	0.82018	0.17375	0.08513	0.026
Mof_C 	C 	0.7901	0.16248	0.06781	0.013
Mof_H 	H 	0.7752	0.1437	0.0748	0.02
Mof_C 	C 	0.8233	0.1306	0.1335	-0.115
Mof_H 	H 	0.8028	0.1196	0.1245	0.074
Mof_C 	C 	0.83678	0.16026	0.11688	0.06
Mof_N 	N 	0.81251	0.70593	0.53921	-0.105
Mof_N 	N 	0.78591	0.68284	0.53955	-0.134
Mof_N 	N 	0.83356	0.70092	0.56652	-0.089
Mof_C 	C 	0.82018	0.67375	0.58513	0.026
Mof_C 	C 	0.7901	0.66248	0.56781	0.013
Mof_H 	H 	0.7752	0.6437	0.5748	0.02
Mof_C 	C 	0.8233	0.6306	0.6335	-0.115
Mof_H 	H 	0.8028	0.6196	0.6245	0.075
Mof_C 	C 	0.83678	0.66026	0.61688	0.061
Mof_N 	N 	0.31251	0.20593	0.53921	-0.105
Mof_N 	N 	0.28591	0.18284	0.53955	-0.134
Mof_N 	N 	0.33356	0.20092	0.56652	-0.089
Mof_C 	C 	0.32018	0.17375	0.58513	0.026
Mof_C 	C 	0.2901	0.16248	0.56781	0.013
Mof_H 	H 	0.2752	0.1437	0.5748	0.02
Mof_C 	C 	0.3233	0.1306	0.6335	-0.115
Mof_H 	H 	0.3028	0.1196	0.6245	0.074
Mof_C 	C 	0.33678	0.16026	0.61688	0.06
Mof_N 	N 	0.31251	0.70593	0.03921	-0.105
Mof_N 	N 	0.28591	0.68284	0.03955	-0.134
Mof_N 	N 	0.33356	0.70092	0.06652	-0.09
Mof_C 	C 	0.32018	0.67375	0.08513	0.026
Mof_C 	C 	0.2901	0.66248	0.06781	0.013
Mof_H 	H 	0.2752	0.6437	0.0748	0.02
Mof_C 	C 	0.3233	0.6306	0.1335	-0.115
Mof_H 	H 	0.3028	0.6196	0.1245	0.074
Mof_C 	C 	0.33678	0.66026	0.11688	0.06
Mof_N 	N 	0.18749	0.20593	0.96079	-0.102
Mof_N 	N 	0.21409	0.18284	0.96045	-0.131
Mof_N 	N 	0.16644	0.20092	0.93348	-0.089
Mof_C 	C 	0.17982	0.17375	0.91487	0.027
Mof_C 	C 	0.2099	0.16248	0.93219	0.014
Mof_H 	H 	0.2248	0.1437	0.9252	0.021
Mof_C 	C 	0.1767	0.1306	0.8665	-0.115
Mof_H 	H 	0.1972	0.1196	0.8755	0.075
Mof_C 	C 	0.16322	0.16026	0.88312	0.061
Mof_N 	N 	0.18749	0.70593	0.46079	-0.105
Mof_N 	N 	0.21409	0.68284	0.46045	-0.134
Mof_N 	N 	0.16644	0.70092	0.43348	-0.089
Mof_C 	C 	0.17982	0.67375	0.41487	0.026
Mof_C 	C 	0.2099	0.66248	0.43219	0.013
Mof_H 	H 	0.2248	0.6437	0.4252	0.02
Mof_C 	C 	0.1767	0.6306	0.3665	-0.115
Mof_H 	H 	0.1972	0.6196	0.3755	0.075
Mof_C 	C 	0.16322	0.66026	0.38312	0.06
Mof_N 	N 	0.68749	0.20593	0.46079	-0.105
Mof_N 	N 	0.71409	0.18284	0.46045	-0.134
Mof_N 	N 	0.66644	0.20092	0.43348	-0.089
Mof_C 	C 	0.67982	0.17375	0.41487	0.026
Mof_C 	C 	0.7099	0.16248	0.43219	0.013
Mof_H 	H 	0.7248	0.1437	0.4252	0.02
Mof_C 	C 	0.6767	0.1306	0.3665	-0.115
Mof_H 	H 	0.6972	0.1196	0.3755	0.074
Mof_C 	C 	0.66322	0.16026	0.38312	0.06
Mof_N 	N 	0.68749	0.70593	0.96079	-0.102
Mof_N 	N 	0.71409	0.68284	0.96045	-0.131
Mof_N 	N 	0.66644	0.70092	0.93348	-0.088
Mof_C 	C 	0.67982	0.67375	0.91487	0.027
Mof_C 	C 	0.7099	0.66248	0.93219	0.014
Mof_H 	H 	0.7248	0.6437	0.9252	0.021
Mof_C 	C 	0.6767	0.6306	0.8665	-0.115
Mof_H 	H 	0.6972	0.6196	0.8755	0.075
Mof_C 	C 	0.66322	0.66026	0.88312	0.061
Mof_N 	N 	0.18749	0.79407	0.03921	-0.105
Mof_N 	N 	0.21409	0.81716	0.03955	-0.134
Mof_N 	N 	0.16644	0.79908	0.06652	-0.09
Mof_C 	C 	0.17982	0.82625	0.08513	0.026
Mof_C 	C 	0.2099	0.83752	0.06781	0.013
Mof_H 	H 	0.2248	0.8563	0.0748	0.02
Mof_C 	C 	0.1767	0.8694	0.1335	-0.115
Mof_H 	H 	0.1972	0.8804	0.1245	0.075
Mof_C 	C 	0.16322	0.83974	0.11688	0.06
Mof_N 	N 	0.18749	0.29407	0.53921	-0.105
Mof_N 	N 	0.21409	0.31716	0.53955	-0.134
Mof_N 	N 	0.16644	0.29908	0.56652	-0.089
Mof_C 	C 	0.17982	0.32625	0.58513	0.026
Mof_C 	C 	0.2099	0.33752	0.56781	0.013
Mof_H 	H 	0.2248	0.3563	0.5748	0.02
Mof_C 	C 	0.1767	0.3694	0.6335	-0.115
Mof_H 	H 	0.1972	0.3804	0.6245	0.075
Mof_C 	C 	0.16322	0.33974	0.61688	0.06
Mof_N 	N 	0.68749	0.79407	0.53921	-0.105
Mof_N 	N 	0.71409	0.81716	0.53955	-0.134
Mof_N 	N 	0.66644	0.79908	0.56652	-0.089
Mof_C 	C 	0.67982	0.82625	0.58513	0.026
Mof_C 	C 	0.7099	0.83752	0.56781	0.013
Mof_H 	H 	0.7248	0.8563	0.5748	0.021
Mof_C 	C 	0.6767	0.8694	0.6335	-0.115
Mof_H 	H 	0.6972	0.8804	0.6245	0.075
Mof_C 	C 	0.66322	0.83974	0.61688	0.061
Mof_N 	N 	0.68749	0.29407	0.03921	-0.105
Mof_N 	N 	0.71409	0.31716	0.03955	-0.134
Mof_N 	N 	0.66644	0.29908	0.06652	-0.09
Mof_C 	C 	0.67982	0.32625	0.08513	0.026
Mof_C 	C 	0.7099	0.33752	0.06781	0.013
Mof_H 	H 	0.7248	0.3563	0.0748	0.02
Mof_C 	C 	0.6767	0.3694	0.1335	-0.115
Mof_H 	H 	0.6972	0.3804	0.1245	0.074
Mof_C 	C 	0.66322	0.33974	0.11688	0.06
Mof_N 	N 	0.81251	0.79407	0.96079	-0.101
Mof_N 	N 	0.78591	0.81716	0.96045	-0.13
Mof_N 	N 	0.83356	0.79908	0.93348	-0.088
Mof_C 	C 	0.82018	0.82625	0.91487	0.027
Mof_C 	C 	0.7901	0.83752	0.93219	0.014
Mof_H 	H 	0.7752	0.8563	0.9252	0.022
Mof_C 	C 	0.8233	0.8694	0.8665	-0.115
Mof_H 	H 	0.8028	0.8804	0.8755	0.076
Mof_C 	C 	0.83678	0.83974	0.88312	0.062
Mof_N 	N 	0.81251	0.29407	0.46079	-0.105
Mof_N 	N 	0.78591	0.31716	0.46045	-0.134
Mof_N 	N 	0.83356	0.29908	0.43348	-0.089
Mof_C 	C 	0.82018	0.32625	0.41487	0.026
Mof_C 	C 	0.7901	0.33752	0.43219	0.013
Mof_H 	H 	0.7752	0.3563	0.4252	0.02
Mof_C 	C 	0.8233	0.3694	0.3665	-0.115
Mof_H 	H 	0.8028	0.3804	0.3755	0.075
Mof_C 	C 	0.83678	0.33974	0.38312	0.061
Mof_N 	N 	0.31251	0.79407	0.46079	-0.105
Mof_N 	N 	0.28591	0.81716	0.46045	-0.134
Mof_N 	N 	0.33356	0.79908	0.43348	-0.089
Mof_C 	C 	0.32018	0.82625	0.41487	0.026
Mof_C 	C 	0.2901	0.83752	0.43219	0.014
Mof_H 	H 	0.2752	0.8563	0.4252	0.021
Mof_C 	C 	0.3233	0.8694	0.3665	-0.115
Mof_H 	H 	0.3028	0.8804	0.3755	0.075
Mof_C 	C 	0.33678	0.83974	0.38312	0.061
Mof_N 	N 	0.31251	0.29407	0.96079	-0.102
Mof_N 	N 	0.28591	0.31716	0.96045	-0.131
Mof_N 	N 	0.33356	0.29908	0.93348	-0.088
Mof_C 	C 	0.32018	0.32625	0.91487	0.027
Mof_C 	C 	0.2901	0.33752	0.93219	0.014
Mof_H 	H 	0.2752	0.3563	0.9252	0.021
Mof_C 	C 	0.3233	0.3694	0.8665	-0.115
Mof_H 	H 	0.3028	0.3804	0.8755	0.075
Mof_C 	C 	0.33678	0.33974	0.88312	0.061
Mof_N 	N 	0.20593	0.96079	0.18749	-0.102
Mof_N 	N 	0.18284	0.96045	0.21409	-0.131
Mof_N 	N 	0.20092	0.93348	0.16644	-0.089
Mof_C 	C 	0.17375	0.91487	0.17982	0.027
Mof_C 	C 	0.16248	0.93219	0.2099	0.014
Mof_H 	H 	0.1437	0.9252	0.2248	0.021
Mof_C 	C 	0.1306	0.8665	0.1767	-0.115
Mof_H 	H 	0.1196	0.8755	0.1972	0.075
Mof_C 	C 	0.16026	0.88312	0.16322	0.061
Mof_N 	N 	0.20593	0.46079	0.68749	-0.105
Mof_N 	N 	0.18284	0.46045	0.71409	-0.134
Mof_N 	N 	0.20092	0.43348	0.66644	-0.089
Mof_C 	C 	0.17375	0.41487	0.67982	0.026
Mof_C 	C 	0.16248	0.43219	0.7099	0.013
Mof_H 	H 	0.1437	0.4252	0.7248	0.02
Mof_C 	C 	0.1306	0.3665	0.6767	-0.115
Mof_H 	H 	0.1196	0.3755	0.6972	0.074
Mof_C 	C 	0.16026	0.38312	0.66322	0.06
Mof_N 	N 	0.70593	0.96079	0.68749	-0.102
Mof_N 	N 	0.68284	0.96045	0.71409	-0.131
Mof_N 	N 	0.70092	0.93348	0.66644	-0.088
Mof_C 	C 	0.67375	0.91487	0.67982	0.027
Mof_C 	C 	0.66248	0.93219	0.7099	0.014
Mof_H 	H 	0.6437	0.9252	0.7248	0.021
Mof_C 	C 	0.6306	0.8665	0.6767	-0.115
Mof_H 	H 	0.6196	0.8755	0.6972	0.075
Mof_C 	C 	0.66026	0.88312	0.66322	0.061
Mof_N 	N 	0.70593	0.46079	0.18749	-0.105
Mof_N 	N 	0.68284	0.46045	0.21409	-0.134
Mof_N 	N 	0.70092	0.43348	0.16644	-0.089
Mof_C 	C 	0.67375	0.41487	0.17982	0.026
Mof_C 	C 	0.66248	0.43219	0.2099	0.013
Mof_H 	H 	0.6437	0.4252	0.2248	0.02
Mof_C 	C 	0.6306	0.3665	0.1767	-0.115
Mof_H 	H 	0.6196	0.3755	0.1972	0.075
Mof_C 	C 	0.66026	0.38312	0.16322	0.06
Mof_N 	N 	0.20593	0.03921	0.81251	-0.105
Mof_N 	N 	0.18284	0.03955	0.78591	-0.134
Mof_N 	N 	0.20092	0.06652	0.83356	-0.089
Mof_C 	C 	0.17375	0.08513	0.82018	0.026
Mof_C 	C 	0.16248	0.06781	0.7901	0.013
Mof_H 	H 	0.1437	0.0748	0.7752	0.02
Mof_C 	C 	0.1306	0.1335	0.8233	-0.115
Mof_H 	H 	0.1196	0.1245	0.8028	0.074
Mof_C 	C 	0.16026	0.11688	0.83678	0.06
Mof_N 	N 	0.20593	0.53921	0.31251	-0.105
Mof_N 	N 	0.18284	0.53955	0.28591	-0.134
Mof_N 	N 	0.20092	0.56652	0.33356	-0.089
Mof_C 	C 	0.17375	0.58513	0.32018	0.026
Mof_C 	C 	0.16248	0.56781	0.2901	0.013
Mof_H 	H 	0.1437	0.5748	0.2752	0.02
Mof_C 	C 	0.1306	0.6335	0.3233	-0.115
Mof_H 	H 	0.1196	0.6245	0.3028	0.074
Mof_C 	C 	0.16026	0.61688	0.33678	0.06
Mof_N 	N 	0.70593	0.03921	0.31251	-0.105
Mof_N 	N 	0.68284	0.03955	0.28591	-0.134
Mof_N 	N 	0.70092	0.06652	0.33356	-0.09
Mof_C 	C 	0.67375	0.08513	0.32018	0.026
Mof_C 	C 	0.66248	0.06781	0.2901	0.013
Mof_H 	H 	0.6437	0.0748	0.2752	0.02
Mof_C 	C 	0.6306	0.1335	0.3233	-0.115
Mof_H 	H 	0.6196	0.1245	0.3028	0.074
Mof_C 	C 	0.66026	0.11688	0.33678	0.06
Mof_N 	N 	0.70593	0.53921	0.81251	-0.105
Mof_N 	N 	0.68284	0.53955	0.78591	-0.134
Mof_N 	N 	0.70092	0.56652	0.83356	-0.089
Mof_C 	C 	0.67375	0.58513	0.82018	0.026
Mof_C 	C 	0.66248	0.56781	0.7901	0.013
Mof_H 	H 	0.6437	0.5748	0.7752	0.02
Mof_C 	C 	0.6306	0.6335	0.8233	-0.115
Mof_H 	H 	0.6196	0.6245	0.8028	0.075
Mof_C 	C 	0.66026	0.61688	0.83678	0.061
Mof_N 	N 	0.79407	0.96079	0.81251	-0.101
Mof_N 	N 	0.81716	0.96045	0.78591	-0.13
Mof_N 	N 	0.79908	0.93348	0.83356	-0.088
Mof_C 	C 	0.82625	0.91487	0.82018	0.027
Mof_C 	C 	0.83752	0.93219	0.7901	0.014
Mof_H 	H 	0.8563	0.9252	0.7752	0.022
Mof_C 	C 	0.8694	0.8665	0.8233	-0.115
Mof_H 	H 	0.8804	0.8755	0.8028	0.076
Mof_C 	C 	0.83974	0.88312	0.83678	0.062
Mof_N 	N 	0.79407	0.46079	0.31251	-0.105
Mof_N 	N 	0.81716	0.46045	0.28591	-0.134
Mof_N 	N 	0.79908	0.43348	0.33356	-0.089
Mof_C 	C 	0.82625	0.41487	0.32018	0.026
Mof_C 	C 	0.83752	0.43219	0.2901	0.014
Mof_H 	H 	0.8563	0.4252	0.2752	0.021
Mof_C 	C 	0.8694	0.3665	0.3233	-0.115
Mof_H 	H 	0.8804	0.3755	0.3028	0.075
Mof_C 	C 	0.83974	0.38312	0.33678	0.061
Mof_N 	N 	0.29407	0.96079	0.31251	-0.102
Mof_N 	N 	0.31716	0.96045	0.28591	-0.131
Mof_N 	N 	0.29908	0.93348	0.33356	-0.088
Mof_C 	C 	0.32625	0.91487	0.32018	0.027
Mof_C 	C 	0.33752	0.93219	0.2901	0.014
Mof_H 	H 	0.3563	0.9252	0.2752	0.021
Mof_C 	C 	0.3694	0.8665	0.3233	-0.115
Mof_H 	H 	0.3804	0.8755	0.3028	0.075
Mof_C 	C 	0.33974	0.88312	0.33678	0.061
Mof_N 	N 	0.29407	0.46079	0.81251	-0.105
Mof_N 	N 	0.31716	0.46045	0.78591	-0.134
Mof_N 	N 	0.29908	0.43348	0.83356	-0.089
Mof_C 	C 	0.32625	0.41487	0.82018	0.026
Mof_C 	C 	0.33752	0.43219	0.7901	0.013
Mof_H 	H 	0.3563	0.4252	0.7752	0.02
Mof_C 	C 	0.3694	0.3665	0.8233	-0.115
Mof_H 	H 	0.3804	0.3755	0.8028	0.075
Mof_C 	C 	0.33974	0.38312	0.83678	0.061
Mof_N 	N 	0.79407	0.03921	0.18749	-0.105
Mof_N 	N 	0.81716	0.03955	0.21409	-0.134
Mof_N 	N 	0.79908	0.06652	0.16644	-0.09
Mof_C 	C 	0.82625	0.08513	0.17982	0.026
Mof_C 	C 	0.83752	0.06781	0.2099	0.013
Mof_H 	H 	0.8563	0.0748	0.2248	0.02
Mof_C 	C 	0.8694	0.1335	0.1767	-0.115
Mof_H 	H 	0.8804	0.1245	0.1972	0.075
Mof_C 	C 	0.83974	0.11688	0.16322	0.06
Mof_N 	N 	0.79407	0.53921	0.68749	-0.105
Mof_N 	N 	0.81716	0.53955	0.71409	-0.134
Mof_N 	N 	0.79908	0.56652	0.66644	-0.089
Mof_C 	C 	0.82625	0.58513	0.67982	0.026
Mof_C 	C 	0.83752	0.56781	0.7099	0.013
Mof_H 	H 	0.8563	0.5748	0.7248	0.021
Mof_C 	C 	0.8694	0.6335	0.6767	-0.115
Mof_H 	H 	0.8804	0.6245	0.6972	0.075
Mof_C 	C 	0.83974	0.61688	0.66322	0.061
Mof_N 	N 	0.29407	0.03921	0.68749	-0.105
Mof_N 	N 	0.31716	0.03955	0.71409	-0.134
Mof_N 	N 	0.29908	0.06652	0.66644	-0.09
Mof_C 	C 	0.32625	0.08513	0.67982	0.026
Mof_C 	C 	0.33752	0.06781	0.7099	0.013
Mof_H 	H 	0.3563	0.0748	0.7248	0.02
Mof_C 	C 	0.3694	0.1335	0.6767	-0.115
Mof_H 	H 	0.3804	0.1245	0.6972	0.074
Mof_C 	C 	0.33974	0.11688	0.66322	0.06
Mof_N 	N 	0.29407	0.53921	0.18749	-0.105
Mof_N 	N 	0.31716	0.53955	0.21409	-0.134
Mof_N 	N 	0.29908	0.56652	0.16644	-0.089
Mof_C 	C 	0.32625	0.58513	0.17982	0.026
Mof_C 	C 	0.33752	0.56781	0.2099	0.013
Mof_H 	H 	0.3563	0.5748	0.2248	0.02
Mof_C 	C 	0.3694	0.6335	0.1767	-0.115
Mof_H 	H 	0.3804	0.6245	0.1972	0.075
Mof_C 	C 	0.33974	0.61688	0.16322	0.06
Mof_Fe	Fe	0.6818	0.5	0.25406	0.633
Mof_Fe	Fe	0.6818	0	0.75406	0.624
Mof_Fe	Fe	0.1818	0.5	0.75406	0.633
Mof_Fe	Fe	0.1818	0	0.25406	0.624
Mof_Fe	Fe	0.3182	0.5	0.25406	0.633
Mof_Fe	Fe	0.3182	0	0.75406	0.624
Mof_Fe	Fe	0.8182	0.5	0.75406	0.634
Mof_Fe	Fe	0.8182	0	0.25406	0.625
Mof_Fe	Fe	0.3182	0.5	0.74594	0.634
Mof_Fe	Fe	0.3182	0	0.24594	0.624
Mof_Fe	Fe	0.8182	0.5	0.24594	0.634
Mof_Fe	Fe	0.8182	7.32133e-33	0.74594	0.625
Mof_Fe	Fe	0.6818	0.5	0.74594	0.633
Mof_Fe	Fe	0.6818	0	0.24594	0.624
Mof_Fe	Fe	0.1818	0.5	0.24594	0.633
Mof_Fe	Fe	0.1818	7.32133e-33	0.74594	0.624
Mof_Fe	Fe	0.25406	0.6818	0.5	0.633
Mof_Fe	Fe	0.25406	0.1818	-0	0.624
Mof_Fe	Fe	0.75406	0.6818	-0	0.624
Mof_Fe	Fe	0.75406	0.1818	0.5	0.633
Mof_Fe	Fe	0.25406	0.3182	0.5	0.633
Mof_Fe	Fe	0.25406	0.8182	-0	0.625
Mof_Fe	Fe	0.75406	0.3182	-0	0.624
Mof_Fe	Fe	0.75406	0.8182	0.5	0.634
Mof_Fe	Fe	0.74594	0.3182	0.5	0.634
Mof_Fe	Fe	0.74594	0.8182	-0	0.625
Mof_Fe	Fe	0.24594	0.3182	-0	0.624
Mof_Fe	Fe	0.24594	0.8182	0.5	0.634
Mof_Fe	Fe	0.74594	0.6818	0.5	0.633
Mof_Fe	Fe	0.74594	0.1818	-0	0.624
Mof_Fe	Fe	0.24594	0.6818	-0	0.624
Mof_Fe	Fe	0.24594	0.1818	0.5	0.633
Mof_Fe	Fe	0.5	0.25406	0.6818	0.633
Mof_Fe	Fe	0.5	0.75406	0.1818	0.633
Mof_Fe	Fe	6.81641e-34	0.25406	0.1818	0.624
Mof_Fe	Fe	2.55634e-33	0.75406	0.6818	0.624
Mof_Fe	Fe	0.5	0.25406	0.3182	0.633
Mof_Fe	Fe	0.5	0.75406	0.8182	0.634
Mof_Fe	Fe	-4.25358e-33	0.25406	0.8182	0.625
Mof_Fe	Fe	-2.46761e-33	0.75406	0.3182	0.624
Mof_Fe	Fe	0.5	0.74594	0.3182	0.634
Mof_Fe	Fe	0.5	0.24594	0.8182	0.634
Mof_Fe	Fe	-1.88962e-32	0.74594	0.8182	0.625
Mof_Fe	Fe	1.19306e-33	0.24594	0.3182	0.624
Mof_Fe	Fe	0.5	0.74594	0.6818	0.633
Mof_Fe	Fe	0.5	0.24594	0.1818	0.633
Mof_Fe	Fe	-2.97903e-33	0.74594	0.1818	0.624
Mof_Fe	Fe	-4.76499e-33	0.24594	0.6818	0.624
Mof_Fe	Fe	-9.08206e-34	0.1818	0.24594	0.624
Mof_Fe	Fe	2.79683e-33	0.6818	0.74594	0.624
Mof_Fe	Fe	0.5	0.1818	0.74594	0.633
Mof_Fe	Fe	0.5	0.6818	0.24594	0.633
Mof_Fe	Fe	-2.73854e-33	0.8182	0.24594	0.625
Mof_Fe	Fe	2.79683e-33	0.3182	0.74594	0.624
Mof_Fe	Fe	0.5	0.8182	0.74594	0.634
Mof_Fe	Fe	0.5	0.3182	0.24594	0.633
Mof_Fe	Fe	-1.18154e-32	0.8182	0.75406	0.625
Mof_Fe	Fe	-2.70809e-33	0.3182	0.25406	0.624
Mof_Fe	Fe	0.5	0.8182	0.25406	0.634
Mof_Fe	Fe	0.5	0.3182	0.75406	0.634
Mof_Fe	Fe	-1.18154e-32	0.1818	0.75406	0.624
Mof_Fe	Fe	-6.36876e-33	0.6818	0.25406	0.624
Mof_Fe	Fe	0.5	0.1818	0.25406	0.633
Mof_Fe	Fe	0.5	0.6818	0.75406	0.634
Mof_Fe	Fe	0.1818	0.75406	-0	0.624
Mof_Fe	Fe	0.1818	0.25406	0.5	0.633
Mof_Fe	Fe	0.6818	0.75406	0.5	0.634
Mof_Fe	Fe	0.6818	0.25406	-0	0.624
Mof_Fe	Fe	0.8182	0.75406	-0	0.625
Mof_Fe	Fe	0.8182	0.25406	0.5	0.634
Mof_Fe	Fe	0.3182	0.75406	0.5	0.634
Mof_Fe	Fe	0.3182	0.25406	-0	0.624
Mof_Fe	Fe	0.8182	0.24594	-0	0.625
Mof_Fe	Fe	0.8182	0.74594	0.5	0.634
Mof_Fe	Fe	0.3182	0.24594	0.5	0.633
Mof_Fe	Fe	0.3182	0.74594	-0	0.624
Mof_Fe	Fe	0.1818	0.24594	-0	0.624
Mof_Fe	Fe	0.1818	0.74594	0.5	0.633
Mof_Fe	Fe	0.6818	0.24594	0.5	0.633
Mof_Fe	Fe	0.6818	0.74594	-0	0.624
Mof_Fe	Fe	0.75406	0	0.8182	0.625
Mof_Fe	Fe	0.75406	0.5	0.3182	0.634
Mof_Fe	Fe	0.25406	0	0.3182	0.624
Mof_Fe	Fe	0.25406	0.5	0.8182	0.634
Mof_Fe	Fe	0.75406	0	0.1818	0.624
Mof_Fe	Fe	0.75406	0.5	0.6818	0.634
Mof_Fe	Fe	0.25406	0	0.6818	0.624
Mof_Fe	Fe	0.25406	0.5	0.1818	0.633
Mof_Fe	Fe	0.24594	0	0.1818	0.624
Mof_Fe	Fe	0.24594	0.5	0.6818	0.633
Mof_Fe	Fe	0.74594	0	0.6818	0.624
Mof_Fe	Fe	0.74594	0.5	0.1818	0.633
Mof_Fe	Fe	0.24594	0	0.8182	0.625
Mof_Fe	Fe	0.24594	0.5	0.3182	0.633
Mof_Fe	Fe	0.74594	0	0.3182	0.624
Mof_Fe	Fe	0.74594	0.5	0.8182	0.634
Mof_Cl	Cl	0.75	0.5	0.25	-0.542
Mof_Cl	Cl	0.25	0.5	0.25	-0.542
Mof_Cl	Cl	0.25	0.5	0.75	-0.542
Mof_Cl	Cl	0.75	0.5	0.75	-0.542
Mof_Cl	Cl	0.25	0.75	0.5	-0.542
Mof_Cl	Cl	0.25	0.25	0.5	-0.542
Mof_Cl	Cl	0.75	0.25	0.5	-0.542
Mof_Cl	Cl	0.75	0.75	0.5	-0.542
Mof_Cl	Cl	0.5	0.25	0.75	-0.542
Mof_Cl	Cl	0.5	0.25	0.25	-0.542
Mof_Cl	Cl	0.5	0.75	0.25	-0.542
Mof_Cl	Cl	0.5	0.75	0.75	-0.542
Mof_Cl	Cl	-2.72332e-33	0.25	0.25	-0.544
Mof_Cl	Cl	-4.55365e-33	0.75	0.25	-0.544
Mof_Cl	Cl	2.81205e-33	0.75	0.75	-0.545
Mof_Cl	Cl	-4.50928e-33	0.25	0.75	-0.544
Mof_Cl	Cl	0.25	0.75	-0	-0.544
Mof_Cl	Cl	0.75	0.75	-0	-0.545
Mof_Cl	Cl	0.75	0.25	-0	-0.544
Mof_Cl	Cl	0.25	0.25	-0	-0.544
Mof_Cl	Cl	0.75	7.32133e-33	0.75	-0.545
Mof_Cl	Cl	0.75	1.83033e-33	0.25	-0.544
Mof_Cl	Cl	0.25	1.83033e-33	0.25	-0.544
Mof_Cl	Cl	0.25	7.32133e-33	0.75	-0.544
_end
