# CIF file generated by openbabel 3.1.0, see https://openbabel.org
data_I
_chemical_name_common 'image0'
_cell_length_a 10.567
_cell_length_b 16.97
_cell_length_c 8.413
_cell_angle_alpha 90
_cell_angle_beta 90
_cell_angle_gamma 90
_space_group_name_H-M_alt 'P 1'
_space_group_name_Hall 'P 1'
loop_
    _symmetry_equiv_pos_as_xyz
    x,y,z
loop_
    _atom_site_label
    _atom_site_type_symbol
    _atom_site_fract_x
    _atom_site_fract_y
    _atom_site_fract_z
    _atom_site_occupancy
    V1       V        0.14060    0.56430    0.77980    1.000
    P1       P        0.87070    0.58680    0.97090    1.000
    O1       O        0.01590    0.58530    0.94920    1.000
    O2       O        0.83590    0.54540    0.12830    1.000
    O3       O        0.80600    0.54570    0.82960    1.000
    O4       O        0.82600    0.67300    0.98920    1.000
    O5       O        0.65920    0.82610    0.75860    1.000
    V2       V        0.35940    0.43570    0.27980    1.000
    P2       P        0.62930    0.41320    0.47090    1.000
    O6       O        0.48410    0.41470    0.44920    1.000
    O7       O        0.66410    0.45460    0.62830    1.000
    O8       O        0.69400    0.45430    0.32960    1.000
    O9       O        0.67400    0.32700    0.48920    1.000
    O10      O        0.84080    0.17390    0.25860    1.000
    V3       V        0.85940    0.06430    0.22020    1.000
    P3       P        0.12930    0.08680    0.02910    1.000
    O11      O        0.98410    0.08530    0.05080    1.000
    O12      O        0.16410    0.04540    0.87170    1.000
    O13      O        0.19400    0.04570    0.17040    1.000
    O14      O        0.17400    0.17300    0.01080    1.000
    O15      O        0.34080    0.32610    0.24140    1.000
    V4       V        0.64060    0.93570    0.72020    1.000
    P4       P        0.37070    0.91320    0.52910    1.000
    O16      O        0.51590    0.91470    0.55080    1.000
    O17      O        0.33590    0.95460    0.37170    1.000
    O18      O        0.30600    0.95430    0.67040    1.000
    O19      O        0.32600    0.82700    0.51080    1.000
    O20      O        0.15920    0.67390    0.74140    1.000
    V5       V        0.85940    0.43570    0.22020    1.000
    P5       P        0.12930    0.41320    0.02910    1.000
    O21      O        0.98410    0.41470    0.05080    1.000
    O22      O        0.16410    0.45460    0.87170    1.000
    O23      O        0.19400    0.45430    0.17040    1.000
    O24      O        0.17400    0.32700    0.01080    1.000
    O25      O        0.34080    0.17390    0.24140    1.000
    V6       V        0.64060    0.56430    0.72020    1.000
    P6       P        0.37070    0.58680    0.52910    1.000
    O26      O        0.51590    0.58530    0.55080    1.000
    O27      O        0.33590    0.54540    0.37170    1.000
    O28      O        0.30600    0.54570    0.67040    1.000
    O29      O        0.32600    0.67300    0.51080    1.000
    O30      O        0.15920    0.82610    0.74140    1.000
    V7       V        0.14060    0.93570    0.77980    1.000
    P7       P        0.87070    0.91320    0.97090    1.000
    O31      O        0.01590    0.91470    0.94920    1.000
    O32      O        0.83590    0.95460    0.12830    1.000
    O33      O        0.80600    0.95430    0.82960    1.000
    O34      O        0.82600    0.82700    0.98920    1.000
    O35      O        0.65920    0.67390    0.75860    1.000
    V8       V        0.35940    0.06430    0.27980    1.000
    P8       P        0.62930    0.08680    0.47090    1.000
    O36      O        0.48410    0.08530    0.44920    1.000
    O37      O        0.66410    0.04540    0.62830    1.000
    O38      O        0.69400    0.04570    0.32960    1.000
    O39      O        0.67400    0.17300    0.48920    1.000
    O40      O        0.84080    0.32610    0.25860    1.000
    V9       V        0.77910    0.75000    0.82610    1.000
    V10      V        0.72090    0.25000    0.32610    1.000
    V11      V        0.22090    0.25000    0.17390    1.000
    V12      V        0.27910    0.75000    0.67390    1.000
