data_functionalizedCrystal
_audit_creation_method	'EQeq! by Chris Wilmer'
_symmetry_space_group_name_H-M	'P1'
_symmetry_Int_Tables_number	1
_symmetry_cell_setting	triclinic
loop_
_symmetry_equiv_pos_as_xyz
  x,y,z
_cell_length_a	6.0394
_cell_length_b	26.524
_cell_length_c	23.431
_cell_angle_alpha	90
_cell_angle_beta	93.71
_cell_angle_gamma	90
loop_
_atom_site_label
_atom_site_type_symbol
_atom_site_fract_x
_atom_site_fract_y
_atom_site_fract_z
_atom_site_charge
Mof_La	La	0.754	0.80541	0.94478	2.281
Mof_La	La	0.7468	0.77503	0.55484	2.296
Mof_P 	P 	0.8855	0.8989	0.6244	0.457
Mof_P 	P 	0.2608	0.8603	0.0223	0.473
Mof_P 	P 	0.785	0.76698	0.107	0.503
Mof_P 	P 	0.2315	0.1724	0.9819	0.523
Mof_P 	P 	0.7157	0.73626	0.3932	0.453
Mof_P 	P 	0.6042	0.9325	0.8843	0.482
Mof_O 	O 	0.76	0.8511	0.6181	-0.44
Mof_O 	O 	0.918	0.9339	0.5748	-0.268
Mof_O 	O 	0.774	0.9279	0.6739	-0.23
Mof_O 	O 	0.036	0.8633	0.9843	-0.483
Mof_O 	O 	0.271	0.8188	0.0676	-0.492
Mof_O 	O 	0.473	0.862	0.9879	-0.453
Mof_O 	O 	0.576	0.7406	0.1258	-0.456
Mof_O 	O 	0.994	0.7428	0.1328	-0.45
Mof_O 	O 	0.783	0.7743	0.0439	-0.608
Mof_O 	O 	0.459	0.1694	0.0168	-0.509
Mof_O 	O 	0.037	0.1717	0.0191	-0.514
Mof_O 	O 	0.22	0.2114	0.936	-0.519
Mof_O 	O 	0.919	0.7088	0.373	-0.433
Mof_O 	O 	0.496	0.7115	0.3686	-0.468
Mof_O 	O 	0.712	0.7374	0.4601	-0.612
Mof_O 	O 	0.7	0.9674	0.8414	-0.246
Mof_O 	O 	0.577	0.96	0.9379	-0.277
Mof_O 	O 	0.723	0.884	0.8877	-0.453
Mof_C 	C 	0.17	0.8857	0.6517	-0.215
Mof_H 	H 	0.2297	0.9155	0.6712	0.108
Mof_H 	H 	0.2593	0.8792	0.6195	0.102
Mof_C 	C 	0.428	0.8384	0.7209	-0.059
Mof_H 	H 	0.456	0.8059	0.7388	0.056
Mof_H 	H 	0.5329	0.8427	0.6915	0.07
Mof_C 	C 	0.464	0.8798	0.7654	-0.058
Mof_H 	H 	0.4459	0.9124	0.7469	0.071
Mof_H 	H 	0.614	0.8778	0.7826	0.062
Mof_C 	C 	0.072	0.8757	0.7852	-0.074
Mof_H 	H 	0.97	0.8701	0.8149	0.074
Mof_H 	H 	0.0386	0.9085	0.7683	0.073
Mof_C 	C 	0.037	0.8351	0.7395	-0.052
Mof_H 	H 	0.8864	0.8372	0.7227	0.059
Mof_H 	H 	0.0557	0.8022	0.7573	0.051
Mof_C 	C 	0.274	0.9208	0.0625	-0.193
Mof_H 	H 	0.142	0.9241	0.0839	0.086
Mof_H 	H 	0.4019	0.9205	0.0897	0.087
Mof_C 	C 	0.386	0.011	0.0539	-0.064
Mof_H 	H 	0.5327	0.0028	0.0709	0.063
Mof_H 	H 	0.2934	0.0203	0.0844	0.065
Mof_C 	C 	0.404	0.0557	0.0125	-0.06
Mof_H 	H 	0.4679	0.0846	0.0329	0.068
Mof_H 	H 	0.5006	0.0468	0.9825	0.069
Mof_C 	C 	0.079	0.0221	0.955	-0.077
Mof_H 	H 	0.931	0.0299	0.9388	0.072
Mof_H 	H 	0.1698	0.0131	0.9239	0.066
Mof_C 	C 	0.067	0.9782	0.9954	-0.066
Mof_H 	H 	0.9675	0.9864	0.0249	0.08
Mof_H 	H 	0.0072	0.9491	0.9746	0.07
Mof_C 	C 	0.771	0.832	0.1308	-0.205
Mof_H 	H 	0.8988	0.8497	0.1178	0.084
Mof_H 	H 	0.6401	0.8472	0.1115	0.082
Mof_C 	C 	0.563	0.8215	0.2146	-0.056
Mof_H 	H 	0.5575	0.7855	0.2072	0.058
Mof_H 	H 	0.436	0.8367	0.1937	0.041
Mof_C 	C 	0.543	0.831	0.2826	-0.065
Mof_H 	H 	0.5467	0.8667	0.2916	0.051
Mof_H 	H 	0.4084	0.8164	0.2957	0.042
Mof_C 	C 	0.941	0.8297	0.2929	-0.044
Mof_H 	H 	0.0675	0.8121	0.3112	0.028
Mof_H 	H 	0.9451	0.8645	0.3055	0.047
Mof_C 	C 	0.947	0.8268	0.2276	-0.033
Mof_H 	H 	0.0709	0.847	0.2168	0.024
Mof_H 	H 	0.979	0.7921	0.2179	0.058
Mof_C 	C 	0.189	0.1115	0.9438	-0.206
Mof_H 	H 	0.0524	0.1127	0.9198	0.085
Mof_H 	H 	0.3106	0.1056	0.9195	0.091
Mof_C 	C 	0.718	0.8006	0.3704	-0.209
Mof_H 	H 	0.8423	0.8178	0.3902	0.081
Mof_H 	H 	0.583	0.8169	0.381	0.079
Mof_C 	C 	0.311	0.9184	0.8541	-0.193
Mof_H 	H 	0.2195	0.9096	0.8852	0.093
Mof_H 	H 	0.2484	0.9484	0.8358	0.099
Mof_N 	N 	0.194	0.8399	0.6938	-0.133
Mof_H 	H 	0.1766	0.8116	0.6719	0.122
Mof_N 	N 	0.304	0.8755	0.8109	-0.133
Mof_H 	H 	0.3289	0.8459	0.8299	0.124
Mof_N 	N 	0.289	0.9651	0.0228	-0.134
Mof_H 	H 	0.3795	0.9565	0.9949	0.138
Mof_N 	N 	0.178	0.0689	0.9866	-0.13
Mof_H 	H 	0.0896	0.0781	0.0148	0.131
Mof_N 	N 	0.762	0.8416	0.1934	-0.13
Mof_H 	H 	0.7523	0.8756	0.1973	0.094
Mof_N 	N 	0.736	0.8059	0.3073	-0.128
Mof_H 	H 	0.7353	0.7742	0.2924	0.104
Mof_La	La	0.254	0.30541	0.94478	2.235
Mof_La	La	0.2468	0.27503	0.55484	2.24
Mof_P 	P 	0.3855	0.3989	0.6244	0.452
Mof_P 	P 	0.7608	0.3603	0.0223	0.473
Mof_P 	P 	0.285	0.26698	0.107	0.502
Mof_P 	P 	0.7315	0.6724	0.9819	0.523
Mof_P 	P 	0.2157	0.23626	0.3932	0.443
Mof_P 	P 	0.1042	0.4325	0.8843	0.468
Mof_O 	O 	0.26	0.3511	0.6181	-0.443
Mof_O 	O 	0.418	0.4339	0.5748	-0.273
Mof_O 	O 	0.274	0.4279	0.6739	-0.236
Mof_O 	O 	0.536	0.3633	0.9843	-0.474
Mof_O 	O 	0.771	0.3188	0.0676	-0.488
Mof_O 	O 	0.973	0.362	0.9879	-0.44
Mof_O 	O 	0.076	0.2406	0.1258	-0.465
Mof_O 	O 	0.494	0.2428	0.1328	-0.464
Mof_O 	O 	0.283	0.2743	0.0439	-0.613
Mof_O 	O 	0.959	0.6694	0.0168	-0.493
Mof_O 	O 	0.537	0.6717	0.0191	-0.506
Mof_O 	O 	0.72	0.7114	0.936	-0.514
Mof_O 	O 	0.419	0.2088	0.373	-0.443
Mof_O 	O 	0.996	0.2115	0.3686	-0.46
Mof_O 	O 	0.212	0.2374	0.4601	-0.615
Mof_O 	O 	0.2	0.4674	0.8414	-0.25
Mof_O 	O 	0.077	0.46	0.9379	-0.287
Mof_O 	O 	0.223	0.384	0.8877	-0.454
Mof_C 	C 	0.67	0.3857	0.6517	-0.21
Mof_H 	H 	0.7297	0.4155	0.6712	0.11
Mof_H 	H 	0.7593	0.3792	0.6195	0.105
Mof_C 	C 	0.928	0.3384	0.7209	-0.03
Mof_H 	H 	0.956	0.3059	0.7388	0.052
Mof_H 	H 	0.0329	0.3427	0.6915	0.045
Mof_C 	C 	0.964	0.3798	0.7654	-0.027
Mof_H 	H 	0.9459	0.4124	0.7469	0.07
Mof_H 	H 	0.114	0.3778	0.7826	0.039
Mof_C 	C 	0.572	0.3757	0.7852	-0.065
Mof_H 	H 	0.47	0.3701	0.8149	0.066
Mof_H 	H 	0.5386	0.4085	0.7683	0.073
Mof_C 	C 	0.537	0.3351	0.7395	-0.04
Mof_H 	H 	0.3864	0.3372	0.7227	0.049
Mof_H 	H 	0.5557	0.3022	0.7573	0.05
Mof_C 	C 	0.774	0.4208	0.0625	-0.191
Mof_H 	H 	0.642	0.4241	0.0839	0.089
Mof_H 	H 	0.9019	0.4205	0.0897	0.094
Mof_C 	C 	0.886	0.511	0.0539	-0.029
Mof_H 	H 	0.0327	0.5028	0.0709	0.036
Mof_H 	H 	0.7934	0.5203	0.0844	0.058
Mof_C 	C 	0.904	0.5557	0.0125	-0.033
Mof_H 	H 	0.9679	0.5846	0.0329	0.067
Mof_H 	H 	0.0006	0.5468	0.9825	0.044
Mof_C 	C 	0.579	0.5221	0.955	-0.067
Mof_H 	H 	0.431	0.5299	0.9388	0.063
Mof_H 	H 	0.6698	0.5131	0.9239	0.068
Mof_C 	C 	0.567	0.4782	0.9954	-0.056
Mof_H 	H 	0.4675	0.4864	0.0249	0.07
Mof_H 	H 	0.5072	0.4491	0.9746	0.07
Mof_C 	C 	0.271	0.332	0.1308	-0.205
Mof_H 	H 	0.3988	0.3497	0.1178	0.079
Mof_H 	H 	0.1401	0.3472	0.1115	0.075
Mof_C 	C 	0.063	0.3215	0.2146	-0.08
Mof_H 	H 	0.0575	0.2855	0.2072	0.063
Mof_H 	H 	0.936	0.3367	0.1937	0.06
Mof_C 	C 	0.043	0.331	0.2826	-0.087
Mof_H 	H 	0.0467	0.3667	0.2916	0.053
Mof_H 	H 	0.9084	0.3164	0.2957	0.061
Mof_C 	C 	0.441	0.3297	0.2929	-0.065
Mof_H 	H 	0.5675	0.3121	0.3112	0.045
Mof_H 	H 	0.4451	0.3645	0.3055	0.05
Mof_C 	C 	0.447	0.3268	0.2276	-0.051
Mof_H 	H 	0.5709	0.347	0.2168	0.041
Mof_H 	H 	0.479	0.2921	0.2179	0.06
Mof_C 	C 	0.689	0.6115	0.9438	-0.206
Mof_H 	H 	0.5524	0.6127	0.9198	0.088
Mof_H 	H 	0.8106	0.6056	0.9195	0.097
Mof_C 	C 	0.218	0.3006	0.3704	-0.208
Mof_H 	H 	0.3423	0.3178	0.3902	0.076
Mof_H 	H 	0.083	0.3169	0.381	0.072
Mof_C 	C 	0.811	0.4184	0.8541	-0.174
Mof_H 	H 	0.7195	0.4096	0.8852	0.092
Mof_H 	H 	0.7484	0.4484	0.8358	0.099
Mof_N 	N 	0.694	0.3399	0.6938	-0.138
Mof_H 	H 	0.6766	0.3116	0.6719	0.125
Mof_N 	N 	0.804	0.3755	0.8109	-0.139
Mof_H 	H 	0.8289	0.3459	0.8299	0.129
Mof_N 	N 	0.789	0.4651	0.0228	-0.139
Mof_H 	H 	0.8795	0.4565	0.9949	0.145
Mof_N 	N 	0.678	0.5689	0.9866	-0.133
Mof_H 	H 	0.5896	0.5781	0.0148	0.132
Mof_N 	N 	0.262	0.3416	0.1934	-0.124
Mof_H 	H 	0.2523	0.3756	0.1973	0.09
Mof_N 	N 	0.236	0.3059	0.3073	-0.123
Mof_H 	H 	0.2353	0.2742	0.2924	0.102
Mof_La	La	0.754	0.19459	0.44478	2.281
Mof_La	La	0.7468	0.22497	0.05484	2.296
Mof_P 	P 	0.8855	0.1011	0.1244	0.457
Mof_P 	P 	0.2608	0.1397	0.5223	0.474
Mof_P 	P 	0.785	0.23302	0.607	0.503
Mof_P 	P 	0.2315	0.8276	0.4819	0.523
Mof_P 	P 	0.7157	0.26374	0.8932	0.453
Mof_P 	P 	0.6042	0.0675	0.3843	0.482
Mof_O 	O 	0.76	0.1489	0.1181	-0.44
Mof_O 	O 	0.918	0.0661	0.0748	-0.268
Mof_O 	O 	0.774	0.0721	0.1739	-0.229
Mof_O 	O 	0.036	0.1367	0.4843	-0.484
Mof_O 	O 	0.271	0.1812	0.5676	-0.492
Mof_O 	O 	0.473	0.138	0.4879	-0.454
Mof_O 	O 	0.576	0.2594	0.6258	-0.457
Mof_O 	O 	0.994	0.2572	0.6328	-0.45
Mof_O 	O 	0.783	0.2257	0.5439	-0.608
Mof_O 	O 	0.459	0.8306	0.5168	-0.508
Mof_O 	O 	0.037	0.8283	0.5191	-0.514
Mof_O 	O 	0.22	0.7886	0.436	-0.519
Mof_O 	O 	0.919	0.2912	0.873	-0.434
Mof_O 	O 	0.496	0.2885	0.8686	-0.468
Mof_O 	O 	0.712	0.2626	0.9601	-0.612
Mof_O 	O 	0.7	0.0326	0.3414	-0.246
Mof_O 	O 	0.577	0.04	0.4379	-0.277
Mof_O 	O 	0.723	0.116	0.3877	-0.453
Mof_C 	C 	0.17	0.1143	0.1517	-0.215
Mof_H 	H 	0.2297	0.0845	0.1712	0.108
Mof_H 	H 	0.2593	0.1208	0.1195	0.102
Mof_C 	C 	0.428	0.1616	0.2209	-0.059
Mof_H 	H 	0.456	0.1941	0.2388	0.056
Mof_H 	H 	0.5329	0.1573	0.1915	0.07
Mof_C 	C 	0.464	0.1202	0.2654	-0.058
Mof_H 	H 	0.4459	0.0876	0.2469	0.072
Mof_H 	H 	0.614	0.1222	0.2826	0.062
Mof_C 	C 	0.072	0.1243	0.2852	-0.074
Mof_H 	H 	0.97	0.1299	0.3149	0.074
Mof_H 	H 	0.0386	0.0915	0.2683	0.073
Mof_C 	C 	0.037	0.1649	0.2395	-0.052
Mof_H 	H 	0.8864	0.1628	0.2227	0.059
Mof_H 	H 	0.0557	0.1978	0.2573	0.051
Mof_C 	C 	0.274	0.0792	0.5625	-0.193
Mof_H 	H 	0.142	0.0759	0.5839	0.086
Mof_H 	H 	0.4019	0.0795	0.5897	0.088
Mof_C 	C 	0.386	0.989	0.5539	-0.065
Mof_H 	H 	0.5327	0.9972	0.5709	0.063
Mof_H 	H 	0.2934	0.9797	0.5844	0.065
Mof_C 	C 	0.404	0.9443	0.5125	-0.059
Mof_H 	H 	0.4679	0.9154	0.5329	0.067
Mof_H 	H 	0.5006	0.9532	0.4825	0.069
Mof_C 	C 	0.079	0.9779	0.455	-0.075
Mof_H 	H 	0.931	0.9701	0.4388	0.072
Mof_H 	H 	0.1698	0.9869	0.4239	0.065
Mof_C 	C 	0.067	0.0218	0.4954	-0.07
Mof_H 	H 	0.9675	0.0136	0.5249	0.081
Mof_H 	H 	0.0072	0.0509	0.4746	0.071
Mof_C 	C 	0.771	0.168	0.6308	-0.205
Mof_H 	H 	0.8988	0.1503	0.6178	0.084
Mof_H 	H 	0.6401	0.1528	0.6115	0.082
Mof_C 	C 	0.563	0.1785	0.7146	-0.056
Mof_H 	H 	0.5575	0.2145	0.7072	0.058
Mof_H 	H 	0.436	0.1633	0.6937	0.041
Mof_C 	C 	0.543	0.169	0.7826	-0.065
Mof_H 	H 	0.5467	0.1333	0.7916	0.051
Mof_H 	H 	0.4084	0.1836	0.7957	0.042
Mof_C 	C 	0.941	0.1703	0.7929	-0.044
Mof_H 	H 	0.0675	0.1879	0.8112	0.028
Mof_H 	H 	0.9451	0.1355	0.8055	0.047
Mof_C 	C 	0.947	0.1732	0.7276	-0.033
Mof_H 	H 	0.0709	0.153	0.7168	0.024
Mof_H 	H 	0.979	0.2079	0.7179	0.058
Mof_C 	C 	0.189	0.8885	0.4438	-0.205
Mof_H 	H 	0.0524	0.8873	0.4198	0.085
Mof_H 	H 	0.3106	0.8944	0.4195	0.091
Mof_C 	C 	0.718	0.1994	0.8704	-0.209
Mof_H 	H 	0.8423	0.1822	0.8902	0.081
Mof_H 	H 	0.583	0.1831	0.881	0.079
Mof_C 	C 	0.311	0.0816	0.3541	-0.193
Mof_H 	H 	0.2195	0.0904	0.3852	0.093
Mof_H 	H 	0.2484	0.0516	0.3358	0.099
Mof_N 	N 	0.194	0.1601	0.1938	-0.133
Mof_H 	H 	0.1766	0.1884	0.1719	0.122
Mof_N 	N 	0.304	0.1245	0.3109	-0.133
Mof_H 	H 	0.3289	0.1541	0.3299	0.124
Mof_N 	N 	0.289	0.0349	0.5228	-0.132
Mof_H 	H 	0.3795	0.0435	0.4949	0.137
Mof_N 	N 	0.178	0.9311	0.4866	-0.13
Mof_H 	H 	0.0896	0.9219	0.5148	0.131
Mof_N 	N 	0.762	0.1584	0.6934	-0.13
Mof_H 	H 	0.7523	0.1244	0.6973	0.094
Mof_N 	N 	0.736	0.1941	0.8073	-0.128
Mof_H 	H 	0.7353	0.2258	0.7924	0.104
Mof_La	La	0.254	0.69459	0.44478	2.234
Mof_La	La	0.2468	0.72497	0.05484	2.24
Mof_P 	P 	0.3855	0.6011	0.1244	0.452
Mof_P 	P 	0.7608	0.6397	0.5223	0.474
Mof_P 	P 	0.285	0.73302	0.607	0.502
Mof_P 	P 	0.7315	0.3276	0.4819	0.522
Mof_P 	P 	0.2157	0.76374	0.8932	0.443
Mof_P 	P 	0.1042	0.5675	0.3843	0.468
Mof_O 	O 	0.26	0.6489	0.1181	-0.443
Mof_O 	O 	0.418	0.5661	0.0748	-0.273
Mof_O 	O 	0.274	0.5721	0.1739	-0.236
Mof_O 	O 	0.536	0.6367	0.4843	-0.475
Mof_O 	O 	0.771	0.6812	0.5676	-0.488
Mof_O 	O 	0.973	0.638	0.4879	-0.44
Mof_O 	O 	0.076	0.7594	0.6258	-0.465
Mof_O 	O 	0.494	0.7572	0.6328	-0.464
Mof_O 	O 	0.283	0.7257	0.5439	-0.613
Mof_O 	O 	0.959	0.3306	0.5168	-0.493
Mof_O 	O 	0.537	0.3283	0.5191	-0.505
Mof_O 	O 	0.72	0.2886	0.436	-0.514
Mof_O 	O 	0.419	0.7912	0.873	-0.443
Mof_O 	O 	0.996	0.7885	0.8686	-0.46
Mof_O 	O 	0.212	0.7626	0.9601	-0.615
Mof_O 	O 	0.2	0.5326	0.3414	-0.25
Mof_O 	O 	0.077	0.54	0.4379	-0.287
Mof_O 	O 	0.223	0.616	0.3877	-0.454
Mof_C 	C 	0.67	0.6143	0.1517	-0.21
Mof_H 	H 	0.7297	0.5845	0.1712	0.11
Mof_H 	H 	0.7593	0.6208	0.1195	0.105
Mof_C 	C 	0.928	0.6616	0.2209	-0.03
Mof_H 	H 	0.956	0.6941	0.2388	0.052
Mof_H 	H 	0.0329	0.6573	0.1915	0.045
Mof_C 	C 	0.964	0.6202	0.2654	-0.027
Mof_H 	H 	0.9459	0.5876	0.2469	0.07
Mof_H 	H 	0.114	0.6222	0.2826	0.039
Mof_C 	C 	0.572	0.6243	0.2852	-0.065
Mof_H 	H 	0.47	0.6299	0.3149	0.066
Mof_H 	H 	0.5386	0.5915	0.2683	0.073
Mof_C 	C 	0.537	0.6649	0.2395	-0.04
Mof_H 	H 	0.3864	0.6628	0.2227	0.049
Mof_H 	H 	0.5557	0.6978	0.2573	0.05
Mof_C 	C 	0.774	0.5792	0.5625	-0.191
Mof_H 	H 	0.642	0.5759	0.5839	0.089
Mof_H 	H 	0.9019	0.5795	0.5897	0.094
Mof_C 	C 	0.886	0.489	0.5539	-0.029
Mof_H 	H 	0.0327	0.4972	0.5709	0.037
Mof_H 	H 	0.7934	0.4797	0.5844	0.059
Mof_C 	C 	0.904	0.4443	0.5125	-0.031
Mof_H 	H 	0.9679	0.4154	0.5329	0.067
Mof_H 	H 	0.0006	0.4532	0.4825	0.043
Mof_C 	C 	0.579	0.4779	0.455	-0.066
Mof_H 	H 	0.431	0.4701	0.4388	0.063
Mof_H 	H 	0.6698	0.4869	0.4239	0.067
Mof_C 	C 	0.567	0.5218	0.4954	-0.058
Mof_H 	H 	0.4675	0.5136	0.5249	0.071
Mof_H 	H 	0.5072	0.5509	0.4746	0.07
Mof_C 	C 	0.271	0.668	0.6308	-0.205
Mof_H 	H 	0.3988	0.6503	0.6178	0.079
Mof_H 	H 	0.1401	0.6528	0.6115	0.075
Mof_C 	C 	0.063	0.6785	0.7146	-0.08
Mof_H 	H 	0.0575	0.7145	0.7072	0.063
Mof_H 	H 	0.936	0.6633	0.6937	0.06
Mof_C 	C 	0.043	0.669	0.7826	-0.087
Mof_H 	H 	0.0467	0.6333	0.7916	0.053
Mof_H 	H 	0.9084	0.6836	0.7957	0.061
Mof_C 	C 	0.441	0.6703	0.7929	-0.065
Mof_H 	H 	0.5675	0.6879	0.8112	0.045
Mof_H 	H 	0.4451	0.6355	0.8055	0.05
Mof_C 	C 	0.447	0.6732	0.7276	-0.051
Mof_H 	H 	0.5709	0.653	0.7168	0.041
Mof_H 	H 	0.479	0.7079	0.7179	0.06
Mof_C 	C 	0.689	0.3885	0.4438	-0.205
Mof_H 	H 	0.5524	0.3873	0.4198	0.088
Mof_H 	H 	0.8106	0.3944	0.4195	0.097
Mof_C 	C 	0.218	0.6994	0.8704	-0.208
Mof_H 	H 	0.3423	0.6822	0.8902	0.076
Mof_H 	H 	0.083	0.6831	0.881	0.072
Mof_C 	C 	0.811	0.5816	0.3541	-0.174
Mof_H 	H 	0.7195	0.5904	0.3852	0.092
Mof_H 	H 	0.7484	0.5516	0.3358	0.099
Mof_N 	N 	0.694	0.6601	0.1938	-0.138
Mof_H 	H 	0.6766	0.6884	0.1719	0.125
Mof_N 	N 	0.804	0.6245	0.3109	-0.139
Mof_H 	H 	0.8289	0.6541	0.3299	0.129
Mof_N 	N 	0.789	0.5349	0.5228	-0.138
Mof_H 	H 	0.8795	0.5435	0.4949	0.145
Mof_N 	N 	0.678	0.4311	0.4866	-0.134
Mof_H 	H 	0.5896	0.4219	0.5148	0.133
Mof_N 	N 	0.262	0.6584	0.6934	-0.124
Mof_H 	H 	0.2523	0.6244	0.6973	0.09
Mof_N 	N 	0.236	0.6941	0.8073	-0.123
Mof_H 	H 	0.2353	0.7258	0.7924	0.102
_end
