# CIF file generated by openbabel 3.1.0, see https://openbabel.org
data_I
_chemical_name_common 'image0'
_cell_length_a 11.3184
_cell_length_b 11.0159
_cell_length_c 18.7519
_cell_angle_alpha 90
_cell_angle_beta 92.569
_cell_angle_gamma 90
_space_group_name_H-M_alt 'P 1'
_space_group_name_Hall 'P 1'
loop_
    _symmetry_equiv_pos_as_xyz
    x,y,z
loop_
    _atom_site_label
    _atom_site_type_symbol
    _atom_site_fract_x
    _atom_site_fract_y
    _atom_site_fract_z
    _atom_site_occupancy
    Ga1      Ga       0.25726    0.94938    0.29273    1.000
    Ga2      Ga       0.28187    0.90580    0.10824    1.000
    Ga3      Ga       0.24389    0.07338    0.79232    1.000
    Ga4      Ga       0.21404    0.12080    0.60747    1.000
    P1       P        0.03804    0.97096    0.18280    1.000
    H1       H        0.02800    0.08400    0.18000    1.000
    P2       P        0.32460    0.16643    0.18670    1.000
    H2       H        0.45600    0.18300    0.19900    1.000
    P3       P        0.19204    0.11854    0.43401    1.000
    H3       H        0.07600    0.13500    0.43100    1.000
    P4       P        0.26222    0.90919    0.93123    1.000
    H4       H        0.14100    0.89300    0.91700    1.000
    P5       P        0.46612    0.12111    0.69123    1.000
    H5       H        0.50500    0.22500    0.70100    1.000
    P6       P        0.17970    0.86079    0.68215    1.000
    H6       H        0.05200    0.84700    0.68400    1.000
    O1       O        0.30920    0.86640    0.20829    1.000
    H7       H        0.30900    0.79120    0.21100    1.000
    O2       O        0.09000    0.94600    0.25790    1.000
    O3       O        0.27410    0.11580    0.25434    1.000
    O4       O        0.21210    0.01510    0.38341    1.000
    O5       O        0.26740    0.28540    0.16330    1.000
    O6       O        0.57280    0.04500    0.67170    1.000
    O7       O        0.11400    0.92490    0.12306    1.000
    O8       O        0.31670    0.07640    0.12580    1.000
    O9       O        0.27820    0.95010    0.00837    1.000
    O10      O        0.25340    0.23490    0.41408    1.000
    O11      O        0.18220    0.15210    0.70516    1.000
    H8       H        0.17100    0.22800    0.70500    1.000
    O12      O        0.91560    0.91760    0.17037    1.000
    O13      O        0.40730    0.07250    0.75665    1.000
    O14      O        0.23360    0.73880    0.66554    1.000
    O15      O        0.30620    0.00780    0.88250    1.000
    O16      O        0.21530    0.90780    0.75597    1.000
    O17      O        0.38280    0.13460    0.62530    1.000
    O18      O        0.22960    0.07440    0.50895    1.000
    O19      O        0.32330    0.78790    0.91906    1.000
    O20      O        0.20980    0.94720    0.62288    1.000
    Ga5      Ga       0.24274    0.44938    0.20727    1.000
    Ga6      Ga       0.21813    0.40580    0.39176    1.000
    Ga7      Ga       0.25611    0.57338    0.70768    1.000
    Ga8      Ga       0.28596    0.62080    0.89253    1.000
    P7       P        0.46196    0.47096    0.31720    1.000
    H9       H        0.47200    0.58400    0.32000    1.000
    P8       P        0.17540    0.66643    0.31330    1.000
    H10      H        0.04400    0.68300    0.30100    1.000
    P9       P        0.30796    0.61854    0.06599    1.000
    H11      H        0.42400    0.63500    0.06900    1.000
    P10      P        0.23778    0.40919    0.56877    1.000
    H12      H        0.35900    0.39300    0.58300    1.000
    P11      P        0.03388    0.62111    0.80877    1.000
    H13      H        0.99500    0.72500    0.79900    1.000
    P12      P        0.32030    0.36079    0.81785    1.000
    H14      H        0.44800    0.34700    0.81600    1.000
    O21      O        0.19080    0.36640    0.29171    1.000
    H15      H        0.19100    0.29120    0.28900    1.000
    O22      O        0.41000    0.44600    0.24210    1.000
    O23      O        0.22590    0.61580    0.24566    1.000
    O24      O        0.28790    0.51510    0.11659    1.000
    O25      O        0.23260    0.78540    0.33670    1.000
    O26      O        0.92720    0.54500    0.82830    1.000
    O27      O        0.38600    0.42490    0.37694    1.000
    O28      O        0.18330    0.57640    0.37420    1.000
    O29      O        0.22180    0.45010    0.49163    1.000
    O30      O        0.24660    0.73490    0.08592    1.000
    O31      O        0.31780    0.65210    0.79484    1.000
    H16      H        0.32900    0.72800    0.79500    1.000
    O32      O        0.58440    0.41760    0.32963    1.000
    O33      O        0.09270    0.57250    0.74335    1.000
    O34      O        0.26640    0.23880    0.83446    1.000
    O35      O        0.19380    0.50780    0.61750    1.000
    O36      O        0.28470    0.40780    0.74403    1.000
    O37      O        0.11720    0.63460    0.87470    1.000
    O38      O        0.27040    0.57440    0.99105    1.000
    O39      O        0.17670    0.28790    0.58094    1.000
    O40      O        0.29020    0.44720    0.87712    1.000
    Ga9      Ga       0.74274    0.05062    0.70727    1.000
    Ga10     Ga       0.71813    0.09420    0.89176    1.000
    Ga11     Ga       0.75611    0.92662    0.20768    1.000
    Ga12     Ga       0.78596    0.87920    0.39253    1.000
    P13      P        0.96196    0.02904    0.81720    1.000
    H17      H        0.97200    0.91600    0.82000    1.000
    P14      P        0.67540    0.83357    0.81330    1.000
    H18      H        0.54400    0.81700    0.80100    1.000
    P15      P        0.80796    0.88146    0.56599    1.000
    H19      H        0.92400    0.86500    0.56900    1.000
    P16      P        0.73778    0.09081    0.06877    1.000
    H20      H        0.85900    0.10700    0.08300    1.000
    P17      P        0.53388    0.87889    0.30877    1.000
    H21      H        0.49500    0.77500    0.29900    1.000
    P18      P        0.82030    0.13921    0.31785    1.000
    H22      H        0.94800    0.15300    0.31600    1.000
    O41      O        0.69080    0.13360    0.79171    1.000
    H23      H        0.69100    0.20880    0.78900    1.000
    O42      O        0.91000    0.05400    0.74210    1.000
    O43      O        0.72590    0.88420    0.74566    1.000
    O44      O        0.78790    0.98490    0.61659    1.000
    O45      O        0.73260    0.71460    0.83670    1.000
    O46      O        0.42720    0.95500    0.32830    1.000
    O47      O        0.88600    0.07510    0.87694    1.000
    O48      O        0.68330    0.92360    0.87420    1.000
    O49      O        0.72180    0.04990    0.99163    1.000
    O50      O        0.74660    0.76510    0.58592    1.000
    O51      O        0.81780    0.84790    0.29484    1.000
    H24      H        0.82900    0.77200    0.29500    1.000
    O52      O        0.08440    0.08240    0.82963    1.000
    O53      O        0.59270    0.92750    0.24335    1.000
    O54      O        0.76640    0.26120    0.33446    1.000
    O55      O        0.69380    0.99220    0.11750    1.000
    O56      O        0.78470    0.09220    0.24403    1.000
    O57      O        0.61720    0.86540    0.37470    1.000
    O58      O        0.77040    0.92560    0.49105    1.000
    O59      O        0.67670    0.21210    0.08094    1.000
    O60      O        0.79020    0.05280    0.37712    1.000
    Ga13     Ga       0.75726    0.55062    0.79273    1.000
    Ga14     Ga       0.78187    0.59420    0.60824    1.000
    Ga15     Ga       0.74389    0.42662    0.29232    1.000
    Ga16     Ga       0.71404    0.37920    0.10747    1.000
    P19      P        0.53804    0.52904    0.68280    1.000
    H25      H        0.52800    0.41600    0.68000    1.000
    P20      P        0.82460    0.33357    0.68670    1.000
    H26      H        0.95600    0.31700    0.69900    1.000
    P21      P        0.69204    0.38146    0.93401    1.000
    H27      H        0.57600    0.36500    0.93100    1.000
    P22      P        0.76222    0.59081    0.43123    1.000
    H28      H        0.64100    0.60700    0.41700    1.000
    P23      P        0.96612    0.37889    0.19123    1.000
    H29      H        0.00500    0.27500    0.20100    1.000
    P24      P        0.67970    0.63921    0.18215    1.000
    H30      H        0.55200    0.65300    0.18400    1.000
    O61      O        0.80920    0.63360    0.70829    1.000
    H31      H        0.80900    0.70880    0.71100    1.000
    O62      O        0.59000    0.55400    0.75790    1.000
    O63      O        0.77410    0.38420    0.75434    1.000
    O64      O        0.71210    0.48490    0.88341    1.000
    O65      O        0.76740    0.21460    0.66330    1.000
    O66      O        0.07280    0.45500    0.17170    1.000
    O67      O        0.61400    0.57510    0.62306    1.000
    O68      O        0.81670    0.42360    0.62580    1.000
    O69      O        0.77820    0.54990    0.50837    1.000
    O70      O        0.75340    0.26510    0.91408    1.000
    O71      O        0.68220    0.34790    0.20516    1.000
    H32      H        0.67100    0.27200    0.20500    1.000
    O72      O        0.41560    0.58240    0.67037    1.000
    O73      O        0.90730    0.42750    0.25665    1.000
    O74      O        0.73360    0.76120    0.16554    1.000
    O75      O        0.80620    0.49220    0.38250    1.000
    O76      O        0.71530    0.59220    0.25597    1.000
    O77      O        0.88280    0.36540    0.12530    1.000
    O78      O        0.72960    0.42560    0.00895    1.000
    O79      O        0.82330    0.71210    0.41906    1.000
    O80      O        0.70980    0.55280    0.12288    1.000
