# CIF file generated by openbabel 3.1.0, see https://openbabel.org
data_I
_chemical_name_common 'HAWZEM_clean'
_cell_length_a 11.6755
_cell_length_b 12.2521
_cell_length_c 12.4948
_cell_angle_alpha 90
_cell_angle_beta 117.046
_cell_angle_gamma 90
_space_group_name_H-M_alt 'P 1'
_space_group_name_Hall 'P 1'
loop_
    _symmetry_equiv_pos_as_xyz
    x,y,z
loop_
    _atom_site_label
    _atom_site_type_symbol
    _atom_site_fract_x
    _atom_site_fract_y
    _atom_site_fract_z
    _atom_site_occupancy
    Cu1      Cu       0.17880    0.96438    0.46738    1.000
    Cu2      Cu       0.32120    0.46438    0.03262    1.000
    H1       H        0.11190    0.75740    0.14760    1.000
    H2       H        0.13210    0.61930    0.03430    1.000
    H3       H        0.50070    0.59980    0.24260    1.000
    H4       H        0.49200    0.74340    0.35520    1.000
    H5       H        0.38810    0.25740    0.35240    1.000
    H6       H        0.36790    0.11930    0.46570    1.000
    H7       H        0.99930    0.09980    0.25740    1.000
    H8       H        0.00800    0.24340    0.14480    1.000
    H9       H        0.02720    0.20460    0.74350    1.000
    H10      H        0.09970    0.34160    0.88320    1.000
    H11      H        0.38390    0.17220    0.78480    1.000
    H12      H        0.44750    0.30770    0.92810    1.000
    H13      H        0.47280    0.70460    0.75650    1.000
    H14      H        0.40030    0.84160    0.61680    1.000
    H15      H        0.11610    0.67220    0.71520    1.000
    H16      H        0.05250    0.80770    0.57190    1.000
    C1       C        0.29330    0.85090    0.35150    1.000
    C2       C        0.19210    0.72670    0.16830    1.000
    C3       C        0.20500    0.64330    0.10140    1.000
    C4       C        0.30110    0.76480    0.26790    1.000
    C5       C        0.42170    0.63250    0.22280    1.000
    C6       C        0.41680    0.71770    0.29200    1.000
    C7       C        0.20670    0.35090    0.14850    1.000
    C8       C        0.30790    0.22670    0.33170    1.000
    C9       C        0.29500    0.14330    0.39860    1.000
    C10      C        0.19890    0.26480    0.23210    1.000
    C11      C        0.07830    0.13250    0.27720    1.000
    C12      C        0.08320    0.21770    0.20800    1.000
    C13      C        0.14850    0.08580    0.64980    1.000
    C14      C        0.19790    0.17310    0.74610    1.000
    C15      C        0.11340    0.22470    0.77860    1.000
    C16      C        0.15830    0.30640    0.86380    1.000
    C17      C        0.32350    0.20530    0.80350    1.000
    C18      C        0.36140    0.28730    0.88980    1.000
    C19      C        0.35150    0.58580    0.85020    1.000
    C20      C        0.30210    0.67310    0.75390    1.000
    C21      C        0.38660    0.72470    0.72140    1.000
    C22      C        0.34170    0.80640    0.63620    1.000
    C23      C        0.17650    0.70530    0.69650    1.000
    C24      C        0.13860    0.78730    0.61020    1.000
    N1       N        0.31750    0.59490    0.12820    1.000
    N2       N        0.18250    0.09490    0.37180    1.000
    N3       N        0.27960    0.33730    0.91930    1.000
    N4       N        0.22040    0.83730    0.58070    1.000
    O1       O        0.18134    0.86713    0.34204    1.000
    O2       O        0.39250    0.89520    0.42450    1.000
    O3       O        0.31866    0.36713    0.15796    1.000
    O4       O        0.10750    0.39520    0.07550    1.000
    O5       O        0.04350    0.04360    0.62420    1.000
    O6       O        0.22230    0.06407    0.60330    1.000
    O7       O        0.45650    0.54360    0.87580    1.000
    O8       O        0.27770    0.56407    0.89670    1.000
    Cu3      Cu       0.82120    0.03562    0.53262    1.000
    Cu4      Cu       0.67880    0.53562    0.96738    1.000
    H17      H        0.97280    0.79540    0.25650    1.000
    H18      H        0.90030    0.65840    0.11680    1.000
    H19      H        0.61610    0.82780    0.21520    1.000
    H20      H        0.55250    0.69230    0.07190    1.000
    H21      H        0.52720    0.29540    0.24350    1.000
    H22      H        0.59970    0.15840    0.38320    1.000
    H23      H        0.88390    0.32780    0.28480    1.000
    H24      H        0.94750    0.19230    0.42810    1.000
    H25      H        0.88810    0.24260    0.85240    1.000
    H26      H        0.86790    0.38070    0.96570    1.000
    H27      H        0.49930    0.40020    0.75740    1.000
    H28      H        0.50800    0.25660    0.64480    1.000
    H29      H        0.61190    0.74260    0.64760    1.000
    H30      H        0.63210    0.88070    0.53430    1.000
    H31      H        0.00070    0.90020    0.74260    1.000
    H32      H        0.99200    0.75660    0.85520    1.000
    C25      C        0.85150    0.91420    0.35020    1.000
    C26      C        0.80210    0.82690    0.25390    1.000
    C27      C        0.88660    0.77530    0.22140    1.000
    C28      C        0.84170    0.69360    0.13620    1.000
    C29      C        0.67650    0.79470    0.19650    1.000
    C30      C        0.63860    0.71270    0.11020    1.000
    C31      C        0.64850    0.41420    0.14980    1.000
    C32      C        0.69790    0.32690    0.24610    1.000
    C33      C        0.61340    0.27530    0.27860    1.000
    C34      C        0.65830    0.19360    0.36380    1.000
    C35      C        0.82350    0.29470    0.30350    1.000
    C36      C        0.86140    0.21270    0.38980    1.000
    C37      C        0.70670    0.14910    0.64850    1.000
    C38      C        0.80790    0.27330    0.83170    1.000
    C39      C        0.79500    0.35670    0.89860    1.000
    C40      C        0.69890    0.23520    0.73210    1.000
    C41      C        0.57830    0.36750    0.77720    1.000
    C42      C        0.58320    0.28230    0.70800    1.000
    C43      C        0.79330    0.64910    0.85150    1.000
    C44      C        0.69210    0.77330    0.66830    1.000
    C45      C        0.70500    0.85670    0.60140    1.000
    C46      C        0.80110    0.73520    0.76790    1.000
    C47      C        0.92170    0.86750    0.72280    1.000
    C48      C        0.91680    0.78230    0.79200    1.000
    N5       N        0.72040    0.66270    0.08070    1.000
    N6       N        0.77960    0.16270    0.41930    1.000
    N7       N        0.68250    0.40510    0.87180    1.000
    N8       N        0.81750    0.90510    0.62820    1.000
    O9       O        0.95650    0.95640    0.37580    1.000
    O10      O        0.77770    0.93593    0.39670    1.000
    O11      O        0.54350    0.45640    0.12420    1.000
    O12      O        0.72230    0.43593    0.10330    1.000
    O13      O        0.81866    0.13287    0.65796    1.000
    O14      O        0.60750    0.10480    0.57550    1.000
    O15      O        0.68134    0.63287    0.84204    1.000
    O16      O        0.89250    0.60480    0.92450    1.000
