data_functionalizedCrystal
_audit_creation_method	'EQeq! by Chris Wilmer'
_symmetry_space_group_name_H-M	'P1'
_symmetry_Int_Tables_number	1
_symmetry_cell_setting	triclinic
loop_
_symmetry_equiv_pos_as_xyz
  x,y,z
_cell_length_a	13.809
_cell_length_b	13.809
_cell_length_c	14.836
_cell_angle_alpha	90
_cell_angle_beta	90
_cell_angle_gamma	120
loop_
_atom_site_label
_atom_site_type_symbol
_atom_site_fract_x
_atom_site_fract_y
_atom_site_fract_z
_atom_site_charge
Mof_Al	Al	0.9969	0.2256	0.1034	7.11
Mof_P 	P 	0.9965	0.2245	0.8912	1.922
Mof_O 	O 	0.996	0.2551	0.9909	-2.3
Mof_O 	O 	0.8838	0.1227	0.8646	-2.221
Mof_O 	O 	0.0892	0.1956	0.8729	-2.375
Mof_O 	O 	0.014	0.3238	0.8322	-2.253
Mof_Al	Al	0.66357	0.55893	0.43673	7.372
Mof_P 	P 	0.66317	0.55783	0.22453	1.907
Mof_O 	O 	0.66267	0.58843	0.32423	-2.392
Mof_O 	O 	0.55047	0.45603	0.19793	-2.274
Mof_O 	O 	0.75587	0.52893	0.20623	-2.368
Mof_O 	O 	0.68067	0.65713	0.16553	-2.236
Mof_Al	Al	0.33023	0.89227	0.77007	7.358
Mof_P 	P 	0.32983	0.89117	0.55787	1.907
Mof_O 	O 	0.32933	0.92177	0.65757	-2.39
Mof_O 	O 	0.21713	0.78937	0.53127	-2.273
Mof_O 	O 	0.42253	0.86227	0.53957	-2.366
Mof_O 	O 	0.34733	0.99047	0.49887	-2.234
Mof_Al	Al	0.7744	0.7713	0.1034	7.363
Mof_P 	P 	0.7755	0.772	0.8912	1.887
Mof_O 	O 	0.7449	0.7409	0.9909	-2.385
Mof_O 	O 	0.8773	0.7611	0.8646	-2.205
Mof_O 	O 	0.8044	0.8936	0.8729	-2.334
Mof_O 	O 	0.6762	0.6902	0.8322	-2.232
Mof_Al	Al	0.44107	0.10463	0.43673	7.369
Mof_P 	P 	0.44217	0.10533	0.22453	1.9
Mof_O 	O 	0.41157	0.07423	0.32423	-2.391
Mof_O 	O 	0.54397	0.09443	0.19793	-2.275
Mof_O 	O 	0.47107	0.22693	0.20623	-2.365
Mof_O 	O 	0.34287	0.02353	0.16553	-2.212
Mof_Al	Al	0.10773	0.43797	0.77007	7.362
Mof_P 	P 	0.10883	0.43867	0.55787	1.907
Mof_O 	O 	0.07823	0.40757	0.65757	-2.391
Mof_O 	O 	0.21063	0.42777	0.53127	-2.275
Mof_O 	O 	0.13773	0.56027	0.53957	-2.366
Mof_O 	O 	0.00953	0.35687	0.49887	-2.235
Mof_Al	Al	0.2287	0.0031	0.1034	7.227
Mof_P 	P 	0.228	0.0035	0.8912	1.92
Mof_O 	O 	0.2591	0.004	0.9909	-2.347
Mof_O 	O 	0.2389	0.1162	0.8646	-2.269
Mof_O 	O 	0.1064	0.9108	0.8729	-2.335
Mof_O 	O 	0.3098	0.986	0.8322	-2.252
Mof_Al	Al	0.89537	0.33643	0.43673	7.369
Mof_P 	P 	0.89467	0.33683	0.22453	1.894
Mof_O 	O 	0.92577	0.33733	0.32423	-2.39
Mof_O 	O 	0.90557	0.44953	0.19793	-2.276
Mof_O 	O 	0.77307	0.24413	0.20623	-2.364
Mof_O 	O 	0.97647	0.31933	0.16553	-2.19
Mof_Al	Al	0.56203	0.66977	0.77007	7.361
Mof_P 	P 	0.56133	0.67017	0.55787	1.908
Mof_O 	O 	0.59243	0.67067	0.65757	-2.389
Mof_O 	O 	0.57223	0.78287	0.53127	-2.274
Mof_O 	O 	0.43973	0.57747	0.53957	-2.368
Mof_O 	O 	0.64313	0.65267	0.49887	-2.238
Mof_Al	Al	0.0031	0.7744	0.8966	7.109
Mof_P 	P 	0.0035	0.7755	0.1088	1.921
Mof_O 	O 	0.004	0.7449	0.0091	-2.301
Mof_O 	O 	0.1162	0.8773	0.1354	-2.222
Mof_O 	O 	0.9108	0.8044	0.1271	-2.376
Mof_O 	O 	0.986	0.6762	0.1678	-2.254
Mof_Al	Al	0.66977	0.10773	0.22993	7.358
Mof_P 	P 	0.67017	0.10883	0.44213	1.907
Mof_O 	O 	0.67067	0.07823	0.34243	-2.39
Mof_O 	O 	0.78287	0.21063	0.46873	-2.273
Mof_O 	O 	0.57747	0.13773	0.46043	-2.366
Mof_O 	O 	0.65267	0.00953	0.50113	-2.234
Mof_Al	Al	0.33643	0.44107	0.56327	7.372
Mof_P 	P 	0.33683	0.44217	0.77547	1.907
Mof_O 	O 	0.33733	0.41157	0.67577	-2.392
Mof_O 	O 	0.44953	0.54397	0.80207	-2.274
Mof_O 	O 	0.24413	0.47107	0.79377	-2.368
Mof_O 	O 	0.31933	0.34287	0.83447	-2.236
Mof_Al	Al	0.2256	0.2287	0.8966	7.363
Mof_P 	P 	0.2245	0.228	0.1088	1.887
Mof_O 	O 	0.2551	0.2591	0.0091	-2.385
Mof_O 	O 	0.1227	0.2389	0.1354	-2.205
Mof_O 	O 	0.1956	0.1064	0.1271	-2.334
Mof_O 	O 	0.3238	0.3098	0.1678	-2.232
Mof_Al	Al	0.89227	0.56203	0.22993	7.362
Mof_P 	P 	0.89117	0.56133	0.44213	1.907
Mof_O 	O 	0.92177	0.59243	0.34243	-2.391
Mof_O 	O 	0.78937	0.57223	0.46873	-2.275
Mof_O 	O 	0.86227	0.43973	0.46043	-2.366
Mof_O 	O 	0.99047	0.64313	0.50113	-2.235
Mof_Al	Al	0.55893	0.89537	0.56327	7.369
Mof_P 	P 	0.55783	0.89467	0.77547	1.9
Mof_O 	O 	0.58843	0.92577	0.67577	-2.391
Mof_O 	O 	0.45603	0.90557	0.80207	-2.275
Mof_O 	O 	0.52893	0.77307	0.79377	-2.365
Mof_O 	O 	0.65713	0.97647	0.83447	-2.212
Mof_Al	Al	0.7713	0.9969	0.8966	7.227
Mof_P 	P 	0.772	0.9965	0.1088	1.92
Mof_O 	O 	0.7409	0.996	0.0091	-2.347
Mof_O 	O 	0.7611	0.8838	0.1354	-2.269
Mof_O 	O 	0.8936	0.0892	0.1271	-2.335
Mof_O 	O 	0.6902	0.014	0.1678	-2.252
Mof_Al	Al	0.43797	0.33023	0.22993	7.361
Mof_P 	P 	0.43867	0.32983	0.44213	1.908
Mof_O 	O 	0.40757	0.32933	0.34243	-2.389
Mof_O 	O 	0.42777	0.21713	0.46873	-2.274
Mof_O 	O 	0.56027	0.42253	0.46043	-2.368
Mof_O 	O 	0.35687	0.34733	0.50113	-2.238
Mof_Al	Al	0.10463	0.66357	0.56327	7.369
Mof_P 	P 	0.10533	0.66317	0.77547	1.894
Mof_O 	O 	0.07423	0.66267	0.67577	-2.39
Mof_O 	O 	0.09443	0.55047	0.80207	-2.276
Mof_O 	O 	0.22693	0.75587	0.79377	-2.364
Mof_O 	O 	0.02353	0.68067	0.83447	-2.19
_end
