data_functionalizedCrystal
_audit_creation_method	'EQeq! by Chris Wilmer'
_symmetry_space_group_name_H-M	'P1'
_symmetry_Int_Tables_number	1
_symmetry_cell_setting	triclinic
loop_
_symmetry_equiv_pos_as_xyz
  x,y,z
_cell_length_a	18.8984
_cell_length_b	17.7031
_cell_length_c	14.4754
_cell_angle_alpha	90
_cell_angle_beta	96.602
_cell_angle_gamma	90
loop_
_atom_site_label
_atom_site_type_symbol
_atom_site_fract_x
_atom_site_fract_y
_atom_site_fract_z
_atom_site_charge
Mof_Zn	Zn	0.29021	0.24716	0.07397	1.224
Mof_Zn	Zn	0.16559	0.31171	0.88314	1.236
Mof_O 	O 	0.9015	0.3344	0.2297	-0.412
Mof_O 	O 	0.9653	0.323	0.1157	-0.317
Mof_O 	O 	0.25392	0.3114	0.8197	-0.426
Mof_O 	O 	0.3235	0.3064	0.9556	-0.423
Mof_O 	O 	0.6269	0.277	0.8436	-0.451
Mof_O 	O 	0.5706	0.1929	0.9208	-0.284
Mof_O 	O 	0.1822	0.4024	0.963	-0.43
Mof_O 	O 	0.21228	0.3221	0.0787	-0.494
Mof_O 	O 	0.2435	0.6662	0.0086	-0.517
Mof_O 	O 	0.3412	0.7002	0.0973	-0.474
Mof_N 	N 	0.4126	0.4174	0.4503	-0.145
Mof_N 	N 	0.3225	0.3623	0.5326	-0.159
Mof_N 	N 	0.2927	0.4128	0.3784	-0.171
Mof_N 	N 	0.4414	0.372	0.596	-0.133
Mof_N 	N 	0.3809	0.4697	0.3099	-0.135
Mof_N 	N 	0.2084	0.3534	0.4635	-0.152
Mof_C 	C 	0.1499	0.3525	0.3943	0.212
Mof_C 	C 	0.1541	0.3502	0.3006	-0.224
Mof_H 	H 	0.1983	0.3506	0.2784	0.122
Mof_C 	C 	0.0933	0.3474	0.2393	0.129
Mof_H 	H 	0.0978	0.349	0.1761	0.016
Mof_C 	C 	0.0276	0.3425	0.2653	-0.157
Mof_C 	C 	0.0213	0.3555	0.3634	0.116
Mof_H 	H 	0.9773	0.3619	0.3852	0.007
Mof_C 	C 	0.0834	0.3577	0.4215	-0.217
Mof_H 	H 	0.0801	0.3631	0.4848	0.121
Mof_C 	C 	0.9621	0.3336	0.2003	0.348
Mof_C 	C 	0.4378	0.3382	0.6834	0.132
Mof_C 	C 	0.3772	0.3369	0.7282	-0.095
Mof_H 	H 	0.3348	0.3565	0.6988	0.098
Mof_C 	C 	0.3792	0.3059	0.819	-0.037
Mof_C 	C 	0.4412	0.2738	0.8604	-0.022
Mof_H 	H 	0.442	0.2503	0.918	0.072
Mof_C 	C 	0.5017	0.2764	0.8168	-0.024
Mof_C 	C 	0.5009	0.3102	0.7274	-0.097
Mof_H 	H 	0.5425	0.3134	0.699	0.095
Mof_C 	C 	0.314	0.3063	0.8684	0.353
Mof_C 	C 	0.571	0.2466	0.8637	0.312
Mof_C 	C 	0.3369	0.4879	0.2243	0.1
Mof_C 	C 	0.2951	0.4311	0.1788	-0.054
Mof_H 	H 	0.2945	0.3827	0.2039	0.056
Mof_C 	C 	0.2543	0.4482	0.0954	-0.086
Mof_C 	C 	0.2542	0.5202	0.0585	0.035
Mof_H 	H 	0.226	0.5315	0.0033	0.051
Mof_C 	C 	0.2973	0.5762	0.1058	-0.093
Mof_C 	C 	0.3384	0.5585	0.1888	-0.053
Mof_H 	H 	0.367	0.5953	0.2201	0.077
Mof_C 	C 	0.213	0.3874	0.0441	0.355
Mof_C 	C 	0.2943	0.6538	0.0665	0.438
Mof_C 	C 	0.278	0.3766	0.4551	0.186
Mof_C 	C 	0.3881	0.3857	0.5249	0.19
Mof_C 	C 	0.3597	0.4315	0.3807	0.196
Mof_Zn	Zn	0.79021	0.74716	0.07397	1.224
Mof_Zn	Zn	0.66559	0.81171	0.88314	1.236
Mof_O 	O 	0.4015	0.8344	0.2297	-0.412
Mof_O 	O 	0.4653	0.823	0.1157	-0.317
Mof_O 	O 	0.75392	0.8114	0.8197	-0.427
Mof_O 	O 	0.8235	0.8064	0.9556	-0.424
Mof_O 	O 	0.1269	0.777	0.8436	-0.451
Mof_O 	O 	0.0706	0.6929	0.9208	-0.283
Mof_O 	O 	0.6822	0.9024	0.963	-0.427
Mof_O 	O 	0.71228	0.8221	0.0787	-0.492
Mof_O 	O 	0.7435	0.1662	0.0086	-0.517
Mof_O 	O 	0.8412	0.2002	0.0973	-0.473
Mof_N 	N 	0.9126	0.9174	0.4503	-0.145
Mof_N 	N 	0.8225	0.8623	0.5326	-0.159
Mof_N 	N 	0.7927	0.9128	0.3784	-0.171
Mof_N 	N 	0.9414	0.872	0.596	-0.133
Mof_N 	N 	0.8809	0.9697	0.3099	-0.137
Mof_N 	N 	0.7084	0.8534	0.4635	-0.152
Mof_C 	C 	0.6499	0.8525	0.3943	0.212
Mof_C 	C 	0.6541	0.8502	0.3006	-0.223
Mof_H 	H 	0.6983	0.8506	0.2784	0.122
Mof_C 	C 	0.5933	0.8474	0.2393	0.13
Mof_H 	H 	0.5978	0.849	0.1761	0.016
Mof_C 	C 	0.5276	0.8425	0.2653	-0.156
Mof_C 	C 	0.5213	0.8555	0.3634	0.116
Mof_H 	H 	0.4773	0.8619	0.3852	0.008
Mof_C 	C 	0.5834	0.8577	0.4215	-0.217
Mof_H 	H 	0.5801	0.8631	0.4848	0.122
Mof_C 	C 	0.4621	0.8336	0.2003	0.348
Mof_C 	C 	0.9378	0.8382	0.6834	0.133
Mof_C 	C 	0.8772	0.8369	0.7282	-0.095
Mof_H 	H 	0.8348	0.8565	0.6988	0.099
Mof_C 	C 	0.8792	0.8059	0.819	-0.036
Mof_C 	C 	0.9412	0.7738	0.8604	-0.022
Mof_H 	H 	0.942	0.7503	0.918	0.073
Mof_C 	C 	0.0017	0.7764	0.8168	-0.023
Mof_C 	C 	0.0009	0.8102	0.7274	-0.097
Mof_H 	H 	0.0425	0.8134	0.699	0.096
Mof_C 	C 	0.814	0.8063	0.8684	0.353
Mof_C 	C 	0.071	0.7466	0.8637	0.312
Mof_C 	C 	0.8369	0.9879	0.2243	0.118
Mof_C 	C 	0.7951	0.9311	0.1788	-0.068
Mof_H 	H 	0.7945	0.8827	0.2039	0.061
Mof_C 	C 	0.7543	0.9482	0.0954	-0.068
Mof_C 	C 	0.7542	0.0202	0.0585	0.014
Mof_H 	H 	0.726	0.0315	0.0033	0.056
Mof_C 	C 	0.7973	0.0762	0.1058	-0.08
Mof_C 	C 	0.8384	0.0585	0.1888	-0.075
Mof_H 	H 	0.867	0.0953	0.2201	0.082
Mof_C 	C 	0.713	0.8874	0.0441	0.349
Mof_C 	C 	0.7943	0.1538	0.0665	0.432
Mof_C 	C 	0.778	0.8766	0.4551	0.187
Mof_C 	C 	0.8881	0.8857	0.5249	0.191
Mof_C 	C 	0.8597	0.9315	0.3807	0.198
Mof_Zn	Zn	0.70979	0.24716	0.92603	1.223
Mof_Zn	Zn	0.83441	0.31171	0.11686	1.235
Mof_O 	O 	0.0985	0.3344	0.7703	-0.413
Mof_O 	O 	0.0347	0.323	0.8843	-0.318
Mof_O 	O 	0.74608	0.3114	0.1803	-0.427
Mof_O 	O 	0.6765	0.3064	0.0444	-0.424
Mof_O 	O 	0.3731	0.277	0.1564	-0.451
Mof_O 	O 	0.4294	0.1929	0.0792	-0.284
Mof_O 	O 	0.8178	0.4024	0.037	-0.43
Mof_O 	O 	0.78772	0.3221	0.9213	-0.494
Mof_O 	O 	0.7565	0.6662	0.9914	-0.517
Mof_O 	O 	0.6588	0.7002	0.9027	-0.474
Mof_N 	N 	0.5874	0.4174	0.5497	-0.145
Mof_N 	N 	0.6775	0.3623	0.4674	-0.159
Mof_N 	N 	0.7073	0.4128	0.6216	-0.171
Mof_N 	N 	0.5586	0.372	0.404	-0.133
Mof_N 	N 	0.6191	0.4697	0.6901	-0.135
Mof_N 	N 	0.7916	0.3534	0.5365	-0.152
Mof_C 	C 	0.8501	0.3525	0.6057	0.212
Mof_C 	C 	0.8459	0.3502	0.6994	-0.224
Mof_H 	H 	0.8017	0.3506	0.7216	0.122
Mof_C 	C 	0.9067	0.3474	0.7607	0.129
Mof_H 	H 	0.9022	0.349	0.8239	0.016
Mof_C 	C 	0.9724	0.3425	0.7347	-0.157
Mof_C 	C 	0.9787	0.3555	0.6366	0.116
Mof_H 	H 	0.0227	0.3619	0.6148	0.007
Mof_C 	C 	0.9166	0.3577	0.5785	-0.217
Mof_H 	H 	0.9199	0.3631	0.5152	0.121
Mof_C 	C 	0.0379	0.3336	0.7997	0.348
Mof_C 	C 	0.5622	0.3382	0.3166	0.132
Mof_C 	C 	0.6228	0.3369	0.2718	-0.095
Mof_H 	H 	0.6652	0.3565	0.3012	0.098
Mof_C 	C 	0.6208	0.3059	0.181	-0.037
Mof_C 	C 	0.5588	0.2738	0.1396	-0.022
Mof_H 	H 	0.558	0.2503	0.082	0.072
Mof_C 	C 	0.4983	0.2764	0.1832	-0.024
Mof_C 	C 	0.4991	0.3102	0.2726	-0.097
Mof_H 	H 	0.4575	0.3134	0.301	0.095
Mof_C 	C 	0.686	0.3063	0.1316	0.353
Mof_C 	C 	0.429	0.2466	0.1363	0.312
Mof_C 	C 	0.6631	0.4879	0.7757	0.1
Mof_C 	C 	0.7049	0.4311	0.8212	-0.054
Mof_H 	H 	0.7055	0.3827	0.7961	0.056
Mof_C 	C 	0.7457	0.4482	0.9046	-0.086
Mof_C 	C 	0.7458	0.5202	0.9415	0.035
Mof_H 	H 	0.774	0.5315	0.9967	0.051
Mof_C 	C 	0.7027	0.5762	0.8942	-0.093
Mof_C 	C 	0.6616	0.5585	0.8112	-0.053
Mof_H 	H 	0.633	0.5953	0.7799	0.077
Mof_C 	C 	0.787	0.3874	0.9559	0.355
Mof_C 	C 	0.7057	0.6538	0.9335	0.438
Mof_C 	C 	0.722	0.3766	0.5449	0.186
Mof_C 	C 	0.6119	0.3857	0.4751	0.19
Mof_C 	C 	0.6403	0.4315	0.6193	0.196
Mof_Zn	Zn	0.20979	0.74716	0.92603	1.224
Mof_Zn	Zn	0.33441	0.81171	0.11686	1.236
Mof_O 	O 	0.5985	0.8344	0.7703	-0.412
Mof_O 	O 	0.5347	0.823	0.8843	-0.317
Mof_O 	O 	0.24608	0.8114	0.1803	-0.427
Mof_O 	O 	0.1765	0.8064	0.0444	-0.424
Mof_O 	O 	0.8731	0.777	0.1564	-0.451
Mof_O 	O 	0.9294	0.6929	0.0792	-0.283
Mof_O 	O 	0.3178	0.9024	0.037	-0.427
Mof_O 	O 	0.28772	0.8221	0.9213	-0.492
Mof_O 	O 	0.2565	0.1662	0.9914	-0.517
Mof_O 	O 	0.1588	0.2002	0.9027	-0.473
Mof_N 	N 	0.0874	0.9174	0.5497	-0.145
Mof_N 	N 	0.1775	0.8623	0.4674	-0.159
Mof_N 	N 	0.2073	0.9128	0.6216	-0.171
Mof_N 	N 	0.0586	0.872	0.404	-0.133
Mof_N 	N 	0.1191	0.9697	0.6901	-0.137
Mof_N 	N 	0.2916	0.8534	0.5365	-0.152
Mof_C 	C 	0.3501	0.8525	0.6057	0.212
Mof_C 	C 	0.3459	0.8502	0.6994	-0.223
Mof_H 	H 	0.3017	0.8506	0.7216	0.122
Mof_C 	C 	0.4067	0.8474	0.7607	0.13
Mof_H 	H 	0.4022	0.849	0.8239	0.016
Mof_C 	C 	0.4724	0.8425	0.7347	-0.156
Mof_C 	C 	0.4787	0.8555	0.6366	0.116
Mof_H 	H 	0.5227	0.8619	0.6148	0.008
Mof_C 	C 	0.4166	0.8577	0.5785	-0.217
Mof_H 	H 	0.4199	0.8631	0.5152	0.122
Mof_C 	C 	0.5379	0.8336	0.7997	0.348
Mof_C 	C 	0.0622	0.8382	0.3166	0.133
Mof_C 	C 	0.1228	0.8369	0.2718	-0.095
Mof_H 	H 	0.1652	0.8565	0.3012	0.099
Mof_C 	C 	0.1208	0.8059	0.181	-0.036
Mof_C 	C 	0.0588	0.7738	0.1396	-0.022
Mof_H 	H 	0.058	0.7503	0.082	0.073
Mof_C 	C 	0.9983	0.7764	0.1832	-0.023
Mof_C 	C 	0.9991	0.8102	0.2726	-0.097
Mof_H 	H 	0.9575	0.8134	0.301	0.096
Mof_C 	C 	0.186	0.8063	0.1316	0.353
Mof_C 	C 	0.929	0.7466	0.1363	0.312
Mof_C 	C 	0.1631	0.9879	0.7757	0.118
Mof_C 	C 	0.2049	0.9311	0.8212	-0.068
Mof_H 	H 	0.2055	0.8827	0.7961	0.061
Mof_C 	C 	0.2457	0.9482	0.9046	-0.068
Mof_C 	C 	0.2458	0.0202	0.9415	0.014
Mof_H 	H 	0.274	0.0315	0.9967	0.056
Mof_C 	C 	0.2027	0.0762	0.8942	-0.08
Mof_C 	C 	0.1616	0.0585	0.8112	-0.075
Mof_H 	H 	0.133	0.0953	0.7799	0.082
Mof_C 	C 	0.287	0.8874	0.9559	0.349
Mof_C 	C 	0.2057	0.1538	0.9335	0.432
Mof_C 	C 	0.222	0.8766	0.5449	0.187
Mof_C 	C 	0.1119	0.8857	0.4751	0.191
Mof_C 	C 	0.1403	0.9315	0.6193	0.198
_end
