# CIF file generated by openbabel 3.1.0, see https://openbabel.org
data_I
_chemical_name_common 'image0'
_cell_length_a 16.039
_cell_length_b 17.851
_cell_length_c 11.558
_cell_angle_alpha 90
_cell_angle_beta 90
_cell_angle_gamma 90
_space_group_name_H-M_alt 'P 1'
_space_group_name_Hall 'P 1'
loop_
    _symmetry_equiv_pos_as_xyz
    x,y,z
loop_
    _atom_site_label
    _atom_site_type_symbol
    _atom_site_fract_x
    _atom_site_fract_y
    _atom_site_fract_z
    _atom_site_occupancy
    C1       C        0.20010    0.39240    0.82150    1.000
    C2       C        0.46020    0.45060    0.25540    1.000
    H1       H        0.43011    0.41459    0.21497    1.000
    C3       C        0.45920    0.44760    0.37160    1.000
    H2       H        0.43011    0.40895    0.40752    1.000
    C4       C        0.44350    0.13190    0.25530    1.000
    H3       H        0.47336    0.09552    0.21539    1.000
    C5       C        0.44960    0.13160    0.37150    1.000
    H4       H        0.48289    0.09617    0.40807    1.000
    C6       C        0.40720    0.18320    0.43570    1.000
    C7       C        0.36580    0.23600    0.37500    1.000
    H5       H        0.33909    0.27500    0.41345    1.000
    C8       C        0.36310    0.23200    0.25590    1.000
    H6       H        0.33403    0.26887    0.21587    1.000
    N1       N        0.20310    0.39160    0.72170    1.000
    N2       N        0.40040    0.17770    0.19490    1.000
    C9       C        0.79990    0.60760    0.82150    1.000
    C10      C        0.53980    0.54940    0.25540    1.000
    H7       H        0.56989    0.58541    0.21497    1.000
    C11      C        0.54080    0.55240    0.37160    1.000
    H8       H        0.56989    0.59105    0.40752    1.000
    C12      C        0.55650    0.86810    0.25530    1.000
    H9       H        0.52664    0.90448    0.21539    1.000
    C13      C        0.55040    0.86840    0.37150    1.000
    H10      H        0.51711    0.90383    0.40807    1.000
    C14      C        0.59280    0.81680    0.43570    1.000
    C15      C        0.63420    0.76400    0.37500    1.000
    H11      H        0.66091    0.72500    0.41345    1.000
    C16      C        0.63690    0.76800    0.25590    1.000
    H12      H        0.66597    0.73113    0.21587    1.000
    N3       N        0.79690    0.60840    0.72170    1.000
    N4       N        0.59960    0.82230    0.19490    1.000
    C17      C        0.29990    0.89240    0.17850    1.000
    C18      C        0.03980    0.95060    0.74460    1.000
    H13      H        0.06989    0.91459    0.78503    1.000
    C19      C        0.04080    0.94760    0.62840    1.000
    H14      H        0.06989    0.90895    0.59248    1.000
    C20      C        0.05650    0.63190    0.74470    1.000
    H15      H        0.02664    0.59552    0.78461    1.000
    C21      C        0.05040    0.63160    0.62850    1.000
    H16      H        0.01711    0.59617    0.59193    1.000
    C22      C        0.09280    0.68320    0.56430    1.000
    C23      C        0.13420    0.73600    0.62500    1.000
    H17      H        0.16091    0.77500    0.58655    1.000
    C24      C        0.13690    0.73200    0.74410    1.000
    H18      H        0.16597    0.76887    0.78413    1.000
    N5       N        0.29690    0.89160    0.27830    1.000
    N6       N        0.09960    0.67770    0.80510    1.000
    C25      C        0.70010    0.10760    0.17850    1.000
    C26      C        0.96020    0.04940    0.74460    1.000
    H19      H        0.93011    0.08541    0.78503    1.000
    C27      C        0.95920    0.05240    0.62840    1.000
    H20      H        0.93011    0.09105    0.59248    1.000
    C28      C        0.94350    0.36810    0.74470    1.000
    H21      H        0.97336    0.40448    0.78461    1.000
    C29      C        0.94960    0.36840    0.62850    1.000
    H22      H        0.98289    0.40383    0.59193    1.000
    C30      C        0.90720    0.31680    0.56430    1.000
    C31      C        0.86580    0.26400    0.62500    1.000
    H23      H        0.83909    0.22500    0.58655    1.000
    C32      C        0.86310    0.26800    0.74410    1.000
    H24      H        0.83403    0.23113    0.78413    1.000
    N7       N        0.70310    0.10840    0.27830    1.000
    N8       N        0.90040    0.32230    0.80510    1.000
    C33      C        0.79990    0.60760    0.17850    1.000
    C34      C        0.53980    0.54940    0.74460    1.000
    H25      H        0.56989    0.58541    0.78503    1.000
    C35      C        0.54080    0.55240    0.62840    1.000
    H26      H        0.56989    0.59105    0.59248    1.000
    C36      C        0.55650    0.86810    0.74470    1.000
    H27      H        0.52664    0.90448    0.78461    1.000
    C37      C        0.55040    0.86840    0.62850    1.000
    H28      H        0.51711    0.90383    0.59193    1.000
    C38      C        0.59280    0.81680    0.56430    1.000
    C39      C        0.63420    0.76400    0.62500    1.000
    H29      H        0.66091    0.72500    0.58655    1.000
    C40      C        0.63690    0.76800    0.74410    1.000
    H30      H        0.66597    0.73113    0.78413    1.000
    N9       N        0.79690    0.60840    0.27830    1.000
    N10      N        0.59960    0.82230    0.80510    1.000
    C41      C        0.20010    0.39240    0.17850    1.000
    C42      C        0.46020    0.45060    0.74460    1.000
    H31      H        0.43011    0.41459    0.78503    1.000
    C43      C        0.45920    0.44760    0.62840    1.000
    H32      H        0.43011    0.40895    0.59248    1.000
    C44      C        0.44350    0.13190    0.74470    1.000
    H33      H        0.47336    0.09552    0.78461    1.000
    C45      C        0.44960    0.13160    0.62850    1.000
    H34      H        0.48289    0.09617    0.59193    1.000
    C46      C        0.40720    0.18320    0.56430    1.000
    C47      C        0.36580    0.23600    0.62500    1.000
    H35      H        0.33909    0.27500    0.58655    1.000
    C48      C        0.36310    0.23200    0.74410    1.000
    H36      H        0.33403    0.26887    0.78413    1.000
    N11      N        0.20310    0.39160    0.27830    1.000
    N12      N        0.40040    0.17770    0.80510    1.000
    C49      C        0.70010    0.10760    0.82150    1.000
    C50      C        0.96020    0.04940    0.25540    1.000
    H37      H        0.93011    0.08541    0.21497    1.000
    C51      C        0.95920    0.05240    0.37160    1.000
    H38      H        0.93011    0.09105    0.40752    1.000
    C52      C        0.94350    0.36810    0.25530    1.000
    H39      H        0.97336    0.40448    0.21539    1.000
    C53      C        0.94960    0.36840    0.37150    1.000
    H40      H        0.98289    0.40383    0.40807    1.000
    C54      C        0.90720    0.31680    0.43570    1.000
    C55      C        0.86580    0.26400    0.37500    1.000
    H41      H        0.83909    0.22500    0.41345    1.000
    C56      C        0.86310    0.26800    0.25590    1.000
    H42      H        0.83403    0.23113    0.21587    1.000
    N13      N        0.70310    0.10840    0.72170    1.000
    N14      N        0.90040    0.32230    0.19490    1.000
    C57      C        0.29990    0.89240    0.82150    1.000
    C58      C        0.03980    0.95060    0.25540    1.000
    H43      H        0.06989    0.91459    0.21497    1.000
    C59      C        0.04080    0.94760    0.37160    1.000
    H44      H        0.06989    0.90895    0.40752    1.000
    C60      C        0.05650    0.63190    0.25530    1.000
    H45      H        0.02664    0.59552    0.21539    1.000
    C61      C        0.05040    0.63160    0.37150    1.000
    H46      H        0.01711    0.59617    0.40807    1.000
    C62      C        0.09280    0.68320    0.43570    1.000
    C63      C        0.13420    0.73600    0.37500    1.000
    H47      H        0.16091    0.77500    0.41345    1.000
    C64      C        0.13690    0.73200    0.25590    1.000
    H48      H        0.16597    0.76887    0.21587    1.000
    N15      N        0.29690    0.89160    0.72170    1.000
    N16      N        0.09960    0.67770    0.19490    1.000
    C65      C        0.08590    0.34830    0.00000    1.000
    C66      C        0.15690    0.49820    0.00000    1.000
    C67      C        0.25190    0.28950    0.00000    1.000
    C68      C        0.31590    0.43160    0.00000    1.000
    N17      N        0.02020    0.32200    0.00000    1.000
    N18      N        0.13080    0.55710    0.00000    1.000
    N19      N        0.29330    0.23560    0.00000    1.000
    N20      N        0.38190    0.44720    0.00000    1.000
    Mn1      Mn       0.19965    0.39083    0.00000    1.000
    Mn2      Mn       0.39321    0.16858    0.00000    1.000
    C69      C        0.91410    0.65170    0.00000    1.000
    C70      C        0.84310    0.50180    0.00000    1.000
    C71      C        0.74810    0.71050    0.00000    1.000
    C72      C        0.68410    0.56840    0.00000    1.000
    N21      N        0.97980    0.67800    0.00000    1.000
    N22      N        0.86920    0.44290    0.00000    1.000
    N23      N        0.70670    0.76440    0.00000    1.000
    N24      N        0.61810    0.55280    0.00000    1.000
    Mn3      Mn       0.80035    0.60917    0.00000    1.000
    Mn4      Mn       0.60679    0.83142    0.00000    1.000
    C73      C        0.41410    0.84830    0.00000    1.000
    C74      C        0.34310    0.99820    0.00000    1.000
    C75      C        0.24810    0.78950    0.00000    1.000
    C76      C        0.18410    0.93160    0.00000    1.000
    N25      N        0.47980    0.82200    0.00000    1.000
    N26      N        0.36920    0.05710    0.00000    1.000
    N27      N        0.20670    0.73560    0.00000    1.000
    N28      N        0.11810    0.94720    0.00000    1.000
    Mn5      Mn       0.30035    0.89083    0.00000    1.000
    Mn6      Mn       0.10679    0.66858    0.00000    1.000
    C77      C        0.58590    0.15170    0.00000    1.000
    C78      C        0.65690    0.00180    0.00000    1.000
    C79      C        0.75190    0.21050    0.00000    1.000
    C80      C        0.81590    0.06840    0.00000    1.000
    N29      N        0.52020    0.17800    0.00000    1.000
    N30      N        0.63080    0.94290    0.00000    1.000
    N31      N        0.79330    0.26440    0.00000    1.000
    N32      N        0.88190    0.05280    0.00000    1.000
    Mn7      Mn       0.69965    0.10917    0.00000    1.000
    Mn8      Mn       0.89321    0.33142    0.00000    1.000
    C81      C        0.50000    0.50000    0.44020    1.000
    N33      N        0.50000    0.50000    0.19680    1.000
    C82      C        0.00000    0.00000    0.55980    1.000
    N34      N        0.00000    0.00000    0.80320    1.000
    C83      C        0.50000    0.50000    0.55980    1.000
    N35      N        0.50000    0.50000    0.80320    1.000
    C84      C        0.00000    0.00000    0.44020    1.000
    N36      N        0.00000    0.00000    0.19680    1.000
    Mn9      Mn       0.50000    0.50000    0.00000    1.000
    Mn10     Mn       0.00000    0.00000    0.00000    1.000
