# CIF file generated by openbabel 3.1.0, see https://openbabel.org
data_I
_chemical_name_common 'image0'
_cell_length_a 9.6896
_cell_length_b 9.6896
_cell_length_c 20.153
_cell_angle_alpha 90
_cell_angle_beta 90
_cell_angle_gamma 120
_space_group_name_H-M_alt 'P 1'
_space_group_name_Hall 'P 1'
loop_
    _symmetry_equiv_pos_as_xyz
    x,y,z
loop_
    _atom_site_label
    _atom_site_type_symbol
    _atom_site_fract_x
    _atom_site_fract_y
    _atom_site_fract_z
    _atom_site_occupancy
    Zn1      Zn       0.93674    0.50690    0.41598    1.000
    N1       N        0.34850    0.83150    0.51349    1.000
    N2       N        0.40900    0.81350    0.45329    1.000
    N3       N        0.14290    0.68250    0.44901    1.000
    N4       N        0.08820    0.74570    0.55686    1.000
    H1       H        0.98740    0.65340    0.56130    1.000
    H2       H        0.12000    0.78470    0.59860    1.000
    N5       N        0.21680    0.41990    0.28902    1.000
    N6       N        0.03150    0.42690    0.35025    1.000
    N7       N        0.96290    0.27590    0.32220    1.000
    N8       N        0.05930    0.15050    0.24970    1.000
    H3       H        0.95810    0.08360    0.22900    1.000
    H4       H        0.12490    0.16480    0.21470    1.000
    C1       C        0.19020    0.75120    0.50930    1.000
    C2       C        0.28290    0.72410    0.41780    1.000
    C3       C        0.29390    0.67810    0.34710    1.000
    H5       H        0.27450    0.74700    0.31680    1.000
    H6       H        0.40390    0.70010    0.33910    1.000
    C4       C        0.18100    0.50860    0.33010    1.000
    C5       C        0.07680    0.27860    0.28610    1.000
    Zn2      Zn       0.49310    0.42984    0.74931    1.000
    N9       N        0.16850    0.51700    0.84682    1.000
    N10      N        0.18650    0.59550    0.78662    1.000
    N11      N        0.31750    0.46040    0.78234    1.000
    N12      N        0.25430    0.34250    0.89019    1.000
    H7       H        0.34660    0.33400    0.89463    1.000
    H8       H        0.21530    0.33530    0.93193    1.000
    N13      N        0.58010    0.79690    0.62235    1.000
    N14      N        0.57310    0.60460    0.68358    1.000
    N15      N        0.72410    0.68700    0.65553    1.000
    N16      N        0.84950    0.90880    0.58303    1.000
    H9       H        0.91640    0.87450    0.56233    1.000
    H10      H        0.83520    0.96010    0.54803    1.000
    C6       C        0.24880    0.43900    0.84263    1.000
    C7       C        0.27590    0.55880    0.75113    1.000
    C8       C        0.32190    0.61580    0.68043    1.000
    H11      H        0.25300    0.52750    0.65013    1.000
    H12      H        0.29990    0.70380    0.67243    1.000
    C9       C        0.49140    0.67240    0.66343    1.000
    C10      C        0.72140    0.79820    0.61943    1.000
    Zn3      Zn       0.57016    0.06326    0.08265    1.000
    N17      N        0.48300    0.65150    0.18016    1.000
    N18      N        0.40450    0.59100    0.11996    1.000
    N19      N        0.53960    0.85710    0.11568    1.000
    N20      N        0.65750    0.91180    0.22353    1.000
    H13      H        0.66600    0.01260    0.22797    1.000
    H14      H        0.66470    0.88000    0.26527    1.000
    N21      N        0.20310    0.78320    0.95569    1.000
    N22      N        0.39540    0.96850    0.01692    1.000
    N23      N        0.31300    0.03710    0.98887    1.000
    N24      N        0.09120    0.94070    0.91637    1.000
    H15      H        0.12550    0.04190    0.89567    1.000
    H16      H        0.03990    0.87510    0.88137    1.000
    C11      C        0.56100    0.80980    0.17597    1.000
    C12      C        0.44120    0.71710    0.08447    1.000
    C13      C        0.38420    0.70610    0.01377    1.000
    H17      H        0.47250    0.72550    0.98347    1.000
    H18      H        0.29620    0.59610    0.00577    1.000
    C14      C        0.32760    0.81900    0.99677    1.000
    C15      C        0.20180    0.92320    0.95277    1.000
    Zn4      Zn       0.50690    0.93674    0.58402    1.000
    N25      N        0.83150    0.34850    0.48651    1.000
    N26      N        0.81350    0.40900    0.54671    1.000
    N27      N        0.68250    0.14290    0.55099    1.000
    N28      N        0.74570    0.08820    0.44314    1.000
    H19      H        0.65340    0.98740    0.43870    1.000
    H20      H        0.78470    0.12000    0.40140    1.000
    N29      N        0.41990    0.21680    0.71098    1.000
    N30      N        0.42690    0.03150    0.64975    1.000
    N31      N        0.27590    0.96290    0.67780    1.000
    N32      N        0.15050    0.05930    0.75030    1.000
    H21      H        0.08360    0.95810    0.77100    1.000
    H22      H        0.16480    0.12490    0.78530    1.000
    C16      C        0.75120    0.19020    0.49070    1.000
    C17      C        0.72410    0.28290    0.58220    1.000
    C18      C        0.67810    0.29390    0.65290    1.000
    H23      H        0.74700    0.27450    0.68320    1.000
    H24      H        0.70010    0.40390    0.66090    1.000
    C19      C        0.50860    0.18100    0.66990    1.000
    C20      C        0.27860    0.07680    0.71390    1.000
    Zn5      Zn       0.42984    0.49310    0.25069    1.000
    N33      N        0.51700    0.16850    0.15318    1.000
    N34      N        0.59550    0.18650    0.21338    1.000
    N35      N        0.46040    0.31750    0.21766    1.000
    N36      N        0.34250    0.25430    0.10981    1.000
    H25      H        0.33400    0.34660    0.10537    1.000
    H26      H        0.33530    0.21530    0.06807    1.000
    N37      N        0.79690    0.58010    0.37765    1.000
    N38      N        0.60460    0.57310    0.31642    1.000
    N39      N        0.68700    0.72410    0.34447    1.000
    N40      N        0.90880    0.84950    0.41697    1.000
    H27      H        0.87450    0.91640    0.43767    1.000
    H28      H        0.96010    0.83520    0.45197    1.000
    C21      C        0.43900    0.24880    0.15737    1.000
    C22      C        0.55880    0.27590    0.24887    1.000
    C23      C        0.61580    0.32190    0.31957    1.000
    H29      H        0.52750    0.25300    0.34987    1.000
    H30      H        0.70380    0.29990    0.32757    1.000
    C24      C        0.67240    0.49140    0.33657    1.000
    C25      C        0.79820    0.72140    0.38057    1.000
    Zn6      Zn       0.06326    0.57016    0.91735    1.000
    N41      N        0.65150    0.48300    0.81984    1.000
    N42      N        0.59100    0.40450    0.88004    1.000
    N43      N        0.85710    0.53960    0.88432    1.000
    N44      N        0.91180    0.65750    0.77647    1.000
    H31      H        0.01260    0.66600    0.77203    1.000
    H32      H        0.88000    0.66470    0.73473    1.000
    N45      N        0.78320    0.20310    0.04431    1.000
    N46      N        0.96850    0.39540    0.98308    1.000
    N47      N        0.03710    0.31300    0.01113    1.000
    N48      N        0.94070    0.09120    0.08363    1.000
    H33      H        0.04190    0.12550    0.10433    1.000
    H34      H        0.87510    0.03990    0.11863    1.000
    C26      C        0.80980    0.56100    0.82403    1.000
    C27      C        0.71710    0.44120    0.91553    1.000
    C28      C        0.70610    0.38420    0.98623    1.000
    H35      H        0.72550    0.47250    0.01653    1.000
    H36      H        0.59610    0.29620    0.99423    1.000
    C29      C        0.81900    0.32760    0.00323    1.000
    C30      C        0.92320    0.20180    0.04723    1.000
