data_functionalizedCrystal
_audit_creation_method	'EQeq! by Chris Wilmer'
_symmetry_space_group_name_H-M	'P1'
_symmetry_Int_Tables_number	1
_symmetry_cell_setting	triclinic
loop_
_symmetry_equiv_pos_as_xyz
  x,y,z
_cell_length_a	18.4059
_cell_length_b	18.7645
_cell_length_c	34.5211
_cell_angle_alpha	90
_cell_angle_beta	90
_cell_angle_gamma	90
loop_
_atom_site_label
_atom_site_type_symbol
_atom_site_fract_x
_atom_site_fract_y
_atom_site_fract_z
_atom_site_charge
Mof_Cu	Cu	0.88221	0.27105	0.96863	0.907
Mof_Cu	Cu	0.61843	0.22853	0.53168	0.893
Mof_Cu	Cu	0.54518	0.28958	0.47455	0.903
Mof_Cu	Cu	0.95555	0.21061	0.02575	0.901
Mof_O 	O 	0.8571	0.1885	0.0479	-0.453
Mof_O 	O 	0.558	0.877	0.4935	-0.408
Mof_O 	O 	0.3742	0.8267	0.94536	-0.393
Mof_O 	O 	0.1357	0.1896	0.5502	-0.393
Mof_O 	O 	0.4522	0.1949	0.9507	-0.413
Mof_O 	O 	0.2045	0.2457	0.50195	-0.389
Mof_O 	O 	0.4469	0.8723	0.99283	-0.415
Mof_O 	O 	0.5516	0.1968	0.44766	-0.394
Mof_O 	O 	0.4777	0.2139	0.05517	-0.406
Mof_O 	O 	0.4631	0.257	0.50574	-0.417
Mof_O 	O 	0.4013	0.1407	0.00095	-0.397
Mof_O 	O 	0.8053	0.2508	0.00361	-0.444
Mof_O 	O 	0.6203	0.8238	0.4469	-0.421
Mof_O 	O 	0.6031	0.1429	0.5009	-0.402
Mof_O 	O 	0.5245	0.2186	0.55738	-0.416
Mof_O 	O 	0.5397	0.2588	0.00455	-0.403
Mof_C 	C 	0.4677	0.2259	0.5377	0.361
Mof_C 	C 	0.713	0.0655	0.1579	-0.069
Mof_H 	H 	0.7409	0.0465	0.1379	0.049
Mof_C 	C 	0.6198	0.1128	0.2154	-0.053
Mof_C 	C 	0.7357	0.2	0.0542	-0.123
Mof_C 	C 	0.4117	0.0745	0.9443	-0.093
Mof_C 	C 	0.425	0.131	0.7497	0.091
Mof_C 	C 	0.3955	0.1782	0.5952	-0.03
Mof_H 	H 	0.4387	0.1739	0.609	0.047
Mof_C 	C 	0.3956	0.2124	0.5559	-0.081
Mof_C 	C 	0.6712	0.2215	0.0376	0.039
Mof_H 	H 	0.6707	0.2439	0.0136	0.044
Mof_C 	C 	0.6714	0.1593	0.1118	-0.029
Mof_C 	C 	0.5894	0.949	0.442	-0.082
Mof_C 	C 	0.669	0.0579	0.2242	0.012
Mof_C 	C 	0.6069	0.0185	0.3839	-0.001
Mof_C 	C 	0.67	0.1278	0.15	0.029
Mof_C 	C 	0.4126	0.8749	0.9615	0.344
Mof_C 	C 	0.5794	0.0695	0.3161	-0.063
Mof_H 	H 	0.5414	0.097	0.3257	0.04
Mof_C 	C 	0.7151	0.0307	0.1954	-0.057
Mof_H 	H 	0.7456	0.9922	0.2001	0.036
Mof_C 	C 	0.4101	0.0091	0.9631	0.029
Mof_H 	H 	0.4145	0.0075	0.9899	0.046
Mof_C 	C 	0.3972	0.0786	0.7789	0.005
Mof_C 	C 	0.3389	0.0337	0.7632	-0.026
Mof_C 	C 	0.6134	0.0179	0.3388	0.016
Mof_C 	C 	0.8062	0.2149	0.0351	0.442
Mof_C 	C 	0.2677	0.2015	0.5556	-0.049
Mof_C 	C 	0.5759	0.0089	0.4624	0.021
Mof_H 	H 	0.5654	0.006	0.4887	0.049
Mof_C 	C 	0.3364	0.0544	0.7205	-0.01
Mof_C 	C 	0.3342	0.1541	0.6103	-0.005
Mof_C 	C 	0.604	0.0777	0.2798	-0.046
Mof_C 	C 	0.6915	0.9824	0.2842	-0.061
Mof_H 	H 	0.7265	0.9532	0.2731	0.041
Mof_C 	C 	0.402	0.9451	0.9422	-0.083
Mof_C 	C 	0.379	0.1443	0.6793	-0.098
Mof_H 	H 	0.4082	0.1838	0.6744	0.058
Mof_C 	C 	0.6214	0.148	0.178	-0.064
Mof_H 	H 	0.5889	0.1848	0.1729	0.045
Mof_C 	C 	0.3972	0.0114	0.8818	-0.026
Mof_C 	C 	0.6042	0.9518	0.4015	-0.028
Mof_H 	H 	0.6118	0.9103	0.3872	0.048
Mof_C 	C 	0.5962	0.0788	0.4038	-0.031
Mof_H 	H 	0.6008	0.1226	0.3914	0.049
Mof_C 	C 	0.3336	0.2242	0.5383	0.011
Mof_H 	H 	0.3329	0.2475	0.5145	0.058
Mof_C 	C 	0.2657	0.1692	0.5907	-0.04
Mof_H 	H 	0.2216	0.157	0.602	0.051
Mof_C 	C 	0.1956	0.2118	0.5327	0.3
Mof_C 	C 	0.2872	0.0307	0.6918	-0.045
Mof_H 	H 	0.2558	0.9932	0.6972	0.026
Mof_C 	C 	0.3335	0.1159	0.6493	0.031
Mof_C 	C 	0.5796	0.2102	0.2633	-0.427
Mof_H 	H 	0.5579	0.2409	0.2439	0.144
Mof_H 	H 	0.5513	0.2157	0.2869	0.143
Mof_C 	C 	0.4155	0.2099	0.7615	-0.177
Mof_H 	H 	0.4466	0.2182	0.7837	0.073
Mof_H 	H 	0.4346	0.2386	0.7404	0.076
Mof_C 	C 	0.425	0.1411	0.9665	0.36
Mof_C 	C 	0.6026	0.2081	0.0589	-0.097
Mof_C 	C 	0.6046	0.1787	0.0925	0.004
Mof_H 	H 	0.5609	0.1694	0.105	0.039
Mof_C 	C 	0.6737	0.9795	0.3243	-0.064
Mof_H 	H 	0.7018	0.9521	0.3411	0.049
Mof_C 	C 	0.4116	0.0777	0.9043	-0.013
Mof_H 	H 	0.4203	0.1205	0.8916	0.042
Mof_C 	C 	0.6498	0.0356	0.2616	0.011
Mof_C 	C 	0.2853	0.0618	0.6569	-0.083
Mof_H 	H 	0.2521	0.0471	0.6382	0.052
Mof_C 	C 	0.3271	0.9722	0.8226	-0.098
Mof_H 	H 	0.3074	0.9341	0.8363	0.057
Mof_C 	C 	0.3901	0.9492	0.9029	-0.009
Mof_H 	H 	0.3765	0.9079	0.8898	0.046
Mof_C 	C 	0.4103	0.0717	0.819	-0.164
Mof_H 	H 	0.4429	0.103	0.8306	0.08
Mof_C 	C 	0.5709	0.1322	0.2494	0.218
Mof_C 	C 	0.3772	0.0211	0.8416	0.04
Mof_C 	C 	0.578	0.1437	0.4661	0.321
Mof_C 	C 	0.4901	0.123	0.2414	-0.525
Mof_H 	H 	0.4625	0.1384	0.2638	0.173
Mof_H 	H 	0.4763	0.1528	0.2196	0.18
Mof_C 	C 	0.5058	0.1161	0.7422	-0.337
Mof_H 	H 	0.531	0.127	0.7662	0.12
Mof_H 	H 	0.5216	0.1512	0.7234	0.12
Mof_C 	C 	0.3796	0.115	0.7133	0
Mof_C 	C 	0.5356	0.2327	0.0388	0.348
Mof_C 	C 	0.5775	0.076	0.4441	-0.072
Mof_C 	C 	0.3093	0.9825	0.7848	-0.038
Mof_H 	H 	0.275	0.9526	0.7736	0.024
Mof_C 	C 	0.4716	0.0459	0.2323	0.504
Mof_H 	H 	0.5141	0.0191	0.2414	-0.12
Mof_C 	C 	0.5357	0.0442	0.7283	0.283
Mof_H 	H 	0.504	0.003	0.7329	-0.058
Mof_C 	C 	0.5928	0.8775	0.4626	0.367
Mof_C 	C 	0.6134	0.0376	0.7448	-0.116
Mof_H 	H 	0.6368	0.0839	0.7453	0.046
Mof_H 	H 	0.6423	0.0059	0.7288	0.054
Mof_C 	C 	0.5624	0.0529	0.6868	-0.764
Mof_H 	H 	0.5814	0.0083	0.6777	0.248
Mof_H 	H 	0.5228	0.0676	0.6706	0.255
Mof_H 	H 	0.6	0.0884	0.6861	0.242
Mof_C 	C 	0.4089	0.0127	0.2536	-1.015
Mof_H 	H 	0.4125	0.0236	0.2807	0.319
Mof_H 	H 	0.3641	0.0314	0.2436	0.314
Mof_H 	H 	0.4099	0.962	0.2501	0.309
Mof_C 	C 	0.469	0.0307	0.1895	-0.389
Mof_H 	H 	0.516	0.009	0.1847	0.141
Mof_H 	H 	0.4345	0.9917	0.1879	0.125
Mof_C 	C 	0.3016	0.2022	0.8042	0.127
Mof_H 	H 	0.2543	0.225	0.8039	-0.009
Mof_H 	H 	0.3256	0.2206	0.8271	-0.009
Mof_C 	C 	0.3082	0.2404	0.731	-0.038
Mof_C 	C 	0.6561	0.2381	0.2715	0.35
Mof_H 	H 	0.6887	0.2177	0.252	-0.072
Mof_C 	C 	0.6885	0.2222	0.3113	-0.244
Mof_H 	H 	0.6958	0.1713	0.3142	0.106
Mof_H 	H 	0.7353	0.2455	0.3138	0.106
Mof_C 	C 	0.6576	0.3202	0.2668	-0.801
Mof_H 	H 	0.6377	0.3328	0.242	0.245
Mof_H 	H 	0.6293	0.3418	0.2869	0.249
Mof_H 	H 	0.7069	0.3368	0.2684	0.265
Mof_C 	C 	0.6384	0.2485	0.3419	-0.233
Mof_H 	H 	0.6587	0.2385	0.3669	0.103
Mof_H 	H 	0.6317	0.2989	0.3391	0.081
Mof_H 	H 	0.5923	0.2249	0.3395	0.086
Mof_C 	C 	0.6067	0.0073	0.7865	-0.387
Mof_H 	H 	0.6542	0.0025	0.7977	0.14
Mof_H 	H 	0.5781	0.0392	0.8021	0.138
Mof_H 	H 	0.5835	0.9614	0.7856	0.141
Mof_C 	C 	0.4552	0.0704	0.1528	-0.079
Mof_H 	H 	0.4592	0.0384	0.1312	0.043
Mof_H 	H 	0.4072	0.0904	0.1535	0.04
Mof_H 	H 	0.4902	0.108	0.1502	0.048
Mof_C 	C 	0.2834	0.1246	0.8157	-0.662
Mof_H 	H 	0.2562	0.1245	0.8394	0.224
Mof_H 	H 	0.2552	0.1028	0.7955	0.218
Mof_H 	H 	0.3277	0.0983	0.8192	0.256
Mof_C 	C 	0.3417	0.2392	0.7713	-0.054
Mof_H 	H 	0.3487	0.2889	0.7792	0.041
Mof_C 	C 	0.7338	0.1654	0.092	0.004
Mof_H 	H 	0.7765	0.1474	0.1026	0.04
Mof_Cu	Cu	0.61779	0.72895	0.46863	0.908
Mof_Cu	Cu	0.88157	0.77147	0.03168	0.894
Mof_Cu	Cu	0.95482	0.71042	0.97455	0.904
Mof_Cu	Cu	0.54445	0.78939	0.52575	0.902
Mof_O 	O 	0.6429	0.8115	0.5479	-0.452
Mof_O 	O 	0.942	0.123	0.9935	-0.407
Mof_O 	O 	0.1258	0.1733	0.44536	-0.392
Mof_O 	O 	0.3643	0.8104	0.0502	-0.392
Mof_O 	O 	0.0478	0.8051	0.4507	-0.412
Mof_O 	O 	0.2955	0.7543	0.00195	-0.388
Mof_O 	O 	0.0531	0.1277	0.49283	-0.414
Mof_O 	O 	0.9484	0.8032	0.94766	-0.393
Mof_O 	O 	0.0223	0.7861	0.55517	-0.405
Mof_O 	O 	0.0369	0.743	0.00574	-0.416
Mof_O 	O 	0.0987	0.8593	0.50095	-0.397
Mof_O 	O 	0.6947	0.7492	0.50361	-0.443
Mof_O 	O 	0.8797	0.1762	0.9469	-0.42
Mof_O 	O 	0.8969	0.8571	0.0009	-0.402
Mof_O 	O 	0.9755	0.7814	0.05738	-0.416
Mof_O 	O 	0.9603	0.7412	0.50455	-0.403
Mof_C 	C 	0.0323	0.7741	0.0377	0.361
Mof_C 	C 	0.787	0.9345	0.6579	-0.068
Mof_H 	H 	0.7591	0.9535	0.6379	0.048
Mof_C 	C 	0.8802	0.8872	0.7154	-0.053
Mof_C 	C 	0.7643	0.8	0.5542	-0.123
Mof_C 	C 	0.0883	0.9255	0.4443	-0.093
Mof_C 	C 	0.075	0.869	0.2497	0.091
Mof_C 	C 	0.1045	0.8218	0.0952	-0.03
Mof_H 	H 	0.0613	0.8261	0.109	0.047
Mof_C 	C 	0.1044	0.7876	0.0559	-0.081
Mof_C 	C 	0.8288	0.7785	0.5376	0.039
Mof_H 	H 	0.8293	0.7561	0.5136	0.044
Mof_C 	C 	0.8286	0.8407	0.6118	-0.029
Mof_C 	C 	0.9106	0.051	0.942	-0.081
Mof_C 	C 	0.831	0.9421	0.7242	0.013
Mof_C 	C 	0.8931	0.9815	0.8839	-0.002
Mof_C 	C 	0.83	0.8722	0.65	0.028
Mof_C 	C 	0.0874	0.1251	0.4615	0.344
Mof_C 	C 	0.9206	0.9305	0.8161	-0.063
Mof_H 	H 	0.9586	0.903	0.8257	0.04
Mof_C 	C 	0.7849	0.9693	0.6954	-0.06
Mof_H 	H 	0.7544	0.0078	0.7001	0.037
Mof_C 	C 	0.0899	0.9909	0.4631	0.029
Mof_H 	H 	0.0855	0.9925	0.4899	0.046
Mof_C 	C 	0.1028	0.9214	0.2789	0.005
Mof_C 	C 	0.1611	0.9663	0.2632	-0.025
Mof_C 	C 	0.8866	0.9821	0.8388	0.015
Mof_C 	C 	0.6938	0.7851	0.5351	0.442
Mof_C 	C 	0.2323	0.7985	0.0556	-0.049
Mof_C 	C 	0.9241	0.9911	0.9624	0.02
Mof_H 	H 	0.9346	0.994	0.9887	0.049
Mof_C 	C 	0.1636	0.9456	0.2205	-0.01
Mof_C 	C 	0.1658	0.8459	0.1103	-0.005
Mof_C 	C 	0.896	0.9223	0.7798	-0.045
Mof_C 	C 	0.8085	0.0176	0.7842	-0.06
Mof_H 	H 	0.7735	0.0468	0.7731	0.04
Mof_C 	C 	0.098	0.0549	0.4422	-0.083
Mof_C 	C 	0.121	0.8557	0.1793	-0.099
Mof_H 	H 	0.0918	0.8162	0.1744	0.059
Mof_C 	C 	0.8786	0.852	0.678	-0.064
Mof_H 	H 	0.9111	0.8152	0.6729	0.045
Mof_C 	C 	0.1028	0.9886	0.3818	-0.025
Mof_C 	C 	0.8958	0.0482	0.9015	-0.027
Mof_H 	H 	0.8882	0.0897	0.8872	0.048
Mof_C 	C 	0.9038	0.9212	0.9038	-0.03
Mof_H 	H 	0.8992	0.8774	0.8914	0.049
Mof_C 	C 	0.1664	0.7758	0.0383	0.011
Mof_H 	H 	0.1671	0.7525	0.0145	0.058
Mof_C 	C 	0.2343	0.8308	0.0907	-0.039
Mof_H 	H 	0.2784	0.843	0.102	0.051
Mof_C 	C 	0.3044	0.7882	0.0327	0.3
Mof_C 	C 	0.2128	0.9693	0.1918	-0.044
Mof_H 	H 	0.2442	0.0068	0.1972	0.026
Mof_C 	C 	0.1665	0.8841	0.1493	0.031
Mof_C 	C 	0.9204	0.7898	0.7633	-0.426
Mof_H 	H 	0.9421	0.7591	0.7439	0.144
Mof_H 	H 	0.9487	0.7843	0.7869	0.143
Mof_C 	C 	0.0845	0.7901	0.2615	-0.177
Mof_H 	H 	0.0534	0.7818	0.2837	0.073
Mof_H 	H 	0.0654	0.7614	0.2404	0.076
Mof_C 	C 	0.075	0.8589	0.4665	0.36
Mof_C 	C 	0.8974	0.7919	0.5589	-0.097
Mof_C 	C 	0.8954	0.8213	0.5925	0.003
Mof_H 	H 	0.9391	0.8306	0.605	0.039
Mof_C 	C 	0.8263	0.0205	0.8243	-0.064
Mof_H 	H 	0.7982	0.0479	0.8411	0.049
Mof_C 	C 	0.0884	0.9223	0.4043	-0.013
Mof_H 	H 	0.0797	0.8795	0.3916	0.042
Mof_C 	C 	0.8502	0.9644	0.7616	0.01
Mof_C 	C 	0.2147	0.9382	0.1569	-0.084
Mof_H 	H 	0.2479	0.9529	0.1382	0.052
Mof_C 	C 	0.1729	0.0278	0.3226	-0.098
Mof_H 	H 	0.1926	0.0659	0.3363	0.057
Mof_C 	C 	0.1099	0.0508	0.4029	-0.01
Mof_H 	H 	0.1235	0.0921	0.3898	0.046
Mof_C 	C 	0.0897	0.9283	0.319	-0.164
Mof_H 	H 	0.0571	0.897	0.3306	0.08
Mof_C 	C 	0.9291	0.8678	0.7494	0.217
Mof_C 	C 	0.1228	0.9789	0.3416	0.04
Mof_C 	C 	0.922	0.8563	0.9661	0.321
Mof_C 	C 	0.0099	0.877	0.7414	-0.523
Mof_H 	H 	0.0375	0.8616	0.7638	0.172
Mof_H 	H 	0.0237	0.8472	0.7196	0.179
Mof_C 	C 	0.9942	0.8839	0.2422	-0.337
Mof_H 	H 	0.969	0.873	0.2662	0.12
Mof_H 	H 	0.9784	0.8488	0.2234	0.12
Mof_C 	C 	0.1204	0.885	0.2133	0
Mof_C 	C 	0.9644	0.7673	0.5388	0.348
Mof_C 	C 	0.9225	0.924	0.9441	-0.072
Mof_C 	C 	0.1907	0.0175	0.2848	-0.039
Mof_H 	H 	0.225	0.0474	0.2736	0.024
Mof_C 	C 	0.0284	0.9541	0.7323	0.501
Mof_H 	H 	0.9859	0.9809	0.7414	-0.12
Mof_C 	C 	0.9643	0.9558	0.2283	0.281
Mof_H 	H 	0.996	0.997	0.2329	-0.057
Mof_C 	C 	0.9072	0.1225	0.9626	0.366
Mof_C 	C 	0.8866	0.9624	0.2448	-0.113
Mof_H 	H 	0.8632	0.9161	0.2453	0.045
Mof_H 	H 	0.8577	0.9941	0.2288	0.053
Mof_C 	C 	0.9376	0.9471	0.1868	-0.762
Mof_H 	H 	0.9186	0.9917	0.1777	0.248
Mof_H 	H 	0.9772	0.9324	0.1706	0.254
Mof_H 	H 	0.9	0.9116	0.1861	0.242
Mof_C 	C 	0.0911	0.9873	0.7536	-1.01
Mof_H 	H 	0.0875	0.9764	0.7807	0.318
Mof_H 	H 	0.1359	0.9686	0.7436	0.313
Mof_H 	H 	0.0901	0.038	0.7501	0.307
Mof_C 	C 	0.031	0.9693	0.6895	-0.384
Mof_H 	H 	0.984	0.991	0.6847	0.14
Mof_H 	H 	0.0655	0.0083	0.6879	0.124
Mof_C 	C 	0.1984	0.7978	0.3042	0.127
Mof_H 	H 	0.2457	0.775	0.3039	-0.009
Mof_H 	H 	0.1744	0.7794	0.3271	-0.009
Mof_C 	C 	0.1918	0.7596	0.231	-0.038
Mof_C 	C 	0.8439	0.7619	0.7715	0.349
Mof_H 	H 	0.8113	0.7823	0.752	-0.071
Mof_C 	C 	0.8115	0.7778	0.8113	-0.243
Mof_H 	H 	0.8042	0.8287	0.8142	0.106
Mof_H 	H 	0.7647	0.7545	0.8138	0.106
Mof_C 	C 	0.8424	0.6798	0.7668	-0.801
Mof_H 	H 	0.8623	0.6672	0.742	0.245
Mof_H 	H 	0.8707	0.6582	0.7869	0.249
Mof_H 	H 	0.7931	0.6632	0.7684	0.264
Mof_C 	C 	0.8616	0.7515	0.8419	-0.234
Mof_H 	H 	0.8413	0.7615	0.8669	0.103
Mof_H 	H 	0.8683	0.7011	0.8391	0.081
Mof_H 	H 	0.9077	0.7751	0.8395	0.086
Mof_C 	C 	0.8933	0.9927	0.2865	-0.393
Mof_H 	H 	0.8458	0.9975	0.2977	0.141
Mof_H 	H 	0.9219	0.9608	0.3021	0.139
Mof_H 	H 	0.9165	0.0386	0.2856	0.143
Mof_C 	C 	0.0448	0.9296	0.6528	-0.085
Mof_H 	H 	0.0408	0.9616	0.6312	0.045
Mof_H 	H 	0.0928	0.9096	0.6535	0.041
Mof_H 	H 	0.0098	0.892	0.6502	0.05
Mof_C 	C 	0.2166	0.8754	0.3157	-0.662
Mof_H 	H 	0.2438	0.8755	0.3394	0.224
Mof_H 	H 	0.2448	0.8972	0.2955	0.218
Mof_H 	H 	0.1723	0.9017	0.3192	0.256
Mof_C 	C 	0.1583	0.7608	0.2713	-0.054
Mof_H 	H 	0.1513	0.7111	0.2792	0.041
Mof_C 	C 	0.7662	0.8346	0.592	0.004
Mof_H 	H 	0.7235	0.8526	0.6026	0.04
Mof_Cu	Cu	0.11779	0.77105	0.53137	0.908
Mof_Cu	Cu	0.38157	0.72853	0.96832	0.894
Mof_Cu	Cu	0.45482	0.78958	0.02545	0.904
Mof_Cu	Cu	0.04445	0.71061	0.47425	0.902
Mof_O 	O 	0.1429	0.6885	0.4521	-0.452
Mof_O 	O 	0.442	0.377	0.0065	-0.407
Mof_O 	O 	0.6258	0.3267	0.55464	-0.392
Mof_O 	O 	0.8643	0.6896	0.9498	-0.392
Mof_O 	O 	0.5478	0.6949	0.5493	-0.412
Mof_O 	O 	0.7955	0.7457	0.99805	-0.388
Mof_O 	O 	0.5531	0.3723	0.50717	-0.414
Mof_O 	O 	0.4484	0.6968	0.05234	-0.393
Mof_O 	O 	0.5223	0.7139	0.44483	-0.405
Mof_O 	O 	0.5369	0.757	0.99426	-0.416
Mof_O 	O 	0.5987	0.6407	0.49905	-0.396
Mof_O 	O 	0.1947	0.7508	0.49639	-0.443
Mof_O 	O 	0.3797	0.3238	0.0531	-0.42
Mof_O 	O 	0.3969	0.6429	0.9991	-0.402
Mof_O 	O 	0.4755	0.7186	0.94262	-0.416
Mof_O 	O 	0.4603	0.7588	0.49545	-0.403
Mof_C 	C 	0.5323	0.7259	0.9623	0.361
Mof_C 	C 	0.287	0.5655	0.3421	-0.068
Mof_H 	H 	0.2591	0.5465	0.3621	0.048
Mof_C 	C 	0.3802	0.6128	0.2846	-0.053
Mof_C 	C 	0.2643	0.7	0.4458	-0.123
Mof_C 	C 	0.5883	0.5745	0.5557	-0.093
Mof_C 	C 	0.575	0.631	0.7503	0.091
Mof_C 	C 	0.6045	0.6782	0.9048	-0.03
Mof_H 	H 	0.5613	0.6739	0.891	0.047
Mof_C 	C 	0.6044	0.7124	0.9441	-0.081
Mof_C 	C 	0.3288	0.7215	0.4624	0.039
Mof_H 	H 	0.3293	0.7439	0.4864	0.044
Mof_C 	C 	0.3286	0.6593	0.3882	-0.029
Mof_C 	C 	0.4106	0.449	0.058	-0.081
Mof_C 	C 	0.331	0.5579	0.2758	0.012
Mof_C 	C 	0.3931	0.5185	0.1161	-0.001
Mof_C 	C 	0.33	0.6278	0.35	0.028
Mof_C 	C 	0.5874	0.3749	0.5385	0.344
Mof_C 	C 	0.4206	0.5695	0.1839	-0.063
Mof_H 	H 	0.4586	0.597	0.1743	0.04
Mof_C 	C 	0.2849	0.5307	0.3046	-0.059
Mof_H 	H 	0.2544	0.4922	0.2999	0.037
Mof_C 	C 	0.5899	0.5091	0.5369	0.029
Mof_H 	H 	0.5855	0.5075	0.5101	0.046
Mof_C 	C 	0.6028	0.5786	0.7211	0.005
Mof_C 	C 	0.6611	0.5337	0.7368	-0.025
Mof_C 	C 	0.3866	0.5179	0.1612	0.015
Mof_C 	C 	0.1938	0.7149	0.4649	0.442
Mof_C 	C 	0.7323	0.7015	0.9444	-0.049
Mof_C 	C 	0.4241	0.5089	0.0376	0.021
Mof_H 	H 	0.4346	0.506	0.0113	0.049
Mof_C 	C 	0.6636	0.5544	0.7795	-0.01
Mof_C 	C 	0.6658	0.6541	0.8897	-0.005
Mof_C 	C 	0.396	0.5777	0.2202	-0.046
Mof_C 	C 	0.3085	0.4824	0.2158	-0.06
Mof_H 	H 	0.2735	0.4532	0.2269	0.04
Mof_C 	C 	0.598	0.4451	0.5578	-0.083
Mof_C 	C 	0.621	0.6443	0.8207	-0.099
Mof_H 	H 	0.5918	0.6838	0.8256	0.059
Mof_C 	C 	0.3786	0.648	0.322	-0.064
Mof_H 	H 	0.4111	0.6848	0.3271	0.045
Mof_C 	C 	0.6028	0.5114	0.6182	-0.026
Mof_C 	C 	0.3958	0.4518	0.0985	-0.028
Mof_H 	H 	0.3882	0.4103	0.1128	0.048
Mof_C 	C 	0.4038	0.5788	0.0962	-0.03
Mof_H 	H 	0.3992	0.6226	0.1086	0.049
Mof_C 	C 	0.6664	0.7242	0.9617	0.011
Mof_H 	H 	0.6671	0.7475	0.9855	0.058
Mof_C 	C 	0.7343	0.6692	0.9093	-0.039
Mof_H 	H 	0.7784	0.657	0.898	0.051
Mof_C 	C 	0.8044	0.7118	0.9673	0.3
Mof_C 	C 	0.7128	0.5307	0.8082	-0.043
Mof_H 	H 	0.7442	0.4932	0.8028	0.026
Mof_C 	C 	0.6665	0.6159	0.8507	0.031
Mof_C 	C 	0.4204	0.7102	0.2367	-0.427
Mof_H 	H 	0.4421	0.7409	0.2561	0.144
Mof_H 	H 	0.4487	0.7157	0.2131	0.143
Mof_C 	C 	0.5845	0.7099	0.7385	-0.177
Mof_H 	H 	0.5534	0.7182	0.7163	0.073
Mof_H 	H 	0.5654	0.7386	0.7596	0.076
Mof_C 	C 	0.575	0.6411	0.5335	0.36
Mof_C 	C 	0.3974	0.7081	0.4411	-0.097
Mof_C 	C 	0.3954	0.6787	0.4075	0.003
Mof_H 	H 	0.4391	0.6694	0.395	0.039
Mof_C 	C 	0.3263	0.4795	0.1757	-0.064
Mof_H 	H 	0.2982	0.4521	0.1589	0.049
Mof_C 	C 	0.5884	0.5777	0.5957	-0.013
Mof_H 	H 	0.5797	0.6205	0.6084	0.042
Mof_C 	C 	0.3502	0.5356	0.2384	0.011
Mof_C 	C 	0.7147	0.5618	0.8431	-0.084
Mof_H 	H 	0.7479	0.5471	0.8618	0.052
Mof_C 	C 	0.6729	0.4722	0.6774	-0.098
Mof_H 	H 	0.6926	0.4341	0.6637	0.057
Mof_C 	C 	0.6099	0.4492	0.5971	-0.009
Mof_H 	H 	0.6235	0.4079	0.6102	0.046
Mof_C 	C 	0.5897	0.5717	0.681	-0.164
Mof_H 	H 	0.5571	0.603	0.6694	0.08
Mof_C 	C 	0.4291	0.6322	0.2506	0.218
Mof_C 	C 	0.6228	0.5211	0.6584	0.04
Mof_C 	C 	0.422	0.6437	0.0339	0.321
Mof_C 	C 	0.5099	0.623	0.2586	-0.527
Mof_H 	H 	0.5375	0.6384	0.2362	0.173
Mof_H 	H 	0.5237	0.6528	0.2804	0.181
Mof_C 	C 	0.4942	0.6161	0.7578	-0.337
Mof_H 	H 	0.469	0.627	0.7338	0.12
Mof_H 	H 	0.4784	0.6512	0.7766	0.12
Mof_C 	C 	0.6204	0.615	0.7867	0
Mof_C 	C 	0.4644	0.7327	0.4612	0.348
Mof_C 	C 	0.4225	0.576	0.0559	-0.072
Mof_C 	C 	0.6907	0.4825	0.7152	-0.039
Mof_H 	H 	0.725	0.4526	0.7264	0.024
Mof_C 	C 	0.5284	0.5459	0.2677	0.507
Mof_H 	H 	0.4859	0.5191	0.2586	-0.121
Mof_C 	C 	0.4643	0.5442	0.7717	0.282
Mof_H 	H 	0.496	0.503	0.7671	-0.057
Mof_C 	C 	0.4072	0.3775	0.0374	0.367
Mof_C 	C 	0.3866	0.5376	0.7552	-0.116
Mof_H 	H 	0.3632	0.5839	0.7547	0.046
Mof_H 	H 	0.3577	0.5059	0.7712	0.054
Mof_C 	C 	0.4376	0.5529	0.8132	-0.764
Mof_H 	H 	0.4186	0.5083	0.8223	0.248
Mof_H 	H 	0.4772	0.5676	0.8294	0.255
Mof_H 	H 	0.4	0.5884	0.8139	0.242
Mof_C 	C 	0.5911	0.5127	0.2464	-1.019
Mof_H 	H 	0.5875	0.5236	0.2193	0.32
Mof_H 	H 	0.6359	0.5314	0.2564	0.315
Mof_H 	H 	0.5901	0.462	0.2499	0.31
Mof_C 	C 	0.531	0.5307	0.3105	-0.393
Mof_H 	H 	0.484	0.509	0.3153	0.143
Mof_H 	H 	0.5655	0.4917	0.3121	0.127
Mof_C 	C 	0.6984	0.7022	0.6958	0.127
Mof_H 	H 	0.7457	0.725	0.6961	-0.009
Mof_H 	H 	0.6744	0.7206	0.6729	-0.009
Mof_C 	C 	0.6918	0.7404	0.769	-0.038
Mof_C 	C 	0.3439	0.7381	0.2285	0.35
Mof_H 	H 	0.3113	0.7177	0.248	-0.072
Mof_C 	C 	0.3115	0.7222	0.1887	-0.244
Mof_H 	H 	0.3042	0.6713	0.1858	0.107
Mof_H 	H 	0.2647	0.7455	0.1862	0.106
Mof_C 	C 	0.3424	0.8202	0.2332	-0.802
Mof_H 	H 	0.3623	0.8328	0.258	0.246
Mof_H 	H 	0.3707	0.8418	0.2131	0.249
Mof_H 	H 	0.2931	0.8368	0.2316	0.265
Mof_C 	C 	0.3616	0.7485	0.1581	-0.233
Mof_H 	H 	0.3413	0.7385	0.1331	0.103
Mof_H 	H 	0.3683	0.7989	0.1609	0.081
Mof_H 	H 	0.4077	0.7249	0.1605	0.086
Mof_C 	C 	0.3933	0.5073	0.7135	-0.388
Mof_H 	H 	0.3458	0.5025	0.7023	0.14
Mof_H 	H 	0.4219	0.5392	0.6979	0.138
Mof_H 	H 	0.4165	0.4614	0.7144	0.141
Mof_C 	C 	0.5448	0.5704	0.3472	-0.075
Mof_H 	H 	0.5408	0.5384	0.3688	0.042
Mof_H 	H 	0.5928	0.5904	0.3465	0.039
Mof_H 	H 	0.5098	0.608	0.3498	0.047
Mof_C 	C 	0.7166	0.6246	0.6843	-0.663
Mof_H 	H 	0.7438	0.6245	0.6606	0.225
Mof_H 	H 	0.7448	0.6028	0.7045	0.218
Mof_H 	H 	0.6723	0.5983	0.6808	0.256
Mof_C 	C 	0.6583	0.7392	0.7287	-0.054
Mof_H 	H 	0.6513	0.7889	0.7208	0.041
Mof_C 	C 	0.2662	0.6654	0.408	0.004
Mof_H 	H 	0.2235	0.6474	0.3974	0.04
Mof_Cu	Cu	0.38221	0.22895	0.03137	0.908
Mof_Cu	Cu	0.11843	0.27147	0.46832	0.894
Mof_Cu	Cu	0.04518	0.21042	0.52545	0.903
Mof_Cu	Cu	0.45555	0.28939	0.97425	0.902
Mof_O 	O 	0.3571	0.3115	0.9521	-0.453
Mof_O 	O 	0.058	0.623	0.5065	-0.407
Mof_O 	O 	0.8742	0.6733	0.05464	-0.392
Mof_O 	O 	0.6357	0.3104	0.4498	-0.392
Mof_O 	O 	0.9522	0.3051	0.0493	-0.412
Mof_O 	O 	0.7045	0.2543	0.49805	-0.388
Mof_O 	O 	0.9469	0.6277	0.00717	-0.414
Mof_O 	O 	0.0516	0.3032	0.55234	-0.393
Mof_O 	O 	0.9777	0.2861	0.94483	-0.405
Mof_O 	O 	0.9631	0.243	0.49426	-0.416
Mof_O 	O 	0.9013	0.3593	0.99905	-0.397
Mof_O 	O 	0.3053	0.2492	0.99639	-0.443
Mof_O 	O 	0.1203	0.6762	0.5531	-0.42
Mof_O 	O 	0.1031	0.3571	0.4991	-0.402
Mof_O 	O 	0.0245	0.2814	0.44262	-0.416
Mof_O 	O 	0.0397	0.2412	0.99545	-0.403
Mof_C 	C 	0.9677	0.2741	0.4623	0.361
Mof_C 	C 	0.213	0.4345	0.8421	-0.068
Mof_H 	H 	0.2409	0.4535	0.8621	0.048
Mof_C 	C 	0.1198	0.3872	0.7846	-0.053
Mof_C 	C 	0.2357	0.3	0.9458	-0.123
Mof_C 	C 	0.9117	0.4255	0.0557	-0.093
Mof_C 	C 	0.925	0.369	0.2503	0.091
Mof_C 	C 	0.8955	0.3218	0.4048	-0.03
Mof_H 	H 	0.9387	0.3261	0.391	0.047
Mof_C 	C 	0.8956	0.2876	0.4441	-0.081
Mof_C 	C 	0.1712	0.2785	0.9624	0.039
Mof_H 	H 	0.1707	0.2561	0.9864	0.044
Mof_C 	C 	0.1714	0.3407	0.8882	-0.029
Mof_C 	C 	0.0894	0.551	0.558	-0.081
Mof_C 	C 	0.169	0.4421	0.7758	0.012
Mof_C 	C 	0.1069	0.4815	0.6161	-0.001
Mof_C 	C 	0.17	0.3722	0.85	0.028
Mof_C 	C 	0.9126	0.6251	0.0385	0.344
Mof_C 	C 	0.0794	0.4305	0.6839	-0.063
Mof_H 	H 	0.0414	0.403	0.6743	0.04
Mof_C 	C 	0.2151	0.4693	0.8046	-0.059
Mof_H 	H 	0.2456	0.5078	0.7999	0.037
Mof_C 	C 	0.9101	0.4909	0.0369	0.029
Mof_H 	H 	0.9145	0.4925	0.0101	0.046
Mof_C 	C 	0.8972	0.4214	0.2211	0.005
Mof_C 	C 	0.8389	0.4663	0.2368	-0.025
Mof_C 	C 	0.1134	0.4821	0.6612	0.015
Mof_C 	C 	0.3062	0.2851	0.9649	0.442
Mof_C 	C 	0.7677	0.2985	0.4444	-0.049
Mof_C 	C 	0.0759	0.4911	0.5376	0.021
Mof_H 	H 	0.0654	0.494	0.5113	0.049
Mof_C 	C 	0.8364	0.4456	0.2795	-0.01
Mof_C 	C 	0.8342	0.3459	0.3897	-0.005
Mof_C 	C 	0.104	0.4223	0.7202	-0.046
Mof_C 	C 	0.1915	0.5176	0.7158	-0.06
Mof_H 	H 	0.2265	0.5468	0.7269	0.04
Mof_C 	C 	0.902	0.5549	0.0578	-0.083
Mof_C 	C 	0.879	0.3557	0.3207	-0.099
Mof_H 	H 	0.9082	0.3162	0.3256	0.059
Mof_C 	C 	0.1214	0.352	0.822	-0.064
Mof_H 	H 	0.0889	0.3152	0.8271	0.045
Mof_C 	C 	0.8972	0.4886	0.1182	-0.026
Mof_C 	C 	0.1042	0.5482	0.5985	-0.028
Mof_H 	H 	0.1118	0.5897	0.6128	0.048
Mof_C 	C 	0.0962	0.4212	0.5962	-0.03
Mof_H 	H 	0.1008	0.3774	0.6086	0.049
Mof_C 	C 	0.8336	0.2758	0.4617	0.011
Mof_H 	H 	0.8329	0.2525	0.4855	0.058
Mof_C 	C 	0.7657	0.3308	0.4093	-0.039
Mof_H 	H 	0.7216	0.343	0.398	0.051
Mof_C 	C 	0.6956	0.2882	0.4673	0.3
Mof_C 	C 	0.7872	0.4693	0.3082	-0.043
Mof_H 	H 	0.7558	0.5068	0.3028	0.026
Mof_C 	C 	0.8335	0.3841	0.3507	0.031
Mof_C 	C 	0.0796	0.2898	0.7367	-0.427
Mof_H 	H 	0.0579	0.2591	0.7561	0.144
Mof_H 	H 	0.0513	0.2843	0.7131	0.143
Mof_C 	C 	0.9155	0.2901	0.2385	-0.177
Mof_H 	H 	0.9466	0.2818	0.2163	0.073
Mof_H 	H 	0.9346	0.2614	0.2596	0.076
Mof_C 	C 	0.925	0.3589	0.0335	0.36
Mof_C 	C 	0.1026	0.2919	0.9411	-0.097
Mof_C 	C 	0.1046	0.3213	0.9075	0.003
Mof_H 	H 	0.0609	0.3306	0.895	0.039
Mof_C 	C 	0.1737	0.5205	0.6757	-0.064
Mof_H 	H 	0.2018	0.5479	0.6589	0.049
Mof_C 	C 	0.9116	0.4223	0.0957	-0.013
Mof_H 	H 	0.9203	0.3795	0.1084	0.042
Mof_C 	C 	0.1498	0.4644	0.7384	0.011
Mof_C 	C 	0.7853	0.4382	0.3431	-0.084
Mof_H 	H 	0.7521	0.4529	0.3618	0.052
Mof_C 	C 	0.8271	0.5278	0.1774	-0.098
Mof_H 	H 	0.8074	0.5659	0.1637	0.057
Mof_C 	C 	0.8901	0.5508	0.0971	-0.009
Mof_H 	H 	0.8765	0.5921	0.1102	0.046
Mof_C 	C 	0.9103	0.4283	0.181	-0.164
Mof_H 	H 	0.9429	0.397	0.1694	0.08
Mof_C 	C 	0.0709	0.3678	0.7506	0.218
Mof_C 	C 	0.8772	0.4789	0.1584	0.04
Mof_C 	C 	0.078	0.3563	0.5339	0.321
Mof_C 	C 	0.9901	0.377	0.7586	-0.526
Mof_H 	H 	0.9625	0.3616	0.7362	0.173
Mof_H 	H 	0.9763	0.3472	0.7804	0.181
Mof_C 	C 	0.0058	0.3839	0.2578	-0.337
Mof_H 	H 	0.031	0.373	0.2338	0.12
Mof_H 	H 	0.0216	0.3488	0.2766	0.12
Mof_C 	C 	0.8796	0.385	0.2867	0
Mof_C 	C 	0.0356	0.2673	0.9612	0.348
Mof_C 	C 	0.0775	0.424	0.5559	-0.072
Mof_C 	C 	0.8093	0.5175	0.2152	-0.039
Mof_H 	H 	0.775	0.5474	0.2264	0.024
Mof_C 	C 	0.9716	0.4541	0.7677	0.507
Mof_H 	H 	0.0141	0.4809	0.7586	-0.121
Mof_C 	C 	0.0357	0.4558	0.2717	0.282
Mof_H 	H 	0.004	0.497	0.2671	-0.058
Mof_C 	C 	0.0928	0.6225	0.5374	0.367
Mof_C 	C 	0.1134	0.4624	0.2552	-0.116
Mof_H 	H 	0.1368	0.4161	0.2547	0.046
Mof_H 	H 	0.1423	0.4941	0.2712	0.054
Mof_C 	C 	0.0624	0.4471	0.3132	-0.764
Mof_H 	H 	0.0814	0.4917	0.3223	0.248
Mof_H 	H 	0.0228	0.4324	0.3294	0.255
Mof_H 	H 	0.1	0.4116	0.3139	0.242
Mof_C 	C 	0.9089	0.4873	0.7464	-1.018
Mof_H 	H 	0.9125	0.4764	0.7193	0.32
Mof_H 	H 	0.8641	0.4686	0.7564	0.315
Mof_H 	H 	0.9099	0.538	0.7499	0.31
Mof_C 	C 	0.969	0.4693	0.8105	-0.392
Mof_H 	H 	0.016	0.491	0.8153	0.142
Mof_H 	H 	0.9345	0.5083	0.8121	0.126
Mof_C 	C 	0.8016	0.2978	0.1958	0.127
Mof_H 	H 	0.7543	0.275	0.1961	-0.009
Mof_H 	H 	0.8256	0.2794	0.1729	-0.009
Mof_C 	C 	0.8082	0.2596	0.269	-0.038
Mof_C 	C 	0.1561	0.2619	0.7285	0.35
Mof_H 	H 	0.1887	0.2823	0.748	-0.072
Mof_C 	C 	0.1885	0.2778	0.6887	-0.244
Mof_H 	H 	0.1958	0.3287	0.6858	0.107
Mof_H 	H 	0.2353	0.2545	0.6862	0.106
Mof_C 	C 	0.1576	0.1798	0.7332	-0.802
Mof_H 	H 	0.1377	0.1672	0.758	0.246
Mof_H 	H 	0.1293	0.1582	0.7131	0.249
Mof_H 	H 	0.2069	0.1632	0.7316	0.265
Mof_C 	C 	0.1384	0.2515	0.6581	-0.233
Mof_H 	H 	0.1587	0.2615	0.6331	0.103
Mof_H 	H 	0.1317	0.2011	0.6609	0.081
Mof_H 	H 	0.0923	0.2751	0.6605	0.086
Mof_C 	C 	0.1067	0.4927	0.2135	-0.387
Mof_H 	H 	0.1542	0.4975	0.2023	0.14
Mof_H 	H 	0.0781	0.4608	0.1979	0.138
Mof_H 	H 	0.0835	0.5386	0.2144	0.141
Mof_C 	C 	0.9552	0.4296	0.8472	-0.076
Mof_H 	H 	0.9592	0.4616	0.8688	0.042
Mof_H 	H 	0.9072	0.4096	0.8465	0.039
Mof_H 	H 	0.9902	0.392	0.8498	0.047
Mof_C 	C 	0.7834	0.3754	0.1843	-0.662
Mof_H 	H 	0.7562	0.3755	0.1606	0.224
Mof_H 	H 	0.7552	0.3972	0.2045	0.218
Mof_H 	H 	0.8277	0.4017	0.1808	0.256
Mof_C 	C 	0.8417	0.2608	0.2287	-0.054
Mof_H 	H 	0.8487	0.2111	0.2208	0.041
Mof_C 	C 	0.2338	0.3346	0.908	0.004
Mof_H 	H 	0.2765	0.3526	0.8974	0.04
_end
