data_functionalizedCrystal
_audit_creation_method	'EQeq! by Chris Wilmer'
_symmetry_space_group_name_H-M	'P1'
_symmetry_Int_Tables_number	1
_symmetry_cell_setting	triclinic
loop_
_symmetry_equiv_pos_as_xyz
  x,y,z
_cell_length_a	8.3837
_cell_length_b	8.3837
_cell_length_c	16.8473
_cell_angle_alpha	90
_cell_angle_beta	90
_cell_angle_gamma	90
loop_
_atom_site_label
_atom_site_type_symbol
_atom_site_fract_x
_atom_site_fract_y
_atom_site_fract_z
_atom_site_charge
Mof_Co	Co	0.5	0.5	0.75	1.204
Mof_Co	Co	0.5	0.5	0.25	1.204
Mof_H 	H 	0.5385	0.3114	0.911	0.006
Mof_H 	H 	0.3912	0.1722	0.0028	0.09
Mof_H 	H 	0.9959	0.2872	0.8794	0.097
Mof_H 	H 	0.1548	0.4263	0.7922	0.019
Mof_H 	H 	0.1035	0.1321	0.0617	0.06
Mof_H 	H 	0.4615	0.6886	0.911	0.006
Mof_H 	H 	0.6088	0.8278	0.0028	0.09
Mof_H 	H 	0.0041	0.7128	0.8794	0.097
Mof_H 	H 	0.8452	0.5737	0.7922	0.019
Mof_H 	H 	0.8965	0.8679	0.0617	0.06
Mof_H 	H 	0.3114	0.4615	0.089	0.006
Mof_H 	H 	0.1722	0.6088	0.9972	0.09
Mof_H 	H 	0.2872	0.0041	0.1206	0.097
Mof_H 	H 	0.4263	0.8452	0.2078	0.019
Mof_H 	H 	0.1321	0.8965	0.9383	0.06
Mof_H 	H 	0.6886	0.5385	0.089	0.006
Mof_H 	H 	0.8278	0.3912	0.9972	0.09
Mof_H 	H 	0.7128	0.9959	0.1206	0.097
Mof_H 	H 	0.5737	0.1548	0.2078	0.019
Mof_H 	H 	0.8679	0.1035	0.9383	0.06
Mof_H 	H 	0.5385	0.6886	0.411	0.006
Mof_H 	H 	0.3912	0.8278	0.5028	0.09
Mof_H 	H 	0.9959	0.7128	0.3794	0.097
Mof_H 	H 	0.1548	0.5737	0.2922	0.019
Mof_H 	H 	0.1035	0.8679	0.5617	0.06
Mof_H 	H 	0.4615	0.3114	0.411	0.006
Mof_H 	H 	0.6088	0.1722	0.5028	0.09
Mof_H 	H 	0.0041	0.2872	0.3794	0.097
Mof_H 	H 	0.8452	0.4263	0.2922	0.019
Mof_H 	H 	0.8965	0.1321	0.5617	0.06
Mof_H 	H 	0.3114	0.5385	0.589	0.006
Mof_H 	H 	0.1722	0.3912	0.4972	0.09
Mof_H 	H 	0.2872	0.9959	0.6206	0.097
Mof_H 	H 	0.4263	0.1548	0.7078	0.019
Mof_H 	H 	0.1321	0.1035	0.4383	0.06
Mof_H 	H 	0.6886	0.4615	0.589	0.006
Mof_H 	H 	0.8278	0.6088	0.4972	0.09
Mof_H 	H 	0.7128	0.0041	0.6206	0.097
Mof_H 	H 	0.5737	0.8452	0.7078	0.019
Mof_H 	H 	0.8679	0.8965	0.4383	0.06
Mof_C 	C 	0.4273	0.3055	0.9043	0.096
Mof_C 	C 	0.33981	0.221	0.95959	-0.159
Mof_C 	C 	0.174	0.20823	0.95096	0.105
Mof_C 	C 	0.10698	0.289	0.88706	-0.157
Mof_C 	C 	0.2033	0.3722	0.83473	0.09
Mof_C 	C 	0.08071	0.10296	0.0059	-0.066
Mof_C 	C 	0.5727	0.6945	0.9043	0.096
Mof_C 	C 	0.66019	0.779	0.95959	-0.159
Mof_C 	C 	0.826	0.79177	0.95096	0.105
Mof_C 	C 	0.89302	0.711	0.88706	-0.157
Mof_C 	C 	0.7967	0.6278	0.83473	0.09
Mof_C 	C 	0.91929	0.89704	0.0059	-0.066
Mof_C 	C 	0.3055	0.5727	0.0957	0.096
Mof_C 	C 	0.221	0.66019	0.04041	-0.159
Mof_C 	C 	0.20823	0.826	0.04904	0.105
Mof_C 	C 	0.289	0.89302	0.11294	-0.157
Mof_C 	C 	0.3722	0.7967	0.16527	0.09
Mof_C 	C 	0.10296	0.91929	0.9941	-0.066
Mof_C 	C 	0.6945	0.4273	0.0957	0.096
Mof_C 	C 	0.779	0.33981	0.04041	-0.159
Mof_C 	C 	0.79177	0.174	0.04904	0.105
Mof_C 	C 	0.711	0.10698	0.11294	-0.157
Mof_C 	C 	0.6278	0.2033	0.16527	0.09
Mof_C 	C 	0.89704	0.08071	0.9941	-0.066
Mof_C 	C 	0.4273	0.6945	0.4043	0.096
Mof_C 	C 	0.33981	0.779	0.45959	-0.159
Mof_C 	C 	0.174	0.79177	0.45096	0.105
Mof_C 	C 	0.10698	0.711	0.38706	-0.157
Mof_C 	C 	0.2033	0.6278	0.33473	0.09
Mof_C 	C 	0.08071	0.89704	0.5059	-0.066
Mof_C 	C 	0.5727	0.3055	0.4043	0.096
Mof_C 	C 	0.66019	0.221	0.45959	-0.159
Mof_C 	C 	0.826	0.20823	0.45096	0.105
Mof_C 	C 	0.89302	0.289	0.38706	-0.157
Mof_C 	C 	0.7967	0.3722	0.33473	0.09
Mof_C 	C 	0.91929	0.10296	0.5059	-0.066
Mof_C 	C 	0.3055	0.4273	0.5957	0.096
Mof_C 	C 	0.221	0.33981	0.54041	-0.159
Mof_C 	C 	0.20823	0.174	0.54904	0.105
Mof_C 	C 	0.289	0.10698	0.61294	-0.157
Mof_C 	C 	0.3722	0.2033	0.66527	0.09
Mof_C 	C 	0.10296	0.08071	0.4941	-0.066
Mof_C 	C 	0.6945	0.5727	0.5957	0.096
Mof_C 	C 	0.779	0.66019	0.54041	-0.159
Mof_C 	C 	0.79177	0.826	0.54904	0.105
Mof_C 	C 	0.711	0.89302	0.61294	-0.157
Mof_C 	C 	0.6278	0.7967	0.66527	0.09
Mof_C 	C 	0.89704	0.91929	0.4941	-0.066
Mof_N 	N 	0.36241	0.37952	0.84177	-0.216
Mof_N 	N 	0.63759	0.62048	0.84177	-0.216
Mof_N 	N 	0.37952	0.63759	0.15823	-0.216
Mof_N 	N 	0.62048	0.36241	0.15823	-0.216
Mof_N 	N 	0.36241	0.62048	0.34177	-0.216
Mof_N 	N 	0.63759	0.37952	0.34177	-0.216
Mof_N 	N 	0.37952	0.36241	0.65823	-0.216
Mof_N 	N 	0.62048	0.63759	0.65823	-0.216
Mof_F 	F 	0.33254	0.66746	0.75	-0.532
Mof_F 	F 	0.66746	0.33254	0.75	-0.532
Mof_F 	F 	0.66746	0.66746	0.25	-0.532
Mof_F 	F 	0.33254	0.33254	0.25	-0.532
_end
