data_functionalizedCrystal
_audit_creation_method	'EQeq! by Chris Wilmer'
_symmetry_space_group_name_H-M	'P1'
_symmetry_Int_Tables_number	1
_symmetry_cell_setting	triclinic
loop_
_symmetry_equiv_pos_as_xyz
  x,y,z
_cell_length_a	6.12
_cell_length_b	9.719
_cell_length_c	20.133
_cell_angle_alpha	90
_cell_angle_beta	90
_cell_angle_gamma	90
loop_
_atom_site_label
_atom_site_type_symbol
_atom_site_fract_x
_atom_site_fract_y
_atom_site_fract_z
_atom_site_charge
Mof_Nd	Nd	0.7142	0.034	0.3147	2.119
Mof_Nd	Nd	0.7858	0.966	0.8147	2.112
Mof_Nd	Nd	0.2858	0.534	0.1853	2.117
Mof_Nd	Nd	0.2142	0.466	0.6853	2.115
Mof_C 	C 	0.215	0.8722	0.6277	-0.123
Mof_C 	C 	0.4198	0.9376	0.6262	-0.075
Mof_C 	C 	0.5052	0.9779	0.5652	0.014
Mof_C 	C 	0.3934	0.9543	0.5067	-0.109
Mof_C 	C 	0.1861	0.8942	0.5091	-0.004
Mof_C 	C 	0.1025	0.8519	0.5691	-0.005
Mof_C 	C 	0.1155	0.8267	0.6927	0.464
Mof_C 	C 	0.5526	0.9573	0.6868	0.315
Mof_C 	C 	0.4959	0.9935	0.4416	0.338
Mof_C 	C 	0.285	0.1278	0.1277	-0.119
Mof_C 	C 	0.0802	0.0624	0.1262	-0.086
Mof_C 	C 	0.9948	0.0221	0.0652	0.026
Mof_C 	C 	0.1066	0.0457	0.0067	-0.117
Mof_C 	C 	0.3139	0.1058	0.0091	-0.002
Mof_C 	C 	0.3975	0.1481	0.0691	-0.01
Mof_C 	C 	0.3845	0.1733	0.1927	0.462
Mof_C 	C 	0.9474	0.0427	0.1868	0.324
Mof_C 	C 	0.0041	0.0065	0.9416	0.336
Mof_C 	C 	0.785	0.3722	0.8723	-0.123
Mof_C 	C 	0.5802	0.4376	0.8738	-0.076
Mof_C 	C 	0.4948	0.4779	0.9348	0.017
Mof_C 	C 	0.6066	0.4543	0.9933	-0.11
Mof_C 	C 	0.8139	0.3942	0.9909	-0.004
Mof_C 	C 	0.8975	0.3519	0.9309	-0.005
Mof_C 	C 	0.8845	0.3267	0.8073	0.464
Mof_C 	C 	0.4474	0.4573	0.8132	0.318
Mof_C 	C 	0.5041	0.4935	0.0584	0.336
Mof_C 	C 	0.715	0.6278	0.3723	-0.122
Mof_C 	C 	0.9198	0.5624	0.3738	-0.078
Mof_C 	C 	0.0052	0.5221	0.4348	0.017
Mof_C 	C 	0.8934	0.5457	0.4933	-0.111
Mof_C 	C 	0.6861	0.6058	0.4909	-0.003
Mof_C 	C 	0.6025	0.6481	0.4309	-0.008
Mof_C 	C 	0.6155	0.6733	0.3073	0.463
Mof_C 	C 	0.0526	0.5427	0.3132	0.319
Mof_C 	C 	0.9959	0.5065	0.5584	0.336
Mof_O 	O 	0.0742	0.7009	0.7007	-0.54
Mof_O 	O 	0.0658	0.9215	0.7324	-0.543
Mof_O 	O 	0.6442	0.0699	0.6982	-0.427
Mof_O 	O 	0.5713	0.8554	0.726	-0.504
Mof_O 	O 	0.6976	0.0158	0.4398	-0.493
Mof_O 	O 	0.3816	0.0014	0.3899	-0.484
Mof_O 	O 	0.4258	0.2991	0.2007	-0.539
Mof_O 	O 	0.4342	0.0785	0.2324	-0.544
Mof_O 	O 	0.8558	0.9301	0.1982	-0.431
Mof_O 	O 	0.9287	0.1446	0.226	-0.506
Mof_O 	O 	0.8024	0.9842	0.9398	-0.493
Mof_O 	O 	0.1184	0.9986	0.8899	-0.48
Mof_O 	O 	0.9258	0.2009	0.7993	-0.538
Mof_O 	O 	0.9342	0.4215	0.7676	-0.544
Mof_O 	O 	0.3558	0.5699	0.8018	-0.43
Mof_O 	O 	0.4287	0.3554	0.774	-0.505
Mof_O 	O 	0.3024	0.5158	0.0602	-0.493
Mof_O 	O 	0.6184	0.5014	0.1101	-0.482
Mof_O 	O 	0.5742	0.7991	0.2993	-0.539
Mof_O 	O 	0.5658	0.5785	0.2676	-0.544
Mof_O 	O 	0.1442	0.4301	0.3018	-0.431
Mof_O 	O 	0.0713	0.6446	0.274	-0.505
Mof_O 	O 	0.1976	0.4842	0.5602	-0.493
Mof_O 	O 	0.8816	0.4986	0.6101	-0.482
Mof_H 	H 	0.67064	0.03157	0.5628	0.024
Mof_H 	H 	0.08753	0.88053	0.46151	0.018
Mof_H 	H 	0.93663	0.7987	0.57123	0.021
Mof_H 	H 	0.82936	0.96843	0.0628	0.021
Mof_H 	H 	0.41247	0.11947	0.96151	0.017
Mof_H 	H 	0.56373	0.20102	0.06974	0.023
Mof_H 	H 	0.32936	0.53157	0.9372	0.023
Mof_H 	H 	0.91247	0.38053	0.03849	0.017
Mof_H 	H 	0.06373	0.29898	0.93026	0.021
Mof_H 	H 	0.17064	0.46843	0.4372	0.023
Mof_H 	H 	0.58753	0.61947	0.53849	0.017
Mof_H 	H 	0.43663	0.7013	0.42877	0.023
_end
