# CIF file generated by openbabel 3.1.0, see https://openbabel.org
data_I
_chemical_name_common 'image0'
_cell_length_a 35.5334
_cell_length_b 14.9227
_cell_length_c 30.6034
_cell_angle_alpha 90
_cell_angle_beta 102.176
_cell_angle_gamma 90
_space_group_name_H-M_alt 'P 1'
_space_group_name_Hall 'P 1'
loop_
    _symmetry_equiv_pos_as_xyz
    x,y,z
loop_
    _atom_site_label
    _atom_site_type_symbol
    _atom_site_fract_x
    _atom_site_fract_y
    _atom_site_fract_z
    _atom_site_occupancy
    C1       C        0.56227    0.54030    0.52370    1.000
    H1       H        0.57390    0.53830    0.49850    1.000
    C2       C        0.53110    0.59730    0.52240    1.000
    H2       H        0.52200    0.63370    0.49690    1.000
    C3       C        0.51378    0.60060    0.55770    1.000
    C4       C        0.52740    0.54680    0.59310    1.000
    H3       H        0.51520    0.54480    0.61790    1.000
    C5       C        0.55980    0.49400    0.59230    1.000
    H4       H        0.57040    0.45980    0.61810    1.000
    C6       C        0.48077    0.66120    0.55865    1.000
    C7       C        0.43205    0.70530    0.58954    1.000
    C8       C        0.44721    0.78570    0.53348    1.000
    C9       C        0.39280    0.62210    0.68590    1.000
    H5       H        0.40090    0.58470    0.71130    1.000
    C10      C        0.41772    0.63540    0.65810    1.000
    H6       H        0.44240    0.60790    0.66410    1.000
    C11      C        0.40651    0.68960    0.62105    1.000
    C12      C        0.36920    0.72710    0.61400    1.000
    H7       H        0.36010    0.76360    0.58860    1.000
    C13      C        0.34693    0.71120    0.64320    1.000
    H8       H        0.32220    0.73810    0.63810    1.000
    C14      C        0.40560    0.99500    0.47550    1.000
    H9       H        0.38360    0.03180    0.47410    1.000
    C15      C        0.40960    0.92120    0.50230    1.000
    H10      H        0.39040    0.90660    0.51870    1.000
    C16      C        0.44227    0.86710    0.50537    1.000
    C17      C        0.46824    0.88990    0.47971    1.000
    H11      H        0.49030    0.85370    0.48000    1.000
    C18      C        0.46197    0.96630    0.45350    1.000
    H12      H        0.48040    0.98250    0.43650    1.000
    C19      C        0.67490    0.55460    0.59930    1.000
    H13      H        0.66010    0.58510    0.57420    1.000
    C20      C        0.70488    0.60000    0.62680    1.000
    H14      H        0.71060    0.66020    0.62050    1.000
    C21      C        0.72603    0.55700    0.66310    1.000
    C22      C        0.71636    0.46880    0.67140    1.000
    H15      H        0.73020    0.43710    0.69670    1.000
    C23      C        0.68654    0.42880    0.64230    1.000
    H16      H        0.68020    0.36870    0.64800    1.000
    C24      C        0.75837    0.60140    0.69415    1.000
    C25      C        0.79428    0.72330    0.71717    1.000
    C26      C        0.80874    0.59140    0.75230    1.000
    C27      C        0.78330    0.97080    0.69310    1.000
    H17      H        0.76580    0.01000    0.67450    1.000
    C28      C        0.77616    0.87910    0.69010    1.000
    H18      H        0.75420    0.85650    0.66980    1.000
    C29      C        0.80101    0.82170    0.71680    1.000
    C30      C        0.83273    0.85750    0.74500    1.000
    H19      H        0.85080    0.81960    0.76370    1.000
    C31      C        0.83800    0.94920    0.74600    1.000
    H20      H        0.86010    0.97330    0.76550    1.000
    C32      C        0.84678    0.40790    0.83398    1.000
    H21      H        0.83970    0.34930    0.84140    1.000
    C33      C        0.82365    0.45270    0.79894    1.000
    H22      H        0.80130    0.42440    0.78200    1.000
    C34      C        0.83315    0.53930    0.78846    1.000
    C35      C        0.86620    0.57670    0.81270    1.000
    H23      H        0.87380    0.63530    0.80600    1.000
    C36      C        0.88840    0.52730    0.84720    1.000
    H24      H        0.91130    0.55340    0.86410    1.000
    N1       N        0.76456    0.68920    0.68826    1.000
    N2       N        0.81834    0.67710    0.74854    1.000
    N3       N        0.42459    0.77690    0.56262    1.000
    N4       N        0.77906    0.54990    0.72620    1.000
    N5       N        0.47505    0.72850    0.52870    1.000
    N6       N        0.46013    0.64640    0.58982    1.000
    N7       N        0.43087    0.01810    0.45127    1.000
    N8       N        0.87903    0.44500    0.85776    1.000
    N9       N        0.66587    0.46980    0.60656    1.000
    N10      N        0.35771    0.65890    0.67940    1.000
    N11      N        0.81342    0.00560    0.72076    1.000
    N12      N        0.57627    0.48930    0.55817    1.000
    Zn1      Zn       0.82452    0.14168    0.72623    1.000
    Zn2      Zn       0.91380    0.37580    0.90910    1.000
    Zn3      Zn       0.62380    0.40460    0.56610    1.000
    I1       I        0.86902    0.16635    0.80432    1.000
    I2       I        0.76430    0.23410    0.70354    1.000
    I3       I        0.97207    0.34190    0.87387    1.000
    I4       I        0.87655    0.26740    0.94680    1.000
    I5       I        0.60610    0.25990    0.60292    1.000
    I6       I        0.64305    0.40880    0.49145    1.000
    I7       I        0.86150    0.16660    0.79460    1.000
    I8       I        0.76040    0.22550    0.69330    1.000
    I9       I        0.97679    0.35520    0.86712    1.000
    I10      I        0.88681    0.25798    0.94018    1.000
    I11      I        0.61299    0.26140    0.58986    1.000
    I12      I        0.64255    0.43610    0.48066    1.000
    Zn4      Zn       0.92090    0.37750    0.90390    1.000
    Zn5      Zn       0.62220    0.41020    0.55520    1.000
    C37      C        0.06227    0.04030    0.52370    1.000
    H25      H        0.07390    0.03830    0.49850    1.000
    C38      C        0.03110    0.09730    0.52240    1.000
    H26      H        0.02200    0.13370    0.49690    1.000
    C39      C        0.01378    0.10060    0.55770    1.000
    C40      C        0.02740    0.04680    0.59310    1.000
    H27      H        0.01520    0.04480    0.61790    1.000
    C41      C        0.05980    0.99400    0.59230    1.000
    H28      H        0.07040    0.95980    0.61810    1.000
    C42      C        0.98077    0.16120    0.55865    1.000
    C43      C        0.93205    0.20530    0.58954    1.000
    C44      C        0.94721    0.28570    0.53348    1.000
    C45      C        0.89280    0.12210    0.68590    1.000
    H29      H        0.90090    0.08470    0.71130    1.000
    C46      C        0.91772    0.13540    0.65810    1.000
    H30      H        0.94240    0.10790    0.66410    1.000
    C47      C        0.90651    0.18960    0.62105    1.000
    C48      C        0.86920    0.22710    0.61400    1.000
    H31      H        0.86010    0.26360    0.58860    1.000
    C49      C        0.84693    0.21120    0.64320    1.000
    H32      H        0.82220    0.23810    0.63810    1.000
    C50      C        0.90560    0.49500    0.47550    1.000
    H33      H        0.88360    0.53180    0.47410    1.000
    C51      C        0.90960    0.42120    0.50230    1.000
    H34      H        0.89040    0.40660    0.51870    1.000
    C52      C        0.94227    0.36710    0.50537    1.000
    C53      C        0.96824    0.38990    0.47971    1.000
    H35      H        0.99030    0.35370    0.48000    1.000
    C54      C        0.96197    0.46630    0.45350    1.000
    H36      H        0.98040    0.48250    0.43650    1.000
    C55      C        0.17490    0.05460    0.59930    1.000
    H37      H        0.16010    0.08510    0.57420    1.000
    C56      C        0.20488    0.10000    0.62680    1.000
    H38      H        0.21060    0.16020    0.62050    1.000
    C57      C        0.22603    0.05700    0.66310    1.000
    C58      C        0.21636    0.96880    0.67140    1.000
    H39      H        0.23020    0.93710    0.69670    1.000
    C59      C        0.18654    0.92880    0.64230    1.000
    H40      H        0.18020    0.86870    0.64800    1.000
    C60      C        0.25837    0.10140    0.69415    1.000
    C61      C        0.29428    0.22330    0.71717    1.000
    C62      C        0.30874    0.09140    0.75230    1.000
    C63      C        0.28330    0.47080    0.69310    1.000
    H41      H        0.26580    0.51000    0.67450    1.000
    C64      C        0.27616    0.37910    0.69010    1.000
    H42      H        0.25420    0.35650    0.66980    1.000
    C65      C        0.30101    0.32170    0.71680    1.000
    C66      C        0.33273    0.35750    0.74500    1.000
    H43      H        0.35080    0.31960    0.76370    1.000
    C67      C        0.33800    0.44920    0.74600    1.000
    H44      H        0.36010    0.47330    0.76550    1.000
    C68      C        0.34678    0.90790    0.83398    1.000
    H45      H        0.33970    0.84930    0.84140    1.000
    C69      C        0.32365    0.95270    0.79894    1.000
    H46      H        0.30130    0.92440    0.78200    1.000
    C70      C        0.33315    0.03930    0.78846    1.000
    C71      C        0.36620    0.07670    0.81270    1.000
    H47      H        0.37380    0.13530    0.80600    1.000
    C72      C        0.38840    0.02730    0.84720    1.000
    H48      H        0.41130    0.05340    0.86410    1.000
    N13      N        0.26456    0.18920    0.68826    1.000
    N14      N        0.31834    0.17710    0.74854    1.000
    N15      N        0.92459    0.27690    0.56262    1.000
    N16      N        0.27906    0.04990    0.72620    1.000
    N17      N        0.97505    0.22850    0.52870    1.000
    N18      N        0.96013    0.14640    0.58982    1.000
    N19      N        0.93087    0.51810    0.45127    1.000
    N20      N        0.37903    0.94500    0.85776    1.000
    N21      N        0.16587    0.96980    0.60656    1.000
    N22      N        0.85771    0.15890    0.67940    1.000
    N23      N        0.31342    0.50560    0.72076    1.000
    N24      N        0.07627    0.98930    0.55817    1.000
    Zn6      Zn       0.32452    0.64168    0.72623    1.000
    Zn7      Zn       0.41380    0.87580    0.90910    1.000
    Zn8      Zn       0.12380    0.90460    0.56610    1.000
    I13      I        0.36902    0.66635    0.80432    1.000
    I14      I        0.26430    0.73410    0.70354    1.000
    I15      I        0.47207    0.84190    0.87387    1.000
    I16      I        0.37655    0.76740    0.94680    1.000
    I17      I        0.10610    0.75990    0.60292    1.000
    I18      I        0.14305    0.90880    0.49145    1.000
    I19      I        0.36150    0.66660    0.79460    1.000
    I20      I        0.26040    0.72550    0.69330    1.000
    I21      I        0.47679    0.85520    0.86712    1.000
    I22      I        0.38681    0.75798    0.94018    1.000
    I23      I        0.11299    0.76140    0.58986    1.000
    I24      I        0.14255    0.93610    0.48066    1.000
    Zn9      Zn       0.42090    0.87750    0.90390    1.000
    Zn10     Zn       0.12220    0.91020    0.55520    1.000
    C73      C        0.56227    0.45970    0.02370    1.000
    H49      H        0.57390    0.46170    0.99850    1.000
    C74      C        0.53110    0.40270    0.02240    1.000
    H50      H        0.52200    0.36630    0.99690    1.000
    C75      C        0.51378    0.39940    0.05770    1.000
    C76      C        0.52740    0.45320    0.09310    1.000
    H51      H        0.51520    0.45520    0.11790    1.000
    C77      C        0.55980    0.50600    0.09230    1.000
    H52      H        0.57040    0.54020    0.11810    1.000
    C78      C        0.48077    0.33880    0.05865    1.000
    C79      C        0.43205    0.29470    0.08954    1.000
    C80      C        0.44721    0.21430    0.03348    1.000
    C81      C        0.39280    0.37790    0.18590    1.000
    H53      H        0.40090    0.41530    0.21130    1.000
    C82      C        0.41772    0.36460    0.15810    1.000
    H54      H        0.44240    0.39210    0.16410    1.000
    C83      C        0.40651    0.31040    0.12105    1.000
    C84      C        0.36920    0.27290    0.11400    1.000
    H55      H        0.36010    0.23640    0.08860    1.000
    C85      C        0.34693    0.28880    0.14320    1.000
    H56      H        0.32220    0.26190    0.13810    1.000
    C86      C        0.40560    0.00500    0.97550    1.000
    H57      H        0.38360    0.96820    0.97410    1.000
    C87      C        0.40960    0.07880    0.00230    1.000
    H58      H        0.39040    0.09340    0.01870    1.000
    C88      C        0.44227    0.13290    0.00537    1.000
    C89      C        0.46824    0.11010    0.97971    1.000
    H59      H        0.49030    0.14630    0.98000    1.000
    C90      C        0.46197    0.03370    0.95350    1.000
    H60      H        0.48040    0.01750    0.93650    1.000
    C91      C        0.67490    0.44540    0.09930    1.000
    H61      H        0.66010    0.41490    0.07420    1.000
    C92      C        0.70488    0.40000    0.12680    1.000
    H62      H        0.71060    0.33980    0.12050    1.000
    C93      C        0.72603    0.44300    0.16310    1.000
    C94      C        0.71636    0.53120    0.17140    1.000
    H63      H        0.73020    0.56290    0.19670    1.000
    C95      C        0.68654    0.57120    0.14230    1.000
    H64      H        0.68020    0.63130    0.14800    1.000
    C96      C        0.75837    0.39860    0.19415    1.000
    C97      C        0.79428    0.27670    0.21717    1.000
    C98      C        0.80874    0.40860    0.25230    1.000
    C99      C        0.78330    0.02920    0.19310    1.000
    H65      H        0.76580    0.99000    0.17450    1.000
    C100     C        0.77616    0.12090    0.19010    1.000
    H66      H        0.75420    0.14350    0.16980    1.000
    C101     C        0.80101    0.17830    0.21680    1.000
    C102     C        0.83273    0.14250    0.24500    1.000
    H67      H        0.85080    0.18040    0.26370    1.000
    C103     C        0.83800    0.05080    0.24600    1.000
    H68      H        0.86010    0.02670    0.26550    1.000
    C104     C        0.84678    0.59210    0.33398    1.000
    H69      H        0.83970    0.65070    0.34140    1.000
    C105     C        0.82365    0.54730    0.29894    1.000
    H70      H        0.80130    0.57560    0.28200    1.000
    C106     C        0.83315    0.46070    0.28846    1.000
    C107     C        0.86620    0.42330    0.31270    1.000
    H71      H        0.87380    0.36470    0.30600    1.000
    C108     C        0.88840    0.47270    0.34720    1.000
    H72      H        0.91130    0.44660    0.36410    1.000
    N25      N        0.76456    0.31080    0.18826    1.000
    N26      N        0.81834    0.32290    0.24854    1.000
    N27      N        0.42459    0.22310    0.06262    1.000
    N28      N        0.77906    0.45010    0.22620    1.000
    N29      N        0.47505    0.27150    0.02870    1.000
    N30      N        0.46013    0.35360    0.08982    1.000
    N31      N        0.43087    0.98190    0.95127    1.000
    N32      N        0.87903    0.55500    0.35776    1.000
    N33      N        0.66587    0.53020    0.10656    1.000
    N34      N        0.35771    0.34110    0.17940    1.000
    N35      N        0.81342    0.99440    0.22076    1.000
    N36      N        0.57627    0.51070    0.05817    1.000
    Zn11     Zn       0.82452    0.85832    0.22623    1.000
    Zn12     Zn       0.91380    0.62420    0.40910    1.000
    Zn13     Zn       0.62380    0.59540    0.06610    1.000
    I25      I        0.86902    0.83365    0.30432    1.000
    I26      I        0.76430    0.76590    0.20354    1.000
    I27      I        0.97207    0.65810    0.37387    1.000
    I28      I        0.87655    0.73260    0.44680    1.000
    I29      I        0.60610    0.74010    0.10292    1.000
    I30      I        0.64305    0.59120    0.99145    1.000
    I31      I        0.86150    0.83340    0.29460    1.000
    I32      I        0.76040    0.77450    0.19330    1.000
    I33      I        0.97679    0.64480    0.36712    1.000
    I34      I        0.88681    0.74202    0.44018    1.000
    I35      I        0.61299    0.73860    0.08986    1.000
    I36      I        0.64255    0.56390    0.98066    1.000
    Zn14     Zn       0.92090    0.62250    0.40390    1.000
    Zn15     Zn       0.62220    0.58980    0.05520    1.000
    C109     C        0.06227    0.95970    0.02370    1.000
    H73      H        0.07390    0.96170    0.99850    1.000
    C110     C        0.03110    0.90270    0.02240    1.000
    H74      H        0.02200    0.86630    0.99690    1.000
    C111     C        0.01378    0.89940    0.05770    1.000
    C112     C        0.02740    0.95320    0.09310    1.000
    H75      H        0.01520    0.95520    0.11790    1.000
    C113     C        0.05980    0.00600    0.09230    1.000
    H76      H        0.07040    0.04020    0.11810    1.000
    C114     C        0.98077    0.83880    0.05865    1.000
    C115     C        0.93205    0.79470    0.08954    1.000
    C116     C        0.94721    0.71430    0.03348    1.000
    C117     C        0.89280    0.87790    0.18590    1.000
    H77      H        0.90090    0.91530    0.21130    1.000
    C118     C        0.91772    0.86460    0.15810    1.000
    H78      H        0.94240    0.89210    0.16410    1.000
    C119     C        0.90651    0.81040    0.12105    1.000
    C120     C        0.86920    0.77290    0.11400    1.000
    H79      H        0.86010    0.73640    0.08860    1.000
    C121     C        0.84693    0.78880    0.14320    1.000
    H80      H        0.82220    0.76190    0.13810    1.000
    C122     C        0.90560    0.50500    0.97550    1.000
    H81      H        0.88360    0.46820    0.97410    1.000
    C123     C        0.90960    0.57880    0.00230    1.000
    H82      H        0.89040    0.59340    0.01870    1.000
    C124     C        0.94227    0.63290    0.00537    1.000
    C125     C        0.96824    0.61010    0.97971    1.000
    H83      H        0.99030    0.64630    0.98000    1.000
    C126     C        0.96197    0.53370    0.95350    1.000
    H84      H        0.98040    0.51750    0.93650    1.000
    C127     C        0.17490    0.94540    0.09930    1.000
    H85      H        0.16010    0.91490    0.07420    1.000
    C128     C        0.20488    0.90000    0.12680    1.000
    H86      H        0.21060    0.83980    0.12050    1.000
    C129     C        0.22603    0.94300    0.16310    1.000
    C130     C        0.21636    0.03120    0.17140    1.000
    H87      H        0.23020    0.06290    0.19670    1.000
    C131     C        0.18654    0.07120    0.14230    1.000
    H88      H        0.18020    0.13130    0.14800    1.000
    C132     C        0.25837    0.89860    0.19415    1.000
    C133     C        0.29428    0.77670    0.21717    1.000
    C134     C        0.30874    0.90860    0.25230    1.000
    C135     C        0.28330    0.52920    0.19310    1.000
    H89      H        0.26580    0.49000    0.17450    1.000
    C136     C        0.27616    0.62090    0.19010    1.000
    H90      H        0.25420    0.64350    0.16980    1.000
    C137     C        0.30101    0.67830    0.21680    1.000
    C138     C        0.33273    0.64250    0.24500    1.000
    H91      H        0.35080    0.68040    0.26370    1.000
    C139     C        0.33800    0.55080    0.24600    1.000
    H92      H        0.36010    0.52670    0.26550    1.000
    C140     C        0.34678    0.09210    0.33398    1.000
    H93      H        0.33970    0.15070    0.34140    1.000
    C141     C        0.32365    0.04730    0.29894    1.000
    H94      H        0.30130    0.07560    0.28200    1.000
    C142     C        0.33315    0.96070    0.28846    1.000
    C143     C        0.36620    0.92330    0.31270    1.000
    H95      H        0.37380    0.86470    0.30600    1.000
    C144     C        0.38840    0.97270    0.34720    1.000
    H96      H        0.41130    0.94660    0.36410    1.000
    N37      N        0.26456    0.81080    0.18826    1.000
    N38      N        0.31834    0.82290    0.24854    1.000
    N39      N        0.92459    0.72310    0.06262    1.000
    N40      N        0.27906    0.95010    0.22620    1.000
    N41      N        0.97505    0.77150    0.02870    1.000
    N42      N        0.96013    0.85360    0.08982    1.000
    N43      N        0.93087    0.48190    0.95127    1.000
    N44      N        0.37903    0.05500    0.35776    1.000
    N45      N        0.16587    0.03020    0.10656    1.000
    N46      N        0.85771    0.84110    0.17940    1.000
    N47      N        0.31342    0.49440    0.22076    1.000
    N48      N        0.07627    0.01070    0.05817    1.000
    Zn16     Zn       0.32452    0.35832    0.22623    1.000
    Zn17     Zn       0.41380    0.12420    0.40910    1.000
    Zn18     Zn       0.12380    0.09540    0.06610    1.000
    I37      I        0.36902    0.33365    0.30432    1.000
    I38      I        0.26430    0.26590    0.20354    1.000
    I39      I        0.47207    0.15810    0.37387    1.000
    I40      I        0.37655    0.23260    0.44680    1.000
    I41      I        0.10610    0.24010    0.10292    1.000
    I42      I        0.14305    0.09120    0.99145    1.000
    I43      I        0.36150    0.33340    0.29460    1.000
    I44      I        0.26040    0.27450    0.19330    1.000
    I45      I        0.47679    0.14480    0.36712    1.000
    I46      I        0.38681    0.24202    0.44018    1.000
    I47      I        0.11299    0.23860    0.08986    1.000
    I48      I        0.14255    0.06390    0.98066    1.000
    Zn19     Zn       0.42090    0.12250    0.40390    1.000
    Zn20     Zn       0.12220    0.08980    0.05520    1.000
    C145     C        0.43773    0.54030    0.97630    1.000
    H97      H        0.42610    0.53830    0.00150    1.000
    C146     C        0.46890    0.59730    0.97760    1.000
    H98      H        0.47800    0.63370    0.00310    1.000
    C147     C        0.48622    0.60060    0.94230    1.000
    C148     C        0.47260    0.54680    0.90690    1.000
    H99      H        0.48480    0.54480    0.88210    1.000
    C149     C        0.44020    0.49400    0.90770    1.000
    H100     H        0.42960    0.45980    0.88190    1.000
    C150     C        0.51923    0.66120    0.94135    1.000
    C151     C        0.56795    0.70530    0.91046    1.000
    C152     C        0.55279    0.78570    0.96652    1.000
    C153     C        0.60720    0.62210    0.81410    1.000
    H101     H        0.59910    0.58470    0.78870    1.000
    C154     C        0.58228    0.63540    0.84190    1.000
    H102     H        0.55760    0.60790    0.83590    1.000
    C155     C        0.59349    0.68960    0.87895    1.000
    C156     C        0.63080    0.72710    0.88600    1.000
    H103     H        0.63990    0.76360    0.91140    1.000
    C157     C        0.65307    0.71120    0.85680    1.000
    H104     H        0.67780    0.73810    0.86190    1.000
    C158     C        0.59440    0.99500    0.02450    1.000
    H105     H        0.61640    0.03180    0.02590    1.000
    C159     C        0.59040    0.92120    0.99770    1.000
    H106     H        0.60960    0.90660    0.98130    1.000
    C160     C        0.55773    0.86710    0.99463    1.000
    C161     C        0.53176    0.88990    0.02029    1.000
    H107     H        0.50970    0.85370    0.02000    1.000
    C162     C        0.53803    0.96630    0.04650    1.000
    H108     H        0.51960    0.98250    0.06350    1.000
    C163     C        0.32510    0.55460    0.90070    1.000
    H109     H        0.33990    0.58510    0.92580    1.000
    C164     C        0.29512    0.60000    0.87320    1.000
    H110     H        0.28940    0.66020    0.87950    1.000
    C165     C        0.27397    0.55700    0.83690    1.000
    C166     C        0.28364    0.46880    0.82860    1.000
    H111     H        0.26980    0.43710    0.80330    1.000
    C167     C        0.31346    0.42880    0.85770    1.000
    H112     H        0.31980    0.36870    0.85200    1.000
    C168     C        0.24163    0.60140    0.80585    1.000
    C169     C        0.20572    0.72330    0.78283    1.000
    C170     C        0.19126    0.59140    0.74770    1.000
    C171     C        0.21670    0.97080    0.80690    1.000
    H113     H        0.23420    0.01000    0.82550    1.000
    C172     C        0.22384    0.87910    0.80990    1.000
    H114     H        0.24580    0.85650    0.83020    1.000
    C173     C        0.19899    0.82170    0.78320    1.000
    C174     C        0.16727    0.85750    0.75500    1.000
    H115     H        0.14920    0.81960    0.73630    1.000
    C175     C        0.16200    0.94920    0.75400    1.000
    H116     H        0.13990    0.97330    0.73450    1.000
    C176     C        0.15322    0.40790    0.66602    1.000
    H117     H        0.16030    0.34930    0.65860    1.000
    C177     C        0.17635    0.45270    0.70106    1.000
    H118     H        0.19870    0.42440    0.71800    1.000
    C178     C        0.16685    0.53930    0.71154    1.000
    C179     C        0.13380    0.57670    0.68730    1.000
    H119     H        0.12620    0.63530    0.69400    1.000
    C180     C        0.11160    0.52730    0.65280    1.000
    H120     H        0.08870    0.55340    0.63590    1.000
    N49      N        0.23544    0.68920    0.81174    1.000
    N50      N        0.18166    0.67710    0.75146    1.000
    N51      N        0.57541    0.77690    0.93738    1.000
    N52      N        0.22094    0.54990    0.77380    1.000
    N53      N        0.52495    0.72850    0.97130    1.000
    N54      N        0.53987    0.64640    0.91018    1.000
    N55      N        0.56913    0.01810    0.04873    1.000
    N56      N        0.12097    0.44500    0.64224    1.000
    N57      N        0.33413    0.46980    0.89344    1.000
    N58      N        0.64229    0.65890    0.82060    1.000
    N59      N        0.18658    0.00560    0.77924    1.000
    N60      N        0.42373    0.48930    0.94183    1.000
    Zn21     Zn       0.17548    0.14168    0.77377    1.000
    Zn22     Zn       0.08620    0.37580    0.59090    1.000
    Zn23     Zn       0.37620    0.40460    0.93390    1.000
    I49      I        0.13098    0.16635    0.69568    1.000
    I50      I        0.23570    0.23410    0.79646    1.000
    I51      I        0.02793    0.34190    0.62613    1.000
    I52      I        0.12345    0.26740    0.55320    1.000
    I53      I        0.39390    0.25990    0.89708    1.000
    I54      I        0.35695    0.40880    0.00855    1.000
    I55      I        0.13850    0.16660    0.70540    1.000
    I56      I        0.23960    0.22550    0.80670    1.000
    I57      I        0.02321    0.35520    0.63288    1.000
    I58      I        0.11319    0.25798    0.55982    1.000
    I59      I        0.38701    0.26140    0.91014    1.000
    I60      I        0.35745    0.43610    0.01934    1.000
    Zn24     Zn       0.07910    0.37750    0.59610    1.000
    Zn25     Zn       0.37780    0.41020    0.94480    1.000
    C181     C        0.93773    0.04030    0.97630    1.000
    H121     H        0.92610    0.03830    0.00150    1.000
    C182     C        0.96890    0.09730    0.97760    1.000
    H122     H        0.97800    0.13370    0.00310    1.000
    C183     C        0.98622    0.10060    0.94230    1.000
    C184     C        0.97260    0.04680    0.90690    1.000
    H123     H        0.98480    0.04480    0.88210    1.000
    C185     C        0.94020    0.99400    0.90770    1.000
    H124     H        0.92960    0.95980    0.88190    1.000
    C186     C        0.01923    0.16120    0.94135    1.000
    C187     C        0.06795    0.20530    0.91046    1.000
    C188     C        0.05279    0.28570    0.96652    1.000
    C189     C        0.10720    0.12210    0.81410    1.000
    H125     H        0.09910    0.08470    0.78870    1.000
    C190     C        0.08228    0.13540    0.84190    1.000
    H126     H        0.05760    0.10790    0.83590    1.000
    C191     C        0.09349    0.18960    0.87895    1.000
    C192     C        0.13080    0.22710    0.88600    1.000
    H127     H        0.13990    0.26360    0.91140    1.000
    C193     C        0.15307    0.21120    0.85680    1.000
    H128     H        0.17780    0.23810    0.86190    1.000
    C194     C        0.09440    0.49500    0.02450    1.000
    H129     H        0.11640    0.53180    0.02590    1.000
    C195     C        0.09040    0.42120    0.99770    1.000
    H130     H        0.10960    0.40660    0.98130    1.000
    C196     C        0.05773    0.36710    0.99463    1.000
    C197     C        0.03176    0.38990    0.02029    1.000
    H131     H        0.00970    0.35370    0.02000    1.000
    C198     C        0.03803    0.46630    0.04650    1.000
    H132     H        0.01960    0.48250    0.06350    1.000
    C199     C        0.82510    0.05460    0.90070    1.000
    H133     H        0.83990    0.08510    0.92580    1.000
    C200     C        0.79512    0.10000    0.87320    1.000
    H134     H        0.78940    0.16020    0.87950    1.000
    C201     C        0.77397    0.05700    0.83690    1.000
    C202     C        0.78364    0.96880    0.82860    1.000
    H135     H        0.76980    0.93710    0.80330    1.000
    C203     C        0.81346    0.92880    0.85770    1.000
    H136     H        0.81980    0.86870    0.85200    1.000
    C204     C        0.74163    0.10140    0.80585    1.000
    C205     C        0.70572    0.22330    0.78283    1.000
    C206     C        0.69126    0.09140    0.74770    1.000
    C207     C        0.71670    0.47080    0.80690    1.000
    H137     H        0.73420    0.51000    0.82550    1.000
    C208     C        0.72384    0.37910    0.80990    1.000
    H138     H        0.74580    0.35650    0.83020    1.000
    C209     C        0.69899    0.32170    0.78320    1.000
    C210     C        0.66727    0.35750    0.75500    1.000
    H139     H        0.64920    0.31960    0.73630    1.000
    C211     C        0.66200    0.44920    0.75400    1.000
    H140     H        0.63990    0.47330    0.73450    1.000
    C212     C        0.65322    0.90790    0.66602    1.000
    H141     H        0.66030    0.84930    0.65860    1.000
    C213     C        0.67635    0.95270    0.70106    1.000
    H142     H        0.69870    0.92440    0.71800    1.000
    C214     C        0.66685    0.03930    0.71154    1.000
    C215     C        0.63380    0.07670    0.68730    1.000
    H143     H        0.62620    0.13530    0.69400    1.000
    C216     C        0.61160    0.02730    0.65280    1.000
    H144     H        0.58870    0.05340    0.63590    1.000
    N61      N        0.73544    0.18920    0.81174    1.000
    N62      N        0.68166    0.17710    0.75146    1.000
    N63      N        0.07541    0.27690    0.93738    1.000
    N64      N        0.72094    0.04990    0.77380    1.000
    N65      N        0.02495    0.22850    0.97130    1.000
    N66      N        0.03987    0.14640    0.91018    1.000
    N67      N        0.06913    0.51810    0.04873    1.000
    N68      N        0.62097    0.94500    0.64224    1.000
    N69      N        0.83413    0.96980    0.89344    1.000
    N70      N        0.14229    0.15890    0.82060    1.000
    N71      N        0.68658    0.50560    0.77924    1.000
    N72      N        0.92373    0.98930    0.94183    1.000
    Zn26     Zn       0.67548    0.64168    0.77377    1.000
    Zn27     Zn       0.58620    0.87580    0.59090    1.000
    Zn28     Zn       0.87620    0.90460    0.93390    1.000
    I61      I        0.63098    0.66635    0.69568    1.000
    I62      I        0.73570    0.73410    0.79646    1.000
    I63      I        0.52793    0.84190    0.62613    1.000
    I64      I        0.62345    0.76740    0.55320    1.000
    I65      I        0.89390    0.75990    0.89708    1.000
    I66      I        0.85695    0.90880    0.00855    1.000
    I67      I        0.63850    0.66660    0.70540    1.000
    I68      I        0.73960    0.72550    0.80670    1.000
    I69      I        0.52321    0.85520    0.63288    1.000
    I70      I        0.61319    0.75798    0.55982    1.000
    I71      I        0.88701    0.76140    0.91014    1.000
    I72      I        0.85745    0.93610    0.01934    1.000
    Zn29     Zn       0.57910    0.87750    0.59610    1.000
    Zn30     Zn       0.87780    0.91020    0.94480    1.000
    C217     C        0.43773    0.45970    0.47630    1.000
    H145     H        0.42610    0.46170    0.50150    1.000
    C218     C        0.46890    0.40270    0.47760    1.000
    H146     H        0.47800    0.36630    0.50310    1.000
    C219     C        0.48622    0.39940    0.44230    1.000
    C220     C        0.47260    0.45320    0.40690    1.000
    H147     H        0.48480    0.45520    0.38210    1.000
    C221     C        0.44020    0.50600    0.40770    1.000
    H148     H        0.42960    0.54020    0.38190    1.000
    C222     C        0.51923    0.33880    0.44135    1.000
    C223     C        0.56795    0.29470    0.41046    1.000
    C224     C        0.55279    0.21430    0.46652    1.000
    C225     C        0.60720    0.37790    0.31410    1.000
    H149     H        0.59910    0.41530    0.28870    1.000
    C226     C        0.58228    0.36460    0.34190    1.000
    H150     H        0.55760    0.39210    0.33590    1.000
    C227     C        0.59349    0.31040    0.37895    1.000
    C228     C        0.63080    0.27290    0.38600    1.000
    H151     H        0.63990    0.23640    0.41140    1.000
    C229     C        0.65307    0.28880    0.35680    1.000
    H152     H        0.67780    0.26190    0.36190    1.000
    C230     C        0.59440    0.00500    0.52450    1.000
    H153     H        0.61640    0.96820    0.52590    1.000
    C231     C        0.59040    0.07880    0.49770    1.000
    H154     H        0.60960    0.09340    0.48130    1.000
    C232     C        0.55773    0.13290    0.49463    1.000
    C233     C        0.53176    0.11010    0.52029    1.000
    H155     H        0.50970    0.14630    0.52000    1.000
    C234     C        0.53803    0.03370    0.54650    1.000
    H156     H        0.51960    0.01750    0.56350    1.000
    C235     C        0.32510    0.44540    0.40070    1.000
    H157     H        0.33990    0.41490    0.42580    1.000
    C236     C        0.29512    0.40000    0.37320    1.000
    H158     H        0.28940    0.33980    0.37950    1.000
    C237     C        0.27397    0.44300    0.33690    1.000
    C238     C        0.28364    0.53120    0.32860    1.000
    H159     H        0.26980    0.56290    0.30330    1.000
    C239     C        0.31346    0.57120    0.35770    1.000
    H160     H        0.31980    0.63130    0.35200    1.000
    C240     C        0.24163    0.39860    0.30585    1.000
    C241     C        0.20572    0.27670    0.28283    1.000
    C242     C        0.19126    0.40860    0.24770    1.000
    C243     C        0.21670    0.02920    0.30690    1.000
    H161     H        0.23420    0.99000    0.32550    1.000
    C244     C        0.22384    0.12090    0.30990    1.000
    H162     H        0.24580    0.14350    0.33020    1.000
    C245     C        0.19899    0.17830    0.28320    1.000
    C246     C        0.16727    0.14250    0.25500    1.000
    H163     H        0.14920    0.18040    0.23630    1.000
    C247     C        0.16200    0.05080    0.25400    1.000
    H164     H        0.13990    0.02670    0.23450    1.000
    C248     C        0.15322    0.59210    0.16602    1.000
    H165     H        0.16030    0.65070    0.15860    1.000
    C249     C        0.17635    0.54730    0.20106    1.000
    H166     H        0.19870    0.57560    0.21800    1.000
    C250     C        0.16685    0.46070    0.21154    1.000
    C251     C        0.13380    0.42330    0.18730    1.000
    H167     H        0.12620    0.36470    0.19400    1.000
    C252     C        0.11160    0.47270    0.15280    1.000
    H168     H        0.08870    0.44660    0.13590    1.000
    N73      N        0.23544    0.31080    0.31174    1.000
    N74      N        0.18166    0.32290    0.25146    1.000
    N75      N        0.57541    0.22310    0.43738    1.000
    N76      N        0.22094    0.45010    0.27380    1.000
    N77      N        0.52495    0.27150    0.47130    1.000
    N78      N        0.53987    0.35360    0.41018    1.000
    N79      N        0.56913    0.98190    0.54873    1.000
    N80      N        0.12097    0.55500    0.14224    1.000
    N81      N        0.33413    0.53020    0.39344    1.000
    N82      N        0.64229    0.34110    0.32060    1.000
    N83      N        0.18658    0.99440    0.27924    1.000
    N84      N        0.42373    0.51070    0.44183    1.000
    Zn31     Zn       0.17548    0.85832    0.27377    1.000
    Zn32     Zn       0.08620    0.62420    0.09090    1.000
    Zn33     Zn       0.37620    0.59540    0.43390    1.000
    I73      I        0.13098    0.83365    0.19568    1.000
    I74      I        0.23570    0.76590    0.29646    1.000
    I75      I        0.02793    0.65810    0.12613    1.000
    I76      I        0.12345    0.73260    0.05320    1.000
    I77      I        0.39390    0.74010    0.39708    1.000
    I78      I        0.35695    0.59120    0.50855    1.000
    I79      I        0.13850    0.83340    0.20540    1.000
    I80      I        0.23960    0.77450    0.30670    1.000
    I81      I        0.02321    0.64480    0.13288    1.000
    I82      I        0.11319    0.74202    0.05982    1.000
    I83      I        0.38701    0.73860    0.41014    1.000
    I84      I        0.35745    0.56390    0.51934    1.000
    Zn34     Zn       0.07910    0.62250    0.09610    1.000
    Zn35     Zn       0.37780    0.58980    0.44480    1.000
    C253     C        0.93773    0.95970    0.47630    1.000
    H169     H        0.92610    0.96170    0.50150    1.000
    C254     C        0.96890    0.90270    0.47760    1.000
    H170     H        0.97800    0.86630    0.50310    1.000
    C255     C        0.98622    0.89940    0.44230    1.000
    C256     C        0.97260    0.95320    0.40690    1.000
    H171     H        0.98480    0.95520    0.38210    1.000
    C257     C        0.94020    0.00600    0.40770    1.000
    H172     H        0.92960    0.04020    0.38190    1.000
    C258     C        0.01923    0.83880    0.44135    1.000
    C259     C        0.06795    0.79470    0.41046    1.000
    C260     C        0.05279    0.71430    0.46652    1.000
    C261     C        0.10720    0.87790    0.31410    1.000
    H173     H        0.09910    0.91530    0.28870    1.000
    C262     C        0.08228    0.86460    0.34190    1.000
    H174     H        0.05760    0.89210    0.33590    1.000
    C263     C        0.09349    0.81040    0.37895    1.000
    C264     C        0.13080    0.77290    0.38600    1.000
    H175     H        0.13990    0.73640    0.41140    1.000
    C265     C        0.15307    0.78880    0.35680    1.000
    H176     H        0.17780    0.76190    0.36190    1.000
    C266     C        0.09440    0.50500    0.52450    1.000
    H177     H        0.11640    0.46820    0.52590    1.000
    C267     C        0.09040    0.57880    0.49770    1.000
    H178     H        0.10960    0.59340    0.48130    1.000
    C268     C        0.05773    0.63290    0.49463    1.000
    C269     C        0.03176    0.61010    0.52029    1.000
    H179     H        0.00970    0.64630    0.52000    1.000
    C270     C        0.03803    0.53370    0.54650    1.000
    H180     H        0.01960    0.51750    0.56350    1.000
    C271     C        0.82510    0.94540    0.40070    1.000
    H181     H        0.83990    0.91490    0.42580    1.000
    C272     C        0.79512    0.90000    0.37320    1.000
    H182     H        0.78940    0.83980    0.37950    1.000
    C273     C        0.77397    0.94300    0.33690    1.000
    C274     C        0.78364    0.03120    0.32860    1.000
    H183     H        0.76980    0.06290    0.30330    1.000
    C275     C        0.81346    0.07120    0.35770    1.000
    H184     H        0.81980    0.13130    0.35200    1.000
    C276     C        0.74163    0.89860    0.30585    1.000
    C277     C        0.70572    0.77670    0.28283    1.000
    C278     C        0.69126    0.90860    0.24770    1.000
    C279     C        0.71670    0.52920    0.30690    1.000
    H185     H        0.73420    0.49000    0.32550    1.000
    C280     C        0.72384    0.62090    0.30990    1.000
    H186     H        0.74580    0.64350    0.33020    1.000
    C281     C        0.69899    0.67830    0.28320    1.000
    C282     C        0.66727    0.64250    0.25500    1.000
    H187     H        0.64920    0.68040    0.23630    1.000
    C283     C        0.66200    0.55080    0.25400    1.000
    H188     H        0.63990    0.52670    0.23450    1.000
    C284     C        0.65322    0.09210    0.16602    1.000
    H189     H        0.66030    0.15070    0.15860    1.000
    C285     C        0.67635    0.04730    0.20106    1.000
    H190     H        0.69870    0.07560    0.21800    1.000
    C286     C        0.66685    0.96070    0.21154    1.000
    C287     C        0.63380    0.92330    0.18730    1.000
    H191     H        0.62620    0.86470    0.19400    1.000
    C288     C        0.61160    0.97270    0.15280    1.000
    H192     H        0.58870    0.94660    0.13590    1.000
    N85      N        0.73544    0.81080    0.31174    1.000
    N86      N        0.68166    0.82290    0.25146    1.000
    N87      N        0.07541    0.72310    0.43738    1.000
    N88      N        0.72094    0.95010    0.27380    1.000
    N89      N        0.02495    0.77150    0.47130    1.000
    N90      N        0.03987    0.85360    0.41018    1.000
    N91      N        0.06913    0.48190    0.54873    1.000
    N92      N        0.62097    0.05500    0.14224    1.000
    N93      N        0.83413    0.03020    0.39344    1.000
    N94      N        0.14229    0.84110    0.32060    1.000
    N95      N        0.68658    0.49440    0.27924    1.000
    N96      N        0.92373    0.01070    0.44183    1.000
    Zn36     Zn       0.67548    0.35832    0.27377    1.000
    Zn37     Zn       0.58620    0.12420    0.09090    1.000
    Zn38     Zn       0.87620    0.09540    0.43390    1.000
    I85      I        0.63098    0.33365    0.19568    1.000
    I86      I        0.73570    0.26590    0.29646    1.000
    I87      I        0.52793    0.15810    0.12613    1.000
    I88      I        0.62345    0.23260    0.05320    1.000
    I89      I        0.89390    0.24010    0.39708    1.000
    I90      I        0.85695    0.09120    0.50855    1.000
    I91      I        0.63850    0.33340    0.20540    1.000
    I92      I        0.73960    0.27450    0.30670    1.000
    I93      I        0.52321    0.14480    0.13288    1.000
    I94      I        0.61319    0.24202    0.05982    1.000
    I95      I        0.88701    0.23860    0.41014    1.000
    I96      I        0.85745    0.06390    0.51934    1.000
    Zn39     Zn       0.57910    0.12250    0.09610    1.000
    Zn40     Zn       0.87780    0.08980    0.44480    1.000
