# CIF file generated by openbabel 3.1.0, see https://openbabel.org
data_I
_chemical_name_common 'OBENUF_clean'
_cell_length_a 7.076
_cell_length_b 12.814
_cell_length_c 13.483
_cell_angle_alpha 90
_cell_angle_beta 104.188
_cell_angle_gamma 90
_space_group_name_H-M_alt 'P 1'
_space_group_name_Hall 'P 1'
loop_
    _symmetry_equiv_pos_as_xyz
    x,y,z
loop_
    _atom_site_label
    _atom_site_type_symbol
    _atom_site_fract_x
    _atom_site_fract_y
    _atom_site_fract_z
    _atom_site_occupancy
    Gd1      Gd       0.38396    0.57040    0.70122    1.000
    Gd2      Gd       0.11604    0.07040    0.29878    1.000
    Gd3      Gd       0.61604    0.42960    0.29878    1.000
    Gd4      Gd       0.88396    0.92960    0.70122    1.000
    H1       H        0.29610    0.93490    0.94770    1.000
    H2       H        0.43470    0.96190    0.11960    1.000
    H3       H        0.53230    0.82120    0.22730    1.000
    H4       H        0.37360    0.62590    0.98800    1.000
    H5       H        0.20390    0.43490    0.05230    1.000
    H6       H        0.06530    0.46190    0.88040    1.000
    H7       H        0.96770    0.32120    0.77270    1.000
    H8       H        0.12640    0.12590    0.01200    1.000
    H9       H        0.70390    0.06510    0.05230    1.000
    H10      H        0.56530    0.03810    0.88040    1.000
    H11      H        0.46770    0.17880    0.77270    1.000
    H12      H        0.62640    0.37410    0.01200    1.000
    H13      H        0.79610    0.56510    0.94770    1.000
    H14      H        0.93470    0.53810    0.11960    1.000
    H15      H        0.03230    0.67880    0.22730    1.000
    H16      H        0.87360    0.87410    0.98800    1.000
    C1       C        0.23050    0.75920    0.83950    1.000
    C2       C        0.32050    0.77650    0.94970    1.000
    C3       C        0.33880    0.87820    0.99040    1.000
    C4       C        0.41980    0.89440    0.09350    1.000
    C5       C        0.47860    0.81020    0.15790    1.000
    C6       C        0.45750    0.70840    0.11870    1.000
    C7       C        0.38240    0.69320    0.01450    1.000
    C8       C        0.51540    0.61600    0.18570    1.000
    C9       C        0.39320    0.48530    0.47600    1.000
    C10      C        0.26950    0.25920    0.16050    1.000
    C11      C        0.17950    0.27650    0.05030    1.000
    C12      C        0.16120    0.37820    0.00960    1.000
    C13      C        0.08020    0.39440    0.90650    1.000
    C14      C        0.02140    0.31020    0.84210    1.000
    C15      C        0.04250    0.20840    0.88130    1.000
    C16      C        0.11760    0.19320    0.98550    1.000
    C17      C        0.98460    0.11600    0.81430    1.000
    C18      C        0.10680    0.98530    0.52400    1.000
    C19      C        0.76950    0.24080    0.16050    1.000
    C20      C        0.67950    0.22350    0.05030    1.000
    C21      C        0.66120    0.12180    0.00960    1.000
    C22      C        0.58020    0.10560    0.90650    1.000
    C23      C        0.52140    0.18980    0.84210    1.000
    C24      C        0.54250    0.29160    0.88130    1.000
    C25      C        0.61760    0.30680    0.98550    1.000
    C26      C        0.48460    0.38400    0.81430    1.000
    C27      C        0.60680    0.51470    0.52400    1.000
    C28      C        0.73050    0.74080    0.83950    1.000
    C29      C        0.82050    0.72350    0.94970    1.000
    C30      C        0.83880    0.62180    0.99040    1.000
    C31      C        0.91980    0.60560    0.09350    1.000
    C32      C        0.97860    0.68980    0.15790    1.000
    C33      C        0.95750    0.79160    0.11870    1.000
    C34      C        0.88240    0.80680    0.01450    1.000
    C35      C        0.01540    0.88400    0.18570    1.000
    C36      C        0.89320    0.01470    0.47600    1.000
    O1       O        0.23540    0.66910    0.80340    1.000
    O2       O        0.65280    0.66550    0.78450    1.000
    O3       O        0.56260    0.62390    0.28370    1.000
    O4       O        0.51610    0.52710    0.14610    1.000
    O5       O        0.27110    0.50370    0.52590    1.000
    O6       O        0.64030    0.55460    0.61210    1.000
    O7       O        0.26460    0.16910    0.19660    1.000
    O8       O        0.84720    0.16550    0.21550    1.000
    O9       O        0.93740    0.12390    0.71630    1.000
    O10      O        0.98390    0.02710    0.85390    1.000
    O11      O        0.22890    0.00370    0.47410    1.000
    O12      O        0.85970    0.05460    0.38790    1.000
    O13      O        0.76460    0.33090    0.19660    1.000
    O14      O        0.34720    0.33450    0.21550    1.000
    O15      O        0.43740    0.37610    0.71630    1.000
    O16      O        0.48390    0.47290    0.85390    1.000
    O17      O        0.72890    0.49630    0.47410    1.000
    O18      O        0.35970    0.44540    0.38790    1.000
    O19      O        0.73540    0.83090    0.80340    1.000
    O20      O        0.15280    0.83450    0.78450    1.000
    O21      O        0.06260    0.87610    0.28370    1.000
    O22      O        0.01610    0.97290    0.14610    1.000
    O23      O        0.77110    0.99630    0.52590    1.000
    O24      O        0.14030    0.94540    0.61210    1.000
