data_functionalizedCrystal
_audit_creation_method	'EQeq! by Chris Wilmer'
_symmetry_space_group_name_H-M	'P1'
_symmetry_Int_Tables_number	1
_symmetry_cell_setting	triclinic
loop_
_symmetry_equiv_pos_as_xyz
  x,y,z
_cell_length_a	12.608
_cell_length_b	14.2145
_cell_length_c	14.898
_cell_angle_alpha	69.321
_cell_angle_beta	67.503
_cell_angle_gamma	78.329
loop_
_atom_site_label
_atom_site_type_symbol
_atom_site_fract_x
_atom_site_fract_y
_atom_site_fract_z
_atom_site_charge
Mof_Tb	Tb	0.43554	0.48139	0.40405	2.052
Mof_Tb	Tb	0.94881	0.94611	0.90663	2.031
Mof_O 	O 	0.4447	0.5087	0.223	-0.412
Mof_O 	O 	0.0709	0.8204	0.8238	-0.421
Mof_O 	O 	0.5306	0.6044	0.4406	-0.608
Mof_O 	O 	0.804	0.9528	0.0649	-0.517
Mof_O 	O 	0.87	0.988	0.1683	-0.525
Mof_O 	O 	0.3639	0.5818	0.6373	-0.504
Mof_O 	O 	0.3082	0.5623	0.5192	-0.524
Mof_O 	O 	0.9915	0.951	0.7318	-0.458
Mof_O 	O 	0.0368	0.8554	0.0252	-0.557
Mof_C 	C 	0.5342	0.6716	0.3553	0.43
Mof_O 	O 	0.507	0.6545	0.291	-0.436
Mof_N 	N 	0.2648	0.3613	0.5181	-0.215
Mof_O 	O 	0.2875	0.5597	0.3296	-0.437
Mof_C 	C 	0.6998	0.9062	0.2419	-0.213
Mof_C 	C 	0.7996	0.953	0.151	0.506
Mof_O 	O 	0.1008	0.8759	0.1357	-0.508
Mof_N 	N 	0.7529	0.9756	0.8745	-0.229
Mof_N 	N 	0.8311	0.7915	0.9794	-0.233
Mof_C 	C 	0.1726	0.7303	0.0827	-0.19
Mof_C 	C 	0.5708	0.7731	0.3384	-0.2
Mof_C 	C 	0.659	0.8182	0.2504	0.131
Mof_H 	H 	0.6905	0.7896	0.1975	-0.006
Mof_C 	C 	0.2939	0.5983	0.1594	-0.129
Mof_C 	C 	0.2174	0.6828	0.1619	0.087
Mof_H 	H 	0.1956	0.7083	0.2165	0.02
Mof_N 	N 	0.4459	0.3152	0.3641	-0.227
Mof_C 	C 	0.3041	0.6071	0.58	0.481
Mof_C 	C 	0.1065	0.8283	0.6524	-0.136
Mof_C 	C 	0.098	0.8268	0.0819	0.488
Mof_C 	C 	0.5166	0.8202	0.4131	0.117
Mof_H 	H 	0.4568	0.7908	0.4712	-0.019
Mof_C 	C 	0.0526	0.8689	0.7412	0.352
Mof_C 	C 	0.6473	0.9515	0.3185	0.125
Mof_H 	H 	0.6761	0.0087	0.3145	-0.006
Mof_C 	C 	0.3457	0.5524	0.2422	0.341
Mof_C 	C 	0.1812	0.7422	0.6568	0.093
Mof_H 	H 	0.202	0.7107	0.7147	0.016
Mof_C 	C 	0.2654	0.2755	0.4971	0.034
Mof_C 	C 	0.2009	0.6902	0.0035	0.086
Mof_H 	H 	0.1686	0.7203	0.9523	0.011
Mof_C 	C 	0.3251	0.5595	0.0782	0.058
Mof_H 	H 	0.3775	0.5033	0.0756	0.021
Mof_C 	C 	0.2775	0.6049	0.0005	-0.143
Mof_H 	H 	0.2971	0.5782	0.947	0.084
Mof_C 	C 	0.3585	0.2532	0.4131	0.035
Mof_C 	C 	0.2257	0.7021	0.5759	-0.186
Mof_C 	C 	0.6815	0.8976	0.9229	0.037
Mof_C 	C 	0.6475	0.7233	0.0303	0.017
Mof_C 	C 	0.7217	0.8024	0.9785	0.024
Mof_C 	C 	0.0776	0.8772	0.5643	0.068
Mof_H 	H 	0.0278	0.9353	0.5609	0.02
Mof_C 	C 	0.5521	0.9118	0.4008	-0.187
Mof_H 	H 	0.5119	0.9466	0.448	0.095
Mof_C 	C 	0.1774	0.2081	0.5549	0.003
Mof_C 	C 	0.5317	0.2948	0.2858	0.077
Mof_H 	H 	0.5927	0.3359	0.2525	-0.001
Mof_C 	C 	0.5688	0.9132	0.9186	-0.017
Mof_C 	C 	0.7146	0.0643	0.822	0.104
Mof_H 	H 	0.7633	0.1165	0.7878	-0.003
Mof_C 	C 	0.1229	0.8391	0.4818	-0.152
Mof_H 	H 	0.1048	0.8721	0.4228	0.09
Mof_C 	C 	0.7976	0.6199	0.0877	-0.104
Mof_H 	H 	0.8261	0.5589	0.1239	0.068
Mof_C 	C 	0.3587	0.1674	0.3859	0.001
Mof_C 	C 	0.0908	0.3154	0.6595	-0.101
Mof_H 	H 	0.0332	0.3318	0.7145	0.07
Mof_C 	C 	0.182	0.1214	0.5254	-0.054
Mof_H 	H 	0.1246	0.0768	0.5636	0.058
Mof_C 	C 	0.5351	0.215	0.2509	-0.094
Mof_H 	H 	0.5953	0.2054	0.1937	0.064
Mof_C 	C 	0.181	0.3786	0.5968	0.083
Mof_H 	H 	0.181	0.4364	0.6125	0.005
Mof_C 	C 	0.867	0.7018	0.0332	0.086
Mof_H 	H 	0.9415	0.6932	0.0346	-0.005
Mof_C 	C 	0.0889	0.2311	0.6388	-0.016
Mof_H 	H 	0.0299	0.1885	0.6793	0.045
Mof_C 	C 	0.1949	0.7517	0.4889	0.095
Mof_H 	H 	0.2236	0.7252	0.4346	0.007
Mof_C 	C 	0.6906	0.6309	0.0866	-0.016
Mof_H 	H 	0.6438	0.5774	0.1232	0.045
Mof_C 	C 	0.6043	0.0813	0.8168	-0.123
Mof_H 	H 	0.5817	0.1441	0.7785	0.085
Mof_C 	C 	0.265	0.1029	0.4456	-0.054
Mof_H 	H 	0.2633	0.0472	0.4274	0.05
Mof_C 	C 	0.5344	0.7399	0.0248	-0.046
Mof_H 	H 	0.4858	0.6877	0.0582	0.061
Mof_C 	C 	0.4974	0.8288	0.9726	-0.053
Mof_H 	H 	0.4231	0.8372	0.9707	0.049
Mof_C 	C 	0.4486	0.1509	0.302	-0.033
Mof_H 	H 	0.4503	0.0965	0.2805	0.043
Mof_C 	C 	0.5297	0.0096	0.8655	0.008
Mof_H 	H 	0.4548	0.0227	0.8645	0.04
Mof_Tb	Tb	0.56446	0.51861	0.59595	2.053
Mof_Tb	Tb	0.05119	0.05389	0.09337	2.032
Mof_O 	O 	0.5553	0.4913	0.777	-0.412
Mof_O 	O 	0.9291	0.1796	0.1762	-0.421
Mof_O 	O 	0.4694	0.3956	0.5594	-0.608
Mof_O 	O 	0.196	0.0472	0.9351	-0.517
Mof_O 	O 	0.13	0.012	0.8317	-0.525
Mof_O 	O 	0.6361	0.4182	0.3627	-0.504
Mof_O 	O 	0.6918	0.4377	0.4808	-0.524
Mof_O 	O 	0.0085	0.049	0.2682	-0.458
Mof_O 	O 	0.9632	0.1446	0.9748	-0.557
Mof_C 	C 	0.4658	0.3284	0.6447	0.43
Mof_O 	O 	0.493	0.3455	0.709	-0.436
Mof_N 	N 	0.7352	0.6387	0.4819	-0.215
Mof_O 	O 	0.7125	0.4403	0.6704	-0.437
Mof_C 	C 	0.3002	0.0938	0.7581	-0.213
Mof_C 	C 	0.2004	0.047	0.849	0.506
Mof_O 	O 	0.8992	0.1241	0.8643	-0.508
Mof_N 	N 	0.2471	0.0244	0.1255	-0.229
Mof_N 	N 	0.1689	0.2085	0.0206	-0.233
Mof_C 	C 	0.8274	0.2697	0.9173	-0.19
Mof_C 	C 	0.4292	0.2269	0.6616	-0.2
Mof_C 	C 	0.341	0.1818	0.7496	0.131
Mof_H 	H 	0.3095	0.2104	0.8025	-0.006
Mof_C 	C 	0.7061	0.4017	0.8406	-0.129
Mof_C 	C 	0.7826	0.3172	0.8381	0.087
Mof_H 	H 	0.8044	0.2917	0.7835	0.02
Mof_N 	N 	0.5541	0.6848	0.6359	-0.227
Mof_C 	C 	0.6959	0.3929	0.42	0.481
Mof_C 	C 	0.8935	0.1717	0.3476	-0.136
Mof_C 	C 	0.902	0.1732	0.9181	0.488
Mof_C 	C 	0.4834	0.1798	0.5869	0.117
Mof_H 	H 	0.5432	0.2092	0.5288	-0.019
Mof_C 	C 	0.9474	0.1311	0.2588	0.352
Mof_C 	C 	0.3527	0.0485	0.6815	0.125
Mof_H 	H 	0.3239	0.9913	0.6855	-0.006
Mof_C 	C 	0.6543	0.4476	0.7578	0.341
Mof_C 	C 	0.8188	0.2578	0.3432	0.093
Mof_H 	H 	0.798	0.2893	0.2853	0.016
Mof_C 	C 	0.7346	0.7245	0.5029	0.034
Mof_C 	C 	0.7991	0.3098	0.9965	0.086
Mof_H 	H 	0.8314	0.2797	0.0477	0.011
Mof_C 	C 	0.6749	0.4405	0.9218	0.058
Mof_H 	H 	0.6225	0.4967	0.9244	0.021
Mof_C 	C 	0.7225	0.3951	0.9995	-0.143
Mof_H 	H 	0.7029	0.4218	0.053	0.084
Mof_C 	C 	0.6415	0.7468	0.5869	0.035
Mof_C 	C 	0.7743	0.2979	0.4241	-0.186
Mof_C 	C 	0.3185	0.1024	0.0771	0.037
Mof_C 	C 	0.3525	0.2767	0.9697	0.017
Mof_C 	C 	0.2783	0.1976	0.0215	0.024
Mof_C 	C 	0.9224	0.1228	0.4357	0.068
Mof_H 	H 	0.9722	0.0647	0.4391	0.02
Mof_C 	C 	0.4479	0.0882	0.5992	-0.187
Mof_H 	H 	0.4881	0.0534	0.552	0.095
Mof_C 	C 	0.8226	0.7919	0.4451	0.003
Mof_C 	C 	0.4683	0.7052	0.7142	0.077
Mof_H 	H 	0.4073	0.6641	0.7475	-0.001
Mof_C 	C 	0.4312	0.0868	0.0814	-0.017
Mof_C 	C 	0.2854	0.9357	0.178	0.104
Mof_H 	H 	0.2367	0.8835	0.2122	-0.003
Mof_C 	C 	0.8771	0.1609	0.5182	-0.152
Mof_H 	H 	0.8952	0.1279	0.5772	0.09
Mof_C 	C 	0.2024	0.3801	0.9123	-0.104
Mof_H 	H 	0.1739	0.4411	0.8761	0.068
Mof_C 	C 	0.6413	0.8326	0.6141	0.001
Mof_C 	C 	0.9092	0.6846	0.3405	-0.101
Mof_H 	H 	0.9668	0.6682	0.2855	0.07
Mof_C 	C 	0.818	0.8786	0.4746	-0.054
Mof_H 	H 	0.8754	0.9232	0.4364	0.058
Mof_C 	C 	0.4649	0.785	0.7491	-0.094
Mof_H 	H 	0.4047	0.7946	0.8063	0.064
Mof_C 	C 	0.819	0.6214	0.4032	0.083
Mof_H 	H 	0.819	0.5636	0.3875	0.005
Mof_C 	C 	0.133	0.2982	0.9668	0.086
Mof_H 	H 	0.0585	0.3068	0.9654	-0.005
Mof_C 	C 	0.9111	0.7689	0.3612	-0.016
Mof_H 	H 	0.9701	0.8115	0.3207	0.045
Mof_C 	C 	0.8051	0.2483	0.5111	0.095
Mof_H 	H 	0.7764	0.2748	0.5654	0.007
Mof_C 	C 	0.3094	0.3691	0.9134	-0.016
Mof_H 	H 	0.3562	0.4226	0.8768	0.045
Mof_C 	C 	0.3957	0.9187	0.1832	-0.123
Mof_H 	H 	0.4183	0.8559	0.2215	0.085
Mof_C 	C 	0.735	0.8971	0.5544	-0.054
Mof_H 	H 	0.7367	0.9528	0.5726	0.05
Mof_C 	C 	0.4656	0.2601	0.9752	-0.046
Mof_H 	H 	0.5142	0.3123	0.9418	0.061
Mof_C 	C 	0.5026	0.1712	0.0274	-0.053
Mof_H 	H 	0.5769	0.1628	0.0293	0.049
Mof_C 	C 	0.5514	0.8491	0.698	-0.033
Mof_H 	H 	0.5497	0.9035	0.7195	0.043
Mof_C 	C 	0.4703	0.9904	0.1345	0.008
Mof_H 	H 	0.5452	0.9773	0.1355	0.04
_end
