data_functionalizedCrystal
_audit_creation_method	'EQeq! by Chris Wilmer'
_symmetry_space_group_name_H-M	'P1'
_symmetry_Int_Tables_number	1
_symmetry_cell_setting	triclinic
loop_
_symmetry_equiv_pos_as_xyz
  x,y,z
_cell_length_a	15.9981
_cell_length_b	15.9981
_cell_length_c	16.5761
_cell_angle_alpha	74.5333
_cell_angle_beta	74.533
_cell_angle_gamma	116.575
loop_
_atom_site_label
_atom_site_type_symbol
_atom_site_fract_x
_atom_site_fract_y
_atom_site_fract_z
_atom_site_charge
Mof_Ni	Ni	0.5	0	-0	0.999
Mof_Ni	Ni	0.5	0.5	0.5	1.051
Mof_Ni	Ni	0.5	0	0.5	1.014
Mof_Ni	Ni	-0	0	-0	0.992
Mof_Mo	Mo	0.375	0.125	0.75	0.939
Mof_Mo	Mo	0.625	0.875	0.25	1.061
Mof_H 	H 	0.6963	0.2161	0.956	-0
Mof_H 	H 	0.8179	0.3305	0.8124	0.093
Mof_H 	H 	0.7373	0.3367	0.7786	0.102
Mof_H 	H 	0.8165	0.4845	0.7982	-0.009
Mof_H 	H 	0.8079	0.4231	0.8942	-0.001
Mof_H 	H 	0.6476	0.431	0.863	0.115
Mof_H 	H 	0.6912	0.4648	0.9312	0.113
Mof_H 	H 	0.5274	0.3022	0.0082	-0.058
Mof_H 	H 	0.6126	0.299	0.0354	-0.055
Mof_H 	H 	0.5431	0.2253	0.9196	0.056
Mof_H 	H 	0.6412	0.145	0.8372	0.098
Mof_H 	H 	0.6947	0.1211	0.889	0.083
Mof_H 	H 	0.504	0.108	0.0898	0.07
Mof_H 	H 	0.4301	0.1021	0.0522	0.067
Mof_H 	H 	0.6721	0.6523	0.544	0.022
Mof_H 	H 	0.6429	0.6303	0.6876	0.064
Mof_H 	H 	0.6153	0.5159	0.7214	0.069
Mof_H 	H 	0.7827	0.6147	0.7018	0.044
Mof_H 	H 	0.8173	0.7021	0.6058	0.054
Mof_H 	H 	0.794	0.5106	0.637	0.041
Mof_H 	H 	0.896	0.6224	0.5688	0.036
Mof_H 	H 	0.8104	0.5356	0.4918	0.068
Mof_H 	H 	0.8344	0.648	0.4646	0.072
Mof_H 	H 	0.6449	0.4627	0.5804	0.02
Mof_H 	H 	0.4822	0.4784	0.6628	0.105
Mof_H 	H 	0.5101	0.5837	0.611	0.096
Mof_H 	H 	0.6978	0.5938	0.4102	0.098
Mof_H 	H 	0.6543	0.4823	0.4478	0.094
Mof_H 	H 	0.2839	0.8037	0.544	0.028
Mof_H 	H 	0.1695	0.6821	0.6876	0.048
Mof_H 	H 	0.1633	0.7627	0.7214	0.061
Mof_H 	H 	0.0155	0.6835	0.7018	0.047
Mof_H 	H 	0.0769	0.6921	0.6058	0.052
Mof_H 	H 	0.069	0.8524	0.637	0.028
Mof_H 	H 	0.0352	0.8088	0.5688	0.014
Mof_H 	H 	0.1978	0.9726	0.4918	0.113
Mof_H 	H 	0.201	0.8874	0.4646	0.096
Mof_H 	H 	0.2747	0.9569	0.5804	0.019
Mof_H 	H 	0.355	0.8588	0.6628	0.118
Mof_H 	H 	0.3789	0.8053	0.611	0.097
Mof_H 	H 	0.392	0.996	0.4102	0.176
Mof_H 	H 	0.3979	0.0699	0.4478	0.091
Mof_H 	H 	0.8477	0.8279	0.956	0.006
Mof_H 	H 	0.8697	0.8571	0.8124	0.109
Mof_H 	H 	0.9841	0.8847	0.7786	0.127
Mof_H 	H 	0.8853	0.7173	0.7982	-0.003
Mof_H 	H 	0.7979	0.6827	0.8942	0.002
Mof_H 	H 	0.9894	0.706	0.863	0.113
Mof_H 	H 	0.8776	0.604	0.9312	0.104
Mof_H 	H 	0.9644	0.6896	0.0082	-0.028
Mof_H 	H 	0.852	0.6656	0.0354	-0.031
Mof_H 	H 	0.0373	0.8551	0.9196	0.05
Mof_H 	H 	0.0216	0.0178	0.8372	0.022
Mof_H 	H 	0.9163	0.9899	0.889	0.112
Mof_H 	H 	0.9062	0.8022	0.0898	0.095
Mof_H 	H 	0.0177	0.8457	0.0522	0.086
Mof_H 	H 	0.3037	0.7839	0.044	0.03
Mof_H 	H 	0.1821	0.6695	0.1876	0.033
Mof_H 	H 	0.2627	0.6633	0.2214	0.047
Mof_H 	H 	0.1835	0.5155	0.2018	0.073
Mof_H 	H 	0.1921	0.5769	0.1058	0.074
Mof_H 	H 	0.3524	0.569	0.137	-0.017
Mof_H 	H 	0.3088	0.5352	0.0688	-0.035
Mof_H 	H 	0.4726	0.6978	0.9918	0.169
Mof_H 	H 	0.3874	0.701	0.9646	0.166
Mof_H 	H 	0.4569	0.7747	0.0804	-0.006
Mof_H 	H 	0.3588	0.855	0.1628	0.112
Mof_H 	H 	0.3053	0.8789	0.111	0.107
Mof_H 	H 	0.496	0.892	0.9102	0.121
Mof_H 	H 	0.5699	0.8979	0.9478	0.119
Mof_H 	H 	0.3279	0.3477	0.456	0.007
Mof_H 	H 	0.3571	0.3697	0.3124	0.06
Mof_H 	H 	0.3847	0.4841	0.2786	0.077
Mof_H 	H 	0.2173	0.3853	0.2982	0.023
Mof_H 	H 	0.1827	0.2979	0.3942	0.022
Mof_H 	H 	0.206	0.4894	0.363	0.052
Mof_H 	H 	0.104	0.3776	0.4312	0.035
Mof_H 	H 	0.1896	0.4644	0.5082	0.052
Mof_H 	H 	0.1656	0.352	0.5354	0.048
Mof_H 	H 	0.3551	0.5373	0.4196	0.026
Mof_H 	H 	0.5178	0.5216	0.3372	0.103
Mof_H 	H 	0.4899	0.4163	0.389	0.09
Mof_H 	H 	0.3022	0.4062	0.5898	0.093
Mof_H 	H 	0.3457	0.5177	0.5522	0.092
Mof_H 	H 	0.7161	0.1963	0.456	0.002
Mof_H 	H 	0.8305	0.3179	0.3124	0.076
Mof_H 	H 	0.8367	0.2373	0.2786	0.086
Mof_H 	H 	0.9845	0.3165	0.2982	0.021
Mof_H 	H 	0.9231	0.3079	0.3942	0.024
Mof_H 	H 	0.931	0.1476	0.363	0.065
Mof_H 	H 	0.9648	0.1912	0.4312	0.058
Mof_H 	H 	0.8022	0.0274	0.5082	0.009
Mof_H 	H 	0.799	0.1126	0.5354	0.025
Mof_H 	H 	0.7253	0.0431	0.4196	0.027
Mof_H 	H 	0.645	0.1412	0.3372	0.091
Mof_H 	H 	0.6211	0.1947	0.389	0.09
Mof_H 	H 	0.608	0.004	0.5898	0.018
Mof_H 	H 	0.6021	0.9301	0.5522	0.096
Mof_H 	H 	0.1523	0.1721	0.044	0.024
Mof_H 	H 	0.1303	0.1429	0.1876	0.01
Mof_H 	H 	0.0159	0.1153	0.2214	0.015
Mof_H 	H 	0.1147	0.2827	0.2018	0.076
Mof_H 	H 	0.2021	0.3173	0.1058	0.079
Mof_H 	H 	0.0106	0.294	0.137	-0.03
Mof_H 	H 	0.1224	0.396	0.0688	-0.042
Mof_H 	H 	0.0356	0.3104	0.9918	0.165
Mof_H 	H 	0.148	0.3344	0.9646	0.167
Mof_H 	H 	0.9627	0.1449	0.0804	-0.003
Mof_H 	H 	0.9784	0.9822	0.1628	0.195
Mof_H 	H 	0.0837	0.0101	0.111	0.074
Mof_H 	H 	0.0938	0.1978	0.9102	0.098
Mof_H 	H 	0.9823	0.1543	0.9478	0.102
Mof_C 	C 	0.40757	0.05821	0.85772	-0.144
Mof_C 	C 	0.27968	0.95548	0.808	-0.037
Mof_C 	C 	0.6678	0.22394	0.91106	0.085
Mof_C 	C 	0.75375	0.32807	0.83124	-0.255
Mof_C 	C 	0.77127	0.41985	0.85588	0.084
Mof_C 	C 	0.67434	0.41406	0.9064	-0.293
Mof_C 	C 	0.59253	0.30675	0.98492	0.16
Mof_C 	C 	0.57233	0.21823	0.96404	-0.079
Mof_C 	C 	0.41593	0.26529	0.64228	-0.115
Mof_C 	C 	0.26348	0.08768	0.692	-0.15
Mof_C 	C 	0.635	0.57886	0.58894	0.01
Mof_C 	C 	0.65931	0.58499	0.66876	-0.14
Mof_C 	C 	0.77573	0.62715	0.64412	-0.084
Mof_C 	C 	0.82046	0.58074	0.5936	-0.053
Mof_C 	C 	0.79167	0.57745	0.51508	-0.158
Mof_C 	C 	0.68227	0.53637	0.53596	0.03
Mof_C 	C 	0.44179	0.09243	0.64228	-0.143
Mof_C 	C 	0.54452	0.22032	0.692	-0.122
Mof_C 	C 	0.27606	0.8322	0.58894	-0.022
Mof_C 	C 	0.17193	0.74625	0.66876	-0.108
Mof_C 	C 	0.08015	0.72873	0.64412	-0.12
Mof_C 	C 	0.08594	0.82566	0.5936	0.005
Mof_C 	C 	0.19325	0.90747	0.51508	-0.241
Mof_C 	C 	0.28177	0.92767	0.53596	0.127
Mof_C 	C 	0.23471	0.08407	0.85772	-0.137
Mof_C 	C 	0.41232	0.23652	0.808	-0.118
Mof_C 	C 	0.92114	0.865	0.91106	0.088
Mof_C 	C 	0.91501	0.84069	0.83124	-0.258
Mof_C 	C 	0.87285	0.72427	0.85588	0.074
Mof_C 	C 	0.91926	0.67954	0.9064	-0.261
Mof_C 	C 	0.92255	0.70833	0.98492	0.105
Mof_C 	C 	0.96363	0.81773	0.96404	-0.044
Mof_C 	C 	0.59243	0.94179	0.14228	-0.103
Mof_C 	C 	0.72032	0.04452	0.192	-0.223
Mof_C 	C 	0.3322	0.77606	0.08894	-0.042
Mof_C 	C 	0.24625	0.67193	0.16876	-0.061
Mof_C 	C 	0.22873	0.58015	0.14412	-0.199
Mof_C 	C 	0.32566	0.58594	0.0936	0.128
Mof_C 	C 	0.40747	0.69325	0.01508	-0.416
Mof_C 	C 	0.42767	0.78177	0.03596	0.115
Mof_C 	C 	0.58407	0.73471	0.35772	-0.133
Mof_C 	C 	0.73652	0.91232	0.308	-0.104
Mof_C 	C 	0.365	0.42114	0.41106	0.026
Mof_C 	C 	0.34069	0.41501	0.33124	-0.166
Mof_C 	C 	0.22427	0.37285	0.35588	-0.043
Mof_C 	C 	0.17954	0.41926	0.4064	-0.093
Mof_C 	C 	0.20833	0.42255	0.48492	-0.122
Mof_C 	C 	0.31773	0.46363	0.46404	0.008
Mof_C 	C 	0.55821	0.90757	0.35772	-0.105
Mof_C 	C 	0.45548	0.77968	0.308	-0.133
Mof_C 	C 	0.72394	0.1678	0.41106	0.059
Mof_C 	C 	0.82807	0.25375	0.33124	-0.199
Mof_C 	C 	0.91985	0.27127	0.35588	-0.008
Mof_C 	C 	0.91406	0.17434	0.4064	-0.15
Mof_C 	C 	0.80675	0.09253	0.48492	-0.042
Mof_C 	C 	0.71823	0.07233	0.46404	-0.085
Mof_C 	C 	0.76529	0.91593	0.14228	-0.11
Mof_C 	C 	0.58768	0.76348	0.192	-0.137
Mof_C 	C 	0.07886	0.135	0.08894	-0.056
Mof_C 	C 	0.08499	0.15931	0.16876	-0.037
Mof_C 	C 	0.12715	0.27573	0.14412	-0.22
Mof_C 	C 	0.08074	0.32046	0.0936	0.144
Mof_C 	C 	0.07745	0.29167	0.01508	-0.426
Mof_C 	C 	0.03637	0.18227	0.03596	0.088
Mof_N 	N 	0.42839	0.02577	0.91384	-0.206
Mof_N 	N 	0.23562	0.86892	0.83868	-0.093
Mof_N 	N 	0.64398	0.13246	0.89232	-0.346
Mof_N 	N 	0.49396	0.11374	0.03828	-0.33
Mof_N 	N 	0.43961	0.34223	0.58616	-0.202
Mof_N 	N 	0.2076	0.0743	0.66132	-0.108
Mof_N 	N 	0.52478	0.5363	0.60768	-0.34
Mof_N 	N 	0.65202	0.53224	0.46172	-0.339
Mof_N 	N 	0.47423	0.07161	0.58616	-0.211
Mof_N 	N 	0.63108	0.26438	0.66132	-0.089
Mof_N 	N 	0.36754	0.85602	0.60768	-0.324
Mof_N 	N 	0.38626	0.00604	0.46172	-0.449
Mof_N 	N 	0.15777	0.06039	0.91384	-0.201
Mof_N 	N 	0.4257	0.2924	0.83868	-0.085
Mof_N 	N 	0.9637	0.97522	0.89232	-0.266
Mof_N 	N 	0.96776	0.84798	0.03828	-0.31
Mof_N 	N 	0.57161	0.97423	0.08616	-0.175
Mof_N 	N 	0.76438	0.13108	0.16132	-0.077
Mof_N 	N 	0.35602	0.86754	0.10768	-0.325
Mof_N 	N 	0.50604	0.88626	0.96172	-0.336
Mof_N 	N 	0.56039	0.65777	0.41384	-0.195
Mof_N 	N 	0.7924	0.9257	0.33868	-0.062
Mof_N 	N 	0.47522	0.4637	0.39232	-0.342
Mof_N 	N 	0.34798	0.46776	0.53828	-0.335
Mof_N 	N 	0.52577	0.92839	0.41384	-0.176
Mof_N 	N 	0.36892	0.73562	0.33868	-0.081
Mof_N 	N 	0.63246	0.14398	0.39232	-0.351
Mof_N 	N 	0.61374	0.99396	0.53828	-0.22
Mof_N 	N 	0.84223	0.93961	0.08616	-0.179
Mof_N 	N 	0.5743	0.7076	0.16132	-0.085
Mof_N 	N 	0.0363	0.02478	0.10768	-0.411
Mof_N 	N 	0.03224	0.15202	0.96172	-0.348
_end
