data_functionalizedCrystal
_audit_creation_method	'EQeq! by Chris Wilmer'
_symmetry_space_group_name_H-M	'P1'
_symmetry_Int_Tables_number	1
_symmetry_cell_setting	triclinic
loop_
_symmetry_equiv_pos_as_xyz
  x,y,z
_cell_length_a	22.571
_cell_length_b	22.571
_cell_length_c	22.571
_cell_angle_alpha	90
_cell_angle_beta	90
_cell_angle_gamma	90
loop_
_atom_site_label
_atom_site_type_symbol
_atom_site_fract_x
_atom_site_fract_y
_atom_site_fract_z
_atom_site_charge
Mof_U 	U 	0.79692	0.79692	0.79692	0.045
Mof_U 	U 	0.20308	0.20308	0.79692	0.044
Mof_U 	U 	0.20308	0.79692	0.20308	0.044
Mof_U 	U 	0.79692	0.20308	0.20308	0.044
Mof_U 	U 	0.79692	0.79692	0.20308	0.044
Mof_U 	U 	0.20308	0.20308	0.20308	0.043
Mof_U 	U 	0.79692	0.20308	0.79692	0.044
Mof_U 	U 	0.20308	0.79692	0.79692	0.044
Mof_U 	U 	0.5	0	0.77078	0.025
Mof_U 	U 	0.5	0	0.22922	0.025
Mof_U 	U 	0.77078	0.5	-0	0.025
Mof_U 	U 	0.22922	0.5	-0	0.025
Mof_U 	U 	-2.51594e-33	0.77078	0.5	0.025
Mof_U 	U 	-2.51594e-33	0.22922	0.5	0.025
Mof_U 	U 	3.05476e-33	0.5	0.22922	0.025
Mof_U 	U 	-5.89132e-33	0.5	0.77078	0.025
Mof_U 	U 	0.5	0.77078	-0	0.025
Mof_U 	U 	0.5	0.22922	-0	0.025
Mof_U 	U 	0.77078	0	0.5	0.025
Mof_U 	U 	0.22922	0	0.5	0.024
Mof_H 	H 	0.6886	0.94	0.6886	0.108
Mof_H 	H 	0.3114	0.06	0.6886	0.111
Mof_H 	H 	0.3114	0.94	0.3114	0.11
Mof_H 	H 	0.6886	0.06	0.3114	0.111
Mof_H 	H 	0.6886	0.6886	0.94	0.108
Mof_H 	H 	0.6886	0.3114	0.06	0.111
Mof_H 	H 	0.3114	0.3114	0.94	0.11
Mof_H 	H 	0.3114	0.6886	0.06	0.111
Mof_H 	H 	0.94	0.6886	0.6886	0.108
Mof_H 	H 	0.06	0.6886	0.3114	0.111
Mof_H 	H 	0.94	0.3114	0.3114	0.11
Mof_H 	H 	0.06	0.3114	0.6886	0.111
Mof_H 	H 	0.94	0.6886	0.3114	0.109
Mof_H 	H 	0.06	0.3114	0.3114	0.112
Mof_H 	H 	0.94	0.3114	0.6886	0.109
Mof_H 	H 	0.06	0.6886	0.6886	0.11
Mof_H 	H 	0.6886	0.6886	0.06	0.11
Mof_H 	H 	0.3114	0.6886	0.94	0.109
Mof_H 	H 	0.3114	0.3114	0.06	0.112
Mof_H 	H 	0.6886	0.3114	0.94	0.109
Mof_H 	H 	0.6886	0.94	0.3114	0.109
Mof_H 	H 	0.6886	0.06	0.6886	0.11
Mof_H 	H 	0.3114	0.94	0.6886	0.109
Mof_H 	H 	0.3114	0.06	0.3114	0.112
Mof_H 	H 	0.7118	-8.78128e-33	0.7983	0.099
Mof_H 	H 	0.2882	-8.78128e-33	0.7983	0.097
Mof_H 	H 	0.2882	-2.19532e-33	0.2017	0.093
Mof_H 	H 	0.7118	-2.19532e-33	0.2017	0.095
Mof_H 	H 	0.7983	0.7118	-0	0.099
Mof_H 	H 	0.7983	0.2882	-0	0.097
Mof_H 	H 	0.2017	0.2882	-0	0.093
Mof_H 	H 	0.2017	0.7118	-0	0.095
Mof_H 	H 	-1.48937e-32	0.7983	0.7118	0.099
Mof_H 	H 	-1.11474e-33	0.7983	0.2882	0.097
Mof_H 	H 	-1.11474e-33	0.2017	0.2882	0.093
Mof_H 	H 	-6.11246e-33	0.2017	0.7118	0.095
Mof_H 	H 	-3.63439e-33	0.7118	0.2017	0.095
Mof_H 	H 	-1.43907e-33	0.2882	0.2017	0.093
Mof_H 	H 	-5.78814e-33	0.2882	0.7983	0.097
Mof_H 	H 	-1.45694e-32	0.7118	0.7983	0.099
Mof_H 	H 	0.7118	0.7983	-0	0.099
Mof_H 	H 	0.2882	0.7983	-0	0.097
Mof_H 	H 	0.2882	0.2017	-0	0.093
Mof_H 	H 	0.7118	0.2017	-0	0.095
Mof_H 	H 	0.7983	0	0.2882	0.097
Mof_H 	H 	0.7983	-8.78128e-33	0.7118	0.099
Mof_H 	H 	0.2017	-8.78128e-33	0.7118	0.095
Mof_H 	H 	0.2017	0	0.2882	0.093
Mof_C 	C 	0.7451	0.8985	0.7451	0.288
Mof_C 	C 	0.7181	0.9518	0.7181	-0.038
Mof_C 	C 	0.2549	0.1015	0.7451	0.296
Mof_C 	C 	0.2819	0.0482	0.7181	-0.081
Mof_C 	C 	0.2549	0.8985	0.2549	0.289
Mof_C 	C 	0.2819	0.9518	0.2819	-0.043
Mof_C 	C 	0.7451	0.1015	0.2549	0.296
Mof_C 	C 	0.7181	0.0482	0.2819	-0.081
Mof_C 	C 	0.7451	0.7451	0.8985	0.288
Mof_C 	C 	0.7181	0.7181	0.9518	-0.038
Mof_C 	C 	0.7451	0.2549	0.1015	0.296
Mof_C 	C 	0.7181	0.2819	0.0482	-0.081
Mof_C 	C 	0.2549	0.2549	0.8985	0.289
Mof_C 	C 	0.2819	0.2819	0.9518	-0.043
Mof_C 	C 	0.2549	0.7451	0.1015	0.296
Mof_C 	C 	0.2819	0.7181	0.0482	-0.081
Mof_C 	C 	0.8985	0.7451	0.7451	0.288
Mof_C 	C 	0.9518	0.7181	0.7181	-0.038
Mof_C 	C 	0.1015	0.7451	0.2549	0.296
Mof_C 	C 	0.0482	0.7181	0.2819	-0.081
Mof_C 	C 	0.8985	0.2549	0.2549	0.289
Mof_C 	C 	0.9518	0.2819	0.2819	-0.043
Mof_C 	C 	0.1015	0.2549	0.7451	0.296
Mof_C 	C 	0.0482	0.2819	0.7181	-0.081
Mof_C 	C 	0.8985	0.7451	0.2549	0.288
Mof_C 	C 	0.9518	0.7181	0.2819	-0.04
Mof_C 	C 	0.1015	0.2549	0.2549	0.297
Mof_C 	C 	0.0482	0.2819	0.2819	-0.084
Mof_C 	C 	0.8985	0.2549	0.7451	0.288
Mof_C 	C 	0.9518	0.2819	0.7181	-0.04
Mof_C 	C 	0.1015	0.7451	0.7451	0.295
Mof_C 	C 	0.0482	0.7181	0.7181	-0.079
Mof_C 	C 	0.7451	0.7451	0.1015	0.295
Mof_C 	C 	0.7181	0.7181	0.0482	-0.079
Mof_C 	C 	0.2549	0.7451	0.8985	0.288
Mof_C 	C 	0.2819	0.7181	0.9518	-0.04
Mof_C 	C 	0.2549	0.2549	0.1015	0.297
Mof_C 	C 	0.2819	0.2819	0.0482	-0.084
Mof_C 	C 	0.7451	0.2549	0.8985	0.288
Mof_C 	C 	0.7181	0.2819	0.9518	-0.04
Mof_C 	C 	0.7451	0.8985	0.2549	0.288
Mof_C 	C 	0.7181	0.9518	0.2819	-0.04
Mof_C 	C 	0.7451	0.1015	0.7451	0.295
Mof_C 	C 	0.7181	0.0482	0.7181	-0.079
Mof_C 	C 	0.2549	0.8985	0.7451	0.288
Mof_C 	C 	0.2819	0.9518	0.7181	-0.04
Mof_C 	C 	0.2549	0.1015	0.2549	0.297
Mof_C 	C 	0.2819	0.0482	0.2819	-0.084
Mof_C 	C 	0.6917	-8.78128e-33	0.7598	-0.09
Mof_C 	C 	0.6263	0	0.7674	0.252
Mof_C 	C 	0.3083	-8.78128e-33	0.7598	-0.088
Mof_C 	C 	0.3737	0	0.7674	0.251
Mof_C 	C 	0.3083	0	0.2402	-0.086
Mof_C 	C 	0.3737	2.19532e-33	0.2326	0.248
Mof_C 	C 	0.6917	0	0.2402	-0.088
Mof_C 	C 	0.6263	2.19532e-33	0.2326	0.249
Mof_C 	C 	0.7598	0.6917	-0	-0.09
Mof_C 	C 	0.7674	0.6263	-0	0.252
Mof_C 	C 	0.7598	0.3083	-0	-0.088
Mof_C 	C 	0.7674	0.3737	-0	0.251
Mof_C 	C 	0.2402	0.3083	-0	-0.086
Mof_C 	C 	0.2326	0.3737	-0	0.248
Mof_C 	C 	0.2402	0.6917	-0	-0.088
Mof_C 	C 	0.2326	0.6263	-0	0.249
Mof_C 	C 	-6.18782e-33	0.7598	0.6917	-0.09
Mof_C 	C 	-6.43303e-33	0.7674	0.6263	0.252
Mof_C 	C 	-7.62534e-33	0.7598	0.3083	-0.088
Mof_C 	C 	-7.38013e-33	0.7674	0.3737	0.251
Mof_C 	C 	3.35126e-33	0.2402	0.3083	-0.086
Mof_C 	C 	-7.38013e-33	0.2326	0.3737	0.248
Mof_C 	C 	-6.18782e-33	0.2402	0.6917	-0.088
Mof_C 	C 	-6.43303e-33	0.2326	0.6263	0.249
Mof_C 	C 	-5.68536e-33	0.6917	0.2402	-0.088
Mof_C 	C 	-7.90917e-33	0.6263	0.2326	0.249
Mof_C 	C 	3.09593e-33	0.3083	0.2402	-0.086
Mof_C 	C 	-3.51853e-33	0.3737	0.2326	0.248
Mof_C 	C 	-5.93249e-33	0.3083	0.7598	-0.088
Mof_C 	C 	-1.46853e-32	0.3737	0.7674	0.251
Mof_C 	C 	-5.93249e-33	0.6917	0.7598	-0.09
Mof_C 	C 	-1.46853e-32	0.6263	0.7674	0.252
Mof_C 	C 	0.6917	0.7598	-0	-0.09
Mof_C 	C 	0.6263	0.7674	-0	0.252
Mof_C 	C 	0.3083	0.7598	-0	-0.088
Mof_C 	C 	0.3737	0.7674	-0	0.251
Mof_C 	C 	0.3083	0.2402	-0	-0.086
Mof_C 	C 	0.3737	0.2326	-0	0.248
Mof_C 	C 	0.6917	0.2402	-0	-0.088
Mof_C 	C 	0.6263	0.2326	-0	0.249
Mof_C 	C 	0.7598	0	0.3083	-0.088
Mof_C 	C 	0.7674	0	0.3737	0.251
Mof_C 	C 	0.7598	0	0.6917	-0.09
Mof_C 	C 	0.7674	0	0.6263	0.252
Mof_C 	C 	0.2402	0	0.6917	-0.088
Mof_C 	C 	0.2326	0	0.6263	0.249
Mof_C 	C 	0.2402	0	0.3083	-0.086
Mof_C 	C 	0.2326	0	0.3737	0.248
Mof_O 	O 	0.7903	0.8761	0.7223	-0.144
Mof_O 	O 	0.5987	0.048	0.7584	-0.144
Mof_O 	O 	0.2097	0.1239	0.7223	-0.157
Mof_O 	O 	0.4013	0.952	0.7584	-0.119
Mof_O 	O 	0.2097	0.8761	0.2777	-0.149
Mof_O 	O 	0.4013	0.048	0.2416	-0.144
Mof_O 	O 	0.7903	0.1239	0.2777	-0.154
Mof_O 	O 	0.5987	0.952	0.2416	-0.12
Mof_O 	O 	0.7223	0.7903	0.8761	-0.144
Mof_O 	O 	0.7584	0.5987	0.048	-0.144
Mof_O 	O 	0.7223	0.2097	0.1239	-0.157
Mof_O 	O 	0.7584	0.4013	0.952	-0.119
Mof_O 	O 	0.2777	0.2097	0.8761	-0.149
Mof_O 	O 	0.2416	0.4013	0.048	-0.144
Mof_O 	O 	0.2777	0.7903	0.1239	-0.154
Mof_O 	O 	0.2416	0.5987	0.952	-0.12
Mof_O 	O 	0.8761	0.7223	0.7903	-0.144
Mof_O 	O 	0.048	0.7584	0.5987	-0.144
Mof_O 	O 	0.1239	0.7223	0.2097	-0.157
Mof_O 	O 	0.952	0.7584	0.4013	-0.119
Mof_O 	O 	0.8761	0.2777	0.2097	-0.149
Mof_O 	O 	0.048	0.2416	0.4013	-0.144
Mof_O 	O 	0.1239	0.2777	0.7903	-0.154
Mof_O 	O 	0.952	0.2416	0.5987	-0.12
Mof_O 	O 	0.8761	0.7903	0.2777	-0.145
Mof_O 	O 	0.048	0.5987	0.2416	-0.144
Mof_O 	O 	0.1239	0.2097	0.2777	-0.158
Mof_O 	O 	0.952	0.4013	0.2416	-0.119
Mof_O 	O 	0.8761	0.2097	0.7223	-0.148
Mof_O 	O 	0.048	0.4013	0.7584	-0.143
Mof_O 	O 	0.1239	0.7903	0.7223	-0.153
Mof_O 	O 	0.952	0.5987	0.7584	-0.119
Mof_O 	O 	0.7903	0.7223	0.1239	-0.153
Mof_O 	O 	0.5987	0.7584	0.952	-0.119
Mof_O 	O 	0.2097	0.7223	0.8761	-0.148
Mof_O 	O 	0.4013	0.7584	0.048	-0.143
Mof_O 	O 	0.2097	0.2777	0.1239	-0.158
Mof_O 	O 	0.4013	0.2416	0.952	-0.119
Mof_O 	O 	0.7903	0.2777	0.8761	-0.145
Mof_O 	O 	0.5987	0.2416	0.048	-0.144
Mof_O 	O 	0.7223	0.8761	0.2097	-0.148
Mof_O 	O 	0.7584	0.048	0.4013	-0.143
Mof_O 	O 	0.7223	0.1239	0.7903	-0.153
Mof_O 	O 	0.7584	0.952	0.5987	-0.119
Mof_O 	O 	0.2777	0.8761	0.7903	-0.145
Mof_O 	O 	0.2416	0.048	0.5987	-0.144
Mof_O 	O 	0.2777	0.1239	0.2097	-0.158
Mof_O 	O 	0.2416	0.952	0.4013	-0.119
Mof_O 	O 	0.2097	0.1239	0.2777	-0.158
Mof_O 	O 	0.4013	0.952	0.2416	-0.119
Mof_O 	O 	0.7903	0.8761	0.2777	-0.145
Mof_O 	O 	0.5987	0.048	0.2416	-0.144
Mof_O 	O 	0.7903	0.1239	0.7223	-0.153
Mof_O 	O 	0.5987	0.952	0.7584	-0.119
Mof_O 	O 	0.2097	0.8761	0.7223	-0.148
Mof_O 	O 	0.4013	0.048	0.7584	-0.143
Mof_O 	O 	0.2777	0.2097	0.1239	-0.158
Mof_O 	O 	0.2416	0.4013	0.952	-0.119
Mof_O 	O 	0.2777	0.7903	0.8761	-0.145
Mof_O 	O 	0.2416	0.5987	0.048	-0.144
Mof_O 	O 	0.7223	0.7903	0.1239	-0.153
Mof_O 	O 	0.7584	0.5987	0.952	-0.119
Mof_O 	O 	0.7223	0.2097	0.8761	-0.148
Mof_O 	O 	0.7584	0.4013	0.048	-0.143
Mof_O 	O 	0.1239	0.2777	0.2097	-0.158
Mof_O 	O 	0.952	0.2416	0.4013	-0.119
Mof_O 	O 	0.8761	0.2777	0.7903	-0.145
Mof_O 	O 	0.048	0.2416	0.5987	-0.144
Mof_O 	O 	0.1239	0.7223	0.7903	-0.153
Mof_O 	O 	0.952	0.7584	0.5987	-0.119
Mof_O 	O 	0.8761	0.7223	0.2097	-0.148
Mof_O 	O 	0.048	0.7584	0.4013	-0.143
Mof_O 	O 	0.1239	0.2097	0.7223	-0.157
Mof_O 	O 	0.952	0.4013	0.7584	-0.119
Mof_O 	O 	0.8761	0.7903	0.7223	-0.144
Mof_O 	O 	0.048	0.5987	0.7584	-0.144
Mof_O 	O 	0.1239	0.7903	0.2777	-0.154
Mof_O 	O 	0.952	0.5987	0.2416	-0.12
Mof_O 	O 	0.8761	0.2097	0.2777	-0.149
Mof_O 	O 	0.048	0.4013	0.2416	-0.144
Mof_O 	O 	0.2097	0.2777	0.8761	-0.149
Mof_O 	O 	0.4013	0.2416	0.048	-0.144
Mof_O 	O 	0.7903	0.2777	0.1239	-0.154
Mof_O 	O 	0.5987	0.2416	0.952	-0.12
Mof_O 	O 	0.7903	0.7223	0.8761	-0.144
Mof_O 	O 	0.5987	0.7584	0.048	-0.144
Mof_O 	O 	0.2097	0.7223	0.1239	-0.157
Mof_O 	O 	0.4013	0.7584	0.952	-0.119
Mof_O 	O 	0.2777	0.1239	0.7903	-0.154
Mof_O 	O 	0.2416	0.952	0.5987	-0.12
Mof_O 	O 	0.2777	0.8761	0.2097	-0.149
Mof_O 	O 	0.2416	0.048	0.4013	-0.144
Mof_O 	O 	0.7223	0.1239	0.2097	-0.157
Mof_O 	O 	0.7584	0.952	0.4013	-0.119
Mof_O 	O 	0.7223	0.8761	0.7903	-0.144
Mof_O 	O 	0.7584	0.048	0.5987	-0.144
Mof_O 	O 	0.7515	0.7515	0.7515	-0.022
Mof_O 	O 	0.8423	0.8423	0.8423	-0.029
Mof_O 	O 	0.2485	0.2485	0.7515	-0.023
Mof_O 	O 	0.1577	0.1577	0.8423	-0.048
Mof_O 	O 	0.2485	0.7515	0.2485	-0.023
Mof_O 	O 	0.1577	0.8423	0.1577	-0.048
Mof_O 	O 	0.7515	0.2485	0.2485	-0.023
Mof_O 	O 	0.8423	0.1577	0.1577	-0.048
Mof_O 	O 	0.7515	0.7515	0.2485	-0.023
Mof_O 	O 	0.8423	0.8423	0.1577	-0.038
Mof_O 	O 	0.2485	0.2485	0.2485	-0.024
Mof_O 	O 	0.1577	0.1577	0.1577	-0.057
Mof_O 	O 	0.7515	0.2485	0.7515	-0.023
Mof_O 	O 	0.8423	0.1577	0.8423	-0.038
Mof_O 	O 	0.2485	0.7515	0.7515	-0.023
Mof_O 	O 	0.1577	0.8423	0.8423	-0.038
Mof_O 	O 	0.5	0.0345	0.8429	-0.033
Mof_O 	O 	0.5	0.9742	0.6989	0.017
Mof_O 	O 	0.5	0.1024	0.7237	-0.011
Mof_O 	O 	0.5	0.9655	0.8429	0.005
Mof_O 	O 	0.5	0.0258	0.6989	-0.041
Mof_O 	O 	0.5	0.8976	0.7237	-0.009
Mof_O 	O 	0.5	0.0345	0.1571	-0.039
Mof_O 	O 	0.5	0.9742	0.3011	0.017
Mof_O 	O 	0.5	0.1024	0.2763	-0.012
Mof_O 	O 	0.5	0.9655	0.1571	-0.001
Mof_O 	O 	0.5	0.0258	0.3011	-0.041
Mof_O 	O 	0.5	0.8976	0.2763	-0.01
Mof_O 	O 	0.8429	0.5	0.0345	-0.033
Mof_O 	O 	0.6989	0.5	0.9742	0.017
Mof_O 	O 	0.7237	0.5	0.1024	-0.011
Mof_O 	O 	0.8429	0.5	0.9655	0.005
Mof_O 	O 	0.6989	0.5	0.0258	-0.041
Mof_O 	O 	0.7237	0.5	0.8976	-0.009
Mof_O 	O 	0.1571	0.5	0.0345	-0.039
Mof_O 	O 	0.3011	0.5	0.9742	0.017
Mof_O 	O 	0.2763	0.5	0.1024	-0.012
Mof_O 	O 	0.1571	0.5	0.9655	-0.001
Mof_O 	O 	0.3011	0.5	0.0258	-0.041
Mof_O 	O 	0.2763	0.5	0.8976	-0.01
Mof_O 	O 	0.0345	0.8429	0.5	-0.033
Mof_O 	O 	0.9742	0.6989	0.5	0.017
Mof_O 	O 	0.1024	0.7237	0.5	-0.011
Mof_O 	O 	0.9655	0.8429	0.5	0.005
Mof_O 	O 	0.0258	0.6989	0.5	-0.041
Mof_O 	O 	0.8976	0.7237	0.5	-0.009
Mof_O 	O 	0.0345	0.1571	0.5	-0.039
Mof_O 	O 	0.9742	0.3011	0.5	0.017
Mof_O 	O 	0.1024	0.2763	0.5	-0.012
Mof_O 	O 	0.9655	0.1571	0.5	-0.001
Mof_O 	O 	0.0258	0.3011	0.5	-0.041
Mof_O 	O 	0.8976	0.2763	0.5	-0.01
Mof_O 	O 	0.0345	0.5	0.1571	-0.039
Mof_O 	O 	0.9742	0.5	0.3011	0.017
Mof_O 	O 	0.1024	0.5	0.2763	-0.012
Mof_O 	O 	0.9655	0.5	0.1571	-0.001
Mof_O 	O 	0.0258	0.5	0.3011	-0.041
Mof_O 	O 	0.8976	0.5	0.2763	-0.01
Mof_O 	O 	0.0345	0.5	0.8429	-0.033
Mof_O 	O 	0.9742	0.5	0.6989	0.017
Mof_O 	O 	0.1024	0.5	0.7237	-0.011
Mof_O 	O 	0.9655	0.5	0.8429	0.005
Mof_O 	O 	0.0258	0.5	0.6989	-0.041
Mof_O 	O 	0.8976	0.5	0.7237	-0.009
Mof_O 	O 	0.5	0.8429	0.9655	0.005
Mof_O 	O 	0.5	0.6989	0.0258	-0.041
Mof_O 	O 	0.5	0.7237	0.8976	-0.009
Mof_O 	O 	0.5	0.8429	0.0345	-0.033
Mof_O 	O 	0.5	0.6989	0.9742	0.017
Mof_O 	O 	0.5	0.7237	0.1024	-0.011
Mof_O 	O 	0.5	0.1571	0.9655	-0.001
Mof_O 	O 	0.5	0.3011	0.0258	-0.041
Mof_O 	O 	0.5	0.2763	0.8976	-0.01
Mof_O 	O 	0.5	0.1571	0.0345	-0.039
Mof_O 	O 	0.5	0.3011	0.9742	0.017
Mof_O 	O 	0.5	0.2763	0.1024	-0.012
Mof_O 	O 	0.8429	0.0345	0.5	-0.033
Mof_O 	O 	0.6989	0.9742	0.5	0.017
Mof_O 	O 	0.7237	0.1024	0.5	-0.011
Mof_O 	O 	0.8429	0.9655	0.5	0.005
Mof_O 	O 	0.6989	0.0258	0.5	-0.041
Mof_O 	O 	0.7237	0.8976	0.5	-0.009
Mof_O 	O 	0.1571	0.0345	0.5	-0.039
Mof_O 	O 	0.3011	0.9742	0.5	0.017
Mof_O 	O 	0.2763	0.1024	0.5	-0.012
Mof_O 	O 	0.1571	0.9655	0.5	-0.001
Mof_O 	O 	0.3011	0.0258	0.5	-0.041
Mof_O 	O 	0.2763	0.8976	0.5	-0.01
_end
