data_functionalizedCrystal
_audit_creation_method	'EQeq! by Chris Wilmer'
_symmetry_space_group_name_H-M	'P1'
_symmetry_Int_Tables_number	1
_symmetry_cell_setting	triclinic
loop_
_symmetry_equiv_pos_as_xyz
  x,y,z
_cell_length_a	11.2015
_cell_length_b	14.9693
_cell_length_c	21.4585
_cell_angle_alpha	90
_cell_angle_beta	92.098
_cell_angle_gamma	90
loop_
_atom_site_label
_atom_site_type_symbol
_atom_site_fract_x
_atom_site_fract_y
_atom_site_fract_z
_atom_site_charge
Mof_Cu	Cu	0.59755	0.23778	0.30033	0.852
Mof_C 	C 	0.4269	0.3854	0.2917	0.079
Mof_H 	H 	0.4189	0.3847	0.3347	-0.015
Mof_C 	C 	0.475	0.353	0.1992	0.078
Mof_H 	H 	0.509	0.3236	0.166	-0.006
Mof_C 	C 	0.3176	0.5316	0.2711	-0.045
Mof_H 	H 	0.2557	0.5457	0.24	0.045
Mof_H 	H 	0.2794	0.5211	0.3103	0.039
Mof_C 	C 	0.4	0.6099	0.2785	-0.111
Mof_H 	H 	0.4439	0.617	0.2407	0.074
Mof_H 	H 	0.3532	0.6635	0.2841	0.06
Mof_C 	C 	0.4894	0.5998	0.334	-0.09
Mof_H 	H 	0.5557	0.5632	0.3213	0.056
Mof_H 	H 	0.4505	0.5686	0.3673	0.048
Mof_C 	C 	0.538	0.6873	0.359	-0.051
Mof_H 	H 	0.5769	0.6771	0.3994	0.044
Mof_H 	H 	0.4716	0.728	0.3649	0.05
Mof_C 	C 	0.7097	0.6941	0.2862	0.084
Mof_H 	H 	0.7242	0.6333	0.2821	-0.013
Mof_C 	C 	0.725	0.833	0.2814	0.092
Mof_H 	H 	0.7539	0.8896	0.2722	-0.008
Mof_C 	C 	0.3677	0.1752	0.3592	0.078
Mof_H 	H 	0.3218	0.1746	0.3222	-0.009
Mof_C 	C 	0.5108	0.1985	0.4278	0.078
Mof_H 	H 	0.5815	0.2159	0.4484	-0.012
Mof_C 	C 	0.422	0.1155	0.5177	-0.061
Mof_H 	H 	0.3455	0.1263	0.5356	0.059
Mof_H 	H 	0.4832	0.1442	0.5442	0.051
Mof_C 	C 	0.446	0.0162	0.5156	-0.094
Mof_H 	H 	0.3771	0.9881	0.4952	0.066
Mof_H 	H 	0.4504	0.9946	0.5582	0.066
Mof_C 	C 	0.6939	0.0579	0.3375	0.08
Mof_H 	H 	0.6282	0.031	0.3174	-0.012
Mof_C 	C 	0.8108	0.1557	0.373	0.111
Mof_H 	H 	0.8466	0.2098	0.3839	-0.023
Mof_C 	C 	0.9665	0.0553	0.4211	-0.036
Mof_H 	H 	0.0089	0.0101	0.3982	0.055
Mof_H 	H 	0.0175	0.1076	0.4249	0.043
Mof_C 	C 	0.942	0.0207	0.4848	-0.106
Mof_H 	H 	0.914	0.0691	0.5106	0.063
Mof_H 	H 	0.8796	0.9757	0.4818	0.068
Mof_N 	N 	0.4854	0.326	0.2598	-0.243
Mof_N 	N 	0.407	0.4283	0.1941	-0.093
Mof_N 	N 	0.38	0.4478	0.2522	-0.09
Mof_N 	N 	0.6313	0.8201	0.3164	-0.1
Mof_N 	N 	0.6209	0.7283	0.3187	-0.093
Mof_N 	N 	0.7752	0.7579	0.2604	-0.247
Mof_N 	N 	0.4809	0.2138	0.3665	-0.238
Mof_N 	N 	0.4234	0.1556	0.4527	-0.09
Mof_N 	N 	0.336	0.1403	0.4113	-0.096
Mof_N 	N 	0.7083	0.1489	0.3425	-0.245
Mof_N 	N 	0.7827	0.0129	0.364	-0.095
Mof_N 	N 	0.8565	0.079	0.3863	-0.102
Mof_Cu	Cu	0.90245	0.73778	0.19967	0.852
Mof_C 	C 	0.0731	0.8854	0.2083	0.08
Mof_H 	H 	0.0811	0.8847	0.1653	-0.013
Mof_C 	C 	0.025	0.853	0.3008	0.084
Mof_H 	H 	0.991	0.8236	0.334	-0.009
Mof_C 	C 	0.1824	0.0316	0.2289	-0.049
Mof_H 	H 	0.2443	0.0457	0.26	0.046
Mof_H 	H 	0.2206	0.0211	0.1897	0.04
Mof_C 	C 	0.1	0.1099	0.2215	-0.104
Mof_H 	H 	0.0561	0.117	0.2593	0.071
Mof_H 	H 	0.1468	0.1635	0.2159	0.058
Mof_C 	C 	0.0106	0.0998	0.166	-0.1
Mof_H 	H 	0.9443	0.0632	0.1787	0.06
Mof_H 	H 	0.0495	0.0686	0.1327	0.05
Mof_C 	C 	0.962	0.1873	0.141	-0.044
Mof_H 	H 	0.9231	0.1771	0.1006	0.042
Mof_H 	H 	0.0284	0.228	0.1351	0.048
Mof_C 	C 	0.7903	0.1941	0.2138	0.085
Mof_H 	H 	0.7758	0.1333	0.2179	-0.014
Mof_C 	C 	0.775	0.333	0.2186	0.092
Mof_H 	H 	0.7461	0.3896	0.2278	-0.008
Mof_C 	C 	0.1323	0.6752	0.1408	0.078
Mof_H 	H 	0.1782	0.6746	0.1778	-0.009
Mof_C 	C 	0.9892	0.6985	0.0722	0.073
Mof_H 	H 	0.9185	0.7159	0.0516	-0.01
Mof_C 	C 	0.078	0.6155	0.9823	-0.062
Mof_H 	H 	0.1545	0.6263	0.9644	0.059
Mof_H 	H 	0.0168	0.6442	0.9558	0.051
Mof_C 	C 	0.054	0.5162	0.9844	-0.094
Mof_H 	H 	0.1229	0.4881	0.0048	0.067
Mof_H 	H 	0.0496	0.4946	0.9418	0.065
Mof_C 	C 	0.8061	0.5579	0.1625	0.08
Mof_H 	H 	0.8718	0.531	0.1826	-0.012
Mof_C 	C 	0.6892	0.6557	0.127	0.11
Mof_H 	H 	0.6534	0.7098	0.1161	-0.023
Mof_C 	C 	0.5335	0.5553	0.0789	-0.045
Mof_H 	H 	0.4911	0.5101	0.1018	0.06
Mof_H 	H 	0.4825	0.6076	0.0751	0.047
Mof_C 	C 	0.558	0.5207	0.0152	-0.108
Mof_H 	H 	0.586	0.5691	0.9894	0.063
Mof_H 	H 	0.6204	0.4757	0.0182	0.07
Mof_N 	N 	0.0146	0.826	0.2402	-0.243
Mof_N 	N 	0.093	0.9283	0.3059	-0.093
Mof_N 	N 	0.12	0.9478	0.2478	-0.089
Mof_N 	N 	0.8687	0.3201	0.1836	-0.1
Mof_N 	N 	0.8791	0.2283	0.1813	-0.094
Mof_N 	N 	0.7248	0.2579	0.2396	-0.247
Mof_N 	N 	0.0191	0.7138	0.1335	-0.236
Mof_N 	N 	0.0766	0.6556	0.0473	-0.087
Mof_N 	N 	0.164	0.6403	0.0887	-0.095
Mof_N 	N 	0.7917	0.6489	0.1575	-0.245
Mof_N 	N 	0.7173	0.5129	0.136	-0.095
Mof_N 	N 	0.6435	0.579	0.1137	-0.101
Mof_Cu	Cu	0.40245	0.76222	0.69967	0.853
Mof_C 	C 	0.5731	0.6146	0.7083	0.08
Mof_H 	H 	0.5811	0.6153	0.6653	-0.014
Mof_C 	C 	0.525	0.647	0.8008	0.079
Mof_H 	H 	0.491	0.6764	0.834	-0.005
Mof_C 	C 	0.6824	0.4684	0.7289	-0.044
Mof_H 	H 	0.7443	0.4543	0.76	0.045
Mof_H 	H 	0.7206	0.4789	0.6897	0.039
Mof_C 	C 	0.6	0.3901	0.7215	-0.111
Mof_H 	H 	0.5561	0.383	0.7593	0.074
Mof_H 	H 	0.6468	0.3365	0.7159	0.06
Mof_C 	C 	0.5106	0.4002	0.666	-0.09
Mof_H 	H 	0.4443	0.4368	0.6787	0.056
Mof_H 	H 	0.5495	0.4314	0.6327	0.048
Mof_C 	C 	0.462	0.3127	0.641	-0.051
Mof_H 	H 	0.4231	0.3229	0.6006	0.044
Mof_H 	H 	0.5284	0.272	0.6351	0.05
Mof_C 	C 	0.2903	0.3059	0.7138	0.084
Mof_H 	H 	0.2758	0.3667	0.7179	-0.013
Mof_C 	C 	0.275	0.167	0.7186	0.092
Mof_H 	H 	0.2461	0.1104	0.7278	-0.008
Mof_C 	C 	0.6323	0.8248	0.6408	0.078
Mof_H 	H 	0.6782	0.8254	0.6778	-0.009
Mof_C 	C 	0.4892	0.8015	0.5722	0.078
Mof_H 	H 	0.4185	0.7841	0.5516	-0.012
Mof_C 	C 	0.578	0.8845	0.4823	-0.061
Mof_H 	H 	0.6545	0.8737	0.4644	0.059
Mof_H 	H 	0.5168	0.8558	0.4558	0.051
Mof_C 	C 	0.554	0.9838	0.4844	-0.094
Mof_H 	H 	0.6229	0.0119	0.5048	0.066
Mof_H 	H 	0.5496	0.0054	0.4418	0.066
Mof_C 	C 	0.3061	0.9421	0.6625	0.08
Mof_H 	H 	0.3718	0.969	0.6826	-0.012
Mof_C 	C 	0.1892	0.8443	0.627	0.111
Mof_H 	H 	0.1534	0.7902	0.6161	-0.023
Mof_C 	C 	0.0335	0.9447	0.5789	-0.036
Mof_H 	H 	0.9911	0.9899	0.6018	0.055
Mof_H 	H 	0.9825	0.8924	0.5751	0.043
Mof_C 	C 	0.058	0.9793	0.5152	-0.106
Mof_H 	H 	0.086	0.9309	0.4894	0.063
Mof_H 	H 	0.1204	0.0243	0.5182	0.068
Mof_N 	N 	0.5146	0.674	0.7402	-0.243
Mof_N 	N 	0.593	0.5717	0.8059	-0.093
Mof_N 	N 	0.62	0.5522	0.7478	-0.09
Mof_N 	N 	0.3687	0.1799	0.6836	-0.1
Mof_N 	N 	0.3791	0.2717	0.6813	-0.093
Mof_N 	N 	0.2248	0.2421	0.7396	-0.247
Mof_N 	N 	0.5191	0.7862	0.6335	-0.238
Mof_N 	N 	0.5766	0.8444	0.5473	-0.09
Mof_N 	N 	0.664	0.8597	0.5887	-0.096
Mof_N 	N 	0.2917	0.8511	0.6575	-0.245
Mof_N 	N 	0.2173	0.9871	0.636	-0.095
Mof_N 	N 	0.1435	0.921	0.6137	-0.102
Mof_Cu	Cu	0.09755	0.26222	0.80033	0.852
Mof_C 	C 	0.9269	0.1146	0.7917	0.08
Mof_H 	H 	0.9189	0.1153	0.8347	-0.013
Mof_C 	C 	0.975	0.147	0.6992	0.084
Mof_H 	H 	0.009	0.1764	0.666	-0.009
Mof_C 	C 	0.8176	0.9684	0.7711	-0.049
Mof_H 	H 	0.7557	0.9543	0.74	0.046
Mof_H 	H 	0.7794	0.9789	0.8103	0.04
Mof_C 	C 	0.9	0.8901	0.7785	-0.104
Mof_H 	H 	0.9439	0.883	0.7407	0.071
Mof_H 	H 	0.8532	0.8365	0.7841	0.058
Mof_C 	C 	0.9894	0.9002	0.834	-0.1
Mof_H 	H 	0.0557	0.9368	0.8213	0.06
Mof_H 	H 	0.9505	0.9314	0.8673	0.05
Mof_C 	C 	0.038	0.8127	0.859	-0.044
Mof_H 	H 	0.0769	0.8229	0.8994	0.042
Mof_H 	H 	0.9716	0.772	0.8649	0.048
Mof_C 	C 	0.2097	0.8059	0.7862	0.085
Mof_H 	H 	0.2242	0.8667	0.7821	-0.014
Mof_C 	C 	0.225	0.667	0.7814	0.092
Mof_H 	H 	0.2539	0.6104	0.7722	-0.008
Mof_C 	C 	0.8677	0.3248	0.8592	0.078
Mof_H 	H 	0.8218	0.3254	0.8222	-0.009
Mof_C 	C 	0.0108	0.3015	0.9278	0.073
Mof_H 	H 	0.0815	0.2841	0.9484	-0.01
Mof_C 	C 	0.922	0.3845	0.0177	-0.062
Mof_H 	H 	0.8455	0.3737	0.0356	0.059
Mof_H 	H 	0.9832	0.3558	0.0442	0.051
Mof_C 	C 	0.946	0.4838	0.0156	-0.094
Mof_H 	H 	0.8771	0.5119	0.9952	0.067
Mof_H 	H 	0.9504	0.5054	0.0582	0.065
Mof_C 	C 	0.1939	0.4421	0.8375	0.08
Mof_H 	H 	0.1282	0.469	0.8174	-0.012
Mof_C 	C 	0.3108	0.3443	0.873	0.11
Mof_H 	H 	0.3466	0.2902	0.8839	-0.023
Mof_C 	C 	0.4665	0.4447	0.9211	-0.045
Mof_H 	H 	0.5089	0.4899	0.8982	0.06
Mof_H 	H 	0.5175	0.3924	0.9249	0.047
Mof_C 	C 	0.442	0.4793	0.9848	-0.108
Mof_H 	H 	0.414	0.4309	0.0106	0.063
Mof_H 	H 	0.3796	0.5243	0.9818	0.07
Mof_N 	N 	0.9854	0.174	0.7598	-0.243
Mof_N 	N 	0.907	0.0717	0.6941	-0.093
Mof_N 	N 	0.88	0.0522	0.7522	-0.089
Mof_N 	N 	0.1313	0.6799	0.8164	-0.1
Mof_N 	N 	0.1209	0.7717	0.8187	-0.094
Mof_N 	N 	0.2752	0.7421	0.7604	-0.247
Mof_N 	N 	0.9809	0.2862	0.8665	-0.236
Mof_N 	N 	0.9234	0.3444	0.9527	-0.087
Mof_N 	N 	0.836	0.3597	0.9113	-0.095
Mof_N 	N 	0.2083	0.3511	0.8425	-0.245
Mof_N 	N 	0.2827	0.4871	0.864	-0.095
Mof_N 	N 	0.3565	0.421	0.8863	-0.101
_end
