# CIF file generated by openbabel 3.1.0, see https://openbabel.org
data_I
_chemical_name_common 'MICNES_clean'
_cell_length_a 13.4588
_cell_length_b 13.4588
_cell_length_c 17.1188
_cell_angle_alpha 111.335
_cell_angle_beta 111.335
_cell_angle_gamma 90.4967
_space_group_name_H-M_alt 'P 1'
_space_group_name_Hall 'P 1'
loop_
    _symmetry_equiv_pos_as_xyz
    x,y,z
loop_
    _atom_site_label
    _atom_site_type_symbol
    _atom_site_fract_x
    _atom_site_fract_y
    _atom_site_fract_z
    _atom_site_occupancy
    Cd1      Cd       0.62538    0.37462    0.25000    1.000
    Cd2      Cd       0.37462    0.62538    0.75000    1.000
    H1       H        0.51640    0.15420    0.05640    1.000
    H2       H        0.82150    0.32230    0.18680    1.000
    H3       H        0.57640    0.01620    0.95390    1.000
    H4       H        0.88060    0.19380    0.08740    1.000
    H5       H        0.72960    0.93800    0.93200    1.000
    H6       H        0.73240    0.00340    0.88700    1.000
    H7       H        0.62690    0.48890    0.45230    1.000
    H8       H        0.58850    0.61110    0.27520    1.000
    H9       H        0.64020    0.66280    0.56290    1.000
    H10      H        0.60640    0.78320    0.38100    1.000
    H11      H        0.62740    0.84640    0.60680    1.000
    H12      H        0.71300    0.88940    0.58020    1.000
    H13      H        0.84580    0.48360    0.44360    1.000
    H14      H        0.67770    0.17850    0.31320    1.000
    H15      H        0.98380    0.42360    0.54610    1.000
    H16      H        0.80620    0.11940    0.41260    1.000
    H17      H        0.06200    0.27040    0.56800    1.000
    H18      H        0.99660    0.26760    0.61300    1.000
    H19      H        0.51110    0.37310    0.04770    1.000
    H20      H        0.38890    0.41150    0.22480    1.000
    H21      H        0.33720    0.35980    0.93710    1.000
    H22      H        0.21680    0.39360    0.11900    1.000
    H23      H        0.15360    0.37260    0.89320    1.000
    H24      H        0.11060    0.28700    0.91980    1.000
    H25      H        0.48360    0.84580    0.94360    1.000
    H26      H        0.17850    0.67770    0.81320    1.000
    H27      H        0.42360    0.98380    0.04610    1.000
    H28      H        0.11940    0.80620    0.91260    1.000
    H29      H        0.27040    0.06200    0.06800    1.000
    H30      H        0.26760    0.99660    0.11300    1.000
    H31      H        0.37310    0.51110    0.54770    1.000
    H32      H        0.41150    0.38890    0.72480    1.000
    H33      H        0.35980    0.33720    0.43710    1.000
    H34      H        0.39360    0.21680    0.61900    1.000
    H35      H        0.37260    0.15360    0.39320    1.000
    H36      H        0.28700    0.11060    0.41980    1.000
    H37      H        0.15420    0.51640    0.55640    1.000
    H38      H        0.32230    0.82150    0.68680    1.000
    H39      H        0.01620    0.57640    0.45390    1.000
    H40      H        0.19380    0.88060    0.58740    1.000
    H41      H        0.93800    0.72960    0.43200    1.000
    H42      H        0.00340    0.73240    0.38700    1.000
    H43      H        0.48890    0.62690    0.95230    1.000
    H44      H        0.61110    0.58850    0.77520    1.000
    H45      H        0.66280    0.64020    0.06290    1.000
    H46      H        0.78320    0.60640    0.88100    1.000
    H47      H        0.84640    0.62740    0.10680    1.000
    H48      H        0.88940    0.71300    0.08020    1.000
    C1       C        0.60125    0.16221    0.06583    1.000
    C2       C        0.76999    0.25865    0.13673    1.000
    C3       C        0.63008    0.08204    0.00407    1.000
    C4       C        0.80544    0.18178    0.07788    1.000
    C5       C        0.73482    0.08966    0.01063    1.000
    C6       C        0.76631    0.00009    0.94363    1.000
    C7       C        0.88685    0.00081    0.97255    1.000
    C8       C        0.94274    0.95482    0.03262    1.000
    C9       C        0.05232    0.95426    0.05887    1.000
    C10      C        0.62130    0.55274    0.43983    1.000
    C11      C        0.60047    0.62525    0.33516    1.000
    C12      C        0.62860    0.65272    0.50549    1.000
    C13      C        0.60773    0.72709    0.39701    1.000
    C14      C        0.62520    0.74340    0.48573    1.000
    C15      C        0.64107    0.85417    0.55932    1.000
    C16      C        0.56849    0.92849    0.52766    1.000
    C17      C        0.46711    0.93107    0.53067    1.000
    C18      C        0.40174    0.00116    0.50471    1.000
    C19      C        0.83779    0.39875    0.43417    1.000
    C20      C        0.74135    0.23001    0.36327    1.000
    C21      C        0.91796    0.36992    0.49593    1.000
    C22      C        0.81822    0.19456    0.42212    1.000
    C23      C        0.91034    0.26518    0.48937    1.000
    C24      C        0.99991    0.23369    0.55637    1.000
    C25      C        0.99919    0.11315    0.52745    1.000
    C26      C        0.04518    0.05726    0.46738    1.000
    C27      C        0.04574    0.94768    0.44113    1.000
    C28      C        0.44726    0.37870    0.06017    1.000
    C29      C        0.37475    0.39953    0.16484    1.000
    C30      C        0.34728    0.37140    0.99451    1.000
    C31      C        0.27291    0.39227    0.10299    1.000
    C32      C        0.25660    0.37480    0.01427    1.000
    C33      C        0.14583    0.35893    0.94068    1.000
    C34      C        0.07151    0.43151    0.97234    1.000
    C35      C        0.06893    0.53289    0.96933    1.000
    C36      C        0.99884    0.59826    0.99529    1.000
    C37      C        0.39875    0.83779    0.93417    1.000
    C38      C        0.23001    0.74135    0.86327    1.000
    C39      C        0.36992    0.91796    0.99593    1.000
    C40      C        0.19456    0.81822    0.92212    1.000
    C41      C        0.26518    0.91034    0.98937    1.000
    C42      C        0.23369    0.99991    0.05637    1.000
    C43      C        0.11315    0.99919    0.02745    1.000
    C44      C        0.05726    0.04518    0.96738    1.000
    C45      C        0.94768    0.04574    0.94113    1.000
    C46      C        0.37870    0.44726    0.56017    1.000
    C47      C        0.39953    0.37475    0.66484    1.000
    C48      C        0.37140    0.34728    0.49451    1.000
    C49      C        0.39227    0.27291    0.60299    1.000
    C50      C        0.37480    0.25660    0.51427    1.000
    C51      C        0.35893    0.14583    0.44068    1.000
    C52      C        0.43151    0.07151    0.47234    1.000
    C53      C        0.53289    0.06893    0.46933    1.000
    C54      C        0.59826    0.99884    0.49529    1.000
    C55      C        0.16221    0.60125    0.56583    1.000
    C56      C        0.25865    0.76999    0.63673    1.000
    C57      C        0.08204    0.63008    0.50407    1.000
    C58      C        0.18178    0.80544    0.57788    1.000
    C59      C        0.08966    0.73482    0.51063    1.000
    C60      C        0.00009    0.76631    0.44363    1.000
    C61      C        0.00081    0.88685    0.47255    1.000
    C62      C        0.95482    0.94274    0.53262    1.000
    C63      C        0.95426    0.05232    0.55887    1.000
    C64      C        0.55274    0.62130    0.93983    1.000
    C65      C        0.62525    0.60047    0.83516    1.000
    C66      C        0.65272    0.62860    0.00549    1.000
    C67      C        0.72709    0.60773    0.89701    1.000
    C68      C        0.74340    0.62520    0.98573    1.000
    C69      C        0.85417    0.64107    0.05932    1.000
    C70      C        0.92849    0.56849    0.02766    1.000
    C71      C        0.93107    0.46711    0.03067    1.000
    C72      C        0.00116    0.40174    0.00471    1.000
    N1       N        0.66946    0.24880    0.13252    1.000
    N2       N        0.60914    0.53766    0.35542    1.000
    N3       N        0.75120    0.33054    0.36748    1.000
    N4       N        0.46234    0.39086    0.14458    1.000
    N5       N        0.33054    0.75120    0.86748    1.000
    N6       N        0.39086    0.46234    0.64458    1.000
    N7       N        0.24880    0.66946    0.63252    1.000
    N8       N        0.53766    0.60914    0.85542    1.000
    F1       F        0.88852    0.90946    0.06675    1.000
    F2       F        0.10069    0.91049    0.12002    1.000
    F3       F        0.43151    0.86471    0.56110    1.000
    F4       F        0.30496    0.00034    0.51157    1.000
    F5       F        0.09054    0.11148    0.43325    1.000
    F6       F        0.08951    0.89931    0.37998    1.000
    F7       F        0.13529    0.56849    0.93890    1.000
    F8       F        0.99966    0.69504    0.98843    1.000
    F9       F        0.11148    0.09054    0.93325    1.000
    F10      F        0.89931    0.08951    0.87998    1.000
    F11      F        0.56849    0.13529    0.43890    1.000
    F12      F        0.69504    0.99966    0.48843    1.000
    F13      F        0.90946    0.88852    0.56675    1.000
    F14      F        0.91049    0.10069    0.62002    1.000
    F15      F        0.86471    0.43151    0.06110    1.000
    F16      F        0.00034    0.30496    0.01157    1.000
