data_functionalizedCrystal
_audit_creation_method	'EQeq! by Chris Wilmer'
_symmetry_space_group_name_H-M	'P1'
_symmetry_Int_Tables_number	1
_symmetry_cell_setting	triclinic
loop_
_symmetry_equiv_pos_as_xyz
  x,y,z
_cell_length_a	8.945
_cell_length_b	14.856
_cell_length_c	19.861
_cell_angle_alpha	91.644
_cell_angle_beta	101.974
_cell_angle_gamma	93.755
loop_
_atom_site_label
_atom_site_type_symbol
_atom_site_fract_x
_atom_site_fract_y
_atom_site_fract_z
_atom_site_charge
Mof_Cd	Cd	0.95981	0.02052	0.27183	0.436
Mof_N 	N 	0.7845	0.968	0.17891	-0.146
Mof_N 	N 	0.658	0.8994	0.08237	-0.161
Mof_N 	N 	0.2111	0.547	0.96044	-0.142
Mof_N 	N 	0.4042	0.6378	0.94616	-0.164
Mof_N 	N 	0.8509	0.91339	0.77785	-0.136
Mof_N 	N 	0.6971	0.8621	0.84331	-0.158
Mof_O 	O 	0.8398	0.52699	0.8967	-0.268
Mof_O 	O 	0.9149	0.67361	0.8967	-0.239
Mof_O 	O 	0.9811	0.13819	0.35219	-0.272
Mof_O 	O 	0.7922	0.15518	0.26364	-0.268
Mof_O 	O 	0.149	0.87443	0.23842	-0.264
Mof_O 	O 	0.1336	0.94224	0.33649	-0.287
Mof_C 	C 	0.6831	0.8806	0.96325	-0.267
Mof_H 	H 	0.7428	0.9349	0.967	0.14
Mof_C 	C 	0.6265	0.8482	0.01876	0.223
Mof_C 	C 	0.5366	0.7678	0.01364	-0.298
Mof_H 	H 	0.5002	0.7469	0.0514	0.141
Mof_C 	C 	0.5019	0.7189	0.95103	0.251
Mof_C 	C 	0.5565	0.7486	0.89493	-0.283
Mof_H 	H 	0.533	0.7154	0.8532	0.144
Mof_C 	C 	0.6472	0.829	0.90227	0.239
Mof_C 	C 	0.7967	0.9294	0.12041	0.11
Mof_H 	H 	0.889	0.9232	0.1068	0.007
Mof_C 	C 	0.6301	0.9632	0.1787	0.008
Mof_H 	H 	0.5872	0.9854	0.2141	0.039
Mof_C 	C 	0.5503	0.9217	0.1198	0.009
Mof_H 	H 	0.4445	0.9103	0.1069	0.035
Mof_C 	C 	0.2768	0.6286	0.97112	0.119
Mof_H 	H 	0.2392	0.6752	0.9936	0.005
Mof_C 	C 	0.3025	0.5008	0.9265	0.009
Mof_H 	H 	0.2852	0.4402	0.9122	0.036
Mof_C 	C 	0.4211	0.5559	0.9169	0.015
Mof_H 	H 	0.4988	0.5412	0.8947	0.039
Mof_C 	C 	0.8419	0.8925	0.84038	0.112
Mof_H 	H 	0.9241	0.8978	0.878	0.011
Mof_C 	C 	0.7055	0.896	0.73832	0.01
Mof_H 	H 	0.6775	0.9051	0.6914	0.043
Mof_C 	C 	0.6098	0.8641	0.77742	0.003
Mof_H 	H 	0.506	0.8468	0.763	0.045
Mof_C 	C 	0.8578	0.6004	0.86687	0.298
Mof_C 	C 	0.8109	0.5961	0.78944	-0.08
Mof_C 	C 	0.7549	0.5151	0.75288	0.017
Mof_H 	H 	0.7389	0.4634	0.7766	0.04
Mof_C 	C 	0.7232	0.5111	0.68189	-0.097
Mof_H 	H 	0.6875	0.4564	0.6583	0.068
Mof_C 	C 	0.7437	0.5875	0.64482	0.033
Mof_C 	C 	0.7954	0.6688	0.68124	-0.095
Mof_H 	H 	0.8074	0.7209	0.6575	0.078
Mof_C 	C 	0.8291	0.6729	0.75232	0.019
Mof_H 	H 	0.8645	0.7277	0.7758	0.049
Mof_C 	C 	0.7087	0.5808	0.56813	0.054
Mof_C 	C 	0.7465	0.5057	0.53353	-0.116
Mof_H 	H 	0.7964	0.4606	0.5588	0.075
Mof_C 	C 	0.7114	0.4966	0.4621	0.049
Mof_C 	C 	0.6363	0.5647	0.42521	-0.115
Mof_H 	H 	0.6148	0.5601	0.3773	0.071
Mof_C 	C 	0.5924	0.6395	0.45837	0.052
Mof_C 	C 	0.6325	0.6476	0.53003	-0.118
Mof_H 	H 	0.608	0.6984	0.5528	0.076
Mof_C 	C 	0.7517	0.4152	0.42684	0.045
Mof_C 	C 	0.6571	0.3778	0.36625	-0.112
Mof_H 	H 	0.5661	0.4036	0.3483	0.073
Mof_C 	C 	0.6965	0.3034	0.33269	0.037
Mof_H 	H 	0.6329	0.2809	0.2917	0.028
Mof_C 	C 	0.8285	0.2614	0.35869	-0.101
Mof_C 	C 	0.9226	0.2973	0.41961	0.057
Mof_H 	H 	0.0117	0.27	0.4383	0.018
Mof_C 	C 	0.8848	0.3732	0.4526	-0.118
Mof_H 	H 	0.9499	0.3966	0.4929	0.079
Mof_C 	C 	0.8702	0.1792	0.3221	0.306
Mof_C 	C 	0.4963	0.7065	0.41882	0.033
Mof_C 	C 	0.4979	0.721	0.3501	-0.097
Mof_H 	H 	0.5655	0.6913	0.329	0.065
Mof_C 	C 	0.4006	0.7791	0.31226	0.022
Mof_H 	H 	0.4029	0.7869	0.2662	0.034
Mof_C 	C 	0.3003	0.8256	0.34222	-0.088
Mof_C 	C 	0.2999	0.8119	0.4108	0.022
Mof_H 	H 	0.2346	0.843	0.4322	0.041
Mof_C 	C 	0.3947	0.7529	0.44803	-0.096
Mof_H 	H 	0.3901	0.7441	0.4938	0.069
Mof_C 	C 	0.1863	0.885	0.3019	0.313
Mof_Cd	Cd	0.04019	0.97948	0.72817	0.419
Mof_N 	N 	0.2155	0.032	0.82109	-0.147
Mof_N 	N 	0.342	0.1006	0.91763	-0.161
Mof_N 	N 	0.7889	0.453	0.03956	-0.142
Mof_N 	N 	0.5958	0.3622	0.05384	-0.16
Mof_N 	N 	0.1491	0.08661	0.22215	-0.142
Mof_N 	N 	0.3029	0.1379	0.15669	-0.158
Mof_O 	O 	0.1602	0.47301	0.1033	-0.28
Mof_O 	O 	0.0851	0.32639	0.1033	-0.251
Mof_O 	O 	0.0189	0.86181	0.64781	-0.278
Mof_O 	O 	0.2078	0.84482	0.73636	-0.267
Mof_O 	O 	0.851	0.12557	0.76158	-0.253
Mof_O 	O 	0.8664	0.05776	0.66351	-0.276
Mof_C 	C 	0.3169	0.1194	0.03675	-0.301
Mof_H 	H 	0.2572	0.0651	0.033	0.141
Mof_C 	C 	0.3735	0.1518	0.98124	0.245
Mof_C 	C 	0.4634	0.2322	0.98636	-0.266
Mof_H 	H 	0.4998	0.2531	0.9486	0.136
Mof_C 	C 	0.4981	0.2811	0.04897	0.22
Mof_C 	C 	0.4435	0.2514	0.10507	-0.276
Mof_H 	H 	0.467	0.2846	0.1468	0.142
Mof_C 	C 	0.3528	0.171	0.09773	0.242
Mof_C 	C 	0.2033	0.0706	0.87959	0.111
Mof_H 	H 	0.111	0.0768	0.8932	0.004
Mof_C 	C 	0.3699	0.0368	0.8213	0.008
Mof_H 	H 	0.4128	0.0146	0.7859	0.038
Mof_C 	C 	0.4497	0.0783	0.8802	0.01
Mof_H 	H 	0.5555	0.0897	0.8931	0.038
Mof_C 	C 	0.7232	0.3714	0.02888	0.115
Mof_H 	H 	0.7608	0.3248	0.0064	0.002
Mof_C 	C 	0.6975	0.4992	0.0735	0.008
Mof_H 	H 	0.7148	0.5598	0.0878	0.035
Mof_C 	C 	0.5789	0.4441	0.0831	0.011
Mof_H 	H 	0.5012	0.4588	0.1053	0.038
Mof_C 	C 	0.1581	0.1075	0.15962	0.111
Mof_H 	H 	0.0759	0.1022	0.122	0.001
Mof_C 	C 	0.2945	0.104	0.26168	0.01
Mof_H 	H 	0.3225	0.0949	0.3086	0.041
Mof_C 	C 	0.3902	0.1359	0.22258	0.002
Mof_H 	H 	0.494	0.1532	0.237	0.045
Mof_C 	C 	0.1422	0.3996	0.13313	0.3
Mof_C 	C 	0.1891	0.4039	0.21056	-0.084
Mof_C 	C 	0.2451	0.4849	0.24712	0.017
Mof_H 	H 	0.2611	0.5366	0.2234	0.037
Mof_C 	C 	0.2768	0.4889	0.31811	-0.098
Mof_H 	H 	0.3125	0.5436	0.3417	0.067
Mof_C 	C 	0.2563	0.4125	0.35518	0.029
Mof_C 	C 	0.2046	0.3312	0.31876	-0.097
Mof_H 	H 	0.1926	0.2791	0.3425	0.074
Mof_C 	C 	0.1709	0.3271	0.24768	0.018
Mof_H 	H 	0.1355	0.2723	0.2242	0.045
Mof_C 	C 	0.2913	0.4192	0.43187	0.057
Mof_C 	C 	0.2535	0.4943	0.46647	-0.127
Mof_H 	H 	0.2036	0.5394	0.4412	0.076
Mof_C 	C 	0.2886	0.5034	0.5379	0.061
Mof_C 	C 	0.3637	0.4353	0.57479	-0.126
Mof_H 	H 	0.3852	0.4399	0.6227	0.073
Mof_C 	C 	0.4076	0.3605	0.54163	0.057
Mof_C 	C 	0.3675	0.3524	0.46997	-0.123
Mof_H 	H 	0.392	0.3016	0.4472	0.077
Mof_C 	C 	0.2483	0.5848	0.57316	0.014
Mof_C 	C 	0.3429	0.6222	0.63375	-0.083
Mof_H 	H 	0.4339	0.5964	0.6517	0.063
Mof_C 	C 	0.3035	0.6966	0.66731	0.005
Mof_H 	H 	0.3671	0.7191	0.7083	0.038
Mof_C 	C 	0.1715	0.7386	0.64131	-0.067
Mof_C 	C 	0.0774	0.7027	0.58039	-0.024
Mof_H 	H 	0.9883	0.73	0.5617	0.064
Mof_C 	C 	0.1152	0.6268	0.5474	-0.069
Mof_H 	H 	0.0501	0.6034	0.5071	0.054
Mof_C 	C 	0.1298	0.8208	0.6779	0.291
Mof_C 	C 	0.5037	0.2935	0.58118	0.027
Mof_C 	C 	0.5021	0.279	0.6499	-0.092
Mof_H 	H 	0.4345	0.3087	0.671	0.062
Mof_C 	C 	0.5994	0.2209	0.68774	0.017
Mof_H 	H 	0.5971	0.2131	0.7338	0.037
Mof_C 	C 	0.6997	0.1744	0.65778	-0.081
Mof_C 	C 	0.7001	0.1881	0.5892	0.017
Mof_H 	H 	0.7654	0.157	0.5678	0.045
Mof_C 	C 	0.6053	0.2471	0.55197	-0.09
Mof_H 	H 	0.6099	0.2559	0.5062	0.067
Mof_C 	C 	0.8137	0.115	0.6981	0.309
Mof_Cd	Cd	1.10424e-17	0.5	-0	0.384
_end
