# CIF file generated by openbabel 3.1.0, see https://openbabel.org
data_I
_chemical_name_common 'image0'
_cell_length_a 21.5327
_cell_length_b 16.4443
_cell_length_c 14.8195
_cell_angle_alpha 90
_cell_angle_beta 92.519
_cell_angle_gamma 90
_space_group_name_H-M_alt 'P 1'
_space_group_name_Hall 'P 1'
loop_
    _symmetry_equiv_pos_as_xyz
    x,y,z
loop_
    _atom_site_label
    _atom_site_type_symbol
    _atom_site_fract_x
    _atom_site_fract_y
    _atom_site_fract_z
    _atom_site_occupancy
    Cu1      Cu       0.23728    0.18740    0.89460    1.000
    Cu2      Cu       0.18402    0.18052    0.49445    1.000
    Cu3      Cu       0.16364    0.38983    0.56412    1.000
    Cu4      Cu       0.11841    0.38922    0.17168    1.000
    N1       N        0.21831    0.22470    0.76470    1.000
    N2       N        0.21381    0.17580    0.69260    1.000
    N3       N        0.19644    0.21920    0.62160    1.000
    N4       N        0.18833    0.29730    0.64680    1.000
    N5       N        0.20152    0.06650    0.46690    1.000
    N6       N        0.24125    0.46040    0.54950    1.000
    N7       N        0.15127    0.26580    0.41210    1.000
    N8       N        0.14595    0.34410    0.43810    1.000
    N9       N        0.12942    0.38820    0.36750    1.000
    N10      N        0.12389    0.34010    0.29400    1.000
    C1       C        0.96600    0.43510    0.38700    1.000
    N11      N        0.09153    0.45900    0.59840    1.000
    N12      N        0.19500    0.46020    0.14830    1.000
    N13      N        0.25349    0.06670    0.88960    1.000
    N14      N        0.04447    0.46030    0.13990    1.000
    N15      N        0.98875    0.43310    0.10770    1.000
    N16      N        0.08157    0.28650    0.00880    1.000
    N17      N        0.12683    0.30570    0.07050    1.000
    N18      N        0.32106    0.22770    0.95310    1.000
    N19      N        0.16870    0.23100    0.97000    1.000
    C2       C        0.20220    0.29870    0.73470    1.000
    C3       C        0.20030    0.37260    0.79150    1.000
    H1       H        0.21640    0.41790    0.75910    1.000
    H2       H        0.22520    0.36420    0.84610    1.000
    H3       H        0.15820    0.38350    0.80620    1.000
    H4       H        0.08520    0.94500    0.49540    1.000
    H5       H        0.07790    0.02730    0.44270    1.000
    H6       H        0.09240    0.02770    0.54730    1.000
    C4       C        0.13700    0.26500    0.32330    1.000
    C5       C        0.13420    0.19100    0.26650    1.000
    H7       H        0.09160    0.17590    0.25460    1.000
    H8       H        0.15570    0.14750    0.29770    1.000
    H9       H        0.15350    0.20160    0.21050    1.000
    C6       C        0.98090    0.34500    0.36770    1.000
    H10      H        0.94450    0.31250    0.37630    1.000
    H11      H        0.01400    0.32700    0.40840    1.000
    H12      H        0.99320    0.33950    0.30660    1.000
    H13      H        0.37050    0.51250    0.08560    1.000
    H14      H        0.33610    0.54020    0.99540    1.000
    H15      H        0.34420    0.44730    0.01680    1.000
    H16      H        0.87700    0.44590    0.03880    1.000
    H17      H        0.88400    0.53590    0.00570    1.000
    H18      H        0.86310    0.51820    0.10380    1.000
    C7       C        0.10840    0.24050    0.94810    1.000
    C8       C        0.07560    0.20650    0.86660    1.000
    H19      H        0.03270    0.19800    0.87860    1.000
    H20      H        0.09430    0.15560    0.85120    1.000
    H21      H        0.07870    0.24390    0.81730    1.000
    Cu5      Cu       0.73728    0.68740    0.89460    1.000
    Cu6      Cu       0.68402    0.68052    0.49445    1.000
    Cu7      Cu       0.66364    0.88983    0.56412    1.000
    Cu8      Cu       0.61841    0.88922    0.17168    1.000
    N20      N        0.71831    0.72470    0.76470    1.000
    N21      N        0.71381    0.67580    0.69260    1.000
    N22      N        0.69644    0.71920    0.62160    1.000
    N23      N        0.68833    0.79730    0.64680    1.000
    N24      N        0.70152    0.56650    0.46690    1.000
    N25      N        0.74125    0.96040    0.54950    1.000
    N26      N        0.65127    0.76580    0.41210    1.000
    N27      N        0.64595    0.84410    0.43810    1.000
    N28      N        0.62942    0.88820    0.36750    1.000
    N29      N        0.62389    0.84010    0.29400    1.000
    C9       C        0.46600    0.93510    0.38700    1.000
    N30      N        0.59153    0.95900    0.59840    1.000
    N31      N        0.69500    0.96020    0.14830    1.000
    N32      N        0.75349    0.56670    0.88960    1.000
    N33      N        0.54447    0.96030    0.13990    1.000
    N34      N        0.48875    0.93310    0.10770    1.000
    N35      N        0.58157    0.78650    0.00880    1.000
    N36      N        0.62683    0.80570    0.07050    1.000
    N37      N        0.82106    0.72770    0.95310    1.000
    N38      N        0.66870    0.73100    0.97000    1.000
    C10      C        0.70220    0.79870    0.73470    1.000
    C11      C        0.70030    0.87260    0.79150    1.000
    H22      H        0.71640    0.91790    0.75910    1.000
    H23      H        0.72520    0.86420    0.84610    1.000
    H24      H        0.65820    0.88350    0.80620    1.000
    H25      H        0.58520    0.44500    0.49540    1.000
    H26      H        0.57790    0.52730    0.44270    1.000
    H27      H        0.59240    0.52770    0.54730    1.000
    C12      C        0.63700    0.76500    0.32330    1.000
    C13      C        0.63420    0.69100    0.26650    1.000
    H28      H        0.59160    0.67590    0.25460    1.000
    H29      H        0.65570    0.64750    0.29770    1.000
    H30      H        0.65350    0.70160    0.21050    1.000
    C14      C        0.48090    0.84500    0.36770    1.000
    H31      H        0.44450    0.81250    0.37630    1.000
    H32      H        0.51400    0.82700    0.40840    1.000
    H33      H        0.49320    0.83950    0.30660    1.000
    H34      H        0.87050    0.01250    0.08560    1.000
    H35      H        0.83610    0.04020    0.99540    1.000
    H36      H        0.84420    0.94730    0.01680    1.000
    H37      H        0.37700    0.94590    0.03880    1.000
    H38      H        0.38400    0.03590    0.00570    1.000
    H39      H        0.36310    0.01820    0.10380    1.000
    C15      C        0.60840    0.74050    0.94810    1.000
    C16      C        0.57560    0.70650    0.86660    1.000
    H40      H        0.53270    0.69800    0.87860    1.000
    H41      H        0.59430    0.65560    0.85120    1.000
    H42      H        0.57870    0.74390    0.81730    1.000
    Cu9      Cu       0.76272    0.18740    0.10540    1.000
    Cu10     Cu       0.81598    0.18052    0.50555    1.000
    Cu11     Cu       0.83636    0.38983    0.43588    1.000
    Cu12     Cu       0.88159    0.38922    0.82832    1.000
    N39      N        0.78169    0.22470    0.23530    1.000
    N40      N        0.78619    0.17580    0.30740    1.000
    N41      N        0.80356    0.21920    0.37840    1.000
    N42      N        0.81167    0.29730    0.35320    1.000
    N43      N        0.79848    0.06650    0.53310    1.000
    N44      N        0.75875    0.46040    0.45050    1.000
    N45      N        0.84873    0.26580    0.58790    1.000
    N46      N        0.85405    0.34410    0.56190    1.000
    N47      N        0.87058    0.38820    0.63250    1.000
    N48      N        0.87611    0.34010    0.70600    1.000
    C17      C        0.03400    0.43510    0.61300    1.000
    N49      N        0.90847    0.45900    0.40160    1.000
    N50      N        0.80500    0.46020    0.85170    1.000
    N51      N        0.74651    0.06670    0.11040    1.000
    N52      N        0.95553    0.46030    0.86010    1.000
    N53      N        0.01125    0.43310    0.89230    1.000
    N54      N        0.91843    0.28650    0.99120    1.000
    N55      N        0.87317    0.30570    0.92950    1.000
    N56      N        0.67894    0.22770    0.04690    1.000
    N57      N        0.83130    0.23100    0.03000    1.000
    C18      C        0.79780    0.29870    0.26530    1.000
    C19      C        0.79970    0.37260    0.20850    1.000
    H43      H        0.78360    0.41790    0.24090    1.000
    H44      H        0.77480    0.36420    0.15390    1.000
    H45      H        0.84180    0.38350    0.19380    1.000
    H46      H        0.91480    0.94500    0.50460    1.000
    H47      H        0.92210    0.02730    0.55730    1.000
    H48      H        0.90760    0.02770    0.45270    1.000
    C20      C        0.86300    0.26500    0.67670    1.000
    C21      C        0.86580    0.19100    0.73350    1.000
    H49      H        0.90840    0.17590    0.74540    1.000
    H50      H        0.84430    0.14750    0.70230    1.000
    H51      H        0.84650    0.20160    0.78950    1.000
    C22      C        0.01910    0.34500    0.63230    1.000
    H52      H        0.05550    0.31250    0.62370    1.000
    H53      H        0.98600    0.32700    0.59160    1.000
    H54      H        0.00680    0.33950    0.69340    1.000
    H55      H        0.62950    0.51250    0.91440    1.000
    H56      H        0.66390    0.54020    0.00460    1.000
    H57      H        0.65580    0.44730    0.98320    1.000
    H58      H        0.12300    0.44590    0.96120    1.000
    H59      H        0.11600    0.53590    0.99430    1.000
    H60      H        0.13690    0.51820    0.89620    1.000
    C23      C        0.89160    0.24050    0.05190    1.000
    C24      C        0.92440    0.20650    0.13340    1.000
    H61      H        0.96730    0.19800    0.12140    1.000
    H62      H        0.90570    0.15560    0.14880    1.000
    H63      H        0.92130    0.24390    0.18270    1.000
    Cu13     Cu       0.26272    0.68740    0.10540    1.000
    Cu14     Cu       0.31598    0.68052    0.50555    1.000
    Cu15     Cu       0.33636    0.88983    0.43588    1.000
    Cu16     Cu       0.38159    0.88922    0.82832    1.000
    N58      N        0.28169    0.72470    0.23530    1.000
    N59      N        0.28619    0.67580    0.30740    1.000
    N60      N        0.30356    0.71920    0.37840    1.000
    N61      N        0.31167    0.79730    0.35320    1.000
    N62      N        0.29848    0.56650    0.53310    1.000
    N63      N        0.25875    0.96040    0.45050    1.000
    N64      N        0.34873    0.76580    0.58790    1.000
    N65      N        0.35405    0.84410    0.56190    1.000
    N66      N        0.37058    0.88820    0.63250    1.000
    N67      N        0.37611    0.84010    0.70600    1.000
    C25      C        0.53400    0.93510    0.61300    1.000
    N68      N        0.40847    0.95900    0.40160    1.000
    N69      N        0.30500    0.96020    0.85170    1.000
    N70      N        0.24651    0.56670    0.11040    1.000
    N71      N        0.45553    0.96030    0.86010    1.000
    N72      N        0.51125    0.93310    0.89230    1.000
    N73      N        0.41843    0.78650    0.99120    1.000
    N74      N        0.37317    0.80570    0.92950    1.000
    N75      N        0.17894    0.72770    0.04690    1.000
    N76      N        0.33130    0.73100    0.03000    1.000
    C26      C        0.29780    0.79870    0.26530    1.000
    C27      C        0.29970    0.87260    0.20850    1.000
    H64      H        0.28360    0.91790    0.24090    1.000
    H65      H        0.27480    0.86420    0.15390    1.000
    H66      H        0.34180    0.88350    0.19380    1.000
    H67      H        0.41480    0.44500    0.50460    1.000
    H68      H        0.42210    0.52730    0.55730    1.000
    H69      H        0.40760    0.52770    0.45270    1.000
    C28      C        0.36300    0.76500    0.67670    1.000
    C29      C        0.36580    0.69100    0.73350    1.000
    H70      H        0.40840    0.67590    0.74540    1.000
    H71      H        0.34430    0.64750    0.70230    1.000
    H72      H        0.34650    0.70160    0.78950    1.000
    C30      C        0.51910    0.84500    0.63230    1.000
    H73      H        0.55550    0.81250    0.62370    1.000
    H74      H        0.48600    0.82700    0.59160    1.000
    H75      H        0.50680    0.83950    0.69340    1.000
    H76      H        0.12950    0.01250    0.91440    1.000
    H77      H        0.16390    0.04020    0.00460    1.000
    H78      H        0.15580    0.94730    0.98320    1.000
    H79      H        0.62300    0.94590    0.96120    1.000
    H80      H        0.61600    0.03590    0.99430    1.000
    H81      H        0.63690    0.01820    0.89620    1.000
    C31      C        0.39160    0.74050    0.05190    1.000
    C32      C        0.42440    0.70650    0.13340    1.000
    H82      H        0.46730    0.69800    0.12140    1.000
    H83      H        0.40570    0.65560    0.14880    1.000
    H84      H        0.42130    0.74390    0.18270    1.000
    Cu17     Cu       0.76272    0.81260    0.10540    1.000
    Cu18     Cu       0.81598    0.81948    0.50555    1.000
    Cu19     Cu       0.83636    0.61017    0.43588    1.000
    Cu20     Cu       0.88159    0.61078    0.82832    1.000
    N77      N        0.78169    0.77530    0.23530    1.000
    N78      N        0.78619    0.82420    0.30740    1.000
    N79      N        0.80356    0.78080    0.37840    1.000
    N80      N        0.81167    0.70270    0.35320    1.000
    N81      N        0.79848    0.93350    0.53310    1.000
    N82      N        0.75875    0.53960    0.45050    1.000
    N83      N        0.84873    0.73420    0.58790    1.000
    N84      N        0.85405    0.65590    0.56190    1.000
    N85      N        0.87058    0.61180    0.63250    1.000
    N86      N        0.87611    0.65990    0.70600    1.000
    C33      C        0.03400    0.56490    0.61300    1.000
    N87      N        0.90847    0.54100    0.40160    1.000
    N88      N        0.80500    0.53980    0.85170    1.000
    N89      N        0.74651    0.93330    0.11040    1.000
    N90      N        0.95553    0.53970    0.86010    1.000
    N91      N        0.01125    0.56690    0.89230    1.000
    N92      N        0.91843    0.71350    0.99120    1.000
    N93      N        0.87317    0.69430    0.92950    1.000
    N94      N        0.67894    0.77230    0.04690    1.000
    N95      N        0.83130    0.76900    0.03000    1.000
    C34      C        0.79780    0.70130    0.26530    1.000
    C35      C        0.79970    0.62740    0.20850    1.000
    H85      H        0.78360    0.58210    0.24090    1.000
    H86      H        0.77480    0.63580    0.15390    1.000
    H87      H        0.84180    0.61650    0.19380    1.000
    H88      H        0.91480    0.05500    0.50460    1.000
    H89      H        0.92210    0.97270    0.55730    1.000
    H90      H        0.90760    0.97230    0.45270    1.000
    C36      C        0.86300    0.73500    0.67670    1.000
    C37      C        0.86580    0.80900    0.73350    1.000
    H91      H        0.90840    0.82410    0.74540    1.000
    H92      H        0.84430    0.85250    0.70230    1.000
    H93      H        0.84650    0.79840    0.78950    1.000
    C38      C        0.01910    0.65500    0.63230    1.000
    H94      H        0.05550    0.68750    0.62370    1.000
    H95      H        0.98600    0.67300    0.59160    1.000
    H96      H        0.00680    0.66050    0.69340    1.000
    H97      H        0.62950    0.48750    0.91440    1.000
    H98      H        0.66390    0.45980    0.00460    1.000
    H99      H        0.65580    0.55270    0.98320    1.000
    H100     H        0.12300    0.55410    0.96120    1.000
    H101     H        0.11600    0.46410    0.99430    1.000
    H102     H        0.13690    0.48180    0.89620    1.000
    C39      C        0.89160    0.75950    0.05190    1.000
    C40      C        0.92440    0.79350    0.13340    1.000
    H103     H        0.96730    0.80200    0.12140    1.000
    H104     H        0.90570    0.84440    0.14880    1.000
    H105     H        0.92130    0.75610    0.18270    1.000
    Cu21     Cu       0.26272    0.31260    0.10540    1.000
    Cu22     Cu       0.31598    0.31948    0.50555    1.000
    Cu23     Cu       0.33636    0.11017    0.43588    1.000
    Cu24     Cu       0.38159    0.11078    0.82832    1.000
    N96      N        0.28169    0.27530    0.23530    1.000
    N97      N        0.28619    0.32420    0.30740    1.000
    N98      N        0.30356    0.28080    0.37840    1.000
    N99      N        0.31167    0.20270    0.35320    1.000
    N100     N        0.29848    0.43350    0.53310    1.000
    N101     N        0.25875    0.03960    0.45050    1.000
    N102     N        0.34873    0.23420    0.58790    1.000
    N103     N        0.35405    0.15590    0.56190    1.000
    N104     N        0.37058    0.11180    0.63250    1.000
    N105     N        0.37611    0.15990    0.70600    1.000
    C41      C        0.53400    0.06490    0.61300    1.000
    N106     N        0.40847    0.04100    0.40160    1.000
    N107     N        0.30500    0.03980    0.85170    1.000
    N108     N        0.24651    0.43330    0.11040    1.000
    N109     N        0.45553    0.03970    0.86010    1.000
    N110     N        0.51125    0.06690    0.89230    1.000
    N111     N        0.41843    0.21350    0.99120    1.000
    N112     N        0.37317    0.19430    0.92950    1.000
    N113     N        0.17894    0.27230    0.04690    1.000
    N114     N        0.33130    0.26900    0.03000    1.000
    C42      C        0.29780    0.20130    0.26530    1.000
    C43      C        0.29970    0.12740    0.20850    1.000
    H106     H        0.28360    0.08210    0.24090    1.000
    H107     H        0.27480    0.13580    0.15390    1.000
    H108     H        0.34180    0.11650    0.19380    1.000
    H109     H        0.41480    0.55500    0.50460    1.000
    H110     H        0.42210    0.47270    0.55730    1.000
    H111     H        0.40760    0.47230    0.45270    1.000
    C44      C        0.36300    0.23500    0.67670    1.000
    C45      C        0.36580    0.30900    0.73350    1.000
    H112     H        0.40840    0.32410    0.74540    1.000
    H113     H        0.34430    0.35250    0.70230    1.000
    H114     H        0.34650    0.29840    0.78950    1.000
    C46      C        0.51910    0.15500    0.63230    1.000
    H115     H        0.55550    0.18750    0.62370    1.000
    H116     H        0.48600    0.17300    0.59160    1.000
    H117     H        0.50680    0.16050    0.69340    1.000
    H118     H        0.12950    0.98750    0.91440    1.000
    H119     H        0.16390    0.95980    0.00460    1.000
    H120     H        0.15580    0.05270    0.98320    1.000
    H121     H        0.62300    0.05410    0.96120    1.000
    H122     H        0.61600    0.96410    0.99430    1.000
    H123     H        0.63690    0.98180    0.89620    1.000
    C47      C        0.39160    0.25950    0.05190    1.000
    C48      C        0.42440    0.29350    0.13340    1.000
    H124     H        0.46730    0.30200    0.12140    1.000
    H125     H        0.40570    0.34440    0.14880    1.000
    H126     H        0.42130    0.25610    0.18270    1.000
    Cu25     Cu       0.23728    0.81260    0.89460    1.000
    Cu26     Cu       0.18402    0.81948    0.49445    1.000
    Cu27     Cu       0.16364    0.61017    0.56412    1.000
    Cu28     Cu       0.11841    0.61078    0.17168    1.000
    N115     N        0.21831    0.77530    0.76470    1.000
    N116     N        0.21381    0.82420    0.69260    1.000
    N117     N        0.19644    0.78080    0.62160    1.000
    N118     N        0.18833    0.70270    0.64680    1.000
    N119     N        0.20152    0.93350    0.46690    1.000
    N120     N        0.24125    0.53960    0.54950    1.000
    N121     N        0.15127    0.73420    0.41210    1.000
    N122     N        0.14595    0.65590    0.43810    1.000
    N123     N        0.12942    0.61180    0.36750    1.000
    N124     N        0.12389    0.65990    0.29400    1.000
    C49      C        0.96600    0.56490    0.38700    1.000
    N125     N        0.09153    0.54100    0.59840    1.000
    N126     N        0.19500    0.53980    0.14830    1.000
    N127     N        0.25349    0.93330    0.88960    1.000
    N128     N        0.04447    0.53970    0.13990    1.000
    N129     N        0.98875    0.56690    0.10770    1.000
    N130     N        0.08157    0.71350    0.00880    1.000
    N131     N        0.12683    0.69430    0.07050    1.000
    N132     N        0.32106    0.77230    0.95310    1.000
    N133     N        0.16870    0.76900    0.97000    1.000
    C50      C        0.20220    0.70130    0.73470    1.000
    C51      C        0.20030    0.62740    0.79150    1.000
    H127     H        0.21640    0.58210    0.75910    1.000
    H128     H        0.22520    0.63580    0.84610    1.000
    H129     H        0.15820    0.61650    0.80620    1.000
    H130     H        0.08520    0.05500    0.49540    1.000
    H131     H        0.07790    0.97270    0.44270    1.000
    H132     H        0.09240    0.97230    0.54730    1.000
    C52      C        0.13700    0.73500    0.32330    1.000
    C53      C        0.13420    0.80900    0.26650    1.000
    H133     H        0.09160    0.82410    0.25460    1.000
    H134     H        0.15570    0.85250    0.29770    1.000
    H135     H        0.15350    0.79840    0.21050    1.000
    C54      C        0.98090    0.65500    0.36770    1.000
    H136     H        0.94450    0.68750    0.37630    1.000
    H137     H        0.01400    0.67300    0.40840    1.000
    H138     H        0.99320    0.66050    0.30660    1.000
    H139     H        0.37050    0.48750    0.08560    1.000
    H140     H        0.33610    0.45980    0.99540    1.000
    H141     H        0.34420    0.55270    0.01680    1.000
    H142     H        0.87700    0.55410    0.03880    1.000
    H143     H        0.88400    0.46410    0.00570    1.000
    H144     H        0.86310    0.48180    0.10380    1.000
    C55      C        0.10840    0.75950    0.94810    1.000
    C56      C        0.07560    0.79350    0.86660    1.000
    H145     H        0.03270    0.80200    0.87860    1.000
    H146     H        0.09430    0.84440    0.85120    1.000
    H147     H        0.07870    0.75610    0.81730    1.000
    Cu29     Cu       0.73728    0.31260    0.89460    1.000
    Cu30     Cu       0.68402    0.31948    0.49445    1.000
    Cu31     Cu       0.66364    0.11017    0.56412    1.000
    Cu32     Cu       0.61841    0.11078    0.17168    1.000
    N134     N        0.71831    0.27530    0.76470    1.000
    N135     N        0.71381    0.32420    0.69260    1.000
    N136     N        0.69644    0.28080    0.62160    1.000
    N137     N        0.68833    0.20270    0.64680    1.000
    N138     N        0.70152    0.43350    0.46690    1.000
    N139     N        0.74125    0.03960    0.54950    1.000
    N140     N        0.65127    0.23420    0.41210    1.000
    N141     N        0.64595    0.15590    0.43810    1.000
    N142     N        0.62942    0.11180    0.36750    1.000
    N143     N        0.62389    0.15990    0.29400    1.000
    C57      C        0.46600    0.06490    0.38700    1.000
    N144     N        0.59153    0.04100    0.59840    1.000
    N145     N        0.69500    0.03980    0.14830    1.000
    N146     N        0.75349    0.43330    0.88960    1.000
    N147     N        0.54447    0.03970    0.13990    1.000
    N148     N        0.48875    0.06690    0.10770    1.000
    N149     N        0.58157    0.21350    0.00880    1.000
    N150     N        0.62683    0.19430    0.07050    1.000
    N151     N        0.82106    0.27230    0.95310    1.000
    N152     N        0.66870    0.26900    0.97000    1.000
    C58      C        0.70220    0.20130    0.73470    1.000
    C59      C        0.70030    0.12740    0.79150    1.000
    H148     H        0.71640    0.08210    0.75910    1.000
    H149     H        0.72520    0.13580    0.84610    1.000
    H150     H        0.65820    0.11650    0.80620    1.000
    H151     H        0.58520    0.55500    0.49540    1.000
    H152     H        0.57790    0.47270    0.44270    1.000
    H153     H        0.59240    0.47230    0.54730    1.000
    C60      C        0.63700    0.23500    0.32330    1.000
    C61      C        0.63420    0.30900    0.26650    1.000
    H154     H        0.59160    0.32410    0.25460    1.000
    H155     H        0.65570    0.35250    0.29770    1.000
    H156     H        0.65350    0.29840    0.21050    1.000
    C62      C        0.48090    0.15500    0.36770    1.000
    H157     H        0.44450    0.18750    0.37630    1.000
    H158     H        0.51400    0.17300    0.40840    1.000
    H159     H        0.49320    0.16050    0.30660    1.000
    H160     H        0.87050    0.98750    0.08560    1.000
    H161     H        0.83610    0.95980    0.99540    1.000
    H162     H        0.84420    0.05270    0.01680    1.000
    H163     H        0.37700    0.05410    0.03880    1.000
    H164     H        0.38400    0.96410    0.00570    1.000
    H165     H        0.36310    0.98180    0.10380    1.000
    C63      C        0.60840    0.25950    0.94810    1.000
    C64      C        0.57560    0.29350    0.86660    1.000
    H166     H        0.53270    0.30200    0.87860    1.000
    H167     H        0.59430    0.34440    0.85120    1.000
    H168     H        0.57870    0.25610    0.81730    1.000
    Cu33     Cu       0.09650    0.50000    0.36915    1.000
    N153     N        0.00260    0.50000    0.37680    1.000
    C65      C        0.95540    0.50000    0.09050    1.000
    C66      C        0.88890    0.50000    0.05660    1.000
    Cu34     Cu       0.59650    0.00000    0.36915    1.000
    N154     N        0.50260    0.00000    0.37680    1.000
    C67      C        0.45540    0.00000    0.09050    1.000
    C68      C        0.38890    0.00000    0.05660    1.000
    Cu35     Cu       0.90350    0.50000    0.63085    1.000
    N155     N        0.99740    0.50000    0.62320    1.000
    C69      C        0.04460    0.50000    0.90950    1.000
    C70      C        0.11110    0.50000    0.94340    1.000
    Cu36     Cu       0.40350    0.00000    0.63085    1.000
    N156     N        0.49740    0.00000    0.62320    1.000
    C71      C        0.54460    0.00000    0.90950    1.000
    C72      C        0.61110    0.00000    0.94340    1.000
    Cu37     Cu       0.00000    0.33885    0.00000    1.000
    Cu38     Cu       0.50000    0.83885    0.00000    1.000
    Cu39     Cu       0.00000    0.66115    0.00000    1.000
    Cu40     Cu       0.50000    0.16115    0.00000    1.000
    C73      C        0.16700    0.00000    0.47630    1.000
    C74      C        0.09980    0.00000    0.49180    1.000
    C75      C        0.22310    0.00000    0.91150    1.000
    C76      C        0.16260    0.00000    0.95750    1.000
    C77      C        0.66700    0.50000    0.47630    1.000
    C78      C        0.59980    0.50000    0.49180    1.000
    C79      C        0.72310    0.50000    0.91150    1.000
    C80      C        0.66260    0.50000    0.95750    1.000
    C81      C        0.83300    0.00000    0.52370    1.000
    C82      C        0.90020    0.00000    0.50820    1.000
    C83      C        0.77690    0.00000    0.08850    1.000
    C84      C        0.83740    0.00000    0.04250    1.000
    C85      C        0.33300    0.50000    0.52370    1.000
    C86      C        0.40020    0.50000    0.50820    1.000
    C87      C        0.27690    0.50000    0.08850    1.000
    C88      C        0.33740    0.50000    0.04250    1.000
