# CIF file generated by openbabel 3.1.0, see https://openbabel.org
data_I
_chemical_name_common 'image0'
_cell_length_a 26.0328
_cell_length_b 9.1655
_cell_length_c 27.4382
_cell_angle_alpha 90
_cell_angle_beta 117.814
_cell_angle_gamma 90
_space_group_name_H-M_alt 'P 1'
_space_group_name_Hall 'P 1'
loop_
    _symmetry_equiv_pos_as_xyz
    x,y,z
loop_
    _atom_site_label
    _atom_site_type_symbol
    _atom_site_fract_x
    _atom_site_fract_y
    _atom_site_fract_z
    _atom_site_occupancy
    Zn1      Zn       0.11317    0.13603    0.16457    1.000
    N1       N        0.25625    0.47110    0.48284    1.000
    N2       N        0.15023    0.92770    0.18693    1.000
    C1       C        0.16437    0.36930    0.31366    1.000
    C2       C        0.14670    0.48400    0.33493    1.000
    H1       H        0.11470    0.53960    0.31160    1.000
    C3       C        0.17629    0.51730    0.39087    1.000
    H2       H        0.16330    0.59320    0.40480    1.000
    C4       C        0.22498    0.43790    0.42591    1.000
    C5       C        0.24286    0.32340    0.40395    1.000
    H3       H        0.27560    0.26930    0.42670    1.000
    C6       C        0.21254    0.28980    0.34903    1.000
    H4       H        0.22470    0.21180    0.33530    1.000
    C7       C        0.31806    0.46350    0.51029    1.000
    C8       C        0.34809    0.41490    0.56471    1.000
    H5       H        0.32770    0.38690    0.58340    1.000
    C9       C        0.40797    0.40820    0.59087    1.000
    H6       H        0.42750    0.37530    0.62710    1.000
    C10      C        0.43937    0.44950    0.56418    1.000
    C11      C        0.40953    0.49680    0.50997    1.000
    H7       H        0.43020    0.52420    0.49140    1.000
    C12      C        0.34984    0.50390    0.48325    1.000
    H8       H        0.33060    0.53580    0.44690    1.000
    C13      C        0.22662    0.52060    0.51187    1.000
    C14      C        0.17390    0.45970    0.50230    1.000
    H9       H        0.15830    0.38350    0.47720    1.000
    C15      C        0.14447    0.51090    0.52957    1.000
    H10      H        0.10890    0.46980    0.52230    1.000
    C16      C        0.16746    0.62400    0.56800    1.000
    C17      C        0.22107    0.68070    0.57852    1.000
    H11      H        0.23760    0.75410    0.60470    1.000
    C18      C        0.25022    0.63070    0.55097    1.000
    H12      H        0.28600    0.67090    0.55860    1.000
    C19      C        0.13261    0.33250    0.25244    1.000
    C20      C        0.50518    0.44410    0.59277    1.000
    C21      C        0.13346    0.68400    0.59564    1.000
    C22      C        0.17943    0.88530    0.23944    1.000
    H13      H        0.18520    0.95220    0.26700    1.000
    C23      C        0.20127    0.74650    0.25428    1.000
    H14      H        0.22200    0.72130    0.29130    1.000
    C24      C        0.19252    0.64620    0.21460    1.000
    H15      H        0.20590    0.55090    0.22390    1.000
    C25      C        0.16394    0.68820    0.16112    1.000
    H16      H        0.15830    0.62260    0.13320    1.000
    C26      C        0.14335    0.82850    0.14844    1.000
    H17      H        0.12380    0.85580    0.11160    1.000
    O1       O        0.09562    0.41570    0.22118    1.000
    O2       O        0.14827    0.21470    0.23944    1.000
    O3       O        0.53176    0.50490    0.57113    1.000
    O4       O        0.52930    0.37800    0.63824    1.000
    O5       O        0.15705    0.78870    0.62848    1.000
    O6       O        0.08533    0.63290    0.58398    1.000
    Zn2      Zn       0.61317    0.63603    0.16457    1.000
    N3       N        0.75625    0.97110    0.48284    1.000
    N4       N        0.65023    0.42770    0.18693    1.000
    C27      C        0.66437    0.86930    0.31366    1.000
    C28      C        0.64670    0.98400    0.33493    1.000
    H18      H        0.61470    0.03960    0.31160    1.000
    C29      C        0.67629    0.01730    0.39087    1.000
    H19      H        0.66330    0.09320    0.40480    1.000
    C30      C        0.72498    0.93790    0.42591    1.000
    C31      C        0.74286    0.82340    0.40395    1.000
    H20      H        0.77560    0.76930    0.42670    1.000
    C32      C        0.71254    0.78980    0.34903    1.000
    H21      H        0.72470    0.71180    0.33530    1.000
    C33      C        0.81806    0.96350    0.51029    1.000
    C34      C        0.84809    0.91490    0.56471    1.000
    H22      H        0.82770    0.88690    0.58340    1.000
    C35      C        0.90797    0.90820    0.59087    1.000
    H23      H        0.92750    0.87530    0.62710    1.000
    C36      C        0.93937    0.94950    0.56418    1.000
    C37      C        0.90953    0.99680    0.50997    1.000
    H24      H        0.93020    0.02420    0.49140    1.000
    C38      C        0.84984    0.00390    0.48325    1.000
    H25      H        0.83060    0.03580    0.44690    1.000
    C39      C        0.72662    0.02060    0.51187    1.000
    C40      C        0.67390    0.95970    0.50230    1.000
    H26      H        0.65830    0.88350    0.47720    1.000
    C41      C        0.64447    0.01090    0.52957    1.000
    H27      H        0.60890    0.96980    0.52230    1.000
    C42      C        0.66746    0.12400    0.56800    1.000
    C43      C        0.72107    0.18070    0.57852    1.000
    H28      H        0.73760    0.25410    0.60470    1.000
    C44      C        0.75022    0.13070    0.55097    1.000
    H29      H        0.78600    0.17090    0.55860    1.000
    C45      C        0.63261    0.83250    0.25244    1.000
    C46      C        0.00518    0.94410    0.59277    1.000
    C47      C        0.63346    0.18400    0.59564    1.000
    C48      C        0.67943    0.38530    0.23944    1.000
    H30      H        0.68520    0.45220    0.26700    1.000
    C49      C        0.70127    0.24650    0.25428    1.000
    H31      H        0.72200    0.22130    0.29130    1.000
    C50      C        0.69252    0.14620    0.21460    1.000
    H32      H        0.70590    0.05090    0.22390    1.000
    C51      C        0.66394    0.18820    0.16112    1.000
    H33      H        0.65830    0.12260    0.13320    1.000
    C52      C        0.64335    0.32850    0.14844    1.000
    H34      H        0.62380    0.35580    0.11160    1.000
    O7       O        0.59562    0.91570    0.22118    1.000
    O8       O        0.64827    0.71470    0.23944    1.000
    O9       O        0.03176    0.00490    0.57113    1.000
    O10      O        0.02930    0.87800    0.63824    1.000
    O11      O        0.65705    0.28870    0.62848    1.000
    O12      O        0.58533    0.13290    0.58398    1.000
    Zn3      Zn       0.11317    0.86397    0.66457    1.000
    N5       N        0.25625    0.52890    0.98284    1.000
    N6       N        0.15023    0.07230    0.68693    1.000
    C53      C        0.16437    0.63070    0.81366    1.000
    C54      C        0.14670    0.51600    0.83493    1.000
    H35      H        0.11470    0.46040    0.81160    1.000
    C55      C        0.17629    0.48270    0.89087    1.000
    H36      H        0.16330    0.40680    0.90480    1.000
    C56      C        0.22498    0.56210    0.92591    1.000
    C57      C        0.24286    0.67660    0.90395    1.000
    H37      H        0.27560    0.73070    0.92670    1.000
    C58      C        0.21254    0.71020    0.84903    1.000
    H38      H        0.22470    0.78820    0.83530    1.000
    C59      C        0.31806    0.53650    0.01029    1.000
    C60      C        0.34809    0.58510    0.06471    1.000
    H39      H        0.32770    0.61310    0.08340    1.000
    C61      C        0.40797    0.59180    0.09087    1.000
    H40      H        0.42750    0.62470    0.12710    1.000
    C62      C        0.43937    0.55050    0.06418    1.000
    C63      C        0.40953    0.50320    0.00997    1.000
    H41      H        0.43020    0.47580    0.99140    1.000
    C64      C        0.34984    0.49610    0.98325    1.000
    H42      H        0.33060    0.46420    0.94690    1.000
    C65      C        0.22662    0.47940    0.01187    1.000
    C66      C        0.17390    0.54030    0.00230    1.000
    H43      H        0.15830    0.61650    0.97720    1.000
    C67      C        0.14447    0.48910    0.02957    1.000
    H44      H        0.10890    0.53020    0.02230    1.000
    C68      C        0.16746    0.37600    0.06800    1.000
    C69      C        0.22107    0.31930    0.07852    1.000
    H45      H        0.23760    0.24590    0.10470    1.000
    C70      C        0.25022    0.36930    0.05097    1.000
    H46      H        0.28600    0.32910    0.05860    1.000
    C71      C        0.13261    0.66750    0.75244    1.000
    C72      C        0.50518    0.55590    0.09277    1.000
    C73      C        0.13346    0.31600    0.09564    1.000
    C74      C        0.17943    0.11470    0.73944    1.000
    H47      H        0.18520    0.04780    0.76700    1.000
    C75      C        0.20127    0.25350    0.75428    1.000
    H48      H        0.22200    0.27870    0.79130    1.000
    C76      C        0.19252    0.35380    0.71460    1.000
    H49      H        0.20590    0.44910    0.72390    1.000
    C77      C        0.16394    0.31180    0.66112    1.000
    H50      H        0.15830    0.37740    0.63320    1.000
    C78      C        0.14335    0.17150    0.64844    1.000
    H51      H        0.12380    0.14420    0.61160    1.000
    O13      O        0.09562    0.58430    0.72118    1.000
    O14      O        0.14827    0.78530    0.73944    1.000
    O15      O        0.53176    0.49510    0.07113    1.000
    O16      O        0.52930    0.62200    0.13824    1.000
    O17      O        0.15705    0.21130    0.12848    1.000
    O18      O        0.08533    0.36710    0.08398    1.000
    Zn4      Zn       0.61317    0.36397    0.66457    1.000
    N7       N        0.75625    0.02890    0.98284    1.000
    N8       N        0.65023    0.57230    0.68693    1.000
    C79      C        0.66437    0.13070    0.81366    1.000
    C80      C        0.64670    0.01600    0.83493    1.000
    H52      H        0.61470    0.96040    0.81160    1.000
    C81      C        0.67629    0.98270    0.89087    1.000
    H53      H        0.66330    0.90680    0.90480    1.000
    C82      C        0.72498    0.06210    0.92591    1.000
    C83      C        0.74286    0.17660    0.90395    1.000
    H54      H        0.77560    0.23070    0.92670    1.000
    C84      C        0.71254    0.21020    0.84903    1.000
    H55      H        0.72470    0.28820    0.83530    1.000
    C85      C        0.81806    0.03650    0.01029    1.000
    C86      C        0.84809    0.08510    0.06471    1.000
    H56      H        0.82770    0.11310    0.08340    1.000
    C87      C        0.90797    0.09180    0.09087    1.000
    H57      H        0.92750    0.12470    0.12710    1.000
    C88      C        0.93937    0.05050    0.06418    1.000
    C89      C        0.90953    0.00320    0.00997    1.000
    H58      H        0.93020    0.97580    0.99140    1.000
    C90      C        0.84984    0.99610    0.98325    1.000
    H59      H        0.83060    0.96420    0.94690    1.000
    C91      C        0.72662    0.97940    0.01187    1.000
    C92      C        0.67390    0.04030    0.00230    1.000
    H60      H        0.65830    0.11650    0.97720    1.000
    C93      C        0.64447    0.98910    0.02957    1.000
    H61      H        0.60890    0.03020    0.02230    1.000
    C94      C        0.66746    0.87600    0.06800    1.000
    C95      C        0.72107    0.81930    0.07852    1.000
    H62      H        0.73760    0.74590    0.10470    1.000
    C96      C        0.75022    0.86930    0.05097    1.000
    H63      H        0.78600    0.82910    0.05860    1.000
    C97      C        0.63261    0.16750    0.75244    1.000
    C98      C        0.00518    0.05590    0.09277    1.000
    C99      C        0.63346    0.81600    0.09564    1.000
    C100     C        0.67943    0.61470    0.73944    1.000
    H64      H        0.68520    0.54780    0.76700    1.000
    C101     C        0.70127    0.75350    0.75428    1.000
    H65      H        0.72200    0.77870    0.79130    1.000
    C102     C        0.69252    0.85380    0.71460    1.000
    H66      H        0.70590    0.94910    0.72390    1.000
    C103     C        0.66394    0.81180    0.66112    1.000
    H67      H        0.65830    0.87740    0.63320    1.000
    C104     C        0.64335    0.67150    0.64844    1.000
    H68      H        0.62380    0.64420    0.61160    1.000
    O19      O        0.59562    0.08430    0.72118    1.000
    O20      O        0.64827    0.28530    0.73944    1.000
    O21      O        0.03176    0.99510    0.07113    1.000
    O22      O        0.02930    0.12200    0.13824    1.000
    O23      O        0.65705    0.71130    0.12848    1.000
    O24      O        0.58533    0.86710    0.08398    1.000
    Zn5      Zn       0.88683    0.13603    0.33543    1.000
    N9       N        0.74375    0.47110    0.01716    1.000
    N10      N        0.84977    0.92770    0.31307    1.000
    C105     C        0.83563    0.36930    0.18634    1.000
    C106     C        0.85330    0.48400    0.16507    1.000
    H69      H        0.88530    0.53960    0.18840    1.000
    C107     C        0.82371    0.51730    0.10913    1.000
    H70      H        0.83670    0.59320    0.09520    1.000
    C108     C        0.77502    0.43790    0.07409    1.000
    C109     C        0.75714    0.32340    0.09605    1.000
    H71      H        0.72440    0.26930    0.07330    1.000
    C110     C        0.78746    0.28980    0.15097    1.000
    H72      H        0.77530    0.21180    0.16470    1.000
    C111     C        0.68194    0.46350    0.98971    1.000
    C112     C        0.65191    0.41490    0.93529    1.000
    H73      H        0.67230    0.38690    0.91660    1.000
    C113     C        0.59203    0.40820    0.90913    1.000
    H74      H        0.57250    0.37530    0.87290    1.000
    C114     C        0.56063    0.44950    0.93582    1.000
    C115     C        0.59047    0.49680    0.99003    1.000
    H75      H        0.56980    0.52420    0.00860    1.000
    C116     C        0.65016    0.50390    0.01675    1.000
    H76      H        0.66940    0.53580    0.05310    1.000
    C117     C        0.77338    0.52060    0.98813    1.000
    C118     C        0.82610    0.45970    0.99770    1.000
    H77      H        0.84170    0.38350    0.02280    1.000
    C119     C        0.85553    0.51090    0.97043    1.000
    H78      H        0.89110    0.46980    0.97770    1.000
    C120     C        0.83254    0.62400    0.93200    1.000
    C121     C        0.77893    0.68070    0.92148    1.000
    H79      H        0.76240    0.75410    0.89530    1.000
    C122     C        0.74978    0.63070    0.94903    1.000
    H80      H        0.71400    0.67090    0.94140    1.000
    C123     C        0.86739    0.33250    0.24756    1.000
    C124     C        0.49482    0.44410    0.90723    1.000
    C125     C        0.86654    0.68400    0.90436    1.000
    C126     C        0.82057    0.88530    0.26056    1.000
    H81      H        0.81480    0.95220    0.23300    1.000
    C127     C        0.79873    0.74650    0.24572    1.000
    H82      H        0.77800    0.72130    0.20870    1.000
    C128     C        0.80748    0.64620    0.28540    1.000
    H83      H        0.79410    0.55090    0.27610    1.000
    C129     C        0.83606    0.68820    0.33888    1.000
    H84      H        0.84170    0.62260    0.36680    1.000
    C130     C        0.85665    0.82850    0.35156    1.000
    H85      H        0.87620    0.85580    0.38840    1.000
    O25      O        0.90438    0.41570    0.27882    1.000
    O26      O        0.85173    0.21470    0.26056    1.000
    O27      O        0.46824    0.50490    0.92887    1.000
    O28      O        0.47070    0.37800    0.86176    1.000
    O29      O        0.84295    0.78870    0.87152    1.000
    O30      O        0.91467    0.63290    0.91602    1.000
    Zn6      Zn       0.38683    0.63603    0.33543    1.000
    N11      N        0.24375    0.97110    0.01716    1.000
    N12      N        0.34977    0.42770    0.31307    1.000
    C131     C        0.33563    0.86930    0.18634    1.000
    C132     C        0.35330    0.98400    0.16507    1.000
    H86      H        0.38530    0.03960    0.18840    1.000
    C133     C        0.32371    0.01730    0.10913    1.000
    H87      H        0.33670    0.09320    0.09520    1.000
    C134     C        0.27502    0.93790    0.07409    1.000
    C135     C        0.25714    0.82340    0.09605    1.000
    H88      H        0.22440    0.76930    0.07330    1.000
    C136     C        0.28746    0.78980    0.15097    1.000
    H89      H        0.27530    0.71180    0.16470    1.000
    C137     C        0.18194    0.96350    0.98971    1.000
    C138     C        0.15191    0.91490    0.93529    1.000
    H90      H        0.17230    0.88690    0.91660    1.000
    C139     C        0.09203    0.90820    0.90913    1.000
    H91      H        0.07250    0.87530    0.87290    1.000
    C140     C        0.06063    0.94950    0.93582    1.000
    C141     C        0.09047    0.99680    0.99003    1.000
    H92      H        0.06980    0.02420    0.00860    1.000
    C142     C        0.15016    0.00390    0.01675    1.000
    H93      H        0.16940    0.03580    0.05310    1.000
    C143     C        0.27338    0.02060    0.98813    1.000
    C144     C        0.32610    0.95970    0.99770    1.000
    H94      H        0.34170    0.88350    0.02280    1.000
    C145     C        0.35553    0.01090    0.97043    1.000
    H95      H        0.39110    0.96980    0.97770    1.000
    C146     C        0.33254    0.12400    0.93200    1.000
    C147     C        0.27893    0.18070    0.92148    1.000
    H96      H        0.26240    0.25410    0.89530    1.000
    C148     C        0.24978    0.13070    0.94903    1.000
    H97      H        0.21400    0.17090    0.94140    1.000
    C149     C        0.36739    0.83250    0.24756    1.000
    C150     C        0.99482    0.94410    0.90723    1.000
    C151     C        0.36654    0.18400    0.90436    1.000
    C152     C        0.32057    0.38530    0.26056    1.000
    H98      H        0.31480    0.45220    0.23300    1.000
    C153     C        0.29873    0.24650    0.24572    1.000
    H99      H        0.27800    0.22130    0.20870    1.000
    C154     C        0.30748    0.14620    0.28540    1.000
    H100     H        0.29410    0.05090    0.27610    1.000
    C155     C        0.33606    0.18820    0.33888    1.000
    H101     H        0.34170    0.12260    0.36680    1.000
    C156     C        0.35665    0.32850    0.35156    1.000
    H102     H        0.37620    0.35580    0.38840    1.000
    O31      O        0.40438    0.91570    0.27882    1.000
    O32      O        0.35173    0.71470    0.26056    1.000
    O33      O        0.96824    0.00490    0.92887    1.000
    O34      O        0.97070    0.87800    0.86176    1.000
    O35      O        0.34295    0.28870    0.87152    1.000
    O36      O        0.41467    0.13290    0.91602    1.000
    Zn7      Zn       0.88683    0.86397    0.83543    1.000
    N13      N        0.74375    0.52890    0.51716    1.000
    N14      N        0.84977    0.07230    0.81307    1.000
    C157     C        0.83563    0.63070    0.68634    1.000
    C158     C        0.85330    0.51600    0.66507    1.000
    H103     H        0.88530    0.46040    0.68840    1.000
    C159     C        0.82371    0.48270    0.60913    1.000
    H104     H        0.83670    0.40680    0.59520    1.000
    C160     C        0.77502    0.56210    0.57409    1.000
    C161     C        0.75714    0.67660    0.59605    1.000
    H105     H        0.72440    0.73070    0.57330    1.000
    C162     C        0.78746    0.71020    0.65097    1.000
    H106     H        0.77530    0.78820    0.66470    1.000
    C163     C        0.68194    0.53650    0.48971    1.000
    C164     C        0.65191    0.58510    0.43529    1.000
    H107     H        0.67230    0.61310    0.41660    1.000
    C165     C        0.59203    0.59180    0.40913    1.000
    H108     H        0.57250    0.62470    0.37290    1.000
    C166     C        0.56063    0.55050    0.43582    1.000
    C167     C        0.59047    0.50320    0.49003    1.000
    H109     H        0.56980    0.47580    0.50860    1.000
    C168     C        0.65016    0.49610    0.51675    1.000
    H110     H        0.66940    0.46420    0.55310    1.000
    C169     C        0.77338    0.47940    0.48813    1.000
    C170     C        0.82610    0.54030    0.49770    1.000
    H111     H        0.84170    0.61650    0.52280    1.000
    C171     C        0.85553    0.48910    0.47043    1.000
    H112     H        0.89110    0.53020    0.47770    1.000
    C172     C        0.83254    0.37600    0.43200    1.000
    C173     C        0.77893    0.31930    0.42148    1.000
    H113     H        0.76240    0.24590    0.39530    1.000
    C174     C        0.74978    0.36930    0.44903    1.000
    H114     H        0.71400    0.32910    0.44140    1.000
    C175     C        0.86739    0.66750    0.74756    1.000
    C176     C        0.49482    0.55590    0.40723    1.000
    C177     C        0.86654    0.31600    0.40436    1.000
    C178     C        0.82057    0.11470    0.76056    1.000
    H115     H        0.81480    0.04780    0.73300    1.000
    C179     C        0.79873    0.25350    0.74572    1.000
    H116     H        0.77800    0.27870    0.70870    1.000
    C180     C        0.80748    0.35380    0.78540    1.000
    H117     H        0.79410    0.44910    0.77610    1.000
    C181     C        0.83606    0.31180    0.83888    1.000
    H118     H        0.84170    0.37740    0.86680    1.000
    C182     C        0.85665    0.17150    0.85156    1.000
    H119     H        0.87620    0.14420    0.88840    1.000
    O37      O        0.90438    0.58430    0.77882    1.000
    O38      O        0.85173    0.78530    0.76056    1.000
    O39      O        0.46824    0.49510    0.42887    1.000
    O40      O        0.47070    0.62200    0.36176    1.000
    O41      O        0.84295    0.21130    0.37152    1.000
    O42      O        0.91467    0.36710    0.41602    1.000
    Zn8      Zn       0.38683    0.36397    0.83543    1.000
    N15      N        0.24375    0.02890    0.51716    1.000
    N16      N        0.34977    0.57230    0.81307    1.000
    C183     C        0.33563    0.13070    0.68634    1.000
    C184     C        0.35330    0.01600    0.66507    1.000
    H120     H        0.38530    0.96040    0.68840    1.000
    C185     C        0.32371    0.98270    0.60913    1.000
    H121     H        0.33670    0.90680    0.59520    1.000
    C186     C        0.27502    0.06210    0.57409    1.000
    C187     C        0.25714    0.17660    0.59605    1.000
    H122     H        0.22440    0.23070    0.57330    1.000
    C188     C        0.28746    0.21020    0.65097    1.000
    H123     H        0.27530    0.28820    0.66470    1.000
    C189     C        0.18194    0.03650    0.48971    1.000
    C190     C        0.15191    0.08510    0.43529    1.000
    H124     H        0.17230    0.11310    0.41660    1.000
    C191     C        0.09203    0.09180    0.40913    1.000
    H125     H        0.07250    0.12470    0.37290    1.000
    C192     C        0.06063    0.05050    0.43582    1.000
    C193     C        0.09047    0.00320    0.49003    1.000
    H126     H        0.06980    0.97580    0.50860    1.000
    C194     C        0.15016    0.99610    0.51675    1.000
    H127     H        0.16940    0.96420    0.55310    1.000
    C195     C        0.27338    0.97940    0.48813    1.000
    C196     C        0.32610    0.04030    0.49770    1.000
    H128     H        0.34170    0.11650    0.52280    1.000
    C197     C        0.35553    0.98910    0.47043    1.000
    H129     H        0.39110    0.03020    0.47770    1.000
    C198     C        0.33254    0.87600    0.43200    1.000
    C199     C        0.27893    0.81930    0.42148    1.000
    H130     H        0.26240    0.74590    0.39530    1.000
    C200     C        0.24978    0.86930    0.44903    1.000
    H131     H        0.21400    0.82910    0.44140    1.000
    C201     C        0.36739    0.16750    0.74756    1.000
    C202     C        0.99482    0.05590    0.40723    1.000
    C203     C        0.36654    0.81600    0.40436    1.000
    C204     C        0.32057    0.61470    0.76056    1.000
    H132     H        0.31480    0.54780    0.73300    1.000
    C205     C        0.29873    0.75350    0.74572    1.000
    H133     H        0.27800    0.77870    0.70870    1.000
    C206     C        0.30748    0.85380    0.78540    1.000
    H134     H        0.29410    0.94910    0.77610    1.000
    C207     C        0.33606    0.81180    0.83888    1.000
    H135     H        0.34170    0.87740    0.86680    1.000
    C208     C        0.35665    0.67150    0.85156    1.000
    H136     H        0.37620    0.64420    0.88840    1.000
    O43      O        0.40438    0.08430    0.77882    1.000
    O44      O        0.35173    0.28530    0.76056    1.000
    O45      O        0.96824    0.99510    0.42887    1.000
    O46      O        0.97070    0.12200    0.36176    1.000
    O47      O        0.34295    0.71130    0.37152    1.000
    O48      O        0.41467    0.86710    0.41602    1.000
