# CIF file generated by openbabel 3.1.0, see https://openbabel.org
data_I
_chemical_name_common 'image0'
_cell_length_a 8.797
_cell_length_b 16.155
_cell_length_c 32.17
_cell_angle_alpha 90
_cell_angle_beta 90
_cell_angle_gamma 90
_space_group_name_H-M_alt 'P 1'
_space_group_name_Hall 'P 1'
loop_
    _symmetry_equiv_pos_as_xyz
    x,y,z
loop_
    _atom_site_label
    _atom_site_type_symbol
    _atom_site_fract_x
    _atom_site_fract_y
    _atom_site_fract_z
    _atom_site_occupancy
    Yb1      Yb       0.88979    0.23160    0.06407    1.000
    O1       O        0.06080    0.16690    0.02173    1.000
    O2       O        0.22150    0.18330    0.96921    1.000
    O3       O        0.23840    0.34380    0.98423    1.000
    O4       O        0.05450    0.32980    0.03274    1.000
    O5       O        0.83960    0.35270    0.10199    1.000
    O6       O        0.94110    0.44770    0.14352    1.000
    O7       O        0.06910    0.25020    0.11683    1.000
    O8       O        0.17090    0.34630    0.15965    1.000
    C1       C        0.14210    0.21030    0.99823    1.000
    C2       C        0.14570    0.30370    0.00601    1.000
    C3       C        0.93860    0.37970    0.12594    1.000
    C4       C        0.07150    0.32000    0.13491    1.000
    Yb2      Yb       0.88979    0.73160    0.56407    1.000
    O9       O        0.06080    0.66690    0.52173    1.000
    O10      O        0.22150    0.68330    0.46921    1.000
    O11      O        0.23840    0.84380    0.48423    1.000
    O12      O        0.05450    0.82980    0.53274    1.000
    O13      O        0.83960    0.85270    0.60199    1.000
    O14      O        0.94110    0.94770    0.64352    1.000
    O15      O        0.06910    0.75020    0.61683    1.000
    O16      O        0.17090    0.84630    0.65965    1.000
    C5       C        0.14210    0.71030    0.49823    1.000
    C6       C        0.14570    0.80370    0.50601    1.000
    C7       C        0.93860    0.87970    0.62594    1.000
    C8       C        0.07150    0.82000    0.63491    1.000
    Yb3      Yb       0.38979    0.23160    0.56407    1.000
    O17      O        0.56080    0.16690    0.52173    1.000
    O18      O        0.72150    0.18330    0.46921    1.000
    O19      O        0.73840    0.34380    0.48423    1.000
    O20      O        0.55450    0.32980    0.53274    1.000
    O21      O        0.33960    0.35270    0.60199    1.000
    O22      O        0.44110    0.44770    0.64352    1.000
    O23      O        0.56910    0.25020    0.61683    1.000
    O24      O        0.67090    0.34630    0.65965    1.000
    C9       C        0.64210    0.21030    0.49823    1.000
    C10      C        0.64570    0.30370    0.50601    1.000
    C11      C        0.43860    0.37970    0.62594    1.000
    C12      C        0.57150    0.32000    0.63491    1.000
    Yb4      Yb       0.38979    0.73160    0.06407    1.000
    O25      O        0.56080    0.66690    0.02173    1.000
    O26      O        0.72150    0.68330    0.96921    1.000
    O27      O        0.73840    0.84380    0.98423    1.000
    O28      O        0.55450    0.82980    0.03274    1.000
    O29      O        0.33960    0.85270    0.10199    1.000
    O30      O        0.44110    0.94770    0.14352    1.000
    O31      O        0.56910    0.75020    0.11683    1.000
    O32      O        0.67090    0.84630    0.15965    1.000
    C13      C        0.64210    0.71030    0.99823    1.000
    C14      C        0.64570    0.80370    0.00601    1.000
    C15      C        0.43860    0.87970    0.12594    1.000
    C16      C        0.57150    0.82000    0.13491    1.000
    Yb5      Yb       0.88979    0.76840    0.93593    1.000
    O33      O        0.06080    0.83310    0.97827    1.000
    O34      O        0.22150    0.81670    0.03079    1.000
    O35      O        0.23840    0.65620    0.01577    1.000
    O36      O        0.05450    0.67020    0.96726    1.000
    O37      O        0.83960    0.64730    0.89801    1.000
    O38      O        0.94110    0.55230    0.85648    1.000
    O39      O        0.06910    0.74980    0.88317    1.000
    O40      O        0.17090    0.65370    0.84035    1.000
    C17      C        0.14210    0.78970    0.00177    1.000
    C18      C        0.14570    0.69630    0.99399    1.000
    C19      C        0.93860    0.62030    0.87406    1.000
    C20      C        0.07150    0.68000    0.86509    1.000
    Yb6      Yb       0.88979    0.26840    0.43593    1.000
    O41      O        0.06080    0.33310    0.47827    1.000
    O42      O        0.22150    0.31670    0.53079    1.000
    O43      O        0.23840    0.15620    0.51577    1.000
    O44      O        0.05450    0.17020    0.46726    1.000
    O45      O        0.83960    0.14730    0.39801    1.000
    O46      O        0.94110    0.05230    0.35648    1.000
    O47      O        0.06910    0.24980    0.38317    1.000
    O48      O        0.17090    0.15370    0.34035    1.000
    C21      C        0.14210    0.28970    0.50177    1.000
    C22      C        0.14570    0.19630    0.49399    1.000
    C23      C        0.93860    0.12030    0.37406    1.000
    C24      C        0.07150    0.18000    0.36509    1.000
    Yb7      Yb       0.38979    0.76840    0.43593    1.000
    O49      O        0.56080    0.83310    0.47827    1.000
    O50      O        0.72150    0.81670    0.53079    1.000
    O51      O        0.73840    0.65620    0.51577    1.000
    O52      O        0.55450    0.67020    0.46726    1.000
    O53      O        0.33960    0.64730    0.39801    1.000
    O54      O        0.44110    0.55230    0.35648    1.000
    O55      O        0.56910    0.74980    0.38317    1.000
    O56      O        0.67090    0.65370    0.34035    1.000
    C25      C        0.64210    0.78970    0.50177    1.000
    C26      C        0.64570    0.69630    0.49399    1.000
    C27      C        0.43860    0.62030    0.37406    1.000
    C28      C        0.57150    0.68000    0.36509    1.000
    Yb8      Yb       0.38979    0.26840    0.93593    1.000
    O57      O        0.56080    0.33310    0.97827    1.000
    O58      O        0.72150    0.31670    0.03079    1.000
    O59      O        0.73840    0.15620    0.01577    1.000
    O60      O        0.55450    0.17020    0.96726    1.000
    O61      O        0.33960    0.14730    0.89801    1.000
    O62      O        0.44110    0.05230    0.85648    1.000
    O63      O        0.56910    0.24980    0.88317    1.000
    O64      O        0.67090    0.15370    0.84035    1.000
    C29      C        0.64210    0.28970    0.00177    1.000
    C30      C        0.64570    0.19630    0.99399    1.000
    C31      C        0.43860    0.12030    0.87406    1.000
    C32      C        0.57150    0.18000    0.86509    1.000
    Yb9      Yb       0.63979    0.98160    0.18593    1.000
    O65      O        0.81080    0.91690    0.22827    1.000
    O66      O        0.97150    0.93330    0.28079    1.000
    O67      O        0.98840    0.09380    0.26577    1.000
    O68      O        0.80450    0.07980    0.21726    1.000
    O69      O        0.58960    0.10270    0.14801    1.000
    O70      O        0.69110    0.19770    0.10648    1.000
    O71      O        0.81910    0.00020    0.13317    1.000
    O72      O        0.92090    0.09630    0.09035    1.000
    C33      C        0.89210    0.96030    0.25177    1.000
    C34      C        0.89570    0.05370    0.24399    1.000
    C35      C        0.68860    0.12970    0.12406    1.000
    C36      C        0.82150    0.07000    0.11509    1.000
    Yb10     Yb       0.63979    0.48160    0.68593    1.000
    O73      O        0.81080    0.41690    0.72827    1.000
    O74      O        0.97150    0.43330    0.78079    1.000
    O75      O        0.98840    0.59380    0.76577    1.000
    O76      O        0.80450    0.57980    0.71726    1.000
    O77      O        0.58960    0.60270    0.64801    1.000
    O78      O        0.69110    0.69770    0.60648    1.000
    O79      O        0.81910    0.50020    0.63317    1.000
    O80      O        0.92090    0.59630    0.59035    1.000
    C37      C        0.89210    0.46030    0.75177    1.000
    C38      C        0.89570    0.55370    0.74399    1.000
    C39      C        0.68860    0.62970    0.62406    1.000
    C40      C        0.82150    0.57000    0.61509    1.000
    Yb11     Yb       0.13979    0.98160    0.68593    1.000
    O81      O        0.31080    0.91690    0.72827    1.000
    O82      O        0.47150    0.93330    0.78079    1.000
    O83      O        0.48840    0.09380    0.76577    1.000
    O84      O        0.30450    0.07980    0.71726    1.000
    O85      O        0.08960    0.10270    0.64801    1.000
    O86      O        0.19110    0.19770    0.60648    1.000
    O87      O        0.31910    0.00020    0.63317    1.000
    O88      O        0.42090    0.09630    0.59035    1.000
    C41      C        0.39210    0.96030    0.75177    1.000
    C42      C        0.39570    0.05370    0.74399    1.000
    C43      C        0.18860    0.12970    0.62406    1.000
    C44      C        0.32150    0.07000    0.61509    1.000
    Yb12     Yb       0.13979    0.48160    0.18593    1.000
    O89      O        0.31080    0.41690    0.22827    1.000
    O90      O        0.47150    0.43330    0.28079    1.000
    O91      O        0.48840    0.59380    0.26577    1.000
    O92      O        0.30450    0.57980    0.21726    1.000
    O93      O        0.08960    0.60270    0.14801    1.000
    O94      O        0.19110    0.69770    0.10648    1.000
    O95      O        0.31910    0.50020    0.13317    1.000
    O96      O        0.42090    0.59630    0.09035    1.000
    C45      C        0.39210    0.46030    0.25177    1.000
    C46      C        0.39570    0.55370    0.24399    1.000
    C47      C        0.18860    0.62970    0.12406    1.000
    C48      C        0.32150    0.57000    0.11509    1.000
    Yb13     Yb       0.63979    0.51840    0.31407    1.000
    O97      O        0.81080    0.58310    0.27173    1.000
    O98      O        0.97150    0.56670    0.21921    1.000
    O99      O        0.98840    0.40620    0.23423    1.000
    O100     O        0.80450    0.42020    0.28274    1.000
    O101     O        0.58960    0.39730    0.35199    1.000
    O102     O        0.69110    0.30230    0.39352    1.000
    O103     O        0.81910    0.49980    0.36683    1.000
    O104     O        0.92090    0.40370    0.40965    1.000
    C49      C        0.89210    0.53970    0.24823    1.000
    C50      C        0.89570    0.44630    0.25601    1.000
    C51      C        0.68860    0.37030    0.37594    1.000
    C52      C        0.82150    0.43000    0.38491    1.000
    Yb14     Yb       0.63979    0.01840    0.81407    1.000
    O105     O        0.81080    0.08310    0.77173    1.000
    O106     O        0.97150    0.06670    0.71921    1.000
    O107     O        0.98840    0.90620    0.73423    1.000
    O108     O        0.80450    0.92020    0.78274    1.000
    O109     O        0.58960    0.89730    0.85199    1.000
    O110     O        0.69110    0.80230    0.89352    1.000
    O111     O        0.81910    0.99980    0.86683    1.000
    O112     O        0.92090    0.90370    0.90965    1.000
    C53      C        0.89210    0.03970    0.74823    1.000
    C54      C        0.89570    0.94630    0.75601    1.000
    C55      C        0.68860    0.87030    0.87594    1.000
    C56      C        0.82150    0.93000    0.88491    1.000
    Yb15     Yb       0.13979    0.51840    0.81407    1.000
    O113     O        0.31080    0.58310    0.77173    1.000
    O114     O        0.47150    0.56670    0.71921    1.000
    O115     O        0.48840    0.40620    0.73423    1.000
    O116     O        0.30450    0.42020    0.78274    1.000
    O117     O        0.08960    0.39730    0.85199    1.000
    O118     O        0.19110    0.30230    0.89352    1.000
    O119     O        0.31910    0.49980    0.86683    1.000
    O120     O        0.42090    0.40370    0.90965    1.000
    C57      C        0.39210    0.53970    0.74823    1.000
    C58      C        0.39570    0.44630    0.75601    1.000
    C59      C        0.18860    0.37030    0.87594    1.000
    C60      C        0.32150    0.43000    0.88491    1.000
    Yb16     Yb       0.13979    0.01840    0.31407    1.000
    O121     O        0.31080    0.08310    0.27173    1.000
    O122     O        0.47150    0.06670    0.21921    1.000
    O123     O        0.48840    0.90620    0.23423    1.000
    O124     O        0.30450    0.92020    0.28274    1.000
    O125     O        0.08960    0.89730    0.35199    1.000
    O126     O        0.19110    0.80230    0.39352    1.000
    O127     O        0.31910    0.99980    0.36683    1.000
    O128     O        0.42090    0.90370    0.40965    1.000
    C61      C        0.39210    0.03970    0.24823    1.000
    C62      C        0.39570    0.94630    0.25601    1.000
    C63      C        0.18860    0.87030    0.37594    1.000
    C64      C        0.32150    0.93000    0.38491    1.000
