# CIF file generated by openbabel 3.1.0, see https://openbabel.org
data_I
_chemical_name_common 'YISFEL_clean'
_cell_length_a 6.349
_cell_length_b 10.258
_cell_length_c 15.737
_cell_angle_alpha 106.79
_cell_angle_beta 93.66
_cell_angle_gamma 103.56
_space_group_name_H-M_alt 'P 1'
_space_group_name_Hall 'P 1'
loop_
    _symmetry_equiv_pos_as_xyz
    x,y,z
loop_
    _atom_site_label
    _atom_site_type_symbol
    _atom_site_fract_x
    _atom_site_fract_y
    _atom_site_fract_z
    _atom_site_occupancy
    Sr1      Sr       0.98654    0.07780    0.64960    1.000
    Sr2      Sr       0.69404    0.73254    0.73627    1.000
    Sr3      Sr       0.01346    0.92220    0.35040    1.000
    Sr4      Sr       0.30596    0.26746    0.26373    1.000
    Cu1      Cu       0.00000    0.50000    0.00000    1.000
    Cu2      Cu       0.50000    0.50000    0.50000    1.000
    C1       C        0.05310    0.27622    0.87179    1.000
    C2       C        0.90130    0.34039    0.82748    1.000
    C3       C        0.75657    0.73863    0.48926    1.000
    C4       C        0.68485    0.63713    0.39236    1.000
    C5       C        0.43078    0.95431    0.67876    1.000
    C6       C        0.24872    0.84944    0.70655    1.000
    C7       C        0.94690    0.72378    0.12821    1.000
    C8       C        0.09870    0.65961    0.17252    1.000
    C9       C        0.24343    0.26137    0.51074    1.000
    C10      C        0.31515    0.36287    0.60764    1.000
    C11      C        0.56922    0.04569    0.32124    1.000
    C12      C        0.75128    0.15056    0.29345    1.000
    O1       O        0.11660    0.33612    0.95527    1.000
    O2       O        0.85360    0.44692    0.87829    1.000
    O3       O        0.10890    0.17357    0.82502    1.000
    O4       O        0.84241    0.29265    0.74643    1.000
    O5       O        0.69208    0.68844    0.55037    1.000
    O6       O        0.43458    0.48536    0.61550    1.000
    O7       O        0.86897    0.86100    0.49966    1.000
    O8       O        0.74638    0.67605    0.32857    1.000
    O9       O        0.29973    0.75170    0.72677    1.000
    O10      O        0.62225    0.94424    0.68984    1.000
    O11      O        0.36880    0.03904    0.64617    1.000
    O12      O        0.06231    0.87119    0.70602    1.000
    O13      O        0.88340    0.66388    0.04473    1.000
    O14      O        0.14640    0.55308    0.12171    1.000
    O15      O        0.89110    0.82643    0.17498    1.000
    O16      O        0.15759    0.70735    0.25357    1.000
    O17      O        0.30792    0.31156    0.44963    1.000
    O18      O        0.56542    0.51464    0.38450    1.000
    O19      O        0.13103    0.13900    0.50034    1.000
    O20      O        0.25362    0.32395    0.67143    1.000
    O21      O        0.70027    0.24830    0.27323    1.000
    O22      O        0.37775    0.05576    0.31016    1.000
    O23      O        0.63120    0.96096    0.35383    1.000
    O24      O        0.93769    0.12881    0.29398    1.000
