data_functionalizedCrystal
_audit_creation_method	'EQeq! by Chris Wilmer'
_symmetry_space_group_name_H-M	'P1'
_symmetry_Int_Tables_number	1
_symmetry_cell_setting	triclinic
loop_
_symmetry_equiv_pos_as_xyz
  x,y,z
_cell_length_a	23.5728
_cell_length_b	6.4248
_cell_length_c	31.1276
_cell_angle_alpha	90
_cell_angle_beta	94.773
_cell_angle_gamma	90
loop_
_atom_site_label
_atom_site_type_symbol
_atom_site_fract_x
_atom_site_fract_y
_atom_site_fract_z
_atom_site_charge
Mof_Zn	Zn	0.30005	0.6969	0.67207	1.032
Mof_O 	O 	0.3013	0.7737	0.6055	-0.592
Mof_O 	O 	0.5831	0.2697	0.3736	-0.198
Mof_O 	O 	0.3374	0.5835	0.202	-0.128
Mof_H 	H 	0.3308	0.5919	0.2283	-0.894
Mof_Zn	Zn	0.33566	0.3958	0.59272	1.229
Mof_Zn	Zn	0.19263	0.52361	0.18978	1.234
Mof_Zn	Zn	0.19722	0.05751	0.21089	1.216
Mof_Zn	Zn	0.32676	0.30872	0.18804	1.222
Mof_C 	C 	0.2247	0.4301	0.5623	0.372
Mof_C 	C 	0.1765	0.4736	0.5285	-0.104
Mof_C 	C 	0.1259	0.5481	0.5406	0.018
Mof_H 	H 	0.1211	0.5633	0.5698	0.031
Mof_C 	C 	0.0816	0.6018	0.5106	-0.078
Mof_H 	H 	0.0474	0.6506	0.5197	0.058
Mof_C 	C 	0.0883	0.5825	0.4663	-0.012
Mof_C 	C 	0.1411	0.5062	0.4537	-0.047
Mof_C 	C 	0.1834	0.4556	0.4853	0.002
Mof_H 	H 	0.2181	0.4074	0.4769	0.045
Mof_C 	C 	0.0399	0.6336	0.4354	0.111
Mof_C 	C 	0.0142	0.8227	0.4351	-0.193
Mof_H 	H 	0.0277	0.9231	0.4549	0.095
Mof_C 	C 	0.9699	0.8684	0.4072	0.117
Mof_H 	H 	0.9525	0.9979	0.4086	0
Mof_C 	C 	0.949	0.7241	0.3757	-0.188
Mof_C 	C 	0.9751	0.5375	0.3761	0.117
Mof_H 	H 	0.9615	0.437	0.3564	0.002
Mof_C 	C 	0.0208	0.4897	0.4044	-0.183
Mof_H 	H 	0.0389	0.3617	0.4027	0.097
Mof_C 	C 	0.8993	0.772	0.3448	0.423
Mof_C 	C 	0.1525	0.4848	0.4082	0.106
Mof_C 	C 	0.1442	0.651	0.3796	-0.155
Mof_H 	H 	0.1318	0.7795	0.3888	0.087
Mof_C 	C 	0.1557	0.618	0.3348	0.079
Mof_H 	H 	0.1511	0.7234	0.3144	0.012
Mof_C 	C 	0.1739	0.418	0.3243	-0.186
Mof_C 	C 	0.1802	0.265	0.3522	0.136
Mof_H 	H 	0.1896	0.1326	0.3428	-0.002
Mof_C 	C 	0.1733	0.295	0.3935	-0.195
Mof_H 	H 	0.1824	0.189	0.4132	0.098
Mof_C 	C 	0.1814	0.392	0.276	0.454
Mof_C 	C 	0.314	0.9434	0.587	0.499
Mof_C 	C 	0.3151	0.9568	0.5394	-0.229
Mof_C 	C 	0.2701	0.8862	0.5131	0.112
Mof_H 	H 	0.2388	0.8286	0.525	-0.002
Mof_C 	C 	0.2705	0.8994	0.4686	-0.139
Mof_H 	H 	0.2388	0.8552	0.4511	0.079
Mof_C 	C 	0.3178	0.9782	0.4495	0.038
Mof_C 	C 	0.3645	0.0484	0.4767	-0.092
Mof_C 	C 	0.3621	0.038	0.5208	0.072
Mof_H 	H 	0.3928	0.0867	0.5386	-0.002
Mof_C 	C 	0.3144	0.9987	0.4017	0.072
Mof_C 	C 	0.2969	0.8373	0.3761	-0.147
Mof_H 	H 	0.2866	0.7116	0.388	0.084
Mof_C 	C 	0.2945	0.8617	0.3319	0.081
Mof_H 	H 	0.2829	0.75	0.3143	0.021
Mof_C 	C 	0.3089	0.0471	0.3131	-0.145
Mof_C 	C 	0.3284	0.2078	0.3398	0.074
Mof_H 	H 	0.3408	0.3311	0.3281	0.024
Mof_C 	C 	0.3295	0.1856	0.3835	-0.139
Mof_H 	H 	0.3405	0.2973	0.4013	0.084
Mof_C 	C 	0.3058	0.0738	0.2651	0.397
Mof_C 	C 	0.4171	0.1287	0.4587	0.15
Mof_C 	C 	0.4473	0.0089	0.4314	-0.202
Mof_H 	H 	0.4353	0.8739	0.4248	0.108
Mof_C 	C 	0.4947	0.0851	0.4138	0.131
Mof_H 	H 	0.5147	0.0017	0.3959	-0.006
Mof_C 	C 	0.5125	0.2869	0.4228	-0.198
Mof_C 	C 	0.4835	0.4009	0.4508	0.135
Mof_H 	H 	0.4961	0.5344	0.4581	-0.005
Mof_C 	C 	0.4363	0.3251	0.4685	-0.214
Mof_H 	H 	0.4173	0.4075	0.4873	0.113
Mof_C 	C 	0.5622	0.3726	0.4033	0.419
Mof_O 	O 	0.2141	0.424	0.6006	-0.443
Mof_O 	O 	0.2733	0.4091	0.5493	-0.479
Mof_O 	O 	0.8793	0.9555	0.344	-0.487
Mof_O 	O 	0.8799	0.6276	0.321	-0.491
Mof_O 	O 	0.1845	0.5299	0.2523	-0.551
Mof_O 	O 	0.1901	0.194	0.2653	-0.501
Mof_O 	O 	0.334	0.0921	0.6101	-0.575
Mof_O 	O 	0.2763	0.9476	0.2418	-0.516
Mof_O 	O 	0.3332	0.2231	0.2499	-0.477
Mof_O 	O 	0.5915	0.5074	0.4243	-0.481
Mof_O 	O 	0.3374	0.4574	0.6559	-0.895
Mof_H 	H 	0.3775	0.4906	0.6635	0.197
Mof_O 	O 	0.2389	0.2774	0.1765	-0.776
Mof_H 	H 	0.2307	0.246	0.1458	0.173
Mof_O 	O 	0.2083	0.8044	0.1718	-0.872
Mof_H 	H 	0.1907	0.8301	0.1426	0.16
Mof_Zn	Zn	0.27173	0.6861	0.65034	0.969
Mof_O 	O 	0.2746	0.8266	0.5977	-0.107
Mof_O 	O 	0.5645	0.36	0.3627	-0.189
Mof_O 	O 	0.2924	0.608	0.1957	-1.435
Mof_H 	H 	0.3093	0.5787	0.2202	1.372
Mof_Zn	Zn	0.69995	0.1969	0.82793	1.031
Mof_O 	O 	0.6987	0.2737	0.8945	-0.593
Mof_O 	O 	0.4169	0.7697	0.1264	-0.198
Mof_O 	O 	0.6626	0.0835	0.298	-0.13
Mof_H 	H 	0.6692	0.0919	0.2717	-0.897
Mof_Zn	Zn	0.66434	0.8958	0.90728	1.228
Mof_Zn	Zn	0.80737	0.02361	0.31022	1.233
Mof_Zn	Zn	0.80278	0.55751	0.28911	1.217
Mof_Zn	Zn	0.67324	0.80872	0.31196	1.223
Mof_C 	C 	0.7753	0.9301	0.9377	0.374
Mof_C 	C 	0.8235	0.9736	0.9715	-0.111
Mof_C 	C 	0.8741	0.0481	0.9594	0.026
Mof_H 	H 	0.8789	0.0633	0.9302	0.029
Mof_C 	C 	0.9184	0.1018	0.9894	-0.087
Mof_H 	H 	0.9526	0.1506	0.9803	0.062
Mof_C 	C 	0.9117	0.0825	0.0337	-0
Mof_C 	C 	0.8589	0.0062	0.0463	-0.058
Mof_C 	C 	0.8166	0.9556	0.0147	0.011
Mof_H 	H 	0.7819	0.9074	0.0231	0.042
Mof_C 	C 	0.9601	0.1336	0.0646	0.09
Mof_C 	C 	0.9858	0.3227	0.0649	-0.173
Mof_H 	H 	0.9723	0.4231	0.0451	0.088
Mof_C 	C 	0.0301	0.3684	0.0928	0.099
Mof_H 	H 	0.0475	0.4979	0.0914	0.005
Mof_C 	C 	0.051	0.2241	0.1243	-0.171
Mof_C 	C 	0.0249	0.0375	0.1239	0.086
Mof_H 	H 	0.0385	0.937	0.1436	0.016
Mof_C 	C 	0.9792	0.9897	0.0956	-0.154
Mof_H 	H 	0.9611	0.8617	0.0973	0.088
Mof_C 	C 	0.1007	0.272	0.1552	0.417
Mof_C 	C 	0.8475	0.9848	0.0918	0.115
Mof_C 	C 	0.8558	0.151	0.1204	-0.161
Mof_H 	H 	0.8682	0.2795	0.1112	0.089
Mof_C 	C 	0.8443	0.118	0.1652	0.078
Mof_H 	H 	0.8489	0.2234	0.1856	0.011
Mof_C 	C 	0.8261	0.918	0.1757	-0.186
Mof_C 	C 	0.8198	0.765	0.1478	0.139
Mof_H 	H 	0.8104	0.6326	0.1572	-0.003
Mof_C 	C 	0.8267	0.795	0.1065	-0.2
Mof_H 	H 	0.8176	0.689	0.0868	0.1
Mof_C 	C 	0.8186	0.892	0.224	0.461
Mof_C 	C 	0.686	0.4434	0.913	0.502
Mof_C 	C 	0.6849	0.4568	0.9606	-0.227
Mof_C 	C 	0.7299	0.3862	0.9869	0.112
Mof_H 	H 	0.7612	0.3286	0.975	-0.002
Mof_C 	C 	0.7295	0.3994	0.0314	-0.14
Mof_H 	H 	0.7612	0.3552	0.0489	0.079
Mof_C 	C 	0.6822	0.4782	0.0505	0.04
Mof_C 	C 	0.6355	0.5484	0.0233	-0.091
Mof_C 	C 	0.6379	0.538	0.9792	0.07
Mof_H 	H 	0.6072	0.5867	0.9614	-0.002
Mof_C 	C 	0.6856	0.4987	0.0983	0.065
Mof_C 	C 	0.7031	0.3373	0.1239	-0.14
Mof_H 	H 	0.7134	0.2116	0.112	0.082
Mof_C 	C 	0.7055	0.3617	0.1681	0.072
Mof_H 	H 	0.7171	0.25	0.1857	0.023
Mof_C 	C 	0.6911	0.5471	0.1869	-0.138
Mof_C 	C 	0.6716	0.7078	0.1602	0.067
Mof_H 	H 	0.6592	0.8311	0.1719	0.027
Mof_C 	C 	0.6705	0.6856	0.1165	-0.132
Mof_H 	H 	0.6595	0.7973	0.0987	0.082
Mof_C 	C 	0.6942	0.5738	0.2349	0.399
Mof_C 	C 	0.5829	0.6287	0.0413	0.149
Mof_C 	C 	0.5527	0.5089	0.0686	-0.199
Mof_H 	H 	0.5647	0.3739	0.0752	0.106
Mof_C 	C 	0.5053	0.5851	0.0862	0.129
Mof_H 	H 	0.4853	0.5017	0.1041	-0.005
Mof_C 	C 	0.4875	0.7869	0.0772	-0.197
Mof_C 	C 	0.5165	0.9009	0.0492	0.135
Mof_H 	H 	0.5039	0.0344	0.0419	-0.005
Mof_C 	C 	0.5637	0.8251	0.0315	-0.213
Mof_H 	H 	0.5827	0.9075	0.0127	0.113
Mof_C 	C 	0.4378	0.8726	0.0967	0.42
Mof_O 	O 	0.7859	0.924	0.8994	-0.445
Mof_O 	O 	0.7267	0.9091	0.9507	-0.48
Mof_O 	O 	0.1207	0.4555	0.156	-0.488
Mof_O 	O 	0.1201	0.1276	0.179	-0.491
Mof_O 	O 	0.8155	0.0299	0.2477	-0.557
Mof_O 	O 	0.8099	0.694	0.2347	-0.501
Mof_O 	O 	0.666	0.5921	0.8899	-0.578
Mof_O 	O 	0.7237	0.4476	0.2582	-0.52
Mof_O 	O 	0.6668	0.7231	0.2501	-0.476
Mof_O 	O 	0.4085	0.0074	0.0757	-0.482
Mof_O 	O 	0.6626	0.9574	0.8441	-0.896
Mof_H 	H 	0.6225	0.9906	0.8365	0.197
Mof_O 	O 	0.7611	0.7774	0.3235	-0.774
Mof_H 	H 	0.7693	0.746	0.3542	0.173
Mof_O 	O 	0.7917	0.3044	0.3282	-0.873
Mof_H 	H 	0.8093	0.3301	0.3574	0.159
Mof_Zn	Zn	0.72827	0.1861	0.84966	0.969
Mof_O 	O 	0.7254	0.3266	0.9023	-0.106
Mof_O 	O 	0.4355	0.86	0.1373	-0.189
Mof_O 	O 	0.7076	0.108	0.3043	-1.437
Mof_H 	H 	0.6907	0.0787	0.2798	1.374
Mof_Zn	Zn	0.69995	0.3031	0.32793	1.031
Mof_O 	O 	0.6987	0.2263	0.3945	-0.593
Mof_O 	O 	0.4169	0.7303	0.6264	-0.199
Mof_O 	O 	0.6626	0.4165	0.798	-0.129
Mof_H 	H 	0.6692	0.4081	0.7717	-0.895
Mof_Zn	Zn	0.66434	0.6042	0.40728	1.228
Mof_Zn	Zn	0.80737	0.47639	0.81022	1.234
Mof_Zn	Zn	0.80278	0.94249	0.78911	1.216
Mof_Zn	Zn	0.67324	0.69128	0.81196	1.222
Mof_C 	C 	0.7753	0.5699	0.4377	0.372
Mof_C 	C 	0.8235	0.5264	0.4715	-0.104
Mof_C 	C 	0.8741	0.4519	0.4594	0.018
Mof_H 	H 	0.8789	0.4367	0.4302	0.031
Mof_C 	C 	0.9184	0.3982	0.4894	-0.078
Mof_H 	H 	0.9526	0.3494	0.4803	0.058
Mof_C 	C 	0.9117	0.4175	0.5337	-0.012
Mof_C 	C 	0.8589	0.4938	0.5463	-0.047
Mof_C 	C 	0.8166	0.5444	0.5147	0.002
Mof_H 	H 	0.7819	0.5926	0.5231	0.045
Mof_C 	C 	0.9601	0.3664	0.5646	0.111
Mof_C 	C 	0.9858	0.1773	0.5649	-0.193
Mof_H 	H 	0.9723	0.0769	0.5451	0.095
Mof_C 	C 	0.0301	0.1316	0.5928	0.117
Mof_H 	H 	0.0475	0.0021	0.5914	0
Mof_C 	C 	0.051	0.2759	0.6243	-0.188
Mof_C 	C 	0.0249	0.4625	0.6239	0.117
Mof_H 	H 	0.0385	0.563	0.6436	0.002
Mof_C 	C 	0.9792	0.5103	0.5956	-0.183
Mof_H 	H 	0.9611	0.6383	0.5973	0.097
Mof_C 	C 	0.1007	0.228	0.6552	0.423
Mof_C 	C 	0.8475	0.5152	0.5918	0.106
Mof_C 	C 	0.8558	0.349	0.6204	-0.155
Mof_H 	H 	0.8682	0.2205	0.6112	0.087
Mof_C 	C 	0.8443	0.382	0.6652	0.079
Mof_H 	H 	0.8489	0.2766	0.6856	0.012
Mof_C 	C 	0.8261	0.582	0.6757	-0.186
Mof_C 	C 	0.8198	0.735	0.6478	0.136
Mof_H 	H 	0.8104	0.8674	0.6572	-0.002
Mof_C 	C 	0.8267	0.705	0.6065	-0.195
Mof_H 	H 	0.8176	0.811	0.5868	0.098
Mof_C 	C 	0.8186	0.608	0.724	0.454
Mof_C 	C 	0.686	0.0566	0.413	0.499
Mof_C 	C 	0.6849	0.0432	0.4606	-0.229
Mof_C 	C 	0.7299	0.1138	0.4869	0.112
Mof_H 	H 	0.7612	0.1714	0.475	-0.002
Mof_C 	C 	0.7295	0.1006	0.5314	-0.139
Mof_H 	H 	0.7612	0.1448	0.5489	0.079
Mof_C 	C 	0.6822	0.0218	0.5505	0.038
Mof_C 	C 	0.6355	0.9516	0.5233	-0.092
Mof_C 	C 	0.6379	0.962	0.4792	0.072
Mof_H 	H 	0.6072	0.9133	0.4614	-0.002
Mof_C 	C 	0.6856	0.0013	0.5983	0.072
Mof_C 	C 	0.7031	0.1627	0.6239	-0.147
Mof_H 	H 	0.7134	0.2884	0.612	0.084
Mof_C 	C 	0.7055	0.1383	0.6681	0.081
Mof_H 	H 	0.7171	0.25	0.6857	0.021
Mof_C 	C 	0.6911	0.9529	0.6869	-0.145
Mof_C 	C 	0.6716	0.7922	0.6602	0.074
Mof_H 	H 	0.6592	0.6689	0.6719	0.024
Mof_C 	C 	0.6705	0.8144	0.6165	-0.139
Mof_H 	H 	0.6595	0.7027	0.5987	0.084
Mof_C 	C 	0.6942	0.9262	0.7349	0.397
Mof_C 	C 	0.5829	0.8713	0.5413	0.15
Mof_C 	C 	0.5527	0.9911	0.5686	-0.202
Mof_H 	H 	0.5647	0.1261	0.5752	0.108
Mof_C 	C 	0.5053	0.9149	0.5862	0.131
Mof_H 	H 	0.4853	0.9983	0.6041	-0.006
Mof_C 	C 	0.4875	0.7131	0.5772	-0.198
Mof_C 	C 	0.5165	0.5991	0.5492	0.135
Mof_H 	H 	0.5039	0.4656	0.5419	-0.005
Mof_C 	C 	0.5637	0.6749	0.5315	-0.214
Mof_H 	H 	0.5827	0.5925	0.5127	0.113
Mof_C 	C 	0.4378	0.6274	0.5967	0.419
Mof_O 	O 	0.7859	0.576	0.3994	-0.443
Mof_O 	O 	0.7267	0.5909	0.4507	-0.479
Mof_O 	O 	0.1207	0.0445	0.656	-0.487
Mof_O 	O 	0.1201	0.3724	0.679	-0.491
Mof_O 	O 	0.8155	0.4701	0.7477	-0.551
Mof_O 	O 	0.8099	0.806	0.7347	-0.501
Mof_O 	O 	0.666	0.9079	0.3899	-0.575
Mof_O 	O 	0.7237	0.0524	0.7582	-0.516
Mof_O 	O 	0.6668	0.7769	0.7501	-0.477
Mof_O 	O 	0.4085	0.4926	0.5757	-0.481
Mof_O 	O 	0.6626	0.5426	0.3441	-0.895
Mof_H 	H 	0.6225	0.5094	0.3365	0.197
Mof_O 	O 	0.7611	0.7226	0.8235	-0.776
Mof_H 	H 	0.7693	0.754	0.8542	0.173
Mof_O 	O 	0.7917	0.1956	0.8282	-0.872
Mof_H 	H 	0.8093	0.1699	0.8574	0.16
Mof_Zn	Zn	0.72827	0.3139	0.34966	0.969
Mof_O 	O 	0.7254	0.1734	0.4023	-0.107
Mof_O 	O 	0.4355	0.64	0.6373	-0.189
Mof_O 	O 	0.7076	0.392	0.8043	-1.435
Mof_H 	H 	0.6907	0.4213	0.7798	1.372
Mof_Zn	Zn	0.30005	0.8031	0.17207	1.031
Mof_O 	O 	0.3013	0.7263	0.1055	-0.593
Mof_O 	O 	0.5831	0.2303	0.8736	-0.198
Mof_O 	O 	0.3374	0.9165	0.702	-0.13
Mof_H 	H 	0.3308	0.9081	0.7283	-0.897
Mof_Zn	Zn	0.33566	0.1042	0.09272	1.228
Mof_Zn	Zn	0.19263	0.97639	0.68978	1.233
Mof_Zn	Zn	0.19722	0.44249	0.71089	1.217
Mof_Zn	Zn	0.32676	0.19128	0.68804	1.223
Mof_C 	C 	0.2247	0.0699	0.0623	0.374
Mof_C 	C 	0.1765	0.0264	0.0285	-0.111
Mof_C 	C 	0.1259	0.9519	0.0406	0.026
Mof_H 	H 	0.1211	0.9367	0.0698	0.029
Mof_C 	C 	0.0816	0.8982	0.0106	-0.087
Mof_H 	H 	0.0474	0.8494	0.0197	0.062
Mof_C 	C 	0.0883	0.9175	0.9663	-0
Mof_C 	C 	0.1411	0.9938	0.9537	-0.058
Mof_C 	C 	0.1834	0.0444	0.9853	0.011
Mof_H 	H 	0.2181	0.0926	0.9769	0.042
Mof_C 	C 	0.0399	0.8664	0.9354	0.09
Mof_C 	C 	0.0142	0.6773	0.9351	-0.173
Mof_H 	H 	0.0277	0.5769	0.9549	0.088
Mof_C 	C 	0.9699	0.6316	0.9072	0.099
Mof_H 	H 	0.9525	0.5021	0.9086	0.005
Mof_C 	C 	0.949	0.7759	0.8757	-0.171
Mof_C 	C 	0.9751	0.9625	0.8761	0.086
Mof_H 	H 	0.9615	0.063	0.8564	0.016
Mof_C 	C 	0.0208	0.0103	0.9044	-0.154
Mof_H 	H 	0.0389	0.1383	0.9027	0.088
Mof_C 	C 	0.8993	0.728	0.8448	0.417
Mof_C 	C 	0.1525	0.0152	0.9082	0.115
Mof_C 	C 	0.1442	0.849	0.8796	-0.161
Mof_H 	H 	0.1318	0.7205	0.8888	0.089
Mof_C 	C 	0.1557	0.882	0.8348	0.078
Mof_H 	H 	0.1511	0.7766	0.8144	0.011
Mof_C 	C 	0.1739	0.082	0.8243	-0.186
Mof_C 	C 	0.1802	0.235	0.8522	0.139
Mof_H 	H 	0.1896	0.3674	0.8428	-0.003
Mof_C 	C 	0.1733	0.205	0.8935	-0.2
Mof_H 	H 	0.1824	0.311	0.9132	0.1
Mof_C 	C 	0.1814	0.108	0.776	0.461
Mof_C 	C 	0.314	0.5566	0.087	0.502
Mof_C 	C 	0.3151	0.5432	0.0394	-0.227
Mof_C 	C 	0.2701	0.6138	0.0131	0.112
Mof_H 	H 	0.2388	0.6714	0.025	-0.002
Mof_C 	C 	0.2705	0.6006	0.9686	-0.14
Mof_H 	H 	0.2388	0.6448	0.9511	0.079
Mof_C 	C 	0.3178	0.5218	0.9495	0.04
Mof_C 	C 	0.3645	0.4516	0.9767	-0.091
Mof_C 	C 	0.3621	0.462	0.0208	0.07
Mof_H 	H 	0.3928	0.4133	0.0386	-0.002
Mof_C 	C 	0.3144	0.5013	0.9017	0.065
Mof_C 	C 	0.2969	0.6627	0.8761	-0.14
Mof_H 	H 	0.2866	0.7884	0.888	0.082
Mof_C 	C 	0.2945	0.6383	0.8319	0.072
Mof_H 	H 	0.2829	0.75	0.8143	0.023
Mof_C 	C 	0.3089	0.4529	0.8131	-0.138
Mof_C 	C 	0.3284	0.2922	0.8398	0.067
Mof_H 	H 	0.3408	0.1689	0.8281	0.027
Mof_C 	C 	0.3295	0.3144	0.8835	-0.132
Mof_H 	H 	0.3405	0.2027	0.9013	0.082
Mof_C 	C 	0.3058	0.4262	0.7651	0.399
Mof_C 	C 	0.4171	0.3713	0.9587	0.149
Mof_C 	C 	0.4473	0.4911	0.9314	-0.199
Mof_H 	H 	0.4353	0.6261	0.9248	0.106
Mof_C 	C 	0.4947	0.4149	0.9138	0.129
Mof_H 	H 	0.5147	0.4983	0.8959	-0.005
Mof_C 	C 	0.5125	0.2131	0.9228	-0.197
Mof_C 	C 	0.4835	0.0991	0.9508	0.135
Mof_H 	H 	0.4961	0.9656	0.9581	-0.005
Mof_C 	C 	0.4363	0.1749	0.9685	-0.213
Mof_H 	H 	0.4173	0.0925	0.9873	0.113
Mof_C 	C 	0.5622	0.1274	0.9033	0.42
Mof_O 	O 	0.2141	0.076	0.1006	-0.445
Mof_O 	O 	0.2733	0.0909	0.0493	-0.48
Mof_O 	O 	0.8793	0.5445	0.844	-0.488
Mof_O 	O 	0.8799	0.8724	0.821	-0.491
Mof_O 	O 	0.1845	0.9701	0.7523	-0.557
Mof_O 	O 	0.1901	0.306	0.7653	-0.501
Mof_O 	O 	0.334	0.4079	0.1101	-0.578
Mof_O 	O 	0.2763	0.5524	0.7418	-0.52
Mof_O 	O 	0.3332	0.2769	0.7499	-0.476
Mof_O 	O 	0.5915	0.9926	0.9243	-0.482
Mof_O 	O 	0.3374	0.0426	0.1559	-0.896
Mof_H 	H 	0.3775	0.0094	0.1635	0.197
Mof_O 	O 	0.2389	0.2226	0.6765	-0.774
Mof_H 	H 	0.2307	0.254	0.6458	0.173
Mof_O 	O 	0.2083	0.6956	0.6718	-0.873
Mof_H 	H 	0.1907	0.6699	0.6426	0.159
Mof_Zn	Zn	0.27173	0.8139	0.15034	0.969
Mof_O 	O 	0.2746	0.6734	0.0977	-0.106
Mof_O 	O 	0.5645	0.14	0.8627	-0.189
Mof_O 	O 	0.2924	0.892	0.6957	-1.437
Mof_H 	H 	0.3093	0.9213	0.7202	1.374
_end
