data_functionalizedCrystal
_audit_creation_method	'EQeq! by Chris Wilmer'
_symmetry_space_group_name_H-M	'P1'
_symmetry_Int_Tables_number	1
_symmetry_cell_setting	triclinic
loop_
_symmetry_equiv_pos_as_xyz
  x,y,z
_cell_length_a	9.592
_cell_length_b	9.592
_cell_length_c	11.021
_cell_angle_alpha	91.4204
_cell_angle_beta	91.4204
_cell_angle_gamma	105.98
loop_
_atom_site_label
_atom_site_type_symbol
_atom_site_fract_x
_atom_site_fract_y
_atom_site_fract_z
_atom_site_charge
Mof_C 	C 	0.5002	0.1196	0.42384	-0.038
Mof_C 	C 	0.49341	0.23512	0.3368	0.276
Mof_C 	C 	0.51988	0.14573	0.55117	-0.043
Mof_C 	C 	0.51655	0.03027	0.62786	0.003
Mof_H 	H 	0.53224	0.05328	0.72487	0.057
Mof_C 	C 	0.54489	0.29085	0.609	0.285
Mof_N 	N 	0.84177	0.74755	0.53114	-0.268
Mof_O 	O 	0.51564	0.37894	0.37576	-0.395
Mof_O 	O 	0.46748	0.20416	0.22912	-0.268
Mof_O 	O 	0.65347	0.38696	0.58786	-0.26
Mof_O 	O 	0.44741	0.31601	0.69235	-0.408
Mof_C 	C 	0.88276	0.50182	0.08207	-0.02
Mof_C 	C 	0.76723	0.50799	0.16923	0.271
Mof_C 	C 	0.8569	0.48353	0.95461	-0.064
Mof_C 	C 	0.97248	0.48715	0.87796	0.013
Mof_H 	H 	0.94967	0.47211	0.78089	0.055
Mof_C 	C 	0.71181	0.4588	0.89663	0.289
Mof_N 	N 	0.25344	0.13359	0.95634	-0.268
Mof_O 	O 	0.62366	0.48712	0.13017	-0.389
Mof_O 	O 	0.79793	0.53226	0.27709	-0.271
Mof_O 	O 	0.61533	0.35067	0.91812	-0.266
Mof_O 	O 	0.68692	0.55592	0.81281	-0.41
Mof_C 	C 	0.49697	0.88757	0.58207	-0.042
Mof_C 	C 	0.50341	0.77209	0.66921	0.277
Mof_C 	C 	0.47761	0.86147	0.45468	-0.041
Mof_C 	C 	0.48073	0.97691	0.37803	0.002
Mof_H 	H 	0.46491	0.95391	0.28103	0.058
Mof_C 	C 	0.453	0.71636	0.39679	0.284
Mof_N 	N 	0.14216	0.28149	0.46049	-0.269
Mof_O 	O 	0.48155	0.62835	0.63019	-0.396
Mof_O 	O 	0.52876	0.80294	0.77693	-0.276
Mof_O 	O 	0.34473	0.61993	0.41809	-0.26
Mof_O 	O 	0.55046	0.69157	0.31327	-0.408
Mof_C 	C 	0.11502	0.5059	0.92385	-0.061
Mof_C 	C 	0.23052	0.49914	0.83678	0.281
Mof_C 	C 	0.14092	0.52452	0.05127	-0.021
Mof_C 	C 	0.02531	0.52066	0.12794	-0.009
Mof_H 	H 	0.04809	0.53537	0.22502	0.061
Mof_C 	C 	0.28605	0.54941	0.1091	0.281
Mof_N 	N 	0.73744	0.85087	0.0396	-0.263
Mof_O 	O 	0.37409	0.51978	0.87591	-0.399
Mof_O 	O 	0.1998	0.47468	0.72893	-0.274
Mof_O 	O 	0.38225	0.65791	0.08791	-0.254
Mof_O 	O 	0.31122	0.45187	0.19239	-0.405
Mof_Zn	Zn	0.5004	0.50223	0.25294	1.267
Mof_Zn	Zn	0.49737	0.50519	0.75283	1.267
Mof_H 	H 	0.87683	0.8125	0.45711	0.102
Mof_H 	H 	0.8277	0.8124	0.6048	0.098
Mof_H 	H 	0.91883	0.69347	0.55463	0.11
Mof_H 	H 	0.23865	0.12743	0.86195	0.103
Mof_H 	H 	0.22585	0.22436	0.99106	0.104
Mof_H 	H 	0.36191	0.1424	0.97909	0.119
Mof_H 	H 	0.14643	0.26064	0.36742	0.105
Mof_H 	H 	0.08093	0.35478	0.47486	0.117
Mof_H 	H 	0.24719	0.32575	0.49659	0.118
Mof_H 	H 	0.7706	0.9203	0.9679	0.096
Mof_H 	H 	0.68071	0.89774	0.10075	0.113
Mof_H 	H 	0.8283	0.83319	0.08391	0.099
Mof_H 	H 	0.67011	0.75195	0.00574	0.123
Mof_H 	H 	0.74322	0.67156	0.50788	0.119
Mof_H 	H 	0.09423	0.18478	0.50314	0.098
Mof_H 	H 	0.18743	0.03998	0.9933	0.095
_end
