data_functionalizedCrystal
_audit_creation_method	'EQeq! by Chris Wilmer'
_symmetry_space_group_name_H-M	'P1'
_symmetry_Int_Tables_number	1
_symmetry_cell_setting	triclinic
loop_
_symmetry_equiv_pos_as_xyz
  x,y,z
_cell_length_a	7.0122
_cell_length_b	11.1241
_cell_length_c	20.0433
_cell_angle_alpha	106.111
_cell_angle_beta	98.2925
_cell_angle_gamma	90
loop_
_atom_site_label
_atom_site_type_symbol
_atom_site_fract_x
_atom_site_fract_y
_atom_site_fract_z
_atom_site_charge
Mof_Er	Er	0.14666	0.07046	0.74063	1.595
Mof_Er	Er	0.35334	0.32983	0.25937	1.619
Mof_Er	Er	0.85334	0.92954	0.25937	1.596
Mof_Er	Er	0.64666	0.67017	0.74063	1.62
Mof_H 	H 	0.4976	0.2033	0.9902	0.041
Mof_H 	H 	0.3634	0.8331	0.9086	0.025
Mof_H 	H 	0.5276	0.7181	0.5448	0.031
Mof_H 	H 	0.4237	0.6934	0.4254	0.052
Mof_H 	H 	0.1863	0.0272	0.4754	0.051
Mof_H 	H 	0.2971	0.0563	0.5932	-0.003
Mof_H 	H 	0.0024	0.2131	0.0098	0.041
Mof_H 	H 	0.1366	0.9245	0.0914	0.026
Mof_H 	H 	0.9724	0.1733	0.4552	0.04
Mof_H 	H 	0.0763	0.268	0.5746	0.047
Mof_H 	H 	0.3137	0.5518	0.5246	0.056
Mof_H 	H 	0.2029	0.4631	0.4068	0.003
Mof_H 	H 	0.5024	0.7967	0.0098	0.041
Mof_H 	H 	0.6366	0.1669	0.0914	0.025
Mof_H 	H 	0.4724	0.2819	0.4552	0.031
Mof_H 	H 	0.5763	0.3066	0.5746	0.052
Mof_H 	H 	0.8137	0.9728	0.5246	0.051
Mof_H 	H 	0.7029	0.9437	0.4068	-0.003
Mof_H 	H 	0.9976	0.7869	0.9902	0.041
Mof_H 	H 	0.8634	0.0755	0.9086	0.026
Mof_H 	H 	0.0276	0.8267	0.5448	0.04
Mof_H 	H 	0.9237	0.732	0.4254	0.047
Mof_H 	H 	0.6863	0.4482	0.4754	0.056
Mof_H 	H 	0.7971	0.5369	0.5932	0.003
Mof_C 	C 	0.3275	0.0424	0.869	0.315
Mof_C 	C 	0.4164	0.0207	0.9368	-0.071
Mof_C 	C 	0.4995	0.122	0.9942	-0.037
Mof_C 	C 	0.4192	0.8999	0.9454	0.003
Mof_C 	C 	0.467	0.8921	0.6574	0.452
Mof_C 	C 	0.4147	0.8846	0.582	-0.152
Mof_C 	C 	0.4565	0.78	0.531	0.029
Mof_C 	C 	0.3942	0.7646	0.4588	-0.053
Mof_C 	C 	0.2891	0.8567	0.4386	-0.065
Mof_C 	C 	0.2545	0.9644	0.4894	-0.046
Mof_C 	C 	0.3179	0.9819	0.5604	0.042
Mof_C 	C 	0.2118	0.839	0.3626	0.357
Mof_C 	C 	0.1725	0.1734	0.131	0.324
Mof_C 	C 	0.0836	0.0839	0.0632	-0.071
Mof_C 	C 	0.0005	0.1278	0.0058	-0.037
Mof_C 	C 	0.0808	0.9545	0.0546	0.002
Mof_C 	C 	0.033	0.2347	0.3426	0.443
Mof_C 	C 	0.0853	0.3026	0.418	-0.142
Mof_C 	C 	0.0435	0.249	0.469	0.011
Mof_C 	C 	0.1058	0.3058	0.5412	-0.043
Mof_C 	C 	0.2109	0.4181	0.5614	-0.069
Mof_C 	C 	0.2455	0.475	0.5106	-0.047
Mof_C 	C 	0.1821	0.4215	0.4396	0.033
Mof_C 	C 	0.2882	0.4764	0.6374	0.359
Mof_C 	C 	0.6725	0.9576	0.131	0.315
Mof_C 	C 	0.5836	0.9793	0.0632	-0.071
Mof_C 	C 	0.5005	0.878	0.0058	-0.037
Mof_C 	C 	0.5808	0.1001	0.0546	0.003
Mof_C 	C 	0.533	0.1079	0.3426	0.452
Mof_C 	C 	0.5853	0.1154	0.418	-0.152
Mof_C 	C 	0.5435	0.22	0.469	0.029
Mof_C 	C 	0.6058	0.2354	0.5412	-0.053
Mof_C 	C 	0.7109	0.1433	0.5614	-0.065
Mof_C 	C 	0.7455	0.0356	0.5106	-0.046
Mof_C 	C 	0.6821	0.0181	0.4396	0.042
Mof_C 	C 	0.7882	0.161	0.6374	0.357
Mof_C 	C 	0.8275	0.8266	0.869	0.324
Mof_C 	C 	0.9164	0.9161	0.9368	-0.071
Mof_C 	C 	0.9995	0.8722	0.9942	-0.037
Mof_C 	C 	0.9192	0.0455	0.9454	0.002
Mof_C 	C 	0.967	0.7653	0.6574	0.443
Mof_C 	C 	0.9147	0.6974	0.582	-0.142
Mof_C 	C 	0.9565	0.751	0.531	0.011
Mof_C 	C 	0.8942	0.6942	0.4588	-0.043
Mof_C 	C 	0.7891	0.5819	0.4386	-0.069
Mof_C 	C 	0.7545	0.525	0.4894	-0.047
Mof_C 	C 	0.8179	0.5785	0.5604	0.033
Mof_C 	C 	0.7118	0.5236	0.3626	0.359
Mof_O 	O 	0.214	0.9589	0.8252	-0.408
Mof_O 	O 	0.3546	0.1436	0.8554	-0.421
Mof_O 	O 	0.4222	0.9887	0.704	-0.475
Mof_O 	O 	0.5572	0.8033	0.6724	-0.467
Mof_O 	O 	0.0561	0.893	0.3496	-0.475
Mof_O 	O 	0.2981	0.7714	0.316	-0.326
Mof_O 	O 	0.286	0.1337	0.1748	-0.418
Mof_O 	O 	0.1454	0.2882	0.1446	-0.424
Mof_O 	O 	0.0778	0.2847	0.296	-0.478
Mof_O 	O 	0.9428	0.1309	0.3276	-0.458
Mof_O 	O 	0.4439	0.5434	0.6504	-0.483
Mof_O 	O 	0.2019	0.4554	0.684	-0.329
Mof_O 	O 	0.786	0.0411	0.1748	-0.408
Mof_O 	O 	0.6454	0.8564	0.1446	-0.421
Mof_O 	O 	0.5778	0.0113	0.296	-0.475
Mof_O 	O 	0.4428	0.1967	0.3276	-0.467
Mof_O 	O 	0.9439	0.107	0.6504	-0.475
Mof_O 	O 	0.7019	0.2286	0.684	-0.326
Mof_O 	O 	0.714	0.8663	0.8252	-0.418
Mof_O 	O 	0.8546	0.7118	0.8554	-0.424
Mof_O 	O 	0.9222	0.7153	0.704	-0.478
Mof_O 	O 	0.0572	0.8691	0.6724	-0.458
Mof_O 	O 	0.5561	0.4566	0.3496	-0.483
Mof_O 	O 	0.7981	0.5446	0.316	-0.329
_end
