data_functionalizedCrystal
_audit_creation_method	'EQeq! by Chris Wilmer'
_symmetry_space_group_name_H-M	'P1'
_symmetry_Int_Tables_number	1
_symmetry_cell_setting	triclinic
loop_
_symmetry_equiv_pos_as_xyz
  x,y,z
_cell_length_a	11.3749
_cell_length_b	13.3596
_cell_length_c	25.9691
_cell_angle_alpha	90
_cell_angle_beta	90
_cell_angle_gamma	90
loop_
_atom_site_label
_atom_site_type_symbol
_atom_site_fract_x
_atom_site_fract_y
_atom_site_fract_z
_atom_site_charge
Mof_Co	Co	0.83808	0.0589	0.07895	1.176
Mof_Co	Co	0.09411	0.9437	0.13838	1.177
Mof_Co	Co	0.66192	0.9411	0.57895	1.176
Mof_Co	Co	0.40589	0.0563	0.63838	1.178
Mof_Co	Co	0.16192	0.5589	0.42105	1.176
Mof_Co	Co	0.90589	0.4437	0.36162	1.178
Mof_Co	Co	0.33808	0.4411	0.92105	1.176
Mof_Co	Co	0.59411	0.5563	0.86162	1.178
Mof_H 	H 	0.8643	0.9093	0.1446	0.219
Mof_H 	H 	0.9073	0.8712	0.0894	0.229
Mof_H 	H 	0.3086	0.8106	0.1649	0.014
Mof_H 	H 	0.2868	0.1024	0.1557	0.017
Mof_H 	H 	0.3647	0.3118	0.0171	0.016
Mof_H 	H 	0.2734	0.1861	0.0625	0.062
Mof_H 	H 	0.0411	0.2524	0.3343	0.019
Mof_H 	H 	0.0479	0.1556	0.9474	0.062
Mof_H 	H 	0.5857	0.9948	0.0453	0.017
Mof_H 	H 	0.8437	0.4201	0.2464	0.01
Mof_H 	H 	0.5109	0.818	0.1662	0.07
Mof_H 	H 	0.4913	0.8739	0.996	0.068
Mof_H 	H 	0.1476	0.2805	0.904	0.017
Mof_H 	H 	0.0735	0.1406	0.2667	0.065
Mof_H 	H 	0.8062	0.7879	0.9409	0.067
Mof_H 	H 	0.4891	0.1161	0.1548	0.065
Mof_H 	H 	0.8597	0.3093	0.1791	0.065
Mof_H 	H 	0.8922	0.9105	0.9896	0.026
Mof_H 	H 	0.6357	0.0907	0.6446	0.219
Mof_H 	H 	0.5927	0.1288	0.5894	0.229
Mof_H 	H 	0.1914	0.1894	0.6649	0.016
Mof_H 	H 	0.2132	0.8976	0.6557	0.018
Mof_H 	H 	0.1353	0.6882	0.5171	0.016
Mof_H 	H 	0.2266	0.8139	0.5625	0.062
Mof_H 	H 	0.4589	0.7476	0.8343	0.019
Mof_H 	H 	0.4521	0.8444	0.4474	0.062
Mof_H 	H 	0.9143	0.0052	0.5453	0.015
Mof_H 	H 	0.6563	0.5799	0.7464	0.01
Mof_H 	H 	0.9891	0.182	0.6662	0.064
Mof_H 	H 	0.0087	0.1261	0.496	0.073
Mof_H 	H 	0.3524	0.7195	0.404	0.016
Mof_H 	H 	0.4265	0.8594	0.7667	0.064
Mof_H 	H 	0.6938	0.2121	0.4409	0.068
Mof_H 	H 	0.0109	0.8839	0.6548	0.063
Mof_H 	H 	0.6403	0.6907	0.6791	0.065
Mof_H 	H 	0.6078	0.0895	0.4896	0.025
Mof_H 	H 	0.1357	0.4093	0.3554	0.219
Mof_H 	H 	0.0927	0.3712	0.4106	0.229
Mof_H 	H 	0.6914	0.3106	0.3351	0.014
Mof_H 	H 	0.7132	0.6024	0.3443	0.017
Mof_H 	H 	0.6353	0.8118	0.4829	0.016
Mof_H 	H 	0.7266	0.6861	0.4375	0.062
Mof_H 	H 	0.9589	0.7524	0.1657	0.018
Mof_H 	H 	0.9521	0.6556	0.5526	0.062
Mof_H 	H 	0.4143	0.4948	0.4547	0.017
Mof_H 	H 	0.1563	0.9201	0.2536	0.009
Mof_H 	H 	0.4891	0.318	0.3338	0.07
Mof_H 	H 	0.5087	0.3739	0.504	0.069
Mof_H 	H 	0.8524	0.7805	0.596	0.017
Mof_H 	H 	0.9265	0.6406	0.2333	0.064
Mof_H 	H 	0.1938	0.2879	0.5591	0.067
Mof_H 	H 	0.5109	0.6161	0.3452	0.065
Mof_H 	H 	0.1403	0.8093	0.3209	0.065
Mof_H 	H 	0.1078	0.4105	0.5104	0.025
Mof_H 	H 	0.3643	0.5907	0.8554	0.219
Mof_H 	H 	0.4073	0.6288	0.9106	0.229
Mof_H 	H 	0.8086	0.6894	0.8351	0.015
Mof_H 	H 	0.7868	0.3976	0.8443	0.017
Mof_H 	H 	0.8647	0.1882	0.9829	0.015
Mof_H 	H 	0.7734	0.3139	0.9375	0.061
Mof_H 	H 	0.5411	0.2476	0.6657	0.019
Mof_H 	H 	0.5479	0.3444	0.0526	0.061
Mof_H 	H 	0.0857	0.5052	0.9547	0.016
Mof_H 	H 	0.3437	0.0799	0.7536	0.01
Mof_H 	H 	0.0109	0.682	0.8338	0.068
Mof_H 	H 	0.9913	0.6261	0.004	0.072
Mof_H 	H 	0.6476	0.2195	0.096	0.017
Mof_H 	H 	0.5735	0.3594	0.7333	0.064
Mof_H 	H 	0.3062	0.7121	0.0591	0.068
Mof_H 	H 	0.9891	0.3839	0.8452	0.064
Mof_H 	H 	0.3597	0.1907	0.8209	0.065
Mof_H 	H 	0.3922	0.5895	0.0104	0.025
Mof_C 	C 	0.3457	0.8742	0.1625	0.052
Mof_C 	C 	0.3329	0.0432	0.1569	0.053
Mof_C 	C 	0.2973	0.2808	0.0024	0.046
Mof_C 	C 	0.2433	0.2053	0.0298	-0.056
Mof_C 	C 	0.0049	0.2647	0.3019	0.038
Mof_C 	C 	0.1134	0.1875	0.9631	-0.06
Mof_C 	C 	0.5779	0.7332	0.9338	0.332
Mof_C 	C 	0.631	0.9517	0.024	0.038
Mof_C 	C 	0.8891	0.3611	0.2512	0.051
Mof_C 	C 	0.4667	0.8779	0.1628	-0.071
Mof_C 	C 	0.5745	0.8793	0.9948	-0.057
Mof_C 	C 	0.9805	0.1353	0.17292	0.368
Mof_C 	C 	0.1496	0.1591	0.0108	-0.043
Mof_C 	C 	0.1727	0.2632	0.9377	0.05
Mof_C 	C 	0.0231	0.1966	0.262	-0.048
Mof_C 	C 	0.0847	0.0809	0.0419	0.361
Mof_C 	C 	0.9673	0.2117	0.216	-0.045
Mof_C 	C 	0.7588	0.829	0.9623	-0.055
Mof_C 	C 	0.4537	0.0518	0.1564	-0.068
Mof_C 	C 	0.8992	0.2961	0.2106	-0.059
Mof_C 	C 	0.8094	0.9021	0.9916	0.045
Mof_C 	C 	0.6388	0.815	0.964	-0.034
Mof_C 	C 	0.523	0.9674	0.1581	-0.024
Mof_C 	C 	0.6557	0.9719	0.1502	0.316
Mof_C 	C 	0.1543	0.1258	0.6625	0.047
Mof_C 	C 	0.1671	0.9568	0.6569	0.047
Mof_C 	C 	0.2027	0.7192	0.5024	0.046
Mof_C 	C 	0.2567	0.7947	0.5298	-0.057
Mof_C 	C 	0.4951	0.7353	0.8019	0.038
Mof_C 	C 	0.3866	0.8125	0.4631	-0.061
Mof_C 	C 	0.9221	0.2668	0.4338	0.329
Mof_C 	C 	0.869	0.0483	0.524	0.041
Mof_C 	C 	0.6109	0.6389	0.7512	0.051
Mof_C 	C 	0.0333	0.1221	0.6628	-0.059
Mof_C 	C 	0.9255	0.1207	0.4948	-0.064
Mof_C 	C 	0.5195	0.8647	0.67292	0.37
Mof_C 	C 	0.3504	0.8409	0.5108	-0.042
Mof_C 	C 	0.3273	0.7368	0.4377	0.05
Mof_C 	C 	0.4769	0.8034	0.762	-0.05
Mof_C 	C 	0.4153	0.9191	0.5419	0.359
Mof_C 	C 	0.5327	0.7883	0.716	-0.044
Mof_C 	C 	0.7412	0.171	0.4623	-0.057
Mof_C 	C 	0.0463	0.9482	0.6564	-0.063
Mof_C 	C 	0.6008	0.7039	0.7106	-0.059
Mof_C 	C 	0.6906	0.0979	0.4916	0.046
Mof_C 	C 	0.8612	0.185	0.464	-0.031
Mof_C 	C 	0.977	0.0326	0.6581	-0.032
Mof_C 	C 	0.8443	0.0281	0.6502	0.316
Mof_C 	C 	0.6543	0.3742	0.3375	0.052
Mof_C 	C 	0.6671	0.5432	0.3431	0.051
Mof_C 	C 	0.7027	0.7808	0.4976	0.046
Mof_C 	C 	0.7567	0.7053	0.4702	-0.057
Mof_C 	C 	0.9951	0.7647	0.1981	0.04
Mof_C 	C 	0.8866	0.6875	0.5369	-0.061
Mof_C 	C 	0.4221	0.2332	0.5662	0.332
Mof_C 	C 	0.369	0.4517	0.476	0.038
Mof_C 	C 	0.1109	0.8611	0.2488	0.05
Mof_C 	C 	0.5333	0.3779	0.3372	-0.071
Mof_C 	C 	0.4255	0.3793	0.5052	-0.057
Mof_C 	C 	0.0195	0.6353	0.32708	0.37
Mof_C 	C 	0.8504	0.6591	0.4892	-0.042
Mof_C 	C 	0.8273	0.7632	0.5623	0.051
Mof_C 	C 	0.9769	0.6966	0.238	-0.048
Mof_C 	C 	0.9153	0.5809	0.4581	0.359
Mof_C 	C 	0.0327	0.7117	0.284	-0.046
Mof_C 	C 	0.2412	0.329	0.5377	-0.055
Mof_C 	C 	0.5463	0.5518	0.3436	-0.068
Mof_C 	C 	0.1008	0.7961	0.2894	-0.059
Mof_C 	C 	0.1906	0.4021	0.5084	0.045
Mof_C 	C 	0.3612	0.315	0.536	-0.034
Mof_C 	C 	0.477	0.4674	0.3419	-0.023
Mof_C 	C 	0.3443	0.4719	0.3498	0.315
Mof_C 	C 	0.8457	0.6258	0.8375	0.05
Mof_C 	C 	0.8329	0.4568	0.8431	0.05
Mof_C 	C 	0.7973	0.2192	0.9976	0.045
Mof_C 	C 	0.7433	0.2947	0.9702	-0.056
Mof_C 	C 	0.5049	0.2353	0.6981	0.037
Mof_C 	C 	0.6134	0.3125	0.0369	-0.06
Mof_C 	C 	0.0779	0.7668	0.0662	0.327
Mof_C 	C 	0.131	0.5483	0.976	0.042
Mof_C 	C 	0.3891	0.1389	0.7488	0.051
Mof_C 	C 	0.9667	0.6221	0.8372	-0.067
Mof_C 	C 	0.0745	0.6207	0.0052	-0.064
Mof_C 	C 	0.4805	0.3647	0.82708	0.37
Mof_C 	C 	0.6496	0.3409	0.9892	-0.043
Mof_C 	C 	0.6727	0.2368	0.0623	0.05
Mof_C 	C 	0.5231	0.3034	0.738	-0.05
Mof_C 	C 	0.5847	0.4191	0.9581	0.359
Mof_C 	C 	0.4673	0.2883	0.784	-0.044
Mof_C 	C 	0.2588	0.671	0.0377	-0.057
Mof_C 	C 	0.9537	0.4482	0.8436	-0.066
Mof_C 	C 	0.3992	0.2039	0.7894	-0.059
Mof_C 	C 	0.3094	0.5979	0.0084	0.046
Mof_C 	C 	0.1388	0.685	0.036	-0.031
Mof_C 	C 	0.023	0.5326	0.8419	-0.026
Mof_C 	C 	0.1557	0.5281	0.8498	0.317
Mof_N 	N 	0.2784	0.955	0.159	-0.21
Mof_N 	N 	0.7491	0.9624	0.02271	-0.207
Mof_N 	N 	0.9384	0.347	0.29646	-0.215
Mof_N 	N 	0.261	0.3122	0.95732	-0.215
Mof_N 	N 	0.2216	0.045	0.659	-0.206
Mof_N 	N 	0.7509	0.0376	0.52271	-0.209
Mof_N 	N 	0.5616	0.653	0.79646	-0.214
Mof_N 	N 	0.239	0.6878	0.45732	-0.215
Mof_N 	N 	0.7216	0.455	0.341	-0.209
Mof_N 	N 	0.2509	0.4624	0.47729	-0.208
Mof_N 	N 	0.0616	0.847	0.20354	-0.216
Mof_N 	N 	0.739	0.8122	0.54268	-0.215
Mof_N 	N 	0.7784	0.545	0.841	-0.208
Mof_N 	N 	0.2491	0.5376	0.97729	-0.208
Mof_N 	N 	0.4384	0.153	0.70354	-0.214
Mof_N 	N 	0.761	0.1878	0.04268	-0.215
Mof_O 	O 	0.9124	0.9273	0.11416	-0.648
Mof_O 	O 	0.7151	0.899	0.16442	-0.29
Mof_O 	O 	0.47	0.7245	0.94008	-0.307
Mof_O 	O 	0.6408	0.6798	0.90514	-0.404
Mof_O 	O 	0.6933	0.049	0.12742	-0.401
Mof_O 	O 	0.0501	0.0649	0.18225	-0.43
Mof_O 	O 	0.9203	0.1497	0.13352	-0.421
Mof_O 	O 	0.1385	0.0404	0.07763	-0.413
Mof_O 	O 	0.9784	0.0663	0.02896	-0.425
Mof_O 	O 	0.5876	0.0727	0.61416	-0.649
Mof_O 	O 	0.7849	0.101	0.66442	-0.291
Mof_O 	O 	0.03	0.2755	0.44008	-0.305
Mof_O 	O 	0.8592	0.3202	0.40514	-0.404
Mof_O 	O 	0.8067	0.951	0.62742	-0.398
Mof_O 	O 	0.4499	0.9351	0.68225	-0.432
Mof_O 	O 	0.5797	0.8503	0.63352	-0.422
Mof_O 	O 	0.3615	0.9596	0.57763	-0.413
Mof_O 	O 	0.5216	0.9337	0.52896	-0.423
Mof_O 	O 	0.0876	0.4273	0.38584	-0.649
Mof_O 	O 	0.2849	0.399	0.33558	-0.29
Mof_O 	O 	0.53	0.2245	0.55992	-0.307
Mof_O 	O 	0.3592	0.1798	0.59486	-0.404
Mof_O 	O 	0.3067	0.549	0.37258	-0.4
Mof_O 	O 	0.9499	0.5649	0.31775	-0.431
Mof_O 	O 	0.0797	0.6497	0.36648	-0.422
Mof_O 	O 	0.8615	0.5404	0.42237	-0.413
Mof_O 	O 	0.0216	0.5663	0.47104	-0.423
Mof_O 	O 	0.4124	0.5727	0.88584	-0.649
Mof_O 	O 	0.2151	0.601	0.83558	-0.291
Mof_O 	O 	0.97	0.7755	0.05992	-0.304
Mof_O 	O 	0.1408	0.8202	0.09486	-0.404
Mof_O 	O 	0.1933	0.451	0.87258	-0.4
Mof_O 	O 	0.5501	0.4351	0.81775	-0.432
Mof_O 	O 	0.4203	0.3503	0.86648	-0.422
Mof_O 	O 	0.6385	0.4596	0.92237	-0.413
Mof_O 	O 	0.4784	0.4337	0.97104	-0.423
_end
