data_functionalizedCrystal
_audit_creation_method	'EQeq! by Chris Wilmer'
_symmetry_space_group_name_H-M	'P1'
_symmetry_Int_Tables_number	1
_symmetry_cell_setting	triclinic
loop_
_symmetry_equiv_pos_as_xyz
  x,y,z
_cell_length_a	7.3108
_cell_length_b	9.722
_cell_length_c	14.6825
_cell_angle_alpha	90
_cell_angle_beta	99.3817
_cell_angle_gamma	90
loop_
_atom_site_label
_atom_site_type_symbol
_atom_site_fract_x
_atom_site_fract_y
_atom_site_fract_z
_atom_site_charge
Mof_Tb	Tb	0.63728	0.44511	0.35767	2.095
Mof_Tb	Tb	0.86272	0.94511	0.14233	2.035
Mof_Tb	Tb	0.36272	0.55489	0.64233	2.095
Mof_Tb	Tb	0.13728	0.05489	0.85767	2.035
Mof_H 	H 	0.7229	0.9533	0.6249	0.011
Mof_H 	H 	0.823	0.1648	0.5454	0.038
Mof_H 	H 	0.7771	0.4533	0.8751	0.009
Mof_H 	H 	0.677	0.6648	0.9546	0.037
Mof_H 	H 	0.2771	0.0467	0.3751	0.011
Mof_H 	H 	0.177	0.8352	0.4546	0.038
Mof_H 	H 	0.2229	0.5467	0.1249	0.009
Mof_H 	H 	0.323	0.3352	0.0454	0.037
Mof_C 	C 	0.6067	0.7259	0.4968	0.508
Mof_C 	C 	0.6872	0.8644	0.4963	-0.054
Mof_C 	C 	0.7296	0.9624	0.5625	-0.011
Mof_C 	C 	0.7858	0.081	0.518	-0.022
Mof_C 	C 	0.7743	0.0478	0.4277	-0.047
Mof_C 	C 	0.8126	0.1247	0.3469	0.463
Mof_C 	C 	0.9567	0.4649	0.5384	0.27
Mof_C 	C 	0.8933	0.2259	0.0032	0.503
Mof_C 	C 	0.8128	0.3644	0.0037	-0.057
Mof_C 	C 	0.7704	0.4624	0.9375	-0.003
Mof_C 	C 	0.7142	0.581	0.982	-0.02
Mof_C 	C 	0.7257	0.5478	0.0723	-0.061
Mof_C 	C 	0.6874	0.6247	0.1531	0.468
Mof_C 	C 	0.5433	0.9649	0.9616	0.27
Mof_C 	C 	0.3933	0.2741	0.5032	0.508
Mof_C 	C 	0.3128	0.1356	0.5037	-0.054
Mof_C 	C 	0.2704	0.0376	0.4375	-0.011
Mof_C 	C 	0.2142	0.919	0.482	-0.022
Mof_C 	C 	0.2257	0.9522	0.5723	-0.047
Mof_C 	C 	0.1874	0.8753	0.6531	0.463
Mof_C 	C 	0.0433	0.5351	0.4616	0.27
Mof_C 	C 	0.1067	0.7741	0.9968	0.503
Mof_C 	C 	0.1872	0.6356	0.9963	-0.057
Mof_C 	C 	0.2296	0.5376	0.0625	-0.003
Mof_C 	C 	0.2858	0.419	0.018	-0.02
Mof_C 	C 	0.2743	0.4522	0.9277	-0.061
Mof_C 	C 	0.3126	0.3753	0.8469	0.468
Mof_C 	C 	0.4567	0.0351	0.0384	0.27
Mof_O 	O 	0.7925	0.4245	0.5178	-0.432
Mof_O 	O 	0.58866	0.6582	0.42326	-0.546
Mof_O 	O 	0.55943	0.6879	0.57073	-0.586
Mof_O 	O 	0.71652	0.9138	0.41312	-0.166
Mof_O 	O 	0.83535	0.2538	0.35645	-0.525
Mof_O 	O 	0.8202	0.061	0.274	-0.549
Mof_O 	O 	0.0566	0.454	0.616	-0.432
Mof_O 	O 	0.7075	0.9245	0.9822	-0.423
Mof_O 	O 	0.91134	0.1582	0.07674	-0.533
Mof_O 	O 	0.94057	0.1879	0.92927	-0.573
Mof_O 	O 	0.78348	0.4138	0.08688	-0.158
Mof_O 	O 	0.66465	0.7538	0.14355	-0.525
Mof_O 	O 	0.6798	0.561	0.226	-0.564
Mof_O 	O 	0.4434	0.954	0.884	-0.42
Mof_O 	O 	0.2075	0.5755	0.4822	-0.432
Mof_O 	O 	0.41134	0.3418	0.57674	-0.546
Mof_O 	O 	0.44057	0.3121	0.42927	-0.586
Mof_O 	O 	0.28348	0.0862	0.58688	-0.166
Mof_O 	O 	0.16465	0.7462	0.64355	-0.525
Mof_O 	O 	0.1798	0.939	0.726	-0.549
Mof_O 	O 	0.9434	0.546	0.384	-0.432
Mof_O 	O 	0.2925	0.0755	0.0178	-0.423
Mof_O 	O 	0.08866	0.8418	0.92326	-0.533
Mof_O 	O 	0.05943	0.8121	0.07073	-0.573
Mof_O 	O 	0.21652	0.5862	0.91312	-0.158
Mof_O 	O 	0.33535	0.2462	0.85645	-0.525
Mof_O 	O 	0.3202	0.439	0.774	-0.564
Mof_O 	O 	0.5566	0.046	0.116	-0.42
_end
