data_functionalizedCrystal
_audit_creation_method	'EQeq! by Chris Wilmer'
_symmetry_space_group_name_H-M	'P1'
_symmetry_Int_Tables_number	1
_symmetry_cell_setting	triclinic
loop_
_symmetry_equiv_pos_as_xyz
  x,y,z
_cell_length_a	10.531
_cell_length_b	22.917
_cell_length_c	24.525
_cell_angle_alpha	90
_cell_angle_beta	98.595
_cell_angle_gamma	90
loop_
_atom_site_label
_atom_site_type_symbol
_atom_site_fract_x
_atom_site_fract_y
_atom_site_fract_z
_atom_site_charge
Mof_Tb	Tb	0.33212	0.00461	0.24274	2.196
Mof_Tb	Tb	0.16788	0.50461	0.75726	2.195
Mof_Tb	Tb	0.66788	0.99539	0.75726	2.196
Mof_Tb	Tb	0.83212	0.49539	0.24274	2.195
Mof_Ba	Ba	0.0579	0.2113	0.50179	2.1
Mof_Ba	Ba	0.73402	0.2512	0.96882	2.086
Mof_Ba	Ba	0.4421	0.7113	0.49821	2.106
Mof_Ba	Ba	0.76598	0.7512	0.03118	2.087
Mof_Ba	Ba	0.9421	0.7887	0.49821	2.1
Mof_Ba	Ba	0.26598	0.7488	0.03118	2.086
Mof_Ba	Ba	0.5579	0.2887	0.50179	2.106
Mof_Ba	Ba	0.23402	0.2488	0.96882	2.087
Mof_H 	H 	0.6575	0.0921	0.2541	0.061
Mof_H 	H 	0.7466	0.1718	0.3063	0.078
Mof_H 	H 	0.6382	0.0993	0.4418	0.063
Mof_H 	H 	0.6806	0.9733	0.4496	0.059
Mof_H 	H 	0.3561	0.8787	0.4494	0.038
Mof_H 	H 	0.2485	0.9403	0.3824	0.072
Mof_H 	H 	0.33	0.0829	0.7299	0.08
Mof_H 	H 	0.2375	0.1539	0.6682	0.054
Mof_H 	H 	0.5815	0.2319	0.6736	0.065
Mof_H 	H 	0.6909	0.246	0.7825	0.061
Mof_H 	H 	0.0418	0.1749	0.8322	0.048
Mof_H 	H 	0.9806	0.0952	0.7767	0.073
Mof_H 	H 	0.9868	0.0193	0.1491	0.08
Mof_H 	H 	0.9046	0.0821	0.0787	0.054
Mof_H 	H 	0.2342	0.0674	0.0134	0.066
Mof_H 	H 	0.2979	0.9506	0.0072	0.057
Mof_H 	H 	0.6502	0.9043	0.0837	0.044
Mof_H 	H 	0.6205	0.9656	0.1578	0.07
Mof_H 	H 	0.8425	0.5921	0.7459	0.061
Mof_H 	H 	0.7534	0.6718	0.6937	0.078
Mof_H 	H 	0.8618	0.5993	0.5582	0.063
Mof_H 	H 	0.8194	0.4733	0.5504	0.059
Mof_H 	H 	0.1439	0.3787	0.5506	0.038
Mof_H 	H 	0.2515	0.4403	0.6176	0.072
Mof_H 	H 	0.17	0.5829	0.2701	0.08
Mof_H 	H 	0.2625	0.6539	0.3318	0.055
Mof_H 	H 	0.9185	0.7319	0.3264	0.066
Mof_H 	H 	0.8091	0.746	0.2175	0.061
Mof_H 	H 	0.4582	0.6749	0.1678	0.051
Mof_H 	H 	0.5194	0.5952	0.2233	0.072
Mof_H 	H 	0.5132	0.5193	0.8509	0.072
Mof_H 	H 	0.5954	0.5821	0.9213	0.059
Mof_H 	H 	0.2658	0.5674	0.9866	0.068
Mof_H 	H 	0.2021	0.4506	0.9928	0.058
Mof_H 	H 	0.8498	0.4043	0.9163	0.045
Mof_H 	H 	0.8795	0.4656	0.8422	0.071
Mof_H 	H 	0.3425	0.9079	0.7459	0.061
Mof_H 	H 	0.2534	0.8282	0.6937	0.078
Mof_H 	H 	0.3618	0.9007	0.5582	0.063
Mof_H 	H 	0.3194	0.0267	0.5504	0.059
Mof_H 	H 	0.6439	0.1213	0.5506	0.038
Mof_H 	H 	0.7515	0.0597	0.6176	0.072
Mof_H 	H 	0.67	0.9171	0.2701	0.08
Mof_H 	H 	0.7625	0.8461	0.3318	0.054
Mof_H 	H 	0.4185	0.7681	0.3264	0.065
Mof_H 	H 	0.3091	0.754	0.2175	0.061
Mof_H 	H 	0.9582	0.8251	0.1678	0.048
Mof_H 	H 	0.0194	0.9048	0.2233	0.073
Mof_H 	H 	0.0132	0.9807	0.8509	0.08
Mof_H 	H 	0.0954	0.9179	0.9213	0.054
Mof_H 	H 	0.7658	0.9326	0.9866	0.066
Mof_H 	H 	0.7021	0.0494	0.9928	0.057
Mof_H 	H 	0.3498	0.0957	0.9163	0.044
Mof_H 	H 	0.3795	0.0344	0.8422	0.07
Mof_H 	H 	0.1575	0.4079	0.2541	0.061
Mof_H 	H 	0.2466	0.3282	0.3063	0.078
Mof_H 	H 	0.1382	0.4007	0.4418	0.063
Mof_H 	H 	0.1806	0.5267	0.4496	0.059
Mof_H 	H 	0.8561	0.6213	0.4494	0.038
Mof_H 	H 	0.7485	0.5597	0.3824	0.072
Mof_H 	H 	0.83	0.4171	0.7299	0.08
Mof_H 	H 	0.7375	0.3461	0.6682	0.055
Mof_H 	H 	0.0815	0.2681	0.6736	0.066
Mof_H 	H 	0.1909	0.254	0.7825	0.061
Mof_H 	H 	0.5418	0.3251	0.8322	0.051
Mof_H 	H 	0.4806	0.4048	0.7767	0.072
Mof_H 	H 	0.4868	0.4807	0.1491	0.072
Mof_H 	H 	0.4046	0.4179	0.0787	0.059
Mof_H 	H 	0.7342	0.4326	0.0134	0.068
Mof_H 	H 	0.7979	0.5494	0.0072	0.058
Mof_H 	H 	0.1502	0.5957	0.0837	0.045
Mof_H 	H 	0.1205	0.5344	0.1578	0.071
Mof_C 	C 	0.6529	0.0942	0.2924	0.045
Mof_C 	C 	0.7053	0.1415	0.3233	-0.027
Mof_C 	C 	0.6971	0.1441	0.3786	-0.05
Mof_C 	C 	0.6405	0.0986	0.4032	-0.042
Mof_C 	C 	0.588	0.0528	0.3725	0.071
Mof_C 	C 	0.5267	0.0022	0.3953	0.06
Mof_C 	C 	0.5927	0.9664	0.4358	-0.032
Mof_C 	C 	0.5266	0.9201	0.4556	-0.084
Mof_C 	C 	0.4002	0.9104	0.4358	-0.006
Mof_C 	C 	0.3367	0.9468	0.3959	0.013
Mof_C 	C 	0.3807	0.1136	0.7185	0.014
Mof_C 	C 	0.3266	0.1557	0.682	-0.007
Mof_C 	C 	0.3996	0.2	0.6652	-0.086
Mof_C 	C 	0.5297	0.2019	0.6854	-0.031
Mof_C 	C 	0.5842	0.1609	0.7222	0.058
Mof_C 	C 	0.714	0.1658	0.7519	0.076
Mof_C 	C 	0.7494	0.2145	0.7825	-0.034
Mof_C 	C 	0.8706	0.2181	0.8138	-0.067
Mof_C 	C 	0.958	0.1729	0.8116	-0.01
Mof_C 	C 	0.9209	0.1257	0.7793	0.03
Mof_C 	C 	0.0369	0.0293	0.1213	0.006
Mof_C 	C 	0.9885	0.0664	0.0798	-0.003
Mof_C 	C 	0.0617	0.0814	0.039	-0.071
Mof_C 	C 	0.1829	0.0577	0.0409	-0.034
Mof_C 	C 	0.2282	0.0204	0.0823	0.066
Mof_C 	C 	0.3474	0.987	0.0821	0.073
Mof_C 	C 	0.3641	0.9528	0.038	-0.019
Mof_C 	C 	0.4782	0.9206	0.0376	-0.099
Mof_C 	C 	0.5725	0.9256	0.0825	0.006
Mof_C 	C 	0.555	0.9621	0.1269	0.028
Mof_C 	C 	0.8471	0.5942	0.7076	0.044
Mof_C 	C 	0.7947	0.6415	0.6767	-0.027
Mof_C 	C 	0.8029	0.6441	0.6214	-0.051
Mof_C 	C 	0.8595	0.5986	0.5968	-0.042
Mof_C 	C 	0.912	0.5528	0.6275	0.07
Mof_C 	C 	0.9733	0.5022	0.6047	0.059
Mof_C 	C 	0.9073	0.4664	0.5642	-0.032
Mof_C 	C 	0.9734	0.4201	0.5444	-0.083
Mof_C 	C 	0.0998	0.4104	0.5642	-0.007
Mof_C 	C 	0.1633	0.4468	0.6041	0.013
Mof_C 	C 	0.1193	0.6136	0.2815	0.017
Mof_C 	C 	0.1734	0.6557	0.318	-0.009
Mof_C 	C 	0.1004	0.7	0.3348	-0.082
Mof_C 	C 	0.9703	0.7019	0.3146	-0.034
Mof_C 	C 	0.9158	0.6609	0.2778	0.059
Mof_C 	C 	0.786	0.6658	0.2481	0.076
Mof_C 	C 	0.7506	0.7145	0.2175	-0.035
Mof_C 	C 	0.6294	0.7181	0.1862	-0.065
Mof_C 	C 	0.542	0.6729	0.1884	-0.015
Mof_C 	C 	0.5791	0.6257	0.2207	0.032
Mof_C 	C 	0.4631	0.5293	0.8787	0.023
Mof_C 	C 	0.5115	0.5664	0.9202	-0.022
Mof_C 	C 	0.4383	0.5814	0.961	-0.061
Mof_C 	C 	0.3171	0.5577	0.9591	-0.04
Mof_C 	C 	0.2718	0.5204	0.9177	0.068
Mof_C 	C 	0.1526	0.487	0.9179	0.074
Mof_C 	C 	0.1359	0.4528	0.962	-0.02
Mof_C 	C 	0.0218	0.4206	0.9624	-0.096
Mof_C 	C 	0.9275	0.4256	0.9175	0.004
Mof_C 	C 	0.945	0.4621	0.8731	0.029
Mof_C 	C 	0.3471	0.9058	0.7076	0.045
Mof_C 	C 	0.2947	0.8585	0.6767	-0.027
Mof_C 	C 	0.3029	0.8559	0.6214	-0.05
Mof_C 	C 	0.3595	0.9014	0.5968	-0.042
Mof_C 	C 	0.412	0.9472	0.6275	0.071
Mof_C 	C 	0.4733	0.9978	0.6047	0.06
Mof_C 	C 	0.4073	0.0336	0.5642	-0.032
Mof_C 	C 	0.4734	0.0799	0.5444	-0.084
Mof_C 	C 	0.5998	0.0896	0.5642	-0.006
Mof_C 	C 	0.6633	0.0532	0.6041	0.013
Mof_C 	C 	0.6193	0.8864	0.2815	0.014
Mof_C 	C 	0.6734	0.8443	0.318	-0.007
Mof_C 	C 	0.6004	0.8	0.3348	-0.086
Mof_C 	C 	0.4703	0.7981	0.3146	-0.031
Mof_C 	C 	0.4158	0.8391	0.2778	0.058
Mof_C 	C 	0.286	0.8342	0.2481	0.076
Mof_C 	C 	0.2506	0.7855	0.2175	-0.034
Mof_C 	C 	0.1294	0.7819	0.1862	-0.067
Mof_C 	C 	0.042	0.8271	0.1884	-0.01
Mof_C 	C 	0.0791	0.8743	0.2207	0.03
Mof_C 	C 	0.9631	0.9707	0.8787	0.006
Mof_C 	C 	0.0115	0.9336	0.9202	-0.003
Mof_C 	C 	0.9383	0.9186	0.961	-0.071
Mof_C 	C 	0.8171	0.9423	0.9591	-0.034
Mof_C 	C 	0.7718	0.9796	0.9177	0.066
Mof_C 	C 	0.6526	0.013	0.9179	0.073
Mof_C 	C 	0.6359	0.0472	0.962	-0.019
Mof_C 	C 	0.5218	0.0794	0.9624	-0.099
Mof_C 	C 	0.4275	0.0744	0.9175	0.006
Mof_C 	C 	0.445	0.0379	0.8731	0.028
Mof_C 	C 	0.1529	0.4058	0.2924	0.044
Mof_C 	C 	0.2053	0.3585	0.3233	-0.027
Mof_C 	C 	0.1971	0.3559	0.3786	-0.051
Mof_C 	C 	0.1405	0.4014	0.4032	-0.042
Mof_C 	C 	0.088	0.4472	0.3725	0.07
Mof_C 	C 	0.0267	0.4978	0.3953	0.059
Mof_C 	C 	0.0927	0.5336	0.4358	-0.032
Mof_C 	C 	0.0266	0.5799	0.4556	-0.083
Mof_C 	C 	0.9002	0.5896	0.4358	-0.007
Mof_C 	C 	0.8367	0.5532	0.3959	0.013
Mof_C 	C 	0.8807	0.3864	0.7185	0.017
Mof_C 	C 	0.8266	0.3443	0.682	-0.009
Mof_C 	C 	0.8996	0.3	0.6652	-0.082
Mof_C 	C 	0.0297	0.2981	0.6854	-0.034
Mof_C 	C 	0.0842	0.3391	0.7222	0.059
Mof_C 	C 	0.214	0.3342	0.7519	0.076
Mof_C 	C 	0.2494	0.2855	0.7825	-0.035
Mof_C 	C 	0.3706	0.2819	0.8138	-0.065
Mof_C 	C 	0.458	0.3271	0.8116	-0.015
Mof_C 	C 	0.4209	0.3743	0.7793	0.032
Mof_C 	C 	0.5369	0.4707	0.1213	0.023
Mof_C 	C 	0.4885	0.4336	0.0798	-0.022
Mof_C 	C 	0.5617	0.4186	0.039	-0.061
Mof_C 	C 	0.6829	0.4423	0.0409	-0.04
Mof_C 	C 	0.7282	0.4796	0.0823	0.068
Mof_C 	C 	0.8474	0.513	0.0821	0.074
Mof_C 	C 	0.8641	0.5472	0.038	-0.02
Mof_C 	C 	0.9782	0.5794	0.0376	-0.096
Mof_C 	C 	0.0725	0.5744	0.0825	0.004
Mof_C 	C 	0.055	0.5379	0.1269	0.029
Mof_S 	S 	0.7586	0.20612	0.41713	0.541
Mof_S 	S 	0.6125	0.87281	0.50635	0.614
Mof_S 	S 	0.335	0.25708	0.61969	0.639
Mof_S 	S 	0.9057	0.27954	0.85866	0.53
Mof_S 	S 	0.9986	0.12791	0.98316	0.56
Mof_S 	S 	0.4876	0.87332	0.98134	0.614
Mof_S 	S 	0.7414	0.70612	0.58287	0.541
Mof_S 	S 	0.8875	0.37281	0.49365	0.613
Mof_S 	S 	0.165	0.75708	0.38031	0.638
Mof_S 	S 	0.5943	0.77954	0.14134	0.53
Mof_S 	S 	0.5014	0.62791	0.01684	0.557
Mof_S 	S 	0.0124	0.37332	0.01866	0.607
Mof_S 	S 	0.2414	0.79388	0.58287	0.541
Mof_S 	S 	0.3875	0.12719	0.49365	0.614
Mof_S 	S 	0.665	0.74292	0.38031	0.639
Mof_S 	S 	0.0943	0.72046	0.14134	0.53
Mof_S 	S 	0.0014	0.87209	0.01684	0.56
Mof_S 	S 	0.5124	0.12668	0.01866	0.614
Mof_S 	S 	0.2586	0.29388	0.41713	0.541
Mof_S 	S 	0.1125	0.62719	0.50635	0.613
Mof_S 	S 	0.835	0.24292	0.61969	0.638
Mof_S 	S 	0.4057	0.22046	0.85866	0.53
Mof_S 	S 	0.4986	0.37209	0.98316	0.557
Mof_S 	S 	0.9876	0.62668	0.98134	0.607
Mof_N 	N 	0.5957	0.0513	0.3173	-0.051
Mof_N 	N 	0.3992	0.9914	0.3761	-0.048
Mof_N 	N 	0.5087	0.1173	0.7379	-0.043
Mof_N 	N 	0.8025	0.1215	0.7514	-0.045
Mof_N 	N 	0.1551	0.007	0.1229	-0.05
Mof_N 	N 	0.4444	0.9919	0.125	-0.044
Mof_N 	N 	0.9043	0.5513	0.6827	-0.051
Mof_N 	N 	0.1008	0.4914	0.6239	-0.048
Mof_N 	N 	0.9913	0.6173	0.2621	-0.044
Mof_N 	N 	0.6975	0.6215	0.2486	-0.045
Mof_N 	N 	0.3449	0.507	0.8771	-0.053
Mof_N 	N 	0.0556	0.4919	0.875	-0.043
Mof_N 	N 	0.4043	0.9487	0.6827	-0.051
Mof_N 	N 	0.6008	0.0086	0.6239	-0.048
Mof_N 	N 	0.4913	0.8827	0.2621	-0.043
Mof_N 	N 	0.1975	0.8785	0.2486	-0.045
Mof_N 	N 	0.8449	0.993	0.8771	-0.05
Mof_N 	N 	0.5556	0.0081	0.875	-0.044
Mof_N 	N 	0.0957	0.4487	0.3173	-0.051
Mof_N 	N 	0.8992	0.5086	0.3761	-0.048
Mof_N 	N 	0.0087	0.3827	0.7379	-0.044
Mof_N 	N 	0.3025	0.3785	0.7514	-0.045
Mof_N 	N 	0.6551	0.493	0.1229	-0.053
Mof_N 	N 	0.9444	0.5081	0.125	-0.043
Mof_O 	O 	0.5477	0.0066	0.2871	-0.311
Mof_O 	O 	0.337	0.0264	0.3378	-0.293
Mof_O 	O 	0.5602	0.0799	0.7768	-0.311
Mof_O 	O 	0.7697	0.0743	0.7212	-0.319
Mof_O 	O 	0.1997	0.9694	0.1622	-0.299
Mof_O 	O 	0.4306	0.0298	0.1652	-0.303
Mof_O 	O 	0.8737	0.2226	0.3965	-0.351
Mof_O 	O 	0.6581	0.2488	0.4072	-0.385
Mof_O 	O 	0.7846	0.1879	0.4736	-0.445
Mof_O 	O 	0.7217	0.854	0.4827	-0.452
Mof_O 	O 	0.5232	0.827	0.5151	-0.433
Mof_O 	O 	0.6471	0.9098	0.5548	-0.258
Mof_O 	O 	0.2028	0.2403	0.6013	-0.441
Mof_O 	O 	0.4144	0.2571	0.5775	-0.471
Mof_O 	O 	0.3491	0.3095	0.6523	-0.279
Mof_O 	O 	0.7805	0.3017	0.8674	-0.392
Mof_O 	O 	0.9767	0.2568	0.9092	-0.477
Mof_O 	O 	0.9788	0.319	0.8293	-0.251
Mof_O 	O 	0.9406	0.1764	0.0084	-0.44
Mof_O 	O 	0.9075	0.0911	0.9485	-0.263
Mof_O 	O 	0.1087	0.1439	0.9572	-0.422
Mof_O 	O 	0.3786	0.8357	0.9786	-0.447
Mof_O 	O 	0.6116	0.8445	0.9943	-0.439
Mof_O 	O 	0.4813	0.9117	0.9332	-0.253
Mof_O 	O 	0.3673	0.1078	0.2454	-0.305
Mof_O 	O 	0.1261	0.0488	0.2474	-0.288
Mof_O 	O 	0.7136	0.1608	0.8953	-0.263
Mof_O 	O 	0.7383	0.2743	0.0812	-0.257
Mof_O 	O 	0.0601	0.1099	0.4251	-0.217
Mof_O 	O 	0.9955	0.1205	0.5784	-0.23
Mof_O 	O 	0.9523	0.5066	0.7129	-0.312
Mof_O 	O 	0.163	0.5264	0.6622	-0.293
Mof_O 	O 	0.9398	0.5799	0.2232	-0.31
Mof_O 	O 	0.7303	0.5743	0.2788	-0.319
Mof_O 	O 	0.3003	0.4694	0.8378	-0.299
Mof_O 	O 	0.0694	0.5298	0.8348	-0.304
Mof_O 	O 	0.6263	0.7226	0.6035	-0.353
Mof_O 	O 	0.8419	0.7488	0.5928	-0.385
Mof_O 	O 	0.7154	0.6879	0.5264	-0.446
Mof_O 	O 	0.7783	0.354	0.5173	-0.452
Mof_O 	O 	0.9768	0.327	0.4849	-0.432
Mof_O 	O 	0.8529	0.4098	0.4452	-0.258
Mof_O 	O 	0.2972	0.7403	0.3987	-0.441
Mof_O 	O 	0.0856	0.7571	0.4225	-0.47
Mof_O 	O 	0.1509	0.8095	0.3477	-0.279
Mof_O 	O 	0.7195	0.8017	0.1326	-0.392
Mof_O 	O 	0.5233	0.7568	0.0908	-0.477
Mof_O 	O 	0.5212	0.819	0.1707	-0.251
Mof_O 	O 	0.5594	0.6764	0.9916	-0.442
Mof_O 	O 	0.5925	0.5911	0.0515	-0.263
Mof_O 	O 	0.3913	0.6439	0.0428	-0.42
Mof_O 	O 	0.1214	0.3357	0.0214	-0.447
Mof_O 	O 	0.8884	0.3445	0.0057	-0.436
Mof_O 	O 	0.0187	0.4117	0.0668	-0.253
Mof_O 	O 	0.1327	0.6078	0.7546	-0.304
Mof_O 	O 	0.3739	0.5488	0.7526	-0.287
Mof_O 	O 	0.7864	0.6608	0.1047	-0.264
Mof_O 	O 	0.7617	0.7743	0.9188	-0.258
Mof_O 	O 	0.4399	0.6099	0.5749	-0.216
Mof_O 	O 	0.5045	0.6205	0.4216	-0.231
Mof_O 	O 	0.4523	0.9934	0.7129	-0.311
Mof_O 	O 	0.663	0.9736	0.6622	-0.293
Mof_O 	O 	0.4398	0.9201	0.2232	-0.311
Mof_O 	O 	0.2303	0.9257	0.2788	-0.319
Mof_O 	O 	0.8003	0.0306	0.8378	-0.299
Mof_O 	O 	0.5694	0.9702	0.8348	-0.303
Mof_O 	O 	0.1263	0.7774	0.6035	-0.351
Mof_O 	O 	0.3419	0.7512	0.5928	-0.385
Mof_O 	O 	0.2154	0.8121	0.5264	-0.445
Mof_O 	O 	0.2783	0.146	0.5173	-0.452
Mof_O 	O 	0.4768	0.173	0.4849	-0.433
Mof_O 	O 	0.3529	0.0902	0.4452	-0.258
Mof_O 	O 	0.7972	0.7597	0.3987	-0.441
Mof_O 	O 	0.5856	0.7429	0.4225	-0.471
Mof_O 	O 	0.6509	0.6905	0.3477	-0.279
Mof_O 	O 	0.2195	0.6983	0.1326	-0.392
Mof_O 	O 	0.0233	0.7432	0.0908	-0.477
Mof_O 	O 	0.0212	0.681	0.1707	-0.251
Mof_O 	O 	0.0594	0.8236	0.9916	-0.44
Mof_O 	O 	0.0925	0.9089	0.0515	-0.263
Mof_O 	O 	0.8913	0.8561	0.0428	-0.422
Mof_O 	O 	0.6214	0.1643	0.0214	-0.447
Mof_O 	O 	0.3884	0.1555	0.0057	-0.439
Mof_O 	O 	0.5187	0.0883	0.0668	-0.253
Mof_O 	O 	0.6327	0.8922	0.7546	-0.305
Mof_O 	O 	0.8739	0.9512	0.7526	-0.288
Mof_O 	O 	0.2864	0.8392	0.1047	-0.263
Mof_O 	O 	0.2617	0.7257	0.9188	-0.257
Mof_O 	O 	0.9399	0.8901	0.5749	-0.217
Mof_O 	O 	0.0045	0.8795	0.4216	-0.23
Mof_O 	O 	0.0477	0.4934	0.2871	-0.312
Mof_O 	O 	0.837	0.4736	0.3378	-0.293
Mof_O 	O 	0.0602	0.4201	0.7768	-0.31
Mof_O 	O 	0.2697	0.4257	0.7212	-0.319
Mof_O 	O 	0.6997	0.5306	0.1622	-0.299
Mof_O 	O 	0.9306	0.4702	0.1652	-0.304
Mof_O 	O 	0.3737	0.2774	0.3965	-0.353
Mof_O 	O 	0.1581	0.2512	0.4072	-0.385
Mof_O 	O 	0.2846	0.3121	0.4736	-0.446
Mof_O 	O 	0.2217	0.646	0.4827	-0.452
Mof_O 	O 	0.0232	0.673	0.5151	-0.432
Mof_O 	O 	0.1471	0.5902	0.5548	-0.258
Mof_O 	O 	0.7028	0.2597	0.6013	-0.441
Mof_O 	O 	0.9144	0.2429	0.5775	-0.47
Mof_O 	O 	0.8491	0.1905	0.6523	-0.279
Mof_O 	O 	0.2805	0.1983	0.8674	-0.392
Mof_O 	O 	0.4767	0.2432	0.9092	-0.477
Mof_O 	O 	0.4788	0.181	0.8293	-0.251
Mof_O 	O 	0.4406	0.3236	0.0084	-0.442
Mof_O 	O 	0.4075	0.4089	0.9485	-0.263
Mof_O 	O 	0.6087	0.3561	0.9572	-0.42
Mof_O 	O 	0.8786	0.6643	0.9786	-0.447
Mof_O 	O 	0.1116	0.6555	0.9943	-0.436
Mof_O 	O 	0.9813	0.5883	0.9332	-0.253
Mof_O 	O 	0.8673	0.3922	0.2454	-0.304
Mof_O 	O 	0.6261	0.4512	0.2474	-0.287
Mof_O 	O 	0.2136	0.3392	0.8953	-0.264
Mof_O 	O 	0.2383	0.2257	0.0812	-0.258
Mof_O 	O 	0.5601	0.3901	0.4251	-0.216
Mof_O 	O 	0.4955	0.3795	0.5784	-0.231
Mof_Cl	Cl	0.1454	0.01065	0.76503	-0.273
Mof_Cl	Cl	0.3546	0.51065	0.23497	-0.27
Mof_Cl	Cl	0.8546	0.98935	0.23497	-0.273
Mof_Cl	Cl	0.6454	0.48935	0.76503	-0.27
_end
