data_functionalizedCrystal
_audit_creation_method	'EQeq! by Chris Wilmer'
_symmetry_space_group_name_H-M	'P1'
_symmetry_Int_Tables_number	1
_symmetry_cell_setting	triclinic
loop_
_symmetry_equiv_pos_as_xyz
  x,y,z
_cell_length_a	13.427
_cell_length_b	18.684
_cell_length_c	16.764
_cell_angle_alpha	90
_cell_angle_beta	112.11
_cell_angle_gamma	90
loop_
_atom_site_label
_atom_site_type_symbol
_atom_site_fract_x
_atom_site_fract_y
_atom_site_fract_z
_atom_site_charge
Mof_O 	O 	0.40869	0.09306	0.49836	-0.435
Mof_O 	O 	0.25954	0.05405	0.5138	-0.321
Mof_O 	O 	0.14639	0.1115	0.33186	-0.458
Mof_O 	O 	0.00832	0.16174	0.34738	-0.576
Mof_N 	N 	0.5896	0.01192	0.63271	-0.272
Mof_N 	N 	0.7061	0.98833	0.763	-0.068
Mof_N 	N 	0.9673	0.00101	0.83123	0.147
Mof_N 	N 	0.9031	0.05206	0.92222	-0.464
Mof_H 	H 	0.8623	0.0599	0.9504	0.273
Mof_C 	C 	0.3187	0.10167	0.50271	0.337
Mof_C 	C 	0.1072	0.1553	0.36896	0.333
Mof_C 	C 	0.1817	0.20262	0.43846	-0.096
Mof_C 	C 	0.2811	0.17879	0.49784	-0.039
Mof_C 	C 	0.3478	0.22665	0.55712	-0.024
Mof_H 	H 	0.4145	0.2109	0.5952	0.053
Mof_C 	C 	0.6635	0.9689	0.6818	0.138
Mof_H 	H 	0.6844	0.9278	0.6611	0.006
Mof_C 	C 	0.6087	0.0751	0.6788	-0.143
Mof_H 	H 	0.5767	0.1189	0.6575	0.078
Mof_C 	C 	0.6814	0.0642	0.7584	0.083
Mof_H 	H 	0.7098	0.0981	0.8017	0.02
Mof_C 	C 	0.7935	0.95374	0.8323	-0.203
Mof_H 	H 	0.8112	0.9088	0.8118	0.148
Mof_H 	H 	0.7708	0.9433	0.8796	0.141
Mof_C 	C 	0.89	0.00024	0.86335	0.23
Mof_C 	C 	0.0346	0.05774	0.8722	-1.314
Mof_C 	C 	0.125	0.0851	0.8628	1.014
Mof_H 	H 	0.1522	0.0642	0.8248	-0.371
Mof_C 	C 	0.1735	0.1435	0.9106	-1.181
Mof_H 	H 	0.2347	0.1623	0.905	0.424
Mof_C 	C 	0.1338	0.1758	0.9674	1.125
Mof_H 	H 	0.1687	0.2157	0.9986	-0.39
Mof_C 	C 	0.0436	0.1496	0.9784	-1.598
Mof_H 	H 	0.0173	0.1705	0.0169	0.394
Mof_C 	C 	0.9944	0.09076	0.9291	1.555
Mof_C 	C 	0.5511	0.0401	0.6944	0.144
Mof_H 	H 	0.4899	0.0684	0.6813	-0.033
Mof_C 	C 	0.6177	0.0225	0.7747	-0.183
Mof_H 	H 	0.6072	0.0304	0.8257	0.087
Mof_O 	O 	0.90869	0.59306	0.49836	-0.227
Mof_O 	O 	0.75954	0.55405	0.5138	-0.27
Mof_O 	O 	0.64639	0.6115	0.33186	-0.388
Mof_O 	O 	0.50832	0.66174	0.34738	-0.366
Mof_N 	N 	0.0896	0.51192	0.63271	0.009
Mof_N 	N 	0.2061	0.48833	0.763	0.035
Mof_N 	N 	0.4673	0.50101	0.83123	-0.279
Mof_N 	N 	0.4031	0.55206	0.92222	-0.234
Mof_H 	H 	0.3623	0.5599	0.9504	0.199
Mof_C 	C 	0.8187	0.60167	0.50271	0.327
Mof_C 	C 	0.6072	0.6553	0.36896	0.31
Mof_C 	C 	0.6817	0.70262	0.43846	-0.062
Mof_C 	C 	0.7811	0.67879	0.49784	-0.025
Mof_C 	C 	0.8478	0.72665	0.55712	-0.028
Mof_H 	H 	0.9145	0.7109	0.5952	0.095
Mof_C 	C 	0.1635	0.4689	0.6818	-0.111
Mof_H 	H 	0.1844	0.4278	0.6611	0.058
Mof_C 	C 	0.1087	0.5751	0.6788	-9.436
Mof_H 	H 	0.0767	0.6189	0.6575	3.149
Mof_C 	C 	0.1814	0.5642	0.7584	7.918
Mof_H 	H 	0.2098	0.5981	0.8017	-2.734
Mof_C 	C 	0.2935	0.45374	0.8323	-0.308
Mof_H 	H 	0.3112	0.4088	0.8118	0.128
Mof_H 	H 	0.2708	0.4433	0.8796	0.2
Mof_C 	C 	0.39	0.50024	0.86335	0.148
Mof_C 	C 	0.5346	0.55774	0.8722	0.081
Mof_C 	C 	0.625	0.5851	0.8628	-0.179
Mof_H 	H 	0.6522	0.5642	0.8248	0.099
Mof_C 	C 	0.6735	0.6435	0.9106	0.052
Mof_H 	H 	0.7347	0.6623	0.905	-0.008
Mof_C 	C 	0.6338	0.6758	0.9674	-0.099
Mof_H 	H 	0.6687	0.7157	0.9986	0.081
Mof_C 	C 	0.5436	0.6496	0.9784	0.004
Mof_H 	H 	0.5173	0.6705	0.0169	0.033
Mof_C 	C 	0.4944	0.59076	0.9291	0.059
Mof_C 	C 	0.0511	0.5401	0.6944	8.428
Mof_H 	H 	0.9899	0.5684	0.6813	-2.34
Mof_C 	C 	0.1177	0.5225	0.7747	-7.949
Mof_H 	H 	0.1072	0.5304	0.8257	2.787
Mof_O 	O 	0.59131	0.09306	0.00164	-0.499
Mof_O 	O 	0.74046	0.05405	0.9862	-0.328
Mof_O 	O 	0.85361	0.1115	0.16814	-0.297
Mof_O 	O 	0.99168	0.16174	0.15262	-0.104
Mof_N 	N 	0.4104	0.01192	0.86729	-0.269
Mof_N 	N 	0.2939	0.98833	0.737	-0.086
Mof_N 	N 	0.0327	0.00101	0.66877	-0.638
Mof_N 	N 	0.0969	0.05206	0.57778	0.011
Mof_H 	H 	0.1377	0.0599	0.5496	0.047
Mof_C 	C 	0.6813	0.10167	0.99729	0.459
Mof_C 	C 	0.8928	0.1553	0.13104	0.239
Mof_C 	C 	0.8183	0.20262	0.06154	0.084
Mof_C 	C 	0.7189	0.17879	0.00216	-0.214
Mof_C 	C 	0.6522	0.22665	0.94288	0.147
Mof_H 	H 	0.5855	0.2109	0.9048	-0.003
Mof_C 	C 	0.3365	0.9689	0.8182	0.156
Mof_H 	H 	0.3156	0.9278	0.8389	0.002
Mof_C 	C 	0.3913	0.0751	0.8212	-0.001
Mof_H 	H 	0.4233	0.1189	0.8425	0.019
Mof_C 	C 	0.3186	0.0642	0.7416	-0.025
Mof_H 	H 	0.2902	0.0981	0.6983	0.037
Mof_C 	C 	0.2065	0.95374	0.6677	-0.076
Mof_H 	H 	0.1888	0.9088	0.6882	0.024
Mof_H 	H 	0.2292	0.9433	0.6204	0.064
Mof_C 	C 	0.11	0.00024	0.63665	0.027
Mof_C 	C 	0.9654	0.05774	0.6278	1.425
Mof_C 	C 	0.875	0.0851	0.6372	-1.235
Mof_H 	H 	0.8478	0.0642	0.6752	0.484
Mof_C 	C 	0.8265	0.1435	0.5894	1.167
Mof_H 	H 	0.7653	0.1623	0.595	-0.369
Mof_C 	C 	0.8662	0.1758	0.5326	-1.221
Mof_H 	H 	0.8313	0.2157	0.5014	0.49
Mof_C 	C 	0.9564	0.1496	0.5216	1.482
Mof_H 	H 	0.9827	0.1705	0.4831	-0.282
Mof_C 	C 	0.0056	0.09076	0.5709	-1.427
Mof_C 	C 	0.4489	0.0401	0.8056	0.001
Mof_H 	H 	0.5101	0.0684	0.8187	0.014
Mof_C 	C 	0.3823	0.0225	0.7253	-0.06
Mof_H 	H 	0.3928	0.0304	0.6743	0.041
Mof_O 	O 	0.09131	0.59306	0.00164	-0.619
Mof_O 	O 	0.24046	0.55405	0.9862	-0.331
Mof_O 	O 	0.35361	0.6115	0.16814	-0.402
Mof_O 	O 	0.49168	0.66174	0.15262	-0.344
Mof_N 	N 	0.9104	0.51192	0.86729	-0.431
Mof_N 	N 	0.7939	0.48833	0.737	-0.212
Mof_N 	N 	0.5327	0.50101	0.66877	-0.238
Mof_N 	N 	0.5969	0.55206	0.57778	-0.242
Mof_H 	H 	0.6377	0.5599	0.5496	0.144
Mof_C 	C 	0.1813	0.60167	0.99729	0.444
Mof_C 	C 	0.3928	0.6553	0.13104	0.268
Mof_C 	C 	0.3183	0.70262	0.06154	0.042
Mof_C 	C 	0.2189	0.67879	0.00216	-0.207
Mof_C 	C 	0.1522	0.72665	0.94288	0.136
Mof_H 	H 	0.0855	0.7109	0.9048	-0.039
Mof_C 	C 	0.8365	0.4689	0.8182	0.261
Mof_H 	H 	0.8156	0.4278	0.8389	-0.006
Mof_C 	C 	0.8913	0.5751	0.8212	9.262
Mof_H 	H 	0.9233	0.6189	0.8425	-3.035
Mof_C 	C 	0.8186	0.5642	0.7416	-7.81
Mof_H 	H 	0.7902	0.5981	0.6983	2.778
Mof_C 	C 	0.7065	0.45374	0.6677	-0.13
Mof_H 	H 	0.6888	0.4088	0.6882	0.072
Mof_H 	H 	0.7292	0.4433	0.6204	0.025
Mof_C 	C 	0.61	0.50024	0.63665	0.233
Mof_C 	C 	0.4654	0.55774	0.6278	0.016
Mof_C 	C 	0.375	0.5851	0.6372	-0.016
Mof_H 	H 	0.3478	0.5642	0.6752	0.018
Mof_C 	C 	0.3265	0.6435	0.5894	-0.082
Mof_H 	H 	0.2653	0.6623	0.595	0.078
Mof_C 	C 	0.3662	0.6758	0.5326	0.037
Mof_H 	H 	0.3313	0.7157	0.5014	0.008
Mof_C 	C 	0.4564	0.6496	0.5216	-0.16
Mof_H 	H 	0.4827	0.6705	0.4831	0.097
Mof_C 	C 	0.5056	0.59076	0.5709	0.112
Mof_C 	C 	0.9489	0.5401	0.8056	-8.27
Mof_H 	H 	0.0101	0.5684	0.8187	2.326
Mof_C 	C 	0.8823	0.5225	0.7253	7.767
Mof_H 	H 	0.8928	0.5304	0.6743	-2.658
Mof_O 	O 	0.59131	0.90694	0.50164	-0.419
Mof_O 	O 	0.74046	0.94595	0.4862	-0.282
Mof_O 	O 	0.85361	0.8885	0.66814	-0.281
Mof_O 	O 	0.99168	0.83826	0.65262	-0.098
Mof_N 	N 	0.4104	0.98808	0.36729	-0.197
Mof_N 	N 	0.2939	0.01167	0.237	-0.112
Mof_N 	N 	0.0327	0.99899	0.16877	-0.619
Mof_N 	N 	0.0969	0.94794	0.07778	-0.018
Mof_H 	H 	0.1377	0.9401	0.0496	0.064
Mof_C 	C 	0.6813	0.89833	0.49729	0.344
Mof_C 	C 	0.8928	0.8447	0.63104	0.27
Mof_C 	C 	0.8183	0.79738	0.56154	0.006
Mof_C 	C 	0.7189	0.82121	0.50216	-0.072
Mof_C 	C 	0.6522	0.77335	0.44288	0.013
Mof_H 	H 	0.5855	0.7891	0.4048	0.038
Mof_C 	C 	0.3365	0.0311	0.3182	0.014
Mof_H 	H 	0.3156	0.0722	0.3389	0.034
Mof_C 	C 	0.3913	0.9249	0.3212	-0.025
Mof_H 	H 	0.4233	0.8811	0.3425	0.022
Mof_C 	C 	0.3186	0.9358	0.2416	0.021
Mof_H 	H 	0.2902	0.9019	0.1983	0.023
Mof_C 	C 	0.2065	0.04626	0.1677	-0.225
Mof_H 	H 	0.1888	0.0912	0.1882	0.054
Mof_H 	H 	0.2292	0.0567	0.1204	0.069
Mof_C 	C 	0.11	0.99976	0.13665	0.149
Mof_C 	C 	0.9654	0.94226	0.1278	1.403
Mof_C 	C 	0.875	0.9149	0.1372	-1.185
Mof_H 	H 	0.8478	0.9358	0.1752	0.486
Mof_C 	C 	0.8265	0.8565	0.0894	1.109
Mof_H 	H 	0.7653	0.8377	0.095	-0.35
Mof_C 	C 	0.8662	0.8242	0.0326	-1.138
Mof_H 	H 	0.8313	0.7843	0.0014	0.449
Mof_C 	C 	0.9564	0.8504	0.0216	1.361
Mof_H 	H 	0.9827	0.8295	0.9831	-0.217
Mof_C 	C 	0.0056	0.90924	0.0709	-1.367
Mof_C 	C 	0.4489	0.9599	0.3056	0.007
Mof_H 	H 	0.5101	0.9316	0.3187	0.013
Mof_C 	C 	0.3823	0.9775	0.2253	0.006
Mof_H 	H 	0.3928	0.9696	0.1743	0.034
Mof_O 	O 	0.09131	0.40694	0.50164	-0.567
Mof_O 	O 	0.24046	0.44595	0.4862	-0.32
Mof_O 	O 	0.35361	0.3885	0.66814	-0.406
Mof_O 	O 	0.49168	0.33826	0.65262	-0.35
Mof_N 	N 	0.9104	0.48808	0.36729	-0.439
Mof_N 	N 	0.7939	0.51167	0.237	-0.214
Mof_N 	N 	0.5327	0.49899	0.16877	-0.233
Mof_N 	N 	0.5969	0.44794	0.07778	-0.251
Mof_H 	H 	0.6377	0.4401	0.0496	0.136
Mof_C 	C 	0.1813	0.39833	0.49729	0.339
Mof_C 	C 	0.3928	0.3447	0.63104	0.301
Mof_C 	C 	0.3183	0.29738	0.56154	-0.037
Mof_C 	C 	0.2189	0.32121	0.50216	-0.075
Mof_C 	C 	0.1522	0.27335	0.44288	0.008
Mof_H 	H 	0.0855	0.2891	0.4048	-0.001
Mof_C 	C 	0.8365	0.5311	0.3182	0.262
Mof_H 	H 	0.8156	0.5722	0.3389	-0.01
Mof_C 	C 	0.8913	0.4249	0.3212	9.316
Mof_H 	H 	0.9233	0.3811	0.3425	-3.059
Mof_C 	C 	0.8186	0.4358	0.2416	-7.856
Mof_H 	H 	0.7902	0.4019	0.1983	2.791
Mof_C 	C 	0.7065	0.54626	0.1677	-0.123
Mof_H 	H 	0.6888	0.5912	0.1882	0.066
Mof_H 	H 	0.7292	0.5567	0.1204	0.016
Mof_C 	C 	0.61	0.49976	0.13665	0.226
Mof_C 	C 	0.4654	0.44226	0.1278	-0.016
Mof_C 	C 	0.375	0.4149	0.1372	0.025
Mof_H 	H 	0.3478	0.4358	0.1752	0.002
Mof_C 	C 	0.3265	0.3565	0.0894	-0.145
Mof_H 	H 	0.2653	0.3377	0.095	0.092
Mof_C 	C 	0.3662	0.3242	0.0326	0.113
Mof_H 	H 	0.3313	0.2843	0.0014	-0.035
Mof_C 	C 	0.4564	0.3504	0.0216	-0.28
Mof_H 	H 	0.4827	0.3295	0.9831	0.162
Mof_C 	C 	0.5056	0.40924	0.0709	0.151
Mof_C 	C 	0.9489	0.4599	0.3056	-8.318
Mof_H 	H 	0.0101	0.4316	0.3187	2.338
Mof_C 	C 	0.8823	0.4775	0.2253	7.812
Mof_H 	H 	0.8928	0.4696	0.1743	-2.676
Mof_O 	O 	0.40869	0.90694	0.99836	-0.354
Mof_O 	O 	0.25954	0.94595	0.0138	-0.275
Mof_O 	O 	0.14639	0.8885	0.83186	-0.441
Mof_O 	O 	0.00832	0.83826	0.84738	-0.569
Mof_N 	N 	0.5896	0.98808	0.13271	-0.194
Mof_N 	N 	0.7061	0.01167	0.263	-0.095
Mof_N 	N 	0.9673	0.99899	0.33123	0.17
Mof_N 	N 	0.9031	0.94794	0.42222	-0.497
Mof_H 	H 	0.8623	0.9401	0.4504	0.291
Mof_C 	C 	0.3187	0.89833	0.00271	0.23
Mof_C 	C 	0.1072	0.8447	0.86896	0.364
Mof_C 	C 	0.1817	0.79738	0.93846	-0.171
Mof_C 	C 	0.2811	0.82121	0.99784	0.095
Mof_C 	C 	0.3478	0.77335	0.05712	-0.152
Mof_H 	H 	0.4145	0.7891	0.0952	0.091
Mof_C 	C 	0.6635	0.0311	0.1818	-0.008
Mof_H 	H 	0.6844	0.0722	0.1611	0.039
Mof_C 	C 	0.6087	0.9249	0.1788	-0.165
Mof_H 	H 	0.5767	0.8811	0.1575	0.082
Mof_C 	C 	0.6814	0.9358	0.2584	0.127
Mof_H 	H 	0.7098	0.9019	0.3017	0.006
Mof_C 	C 	0.7935	0.04626	0.3323	-0.352
Mof_H 	H 	0.8112	0.0912	0.3118	0.178
Mof_H 	H 	0.7708	0.0567	0.3796	0.147
Mof_C 	C 	0.89	0.99976	0.36335	0.352
Mof_C 	C 	0.0346	0.94226	0.3722	-1.356
Mof_C 	C 	0.125	0.9149	0.3628	1.082
Mof_H 	H 	0.1522	0.9358	0.3248	-0.376
Mof_C 	C 	0.1735	0.8565	0.4106	-1.261
Mof_H 	H 	0.2347	0.8377	0.405	0.45
Mof_C 	C 	0.1338	0.8242	0.4674	1.232
Mof_H 	H 	0.1687	0.7843	0.4986	-0.441
Mof_C 	C 	0.0436	0.8504	0.4784	-1.753
Mof_H 	H 	0.0173	0.8295	0.5169	0.475
Mof_C 	C 	0.9944	0.90924	0.4291	1.637
Mof_C 	C 	0.5511	0.9599	0.1944	0.147
Mof_H 	H 	0.4899	0.9316	0.1813	-0.034
Mof_C 	C 	0.6177	0.9775	0.2747	-0.115
Mof_H 	H 	0.6072	0.9696	0.3257	0.078
Mof_O 	O 	0.90869	0.40694	0.99836	-0.172
Mof_O 	O 	0.75954	0.44595	0.0138	-0.258
Mof_O 	O 	0.64639	0.3885	0.83186	-0.392
Mof_O 	O 	0.50832	0.33826	0.84738	-0.372
Mof_N 	N 	0.0896	0.48808	0.13271	0.006
Mof_N 	N 	0.2061	0.51167	0.263	0.033
Mof_N 	N 	0.4673	0.49899	0.33123	-0.274
Mof_N 	N 	0.4031	0.44794	0.42222	-0.243
Mof_H 	H 	0.3623	0.4401	0.4504	0.192
Mof_C 	C 	0.8187	0.39833	0.00271	0.221
Mof_C 	C 	0.6072	0.3447	0.86896	0.344
Mof_C 	C 	0.6817	0.29738	0.93846	-0.143
Mof_C 	C 	0.7811	0.32121	0.99784	0.109
Mof_C 	C 	0.8478	0.27335	0.05712	-0.16
Mof_H 	H 	0.9145	0.2891	0.0952	0.134
Mof_C 	C 	0.1635	0.5311	0.1818	-0.111
Mof_H 	H 	0.1844	0.5722	0.1611	0.054
Mof_C 	C 	0.1087	0.4249	0.1788	-9.43
Mof_H 	H 	0.0767	0.3811	0.1575	3.142
Mof_C 	C 	0.1814	0.4358	0.2584	7.912
Mof_H 	H 	0.2098	0.4019	0.3017	-2.734
Mof_C 	C 	0.2935	0.54626	0.3323	-0.3
Mof_H 	H 	0.3112	0.5912	0.3118	0.122
Mof_H 	H 	0.2708	0.5567	0.3796	0.19
Mof_C 	C 	0.39	0.49976	0.36335	0.141
Mof_C 	C 	0.5346	0.44226	0.3722	0.051
Mof_C 	C 	0.625	0.4149	0.3628	-0.141
Mof_H 	H 	0.6522	0.4358	0.3248	0.084
Mof_C 	C 	0.6735	0.3565	0.4106	-0.007
Mof_H 	H 	0.7347	0.3377	0.405	0.005
Mof_C 	C 	0.6338	0.3242	0.4674	-0.027
Mof_H 	H 	0.6687	0.2843	0.4986	0.041
Mof_C 	C 	0.5436	0.3504	0.4784	-0.11
Mof_H 	H 	0.5173	0.3295	0.5169	0.095
Mof_C 	C 	0.4944	0.40924	0.4291	0.095
Mof_C 	C 	0.0511	0.4599	0.1944	8.421
Mof_H 	H 	0.9899	0.4316	0.1813	-2.34
Mof_C 	C 	0.1177	0.4775	0.2747	-7.943
Mof_H 	H 	0.1072	0.4696	0.3257	2.782
Mof_Co	Co	0.5	0	0.5	1.091
Mof_Co	Co	3.22159e-33	0.5	0.5	0.938
Mof_Co	Co	0.5	0	-0	1.076
Mof_Co	Co	-0	0.5	-0	0.926
Mof_Co	Co	1.6108e-33	0.07186	0.25	0.961
Mof_Co	Co	0.5	0.57186	0.25	1.154
Mof_Co	Co	4.83239e-33	0.92814	0.75	0.993
Mof_Co	Co	0.5	0.42814	0.75	1.155
_end
