data_functionalizedCrystal
_audit_creation_method	'EQeq! by Chris Wilmer'
_symmetry_space_group_name_H-M	'P1'
_symmetry_Int_Tables_number	1
_symmetry_cell_setting	triclinic
loop_
_symmetry_equiv_pos_as_xyz
  x,y,z
_cell_length_a	15.083
_cell_length_b	20.531
_cell_length_c	3.6656
_cell_angle_alpha	90
_cell_angle_beta	90
_cell_angle_gamma	90
loop_
_atom_site_label
_atom_site_type_symbol
_atom_site_fract_x
_atom_site_fract_y
_atom_site_fract_z
_atom_site_charge
Mof_N 	N 	0.6691	0.5889	0.4658	-0.262
Mof_C 	C 	0.6183	0.6384	0.3574	0.079
Mof_H 	H 	0.5604	0.6295	0.2857	-0.007
Mof_C 	C 	0.6471	0.7015	0.3463	-0.137
Mof_H 	H 	0.6095	0.7343	0.2649	0.084
Mof_C 	C 	0.7319	0.7163	0.456	0.056
Mof_C 	C 	0.7859	0.664	0.5679	-0.14
Mof_H 	H 	0.8445	0.6713	0.6365	0.058
Mof_C 	C 	0.7512	0.6024	0.5745	0.075
Mof_H 	H 	0.7865	0.5684	0.6587	-0.05
Mof_N 	N 	0.1691	0.0889	0.4658	-0.263
Mof_C 	C 	0.1183	0.1384	0.3574	0.079
Mof_H 	H 	0.0604	0.1295	0.2857	0.004
Mof_C 	C 	0.1471	0.2015	0.3463	-0.135
Mof_H 	H 	0.1095	0.2343	0.2649	0.09
Mof_C 	C 	0.2319	0.2163	0.456	0.058
Mof_C 	C 	0.2859	0.164	0.5679	-0.143
Mof_H 	H 	0.3445	0.1713	0.6365	0.062
Mof_C 	C 	0.2512	0.1024	0.5745	0.078
Mof_H 	H 	0.2865	0.0684	0.6587	-0.057
Mof_N 	N 	0.3309	0.4111	0.4658	-0.261
Mof_C 	C 	0.3817	0.3616	0.3574	0.079
Mof_H 	H 	0.4396	0.3705	0.2857	-0.008
Mof_C 	C 	0.3529	0.2985	0.3463	-0.137
Mof_H 	H 	0.3905	0.2657	0.2649	0.082
Mof_C 	C 	0.2681	0.2837	0.456	0.058
Mof_C 	C 	0.2141	0.336	0.5679	-0.141
Mof_H 	H 	0.1555	0.3287	0.6365	0.07
Mof_C 	C 	0.2488	0.3976	0.5745	0.078
Mof_H 	H 	0.2135	0.4316	0.6587	-0.043
Mof_N 	N 	0.8309	0.9111	0.4658	-0.25
Mof_C 	C 	0.8817	0.8616	0.3574	0.078
Mof_H 	H 	0.9396	0.8705	0.2857	-0.015
Mof_C 	C 	0.8529	0.7985	0.3463	-0.138
Mof_H 	H 	0.8905	0.7657	0.2649	0.075
Mof_C 	C 	0.7681	0.7837	0.456	0.056
Mof_C 	C 	0.7141	0.836	0.5679	-0.137
Mof_H 	H 	0.6555	0.8287	0.6365	0.066
Mof_C 	C 	0.7488	0.8976	0.5745	0.076
Mof_H 	H 	0.7135	0.9316	0.6587	-0.032
Mof_N 	N 	0.3309	0.5889	0.5342	-0.263
Mof_C 	C 	0.3817	0.6384	0.6426	0.079
Mof_H 	H 	0.4396	0.6295	0.7143	-0.029
Mof_C 	C 	0.3529	0.7015	0.6537	-0.144
Mof_H 	H 	0.3905	0.7343	0.7351	0.065
Mof_C 	C 	0.2681	0.7163	0.544	0.06
Mof_C 	C 	0.2141	0.664	0.4321	-0.139
Mof_H 	H 	0.1555	0.6713	0.3635	0.085
Mof_C 	C 	0.2488	0.6024	0.4255	0.08
Mof_H 	H 	0.2135	0.5684	0.3413	-0.027
Mof_N 	N 	0.8309	0.0889	0.5342	-0.271
Mof_C 	C 	0.8817	0.1384	0.6426	0.077
Mof_H 	H 	0.9396	0.1295	0.7143	-0.047
Mof_C 	C 	0.8529	0.2015	0.6537	-0.147
Mof_H 	H 	0.8905	0.2343	0.7351	0.056
Mof_C 	C 	0.7681	0.2163	0.544	0.058
Mof_C 	C 	0.7141	0.164	0.4321	-0.141
Mof_H 	H 	0.6555	0.1713	0.3635	0.076
Mof_C 	C 	0.7488	0.1024	0.4255	0.078
Mof_H 	H 	0.7135	0.0684	0.3413	-0.043
Mof_N 	N 	0.6691	0.4111	0.5342	-0.262
Mof_C 	C 	0.6183	0.3616	0.6426	0.076
Mof_H 	H 	0.5604	0.3705	0.7143	-0.028
Mof_C 	C 	0.6471	0.2985	0.6537	-0.139
Mof_H 	H 	0.6095	0.2657	0.7351	0.061
Mof_C 	C 	0.7319	0.2837	0.544	0.053
Mof_C 	C 	0.7859	0.336	0.4321	-0.135
Mof_H 	H 	0.8445	0.3287	0.3635	0.071
Mof_C 	C 	0.7512	0.3976	0.4255	0.075
Mof_H 	H 	0.7865	0.4316	0.3413	-0.034
Mof_N 	N 	0.1691	0.9111	0.5342	-0.246
Mof_C 	C 	0.1183	0.8616	0.6426	0.077
Mof_H 	H 	0.0604	0.8705	0.7143	-0.009
Mof_C 	C 	0.1471	0.7985	0.6537	-0.136
Mof_H 	H 	0.1095	0.7657	0.7351	0.069
Mof_C 	C 	0.2319	0.7837	0.544	0.055
Mof_C 	C 	0.2859	0.836	0.4321	-0.132
Mof_H 	H 	0.3445	0.8287	0.3635	0.079
Mof_C 	C 	0.2512	0.8976	0.4255	0.076
Mof_H 	H 	0.2865	0.9316	0.3413	-0.016
Mof_Cu	Cu	0.62178	0.5	0.5	0.84
Mof_Cu	Cu	0.12178	0	0.5	0.827
Mof_Cu	Cu	0.37822	0.5	0.5	0.841
Mof_Cu	Cu	0.87822	0	0.5	0.813
Mof_Cl	Cl	0.5	0.5	-0	-0.717
Mof_Cl	Cl	-0	0	-0	-0.707
_end
