data_functionalizedCrystal
_audit_creation_method	'EQeq! by Chris Wilmer'
_symmetry_space_group_name_H-M	'P1'
_symmetry_Int_Tables_number	1
_symmetry_cell_setting	triclinic
loop_
_symmetry_equiv_pos_as_xyz
  x,y,z
_cell_length_a	9.1844
_cell_length_b	21.615
_cell_length_c	11.5401
_cell_angle_alpha	90
_cell_angle_beta	112.701
_cell_angle_gamma	90
loop_
_atom_site_label
_atom_site_type_symbol
_atom_site_fract_x
_atom_site_fract_y
_atom_site_fract_z
_atom_site_charge
Mof_U 	U 	0.25388	0.24934	0.25795	0.045
Mof_U 	U 	0.55603	0.99537	0.37873	0.033
Mof_O 	O 	0.63111	0.04846	0.2477	-0.03
Mof_O 	O 	0.09209	0.33615	0.21027	-0.115
Mof_O 	O 	0.41493	0.1621	0.30493	-0.11
Mof_O 	O 	0.04956	0.18555	0.197	-0.058
Mof_O 	O 	0.45793	0.31308	0.31906	-0.076
Mof_O 	O 	0.69322	0.2175	0.91921	-0.171
Mof_O 	O 	0.60269	0.0911	0.2981	-0.123
Mof_O 	O 	0.90126	0.40543	0.20828	-0.157
Mof_O 	O 	0.67286	0.21097	0.55965	-0.145
Mof_O 	O 	0.80542	0.99381	0.51328	-0.067
Mof_O 	O 	0.81214	0.28413	0.59434	-0.178
Mof_O 	O 	0.30671	0.99687	0.24382	-0.052
Mof_O 	O 	0.83238	0.29075	0.95758	-0.137
Mof_O 	O 	0.49672	0.93305	0.50624	-0.027
Mof_C 	C 	0.74024	0.24632	0.51096	0.277
Mof_C 	C 	0.76503	0.25441	0.00441	0.27
Mof_C 	C 	0.95447	0.34806	0.21511	0.238
Mof_C 	C 	0.55218	0.15013	0.29936	0.224
Mof_C 	C 	0.74029	0.24578	0.37869	-0.029
Mof_C 	C 	0.76561	0.25341	0.13671	-0.023
Mof_C 	C 	0.65447	0.20242	0.28181	0.008
Mof_C 	C 	0.8523	0.29623	0.23377	-0.004
Mof_C 	C 	0.83265	0.29224	0.34996	0
Mof_H 	H 	0.89152	0.32671	0.42019	0.061
Mof_C 	C 	0.67385	0.20668	0.16533	0
Mof_H 	H 	0.615	0.17238	0.09464	0.068
Mof_N 	N 	0.5823	0.43676	0.24836	-0.28
Mof_U 	U 	0.25455	0.74922	0.24363	0.044
Mof_U 	U 	0.95213	0.49544	0.1227	0.031
Mof_O 	O 	0.87677	0.54852	0.25359	-0.032
Mof_O 	O 	0.41617	0.83604	0.29133	-0.116
Mof_O 	O 	0.09356	0.662	0.19681	-0.109
Mof_O 	O 	0.45904	0.68552	0.30454	-0.059
Mof_O 	O 	0.05043	0.81291	0.18258	-0.076
Mof_O 	O 	0.81553	0.71748	0.58256	-0.175
Mof_O 	O 	0.90554	0.59111	0.20347	-0.122
Mof_O 	O 	0.60676	0.90534	0.29315	-0.156
Mof_O 	O 	0.83615	0.71099	0.94225	-0.142
Mof_O 	O 	0.70288	0.49409	0.98755	-0.061
Mof_O 	O 	0.69616	0.78395	0.90729	-0.177
Mof_O 	O 	0.20121	0.49678	0.25808	-0.054
Mof_O 	O 	0.67567	0.79052	0.54406	-0.142
Mof_O 	O 	0.01171	0.43311	0.99536	-0.028
Mof_C 	C 	0.76836	0.74625	0.99078	0.281
Mof_C 	C 	0.7434	0.75431	0.49732	0.278
Mof_C 	C 	0.55375	0.84796	0.28648	0.241
Mof_C 	C 	0.95627	0.65011	0.20235	0.222
Mof_C 	C 	0.76826	0.74573	0.12302	-0.03
Mof_C 	C 	0.7429	0.75337	0.36501	-0.024
Mof_C 	C 	0.85418	0.70243	0.21998	0.009
Mof_C 	C 	0.656	0.79614	0.26786	-0.004
Mof_C 	C 	0.67572	0.79215	0.15168	0.001
Mof_H 	H 	0.61684	0.82662	0.08143	0.061
Mof_C 	C 	0.83486	0.7067	0.33646	0.001
Mof_H 	H 	0.89377	0.67241	0.40717	0.068
Mof_N 	N 	0.92054	0.93666	0.25033	-0.28
Mof_U 	U 	0.75461	0.75181	0.74373	0.044
Mof_U 	U 	0.45242	0.00576	0.62279	0.032
Mof_O 	O 	0.3769	0.95269	0.75361	-0.03
Mof_O 	O 	0.91638	0.66502	0.79134	-0.113
Mof_O 	O 	0.5936	0.83907	0.69675	-0.11
Mof_O 	O 	0.95898	0.81556	0.80439	-0.057
Mof_O 	O 	0.55052	0.68806	0.68303	-0.075
Mof_O 	O 	0.31542	0.78364	0.08246	-0.173
Mof_O 	O 	0.40571	0.91006	0.70343	-0.122
Mof_O 	O 	0.10707	0.59576	0.79317	-0.155
Mof_O 	O 	0.33586	0.79016	0.44205	-0.144
Mof_O 	O 	0.20315	0.00726	0.48787	-0.067
Mof_O 	O 	0.19628	0.7171	0.4073	-0.178
Mof_O 	O 	0.70163	0.00427	0.75798	-0.051
Mof_O 	O 	0.17594	0.71049	0.044	-0.139
Mof_O 	O 	0.51197	0.06808	0.49542	-0.027
Mof_C 	C 	0.26838	0.75485	0.49073	0.278
Mof_C 	C 	0.24348	0.74678	0.99724	0.274
Mof_C 	C 	0.05397	0.65312	0.78646	0.237
Mof_C 	C 	0.45631	0.85104	0.70229	0.224
Mof_C 	C 	0.26829	0.75539	0.62298	-0.028
Mof_C 	C 	0.24292	0.74775	0.86493	-0.023
Mof_C 	C 	0.3541	0.79874	0.71987	0.009
Mof_C 	C 	0.15618	0.70494	0.76785	-0.003
Mof_C 	C 	0.17589	0.70893	0.65168	0.001
Mof_H 	H 	0.11695	0.67447	0.58141	0.06
Mof_C 	C 	0.33478	0.79445	0.83635	0.001
Mof_H 	H 	0.39374	0.82873	0.90706	0.068
Mof_N 	N 	0.4043	0.55533	0.71854	-0.28
Mof_U 	U 	0.75395	0.25197	0.75803	0.044
Mof_U 	U 	0.05613	0.5058	0.87879	0.031
Mof_O 	O 	0.13094	0.45276	0.74759	-0.033
Mof_O 	O 	0.59235	0.16513	0.71031	-0.116
Mof_O 	O 	0.91492	0.33918	0.80484	-0.108
Mof_O 	O 	0.54937	0.31564	0.69702	-0.059
Mof_O 	O 	0.95822	0.18838	0.81925	-0.075
Mof_O 	O 	0.19256	0.28357	0.419	-0.175
Mof_O 	O 	0.10269	0.41012	0.79797	-0.122
Mof_O 	O 	0.40169	0.09583	0.70836	-0.156
Mof_O 	O 	0.17241	0.29021	0.05947	-0.144
Mof_O 	O 	0.30557	0.50724	0.01335	-0.063
Mof_O 	O 	0.31274	0.21735	0.0945	-0.177
Mof_O 	O 	0.80672	0.5045	0.74392	-0.051
Mof_O 	O 	0.33277	0.21062	0.45762	-0.142
Mof_O 	O 	0.99702	0.56813	0.00639	-0.028
Mof_C 	C 	0.24039	0.25502	0.01095	0.278
Mof_C 	C 	0.26485	0.24679	0.50429	0.278
Mof_C 	C 	0.45477	0.15321	0.71514	0.24
Mof_C 	C 	0.05217	0.3511	0.79925	0.221
Mof_C 	C 	0.24051	0.25554	0.87871	-0.029
Mof_C 	C 	0.26547	0.24776	0.63662	-0.025
Mof_C 	C 	0.15438	0.29879	0.78169	0.008
Mof_C 	C 	0.35254	0.20505	0.73379	-0.004
Mof_C 	C 	0.33311	0.20913	0.85008	-0
Mof_H 	H 	0.39216	0.17472	0.92039	0.062
Mof_C 	C 	0.17353	0.29444	0.66514	0.001
Mof_H 	H 	0.1145	0.32868	0.5944	0.067
Mof_N 	N 	0.07748	0.06957	0.73454	-0.281
Mof_H 	H 	0.57449	0.40259	0.18223	0.135
Mof_H 	H 	0.4743	0.44043	0.25819	0.146
Mof_H 	H 	0.60989	0.47906	0.2182	0.143
Mof_H 	H 	0.49278	0.56083	0.68359	0.142
Mof_H 	H 	0.29444	0.5638	0.64692	0.13
Mof_H 	H 	0.42275	0.58647	0.79207	0.137
Mof_H 	H 	0.06624	0.103	0.66624	0.133
Mof_H 	H 	0.97128	0.0659	0.74727	0.148
Mof_H 	H 	0.16734	0.08238	0.81925	0.13
Mof_H 	H 	0.02231	0.93733	0.23061	0.146
Mof_H 	H 	0.90554	0.97983	0.28477	0.143
Mof_H 	H 	0.93166	0.90275	0.3177	0.135
Mof_H 	H 	0.40742	0.51016	0.75153	0.141
Mof_H 	H 	0.67036	0.42497	0.33477	0.13
Mof_H 	H 	0.10494	0.02694	0.70553	0.144
Mof_H 	H 	0.82291	0.92681	0.16827	0.13
_end
