data_functionalizedCrystal
_audit_creation_method	'EQeq! by Chris Wilmer'
_symmetry_space_group_name_H-M	'P1'
_symmetry_Int_Tables_number	1
_symmetry_cell_setting	triclinic
loop_
_symmetry_equiv_pos_as_xyz
  x,y,z
_cell_length_a	21.0856
_cell_length_b	21.0856
_cell_length_c	17.9678
_cell_angle_alpha	90
_cell_angle_beta	90
_cell_angle_gamma	120
loop_
_atom_site_label
_atom_site_type_symbol
_atom_site_fract_x
_atom_site_fract_y
_atom_site_fract_z
_atom_site_charge
Mof_C 	C 	0.38697	0.52344	0.45564	0.085
Mof_H 	H 	0.3442	0.5055	0.4856	-0.044
Mof_C 	C 	0.41319	0.59053	0.42178	-0.182
Mof_H 	H 	0.3889	0.6178	0.4291	0.063
Mof_C 	C 	0.47551	0.6185	0.3767	0.109
Mof_C 	C 	0.50853	0.57537	0.36946	-0.179
Mof_H 	H 	0.5514	0.592	0.3401	0.072
Mof_C 	C 	0.47837	0.50878	0.40517	0.099
Mof_H 	H 	0.5011	0.4801	0.3987	-0.053
Mof_C 	C 	0.50617	0.69154	0.3439	-0.094
Mof_H 	H 	0.4844	0.7199	0.3573	0.053
Mof_C 	C 	0.56225	0.72102	0.29682	-0.078
Mof_H 	H 	0.5819	0.6914	0.281	0.047
Mof_C 	C 	0.59611	0.79576	0.26739	0.105
Mof_C 	C 	0.65224	0.81898	0.21474	-0.165
Mof_H 	H 	0.6669	0.7859	0.1966	0.07
Mof_C 	C 	0.68616	0.89016	0.18934	0.095
Mof_H 	H 	0.7241	0.9049	0.1534	-0.027
Mof_C 	C 	0.61371	0.91762	0.26325	0.087
Mof_H 	H 	0.6004	0.952	0.2805	-0.004
Mof_C 	C 	0.57644	0.8469	0.29064	-0.153
Mof_H 	H 	0.5376	0.8331	0.3252	0.08
Mof_N 	N 	0.66835	0.93976	0.21278	-0.224
Mof_N 	N 	0.41872	0.48211	0.44852	-0.245
Mof_O 	O 	0.74924	0.01283	0.07876	-0.559
Mof_C 	C 	0.05364	0.85677	0.78897	0.098
Mof_H 	H 	0.01087	0.83883	0.81893	-0.046
Mof_C 	C 	0.07986	0.92386	0.75511	-0.204
Mof_H 	H 	0.05557	0.95113	0.76243	0.078
Mof_C 	C 	0.14218	0.95183	0.71003	0.158
Mof_C 	C 	0.1752	0.9087	0.70279	-0.204
Mof_H 	H 	0.21807	0.92533	0.67343	0.089
Mof_C 	C 	0.14504	0.84211	0.7385	0.114
Mof_H 	H 	0.16777	0.81343	0.73203	-0.057
Mof_C 	C 	0.17284	0.02487	0.67723	-0.15
Mof_H 	H 	0.15107	0.05323	0.69063	0.066
Mof_C 	C 	0.22892	0.05435	0.63015	-0.048
Mof_H 	H 	0.24857	0.02473	0.61433	0.03
Mof_C 	C 	0.26278	0.12909	0.60072	0.089
Mof_C 	C 	0.31891	0.15231	0.54807	-0.157
Mof_H 	H 	0.33357	0.11923	0.52993	0.066
Mof_C 	C 	0.35283	0.22349	0.52267	0.093
Mof_H 	H 	0.39077	0.23823	0.48673	-0.035
Mof_C 	C 	0.28038	0.25095	0.59658	0.082
Mof_H 	H 	0.26707	0.28533	0.61383	-0.012
Mof_C 	C 	0.24311	0.18023	0.62397	-0.145
Mof_H 	H 	0.20427	0.16643	0.65853	0.076
Mof_N 	N 	0.33502	0.27309	0.54611	-0.232
Mof_N 	N 	0.08539	0.81544	0.78185	-0.251
Mof_O 	O 	0.41591	0.34616	0.41209	-0.565
Mof_C 	C 	0.7203	0.19011	0.12231	0.095
Mof_H 	H 	0.67753	0.17217	0.15227	-0.049
Mof_C 	C 	0.74652	0.2572	0.08845	-0.212
Mof_H 	H 	0.72223	0.28447	0.09577	0.071
Mof_C 	C 	0.80884	0.28517	0.04337	0.153
Mof_C 	C 	0.84186	0.24204	0.03613	-0.211
Mof_H 	H 	0.88473	0.25867	0.00677	0.074
Mof_C 	C 	0.8117	0.17545	0.07184	0.106
Mof_H 	H 	0.83443	0.14677	0.06537	-0.057
Mof_C 	C 	0.8395	0.35821	0.01057	-0.217
Mof_H 	H 	0.81773	0.38657	0.02397	0.082
Mof_C 	C 	0.89558	0.38769	0.96349	0.061
Mof_H 	H 	0.91523	0.35807	0.94767	0.022
Mof_C 	C 	0.92944	0.46243	0.93406	0.033
Mof_C 	C 	0.98557	0.48565	0.88141	-0.028
Mof_H 	H 	0.00023	0.45257	0.86327	0.013
Mof_C 	C 	0.01949	0.55683	0.85601	0.015
Mof_H 	H 	0.05743	0.57157	0.82007	-0.011
Mof_C 	C 	0.94704	0.58429	0.92992	0.094
Mof_H 	H 	0.93373	0.61867	0.94717	0.004
Mof_C 	C 	0.90977	0.51357	0.95731	-0.103
Mof_H 	H 	0.87093	0.49977	0.99187	0.083
Mof_N 	N 	0.00168	0.60643	0.87945	-0.228
Mof_N 	N 	0.75205	0.14878	0.11519	-0.252
Mof_O 	O 	0.08257	0.6795	0.74543	-0.57
Mof_C 	C 	0.47656	0.86353	0.45564	0.094
Mof_H 	H 	0.4945	0.8387	0.4856	-0.044
Mof_C 	C 	0.40947	0.82266	0.42178	-0.192
Mof_H 	H 	0.3822	0.7711	0.4291	0.068
Mof_C 	C 	0.3815	0.85701	0.3767	0.126
Mof_C 	C 	0.42463	0.93316	0.36946	-0.211
Mof_H 	H 	0.408	0.9594	0.3401	0.091
Mof_C 	C 	0.49122	0.96959	0.40517	0.162
Mof_H 	H 	0.5199	0.021	0.3987	-0.09
Mof_C 	C 	0.30846	0.81463	0.3439	-0.101
Mof_H 	H 	0.2801	0.7645	0.3573	0.055
Mof_C 	C 	0.27898	0.84123	0.29682	-0.075
Mof_H 	H 	0.3086	0.8905	0.281	0.049
Mof_C 	C 	0.20424	0.80035	0.26739	0.107
Mof_C 	C 	0.18102	0.83326	0.21474	-0.169
Mof_H 	H 	0.2141	0.881	0.1966	0.074
Mof_C 	C 	0.10984	0.796	0.18934	0.096
Mof_H 	H 	0.0951	0.8192	0.1534	-0.041
Mof_C 	C 	0.08238	0.69609	0.26325	0.087
Mof_H 	H 	0.048	0.6484	0.2805	-0.022
Mof_C 	C 	0.1531	0.72954	0.29064	-0.156
Mof_H 	H 	0.1669	0.7045	0.3252	0.081
Mof_N 	N 	0.06024	0.72859	0.21278	-0.242
Mof_N 	N 	0.51789	0.93661	0.44852	-0.251
Mof_O 	O 	0.98717	0.73641	0.07876	-0.53
Mof_C 	C 	0.14323	0.19686	0.78897	0.071
Mof_H 	H 	0.16117	0.17203	0.81893	-0.034
Mof_C 	C 	0.07614	0.15599	0.75511	-0.153
Mof_H 	H 	0.04887	0.10443	0.76243	0.048
Mof_C 	C 	0.04817	0.19034	0.71003	0.061
Mof_C 	C 	0.0913	0.26649	0.70279	-0.154
Mof_H 	H 	0.07467	0.29273	0.67343	0.057
Mof_C 	C 	0.15789	0.30292	0.7385	0.085
Mof_H 	H 	0.18657	0.35433	0.73203	-0.049
Mof_C 	C 	0.97513	0.14796	0.67723	-0.04
Mof_H 	H 	0.94677	0.09783	0.69063	0.038
Mof_C 	C 	0.94565	0.17456	0.63015	-0.103
Mof_H 	H 	0.97527	0.22383	0.61433	0.064
Mof_C 	C 	0.87091	0.13368	0.60072	0.109
Mof_C 	C 	0.84769	0.16659	0.54807	-0.166
Mof_H 	H 	0.88077	0.21433	0.52993	0.076
Mof_C 	C 	0.77651	0.12933	0.52267	0.097
Mof_H 	H 	0.76177	0.15253	0.48673	-0.035
Mof_C 	C 	0.74905	0.02942	0.59658	0.031
Mof_H 	H 	0.71467	0.98173	0.61383	0.023
Mof_C 	C 	0.81977	0.06287	0.62397	-0.133
Mof_H 	H 	0.83357	0.03783	0.65853	0.067
Mof_N 	N 	0.72691	0.06192	0.54611	-0.228
Mof_N 	N 	0.18456	0.26994	0.78185	-0.24
Mof_O 	O 	0.65384	0.06974	0.41209	-0.57
Mof_C 	C 	0.80989	0.5302	0.12231	0.092
Mof_H 	H 	0.82783	0.50537	0.15227	-0.047
Mof_C 	C 	0.7428	0.48933	0.08845	-0.207
Mof_H 	H 	0.71553	0.43777	0.09577	0.07
Mof_C 	C 	0.71483	0.52368	0.04337	0.144
Mof_C 	C 	0.75796	0.59983	0.03613	-0.205
Mof_H 	H 	0.74133	0.62607	0.00677	0.07
Mof_C 	C 	0.82455	0.63626	0.07184	0.103
Mof_H 	H 	0.85323	0.68767	0.06537	-0.053
Mof_C 	C 	0.64179	0.4813	0.01057	-0.202
Mof_H 	H 	0.61343	0.43117	0.02397	0.076
Mof_C 	C 	0.61231	0.5079	0.96349	0.032
Mof_H 	H 	0.64193	0.55717	0.94767	0.027
Mof_C 	C 	0.53757	0.46702	0.93406	0.074
Mof_C 	C 	0.51435	0.49993	0.88141	-0.14
Mof_H 	H 	0.54743	0.54767	0.86327	0.068
Mof_C 	C 	0.44317	0.46267	0.85601	0.092
Mof_H 	H 	0.42843	0.48587	0.82007	-0.033
Mof_C 	C 	0.41571	0.36276	0.92992	0.082
Mof_H 	H 	0.38133	0.31507	0.94717	0.002
Mof_C 	C 	0.48643	0.39621	0.95731	-0.124
Mof_H 	H 	0.50023	0.37117	0.99187	0.09
Mof_N 	N 	0.39357	0.39526	0.87945	-0.227
Mof_N 	N 	0.85122	0.60328	0.11519	-0.25
Mof_O 	O 	0.3205	0.40308	0.74543	-0.565
Mof_C 	C 	0.13647	0.61303	0.45564	0.078
Mof_H 	H 	0.1613	0.6558	0.4856	-0.04
Mof_C 	C 	0.17734	0.58681	0.42178	-0.169
Mof_H 	H 	0.2289	0.6111	0.4291	0.061
Mof_C 	C 	0.14299	0.52449	0.3767	0.092
Mof_C 	C 	0.06684	0.49147	0.36946	-0.148
Mof_H 	H 	0.0406	0.4486	0.3401	0.054
Mof_C 	C 	0.03041	0.52163	0.40517	0.039
Mof_H 	H 	0.979	0.4989	0.3987	-0.016
Mof_C 	C 	0.18537	0.49383	0.3439	-0.086
Mof_H 	H 	0.2355	0.5156	0.3573	0.05
Mof_C 	C 	0.15877	0.43775	0.29682	-0.084
Mof_H 	H 	0.1095	0.4181	0.281	0.046
Mof_C 	C 	0.19965	0.40389	0.26739	0.107
Mof_C 	C 	0.16674	0.34776	0.21474	-0.168
Mof_H 	H 	0.119	0.3331	0.1966	0.066
Mof_C 	C 	0.204	0.31384	0.18934	0.096
Mof_H 	H 	0.1808	0.2759	0.1534	-0.039
Mof_C 	C 	0.30391	0.38629	0.26325	0.087
Mof_H 	H 	0.3516	0.3996	0.2805	-0.013
Mof_C 	C 	0.27046	0.42356	0.29064	-0.156
Mof_H 	H 	0.2955	0.4624	0.3252	0.081
Mof_N 	N 	0.27141	0.33165	0.21278	-0.234
Mof_N 	N 	0.06339	0.58128	0.44852	-0.238
Mof_O 	O 	0.26359	0.25076	0.07876	-0.556
Mof_C 	C 	0.80314	0.94636	0.78897	0.092
Mof_H 	H 	0.82797	0.98913	0.81893	-0.026
Mof_C 	C 	0.84401	0.92014	0.75511	-0.175
Mof_H 	H 	0.89557	0.94443	0.76243	0.079
Mof_C 	C 	0.80966	0.85782	0.71003	0.114
Mof_C 	C 	0.73351	0.8248	0.70279	-0.178
Mof_H 	H 	0.70727	0.78193	0.67343	0.073
Mof_C 	C 	0.69708	0.85496	0.7385	0.102
Mof_H 	H 	0.64567	0.83223	0.73203	-0.054
Mof_C 	C 	0.85204	0.82716	0.67723	-0.087
Mof_H 	H 	0.90217	0.84893	0.69063	0.059
Mof_C 	C 	0.82544	0.77108	0.63015	-0.085
Mof_H 	H 	0.77617	0.75143	0.61433	0.051
Mof_C 	C 	0.86632	0.73722	0.60072	0.127
Mof_C 	C 	0.83341	0.68109	0.54807	-0.178
Mof_H 	H 	0.78567	0.66643	0.52993	0.077
Mof_C 	C 	0.87067	0.64717	0.52267	0.108
Mof_H 	H 	0.84747	0.60923	0.48673	-0.038
Mof_C 	C 	0.97058	0.71962	0.59658	0.15
Mof_H 	H 	0.01827	0.73293	0.61383	-0.05
Mof_C 	C 	0.93713	0.75689	0.62397	-0.186
Mof_H 	H 	0.96217	0.79573	0.65853	0.102
Mof_N 	N 	0.93808	0.66498	0.54611	-0.238
Mof_N 	N 	0.73006	0.91461	0.78185	-0.243
Mof_O 	O 	0.93026	0.58409	0.41209	-0.557
Mof_C 	C 	0.4698	0.2797	0.12231	0.089
Mof_H 	H 	0.49463	0.32247	0.15227	-0.046
Mof_C 	C 	0.51067	0.25348	0.08845	-0.202
Mof_H 	H 	0.56223	0.27777	0.09577	0.068
Mof_C 	C 	0.47632	0.19116	0.04337	0.135
Mof_C 	C 	0.40017	0.15814	0.03613	-0.202
Mof_H 	H 	0.37393	0.11527	0.00677	0.063
Mof_C 	C 	0.36374	0.1883	0.07184	0.1
Mof_H 	H 	0.31233	0.16557	0.06537	-0.059
Mof_C 	C 	0.5187	0.1605	0.01057	-0.187
Mof_H 	H 	0.56883	0.18227	0.02397	0.07
Mof_C 	C 	0.4921	0.10442	0.96349	0.004
Mof_H 	H 	0.44283	0.08477	0.94767	0.032
Mof_C 	C 	0.53298	0.07056	0.93406	0.116
Mof_C 	C 	0.50007	0.01443	0.88141	-0.255
Mof_H 	H 	0.45233	0.99977	0.86327	0.124
Mof_C 	C 	0.53733	0.98051	0.85601	0.171
Mof_H 	H 	0.51413	0.94257	0.82007	-0.055
Mof_C 	C 	0.63724	0.05296	0.92992	0.07
Mof_H 	H 	0.68493	0.06627	0.94717	0
Mof_C 	C 	0.60379	0.09023	0.95731	-0.145
Mof_H 	H 	0.62883	0.12907	0.99187	0.096
Mof_N 	N 	0.60474	0.99832	0.87945	-0.226
Mof_N 	N 	0.39672	0.24795	0.11519	-0.25
Mof_O 	O 	0.59692	0.91743	0.74543	-0.56
Mof_C 	C 	0.52344	0.38697	0.54436	0.086
Mof_H 	H 	0.5055	0.3442	0.5144	-0.043
Mof_C 	C 	0.59053	0.41319	0.57822	-0.181
Mof_H 	H 	0.6178	0.3889	0.5709	0.065
Mof_C 	C 	0.6185	0.47551	0.6233	0.111
Mof_C 	C 	0.57537	0.50853	0.63054	-0.18
Mof_H 	H 	0.592	0.5514	0.6599	0.073
Mof_C 	C 	0.50878	0.47837	0.59483	0.1
Mof_H 	H 	0.4801	0.5011	0.6013	-0.053
Mof_C 	C 	0.69154	0.50617	0.6561	-0.093
Mof_H 	H 	0.7199	0.4844	0.6427	0.054
Mof_C 	C 	0.72102	0.56225	0.70318	-0.077
Mof_H 	H 	0.6914	0.5819	0.719	0.049
Mof_C 	C 	0.79576	0.59611	0.73261	0.108
Mof_C 	C 	0.81898	0.65224	0.78526	-0.161
Mof_H 	H 	0.7859	0.6669	0.8034	0.078
Mof_C 	C 	0.89016	0.68616	0.81066	0.098
Mof_H 	H 	0.9049	0.7241	0.8466	-0.019
Mof_C 	C 	0.91762	0.61371	0.73675	0.088
Mof_H 	H 	0.952	0.6004	0.7195	-0.005
Mof_C 	C 	0.8469	0.57644	0.70936	-0.152
Mof_H 	H 	0.8331	0.5376	0.6748	0.081
Mof_N 	N 	0.93976	0.66835	0.78722	-0.224
Mof_N 	N 	0.48211	0.41872	0.55148	-0.246
Mof_O 	O 	0.01283	0.74924	0.92124	-0.53
Mof_C 	C 	0.19011	0.7203	0.87769	0.083
Mof_H 	H 	0.17217	0.67753	0.84773	-0.039
Mof_C 	C 	0.2572	0.74652	0.91155	-0.158
Mof_H 	H 	0.28447	0.72223	0.90423	0.062
Mof_C 	C 	0.28517	0.80884	0.95663	0.084
Mof_C 	C 	0.24204	0.84186	0.96387	-0.153
Mof_H 	H 	0.25867	0.88473	0.99323	0.083
Mof_C 	C 	0.17545	0.8117	0.92816	0.095
Mof_H 	H 	0.14677	0.83443	0.93463	-0.037
Mof_C 	C 	0.35821	0.8395	0.98943	-0.001
Mof_H 	H 	0.38657	0.81773	0.97603	0.038
Mof_C 	C 	0.38769	0.89558	0.03651	-0.157
Mof_H 	H 	0.35807	0.91523	0.05233	0.065
Mof_C 	C 	0.46243	0.92944	0.06594	0.097
Mof_C 	C 	0.48565	0.98557	0.11859	-0.072
Mof_H 	H 	0.45257	0.00023	0.13673	0.02
Mof_C 	C 	0.55683	0.01949	0.14399	0.022
Mof_H 	H 	0.57157	0.05743	0.17993	-0.016
Mof_C 	C 	0.58429	0.94704	0.07008	0.104
Mof_H 	H 	0.61867	0.93373	0.05283	-0.022
Mof_C 	C 	0.51357	0.90977	0.04269	-0.161
Mof_H 	H 	0.49977	0.87093	0.00813	0.066
Mof_N 	N 	0.60643	0.00168	0.12055	-0.241
Mof_N 	N 	0.14878	0.75205	0.88481	-0.239
Mof_O 	O 	0.6795	0.08257	0.25457	-0.571
Mof_C 	C 	0.85677	0.05364	0.21103	0.096
Mof_H 	H 	0.83883	0.01087	0.18107	-0.052
Mof_C 	C 	0.92386	0.07986	0.24489	-0.207
Mof_H 	H 	0.95113	0.05557	0.23757	0.074
Mof_C 	C 	0.95183	0.14218	0.28997	0.157
Mof_C 	C 	0.9087	0.1752	0.29721	-0.205
Mof_H 	H 	0.92533	0.21807	0.32657	0.088
Mof_C 	C 	0.84211	0.14504	0.2615	0.113
Mof_H 	H 	0.81343	0.16777	0.26797	-0.057
Mof_C 	C 	0.02487	0.17284	0.32277	-0.151
Mof_H 	H 	0.05323	0.15107	0.30937	0.065
Mof_C 	C 	0.05435	0.22892	0.36985	-0.048
Mof_H 	H 	0.02473	0.24857	0.38567	0.03
Mof_C 	C 	0.12909	0.26278	0.39928	0.089
Mof_C 	C 	0.15231	0.31891	0.45193	-0.157
Mof_H 	H 	0.11923	0.33357	0.47007	0.066
Mof_C 	C 	0.22349	0.35283	0.47733	0.093
Mof_H 	H 	0.23823	0.39077	0.51327	-0.035
Mof_C 	C 	0.25095	0.28038	0.40342	0.082
Mof_H 	H 	0.28533	0.26707	0.38617	-0.012
Mof_C 	C 	0.18023	0.24311	0.37603	-0.145
Mof_H 	H 	0.16643	0.20427	0.34147	0.075
Mof_N 	N 	0.27309	0.33502	0.45389	-0.232
Mof_N 	N 	0.81544	0.08539	0.21815	-0.252
Mof_O 	O 	0.34616	0.41591	0.58791	-0.565
Mof_C 	C 	0.86353	0.47656	0.54436	0.094
Mof_H 	H 	0.8387	0.4945	0.5144	-0.044
Mof_C 	C 	0.82266	0.40947	0.57822	-0.191
Mof_H 	H 	0.7711	0.3822	0.5709	0.069
Mof_C 	C 	0.85701	0.3815	0.6233	0.127
Mof_C 	C 	0.93316	0.42463	0.63054	-0.21
Mof_H 	H 	0.9594	0.408	0.6599	0.091
Mof_C 	C 	0.96959	0.49122	0.59483	0.159
Mof_H 	H 	0.021	0.5199	0.6013	-0.088
Mof_C 	C 	0.81463	0.30846	0.6561	-0.1
Mof_H 	H 	0.7645	0.2801	0.6427	0.056
Mof_C 	C 	0.84123	0.27898	0.70318	-0.074
Mof_H 	H 	0.8905	0.3086	0.719	0.051
Mof_C 	C 	0.80035	0.20424	0.73261	0.11
Mof_C 	C 	0.83326	0.18102	0.78526	-0.165
Mof_H 	H 	0.881	0.2141	0.8034	0.081
Mof_C 	C 	0.796	0.10984	0.81066	0.099
Mof_H 	H 	0.8192	0.0951	0.8466	-0.032
Mof_C 	C 	0.69609	0.08238	0.73675	0.088
Mof_H 	H 	0.6484	0.048	0.7195	-0.022
Mof_C 	C 	0.72954	0.1531	0.70936	-0.155
Mof_H 	H 	0.7045	0.1669	0.6748	0.082
Mof_N 	N 	0.72859	0.06024	0.78722	-0.242
Mof_N 	N 	0.93661	0.51789	0.55148	-0.25
Mof_O 	O 	0.73641	0.98717	0.92124	-0.502
Mof_C 	C 	0.5302	0.80989	0.87769	0.079
Mof_H 	H 	0.50537	0.82783	0.84773	-0.037
Mof_C 	C 	0.48933	0.7428	0.91155	-0.151
Mof_H 	H 	0.43777	0.71553	0.90423	0.059
Mof_C 	C 	0.52368	0.71483	0.95663	0.072
Mof_C 	C 	0.59983	0.75796	0.96387	-0.146
Mof_H 	H 	0.62607	0.74133	0.99323	0.078
Mof_C 	C 	0.63626	0.82455	0.92816	0.09
Mof_H 	H 	0.68767	0.85323	0.93463	-0.034
Mof_C 	C 	0.4813	0.64179	0.98943	0.019
Mof_H 	H 	0.43117	0.61343	0.97603	0.03
Mof_C 	C 	0.5079	0.61231	0.03651	-0.192
Mof_H 	H 	0.55717	0.64193	0.05233	0.071
Mof_C 	C 	0.46702	0.53757	0.06594	0.143
Mof_C 	C 	0.49993	0.51435	0.11859	-0.195
Mof_H 	H 	0.54767	0.54743	0.13673	0.08
Mof_C 	C 	0.46267	0.44317	0.14399	0.107
Mof_H 	H 	0.48587	0.42843	0.17993	-0.04
Mof_C 	C 	0.36276	0.41571	0.07008	0.092
Mof_H 	H 	0.31507	0.38133	0.05283	-0.025
Mof_C 	C 	0.39621	0.48643	0.04269	-0.185
Mof_H 	H 	0.37117	0.50023	0.00813	0.073
Mof_N 	N 	0.39526	0.39357	0.12055	-0.24
Mof_N 	N 	0.60328	0.85122	0.88481	-0.238
Mof_O 	O 	0.40308	0.3205	0.25457	-0.565
Mof_C 	C 	0.19686	0.14323	0.21103	0.068
Mof_H 	H 	0.17203	0.16117	0.18107	-0.04
Mof_C 	C 	0.15599	0.07614	0.24489	-0.154
Mof_H 	H 	0.10443	0.04887	0.23757	0.043
Mof_C 	C 	0.19034	0.04817	0.28997	0.056
Mof_C 	C 	0.26649	0.0913	0.29721	-0.153
Mof_H 	H 	0.29273	0.07467	0.32657	0.055
Mof_C 	C 	0.30292	0.15789	0.2615	0.083
Mof_H 	H 	0.35433	0.18657	0.26797	-0.049
Mof_C 	C 	0.14796	0.97513	0.32277	-0.037
Mof_H 	H 	0.09783	0.94677	0.30937	0.036
Mof_C 	C 	0.17456	0.94565	0.36985	-0.105
Mof_H 	H 	0.22383	0.97527	0.38567	0.065
Mof_C 	C 	0.13368	0.87091	0.39928	0.11
Mof_C 	C 	0.16659	0.84769	0.45193	-0.167
Mof_H 	H 	0.21433	0.88077	0.47007	0.076
Mof_C 	C 	0.12933	0.77651	0.47733	0.097
Mof_H 	H 	0.15253	0.76177	0.51327	-0.035
Mof_C 	C 	0.02942	0.74905	0.40342	0.032
Mof_H 	H 	0.98173	0.71467	0.38617	0.022
Mof_C 	C 	0.06287	0.81977	0.37603	-0.134
Mof_H 	H 	0.03783	0.83357	0.34147	0.067
Mof_N 	N 	0.06192	0.72691	0.45389	-0.228
Mof_N 	N 	0.26994	0.18456	0.21815	-0.24
Mof_O 	O 	0.06974	0.65384	0.58791	-0.57
Mof_C 	C 	0.61303	0.13647	0.54436	0.079
Mof_H 	H 	0.6558	0.1613	0.5144	-0.04
Mof_C 	C 	0.58681	0.17734	0.57822	-0.169
Mof_H 	H 	0.6111	0.2289	0.5709	0.061
Mof_C 	C 	0.52449	0.14299	0.6233	0.093
Mof_C 	C 	0.49147	0.06684	0.63054	-0.148
Mof_H 	H 	0.4486	0.0406	0.6599	0.055
Mof_C 	C 	0.52163	0.03041	0.59483	0.038
Mof_H 	H 	0.4989	0.979	0.6013	-0.016
Mof_C 	C 	0.49383	0.18537	0.6561	-0.085
Mof_H 	H 	0.5156	0.2355	0.6427	0.051
Mof_C 	C 	0.43775	0.15877	0.70318	-0.082
Mof_H 	H 	0.4181	0.1095	0.719	0.048
Mof_C 	C 	0.40389	0.19965	0.73261	0.11
Mof_C 	C 	0.34776	0.16674	0.78526	-0.164
Mof_H 	H 	0.3331	0.119	0.8034	0.074
Mof_C 	C 	0.31384	0.204	0.81066	0.099
Mof_H 	H 	0.2759	0.1808	0.8466	-0.03
Mof_C 	C 	0.38629	0.30391	0.73675	0.089
Mof_H 	H 	0.3996	0.3516	0.7195	-0.013
Mof_C 	C 	0.42356	0.27046	0.70936	-0.155
Mof_H 	H 	0.4624	0.2955	0.6748	0.082
Mof_N 	N 	0.33165	0.27141	0.78722	-0.233
Mof_N 	N 	0.58128	0.06339	0.55148	-0.238
Mof_O 	O 	0.25076	0.26359	0.92124	-0.526
Mof_C 	C 	0.2797	0.4698	0.87769	0.076
Mof_H 	H 	0.32247	0.49463	0.84773	-0.037
Mof_C 	C 	0.25348	0.51067	0.91155	-0.146
Mof_H 	H 	0.27777	0.56223	0.90423	0.057
Mof_C 	C 	0.19116	0.47632	0.95663	0.062
Mof_C 	C 	0.15814	0.40017	0.96387	-0.142
Mof_H 	H 	0.11527	0.37393	0.99323	0.072
Mof_C 	C 	0.1883	0.36374	0.92816	0.087
Mof_H 	H 	0.16557	0.31233	0.93463	-0.038
Mof_C 	C 	0.1605	0.5187	0.98943	0.038
Mof_H 	H 	0.18227	0.56883	0.97603	0.023
Mof_C 	C 	0.10442	0.4921	0.03651	-0.224
Mof_H 	H 	0.08477	0.44283	0.05233	0.076
Mof_C 	C 	0.07056	0.53298	0.06594	0.188
Mof_C 	C 	0.01443	0.50007	0.11859	-0.314
Mof_H 	H 	0.99977	0.45233	0.13673	0.138
Mof_C 	C 	0.98051	0.53733	0.14399	0.189
Mof_H 	H 	0.94257	0.51413	0.17993	-0.064
Mof_C 	C 	0.05296	0.63724	0.07008	0.079
Mof_H 	H 	0.06627	0.68493	0.05283	-0.026
Mof_C 	C 	0.09023	0.60379	0.04269	-0.207
Mof_H 	H 	0.12907	0.62883	0.00813	0.08
Mof_N 	N 	0.99832	0.60474	0.12055	-0.239
Mof_N 	N 	0.24795	0.39672	0.88481	-0.237
Mof_O 	O 	0.91743	0.59692	0.25457	-0.56
Mof_C 	C 	0.94636	0.80314	0.21103	0.09
Mof_H 	H 	0.98913	0.82797	0.18107	-0.031
Mof_C 	C 	0.92014	0.84401	0.24489	-0.177
Mof_H 	H 	0.94443	0.89557	0.23757	0.076
Mof_C 	C 	0.85782	0.80966	0.28997	0.113
Mof_C 	C 	0.8248	0.73351	0.29721	-0.179
Mof_H 	H 	0.78193	0.70727	0.32657	0.073
Mof_C 	C 	0.85496	0.69708	0.2615	0.101
Mof_H 	H 	0.83223	0.64567	0.26797	-0.054
Mof_C 	C 	0.82716	0.85204	0.32277	-0.088
Mof_H 	H 	0.84893	0.90217	0.30937	0.059
Mof_C 	C 	0.77108	0.82544	0.36985	-0.085
Mof_H 	H 	0.75143	0.77617	0.38567	0.051
Mof_C 	C 	0.73722	0.86632	0.39928	0.127
Mof_C 	C 	0.68109	0.83341	0.45193	-0.179
Mof_H 	H 	0.66643	0.78567	0.47007	0.077
Mof_C 	C 	0.64717	0.87067	0.47733	0.108
Mof_H 	H 	0.60923	0.84747	0.51327	-0.038
Mof_C 	C 	0.71962	0.97058	0.40342	0.152
Mof_H 	H 	0.73293	0.01827	0.38617	-0.051
Mof_C 	C 	0.75689	0.93713	0.37603	-0.188
Mof_H 	H 	0.79573	0.96217	0.34147	0.102
Mof_N 	N 	0.66498	0.93808	0.45389	-0.239
Mof_N 	N 	0.91461	0.73006	0.21815	-0.243
Mof_O 	O 	0.58409	0.93026	0.58791	-0.557
Mof_Mo	Mo	0.79167	0	-0	0.894
Mof_Mo	Mo	0.45833	0.33333	0.33333	1.02
Mof_Mo	Mo	0.125	0.66667	0.66667	1.019
Mof_Mo	Mo	6.57314e-17	0.79167	-0	0.894
Mof_Mo	Mo	0.66667	0.125	0.33333	1.018
Mof_Mo	Mo	0.33333	0.45833	0.66667	1.021
Mof_Mo	Mo	0.20833	0.20833	-0	0.921
Mof_Mo	Mo	0.875	0.54167	0.33333	1.026
Mof_Mo	Mo	0.54167	0.875	0.66667	1.027
Mof_Ni	Ni	0.71263	0.04596	0.16667	1.091
Mof_Ni	Ni	0.3793	0.3793	0.5	1.097
Mof_Ni	Ni	0.95404	0.66667	0.16667	1.101
Mof_Ni	Ni	0.6207	0	0.5	1.086
Mof_Ni	Ni	0.33333	0.28737	0.16667	1.096
Mof_Ni	Ni	7.92845e-17	0.6207	0.5	1.086
Mof_Ni	Ni	0.04596	0.71263	0.83333	1.093
Mof_Ni	Ni	0.66667	0.95404	0.83333	1.102
Mof_Ni	Ni	0.28737	0.33333	0.83333	1.097
_end
