data_functionalizedCrystal
_audit_creation_method	'EQeq! by Chris Wilmer'
_symmetry_space_group_name_H-M	'P1'
_symmetry_Int_Tables_number	1
_symmetry_cell_setting	triclinic
loop_
_symmetry_equiv_pos_as_xyz
  x,y,z
_cell_length_a	18.853
_cell_length_b	18.853
_cell_length_c	20.639
_cell_angle_alpha	90
_cell_angle_beta	90
_cell_angle_gamma	90
loop_
_atom_site_label
_atom_site_type_symbol
_atom_site_fract_x
_atom_site_fract_y
_atom_site_fract_z
_atom_site_charge
Mof_Cu	Cu	0.71849	0.07189	0.64776	0.852
Mof_Cu	Cu	0.63781	0.19834	0.73151	0.848
Mof_Cu	Cu	0.56622	0.14625	0.59561	0.843
Mof_O 	O 	0.6266	0.1175	0.6705	-0.666
Mof_H 	H 	0.5993	0.0815	0.694	0.115
Mof_N 	N 	0.7495	0.095	0.7337	-0.218
Mof_N 	N 	0.72	0.1476	0.7666	-0.214
Mof_C 	C 	0.749	0.1532	0.8257	0.061
Mof_H 	H 	0.7376	0.1876	0.8562	-0.005
Mof_C 	C 	0.7988	0.0996	0.8344	-0.147
Mof_H 	H 	0.8264	0.0901	0.8708	0.076
Mof_C 	C 	0.7975	0.0659	0.779	0.069
Mof_H 	H 	0.8255	0.0264	0.7703	-0.003
Mof_N 	N 	0.5419	0.229	0.7111	-0.233
Mof_N 	N 	0.5078	0.1999	0.659	-0.231
Mof_C 	C 	0.4451	0.223	0.6586	0.107
Mof_H 	H 	0.4132	0.2142	0.6252	-0.032
Mof_C 	C 	0.4284	0.2631	0.7134	-0.194
Mof_H 	H 	0.3855	0.2831	0.7261	0.089
Mof_C 	C 	0.4916	0.2647	0.7425	0.103
Mof_H 	H 	0.4998	0.2885	0.7812	-0.022
Mof_N 	N 	0.6279	0.0899	0.5383	-0.213
Mof_N 	N 	0.6854	0.061	0.5587	-0.215
Mof_C 	C 	0.7144	0.022	0.5103	0.051
Mof_H 	H 	0.7552	0.9945	0.5136	-0.007
Mof_C 	C 	0.6742	0.0295	0.4568	-0.128
Mof_H 	H 	0.6814	0.0088	0.4165	0.058
Mof_C 	C 	0.6181	0.0763	0.4756	0.04
Mof_H 	H 	0.5821	0.0937	0.4493	-0.007
Mof_N 	N 	0.6649	0.2823	0.7886	-0.231
Mof_C 	C 	0.7271	0.3184	0.774	0.046
Mof_H 	H 	0.7491	0.3115	0.7341	-0.028
Mof_C 	C 	0.7566	0.3647	0.8189	-0.123
Mof_H 	H 	0.7983	0.3889	0.809	0.056
Mof_C 	C 	0.7239	0.375	0.8785	0.045
Mof_C 	C 	0.6616	0.3389	0.8932	-0.125
Mof_H 	H 	0.6397	0.3458	0.933	0.069
Mof_C 	C 	0.6321	0.2926	0.8482	0.051
Mof_H 	H 	0.5905	0.2684	0.8581	-0.012
Mof_C 	C 	0.7584	0.4176	0.9291	0.041
Mof_C 	C 	0.7159	0.4645	0.9637	-0.111
Mof_H 	H 	0.6675	0.4669	0.9551	0.065
Mof_C 	C 	0.7456	0.5076	0.0111	0.034
Mof_H 	H 	0.7171	0.5389	0.0342	-0.022
Mof_N 	N 	0.8178	0.5039	0.0239	-0.239
Mof_C 	C 	0.8604	0.4571	0.9893	0.056
Mof_H 	H 	0.9088	0.4547	0.9979	-0.022
Mof_C 	C 	0.8307	0.414	0.942	-0.128
Mof_H 	H 	0.8592	0.3827	0.9188	0.064
Mof_N 	N 	0.8168	0.0394	0.6267	-0.234
Mof_C 	C 	0.8646	0.0922	0.6094	0.05
Mof_H 	H 	0.8484	0.1376	0.5999	-0.022
Mof_C 	C 	0.9367	0.0771	0.6062	-0.122
Mof_H 	H 	0.9687	0.1124	0.5946	0.066
Mof_C 	C 	0.9609	0.0092	0.6203	0.046
Mof_C 	C 	0.9131	0.9564	0.6376	-0.125
Mof_H 	H 	0.9293	0.911	0.6471	0.061
Mof_C 	C 	0.841	0.9715	0.6408	0.052
Mof_H 	H 	0.809	0.9362	0.6524	-0.024
Mof_Cu	Cu	0.28151	0.92811	0.64776	0.851
Mof_Cu	Cu	0.36219	0.80166	0.73151	0.847
Mof_Cu	Cu	0.43378	0.85375	0.59561	0.843
Mof_O 	O 	0.3734	0.8825	0.6705	-0.666
Mof_H 	H 	0.4007	0.9185	0.694	0.115
Mof_N 	N 	0.2505	0.905	0.7337	-0.218
Mof_N 	N 	0.28	0.8524	0.7666	-0.214
Mof_C 	C 	0.251	0.8468	0.8257	0.061
Mof_H 	H 	0.2624	0.8124	0.8562	-0.005
Mof_C 	C 	0.2012	0.9004	0.8344	-0.147
Mof_H 	H 	0.1736	0.9099	0.8708	0.076
Mof_C 	C 	0.2025	0.9341	0.779	0.069
Mof_H 	H 	0.1745	0.9736	0.7703	-0.003
Mof_N 	N 	0.4581	0.771	0.7111	-0.233
Mof_N 	N 	0.4922	0.8001	0.659	-0.231
Mof_C 	C 	0.5549	0.777	0.6586	0.107
Mof_H 	H 	0.5868	0.7858	0.6252	-0.032
Mof_C 	C 	0.5716	0.7369	0.7134	-0.194
Mof_H 	H 	0.6145	0.7169	0.7261	0.089
Mof_C 	C 	0.5084	0.7353	0.7425	0.103
Mof_H 	H 	0.5002	0.7115	0.7812	-0.022
Mof_N 	N 	0.3721	0.9101	0.5383	-0.213
Mof_N 	N 	0.3146	0.939	0.5587	-0.215
Mof_C 	C 	0.2856	0.978	0.5103	0.051
Mof_H 	H 	0.2448	0.0055	0.5136	-0.007
Mof_C 	C 	0.3258	0.9705	0.4568	-0.128
Mof_H 	H 	0.3186	0.9912	0.4165	0.058
Mof_C 	C 	0.3819	0.9237	0.4756	0.04
Mof_H 	H 	0.4179	0.9063	0.4493	-0.007
Mof_N 	N 	0.3351	0.7177	0.7886	-0.231
Mof_C 	C 	0.2729	0.6816	0.774	0.046
Mof_H 	H 	0.2509	0.6885	0.7341	-0.028
Mof_C 	C 	0.2434	0.6353	0.8189	-0.123
Mof_H 	H 	0.2017	0.6111	0.809	0.056
Mof_C 	C 	0.2761	0.625	0.8785	0.045
Mof_C 	C 	0.3384	0.6611	0.8932	-0.125
Mof_H 	H 	0.3603	0.6542	0.933	0.069
Mof_C 	C 	0.3679	0.7074	0.8482	0.051
Mof_H 	H 	0.4095	0.7316	0.8581	-0.012
Mof_C 	C 	0.2416	0.5824	0.9291	0.041
Mof_C 	C 	0.2841	0.5355	0.9637	-0.111
Mof_H 	H 	0.3325	0.5331	0.9551	0.065
Mof_C 	C 	0.2544	0.4924	0.0111	0.034
Mof_H 	H 	0.2829	0.4611	0.0342	-0.022
Mof_N 	N 	0.1822	0.4961	0.0239	-0.239
Mof_C 	C 	0.1396	0.5429	0.9893	0.056
Mof_H 	H 	0.0912	0.5453	0.9979	-0.022
Mof_C 	C 	0.1693	0.586	0.942	-0.128
Mof_H 	H 	0.1408	0.6173	0.9188	0.064
Mof_N 	N 	0.1832	0.9606	0.6267	-0.234
Mof_C 	C 	0.1354	0.9078	0.6094	0.05
Mof_H 	H 	0.1516	0.8624	0.5999	-0.022
Mof_C 	C 	0.0633	0.9229	0.6062	-0.122
Mof_H 	H 	0.0313	0.8876	0.5946	0.066
Mof_C 	C 	0.0391	0.9908	0.6203	0.046
Mof_C 	C 	0.0869	0.0436	0.6376	-0.125
Mof_H 	H 	0.0707	0.089	0.6471	0.061
Mof_C 	C 	0.159	0.0285	0.6408	0.052
Mof_H 	H 	0.191	0.0638	0.6524	-0.024
Mof_Cu	Cu	0.92811	0.71849	0.14776	0.851
Mof_Cu	Cu	0.80166	0.63781	0.23151	0.847
Mof_Cu	Cu	0.85375	0.56622	0.09561	0.842
Mof_O 	O 	0.8825	0.6266	0.1705	-0.667
Mof_H 	H 	0.9185	0.5993	0.194	0.115
Mof_N 	N 	0.905	0.7495	0.2337	-0.218
Mof_N 	N 	0.8524	0.72	0.2666	-0.214
Mof_C 	C 	0.8468	0.749	0.3257	0.061
Mof_H 	H 	0.8124	0.7376	0.3562	-0.005
Mof_C 	C 	0.9004	0.7988	0.3344	-0.147
Mof_H 	H 	0.9099	0.8264	0.3708	0.075
Mof_C 	C 	0.9341	0.7975	0.279	0.069
Mof_H 	H 	0.9736	0.8255	0.2703	-0.003
Mof_N 	N 	0.771	0.5419	0.2111	-0.233
Mof_N 	N 	0.8001	0.5078	0.159	-0.231
Mof_C 	C 	0.777	0.4451	0.1586	0.108
Mof_H 	H 	0.7858	0.4132	0.1252	-0.033
Mof_C 	C 	0.7369	0.4284	0.2134	-0.195
Mof_H 	H 	0.7169	0.3855	0.2261	0.089
Mof_C 	C 	0.7353	0.4916	0.2425	0.103
Mof_H 	H 	0.7115	0.4998	0.2812	-0.022
Mof_N 	N 	0.9101	0.6279	0.0383	-0.218
Mof_N 	N 	0.939	0.6854	0.0587	-0.214
Mof_C 	C 	0.978	0.7144	0.0103	0.035
Mof_H 	H 	0.0055	0.7552	0.0136	-0.004
Mof_C 	C 	0.9705	0.6742	0.9568	-0.114
Mof_H 	H 	0.9912	0.6814	0.9165	0.054
Mof_C 	C 	0.9237	0.6181	0.9756	0.044
Mof_H 	H 	0.9063	0.5821	0.9493	-0.007
Mof_N 	N 	0.7177	0.6649	0.2886	-0.23
Mof_C 	C 	0.6816	0.7271	0.274	0.045
Mof_H 	H 	0.6885	0.7491	0.2341	-0.028
Mof_C 	C 	0.6353	0.7566	0.3189	-0.121
Mof_H 	H 	0.6111	0.7983	0.309	0.055
Mof_C 	C 	0.625	0.7239	0.3785	0.042
Mof_C 	C 	0.6611	0.6616	0.3932	-0.123
Mof_H 	H 	0.6542	0.6397	0.433	0.067
Mof_C 	C 	0.7074	0.6321	0.3482	0.049
Mof_H 	H 	0.7316	0.5905	0.3581	-0.012
Mof_C 	C 	0.5824	0.7584	0.4291	0.046
Mof_C 	C 	0.5355	0.7159	0.4637	-0.127
Mof_H 	H 	0.5331	0.6675	0.4551	0.068
Mof_C 	C 	0.4924	0.7456	0.5111	0.05
Mof_H 	H 	0.4611	0.7171	0.5342	-0.025
Mof_N 	N 	0.4961	0.8178	0.5239	-0.237
Mof_C 	C 	0.5429	0.8604	0.4893	0.05
Mof_H 	H 	0.5453	0.9088	0.4979	-0.022
Mof_C 	C 	0.586	0.8307	0.442	-0.129
Mof_H 	H 	0.6173	0.8592	0.4188	0.064
Mof_N 	N 	0.9606	0.8168	0.1267	-0.234
Mof_C 	C 	0.9078	0.8646	0.1094	0.049
Mof_H 	H 	0.8624	0.8484	0.0999	-0.023
Mof_C 	C 	0.9229	0.9367	0.1062	-0.123
Mof_H 	H 	0.8876	0.9687	0.0946	0.065
Mof_C 	C 	0.9908	0.9609	0.1203	0.046
Mof_C 	C 	0.0436	0.9131	0.1376	-0.125
Mof_H 	H 	0.089	0.9293	0.1471	0.061
Mof_C 	C 	0.0285	0.841	0.1408	0.051
Mof_H 	H 	0.0638	0.809	0.1524	-0.025
Mof_Cu	Cu	0.07189	0.28151	0.14776	0.851
Mof_Cu	Cu	0.19834	0.36219	0.23151	0.847
Mof_Cu	Cu	0.14625	0.43378	0.09561	0.842
Mof_O 	O 	0.1175	0.3734	0.1705	-0.667
Mof_H 	H 	0.0815	0.4007	0.194	0.115
Mof_N 	N 	0.095	0.2505	0.2337	-0.218
Mof_N 	N 	0.1476	0.28	0.2666	-0.214
Mof_C 	C 	0.1532	0.251	0.3257	0.061
Mof_H 	H 	0.1876	0.2624	0.3562	-0.005
Mof_C 	C 	0.0996	0.2012	0.3344	-0.147
Mof_H 	H 	0.0901	0.1736	0.3708	0.075
Mof_C 	C 	0.0659	0.2025	0.279	0.069
Mof_H 	H 	0.0264	0.1745	0.2703	-0.003
Mof_N 	N 	0.229	0.4581	0.2111	-0.233
Mof_N 	N 	0.1999	0.4922	0.159	-0.231
Mof_C 	C 	0.223	0.5549	0.1586	0.108
Mof_H 	H 	0.2142	0.5868	0.1252	-0.033
Mof_C 	C 	0.2631	0.5716	0.2134	-0.195
Mof_H 	H 	0.2831	0.6145	0.2261	0.089
Mof_C 	C 	0.2647	0.5084	0.2425	0.103
Mof_H 	H 	0.2885	0.5002	0.2812	-0.022
Mof_N 	N 	0.0899	0.3721	0.0383	-0.218
Mof_N 	N 	0.061	0.3146	0.0587	-0.214
Mof_C 	C 	0.022	0.2856	0.0103	0.035
Mof_H 	H 	0.9945	0.2448	0.0136	-0.004
Mof_C 	C 	0.0295	0.3258	0.9568	-0.114
Mof_H 	H 	0.0088	0.3186	0.9165	0.054
Mof_C 	C 	0.0763	0.3819	0.9756	0.044
Mof_H 	H 	0.0937	0.4179	0.9493	-0.007
Mof_N 	N 	0.2823	0.3351	0.2886	-0.23
Mof_C 	C 	0.3184	0.2729	0.274	0.045
Mof_H 	H 	0.3115	0.2509	0.2341	-0.028
Mof_C 	C 	0.3647	0.2434	0.3189	-0.121
Mof_H 	H 	0.3889	0.2017	0.309	0.055
Mof_C 	C 	0.375	0.2761	0.3785	0.042
Mof_C 	C 	0.3389	0.3384	0.3932	-0.123
Mof_H 	H 	0.3458	0.3603	0.433	0.067
Mof_C 	C 	0.2926	0.3679	0.3482	0.049
Mof_H 	H 	0.2684	0.4095	0.3581	-0.012
Mof_C 	C 	0.4176	0.2416	0.4291	0.046
Mof_C 	C 	0.4645	0.2841	0.4637	-0.127
Mof_H 	H 	0.4669	0.3325	0.4551	0.068
Mof_C 	C 	0.5076	0.2544	0.5111	0.05
Mof_H 	H 	0.5389	0.2829	0.5342	-0.025
Mof_N 	N 	0.5039	0.1822	0.5239	-0.237
Mof_C 	C 	0.4571	0.1396	0.4893	0.05
Mof_H 	H 	0.4547	0.0912	0.4979	-0.022
Mof_C 	C 	0.414	0.1693	0.442	-0.129
Mof_H 	H 	0.3827	0.1408	0.4188	0.064
Mof_N 	N 	0.0394	0.1832	0.1267	-0.234
Mof_C 	C 	0.0922	0.1354	0.1094	0.049
Mof_H 	H 	0.1376	0.1516	0.0999	-0.023
Mof_C 	C 	0.0771	0.0633	0.1062	-0.123
Mof_H 	H 	0.1124	0.0313	0.0946	0.065
Mof_C 	C 	0.0092	0.0391	0.1203	0.046
Mof_C 	C 	0.9564	0.0869	0.1376	-0.125
Mof_H 	H 	0.911	0.0707	0.1471	0.061
Mof_C 	C 	0.9715	0.159	0.1408	0.051
Mof_H 	H 	0.9362	0.191	0.1524	-0.025
Mof_Cu	Cu	0.21849	0.42811	0.64776	0.851
Mof_Cu	Cu	0.13781	0.30166	0.73151	0.847
Mof_Cu	Cu	0.06622	0.35375	0.59561	0.843
Mof_O 	O 	0.1266	0.3825	0.6705	-0.666
Mof_H 	H 	0.0993	0.4185	0.694	0.115
Mof_N 	N 	0.2495	0.405	0.7337	-0.218
Mof_N 	N 	0.22	0.3524	0.7666	-0.214
Mof_C 	C 	0.249	0.3468	0.8257	0.061
Mof_H 	H 	0.2376	0.3124	0.8562	-0.005
Mof_C 	C 	0.2988	0.4004	0.8344	-0.147
Mof_H 	H 	0.3264	0.4099	0.8708	0.077
Mof_C 	C 	0.2975	0.4341	0.779	0.069
Mof_H 	H 	0.3255	0.4736	0.7703	-0.003
Mof_N 	N 	0.0419	0.271	0.7111	-0.233
Mof_N 	N 	0.0078	0.3001	0.659	-0.231
Mof_C 	C 	0.9451	0.277	0.6586	0.107
Mof_H 	H 	0.9132	0.2858	0.6252	-0.032
Mof_C 	C 	0.9284	0.2369	0.7134	-0.194
Mof_H 	H 	0.8855	0.2169	0.7261	0.089
Mof_C 	C 	0.9916	0.2353	0.7425	0.102
Mof_H 	H 	0.9998	0.2115	0.7812	-0.022
Mof_N 	N 	0.1279	0.4101	0.5383	-0.213
Mof_N 	N 	0.1854	0.439	0.5587	-0.215
Mof_C 	C 	0.2144	0.478	0.5103	0.051
Mof_H 	H 	0.2552	0.5055	0.5136	-0.007
Mof_C 	C 	0.1742	0.4705	0.4568	-0.128
Mof_H 	H 	0.1814	0.4912	0.4165	0.058
Mof_C 	C 	0.1181	0.4237	0.4756	0.04
Mof_H 	H 	0.0821	0.4063	0.4493	-0.007
Mof_N 	N 	0.1649	0.2177	0.7886	-0.231
Mof_C 	C 	0.2271	0.1816	0.774	0.046
Mof_H 	H 	0.2491	0.1885	0.7341	-0.028
Mof_C 	C 	0.2566	0.1353	0.8189	-0.123
Mof_H 	H 	0.2983	0.1111	0.809	0.056
Mof_C 	C 	0.2239	0.125	0.8785	0.045
Mof_C 	C 	0.1616	0.1611	0.8932	-0.125
Mof_H 	H 	0.1397	0.1542	0.933	0.069
Mof_C 	C 	0.1321	0.2074	0.8482	0.05
Mof_H 	H 	0.0905	0.2316	0.8581	-0.012
Mof_C 	C 	0.2584	0.0824	0.9291	0.041
Mof_C 	C 	0.2159	0.0355	0.9637	-0.112
Mof_H 	H 	0.1675	0.0331	0.9551	0.065
Mof_C 	C 	0.2456	0.9924	0.0111	0.034
Mof_H 	H 	0.2171	0.9611	0.0342	-0.022
Mof_N 	N 	0.3178	0.9961	0.0239	-0.239
Mof_C 	C 	0.3604	0.0429	0.9893	0.056
Mof_H 	H 	0.4088	0.0453	0.9979	-0.022
Mof_C 	C 	0.3307	0.086	0.942	-0.128
Mof_H 	H 	0.3592	0.1173	0.9188	0.064
Mof_N 	N 	0.3168	0.4606	0.6267	-0.234
Mof_C 	C 	0.3646	0.4078	0.6094	0.05
Mof_H 	H 	0.3484	0.3624	0.5999	-0.022
Mof_C 	C 	0.4367	0.4229	0.6062	-0.122
Mof_H 	H 	0.4687	0.3876	0.5946	0.066
Mof_C 	C 	0.4609	0.4908	0.6203	0.046
Mof_C 	C 	0.4131	0.5436	0.6376	-0.125
Mof_H 	H 	0.4293	0.589	0.6471	0.061
Mof_C 	C 	0.341	0.5285	0.6408	0.052
Mof_H 	H 	0.309	0.5638	0.6524	-0.024
Mof_Cu	Cu	0.78151	0.57189	0.64776	0.851
Mof_Cu	Cu	0.86219	0.69834	0.73151	0.847
Mof_Cu	Cu	0.93378	0.64625	0.59561	0.843
Mof_O 	O 	0.8734	0.6175	0.6705	-0.666
Mof_H 	H 	0.9007	0.5815	0.694	0.115
Mof_N 	N 	0.7505	0.595	0.7337	-0.218
Mof_N 	N 	0.78	0.6476	0.7666	-0.214
Mof_C 	C 	0.751	0.6532	0.8257	0.061
Mof_H 	H 	0.7624	0.6876	0.8562	-0.005
Mof_C 	C 	0.7012	0.5996	0.8344	-0.147
Mof_H 	H 	0.6736	0.5901	0.8708	0.077
Mof_C 	C 	0.7025	0.5659	0.779	0.069
Mof_H 	H 	0.6745	0.5264	0.7703	-0.003
Mof_N 	N 	0.9581	0.729	0.7111	-0.233
Mof_N 	N 	0.9922	0.6999	0.659	-0.231
Mof_C 	C 	0.0549	0.723	0.6586	0.107
Mof_H 	H 	0.0868	0.7142	0.6252	-0.032
Mof_C 	C 	0.0716	0.7631	0.7134	-0.194
Mof_H 	H 	0.1145	0.7831	0.7261	0.089
Mof_C 	C 	0.0084	0.7647	0.7425	0.102
Mof_H 	H 	0.0002	0.7885	0.7812	-0.022
Mof_N 	N 	0.8721	0.5899	0.5383	-0.213
Mof_N 	N 	0.8146	0.561	0.5587	-0.215
Mof_C 	C 	0.7856	0.522	0.5103	0.051
Mof_H 	H 	0.7448	0.4945	0.5136	-0.007
Mof_C 	C 	0.8258	0.5295	0.4568	-0.128
Mof_H 	H 	0.8186	0.5088	0.4165	0.058
Mof_C 	C 	0.8819	0.5763	0.4756	0.04
Mof_H 	H 	0.9179	0.5937	0.4493	-0.007
Mof_N 	N 	0.8351	0.7823	0.7886	-0.231
Mof_C 	C 	0.7729	0.8184	0.774	0.046
Mof_H 	H 	0.7509	0.8115	0.7341	-0.028
Mof_C 	C 	0.7434	0.8647	0.8189	-0.123
Mof_H 	H 	0.7017	0.8889	0.809	0.056
Mof_C 	C 	0.7761	0.875	0.8785	0.045
Mof_C 	C 	0.8384	0.8389	0.8932	-0.125
Mof_H 	H 	0.8603	0.8458	0.933	0.069
Mof_C 	C 	0.8679	0.7926	0.8482	0.05
Mof_H 	H 	0.9095	0.7684	0.8581	-0.012
Mof_C 	C 	0.7416	0.9176	0.9291	0.041
Mof_C 	C 	0.7841	0.9645	0.9637	-0.112
Mof_H 	H 	0.8325	0.9669	0.9551	0.065
Mof_C 	C 	0.7544	0.0076	0.0111	0.034
Mof_H 	H 	0.7829	0.0389	0.0342	-0.022
Mof_N 	N 	0.6822	0.0039	0.0239	-0.239
Mof_C 	C 	0.6396	0.9571	0.9893	0.056
Mof_H 	H 	0.5912	0.9547	0.9979	-0.022
Mof_C 	C 	0.6693	0.914	0.942	-0.128
Mof_H 	H 	0.6408	0.8827	0.9188	0.064
Mof_N 	N 	0.6832	0.5394	0.6267	-0.234
Mof_C 	C 	0.6354	0.5922	0.6094	0.05
Mof_H 	H 	0.6516	0.6376	0.5999	-0.022
Mof_C 	C 	0.5633	0.5771	0.6062	-0.122
Mof_H 	H 	0.5313	0.6124	0.5946	0.066
Mof_C 	C 	0.5391	0.5092	0.6203	0.046
Mof_C 	C 	0.5869	0.4564	0.6376	-0.125
Mof_H 	H 	0.5707	0.411	0.6471	0.061
Mof_C 	C 	0.659	0.4715	0.6408	0.052
Mof_H 	H 	0.691	0.4362	0.6524	-0.024
Mof_Cu	Cu	0.42811	0.78151	0.14776	0.851
Mof_Cu	Cu	0.30166	0.86219	0.23151	0.847
Mof_Cu	Cu	0.35375	0.93378	0.09561	0.842
Mof_O 	O 	0.3825	0.8734	0.1705	-0.667
Mof_H 	H 	0.4185	0.9007	0.194	0.115
Mof_N 	N 	0.405	0.7505	0.2337	-0.218
Mof_N 	N 	0.3524	0.78	0.2666	-0.214
Mof_C 	C 	0.3468	0.751	0.3257	0.061
Mof_H 	H 	0.3124	0.7624	0.3562	-0.005
Mof_C 	C 	0.4004	0.7012	0.3344	-0.147
Mof_H 	H 	0.4099	0.6736	0.3708	0.075
Mof_C 	C 	0.4341	0.7025	0.279	0.069
Mof_H 	H 	0.4736	0.6745	0.2703	-0.003
Mof_N 	N 	0.271	0.9581	0.2111	-0.233
Mof_N 	N 	0.3001	0.9922	0.159	-0.231
Mof_C 	C 	0.277	0.0549	0.1586	0.107
Mof_H 	H 	0.2858	0.0868	0.1252	-0.033
Mof_C 	C 	0.2369	0.0716	0.2134	-0.195
Mof_H 	H 	0.2169	0.1145	0.2261	0.089
Mof_C 	C 	0.2353	0.0084	0.2425	0.103
Mof_H 	H 	0.2115	0.0002	0.2812	-0.022
Mof_N 	N 	0.4101	0.8721	0.0383	-0.218
Mof_N 	N 	0.439	0.8146	0.0587	-0.214
Mof_C 	C 	0.478	0.7856	0.0103	0.035
Mof_H 	H 	0.5055	0.7448	0.0136	-0.004
Mof_C 	C 	0.4705	0.8258	0.9568	-0.114
Mof_H 	H 	0.4912	0.8186	0.9165	0.054
Mof_C 	C 	0.4237	0.8819	0.9756	0.044
Mof_H 	H 	0.4063	0.9179	0.9493	-0.007
Mof_N 	N 	0.2177	0.8351	0.2886	-0.23
Mof_C 	C 	0.1816	0.7729	0.274	0.045
Mof_H 	H 	0.1885	0.7509	0.2341	-0.028
Mof_C 	C 	0.1353	0.7434	0.3189	-0.121
Mof_H 	H 	0.1111	0.7017	0.309	0.055
Mof_C 	C 	0.125	0.7761	0.3785	0.042
Mof_C 	C 	0.1611	0.8384	0.3932	-0.123
Mof_H 	H 	0.1542	0.8603	0.433	0.067
Mof_C 	C 	0.2074	0.8679	0.3482	0.049
Mof_H 	H 	0.2316	0.9095	0.3581	-0.012
Mof_C 	C 	0.0824	0.7416	0.4291	0.046
Mof_C 	C 	0.0355	0.7841	0.4637	-0.127
Mof_H 	H 	0.0331	0.8325	0.4551	0.068
Mof_C 	C 	0.9924	0.7544	0.5111	0.05
Mof_H 	H 	0.9611	0.7829	0.5342	-0.025
Mof_N 	N 	0.9961	0.6822	0.5239	-0.237
Mof_C 	C 	0.0429	0.6396	0.4893	0.05
Mof_H 	H 	0.0453	0.5912	0.4979	-0.022
Mof_C 	C 	0.086	0.6693	0.442	-0.129
Mof_H 	H 	0.1173	0.6408	0.4188	0.064
Mof_N 	N 	0.4606	0.6832	0.1267	-0.234
Mof_C 	C 	0.4078	0.6354	0.1094	0.049
Mof_H 	H 	0.3624	0.6516	0.0999	-0.023
Mof_C 	C 	0.4229	0.5633	0.1062	-0.123
Mof_H 	H 	0.3876	0.5313	0.0946	0.065
Mof_C 	C 	0.4908	0.5391	0.1203	0.046
Mof_C 	C 	0.5436	0.5869	0.1376	-0.125
Mof_H 	H 	0.589	0.5707	0.1471	0.061
Mof_C 	C 	0.5285	0.659	0.1408	0.051
Mof_H 	H 	0.5638	0.691	0.1524	-0.025
Mof_Cu	Cu	0.57189	0.21849	0.14776	0.851
Mof_Cu	Cu	0.69834	0.13781	0.23151	0.847
Mof_Cu	Cu	0.64625	0.06622	0.09561	0.842
Mof_O 	O 	0.6175	0.1266	0.1705	-0.667
Mof_H 	H 	0.5815	0.0993	0.194	0.115
Mof_N 	N 	0.595	0.2495	0.2337	-0.218
Mof_N 	N 	0.6476	0.22	0.2666	-0.214
Mof_C 	C 	0.6532	0.249	0.3257	0.061
Mof_H 	H 	0.6876	0.2376	0.3562	-0.005
Mof_C 	C 	0.5996	0.2988	0.3344	-0.147
Mof_H 	H 	0.5901	0.3264	0.3708	0.075
Mof_C 	C 	0.5659	0.2975	0.279	0.069
Mof_H 	H 	0.5264	0.3255	0.2703	-0.003
Mof_N 	N 	0.729	0.0419	0.2111	-0.233
Mof_N 	N 	0.6999	0.0078	0.159	-0.231
Mof_C 	C 	0.723	0.9451	0.1586	0.107
Mof_H 	H 	0.7142	0.9132	0.1252	-0.033
Mof_C 	C 	0.7631	0.9284	0.2134	-0.195
Mof_H 	H 	0.7831	0.8855	0.2261	0.089
Mof_C 	C 	0.7647	0.9916	0.2425	0.103
Mof_H 	H 	0.7885	0.9998	0.2812	-0.022
Mof_N 	N 	0.5899	0.1279	0.0383	-0.218
Mof_N 	N 	0.561	0.1854	0.0587	-0.214
Mof_C 	C 	0.522	0.2144	0.0103	0.035
Mof_H 	H 	0.4945	0.2552	0.0136	-0.004
Mof_C 	C 	0.5295	0.1742	0.9568	-0.114
Mof_H 	H 	0.5088	0.1814	0.9165	0.054
Mof_C 	C 	0.5763	0.1181	0.9756	0.044
Mof_H 	H 	0.5937	0.0821	0.9493	-0.007
Mof_N 	N 	0.7823	0.1649	0.2886	-0.23
Mof_C 	C 	0.8184	0.2271	0.274	0.045
Mof_H 	H 	0.8115	0.2491	0.2341	-0.028
Mof_C 	C 	0.8647	0.2566	0.3189	-0.121
Mof_H 	H 	0.8889	0.2983	0.309	0.055
Mof_C 	C 	0.875	0.2239	0.3785	0.042
Mof_C 	C 	0.8389	0.1616	0.3932	-0.123
Mof_H 	H 	0.8458	0.1397	0.433	0.067
Mof_C 	C 	0.7926	0.1321	0.3482	0.049
Mof_H 	H 	0.7684	0.0905	0.3581	-0.012
Mof_C 	C 	0.9176	0.2584	0.4291	0.046
Mof_C 	C 	0.9645	0.2159	0.4637	-0.127
Mof_H 	H 	0.9669	0.1675	0.4551	0.068
Mof_C 	C 	0.0076	0.2456	0.5111	0.05
Mof_H 	H 	0.0389	0.2171	0.5342	-0.025
Mof_N 	N 	0.0039	0.3178	0.5239	-0.237
Mof_C 	C 	0.9571	0.3604	0.4893	0.05
Mof_H 	H 	0.9547	0.4088	0.4979	-0.022
Mof_C 	C 	0.914	0.3307	0.442	-0.129
Mof_H 	H 	0.8827	0.3592	0.4188	0.064
Mof_N 	N 	0.5394	0.3168	0.1267	-0.234
Mof_C 	C 	0.5922	0.3646	0.1094	0.049
Mof_H 	H 	0.6376	0.3484	0.0999	-0.023
Mof_C 	C 	0.5771	0.4367	0.1062	-0.123
Mof_H 	H 	0.6124	0.4687	0.0946	0.065
Mof_C 	C 	0.5092	0.4609	0.1203	0.046
Mof_C 	C 	0.4564	0.4131	0.1376	-0.125
Mof_H 	H 	0.411	0.4293	0.1471	0.061
Mof_C 	C 	0.4715	0.341	0.1408	0.051
Mof_H 	H 	0.4362	0.309	0.1524	-0.025
_end
