data_functionalizedCrystal
_audit_creation_method	'EQeq! by Chris Wilmer'
_symmetry_space_group_name_H-M	'P1'
_symmetry_Int_Tables_number	1
_symmetry_cell_setting	triclinic
loop_
_symmetry_equiv_pos_as_xyz
  x,y,z
_cell_length_a	8.9364
_cell_length_b	8.9364
_cell_length_c	8.9364
_cell_angle_alpha	60
_cell_angle_beta	60
_cell_angle_gamma	60
loop_
_atom_site_label
_atom_site_type_symbol
_atom_site_fract_x
_atom_site_fract_y
_atom_site_fract_z
_atom_site_charge
Mof_Cd	Cd	0.875	0.375	0.375	0.324
Mof_Cd	Cd	0.125	0.625	0.625	0.322
Mof_C 	C 	0.581	0.473	0.473	-0.015
Mof_C 	C 	0.973	0.081	0.473	-0.021
Mof_N 	N 	0.973	0.473	0.081	-0.128
Mof_N 	N 	0.973	0.473	0.473	-0.134
Mof_N 	N 	0.027	0.919	0.527	-0.139
Mof_N 	N 	0.419	0.527	0.527	-0.144
Mof_C 	C 	0.027	0.527	0.919	-0.036
Mof_C 	C 	0.027	0.527	0.527	-0.029
_end
