data_functionalizedCrystal
_audit_creation_method	'EQeq! by Chris Wilmer'
_symmetry_space_group_name_H-M	'P1'
_symmetry_Int_Tables_number	1
_symmetry_cell_setting	triclinic
loop_
_symmetry_equiv_pos_as_xyz
  x,y,z
_cell_length_a	10.334
_cell_length_b	15.9714
_cell_length_c	25.3074
_cell_angle_alpha	90
_cell_angle_beta	93.277
_cell_angle_gamma	90
loop_
_atom_site_label
_atom_site_type_symbol
_atom_site_fract_x
_atom_site_fract_y
_atom_site_fract_z
_atom_site_charge
Mof_Cu	Cu	0.76038	0.21429	0.83324	0.851
Mof_N 	N 	0.0688	0.9903	0.92362	-0.189
Mof_N 	N 	0.1649	0.071	0.02472	-0.245
Mof_C 	C 	0.0101	0.9466	0.88207	0.063
Mof_C 	C 	0.0895	0.9551	0.8374	-0.002
Mof_H 	H 	0.072	0.9317	0.8032	0.034
Mof_C 	C 	0.1937	0.0025	0.8528	-0.153
Mof_H 	H 	0.2622	0.0183	0.8314	0.07
Mof_C 	C 	0.1817	0.0248	0.90766	0.1
Mof_C 	C 	0.2706	0.0718	0.93985	-0.16
Mof_C 	C 	0.2613	0.0938	0.99313	0.152
Mof_C 	C 	0.3497	0.1477	0.0242	-0.135
Mof_H 	H 	0.4263	0.1728	0.0123	0.057
Mof_C 	C 	0.3042	0.1559	0.0724	-0.07
Mof_H 	H 	0.3426	0.1878	0.1009	0.05
Mof_C 	C 	0.1865	0.1075	0.07346	0.102
Mof_C 	C 	0.8937	0.901	0.8835	-0.095
Mof_C 	C 	0.8542	0.8547	0.83376	0.103
Mof_C 	C 	0.7401	0.8745	0.80421	-0.155
Mof_H 	H 	0.6814	0.9146	0.8168	0.087
Mof_C 	C 	0.7142	0.8346	0.7563	0.085
Mof_H 	H 	0.6377	0.8496	0.736	-0.017
Mof_N 	N 	0.7911	0.7758	0.73701	-0.232
Mof_C 	C 	0.8977	0.7535	0.7676	0.064
Mof_H 	H 	0.9511	0.7099	0.7556	-0.005
Mof_C 	C 	0.9319	0.7913	0.8154	-0.119
Mof_H 	H 	0.0077	0.7742	0.8355	0.054
Mof_C 	C 	0.3874	0.1034	0.9135	0.139
Mof_C 	C 	0.5112	0.0731	0.9268	-0.185
Mof_H 	H 	0.5232	0.0299	0.9524	0.086
Mof_C 	C 	0.6168	0.1058	0.9026	0.089
Mof_H 	H 	0.7005	0.0842	0.9123	-0.034
Mof_N 	N 	0.6058	0.1672	0.86601	-0.259
Mof_C 	C 	0.4862	0.1953	0.8532	0.093
Mof_H 	H 	0.4764	0.2381	0.8272	-0.026
Mof_C 	C 	0.3765	0.166	0.8754	-0.188
Mof_H 	H 	0.294	0.1885	0.8648	0.088
Mof_N 	N 	0.8937	0.277	0.87743	-0.26
Mof_C 	C 	0.9949	0.2358	0.8991	0.124
Mof_H 	H 	0.9969	0.1766	0.8957	-0.037
Mof_C 	C 	0.0978	0.2753	0.9263	-0.209
Mof_H 	H 	0.1677	0.2432	0.9416	0.101
Mof_C 	C 	0.0984	0.3614	0.931	0.112
Mof_C 	C 	0.9911	0.4046	0.9102	-0.149
Mof_H 	H 	0.9862	0.4638	0.9136	0.086
Mof_C 	C 	0.8908	0.3603	0.8845	0.083
Mof_H 	H 	0.8165	0.3903	0.8712	-0.024
Mof_C 	C 	0.2164	0.4058	0.9538	-0.098
Mof_C 	C 	0.2377	0.4066	0.0086	0.057
Mof_C 	C 	0.156	0.3705	0.0466	-0.063
Mof_H 	H 	0.0752	0.3435	0.0389	0.034
Mof_C 	C 	0.2148	0.382	0.0956	-0.098
Mof_H 	H 	0.1833	0.3635	0.1282	0.059
Mof_C 	C 	0.3338	0.4273	0.0891	0.105
Mof_C 	C 	0.4244	0.4532	0.1294	-0.142
Mof_C 	C 	0.5413	0.4973	0.1226	0.101
Mof_C 	C 	0.6274	0.53	0.164	-0.082
Mof_H 	H 	0.6167	0.5254	0.2009	0.056
Mof_C 	C 	0.726	0.5683	0.1412	-0.09
Mof_H 	H 	0.7977	0.5952	0.1592	0.062
Mof_C 	C 	0.2961	0.4386	0.9149	0.086
Mof_C 	C 	0.4001	0.4286	0.18511	0.129
Mof_C 	C 	0.2894	0.4536	0.2097	-0.175
Mof_H 	H 	0.2267	0.4882	0.1915	0.082
Mof_C 	C 	0.2721	0.4276	0.2608	0.085
Mof_H 	H 	0.1967	0.4462	0.2771	-0.023
Mof_N 	N 	0.3541	0.3781	0.28868	-0.232
Mof_C 	C 	0.4625	0.3557	0.2655	0.083
Mof_H 	H 	0.5246	0.3223	0.285	-0.016
Mof_C 	C 	0.4877	0.3794	0.2142	-0.174
Mof_H 	H 	0.5653	0.3617	0.1992	0.084
Mof_N 	N 	0.4106	0.4815	0.92477	-0.221
Mof_N 	N 	0.3443	0.4413	0.03592	-0.225
Mof_Cu	Cu	0.73962	0.71429	0.66676	0.851
Mof_N 	N 	0.4312	0.4903	0.57638	-0.233
Mof_N 	N 	0.3351	0.571	0.47528	-0.232
Mof_C 	C 	0.4899	0.4466	0.61793	0.1
Mof_C 	C 	0.4105	0.4551	0.6626	-0.084
Mof_H 	H 	0.428	0.4317	0.6968	0.057
Mof_C 	C 	0.3063	0.5025	0.6472	-0.081
Mof_H 	H 	0.2378	0.5183	0.6686	0.052
Mof_C 	C 	0.3183	0.5248	0.59234	0.095
Mof_C 	C 	0.2294	0.5718	0.56015	-0.133
Mof_C 	C 	0.2387	0.5938	0.50687	0.093
Mof_C 	C 	0.1503	0.6477	0.4758	-0.079
Mof_H 	H 	0.0737	0.6728	0.4877	0.046
Mof_C 	C 	0.1958	0.6559	0.4276	-0.085
Mof_H 	H 	0.1574	0.6878	0.3991	0.056
Mof_C 	C 	0.3135	0.6075	0.42654	0.102
Mof_C 	C 	0.6063	0.401	0.6165	-0.141
Mof_C 	C 	0.6458	0.3547	0.66624	0.129
Mof_C 	C 	0.7599	0.3745	0.69579	-0.174
Mof_H 	H 	0.8186	0.4146	0.6832	0.087
Mof_C 	C 	0.7858	0.3346	0.7437	0.091
Mof_H 	H 	0.8623	0.3496	0.764	-0.02
Mof_N 	N 	0.7089	0.2758	0.76299	-0.239
Mof_C 	C 	0.6023	0.2535	0.7324	0.086
Mof_H 	H 	0.5489	0.2099	0.7444	-0.022
Mof_C 	C 	0.5681	0.2913	0.6846	-0.176
Mof_H 	H 	0.4923	0.2742	0.6645	0.081
Mof_C 	C 	0.1126	0.6034	0.5865	0.092
Mof_C 	C 	0.9888	0.5731	0.5732	-0.137
Mof_H 	H 	0.9768	0.5299	0.5476	0.078
Mof_C 	C 	0.8832	0.6058	0.5974	0.073
Mof_H 	H 	0.7995	0.5842	0.5877	-0.029
Mof_N 	N 	0.8942	0.6672	0.63399	-0.242
Mof_C 	C 	0.0138	0.6953	0.6468	0.056
Mof_H 	H 	0.0236	0.7381	0.6728	-0.018
Mof_C 	C 	0.1235	0.666	0.6246	-0.156
Mof_H 	H 	0.206	0.6885	0.6352	0.079
Mof_N 	N 	0.6063	0.777	0.62257	-0.26
Mof_C 	C 	0.5051	0.7358	0.6009	0.095
Mof_H 	H 	0.5031	0.6766	0.6043	-0.037
Mof_C 	C 	0.4022	0.7753	0.5737	-0.193
Mof_H 	H 	0.3323	0.7432	0.5584	0.092
Mof_C 	C 	0.4016	0.8614	0.569	0.141
Mof_C 	C 	0.5089	0.9046	0.5898	-0.186
Mof_H 	H 	0.5138	0.9638	0.5864	0.1
Mof_C 	C 	0.6092	0.8603	0.6155	0.093
Mof_H 	H 	0.6835	0.8903	0.6288	-0.02
Mof_C 	C 	0.2836	0.9058	0.5462	-0.143
Mof_C 	C 	0.2623	0.9066	0.4914	0.106
Mof_C 	C 	0.344	0.8705	0.4534	-0.075
Mof_H 	H 	0.4248	0.8435	0.4611	0.054
Mof_C 	C 	0.2852	0.882	0.4044	-0.093
Mof_H 	H 	0.3167	0.8635	0.3718	0.063
Mof_C 	C 	0.1662	0.9273	0.4109	0.123
Mof_C 	C 	0.0756	0.9532	0.3706	-0.183
Mof_C 	C 	0.9587	0.9973	0.3774	0.19
Mof_C 	C 	0.8726	0.03	0.336	-0.157
Mof_H 	H 	0.8833	0.0254	0.2991	0.075
Mof_C 	C 	0.774	0.0683	0.3588	-0.051
Mof_H 	H 	0.7023	0.0952	0.3408	0.042
Mof_C 	C 	0.2039	0.9386	0.5851	0.116
Mof_C 	C 	0.0999	0.9286	0.31489	0.158
Mof_C 	C 	0.2106	0.9536	0.2903	-0.189
Mof_H 	H 	0.2733	0.9882	0.3085	0.098
Mof_C 	C 	0.2279	0.9276	0.2392	0.097
Mof_H 	H 	0.3033	0.9462	0.2229	-0.017
Mof_N 	N 	0.1459	0.8781	0.21132	-0.23
Mof_C 	C 	0.0375	0.8557	0.2345	0.073
Mof_H 	H 	0.9754	0.8223	0.215	0.002
Mof_C 	C 	0.0123	0.8794	0.2858	-0.209
Mof_H 	H 	0.9347	0.8617	0.3008	0.11
Mof_N 	N 	0.0894	0.9815	0.57523	-0.195
Mof_N 	N 	0.1557	0.9413	0.46408	-0.22
Mof_Cu	Cu	0.23962	0.78571	0.16676	0.849
Mof_N 	N 	0.9312	0.0097	0.07638	-0.235
Mof_N 	N 	0.8351	0.929	0.97528	-0.18
Mof_C 	C 	0.9899	0.0534	0.11793	0.144
Mof_C 	C 	0.9105	0.0449	0.1626	-0.152
Mof_H 	H 	0.928	0.0683	0.1968	0.081
Mof_C 	C 	0.8063	0.9975	0.1472	-0.019
Mof_H 	H 	0.7378	0.9817	0.1686	0.043
Mof_C 	C 	0.8183	0.9752	0.09234	0.101
Mof_C 	C 	0.7294	0.9282	0.06015	-0.116
Mof_C 	C 	0.7387	0.9062	0.00687	0.047
Mof_C 	C 	0.6503	0.8523	0.9758	-0.026
Mof_H 	H 	0.5737	0.8272	0.9877	0.044
Mof_C 	C 	0.6958	0.8441	0.9276	-0.096
Mof_H 	H 	0.6574	0.8122	0.8991	0.065
Mof_C 	C 	0.8135	0.8925	0.92654	0.103
Mof_C 	C 	0.1063	0.099	0.1165	-0.183
Mof_C 	C 	0.1458	0.1453	0.16624	0.157
Mof_C 	C 	0.2599	0.1255	0.19579	-0.196
Mof_H 	H 	0.3186	0.0854	0.1832	0.084
Mof_C 	C 	0.2858	0.1654	0.2437	0.097
Mof_H 	H 	0.3623	0.1504	0.264	-0.029
Mof_N 	N 	0.2089	0.2242	0.26299	-0.248
Mof_C 	C 	0.1023	0.2465	0.2324	0.111
Mof_H 	H 	0.0489	0.2901	0.2444	-0.036
Mof_C 	C 	0.0681	0.2087	0.1846	-0.239
Mof_H 	H 	0.9923	0.2258	0.1645	0.119
Mof_C 	C 	0.6126	0.8966	0.0865	0.118
Mof_C 	C 	0.4888	0.9269	0.0732	-0.173
Mof_H 	H 	0.4768	0.9701	0.0476	0.087
Mof_C 	C 	0.3832	0.8942	0.0974	0.084
Mof_H 	H 	0.2995	0.9158	0.0877	-0.028
Mof_N 	N 	0.3942	0.8328	0.13399	-0.257
Mof_C 	C 	0.5138	0.8047	0.1468	0.088
Mof_H 	H 	0.5236	0.7619	0.1728	-0.024
Mof_C 	C 	0.6235	0.834	0.1246	-0.177
Mof_H 	H 	0.706	0.8115	0.1352	0.088
Mof_N 	N 	0.1063	0.723	0.12257	-0.26
Mof_C 	C 	0.0051	0.7642	0.1009	0.068
Mof_H 	H 	0.0031	0.8234	0.1043	-0.031
Mof_C 	C 	0.9022	0.7247	0.0737	-0.177
Mof_H 	H 	0.8323	0.7568	0.0584	0.084
Mof_C 	C 	0.9016	0.6386	0.069	0.161
Mof_C 	C 	0.0089	0.5954	0.0898	-0.222
Mof_H 	H 	0.0138	0.5362	0.0864	0.093
Mof_C 	C 	0.1092	0.6397	0.1155	0.097
Mof_H 	H 	0.1835	0.6097	0.1288	-0.033
Mof_C 	C 	0.7836	0.5942	0.0462	-0.185
Mof_C 	C 	0.7623	0.5934	0.9914	0.148
Mof_C 	C 	0.844	0.6295	0.9534	-0.099
Mof_H 	H 	0.9248	0.6565	0.9611	0.072
Mof_C 	C 	0.7852	0.618	0.9044	-0.074
Mof_H 	H 	0.8167	0.6365	0.8718	0.056
Mof_C 	C 	0.6662	0.5727	0.9109	0.102
Mof_C 	C 	0.5756	0.5468	0.8706	-0.138
Mof_C 	C 	0.4587	0.5027	0.8774	0.104
Mof_C 	C 	0.3726	0.47	0.836	-0.092
Mof_H 	H 	0.3833	0.4746	0.7991	0.057
Mof_C 	C 	0.274	0.4317	0.8588	-0.073
Mof_H 	H 	0.2023	0.4048	0.8408	0.047
Mof_C 	C 	0.7039	0.5614	0.0851	0.113
Mof_C 	C 	0.5999	0.5714	0.81489	0.127
Mof_C 	C 	0.7106	0.5464	0.7903	-0.173
Mof_H 	H 	0.7733	0.5118	0.8085	0.084
Mof_C 	C 	0.7279	0.5724	0.7392	0.084
Mof_H 	H 	0.8033	0.5538	0.7229	-0.018
Mof_N 	N 	0.6459	0.6219	0.71132	-0.231
Mof_C 	C 	0.5375	0.6443	0.7345	0.082
Mof_H 	H 	0.4754	0.6777	0.715	-0.015
Mof_C 	C 	0.5123	0.6206	0.7858	-0.172
Mof_H 	H 	0.4347	0.6383	0.8008	0.084
Mof_N 	N 	0.5894	0.5185	0.07523	-0.236
Mof_N 	N 	0.6557	0.5587	0.96408	-0.225
Mof_Cu	Cu	0.26038	0.28571	0.33324	0.847
Mof_N 	N 	0.5688	0.5097	0.42362	-0.234
Mof_N 	N 	0.6649	0.429	0.52472	-0.233
Mof_C 	C 	0.5101	0.5534	0.38207	0.1
Mof_C 	C 	0.5895	0.5449	0.3374	-0.078
Mof_H 	H 	0.572	0.5683	0.3032	0.057
Mof_C 	C 	0.6937	0.4975	0.3528	-0.086
Mof_H 	H 	0.7622	0.4817	0.3314	0.06
Mof_C 	C 	0.6817	0.4752	0.40766	0.109
Mof_C 	C 	0.7706	0.4282	0.43985	-0.156
Mof_C 	C 	0.7613	0.4062	0.49313	0.107
Mof_C 	C 	0.8497	0.3523	0.5242	-0.084
Mof_H 	H 	0.9263	0.3272	0.5123	0.056
Mof_C 	C 	0.8042	0.3441	0.5724	-0.08
Mof_H 	H 	0.8426	0.3122	0.6009	0.058
Mof_C 	C 	0.6865	0.3925	0.57346	0.1
Mof_C 	C 	0.3937	0.599	0.3835	-0.14
Mof_C 	C 	0.3542	0.6453	0.33376	0.13
Mof_C 	C 	0.2401	0.6255	0.30421	-0.176
Mof_H 	H 	0.1814	0.5854	0.3168	0.084
Mof_C 	C 	0.2142	0.6654	0.2563	0.09
Mof_H 	H 	0.1377	0.6504	0.236	-0.026
Mof_N 	N 	0.2911	0.7242	0.23701	-0.24
Mof_C 	C 	0.3977	0.7465	0.2676	0.086
Mof_H 	H 	0.4511	0.7901	0.2556	-0.018
Mof_C 	C 	0.4319	0.7087	0.3154	-0.176
Mof_H 	H 	0.5077	0.7258	0.3355	0.086
Mof_C 	C 	0.8874	0.3966	0.4135	0.172
Mof_C 	C 	0.0112	0.4269	0.4268	-0.229
Mof_H 	H 	0.0232	0.4701	0.4524	0.095
Mof_C 	C 	0.1168	0.3942	0.4026	0.105
Mof_H 	H 	0.2005	0.4158	0.4123	-0.043
Mof_N 	N 	0.1058	0.3328	0.36601	-0.278
Mof_C 	C 	0.9862	0.3047	0.3532	0.13
Mof_H 	H 	0.9764	0.2619	0.3272	-0.032
Mof_C 	C 	0.8765	0.334	0.3754	-0.213
Mof_H 	H 	0.794	0.3115	0.3648	0.099
Mof_N 	N 	0.3937	0.223	0.37743	-0.262
Mof_C 	C 	0.4949	0.2642	0.3991	0.091
Mof_H 	H 	0.4969	0.3234	0.3957	-0.037
Mof_C 	C 	0.5978	0.2247	0.4263	-0.19
Mof_H 	H 	0.6677	0.2568	0.4416	0.091
Mof_C 	C 	0.5984	0.1386	0.431	0.132
Mof_C 	C 	0.4911	0.0954	0.4102	-0.187
Mof_H 	H 	0.4862	0.0362	0.4136	0.08
Mof_C 	C 	0.3908	0.1397	0.3845	0.087
Mof_H 	H 	0.3165	0.1097	0.3712	-0.037
Mof_C 	C 	0.7164	0.0942	0.4538	-0.138
Mof_C 	C 	0.7377	0.0934	0.5086	0.099
Mof_C 	C 	0.656	0.1295	0.5466	-0.088
Mof_H 	H 	0.5752	0.1565	0.5389	0.05
Mof_C 	C 	0.7148	0.118	0.5956	-0.076
Mof_H 	H 	0.6833	0.1365	0.6282	0.052
Mof_C 	C 	0.8338	0.0727	0.5891	0.079
Mof_C 	C 	0.9244	0.0468	0.6294	-0.079
Mof_C 	C 	0.0413	0.0027	0.6226	-0.005
Mof_C 	C 	0.1274	0.97	0.664	0
Mof_H 	H 	0.1167	0.9746	0.7009	0.034
Mof_C 	C 	0.226	0.9317	0.6412	-0.12
Mof_H 	H 	0.2977	0.9048	0.6592	0.071
Mof_C 	C 	0.7961	0.0614	0.4149	0.087
Mof_C 	C 	0.9001	0.0714	0.68511	0.09
Mof_C 	C 	0.7894	0.0464	0.7097	-0.154
Mof_H 	H 	0.7267	0.0118	0.6915	0.067
Mof_C 	C 	0.7721	0.0724	0.7608	0.071
Mof_H 	H 	0.6967	0.0538	0.7771	-0.023
Mof_N 	N 	0.8541	0.1219	0.78868	-0.231
Mof_C 	C 	0.9625	0.1443	0.7655	0.095
Mof_H 	H 	0.0246	0.1777	0.785	-0.037
Mof_C 	C 	0.9877	0.1206	0.7142	-0.125
Mof_H 	H 	0.0653	0.1383	0.6992	0.05
Mof_N 	N 	0.9106	0.0185	0.42477	-0.244
Mof_N 	N 	0.8443	0.0587	0.53592	-0.215
Mof_Sn	Sn	-0	0	-0	0.642
Mof_Sn	Sn	0.5	0.5	0.5	0.787
Mof_Sn	Sn	0.5	0.5	-0	0.743
Mof_Sn	Sn	4.85348e-33	6.05344e-33	0.5	0.694
_end
