# CIF file generated by openbabel 3.1.0, see https://openbabel.org
data_I
_chemical_name_common 'image0'
_cell_length_a 12.3052
_cell_length_b 11.8124
_cell_length_c 12.6877
_cell_angle_alpha 90
_cell_angle_beta 98.84
_cell_angle_gamma 90
_space_group_name_H-M_alt 'P 1'
_space_group_name_Hall 'P 1'
loop_
    _symmetry_equiv_pos_as_xyz
    x,y,z
loop_
    _atom_site_label
    _atom_site_type_symbol
    _atom_site_fract_x
    _atom_site_fract_y
    _atom_site_fract_z
    _atom_site_occupancy
    V1       V        0.30204    0.20165    0.11804    1.000
    V2       V        0.26394    0.49596    0.20821    1.000
    V3       V        0.82140    0.24426    0.16086    1.000
    P1       P        0.32471    0.20550    0.86475    1.000
    H1       H        0.43800    0.19200    0.87600    1.000
    P2       P        0.56927    0.16104    0.13350    1.000
    H2       H        0.55900    0.09400    0.03900    1.000
    P3       P        0.23295    0.75175    0.09974    1.000
    H3       H        0.33700    0.80000    0.10300    1.000
    P4       P        0.05904    0.33561    0.11260    1.000
    H4       H        0.01000    0.35200    0.00700    1.000
    O1       O        0.14070    0.24490    0.09560    1.000
    O2       O        0.32430    0.40480    0.14240    1.000
    O3       O        0.30200    0.25310    0.96810    1.000
    O4       O        0.46320    0.22250    0.14490    1.000
    O5       O        0.30380    0.29400    0.77770    1.000
    O6       O        0.25990    0.09720    0.83660    1.000
    O7       O        0.11000    0.44690    0.15540    1.000
    O8       O        0.59950    0.07410    0.22180    1.000
    O9       O        0.24330    0.62350    0.10520    1.000
    O10      O        0.16850    0.78490    0.99260    1.000
    O11      O        0.97800    0.29260    0.18370    1.000
    O12      O        0.16950    0.61240    0.30250    1.000
    O13      O        0.18060    0.80300    0.19080    1.000
    O14      O        0.65790    0.24960    0.12900    1.000
    V4       V        0.69796    0.70165    0.38196    1.000
    V5       V        0.73606    0.99596    0.29179    1.000
    V6       V        0.17860    0.74426    0.33914    1.000
    P5       P        0.67529    0.70550    0.63525    1.000
    H5       H        0.56200    0.69200    0.62400    1.000
    P6       P        0.43073    0.66104    0.36650    1.000
    H6       H        0.44100    0.59400    0.46100    1.000
    P7       P        0.76705    0.25175    0.40026    1.000
    H7       H        0.66300    0.30000    0.39700    1.000
    P8       P        0.94096    0.83561    0.38740    1.000
    H8       H        0.99000    0.85200    0.49300    1.000
    O15      O        0.85930    0.74490    0.40440    1.000
    O16      O        0.67570    0.90480    0.35760    1.000
    O17      O        0.69800    0.75310    0.53190    1.000
    O18      O        0.53680    0.72250    0.35510    1.000
    O19      O        0.69620    0.79400    0.72230    1.000
    O20      O        0.74010    0.59720    0.66340    1.000
    O21      O        0.89000    0.94690    0.34460    1.000
    O22      O        0.40050    0.57410    0.27820    1.000
    O23      O        0.75670    0.12350    0.39480    1.000
    O24      O        0.83150    0.28490    0.50740    1.000
    O25      O        0.02200    0.79260    0.31630    1.000
    O26      O        0.83050    0.11240    0.19750    1.000
    O27      O        0.81940    0.30300    0.30920    1.000
    O28      O        0.34210    0.74960    0.37100    1.000
    V7       V        0.69796    0.79835    0.88196    1.000
    V8       V        0.73606    0.50404    0.79179    1.000
    V9       V        0.17860    0.75574    0.83914    1.000
    P9       P        0.67529    0.79450    0.13525    1.000
    H9       H        0.56200    0.80800    0.12400    1.000
    P10      P        0.43073    0.83896    0.86650    1.000
    H10      H        0.44100    0.90600    0.96100    1.000
    P11      P        0.76705    0.24825    0.90026    1.000
    H11      H        0.66300    0.20000    0.89700    1.000
    P12      P        0.94096    0.66439    0.88740    1.000
    H12      H        0.99000    0.64800    0.99300    1.000
    O29      O        0.85930    0.75510    0.90440    1.000
    O30      O        0.67570    0.59520    0.85760    1.000
    O31      O        0.69800    0.74690    0.03190    1.000
    O32      O        0.53680    0.77750    0.85510    1.000
    O33      O        0.69620    0.70600    0.22230    1.000
    O34      O        0.74010    0.90280    0.16340    1.000
    O35      O        0.89000    0.55310    0.84460    1.000
    O36      O        0.40050    0.92590    0.77820    1.000
    O37      O        0.75670    0.37650    0.89480    1.000
    O38      O        0.83150    0.21510    0.00740    1.000
    O39      O        0.02200    0.70740    0.81630    1.000
    O40      O        0.83050    0.38760    0.69750    1.000
    O41      O        0.81940    0.19700    0.80920    1.000
    O42      O        0.34210    0.75040    0.87100    1.000
    V10      V        0.30204    0.29835    0.61804    1.000
    V11      V        0.26394    0.00404    0.70821    1.000
    V12      V        0.82140    0.25574    0.66086    1.000
    P13      P        0.32471    0.29450    0.36475    1.000
    H13      H        0.43800    0.30800    0.37600    1.000
    P14      P        0.56927    0.33896    0.63350    1.000
    H14      H        0.55900    0.40600    0.53900    1.000
    P15      P        0.23295    0.74825    0.59974    1.000
    H15      H        0.33700    0.70000    0.60300    1.000
    P16      P        0.05904    0.16439    0.61260    1.000
    H16      H        0.01000    0.14800    0.50700    1.000
    O43      O        0.14070    0.25510    0.59560    1.000
    O44      O        0.32430    0.09520    0.64240    1.000
    O45      O        0.30200    0.24690    0.46810    1.000
    O46      O        0.46320    0.27750    0.64490    1.000
    O47      O        0.30380    0.20600    0.27770    1.000
    O48      O        0.25990    0.40280    0.33660    1.000
    O49      O        0.11000    0.05310    0.65540    1.000
    O50      O        0.59950    0.42590    0.72180    1.000
    O51      O        0.24330    0.87650    0.60520    1.000
    O52      O        0.16850    0.71510    0.49260    1.000
    O53      O        0.97800    0.20740    0.68370    1.000
    O54      O        0.16950    0.88760    0.80250    1.000
    O55      O        0.18060    0.69700    0.69080    1.000
    O56      O        0.65790    0.25040    0.62900    1.000
