data_functionalizedCrystal
_audit_creation_method	'EQeq! by Chris Wilmer'
_symmetry_space_group_name_H-M	'P1'
_symmetry_Int_Tables_number	1
_symmetry_cell_setting	triclinic
loop_
_symmetry_equiv_pos_as_xyz
  x,y,z
_cell_length_a	6.8551
_cell_length_b	15.2317
_cell_length_c	15.2317
_cell_angle_alpha	62.2094
_cell_angle_beta	81.372
_cell_angle_gamma	98.628
loop_
_atom_site_label
_atom_site_type_symbol
_atom_site_fract_x
_atom_site_fract_y
_atom_site_fract_z
_atom_site_charge
Mof_Fe	Fe	0.88677	0.67935	0.58884	0.873
Mof_Fe	Fe	0.47561	0.58884	0.73181	0.873
Mof_Fe	Fe	0.20742	0.73181	0.67935	0.872
Mof_Fe	Fe	0.11323	0.32065	0.41116	0.873
Mof_Fe	Fe	0.52439	0.41116	0.26819	0.873
Mof_Fe	Fe	0.79258	0.26819	0.32065	0.872
Mof_H 	H 	0.6567	0.0196	0.5375	0.063
Mof_H 	H 	0.1942	0.5375	0.4429	0.063
Mof_H 	H 	0.6371	0.4429	0.0196	0.062
Mof_H 	H 	0.3433	0.9804	0.4625	0.062
Mof_H 	H 	0.8058	0.4625	0.5571	0.062
Mof_H 	H 	0.3629	0.5571	0.9804	0.062
Mof_C 	C 	0.65165	0.82609	0.61234	0.42
Mof_C 	C 	0.83409	0.9167	0.55403	-0.165
Mof_C 	C 	0.03285	0.89555	0.5402	0.192
Mof_C 	C 	0.80121	0.01021	0.51788	-0.056
Mof_C 	C 	0.26399	0.61234	0.56157	0.42
Mof_C 	C 	0.38812	0.55403	0.52927	-0.165
Mof_C 	C 	0.57305	0.5402	0.56425	0.192
Mof_C 	C 	0.31909	0.51788	0.47191	-0.056
Mof_C 	C 	0.82556	0.56157	0.82609	0.42
Mof_C 	C 	0.91739	0.52927	0.9167	-0.164
Mof_C 	C 	0.1373	0.56425	0.89555	0.191
Mof_C 	C 	0.791	0.47191	0.01021	-0.057
Mof_C 	C 	0.34835	0.17391	0.38766	0.42
Mof_C 	C 	0.16591	0.0833	0.44597	-0.165
Mof_C 	C 	0.96715	0.10445	0.4598	0.192
Mof_C 	C 	0.19879	0.98979	0.48212	-0.056
Mof_C 	C 	0.73601	0.38766	0.43843	0.42
Mof_C 	C 	0.61188	0.44597	0.47073	-0.165
Mof_C 	C 	0.42695	0.4598	0.43575	0.192
Mof_C 	C 	0.68091	0.48212	0.52809	-0.056
Mof_C 	C 	0.17444	0.43843	0.17391	0.42
Mof_C 	C 	0.08261	0.47073	0.0833	-0.164
Mof_C 	C 	0.8627	0.43575	0.10445	0.191
Mof_C 	C 	0.209	0.52809	0.98979	-0.057
Mof_O 	O 	0.67773	0.73653	0.64224	-0.469
Mof_O 	O 	0.482	0.8436	0.6249	-0.403
Mof_O 	O 	0.06542	0.79974	0.57648	-0.454
Mof_O 	O 	0.31997	0.64224	0.62123	-0.469
Mof_O 	O 	0.1069	0.6249	0.5315	-0.403
Mof_O 	O 	0.6419	0.57648	0.62378	-0.454
Mof_O 	O 	0.9412	0.62123	0.73653	-0.469
Mof_O 	O 	0.6384	0.5315	0.8436	-0.402
Mof_O 	O 	0.26568	0.62378	0.79974	-0.454
Mof_O 	O 	0.32227	0.26347	0.35776	-0.469
Mof_O 	O 	0.518	0.1564	0.3751	-0.403
Mof_O 	O 	0.93458	0.20026	0.42352	-0.454
Mof_O 	O 	0.68003	0.35776	0.37877	-0.469
Mof_O 	O 	0.8931	0.3751	0.4685	-0.403
Mof_O 	O 	0.3581	0.42352	0.37622	-0.454
Mof_O 	O 	0.0588	0.37877	0.26347	-0.469
Mof_O 	O 	0.3616	0.4685	0.1564	-0.402
Mof_O 	O 	0.73432	0.37622	0.20026	-0.454
_end
