data_functionalizedCrystal
_audit_creation_method	'EQeq! by Chris Wilmer'
_symmetry_space_group_name_H-M	'P1'
_symmetry_Int_Tables_number	1
_symmetry_cell_setting	triclinic
loop_
_symmetry_equiv_pos_as_xyz
  x,y,z
_cell_length_a	20.1049
_cell_length_b	12.7575
_cell_length_c	14.427
_cell_angle_alpha	90
_cell_angle_beta	90
_cell_angle_gamma	90
loop_
_atom_site_label
_atom_site_type_symbol
_atom_site_fract_x
_atom_site_fract_y
_atom_site_fract_z
_atom_site_charge
Mof_Zn	Zn	0.23262	0.70643	0.33937	1.177
Mof_Zn	Zn	0.26797	0.53213	0.17437	1.122
Mof_N 	N 	0.171	0.5686	0.1569	-0.325
Mof_N 	N 	0.2751	0.4886	0.3075	-0.293
Mof_N 	N 	0.1837	0.169	0.8262	-0.296
Mof_N 	N 	0.0699	0.5655	0.0834	-0.253
Mof_O 	O 	0.0474	0.3692	0.9619	-0.5
Mof_C 	C 	0.0702	0.6404	0.1545	-0.05
Mof_N 	N 	0.2554	0.5594	0.3739	-0.272
Mof_N 	N 	0.1989	0.2377	0.7579	-0.277
Mof_O 	O 	0.266	0.3455	0.5932	-0.458
Mof_O 	O 	0.305	0.2335	0.4929	-0.362
Mof_C 	C 	0.1397	0.2137	0.8826	0.091
Mof_H 	H 	0.1213	0.1823	0.9348	-0.053
Mof_C 	C 	0.257	0.5086	0.4559	0.101
Mof_H 	H 	0.2461	0.5383	0.5128	-0.003
Mof_C 	C 	0.2772	0.4069	0.4433	-0.184
Mof_C 	C 	0.1298	0.6395	0.1979	0.098
Mof_C 	C 	0.1649	0.3234	0.7741	0.109
Mof_H 	H 	0.1674	0.3832	0.7374	-0.017
Mof_C 	C 	0.0812	0.3966	0.8917	0.409
Mof_N 	N 	0.1443	0.7007	0.2723	-0.307
Mof_C 	C 	0.1329	0.5248	0.0902	0.059
Mof_H 	H 	0.1482	0.4714	0.0519	-0.056
Mof_N 	N 	0.9621	0.7258	0.1388	-0.29
Mof_H 	H 	0.935	0.7741	0.1561	0.15
Mof_H 	H 	0.9522	0.6862	0.0925	0.147
Mof_C 	C 	0.1253	0.3151	0.8513	-0.196
Mof_C 	C 	0.0944	0.763	0.2962	0.094
Mof_H 	H 	0.1015	0.8048	0.3481	-0.019
Mof_O 	O 	0.0796	0.4816	0.8626	-0.404
Mof_C 	C 	0.2866	0.3997	0.3508	0.113
Mof_H 	H 	0.2997	0.3385	0.3209	-0.045
Mof_C 	C 	0.021	0.712	0.1847	0.101
Mof_N 	N 	0.035	0.7733	0.255	-0.159
Mof_C 	C 	0.2836	0.3251	0.5107	0.347
Mof_Zn	Zn	0.76738	0.29357	0.33937	1.176
Mof_Zn	Zn	0.73203	0.46787	0.17437	1.123
Mof_N 	N 	0.829	0.4314	0.1569	-0.325
Mof_N 	N 	0.7249	0.5114	0.3075	-0.291
Mof_N 	N 	0.8163	0.831	0.8262	-0.283
Mof_N 	N 	0.9301	0.4345	0.0834	-0.233
Mof_O 	O 	0.9526	0.6308	0.9619	-0.461
Mof_C 	C 	0.9298	0.3596	0.1545	-0.056
Mof_N 	N 	0.7446	0.4406	0.3739	-0.27
Mof_N 	N 	0.8011	0.7623	0.7579	-0.27
Mof_O 	O 	0.734	0.6545	0.5932	-0.453
Mof_O 	O 	0.695	0.7665	0.4929	-0.349
Mof_C 	C 	0.8603	0.7863	0.8826	0.094
Mof_H 	H 	0.8787	0.8177	0.9348	-0.032
Mof_C 	C 	0.743	0.4914	0.4559	0.102
Mof_H 	H 	0.7539	0.4617	0.5128	0
Mof_C 	C 	0.7228	0.5931	0.4433	-0.176
Mof_C 	C 	0.8702	0.3605	0.1979	0.106
Mof_C 	C 	0.8351	0.6766	0.7741	0.11
Mof_H 	H 	0.8326	0.6168	0.7374	-0.008
Mof_C 	C 	0.9188	0.6034	0.8917	0.403
Mof_N 	N 	0.8557	0.2993	0.2723	-0.308
Mof_C 	C 	0.8671	0.4752	0.0902	0.064
Mof_H 	H 	0.8518	0.5286	0.0519	-0.054
Mof_N 	N 	0.0379	0.2742	0.1388	-0.338
Mof_H 	H 	0.065	0.2259	0.1561	0.129
Mof_H 	H 	0.0478	0.3138	0.0925	0.137
Mof_C 	C 	0.8747	0.6849	0.8513	-0.177
Mof_C 	C 	0.9056	0.237	0.2962	0.1
Mof_H 	H 	0.8985	0.1952	0.3481	-0.018
Mof_O 	O 	0.9204	0.5184	0.8626	-0.373
Mof_C 	C 	0.7134	0.6003	0.3508	0.113
Mof_H 	H 	0.7003	0.6615	0.3209	-0.036
Mof_C 	C 	0.979	0.288	0.1847	0.175
Mof_N 	N 	0.965	0.2267	0.255	-0.159
Mof_C 	C 	0.7164	0.6749	0.5107	0.347
Mof_Zn	Zn	0.26738	0.20643	0.66063	1.174
Mof_Zn	Zn	0.23203	0.03213	0.82563	1.111
Mof_N 	N 	0.329	0.0686	0.8431	-0.321
Mof_N 	N 	0.2249	0.9886	0.6925	-0.268
Mof_N 	N 	0.3163	0.669	0.1738	-0.29
Mof_N 	N 	0.4301	0.0655	0.9166	-0.242
Mof_O 	O 	0.4526	0.8692	0.0381	-0.471
Mof_C 	C 	0.4298	0.1404	0.8455	-0.054
Mof_N 	N 	0.2446	0.0594	0.6261	-0.277
Mof_N 	N 	0.3011	0.7377	0.2421	-0.272
Mof_O 	O 	0.234	0.8455	0.4068	-0.443
Mof_O 	O 	0.195	0.7335	0.5071	-0.353
Mof_C 	C 	0.3603	0.7137	0.1174	0.091
Mof_H 	H 	0.3787	0.6823	0.0652	-0.041
Mof_C 	C 	0.243	0.0086	0.5441	0.032
Mof_H 	H 	0.2539	0.0383	0.4872	0.009
Mof_C 	C 	0.2228	0.9069	0.5567	-0.119
Mof_C 	C 	0.3702	0.1395	0.8021	0.099
Mof_C 	C 	0.3351	0.8234	0.2259	0.108
Mof_H 	H 	0.3326	0.8832	0.2626	-0.006
Mof_C 	C 	0.4188	0.8966	0.1083	0.401
Mof_N 	N 	0.3557	0.2007	0.7277	-0.309
Mof_C 	C 	0.3671	0.0248	0.9098	-0.006
Mof_H 	H 	0.3518	0.9714	0.9481	-0.01
Mof_N 	N 	0.5379	0.2258	0.8612	-0.313
Mof_H 	H 	0.565	0.2741	0.8439	0.138
Mof_H 	H 	0.5478	0.1862	0.9075	0.139
Mof_C 	C 	0.3747	0.8151	0.1487	-0.179
Mof_C 	C 	0.4056	0.263	0.7038	0.095
Mof_H 	H 	0.3985	0.3048	0.6519	-0.019
Mof_O 	O 	0.4204	0.9816	0.1374	-0.368
Mof_C 	C 	0.2134	0.8997	0.6492	0.092
Mof_H 	H 	0.2003	0.8385	0.6791	-0.032
Mof_C 	C 	0.479	0.212	0.8153	0.133
Mof_N 	N 	0.465	0.2733	0.745	-0.159
Mof_C 	C 	0.2164	0.8251	0.4893	0.326
Mof_Zn	Zn	0.73262	0.79357	0.66063	1.178
Mof_Zn	Zn	0.76797	0.96787	0.82563	1.132
Mof_N 	N 	0.671	0.9314	0.8431	-0.33
Mof_N 	N 	0.7751	0.0114	0.6925	-0.317
Mof_N 	N 	0.6837	0.331	0.1738	-0.291
Mof_N 	N 	0.5699	0.9345	0.9166	-0.244
Mof_O 	O 	0.5474	0.1308	0.0381	-0.493
Mof_C 	C 	0.5702	0.8596	0.8455	-0.051
Mof_N 	N 	0.7554	0.9406	0.6261	-0.265
Mof_N 	N 	0.6989	0.2623	0.2421	-0.275
Mof_O 	O 	0.766	0.1545	0.4068	-0.467
Mof_O 	O 	0.805	0.2665	0.5071	-0.357
Mof_C 	C 	0.6397	0.2863	0.1174	0.094
Mof_H 	H 	0.6213	0.3177	0.0652	-0.044
Mof_C 	C 	0.757	0.9914	0.5441	0.167
Mof_H 	H 	0.7461	0.9617	0.4872	-0.011
Mof_C 	C 	0.7772	0.0931	0.5567	-0.236
Mof_C 	C 	0.6298	0.8605	0.8021	0.105
Mof_C 	C 	0.6649	0.1766	0.2259	0.111
Mof_H 	H 	0.6674	0.1168	0.2626	-0.019
Mof_C 	C 	0.5812	0.1034	0.1083	0.411
Mof_N 	N 	0.6443	0.7993	0.7277	-0.306
Mof_C 	C 	0.6329	0.9752	0.9098	0.127
Mof_H 	H 	0.6482	0.0286	0.9481	-0.098
Mof_N 	N 	0.4621	0.7742	0.8612	-0.314
Mof_H 	H 	0.435	0.7259	0.8439	0.141
Mof_H 	H 	0.4522	0.8138	0.9075	0.146
Mof_C 	C 	0.6253	0.1849	0.1487	-0.193
Mof_C 	C 	0.5944	0.737	0.7038	0.099
Mof_H 	H 	0.6015	0.6952	0.6519	-0.018
Mof_O 	O 	0.5796	0.0184	0.1374	-0.41
Mof_C 	C 	0.7866	0.1003	0.6492	0.132
Mof_H 	H 	0.7997	0.1615	0.6791	-0.047
Mof_C 	C 	0.521	0.788	0.8153	0.142
Mof_N 	N 	0.535	0.7267	0.745	-0.158
Mof_C 	C 	0.7836	0.1749	0.4893	0.366
Mof_Zn	Zn	-4.13663e-33	0.5	0.99806	1.193
Mof_Zn	Zn	0.5	0	0.00194	1.196
_end
