# CIF file generated by openbabel 3.1.0, see https://openbabel.org
data_I
_chemical_name_common 'LACGAZ_clean'
_cell_length_a 10.143
_cell_length_b 12.709
_cell_length_c 16.795
_cell_angle_alpha 90
_cell_angle_beta 107.036
_cell_angle_gamma 90
_space_group_name_H-M_alt 'P 1'
_space_group_name_Hall 'P 1'
loop_
    _symmetry_equiv_pos_as_xyz
    x,y,z
loop_
    _atom_site_label
    _atom_site_type_symbol
    _atom_site_fract_x
    _atom_site_fract_y
    _atom_site_fract_z
    _atom_site_occupancy
    Ca1      Ca       0.93138    0.23201    0.71281    1.000
    Ca2      Ca       0.06862    0.73201    0.78719    1.000
    Ca3      Ca       0.06862    0.76799    0.28719    1.000
    Ca4      Ca       0.93138    0.26799    0.21281    1.000
    H1       H        0.26910    0.32520    0.78110    1.000
    H2       H        0.45780    0.41550    0.76660    1.000
    H3       H        0.66640    0.32730    0.78560    1.000
    H4       H        0.49830    0.06400    0.84360    1.000
    H5       H        0.80380    0.64150    0.85830    1.000
    H6       H        0.74570    0.47820    0.89900    1.000
    H7       H        0.80560    0.43450    0.03800    1.000
    H8       H        0.98020    0.71670    0.09790    1.000
    H9       H        0.73090    0.82520    0.71890    1.000
    H10      H        0.54220    0.91550    0.73340    1.000
    H11      H        0.33360    0.82730    0.71440    1.000
    H12      H        0.50170    0.56400    0.65640    1.000
    H13      H        0.19620    0.14150    0.64170    1.000
    H14      H        0.25430    0.97820    0.60100    1.000
    H15      H        0.19440    0.93450    0.46200    1.000
    H16      H        0.01980    0.21670    0.40210    1.000
    H17      H        0.73090    0.67480    0.21890    1.000
    H18      H        0.54220    0.58450    0.23340    1.000
    H19      H        0.33360    0.67270    0.21440    1.000
    H20      H        0.50170    0.93600    0.15640    1.000
    H21      H        0.19620    0.35850    0.14170    1.000
    H22      H        0.25430    0.52180    0.10100    1.000
    H23      H        0.19440    0.56550    0.96200    1.000
    H24      H        0.01980    0.28330    0.90210    1.000
    H25      H        0.26910    0.17480    0.28110    1.000
    H26      H        0.45780    0.08450    0.26660    1.000
    H27      H        0.66640    0.17270    0.28560    1.000
    H28      H        0.49830    0.43600    0.34360    1.000
    H29      H        0.80380    0.85850    0.35830    1.000
    H30      H        0.74570    0.02180    0.39900    1.000
    H31      H        0.80560    0.06550    0.53800    1.000
    H32      H        0.98020    0.78330    0.59790    1.000
    C1       C        0.24680    0.12910    0.83410    1.000
    C2       C        0.73490    0.12890    0.82760    1.000
    C3       C        0.36650    0.18670    0.81760    1.000
    C4       C        0.35370    0.29130    0.79160    1.000
    C5       C        0.46540    0.34480    0.78130    1.000
    C6       C        0.59090    0.29170    0.79310    1.000
    C7       C        0.60320    0.18770    0.81560    1.000
    C8       C        0.49030    0.13450    0.82820    1.000
    C9       C        0.94320    0.80080    0.94740    1.000
    C10      C        0.94510    0.53930    0.17300    1.000
    C11      C        0.89970    0.69480    0.97320    1.000
    C12      C        0.82860    0.62390    0.91450    1.000
    C13      C        0.79370    0.52610    0.93880    1.000
    C14      C        0.83000    0.50000    0.02190    1.000
    C15      C        0.90240    0.57010    0.08180    1.000
    C16      C        0.93490    0.66810    0.05780    1.000
    C17      C        0.75320    0.62910    0.66590    1.000
    C18      C        0.26510    0.62890    0.67240    1.000
    C19      C        0.63350    0.68670    0.68240    1.000
    C20      C        0.64630    0.79130    0.70840    1.000
    C21      C        0.53460    0.84480    0.71870    1.000
    C22      C        0.40910    0.79170    0.70690    1.000
    C23      C        0.39680    0.68770    0.68440    1.000
    C24      C        0.50970    0.63450    0.67180    1.000
    C25      C        0.05680    0.30080    0.55260    1.000
    C26      C        0.05490    0.03930    0.32700    1.000
    C27      C        0.10030    0.19480    0.52680    1.000
    C28      C        0.17140    0.12390    0.58550    1.000
    C29      C        0.20630    0.02610    0.56120    1.000
    C30      C        0.17000    0.00000    0.47810    1.000
    C31      C        0.09760    0.07010    0.41820    1.000
    C32      C        0.06510    0.16810    0.44220    1.000
    C33      C        0.75320    0.87090    0.16590    1.000
    C34      C        0.26510    0.87110    0.17240    1.000
    C35      C        0.63350    0.81330    0.18240    1.000
    C36      C        0.64630    0.70870    0.20840    1.000
    C37      C        0.53460    0.65520    0.21870    1.000
    C38      C        0.40910    0.70830    0.20690    1.000
    C39      C        0.39680    0.81230    0.18440    1.000
    C40      C        0.50970    0.86550    0.17180    1.000
    C41      C        0.05680    0.19920    0.05260    1.000
    C42      C        0.05490    0.46070    0.82700    1.000
    C43      C        0.10030    0.30520    0.02680    1.000
    C44      C        0.17140    0.37610    0.08550    1.000
    C45      C        0.20630    0.47390    0.06120    1.000
    C46      C        0.17000    0.50000    0.97810    1.000
    C47      C        0.09760    0.42990    0.91820    1.000
    C48      C        0.06510    0.33190    0.94220    1.000
    C49      C        0.24680    0.37090    0.33410    1.000
    C50      C        0.73490    0.37110    0.32760    1.000
    C51      C        0.36650    0.31330    0.31760    1.000
    C52      C        0.35370    0.20870    0.29160    1.000
    C53      C        0.46540    0.15520    0.28130    1.000
    C54      C        0.59090    0.20830    0.29310    1.000
    C55      C        0.60320    0.31230    0.31560    1.000
    C56      C        0.49030    0.36550    0.32820    1.000
    C57      C        0.94320    0.69920    0.44740    1.000
    C58      C        0.94510    0.96070    0.67300    1.000
    C59      C        0.89970    0.80520    0.47320    1.000
    C60      C        0.82860    0.87610    0.41450    1.000
    C61      C        0.79370    0.97390    0.43880    1.000
    C62      C        0.83000    0.00000    0.52190    1.000
    C63      C        0.90240    0.92990    0.58180    1.000
    C64      C        0.93490    0.83190    0.55780    1.000
    O1       O        0.26930    0.04550    0.87350    1.000
    O2       O        0.12930    0.16990    0.80920    1.000
    O3       O        0.74490    0.03510    0.84940    1.000
    O4       O        0.83640    0.17920    0.81520    1.000
    O5       O        0.95650    0.80430    0.87490    1.000
    O6       O        0.96510    0.87590    0.99630    1.000
    O7       O        0.91230    0.44930    0.19080    1.000
    O8       O        0.01180    0.60350    0.22690    1.000
    O9       O        0.73070    0.54550    0.62650    1.000
    O10      O        0.87070    0.66990    0.69080    1.000
    O11      O        0.25510    0.53510    0.65060    1.000
    O12      O        0.16360    0.67920    0.68480    1.000
    O13      O        0.04350    0.30430    0.62510    1.000
    O14      O        0.03490    0.37590    0.50370    1.000
    O15      O        0.08770    0.94930    0.30920    1.000
    O16      O        0.98820    0.10350    0.27310    1.000
    O17      O        0.73070    0.95450    0.12650    1.000
    O18      O        0.87070    0.83010    0.19080    1.000
    O19      O        0.25510    0.96490    0.15060    1.000
    O20      O        0.16360    0.82080    0.18480    1.000
    O21      O        0.04350    0.19570    0.12510    1.000
    O22      O        0.03490    0.12410    0.00370    1.000
    O23      O        0.08770    0.55070    0.80920    1.000
    O24      O        0.98820    0.39650    0.77310    1.000
    O25      O        0.26930    0.45450    0.37350    1.000
    O26      O        0.12930    0.33010    0.30920    1.000
    O27      O        0.74490    0.46490    0.34940    1.000
    O28      O        0.83640    0.32080    0.31520    1.000
    O29      O        0.95650    0.69570    0.37490    1.000
    O30      O        0.96510    0.62410    0.49630    1.000
    O31      O        0.91230    0.05070    0.69080    1.000
    O32      O        0.01180    0.89650    0.72690    1.000
