# CIF file generated by openbabel 3.1.0, see https://openbabel.org
data_I
_chemical_name_common 'image0'
_cell_length_a 24.7168
_cell_length_b 13.0121
_cell_length_c 14.9778
_cell_angle_alpha 90
_cell_angle_beta 96.682
_cell_angle_gamma 90
_space_group_name_H-M_alt 'P 1'
_space_group_name_Hall 'P 1'
loop_
    _symmetry_equiv_pos_as_xyz
    x,y,z
loop_
    _atom_site_label
    _atom_site_type_symbol
    _atom_site_fract_x
    _atom_site_fract_y
    _atom_site_fract_z
    _atom_site_occupancy
    Pr1      Pr       0.32881    0.79544    0.03267    1.000
    O1       O        0.30531    0.73840    0.87840    1.000
    O2       O        0.22721    0.65310    0.84960    1.000
    O3       O        0.20146    0.44910    0.56110    1.000
    O4       O        0.27373    0.35820    0.53820    1.000
    O5       O        0.59904    0.66710    0.50180    1.000
    O6       O        0.58532    0.82650    0.54130    1.000
    C1       C        0.27477    0.67620    0.83470    1.000
    C2       C        0.29652    0.62580    0.75500    1.000
    C3       C        0.26524    0.55770    0.70100    1.000
    H1       H        0.22950    0.54510    0.71140    1.000
    C4       C        0.28644    0.50780    0.63150    1.000
    C5       C        0.25179    0.43380    0.57430    1.000
    C6       C        0.33963    0.52870    0.61430    1.000
    H2       H        0.35440    0.49340    0.56890    1.000
    C7       C        0.37055    0.60170    0.66440    1.000
    C8       C        0.34844    0.64920    0.73640    1.000
    H3       H        0.36910    0.69690    0.77190    1.000
    C9       C        0.42481    0.63410    0.64020    1.000
    C10      C        0.45960    0.56440    0.60700    1.000
    H4       H        0.45040    0.49510    0.60420    1.000
    C11      C        0.50810    0.59620    0.57800    1.000
    H5       H        0.53120    0.54800    0.55670    1.000
    C12      C        0.52240    0.69850    0.58030    1.000
    C13      C        0.57224    0.73290    0.53940    1.000
    C14      C        0.48900    0.76780    0.61580    1.000
    H6       H        0.49900    0.83670    0.62000    1.000
    C15      C        0.44060    0.73650    0.64550    1.000
    H7       H        0.41840    0.78460    0.66910    1.000
    Pr2      Pr       0.82881    0.29544    0.03267    1.000
    O7       O        0.80531    0.23840    0.87840    1.000
    O8       O        0.72721    0.15310    0.84960    1.000
    O9       O        0.70146    0.94910    0.56110    1.000
    O10      O        0.77373    0.85820    0.53820    1.000
    O11      O        0.09904    0.16710    0.50180    1.000
    O12      O        0.08532    0.32650    0.54130    1.000
    C16      C        0.77477    0.17620    0.83470    1.000
    C17      C        0.79652    0.12580    0.75500    1.000
    C18      C        0.76524    0.05770    0.70100    1.000
    H8       H        0.72950    0.04510    0.71140    1.000
    C19      C        0.78644    0.00780    0.63150    1.000
    C20      C        0.75179    0.93380    0.57430    1.000
    C21      C        0.83963    0.02870    0.61430    1.000
    H9       H        0.85440    0.99340    0.56890    1.000
    C22      C        0.87055    0.10170    0.66440    1.000
    C23      C        0.84844    0.14920    0.73640    1.000
    H10      H        0.86910    0.19690    0.77190    1.000
    C24      C        0.92481    0.13410    0.64020    1.000
    C25      C        0.95960    0.06440    0.60700    1.000
    H11      H        0.95040    0.99510    0.60420    1.000
    C26      C        0.00810    0.09620    0.57800    1.000
    H12      H        0.03120    0.04800    0.55670    1.000
    C27      C        0.02240    0.19850    0.58030    1.000
    C28      C        0.07224    0.23290    0.53940    1.000
    C29      C        0.98900    0.26780    0.61580    1.000
    H13      H        0.99900    0.33670    0.62000    1.000
    C30      C        0.94060    0.23650    0.64550    1.000
    H14      H        0.91840    0.28460    0.66910    1.000
    Pr3      Pr       0.67119    0.79544    0.46733    1.000
    O13      O        0.69469    0.73840    0.62160    1.000
    O14      O        0.77279    0.65310    0.65040    1.000
    O15      O        0.79854    0.44910    0.93890    1.000
    O16      O        0.72627    0.35820    0.96180    1.000
    O17      O        0.40096    0.66710    0.99820    1.000
    O18      O        0.41468    0.82650    0.95870    1.000
    C31      C        0.72523    0.67620    0.66530    1.000
    C32      C        0.70348    0.62580    0.74500    1.000
    C33      C        0.73476    0.55770    0.79900    1.000
    H15      H        0.77050    0.54510    0.78860    1.000
    C34      C        0.71356    0.50780    0.86850    1.000
    C35      C        0.74821    0.43380    0.92570    1.000
    C36      C        0.66037    0.52870    0.88570    1.000
    H16      H        0.64560    0.49340    0.93110    1.000
    C37      C        0.62945    0.60170    0.83560    1.000
    C38      C        0.65156    0.64920    0.76360    1.000
    H17      H        0.63090    0.69690    0.72810    1.000
    C39      C        0.57519    0.63410    0.85980    1.000
    C40      C        0.54040    0.56440    0.89300    1.000
    H18      H        0.54960    0.49510    0.89580    1.000
    C41      C        0.49190    0.59620    0.92200    1.000
    H19      H        0.46880    0.54800    0.94330    1.000
    C42      C        0.47760    0.69850    0.91970    1.000
    C43      C        0.42776    0.73290    0.96060    1.000
    C44      C        0.51100    0.76780    0.88420    1.000
    H20      H        0.50100    0.83670    0.88000    1.000
    C45      C        0.55940    0.73650    0.85450    1.000
    H21      H        0.58160    0.78460    0.83090    1.000
    Pr4      Pr       0.17119    0.29544    0.46733    1.000
    O19      O        0.19469    0.23840    0.62160    1.000
    O20      O        0.27279    0.15310    0.65040    1.000
    O21      O        0.29854    0.94910    0.93890    1.000
    O22      O        0.22627    0.85820    0.96180    1.000
    O23      O        0.90096    0.16710    0.99820    1.000
    O24      O        0.91468    0.32650    0.95870    1.000
    C46      C        0.22523    0.17620    0.66530    1.000
    C47      C        0.20348    0.12580    0.74500    1.000
    C48      C        0.23476    0.05770    0.79900    1.000
    H22      H        0.27050    0.04510    0.78860    1.000
    C49      C        0.21356    0.00780    0.86850    1.000
    C50      C        0.24821    0.93380    0.92570    1.000
    C51      C        0.16037    0.02870    0.88570    1.000
    H23      H        0.14560    0.99340    0.93110    1.000
    C52      C        0.12945    0.10170    0.83560    1.000
    C53      C        0.15156    0.14920    0.76360    1.000
    H24      H        0.13090    0.19690    0.72810    1.000
    C54      C        0.07519    0.13410    0.85980    1.000
    C55      C        0.04040    0.06440    0.89300    1.000
    H25      H        0.04960    0.99510    0.89580    1.000
    C56      C        0.99190    0.09620    0.92200    1.000
    H26      H        0.96880    0.04800    0.94330    1.000
    C57      C        0.97760    0.19850    0.91970    1.000
    C58      C        0.92776    0.23290    0.96060    1.000
    C59      C        0.01100    0.26780    0.88420    1.000
    H27      H        0.00100    0.33670    0.88000    1.000
    C60      C        0.05940    0.23650    0.85450    1.000
    H28      H        0.08160    0.28460    0.83090    1.000
    Pr5      Pr       0.67119    0.20456    0.96733    1.000
    O25      O        0.69469    0.26160    0.12160    1.000
    O26      O        0.77279    0.34690    0.15040    1.000
    O27      O        0.79854    0.55090    0.43890    1.000
    O28      O        0.72627    0.64180    0.46180    1.000
    O29      O        0.40096    0.33290    0.49820    1.000
    O30      O        0.41468    0.17350    0.45870    1.000
    C61      C        0.72523    0.32380    0.16530    1.000
    C62      C        0.70348    0.37420    0.24500    1.000
    C63      C        0.73476    0.44230    0.29900    1.000
    H29      H        0.77050    0.45490    0.28860    1.000
    C64      C        0.71356    0.49220    0.36850    1.000
    C65      C        0.74821    0.56620    0.42570    1.000
    C66      C        0.66037    0.47130    0.38570    1.000
    H30      H        0.64560    0.50660    0.43110    1.000
    C67      C        0.62945    0.39830    0.33560    1.000
    C68      C        0.65156    0.35080    0.26360    1.000
    H31      H        0.63090    0.30310    0.22810    1.000
    C69      C        0.57519    0.36590    0.35980    1.000
    C70      C        0.54040    0.43560    0.39300    1.000
    H32      H        0.54960    0.50490    0.39580    1.000
    C71      C        0.49190    0.40380    0.42200    1.000
    H33      H        0.46880    0.45200    0.44330    1.000
    C72      C        0.47760    0.30150    0.41970    1.000
    C73      C        0.42776    0.26710    0.46060    1.000
    C74      C        0.51100    0.23220    0.38420    1.000
    H34      H        0.50100    0.16330    0.38000    1.000
    C75      C        0.55940    0.26350    0.35450    1.000
    H35      H        0.58160    0.21540    0.33090    1.000
    Pr6      Pr       0.17119    0.70456    0.96733    1.000
    O31      O        0.19469    0.76160    0.12160    1.000
    O32      O        0.27279    0.84690    0.15040    1.000
    O33      O        0.29854    0.05090    0.43890    1.000
    O34      O        0.22627    0.14180    0.46180    1.000
    O35      O        0.90096    0.83290    0.49820    1.000
    O36      O        0.91468    0.67350    0.45870    1.000
    C76      C        0.22523    0.82380    0.16530    1.000
    C77      C        0.20348    0.87420    0.24500    1.000
    C78      C        0.23476    0.94230    0.29900    1.000
    H36      H        0.27050    0.95490    0.28860    1.000
    C79      C        0.21356    0.99220    0.36850    1.000
    C80      C        0.24821    0.06620    0.42570    1.000
    C81      C        0.16037    0.97130    0.38570    1.000
    H37      H        0.14560    0.00660    0.43110    1.000
    C82      C        0.12945    0.89830    0.33560    1.000
    C83      C        0.15156    0.85080    0.26360    1.000
    H38      H        0.13090    0.80310    0.22810    1.000
    C84      C        0.07519    0.86590    0.35980    1.000
    C85      C        0.04040    0.93560    0.39300    1.000
    H39      H        0.04960    0.00490    0.39580    1.000
    C86      C        0.99190    0.90380    0.42200    1.000
    H40      H        0.96880    0.95200    0.44330    1.000
    C87      C        0.97760    0.80150    0.41970    1.000
    C88      C        0.92776    0.76710    0.46060    1.000
    C89      C        0.01100    0.73220    0.38420    1.000
    H41      H        0.00100    0.66330    0.38000    1.000
    C90      C        0.05940    0.76350    0.35450    1.000
    H42      H        0.08160    0.71540    0.33090    1.000
    Pr7      Pr       0.32881    0.20456    0.53267    1.000
    O37      O        0.30531    0.26160    0.37840    1.000
    O38      O        0.22721    0.34690    0.34960    1.000
    O39      O        0.20146    0.55090    0.06110    1.000
    O40      O        0.27373    0.64180    0.03820    1.000
    O41      O        0.59904    0.33290    0.00180    1.000
    O42      O        0.58532    0.17350    0.04130    1.000
    C91      C        0.27477    0.32380    0.33470    1.000
    C92      C        0.29652    0.37420    0.25500    1.000
    C93      C        0.26524    0.44230    0.20100    1.000
    H43      H        0.22950    0.45490    0.21140    1.000
    C94      C        0.28644    0.49220    0.13150    1.000
    C95      C        0.25179    0.56620    0.07430    1.000
    C96      C        0.33963    0.47130    0.11430    1.000
    H44      H        0.35440    0.50660    0.06890    1.000
    C97      C        0.37055    0.39830    0.16440    1.000
    C98      C        0.34844    0.35080    0.23640    1.000
    H45      H        0.36910    0.30310    0.27190    1.000
    C99      C        0.42481    0.36590    0.14020    1.000
    C100     C        0.45960    0.43560    0.10700    1.000
    H46      H        0.45040    0.50490    0.10420    1.000
    C101     C        0.50810    0.40380    0.07800    1.000
    H47      H        0.53120    0.45200    0.05670    1.000
    C102     C        0.52240    0.30150    0.08030    1.000
    C103     C        0.57224    0.26710    0.03940    1.000
    C104     C        0.48900    0.23220    0.11580    1.000
    H48      H        0.49900    0.16330    0.12000    1.000
    C105     C        0.44060    0.26350    0.14550    1.000
    H49      H        0.41840    0.21540    0.16910    1.000
    Pr8      Pr       0.82881    0.70456    0.53267    1.000
    O43      O        0.80531    0.76160    0.37840    1.000
    O44      O        0.72721    0.84690    0.34960    1.000
    O45      O        0.70146    0.05090    0.06110    1.000
    O46      O        0.77373    0.14180    0.03820    1.000
    O47      O        0.09904    0.83290    0.00180    1.000
    O48      O        0.08532    0.67350    0.04130    1.000
    C106     C        0.77477    0.82380    0.33470    1.000
    C107     C        0.79652    0.87420    0.25500    1.000
    C108     C        0.76524    0.94230    0.20100    1.000
    H50      H        0.72950    0.95490    0.21140    1.000
    C109     C        0.78644    0.99220    0.13150    1.000
    C110     C        0.75179    0.06620    0.07430    1.000
    C111     C        0.83963    0.97130    0.11430    1.000
    H51      H        0.85440    0.00660    0.06890    1.000
    C112     C        0.87055    0.89830    0.16440    1.000
    C113     C        0.84844    0.85080    0.23640    1.000
    H52      H        0.86910    0.80310    0.27190    1.000
    C114     C        0.92481    0.86590    0.14020    1.000
    C115     C        0.95960    0.93560    0.10700    1.000
    H53      H        0.95040    0.00490    0.10420    1.000
    C116     C        0.00810    0.90380    0.07800    1.000
    H54      H        0.03120    0.95200    0.05670    1.000
    C117     C        0.02240    0.80150    0.08030    1.000
    C118     C        0.07224    0.76710    0.03940    1.000
    C119     C        0.98900    0.73220    0.11580    1.000
    H55      H        0.99900    0.66330    0.12000    1.000
    C120     C        0.94060    0.76350    0.14550    1.000
    H56      H        0.91840    0.71540    0.16910    1.000
