# CIF file generated by openbabel 3.1.0, see https://openbabel.org
data_I
_chemical_name_common 'image0'
_cell_length_a 15.6729
_cell_length_b 23.599
_cell_length_c 18.2174
_cell_angle_alpha 90
_cell_angle_beta 105.446
_cell_angle_gamma 90
_space_group_name_H-M_alt 'P 1'
_space_group_name_Hall 'P 1'
loop_
    _symmetry_equiv_pos_as_xyz
    x,y,z
loop_
    _atom_site_label
    _atom_site_type_symbol
    _atom_site_fract_x
    _atom_site_fract_y
    _atom_site_fract_z
    _atom_site_occupancy
    In1      In       0.29002    0.51379    0.86563    1.000
    In2      In       0.19078    0.53038    0.65546    1.000
    O1       O        0.42870    0.51523    0.88810    1.000
    H1       H        0.45670    0.52230    0.84990    1.000
    O2       O        0.27440    0.49181    0.75143    1.000
    H2       H        0.30830    0.46160    0.74240    1.000
    O3       O        0.09040    0.55866    0.56365    1.000
    H3       H        0.08570    0.59690    0.55090    1.000
    O4       O        0.28650    0.54365    0.97610    1.000
    O5       O        0.42590    0.56429    0.04010    1.000
    O6       O        0.28140    0.89653    0.33910    1.000
    O7       O        0.17990    0.89870    0.22700    1.000
    O8       O        0.00990    0.54520    0.40070    1.000
    O9       O        0.91660    0.50525    0.30020    1.000
    O10      O        0.20510    0.45299    0.59730    1.000
    O11      O        0.10730    0.44578    0.48500    1.000
    O12      O        0.77930    0.38710    0.48230    1.000
    O13      O        0.70450    0.42910    0.37720    1.000
    O14      O        0.40810    0.06698    0.50830    1.000
    O15      O        0.29690    0.07435    0.40230    1.000
    C1       C        0.34290    0.56790    0.02860    1.000
    C2       C        0.31170    0.60320    0.08290    1.000
    H4       H        0.35290    0.62490    0.11790    1.000
    C3       C        0.22820    0.60550    0.08420    1.000
    H5       H        0.18620    0.58730    0.04550    1.000
    C4       C        0.19780    0.63560    0.14430    1.000
    C5       C        0.20180    0.69440    0.15210    1.000
    C6       C        0.18040    0.71970    0.21480    1.000
    C7       C        0.14970    0.68690    0.26610    1.000
    C8       C        0.14030    0.62810    0.25440    1.000
    C9       C        0.16400    0.60200    0.19370    1.000
    C10      C        0.23290    0.73130    0.09680    1.000
    H6       H        0.23110    0.77030    0.11110    1.000
    H7       H        0.29240    0.72110    0.09750    1.000
    H8       H        0.19490    0.72580    0.04640    1.000
    C11      C        0.12320    0.71220    0.33290    1.000
    H9       H        0.10410    0.68260    0.36110    1.000
    H10      H        0.17290    0.73160    0.36550    1.000
    H11      H        0.07560    0.73860    0.31470    1.000
    C12      C        0.15990    0.53840    0.18300    1.000
    H12      H        0.17860    0.52870    0.13850    1.000
    H13      H        0.19810    0.52050    0.22680    1.000
    H14      H        0.10020    0.52570    0.17680    1.000
    C13      C        0.18700    0.78160    0.22210    1.000
    H15      H        0.15570    0.80250    0.18030    1.000
    C14      C        0.23180    0.81070    0.28070    1.000
    H16      H        0.26510    0.79140    0.32330    1.000
    C15      C        0.23150    0.87320    0.28170    1.000
    C16      C        0.09870    0.59550    0.30490    1.000
    H17      H        0.12560    0.59570    0.35700    1.000
    C17      C        0.02520    0.56610    0.27940    1.000
    H18      H        0.99990    0.56390    0.22720    1.000
    C18      C        0.98150    0.53660    0.33120    1.000
    C19      C        0.17920    0.43450    0.53170    1.000
    C20      C        0.23730    0.39290    0.50630    1.000
    H19      H        0.21630    0.37480    0.45970    1.000
    C21      C        0.31670    0.38140    0.54790    1.000
    H20      H        0.33470    0.40000    0.59450    1.000
    C22      C        0.38190    0.34180    0.52930    1.000
    C23      C        0.45790    0.36400    0.51490    1.000
    C24      C        0.52420    0.32710    0.50520    1.000
    C25      C        0.51240    0.26890    0.50650    1.000
    C26      C        0.43320    0.24710    0.51590    1.000
    C27      C        0.36950    0.28340    0.53080    1.000
    C28      C        0.46700    0.42830    0.51070    1.000
    H21      H        0.52240    0.43740    0.50050    1.000
    H22      H        0.41930    0.44300    0.47060    1.000
    H23      H        0.46490    0.44490    0.55830    1.000
    C29      C        0.58050    0.22880    0.49060    1.000
    H24      H        0.56160    0.19040    0.49390    1.000
    H25      H        0.58690    0.23570    0.44040    1.000
    H26      H        0.63630    0.23480    0.52740    1.000
    C30      C        0.29070    0.25930    0.55340    1.000
    H27      H        0.29240    0.21860    0.55140    1.000
    H28      H        0.29270    0.27110    0.60420    1.000
    H29      H        0.23710    0.27270    0.51890    1.000
    C31      C        0.61020    0.34890    0.49620    1.000
    H30      H        0.66060    0.33960    0.53440    1.000
    C32      C        0.62150    0.37860    0.44230    1.000
    H31      H        0.57150    0.38870    0.40410    1.000
    C33      C        0.71030    0.39940    0.43460    1.000
    C34      C        0.42020    0.18480    0.51140    1.000
    H32      H        0.46300    0.16300    0.54450    1.000
    C35      C        0.35510    0.15770    0.46560    1.000
    H33      H        0.30780    0.17840    0.43610    1.000
    C36      C        0.35320    0.09460    0.45870    1.000
    In3      In       0.70998    0.01379    0.63437    1.000
    In4      In       0.80922    0.03038    0.84454    1.000
    O16      O        0.57130    0.01523    0.61190    1.000
    H34      H        0.54330    0.02230    0.65010    1.000
    O17      O        0.72560    0.99181    0.74857    1.000
    H35      H        0.69170    0.96160    0.75760    1.000
    O18      O        0.90960    0.05866    0.93635    1.000
    H36      H        0.91430    0.09690    0.94910    1.000
    O19      O        0.71350    0.04365    0.52390    1.000
    O20      O        0.57410    0.06429    0.45990    1.000
    O21      O        0.71860    0.39653    0.16090    1.000
    O22      O        0.82010    0.39870    0.27300    1.000
    O23      O        0.99010    0.04520    0.09930    1.000
    O24      O        0.08340    0.00525    0.19980    1.000
    O25      O        0.79490    0.95299    0.90270    1.000
    O26      O        0.89270    0.94578    0.01500    1.000
    O27      O        0.22070    0.88710    0.01770    1.000
    O28      O        0.29550    0.92910    0.12280    1.000
    O29      O        0.59190    0.56698    0.99170    1.000
    O30      O        0.70310    0.57435    0.09770    1.000
    C37      C        0.65710    0.06790    0.47140    1.000
    C38      C        0.68830    0.10320    0.41710    1.000
    H37      H        0.64710    0.12490    0.38210    1.000
    C39      C        0.77180    0.10550    0.41580    1.000
    H38      H        0.81380    0.08730    0.45450    1.000
    C40      C        0.80220    0.13560    0.35570    1.000
    C41      C        0.79820    0.19440    0.34790    1.000
    C42      C        0.81960    0.21970    0.28520    1.000
    C43      C        0.85030    0.18690    0.23390    1.000
    C44      C        0.85970    0.12810    0.24560    1.000
    C45      C        0.83600    0.10200    0.30630    1.000
    C46      C        0.76710    0.23130    0.40320    1.000
    H39      H        0.76890    0.27030    0.38890    1.000
    H40      H        0.70760    0.22110    0.40250    1.000
    H41      H        0.80510    0.22580    0.45360    1.000
    C47      C        0.87680    0.21220    0.16710    1.000
    H42      H        0.89590    0.18260    0.13890    1.000
    H43      H        0.82710    0.23160    0.13450    1.000
    H44      H        0.92440    0.23860    0.18530    1.000
    C48      C        0.84010    0.03840    0.31700    1.000
    H45      H        0.82140    0.02870    0.36150    1.000
    H46      H        0.80190    0.02050    0.27320    1.000
    H47      H        0.89980    0.02570    0.32320    1.000
    C49      C        0.81300    0.28160    0.27790    1.000
    H48      H        0.84430    0.30250    0.31970    1.000
    C50      C        0.76820    0.31070    0.21930    1.000
    H49      H        0.73490    0.29140    0.17670    1.000
    C51      C        0.76850    0.37320    0.21830    1.000
    C52      C        0.90130    0.09550    0.19510    1.000
    H50      H        0.87440    0.09570    0.14300    1.000
    C53      C        0.97480    0.06610    0.22060    1.000
    H51      H        0.00010    0.06390    0.27280    1.000
    C54      C        0.01850    0.03660    0.16880    1.000
    C55      C        0.82080    0.93450    0.96830    1.000
    C56      C        0.76270    0.89290    0.99370    1.000
    H52      H        0.78370    0.87480    0.04030    1.000
    C57      C        0.68330    0.88140    0.95210    1.000
    H53      H        0.66530    0.90000    0.90550    1.000
    C58      C        0.61810    0.84180    0.97070    1.000
    C59      C        0.54210    0.86400    0.98510    1.000
    C60      C        0.47580    0.82710    0.99480    1.000
    C61      C        0.48760    0.76890    0.99350    1.000
    C62      C        0.56680    0.74710    0.98410    1.000
    C63      C        0.63050    0.78340    0.96920    1.000
    C64      C        0.53300    0.92830    0.98930    1.000
    H54      H        0.47760    0.93740    0.99950    1.000
    H55      H        0.58070    0.94300    0.02940    1.000
    H56      H        0.53510    0.94490    0.94170    1.000
    C65      C        0.41950    0.72880    0.00940    1.000
    H57      H        0.43840    0.69040    0.00610    1.000
    H58      H        0.41310    0.73570    0.05960    1.000
    H59      H        0.36370    0.73480    0.97260    1.000
    C66      C        0.70930    0.75930    0.94660    1.000
    H60      H        0.70760    0.71860    0.94860    1.000
    H61      H        0.70730    0.77110    0.89580    1.000
    H62      H        0.76290    0.77270    0.98110    1.000
    C67      C        0.38980    0.84890    0.00380    1.000
    H63      H        0.33940    0.83960    0.96560    1.000
    C68      C        0.37850    0.87860    0.05770    1.000
    H64      H        0.42850    0.88870    0.09590    1.000
    C69      C        0.28970    0.89940    0.06540    1.000
    C70      C        0.57980    0.68480    0.98860    1.000
    H65      H        0.53700    0.66300    0.95550    1.000
    C71      C        0.64490    0.65770    0.03440    1.000
    H66      H        0.69220    0.67840    0.06390    1.000
    C72      C        0.64680    0.59460    0.04130    1.000
    In5      In       0.70998    0.48621    0.13437    1.000
    In6      In       0.80922    0.46962    0.34454    1.000
    O31      O        0.57130    0.48477    0.11190    1.000
    H67      H        0.54330    0.47770    0.15010    1.000
    O32      O        0.72560    0.50819    0.24857    1.000
    H68      H        0.69170    0.53840    0.25760    1.000
    O33      O        0.90960    0.44134    0.43635    1.000
    H69      H        0.91430    0.40310    0.44910    1.000
    O34      O        0.71350    0.45635    0.02390    1.000
    O35      O        0.57410    0.43571    0.95990    1.000
    O36      O        0.71860    0.10347    0.66090    1.000
    O37      O        0.82010    0.10130    0.77300    1.000
    O38      O        0.99010    0.45480    0.59930    1.000
    O39      O        0.08340    0.49475    0.69980    1.000
    O40      O        0.79490    0.54701    0.40270    1.000
    O41      O        0.89270    0.55422    0.51500    1.000
    O42      O        0.22070    0.61290    0.51770    1.000
    O43      O        0.29550    0.57090    0.62280    1.000
    O44      O        0.59190    0.93302    0.49170    1.000
    O45      O        0.70310    0.92565    0.59770    1.000
    C73      C        0.65710    0.43210    0.97140    1.000
    C74      C        0.68830    0.39680    0.91710    1.000
    H70      H        0.64710    0.37510    0.88210    1.000
    C75      C        0.77180    0.39450    0.91580    1.000
    H71      H        0.81380    0.41270    0.95450    1.000
    C76      C        0.80220    0.36440    0.85570    1.000
    C77      C        0.79820    0.30560    0.84790    1.000
    C78      C        0.81960    0.28030    0.78520    1.000
    C79      C        0.85030    0.31310    0.73390    1.000
    C80      C        0.85970    0.37190    0.74560    1.000
    C81      C        0.83600    0.39800    0.80630    1.000
    C82      C        0.76710    0.26870    0.90320    1.000
    H72      H        0.76890    0.22970    0.88890    1.000
    H73      H        0.70760    0.27890    0.90250    1.000
    H74      H        0.80510    0.27420    0.95360    1.000
    C83      C        0.87680    0.28780    0.66710    1.000
    H75      H        0.89590    0.31740    0.63890    1.000
    H76      H        0.82710    0.26840    0.63450    1.000
    H77      H        0.92440    0.26140    0.68530    1.000
    C84      C        0.84010    0.46160    0.81700    1.000
    H78      H        0.82140    0.47130    0.86150    1.000
    H79      H        0.80190    0.47950    0.77320    1.000
    H80      H        0.89980    0.47430    0.82320    1.000
    C85      C        0.81300    0.21840    0.77790    1.000
    H81      H        0.84430    0.19750    0.81970    1.000
    C86      C        0.76820    0.18930    0.71930    1.000
    H82      H        0.73490    0.20860    0.67670    1.000
    C87      C        0.76850    0.12680    0.71830    1.000
    C88      C        0.90130    0.40450    0.69510    1.000
    H83      H        0.87440    0.40430    0.64300    1.000
    C89      C        0.97480    0.43390    0.72060    1.000
    H84      H        0.00010    0.43610    0.77280    1.000
    C90      C        0.01850    0.46340    0.66880    1.000
    C91      C        0.82080    0.56550    0.46830    1.000
    C92      C        0.76270    0.60710    0.49370    1.000
    H85      H        0.78370    0.62520    0.54030    1.000
    C93      C        0.68330    0.61860    0.45210    1.000
    H86      H        0.66530    0.60000    0.40550    1.000
    C94      C        0.61810    0.65820    0.47070    1.000
    C95      C        0.54210    0.63600    0.48510    1.000
    C96      C        0.47580    0.67290    0.49480    1.000
    C97      C        0.48760    0.73110    0.49350    1.000
    C98      C        0.56680    0.75290    0.48410    1.000
    C99      C        0.63050    0.71660    0.46920    1.000
    C100     C        0.53300    0.57170    0.48930    1.000
    H87      H        0.47760    0.56260    0.49950    1.000
    H88      H        0.58070    0.55700    0.52940    1.000
    H89      H        0.53510    0.55510    0.44170    1.000
    C101     C        0.41950    0.77120    0.50940    1.000
    H90      H        0.43840    0.80960    0.50610    1.000
    H91      H        0.41310    0.76430    0.55960    1.000
    H92      H        0.36370    0.76520    0.47260    1.000
    C102     C        0.70930    0.74070    0.44660    1.000
    H93      H        0.70760    0.78140    0.44860    1.000
    H94      H        0.70730    0.72890    0.39580    1.000
    H95      H        0.76290    0.72730    0.48110    1.000
    C103     C        0.38980    0.65110    0.50380    1.000
    H96      H        0.33940    0.66040    0.46560    1.000
    C104     C        0.37850    0.62140    0.55770    1.000
    H97      H        0.42850    0.61130    0.59590    1.000
    C105     C        0.28970    0.60060    0.56540    1.000
    C106     C        0.57980    0.81520    0.48860    1.000
    H98      H        0.53700    0.83700    0.45550    1.000
    C107     C        0.64490    0.84230    0.53440    1.000
    H99      H        0.69220    0.82160    0.56390    1.000
    C108     C        0.64680    0.90540    0.54130    1.000
    In7      In       0.29002    0.98621    0.36563    1.000
    In8      In       0.19078    0.96962    0.15546    1.000
    O46      O        0.42870    0.98477    0.38810    1.000
    H100     H        0.45670    0.97770    0.34990    1.000
    O47      O        0.27440    0.00819    0.25143    1.000
    H101     H        0.30830    0.03840    0.24240    1.000
    O48      O        0.09040    0.94134    0.06365    1.000
    H102     H        0.08570    0.90310    0.05090    1.000
    O49      O        0.28650    0.95635    0.47610    1.000
    O50      O        0.42590    0.93571    0.54010    1.000
    O51      O        0.28140    0.60347    0.83910    1.000
    O52      O        0.17990    0.60130    0.72700    1.000
    O53      O        0.00990    0.95480    0.90070    1.000
    O54      O        0.91660    0.99475    0.80020    1.000
    O55      O        0.20510    0.04701    0.09730    1.000
    O56      O        0.10730    0.05422    0.98500    1.000
    O57      O        0.77930    0.11290    0.98230    1.000
    O58      O        0.70450    0.07090    0.87720    1.000
    O59      O        0.40810    0.43302    0.00830    1.000
    O60      O        0.29690    0.42565    0.90230    1.000
    C109     C        0.34290    0.93210    0.52860    1.000
    C110     C        0.31170    0.89680    0.58290    1.000
    H103     H        0.35290    0.87510    0.61790    1.000
    C111     C        0.22820    0.89450    0.58420    1.000
    H104     H        0.18620    0.91270    0.54550    1.000
    C112     C        0.19780    0.86440    0.64430    1.000
    C113     C        0.20180    0.80560    0.65210    1.000
    C114     C        0.18040    0.78030    0.71480    1.000
    C115     C        0.14970    0.81310    0.76610    1.000
    C116     C        0.14030    0.87190    0.75440    1.000
    C117     C        0.16400    0.89800    0.69370    1.000
    C118     C        0.23290    0.76870    0.59680    1.000
    H105     H        0.23110    0.72970    0.61110    1.000
    H106     H        0.29240    0.77890    0.59750    1.000
    H107     H        0.19490    0.77420    0.54640    1.000
    C119     C        0.12320    0.78780    0.83290    1.000
    H108     H        0.10410    0.81740    0.86110    1.000
    H109     H        0.17290    0.76840    0.86550    1.000
    H110     H        0.07560    0.76140    0.81470    1.000
    C120     C        0.15990    0.96160    0.68300    1.000
    H111     H        0.17860    0.97130    0.63850    1.000
    H112     H        0.19810    0.97950    0.72680    1.000
    H113     H        0.10020    0.97430    0.67680    1.000
    C121     C        0.18700    0.71840    0.72210    1.000
    H114     H        0.15570    0.69750    0.68030    1.000
    C122     C        0.23180    0.68930    0.78070    1.000
    H115     H        0.26510    0.70860    0.82330    1.000
    C123     C        0.23150    0.62680    0.78170    1.000
    C124     C        0.09870    0.90450    0.80490    1.000
    H116     H        0.12560    0.90430    0.85700    1.000
    C125     C        0.02520    0.93390    0.77940    1.000
    H117     H        0.99990    0.93610    0.72720    1.000
    C126     C        0.98150    0.96340    0.83120    1.000
    C127     C        0.17920    0.06550    0.03170    1.000
    C128     C        0.23730    0.10710    0.00630    1.000
    H118     H        0.21630    0.12520    0.95970    1.000
    C129     C        0.31670    0.11860    0.04790    1.000
    H119     H        0.33470    0.10000    0.09450    1.000
    C130     C        0.38190    0.15820    0.02930    1.000
    C131     C        0.45790    0.13600    0.01490    1.000
    C132     C        0.52420    0.17290    0.00520    1.000
    C133     C        0.51240    0.23110    0.00650    1.000
    C134     C        0.43320    0.25290    0.01590    1.000
    C135     C        0.36950    0.21660    0.03080    1.000
    C136     C        0.46700    0.07170    0.01070    1.000
    H120     H        0.52240    0.06260    0.00050    1.000
    H121     H        0.41930    0.05700    0.97060    1.000
    H122     H        0.46490    0.05510    0.05830    1.000
    C137     C        0.58050    0.27120    0.99060    1.000
    H123     H        0.56160    0.30960    0.99390    1.000
    H124     H        0.58690    0.26430    0.94040    1.000
    H125     H        0.63630    0.26520    0.02740    1.000
    C138     C        0.29070    0.24070    0.05340    1.000
    H126     H        0.29240    0.28140    0.05140    1.000
    H127     H        0.29270    0.22890    0.10420    1.000
    H128     H        0.23710    0.22730    0.01890    1.000
    C139     C        0.61020    0.15110    0.99620    1.000
    H129     H        0.66060    0.16040    0.03440    1.000
    C140     C        0.62150    0.12140    0.94230    1.000
    H130     H        0.57150    0.11130    0.90410    1.000
    C141     C        0.71030    0.10060    0.93460    1.000
    C142     C        0.42020    0.31520    0.01140    1.000
    H131     H        0.46300    0.33700    0.04450    1.000
    C143     C        0.35510    0.34230    0.96560    1.000
    H132     H        0.30780    0.32160    0.93610    1.000
    C144     C        0.35320    0.40540    0.95870    1.000
    In9      In       0.50000    0.50000    0.00000    1.000
    In10     In       0.50000    0.00000    0.50000    1.000
    In11     In       0.00000    0.50000    0.50000    1.000
    In12     In       0.00000    0.00000    0.00000    1.000
