# CIF file generated by openbabel 3.1.0, see https://openbabel.org
data_I
_chemical_name_common 'OSAVUA_clean'
_cell_length_a 9.665
_cell_length_b 10.2569
_cell_length_c 10.3455
_cell_angle_alpha 119.717
_cell_angle_beta 94.5181
_cell_angle_gamma 90
_space_group_name_H-M_alt 'P 1'
_space_group_name_Hall 'P 1'
loop_
    _symmetry_equiv_pos_as_xyz
    x,y,z
loop_
    _atom_site_label
    _atom_site_type_symbol
    _atom_site_fract_x
    _atom_site_fract_y
    _atom_site_fract_z
    _atom_site_occupancy
    Ca1      Ca       0.75000    0.07825    0.00000    1.000
    Ca2      Ca       0.25000    0.92175    0.00000    1.000
    H1       H        0.74130    0.04510    0.32420    1.000
    H2       H        0.18890    0.96830    0.36520    1.000
    H3       H        0.75870    0.72090    0.67580    1.000
    H4       H        0.31110    0.60310    0.63480    1.000
    H5       H        0.25870    0.95490    0.67580    1.000
    H6       H        0.81110    0.03170    0.63480    1.000
    H7       H        0.24130    0.27910    0.32420    1.000
    H8       H        0.68890    0.39690    0.36520    1.000
    C1       C        0.97080    0.00447    0.22034    1.000
    C2       C        0.98420    0.00341    0.36602    1.000
    C3       C        0.86940    0.02376    0.44852    1.000
    C4       C        0.11270    0.98075    0.41930    1.000
    C5       C        0.52920    0.78413    0.77966    1.000
    C6       C        0.51580    0.63739    0.63398    1.000
    C7       C        0.63060    0.57524    0.55148    1.000
    C8       C        0.38730    0.56145    0.58070    1.000
    C9       C        0.02920    0.99553    0.77966    1.000
    C10      C        0.01580    0.99659    0.63398    1.000
    C11      C        0.13060    0.97624    0.55148    1.000
    C12      C        0.88730    0.01925    0.58070    1.000
    C13      C        0.47080    0.21587    0.22034    1.000
    C14      C        0.48420    0.36261    0.36602    1.000
    C15      C        0.36940    0.42476    0.44852    1.000
    C16      C        0.61270    0.43855    0.41930    1.000
    O1       O        0.84900    0.01249    0.17058    1.000
    O2       O        0.74070    0.04984    0.40568    1.000
    O3       O        0.07584    0.99378    0.15616    1.000
    O4       O        0.65100    0.84191    0.82942    1.000
    O5       O        0.75930    0.64416    0.59432    1.000
    O6       O        0.42416    0.83762    0.84384    1.000
    O7       O        0.15100    0.98751    0.82942    1.000
    O8       O        0.25930    0.95016    0.59432    1.000
    O9       O        0.92416    0.00622    0.84384    1.000
    O10      O        0.34900    0.15809    0.17058    1.000
    O11      O        0.24070    0.35584    0.40568    1.000
    O12      O        0.57584    0.16238    0.15616    1.000
