data_functionalizedCrystal
_audit_creation_method	'EQeq! by Chris Wilmer'
_symmetry_space_group_name_H-M	'P1'
_symmetry_Int_Tables_number	1
_symmetry_cell_setting	triclinic
loop_
_symmetry_equiv_pos_as_xyz
  x,y,z
_cell_length_a	8.6945
_cell_length_b	20.808
_cell_length_c	34.079
_cell_angle_alpha	90
_cell_angle_beta	90
_cell_angle_gamma	90
loop_
_atom_site_label
_atom_site_type_symbol
_atom_site_fract_x
_atom_site_fract_y
_atom_site_fract_z
_atom_site_charge
Mof_O 	O 	0.2471	0.3336	0.59275	-0.615
Mof_O 	O 	0.0098	0.3331	0.57062	-0.576
Mof_O 	O 	0.241	0.4581	0.636	-0.607
Mof_C 	C 	0.1495	0.3201	0.5677	0.574
Mof_C 	C 	0.2011	0.2841	0.5321	-0.165
Mof_C 	C 	0.0993	0.2653	0.5044	0
Mof_C 	C 	0.151	0.2316	0.4715	0.023
Mof_C 	C 	0.2223	0.5902	0.6498	-0.01
Mof_C 	C 	0.2196	0.657	0.6492	0.02
Mof_H 	H 	0.9945	0.2752	0.5077	0.04
Mof_H 	H 	0.0786	0.2194	0.4517	0.021
Mof_H 	H 	0.2928	0.5678	0.6663	0.039
Mof_H 	H 	0.2905	0.6794	0.6657	0.021
Mof_O 	O 	0.2471	0.8336	0.09275	-0.615
Mof_O 	O 	0.0098	0.8331	0.07062	-0.573
Mof_O 	O 	0.241	0.9581	0.136	-0.607
Mof_C 	C 	0.1495	0.8201	0.0677	0.576
Mof_C 	C 	0.2011	0.7841	0.0321	-0.17
Mof_C 	C 	0.0993	0.7653	0.0044	0.012
Mof_C 	C 	0.151	0.7316	0.9715	0.015
Mof_C 	C 	0.2223	0.0902	0.1498	-0.008
Mof_C 	C 	0.2196	0.157	0.1492	0.021
Mof_H 	H 	0.9945	0.7752	0.0077	0.035
Mof_H 	H 	0.0786	0.7194	0.9517	0.025
Mof_H 	H 	0.2928	0.0678	0.1663	0.039
Mof_H 	H 	0.2905	0.1794	0.1657	0.022
Mof_O 	O 	0.7471	0.3336	0.09275	-0.614
Mof_O 	O 	0.5098	0.3331	0.07062	-0.574
Mof_O 	O 	0.741	0.4581	0.136	-0.606
Mof_C 	C 	0.6495	0.3201	0.0677	0.574
Mof_C 	C 	0.7011	0.2841	0.0321	-0.162
Mof_C 	C 	0.5993	0.2653	0.0044	0.001
Mof_C 	C 	0.651	0.2316	0.9715	0.026
Mof_C 	C 	0.7223	0.5902	0.1498	-0.009
Mof_C 	C 	0.7196	0.657	0.1492	0.021
Mof_H 	H 	0.4945	0.2752	0.0077	0.041
Mof_H 	H 	0.5786	0.2194	0.9517	0.022
Mof_H 	H 	0.7928	0.5678	0.1663	0.04
Mof_H 	H 	0.7905	0.6794	0.1657	0.021
Mof_O 	O 	0.7471	0.8336	0.59275	-0.614
Mof_O 	O 	0.5098	0.8331	0.57062	-0.575
Mof_O 	O 	0.741	0.9581	0.636	-0.606
Mof_C 	C 	0.6495	0.8201	0.5677	0.576
Mof_C 	C 	0.7011	0.7841	0.5321	-0.167
Mof_C 	C 	0.5993	0.7653	0.5044	0.006
Mof_C 	C 	0.651	0.7316	0.4715	0.021
Mof_C 	C 	0.7223	0.0902	0.6498	-0.009
Mof_C 	C 	0.7196	0.157	0.6492	0.021
Mof_H 	H 	0.4945	0.7752	0.5077	0.039
Mof_H 	H 	0.5786	0.7194	0.4517	0.024
Mof_H 	H 	0.7928	0.0678	0.6663	0.04
Mof_H 	H 	0.7905	0.1794	0.6657	0.021
Mof_O 	O 	0.5029	0.4164	0.59275	-0.614
Mof_O 	O 	0.7402	0.4169	0.57062	-0.575
Mof_O 	O 	0.509	0.2919	0.636	-0.606
Mof_C 	C 	0.6005	0.4299	0.5677	0.575
Mof_C 	C 	0.5489	0.4659	0.5321	-0.165
Mof_C 	C 	0.6507	0.4847	0.5044	0.004
Mof_C 	C 	0.599	0.5184	0.4715	0.022
Mof_C 	C 	0.5277	0.1598	0.6498	-0.009
Mof_C 	C 	0.5304	0.093	0.6492	0.02
Mof_H 	H 	0.7555	0.4748	0.5077	0.04
Mof_H 	H 	0.6714	0.5306	0.4517	0.023
Mof_H 	H 	0.4572	0.1822	0.6663	0.04
Mof_H 	H 	0.4595	0.0706	0.6657	0.022
Mof_O 	O 	0.5029	0.9164	0.09275	-0.614
Mof_O 	O 	0.7402	0.9169	0.07062	-0.574
Mof_O 	O 	0.509	0.7919	0.136	-0.606
Mof_C 	C 	0.6005	0.9299	0.0677	0.575
Mof_C 	C 	0.5489	0.9659	0.0321	-0.165
Mof_C 	C 	0.6507	0.9847	0.0044	0.004
Mof_C 	C 	0.599	0.0184	0.9715	0.023
Mof_C 	C 	0.5277	0.6598	0.1498	-0.009
Mof_C 	C 	0.5304	0.593	0.1492	0.021
Mof_H 	H 	0.7555	0.9748	0.0077	0.039
Mof_H 	H 	0.6714	0.0306	0.9517	0.023
Mof_H 	H 	0.4572	0.6822	0.1663	0.04
Mof_H 	H 	0.4595	0.5706	0.1657	0.022
Mof_O 	O 	0.0029	0.4164	0.09275	-0.614
Mof_O 	O 	0.2402	0.4169	0.07062	-0.574
Mof_O 	O 	0.009	0.2919	0.136	-0.606
Mof_C 	C 	0.1005	0.4299	0.0677	0.575
Mof_C 	C 	0.0489	0.4659	0.0321	-0.164
Mof_C 	C 	0.1507	0.4847	0.0044	0.005
Mof_C 	C 	0.099	0.5184	0.9715	0.02
Mof_C 	C 	0.0277	0.1598	0.1498	-0.009
Mof_C 	C 	0.0304	0.093	0.1492	0.02
Mof_H 	H 	0.2555	0.4748	0.0077	0.04
Mof_H 	H 	0.1714	0.5306	0.9517	0.024
Mof_H 	H 	0.9572	0.1822	0.1663	0.04
Mof_H 	H 	0.9595	0.0706	0.1657	0.022
Mof_O 	O 	0.0029	0.9164	0.59275	-0.612
Mof_O 	O 	0.2402	0.9169	0.57062	-0.574
Mof_O 	O 	0.009	0.7919	0.636	-0.605
Mof_C 	C 	0.1005	0.9299	0.5677	0.574
Mof_C 	C 	0.0489	0.9659	0.5321	-0.162
Mof_C 	C 	0.1507	0.9847	0.5044	0.007
Mof_C 	C 	0.099	0.0184	0.4715	0.016
Mof_C 	C 	0.0277	0.6598	0.6498	-0.007
Mof_C 	C 	0.0304	0.593	0.6492	0.021
Mof_H 	H 	0.2555	0.9748	0.5077	0.039
Mof_H 	H 	0.1714	0.0306	0.4517	0.025
Mof_H 	H 	0.9572	0.6822	0.6663	0.038
Mof_H 	H 	0.9595	0.5706	0.6657	0.021
Mof_O 	O 	0.5029	0.3336	0.15725	-0.614
Mof_O 	O 	0.7402	0.3331	0.17938	-0.574
Mof_O 	O 	0.509	0.4581	0.114	-0.606
Mof_C 	C 	0.6005	0.3201	0.1823	0.575
Mof_C 	C 	0.5489	0.2841	0.2179	-0.165
Mof_C 	C 	0.6507	0.2653	0.2456	0.004
Mof_C 	C 	0.599	0.2316	0.2785	0.022
Mof_C 	C 	0.5277	0.5902	0.1002	-0.009
Mof_C 	C 	0.5304	0.657	0.1008	0.021
Mof_H 	H 	0.7555	0.2752	0.2423	0.04
Mof_H 	H 	0.6714	0.2194	0.2983	0.023
Mof_H 	H 	0.4572	0.5678	0.0837	0.04
Mof_H 	H 	0.4595	0.6794	0.0843	0.022
Mof_O 	O 	0.5029	0.8336	0.65725	-0.614
Mof_O 	O 	0.7402	0.8331	0.67938	-0.574
Mof_O 	O 	0.509	0.9581	0.614	-0.606
Mof_C 	C 	0.6005	0.8201	0.6823	0.575
Mof_C 	C 	0.5489	0.7841	0.7179	-0.165
Mof_C 	C 	0.6507	0.7653	0.7456	0.005
Mof_C 	C 	0.599	0.7316	0.7785	0.022
Mof_C 	C 	0.5277	0.0902	0.6002	-0.009
Mof_C 	C 	0.5304	0.157	0.6008	0.021
Mof_H 	H 	0.7555	0.7752	0.7423	0.04
Mof_H 	H 	0.6714	0.7194	0.7983	0.023
Mof_H 	H 	0.4572	0.0678	0.5837	0.04
Mof_H 	H 	0.4595	0.1794	0.5843	0.021
Mof_O 	O 	0.0029	0.3336	0.65725	-0.615
Mof_O 	O 	0.2402	0.3331	0.67938	-0.575
Mof_O 	O 	0.009	0.4581	0.614	-0.606
Mof_C 	C 	0.1005	0.3201	0.6823	0.577
Mof_C 	C 	0.0489	0.2841	0.7179	-0.171
Mof_C 	C 	0.1507	0.2653	0.7456	0.01
Mof_C 	C 	0.099	0.2316	0.7785	0.014
Mof_C 	C 	0.0277	0.5902	0.6002	-0.008
Mof_C 	C 	0.0304	0.657	0.6008	0.023
Mof_H 	H 	0.2555	0.2752	0.7423	0.038
Mof_H 	H 	0.1714	0.2194	0.7983	0.025
Mof_H 	H 	0.9572	0.5678	0.5837	0.039
Mof_H 	H 	0.9595	0.6794	0.5843	0.02
Mof_O 	O 	0.0029	0.8336	0.15725	-0.611
Mof_O 	O 	0.2402	0.8331	0.17938	-0.574
Mof_O 	O 	0.009	0.9581	0.114	-0.604
Mof_C 	C 	0.1005	0.8201	0.1823	0.573
Mof_C 	C 	0.0489	0.7841	0.2179	-0.158
Mof_C 	C 	0.1507	0.7653	0.2456	-0.001
Mof_C 	C 	0.099	0.7316	0.2785	0.028
Mof_C 	C 	0.0277	0.0902	0.1002	-0.01
Mof_C 	C 	0.0304	0.157	0.1008	0.021
Mof_H 	H 	0.2555	0.7752	0.2423	0.042
Mof_H 	H 	0.1714	0.7194	0.2983	0.021
Mof_H 	H 	0.9572	0.0678	0.0837	0.041
Mof_H 	H 	0.9595	0.1794	0.0843	0.022
Mof_O 	O 	0.2471	0.4164	0.15725	-0.614
Mof_O 	O 	0.0098	0.4169	0.17938	-0.574
Mof_O 	O 	0.241	0.2919	0.114	-0.606
Mof_C 	C 	0.1495	0.4299	0.1823	0.576
Mof_C 	C 	0.2011	0.4659	0.2179	-0.166
Mof_C 	C 	0.0993	0.4847	0.2456	0.006
Mof_C 	C 	0.151	0.5184	0.2785	0.022
Mof_C 	C 	0.2223	0.1598	0.1002	-0.009
Mof_C 	C 	0.2196	0.093	0.1008	0.022
Mof_H 	H 	0.9945	0.4748	0.2423	0.039
Mof_H 	H 	0.0786	0.5306	0.2983	0.023
Mof_H 	H 	0.2928	0.1822	0.0837	0.04
Mof_H 	H 	0.2905	0.0706	0.0843	0.021
Mof_O 	O 	0.2471	0.9164	0.65725	-0.615
Mof_O 	O 	0.0098	0.9169	0.67938	-0.573
Mof_O 	O 	0.241	0.7919	0.614	-0.606
Mof_C 	C 	0.1495	0.9299	0.6823	0.578
Mof_C 	C 	0.2011	0.9659	0.7179	-0.173
Mof_C 	C 	0.0993	0.9847	0.7456	0.018
Mof_C 	C 	0.151	0.0184	0.7785	0.011
Mof_C 	C 	0.2223	0.6598	0.6002	-0.009
Mof_C 	C 	0.2196	0.593	0.6008	0.021
Mof_H 	H 	0.9945	0.9748	0.7423	0.034
Mof_H 	H 	0.0786	0.0306	0.7983	0.026
Mof_H 	H 	0.2928	0.6822	0.5837	0.04
Mof_H 	H 	0.2905	0.5706	0.5843	0.022
Mof_O 	O 	0.7471	0.4164	0.65725	-0.614
Mof_O 	O 	0.5098	0.4169	0.67938	-0.575
Mof_O 	O 	0.741	0.2919	0.614	-0.606
Mof_C 	C 	0.6495	0.4299	0.6823	0.575
Mof_C 	C 	0.7011	0.4659	0.7179	-0.165
Mof_C 	C 	0.5993	0.4847	0.7456	0.004
Mof_C 	C 	0.651	0.5184	0.7785	0.023
Mof_C 	C 	0.7223	0.1598	0.6002	-0.009
Mof_C 	C 	0.7196	0.093	0.6008	0.02
Mof_H 	H 	0.4945	0.4748	0.7423	0.04
Mof_H 	H 	0.5786	0.5306	0.7983	0.023
Mof_H 	H 	0.7928	0.1822	0.5837	0.04
Mof_H 	H 	0.7905	0.0706	0.5843	0.022
Mof_O 	O 	0.7471	0.9164	0.15725	-0.613
Mof_O 	O 	0.5098	0.9169	0.17938	-0.574
Mof_O 	O 	0.741	0.7919	0.114	-0.606
Mof_C 	C 	0.6495	0.9299	0.1823	0.572
Mof_C 	C 	0.7011	0.9659	0.2179	-0.159
Mof_C 	C 	0.5993	0.9847	0.2456	-0.003
Mof_C 	C 	0.651	0.0184	0.2785	0.03
Mof_C 	C 	0.7223	0.6598	0.1002	-0.009
Mof_C 	C 	0.7196	0.593	0.1008	0.021
Mof_H 	H 	0.4945	0.9748	0.2423	0.042
Mof_H 	H 	0.5786	0.0306	0.2983	0.021
Mof_H 	H 	0.7928	0.6822	0.0837	0.039
Mof_H 	H 	0.7905	0.5706	0.0843	0.021
Mof_O 	O 	0.7529	0.6664	0.40725	-0.614
Mof_O 	O 	0.9902	0.6669	0.42938	-0.575
Mof_O 	O 	0.759	0.5419	0.364	-0.606
Mof_C 	C 	0.8505	0.6799	0.4323	0.575
Mof_C 	C 	0.7989	0.7159	0.4679	-0.164
Mof_C 	C 	0.9007	0.7347	0.4956	0.001
Mof_C 	C 	0.849	0.7684	0.5285	0.024
Mof_C 	C 	0.7777	0.4098	0.3502	-0.009
Mof_C 	C 	0.7804	0.343	0.3508	0.021
Mof_H 	H 	0.0055	0.7248	0.4923	0.041
Mof_H 	H 	0.9214	0.7806	0.5483	0.022
Mof_H 	H 	0.7072	0.4322	0.3337	0.04
Mof_H 	H 	0.7095	0.3206	0.3343	0.022
Mof_O 	O 	0.7529	0.1664	0.90725	-0.614
Mof_O 	O 	0.9902	0.1669	0.92938	-0.572
Mof_O 	O 	0.759	0.0419	0.864	-0.606
Mof_C 	C 	0.8505	0.1799	0.9323	0.577
Mof_C 	C 	0.7989	0.2159	0.9679	-0.169
Mof_C 	C 	0.9007	0.2347	0.9956	0.013
Mof_C 	C 	0.849	0.2684	0.0285	0.016
Mof_C 	C 	0.7777	0.9098	0.8502	-0.008
Mof_C 	C 	0.7804	0.843	0.8508	0.021
Mof_H 	H 	0.0055	0.2248	0.9923	0.035
Mof_H 	H 	0.9214	0.2806	0.0483	0.025
Mof_H 	H 	0.7072	0.9322	0.8337	0.039
Mof_H 	H 	0.7095	0.8206	0.8343	0.022
Mof_O 	O 	0.2529	0.6664	0.90725	-0.614
Mof_O 	O 	0.4902	0.6669	0.92938	-0.574
Mof_O 	O 	0.259	0.5419	0.864	-0.606
Mof_C 	C 	0.3505	0.6799	0.9323	0.574
Mof_C 	C 	0.2989	0.7159	0.9679	-0.162
Mof_C 	C 	0.4007	0.7347	0.9956	0.001
Mof_C 	C 	0.349	0.7684	0.0285	0.026
Mof_C 	C 	0.2777	0.4098	0.8502	-0.009
Mof_C 	C 	0.2804	0.343	0.8508	0.021
Mof_H 	H 	0.5055	0.7248	0.9923	0.041
Mof_H 	H 	0.4214	0.7806	0.0483	0.022
Mof_H 	H 	0.2072	0.4322	0.8337	0.04
Mof_H 	H 	0.2095	0.3206	0.8343	0.021
Mof_O 	O 	0.2529	0.1664	0.40725	-0.614
Mof_O 	O 	0.4902	0.1669	0.42938	-0.575
Mof_O 	O 	0.259	0.0419	0.364	-0.606
Mof_C 	C 	0.3505	0.1799	0.4323	0.576
Mof_C 	C 	0.2989	0.2159	0.4679	-0.167
Mof_C 	C 	0.4007	0.2347	0.4956	0.006
Mof_C 	C 	0.349	0.2684	0.5285	0.021
Mof_C 	C 	0.2777	0.9098	0.3502	-0.009
Mof_C 	C 	0.2804	0.843	0.3508	0.021
Mof_H 	H 	0.5055	0.2248	0.4923	0.039
Mof_H 	H 	0.4214	0.2806	0.5483	0.024
Mof_H 	H 	0.2072	0.9322	0.3337	0.04
Mof_H 	H 	0.2095	0.8206	0.3343	0.021
Mof_O 	O 	0.4971	0.5836	0.40725	-0.614
Mof_O 	O 	0.2598	0.5831	0.42938	-0.575
Mof_O 	O 	0.491	0.7081	0.364	-0.606
Mof_C 	C 	0.3995	0.5701	0.4323	0.575
Mof_C 	C 	0.4511	0.5341	0.4679	-0.165
Mof_C 	C 	0.3493	0.5153	0.4956	0.004
Mof_C 	C 	0.401	0.4816	0.5285	0.022
Mof_C 	C 	0.4723	0.8402	0.3502	-0.009
Mof_C 	C 	0.4696	0.907	0.3508	0.02
Mof_H 	H 	0.2445	0.5252	0.4923	0.04
Mof_H 	H 	0.3286	0.4694	0.5483	0.023
Mof_H 	H 	0.5428	0.8178	0.3337	0.04
Mof_H 	H 	0.5405	0.9294	0.3343	0.022
Mof_O 	O 	0.4971	0.0836	0.90725	-0.614
Mof_O 	O 	0.2598	0.0831	0.92938	-0.574
Mof_O 	O 	0.491	0.2081	0.864	-0.606
Mof_C 	C 	0.3995	0.0701	0.9323	0.575
Mof_C 	C 	0.4511	0.0341	0.9679	-0.165
Mof_C 	C 	0.3493	0.0153	0.9956	0.004
Mof_C 	C 	0.401	0.9816	0.0285	0.023
Mof_C 	C 	0.4723	0.3402	0.8502	-0.009
Mof_C 	C 	0.4696	0.407	0.8508	0.021
Mof_H 	H 	0.2445	0.0252	0.9923	0.039
Mof_H 	H 	0.3286	0.9694	0.0483	0.023
Mof_H 	H 	0.5428	0.3178	0.8337	0.04
Mof_H 	H 	0.5405	0.4294	0.8343	0.022
Mof_O 	O 	0.9971	0.5836	0.90725	-0.614
Mof_O 	O 	0.7598	0.5831	0.92938	-0.574
Mof_O 	O 	0.991	0.7081	0.864	-0.606
Mof_C 	C 	0.8995	0.5701	0.9323	0.575
Mof_C 	C 	0.9511	0.5341	0.9679	-0.164
Mof_C 	C 	0.8493	0.5153	0.9956	0.005
Mof_C 	C 	0.901	0.4816	0.0285	0.02
Mof_C 	C 	0.9723	0.8402	0.8502	-0.009
Mof_C 	C 	0.9696	0.907	0.8508	0.02
Mof_H 	H 	0.7445	0.5252	0.9923	0.04
Mof_H 	H 	0.8286	0.4694	0.0483	0.024
Mof_H 	H 	0.0428	0.8178	0.8337	0.04
Mof_H 	H 	0.0405	0.9294	0.8343	0.022
Mof_O 	O 	0.9971	0.0836	0.40725	-0.612
Mof_O 	O 	0.7598	0.0831	0.42938	-0.574
Mof_O 	O 	0.991	0.2081	0.364	-0.605
Mof_C 	C 	0.8995	0.0701	0.4323	0.574
Mof_C 	C 	0.9511	0.0341	0.4679	-0.162
Mof_C 	C 	0.8493	0.0153	0.4956	0.007
Mof_C 	C 	0.901	0.9816	0.5285	0.016
Mof_C 	C 	0.9723	0.3402	0.3502	-0.007
Mof_C 	C 	0.9696	0.407	0.3508	0.021
Mof_H 	H 	0.7445	0.0252	0.4923	0.039
Mof_H 	H 	0.8286	0.9694	0.5483	0.025
Mof_H 	H 	0.0428	0.3178	0.3337	0.038
Mof_H 	H 	0.0405	0.4294	0.3343	0.021
Mof_O 	O 	0.4971	0.6664	0.84275	-0.614
Mof_O 	O 	0.2598	0.6669	0.82062	-0.574
Mof_O 	O 	0.491	0.5419	0.886	-0.606
Mof_C 	C 	0.3995	0.6799	0.8177	0.575
Mof_C 	C 	0.4511	0.7159	0.7821	-0.165
Mof_C 	C 	0.3493	0.7347	0.7544	0.004
Mof_C 	C 	0.401	0.7684	0.7215	0.022
Mof_C 	C 	0.4723	0.4098	0.8998	-0.009
Mof_C 	C 	0.4696	0.343	0.8992	0.021
Mof_H 	H 	0.2445	0.7248	0.7577	0.04
Mof_H 	H 	0.3286	0.7806	0.7017	0.023
Mof_H 	H 	0.5428	0.4322	0.9163	0.04
Mof_H 	H 	0.5405	0.3206	0.9157	0.022
Mof_O 	O 	0.4971	0.1664	0.34275	-0.614
Mof_O 	O 	0.2598	0.1669	0.32062	-0.574
Mof_O 	O 	0.491	0.0419	0.386	-0.606
Mof_C 	C 	0.3995	0.1799	0.3177	0.575
Mof_C 	C 	0.4511	0.2159	0.2821	-0.165
Mof_C 	C 	0.3493	0.2347	0.2544	0.005
Mof_C 	C 	0.401	0.2684	0.2215	0.022
Mof_C 	C 	0.4723	0.9098	0.3998	-0.009
Mof_C 	C 	0.4696	0.843	0.3992	0.021
Mof_H 	H 	0.2445	0.2248	0.2577	0.04
Mof_H 	H 	0.3286	0.2806	0.2017	0.023
Mof_H 	H 	0.5428	0.9322	0.4163	0.04
Mof_H 	H 	0.5405	0.8206	0.4157	0.021
Mof_O 	O 	0.9971	0.6664	0.34275	-0.615
Mof_O 	O 	0.7598	0.6669	0.32062	-0.575
Mof_O 	O 	0.991	0.5419	0.386	-0.606
Mof_C 	C 	0.8995	0.6799	0.3177	0.577
Mof_C 	C 	0.9511	0.7159	0.2821	-0.171
Mof_C 	C 	0.8493	0.7347	0.2544	0.01
Mof_C 	C 	0.901	0.7684	0.2215	0.014
Mof_C 	C 	0.9723	0.4098	0.3998	-0.008
Mof_C 	C 	0.9696	0.343	0.3992	0.023
Mof_H 	H 	0.7445	0.7248	0.2577	0.038
Mof_H 	H 	0.8286	0.7806	0.2017	0.025
Mof_H 	H 	0.0428	0.4322	0.4163	0.039
Mof_H 	H 	0.0405	0.3206	0.4157	0.02
Mof_O 	O 	0.9971	0.1664	0.84275	-0.611
Mof_O 	O 	0.7598	0.1669	0.82062	-0.574
Mof_O 	O 	0.991	0.0419	0.886	-0.604
Mof_C 	C 	0.8995	0.1799	0.8177	0.573
Mof_C 	C 	0.9511	0.2159	0.7821	-0.158
Mof_C 	C 	0.8493	0.2347	0.7544	-0.001
Mof_C 	C 	0.901	0.2684	0.7215	0.028
Mof_C 	C 	0.9723	0.9098	0.8998	-0.01
Mof_C 	C 	0.9696	0.843	0.8992	0.021
Mof_H 	H 	0.7445	0.2248	0.7577	0.042
Mof_H 	H 	0.8286	0.2806	0.7017	0.021
Mof_H 	H 	0.0428	0.9322	0.9163	0.041
Mof_H 	H 	0.0405	0.8206	0.9157	0.022
Mof_O 	O 	0.7529	0.5836	0.84275	-0.614
Mof_O 	O 	0.9902	0.5831	0.82062	-0.574
Mof_O 	O 	0.759	0.7081	0.886	-0.606
Mof_C 	C 	0.8505	0.5701	0.8177	0.576
Mof_C 	C 	0.7989	0.5341	0.7821	-0.166
Mof_C 	C 	0.9007	0.5153	0.7544	0.006
Mof_C 	C 	0.849	0.4816	0.7215	0.022
Mof_C 	C 	0.7777	0.8402	0.8998	-0.009
Mof_C 	C 	0.7804	0.907	0.8992	0.022
Mof_H 	H 	0.0055	0.5252	0.7577	0.039
Mof_H 	H 	0.9214	0.4694	0.7017	0.023
Mof_H 	H 	0.7072	0.8178	0.9163	0.04
Mof_H 	H 	0.7095	0.9294	0.9157	0.021
Mof_O 	O 	0.7529	0.0836	0.34275	-0.615
Mof_O 	O 	0.9902	0.0831	0.32062	-0.573
Mof_O 	O 	0.759	0.2081	0.386	-0.606
Mof_C 	C 	0.8505	0.0701	0.3177	0.578
Mof_C 	C 	0.7989	0.0341	0.2821	-0.173
Mof_C 	C 	0.9007	0.0153	0.2544	0.018
Mof_C 	C 	0.849	0.9816	0.2215	0.011
Mof_C 	C 	0.7777	0.3402	0.3998	-0.009
Mof_C 	C 	0.7804	0.407	0.3992	0.021
Mof_H 	H 	0.0055	0.0252	0.2577	0.034
Mof_H 	H 	0.9214	0.9694	0.2017	0.026
Mof_H 	H 	0.7072	0.3178	0.4163	0.04
Mof_H 	H 	0.7095	0.4294	0.4157	0.022
Mof_O 	O 	0.2529	0.5836	0.34275	-0.614
Mof_O 	O 	0.4902	0.5831	0.32062	-0.575
Mof_O 	O 	0.259	0.7081	0.386	-0.606
Mof_C 	C 	0.3505	0.5701	0.3177	0.575
Mof_C 	C 	0.2989	0.5341	0.2821	-0.165
Mof_C 	C 	0.4007	0.5153	0.2544	0.004
Mof_C 	C 	0.349	0.4816	0.2215	0.023
Mof_C 	C 	0.2777	0.8402	0.3998	-0.009
Mof_C 	C 	0.2804	0.907	0.3992	0.02
Mof_H 	H 	0.5055	0.5252	0.2577	0.04
Mof_H 	H 	0.4214	0.4694	0.2017	0.023
Mof_H 	H 	0.2072	0.8178	0.4163	0.04
Mof_H 	H 	0.2095	0.9294	0.4157	0.022
Mof_O 	O 	0.2529	0.0836	0.84275	-0.613
Mof_O 	O 	0.4902	0.0831	0.82062	-0.574
Mof_O 	O 	0.259	0.2081	0.886	-0.606
Mof_C 	C 	0.3505	0.0701	0.8177	0.572
Mof_C 	C 	0.2989	0.0341	0.7821	-0.159
Mof_C 	C 	0.4007	0.0153	0.7544	-0.003
Mof_C 	C 	0.349	0.9816	0.7215	0.03
Mof_C 	C 	0.2777	0.3402	0.8998	-0.009
Mof_C 	C 	0.2804	0.407	0.8992	0.021
Mof_H 	H 	0.5055	0.0252	0.7577	0.042
Mof_H 	H 	0.4214	0.9694	0.7017	0.021
Mof_H 	H 	0.2072	0.3178	0.9163	0.039
Mof_H 	H 	0.2095	0.4294	0.9157	0.021
Mof_Sc	Sc	0.375	0.375	0.63595	2.016
Mof_Sc	Sc	0.375	0.875	0.13595	2.016
Mof_Sc	Sc	0.875	0.375	0.13595	2.014
Mof_Sc	Sc	0.875	0.875	0.63595	2.011
Mof_Sc	Sc	0.375	0.375	0.11405	2.016
Mof_Sc	Sc	0.375	0.875	0.61405	2.016
Mof_Sc	Sc	0.875	0.375	0.61405	2.016
Mof_Sc	Sc	0.875	0.875	0.11405	2.009
Mof_Sc	Sc	0.625	0.625	0.36405	2.016
Mof_Sc	Sc	0.625	0.125	0.86405	2.016
Mof_Sc	Sc	0.125	0.625	0.86405	2.014
Mof_Sc	Sc	0.125	0.125	0.36405	2.011
Mof_Sc	Sc	0.625	0.625	0.88595	2.016
Mof_Sc	Sc	0.625	0.125	0.38595	2.016
Mof_Sc	Sc	0.125	0.625	0.38595	2.016
Mof_Sc	Sc	0.125	0.125	0.88595	2.009
Mof_C 	C 	0.125	0.4855	0.625	0.616
Mof_C 	C 	0.125	0.5574	0.625	-0.187
Mof_C 	C 	0.125	0.9855	0.125	0.617
Mof_C 	C 	0.125	0.0574	0.125	-0.188
Mof_C 	C 	0.625	0.9855	0.625	0.615
Mof_C 	C 	0.625	0.0574	0.625	-0.186
Mof_C 	C 	0.625	0.2645	0.625	0.616
Mof_C 	C 	0.625	0.1926	0.625	-0.187
Mof_C 	C 	0.625	0.7645	0.125	0.616
Mof_C 	C 	0.625	0.6926	0.125	-0.187
Mof_C 	C 	0.625	0.4855	0.125	0.616
Mof_C 	C 	0.625	0.5574	0.125	-0.187
Mof_C 	C 	0.125	0.2645	0.125	0.616
Mof_C 	C 	0.125	0.1926	0.125	-0.186
Mof_C 	C 	0.125	0.7645	0.625	0.616
Mof_C 	C 	0.125	0.6926	0.625	-0.188
Mof_C 	C 	0.875	0.5145	0.375	0.616
Mof_C 	C 	0.875	0.4426	0.375	-0.187
Mof_C 	C 	0.875	0.0145	0.875	0.617
Mof_C 	C 	0.875	0.9426	0.875	-0.188
Mof_C 	C 	0.375	0.7355	0.375	0.616
Mof_C 	C 	0.375	0.8074	0.375	-0.187
Mof_C 	C 	0.375	0.2355	0.875	0.616
Mof_C 	C 	0.375	0.3074	0.875	-0.187
Mof_C 	C 	0.375	0.5145	0.875	0.616
Mof_C 	C 	0.375	0.4426	0.875	-0.187
Mof_C 	C 	0.375	0.0145	0.375	0.615
Mof_C 	C 	0.375	0.9426	0.375	-0.186
Mof_C 	C 	0.875	0.7355	0.875	0.616
Mof_C 	C 	0.875	0.8074	0.875	-0.186
Mof_C 	C 	0.875	0.2355	0.375	0.616
Mof_C 	C 	0.875	0.3074	0.375	-0.188
_end
