data_functionalizedCrystal
_audit_creation_method	'EQeq! by Chris Wilmer'
_symmetry_space_group_name_H-M	'P1'
_symmetry_Int_Tables_number	1
_symmetry_cell_setting	triclinic
loop_
_symmetry_equiv_pos_as_xyz
  x,y,z
_cell_length_a	9.2945
_cell_length_b	19.4305
_cell_length_c	19.4305
_cell_angle_alpha	67.7291
_cell_angle_beta	76.1623
_cell_angle_gamma	76.1624
loop_
_atom_site_label
_atom_site_type_symbol
_atom_site_fract_x
_atom_site_fract_y
_atom_site_fract_z
_atom_site_charge
Mof_Zn	Zn	0.63876	0.51401	0.51401	1.196
Mof_Zn	Zn	0.16678	0.98599	0.98599	1.191
Mof_Zn	Zn	0.83322	0.01401	0.01401	1.19
Mof_Zn	Zn	0.36124	0.48599	0.48599	1.195
Mof_H 	H 	0.8931	0.551	0.2864	0.017
Mof_H 	H 	0.0137	0.5488	0.1674	0.077
Mof_H 	H 	0.6478	0.4865	0.1415	0.073
Mof_H 	H 	0.5275	0.4928	0.259	0.016
Mof_H 	H 	0.2305	0.949	0.2136	0.017
Mof_H 	H 	0.2299	0.9512	0.3326	0.078
Mof_H 	H 	0.7758	0.0135	0.3585	0.071
Mof_H 	H 	0.7793	0.0072	0.241	0.007
Mof_H 	H 	0.7695	0.7864	0.051	0.017
Mof_H 	H 	0.7701	0.6674	0.0488	0.078
Mof_H 	H 	0.2242	0.6415	0.9865	0.071
Mof_H 	H 	0.2207	0.759	0.9928	0.007
Mof_H 	H 	0.1069	0.7136	0.449	0.017
Mof_H 	H 	0.9863	0.8326	0.4512	0.077
Mof_H 	H 	0.3522	0.8585	0.5135	0.073
Mof_H 	H 	0.4725	0.741	0.5072	0.016
Mof_H 	H 	0.1069	0.449	0.7136	0.017
Mof_H 	H 	0.9863	0.4512	0.8326	0.077
Mof_H 	H 	0.3522	0.5135	0.8585	0.073
Mof_H 	H 	0.4725	0.5072	0.741	0.016
Mof_H 	H 	0.7695	0.051	0.7864	0.017
Mof_H 	H 	0.7701	0.0488	0.6674	0.078
Mof_H 	H 	0.2242	0.9865	0.6415	0.071
Mof_H 	H 	0.2207	0.9928	0.759	0.007
Mof_H 	H 	0.2305	0.2136	0.949	0.017
Mof_H 	H 	0.2299	0.3326	0.9512	0.078
Mof_H 	H 	0.7758	0.3585	0.0135	0.071
Mof_H 	H 	0.7793	0.241	0.0072	0.007
Mof_H 	H 	0.8931	0.2864	0.551	0.017
Mof_H 	H 	0.0137	0.1674	0.5488	0.077
Mof_H 	H 	0.6478	0.1415	0.4865	0.073
Mof_H 	H 	0.5275	0.259	0.4928	0.016
Mof_H 	H 	0.8651	0.4099	0.0901	0.049
Mof_H 	H 	0.8651	0.0901	0.4099	0.049
Mof_H 	H 	0.1349	0.5901	0.9099	0.049
Mof_H 	H 	0.1349	0.9099	0.5901	0.049
Mof_C 	C 	0.62433	0.52197	0.36237	0.419
Mof_C 	C 	0.69757	0.52223	0.28443	-0.146
Mof_C 	C 	0.84294	0.53859	0.25653	0.065
Mof_C 	C 	0.91515	0.53685	0.18625	-0.131
Mof_C 	C 	0.84003	0.51717	0.14217	0.072
Mof_C 	C 	0.69787	0.50033	0.17033	-0.137
Mof_C 	C 	0.62679	0.50361	0.24061	0.068
Mof_C 	C 	0.92185	0.51055	0.06815	-0.015
Mof_C 	C 	0.00867	0.97803	0.13763	0.42
Mof_C 	C 	0.00423	0.97777	0.21557	-0.152
Mof_C 	C 	0.13806	0.96141	0.24347	0.069
Mof_C 	C 	0.13825	0.96315	0.31375	-0.133
Mof_C 	C 	0.99937	0.98283	0.35783	0.077
Mof_C 	C 	0.86853	0.99967	0.32967	-0.138
Mof_C 	C 	0.87101	0.99639	0.25939	0.082
Mof_C 	C 	0.00055	0.98945	0.43185	-0.016
Mof_C 	C 	0.99133	0.86237	0.02197	0.42
Mof_C 	C 	0.99577	0.78443	0.02223	-0.152
Mof_C 	C 	0.86194	0.75653	0.03859	0.069
Mof_C 	C 	0.86175	0.68625	0.03685	-0.133
Mof_C 	C 	0.00063	0.64217	0.01717	0.077
Mof_C 	C 	0.13147	0.67033	0.00033	-0.138
Mof_C 	C 	0.12899	0.74061	0.00361	0.082
Mof_C 	C 	0.99945	0.56815	0.01055	-0.016
Mof_C 	C 	0.37567	0.63763	0.47803	0.419
Mof_C 	C 	0.30243	0.71557	0.47777	-0.146
Mof_C 	C 	0.15706	0.74347	0.46141	0.065
Mof_C 	C 	0.08485	0.81375	0.46315	-0.131
Mof_C 	C 	0.15997	0.85783	0.48283	0.072
Mof_C 	C 	0.30213	0.82967	0.49967	-0.137
Mof_C 	C 	0.37321	0.75939	0.49639	0.068
Mof_C 	C 	0.07815	0.93185	0.48945	-0.015
Mof_C 	C 	0.37567	0.47803	0.63763	0.419
Mof_C 	C 	0.30243	0.47777	0.71557	-0.146
Mof_C 	C 	0.15706	0.46141	0.74347	0.065
Mof_C 	C 	0.08485	0.46315	0.81375	-0.131
Mof_C 	C 	0.15997	0.48283	0.85783	0.072
Mof_C 	C 	0.30213	0.49967	0.82967	-0.137
Mof_C 	C 	0.37321	0.49639	0.75939	0.068
Mof_C 	C 	0.07815	0.48945	0.93185	-0.015
Mof_C 	C 	0.99133	0.02197	0.86237	0.42
Mof_C 	C 	0.99577	0.02223	0.78443	-0.152
Mof_C 	C 	0.86194	0.03859	0.75653	0.069
Mof_C 	C 	0.86175	0.03685	0.68625	-0.133
Mof_C 	C 	0.00063	0.01717	0.64217	0.077
Mof_C 	C 	0.13147	0.00033	0.67033	-0.138
Mof_C 	C 	0.12899	0.00361	0.74061	0.082
Mof_C 	C 	0.99945	0.01055	0.56815	-0.016
Mof_C 	C 	0.00867	0.13763	0.97803	0.42
Mof_C 	C 	0.00423	0.21557	0.97777	-0.152
Mof_C 	C 	0.13806	0.24347	0.96141	0.069
Mof_C 	C 	0.13825	0.31375	0.96315	-0.133
Mof_C 	C 	0.99937	0.35783	0.98283	0.077
Mof_C 	C 	0.86853	0.32967	0.99967	-0.138
Mof_C 	C 	0.87101	0.25939	0.99639	0.082
Mof_C 	C 	0.00055	0.43185	0.98945	-0.016
Mof_C 	C 	0.62433	0.36237	0.52197	0.419
Mof_C 	C 	0.69757	0.28443	0.52223	-0.146
Mof_C 	C 	0.84294	0.25653	0.53859	0.065
Mof_C 	C 	0.91515	0.18625	0.53685	-0.131
Mof_C 	C 	0.84003	0.14217	0.51717	0.072
Mof_C 	C 	0.69787	0.17033	0.50033	-0.137
Mof_C 	C 	0.62679	0.24061	0.50361	0.068
Mof_C 	C 	0.92185	0.06815	0.51055	-0.015
Mof_C 	C 	0.9222	0.4463	0.0537	-0.059
Mof_C 	C 	0.9222	0.0537	0.4463	-0.059
Mof_C 	C 	0.0778	0.5537	0.9463	-0.059
Mof_C 	C 	0.0778	0.9463	0.5537	-0.059
Mof_O 	O 	0.70207	0.53039	0.40167	-0.487
Mof_O 	O 	0.49069	0.51108	0.38134	-0.488
Mof_O 	O 	0.13413	0.96961	0.09833	-0.484
Mof_O 	O 	0.88311	0.98892	0.11866	-0.484
Mof_O 	O 	0.86587	0.90167	0.03039	-0.484
Mof_O 	O 	0.11689	0.88134	0.01108	-0.484
Mof_O 	O 	0.29793	0.59833	0.46961	-0.487
Mof_O 	O 	0.50931	0.61866	0.48892	-0.488
Mof_O 	O 	0.29793	0.46961	0.59833	-0.487
Mof_O 	O 	0.50931	0.48892	0.61866	-0.488
Mof_O 	O 	0.86587	0.03039	0.90167	-0.484
Mof_O 	O 	0.11689	0.01108	0.88134	-0.484
Mof_O 	O 	0.13413	0.09833	0.96961	-0.484
Mof_O 	O 	0.88311	0.11866	0.98892	-0.484
Mof_O 	O 	0.70207	0.40167	0.53039	-0.487
Mof_O 	O 	0.49069	0.38134	0.51108	-0.488
_end
