data_functionalizedCrystal
_audit_creation_method	'EQeq! by Chris Wilmer'
_symmetry_space_group_name_H-M	'P1'
_symmetry_Int_Tables_number	1
_symmetry_cell_setting	triclinic
loop_
_symmetry_equiv_pos_as_xyz
  x,y,z
_cell_length_a	12.8701
_cell_length_b	46.966
_cell_length_c	22.725
_cell_angle_alpha	90
_cell_angle_beta	90.352
_cell_angle_gamma	90
loop_
_atom_site_label
_atom_site_type_symbol
_atom_site_fract_x
_atom_site_fract_y
_atom_site_fract_z
_atom_site_charge
Mof_Co	Co	0.50257	0.99982	0.24915	1.141
Mof_Co	Co	0.84686	0.24522	0.50749	1.125
Mof_S 	S 	0.136	0.17682	0.5166	-0.043
Mof_N 	N 	0.9727	0.2188	0.5076	-0.293
Mof_C 	C 	0.0305	0.2038	0.5112	0.138
Mof_N 	N 	0.7169	0.2702	0.5127	-0.273
Mof_S 	S 	0.5602	0.3102	0.5236	-0.012
Mof_C 	C 	0.6459	0.2832	0.5153	0.115
Mof_N 	N 	0.4069	0.0032	0.1768	-0.206
Mof_C 	C 	0.3779	0.0094	0.1296	0.339
Mof_S 	S 	0.3526	0.0244	0.0632	0.023
Mof_N 	N 	0.6004	0.9977	0.1748	-0.395
Mof_C 	C 	0.7151	0.0149	0.1832	0.123
Mof_C 	C 	0.6445	0.1744	0.2993	0.097
Mof_N 	N 	0.6017	0.1915	0.2519	-0.134
Mof_C 	C 	0.5466	0.1788	0.2128	0.103
Mof_N 	N 	0.5459	0.1495	0.2057	-0.125
Mof_C 	C 	0.5765	0.1353	0.2552	0.109
Mof_N 	N 	0.6343	0.1469	0.2974	-0.137
Mof_N 	N 	0.7799	0.2181	0.4376	-0.241
Mof_C 	C 	0.711	0.2319	0.4033	0.06
Mof_H 	H 	0.6935	0.2511	0.4112	-0.004
Mof_C 	C 	0.6656	0.2175	0.3559	-0.111
Mof_H 	H 	0.6194	0.2274	0.3304	0.08
Mof_C 	C 	0.6862	0.1896	0.3457	0.05
Mof_C 	C 	0.7592	0.1755	0.3847	-0.127
Mof_H 	H 	0.7813	0.1564	0.3786	0.084
Mof_C 	C 	0.7951	0.1922	0.4325	0.104
Mof_H 	H 	0.8336	0.1829	0.4627	-0.018
Mof_N 	N 	0.4238	0.2282	0.0735	-0.233
Mof_C 	C 	0.4987	0.2376	0.1129	0.081
Mof_H 	H 	0.5221	0.2567	0.108	-0.003
Mof_C 	C 	0.541	0.2231	0.1562	-0.13
Mof_H 	H 	0.5925	0.2314	0.181	0.087
Mof_C 	C 	0.5077	0.1953	0.1646	0.065
Mof_C 	C 	0.4338	0.1848	0.1275	-0.116
Mof_H 	H 	0.4059	0.1663	0.1341	0.099
Mof_C 	C 	0.3986	0.2008	0.0798	0.077
Mof_H 	H 	0.3556	0.192	0.051	0.01
Mof_N 	N 	0.5233	0.04625	0.2529	-0.213
Mof_C 	C 	0.5354	0.0612	0.1994	0.049
Mof_H 	H 	0.5362	0.0513	0.1629	0.032
Mof_C 	C 	0.5454	0.0891	0.2012	-0.09
Mof_H 	H 	0.5357	0.0994	0.1656	0.11
Mof_C 	C 	0.5696	0.1047	0.2523	0.042
Mof_C 	C 	0.5987	0.0865	0.2994	-0.093
Mof_H 	H 	0.6296	0.0944	0.3337	0.075
Mof_C 	C 	0.5841	0.0592	0.2966	0.044
Mof_H 	H 	0.616	0.0475	0.3256	0.03
Mof_N 	N 	0.6207	0.1473	0.7131	-0.133
Mof_C 	C 	0.6324	0.1764	0.7184	0.101
Mof_N 	N 	0.602	0.1919	0.7628	-0.135
Mof_C 	C 	0.5362	0.1775	0.8021	0.103
Mof_N 	N 	0.5109	0.1506	0.7982	-0.126
Mof_C 	C 	0.567	0.1355	0.7572	0.102
Mof_N 	N 	0.783	0.2209	0.5807	-0.236
Mof_C 	C 	0.7374	0.2345	0.6237	0.081
Mof_H 	H 	0.7342	0.2547	0.6234	-0.007
Mof_C 	C 	0.6948	0.2197	0.6687	-0.122
Mof_H 	H 	0.669	0.2305	0.7008	0.082
Mof_C 	C 	0.685	0.1905	0.6725	0.056
Mof_C 	C 	0.7353	0.1774	0.6277	-0.117
Mof_H 	H 	0.7327	0.1572	0.6251	0.081
Mof_C 	C 	0.7898	0.1922	0.5859	0.069
Mof_H 	H 	0.8335	0.182	0.5598	-0.003
Mof_N 	N 	0.4036	0.2269	0.9373	-0.226
Mof_C 	C 	0.4792	0.2397	0.902	0.046
Mof_H 	H 	0.507	0.258	0.9105	0.004
Mof_C 	C 	0.5113	0.2237	0.853	-0.108
Mof_H 	H 	0.5514	0.2321	0.8226	0.079
Mof_C 	C 	0.4833	0.1958	0.8504	0.069
Mof_C 	C 	0.4243	0.1823	0.8897	-0.115
Mof_H 	H 	0.4209	0.1621	0.892	0.117
Mof_C 	C 	0.3634	0.2016	0.9301	0.082
Mof_N 	N 	0.5228	0.04584	0.7538	-0.224
Mof_C 	C 	0.5518	0.0603	0.7054	0.08
Mof_H 	H 	0.5631	0.0502	0.6698	0.005
Mof_C 	C 	0.5655	0.0896	0.7062	-0.13
Mof_H 	H 	0.5874	0.0991	0.6714	0.087
Mof_C 	C 	0.5491	0.1041	0.753	0.075
Mof_C 	C 	0.4911	0.0913	0.8015	-0.102
Mof_H 	H 	0.4531	0.1019	0.8298	0.122
Mof_C 	C 	0.4986	0.0618	0.8007	0.086
Mof_H 	H 	0.4855	0.0521	0.8366	0.04
Mof_Cl	Cl	0.5978	0.06669	0.0526	-0.278
Mof_Cl	Cl	0.5899	0.07098	0.924	-0.273
Mof_Cl	Cl	0.3347	0.07904	0.9353	-0.286
Mof_Cl	Cl	0.3484	0.0718	0.0528	-0.326
Mof_C 	C 	0.4207	0.07845	0.9958	0.332
Mof_C 	C 	0.5131	0.06152	0.9846	0.158
Mof_S 	S 	0.3867	0.018	0.4431	-0.057
Mof_C 	C 	0.397	0.0104	0.3682	0.072
Mof_N 	N 	0.414	0.004	0.3267	-0.212
Mof_N 	N 	0.6042	0.9925	0.3223	-0.536
Mof_C 	C 	0.625	0.9823	0.3603	0.106
Mof_S 	S 	0.6414	0.9664	0.4315	-0.077
Mof_C 	C 	0.085	0.9926	0.4099	-0.047
Mof_N 	N 	0.0949	0.0018	0.4687	-0.131
Mof_C 	C 	0.998	0.9975	0.502	0.053
Mof_N 	N 	0.9124	0.9946	0.4693	-0.133
Mof_C 	C 	0.916	0.9991	0.4089	-0.044
Mof_N 	N 	0.0026	0.9963	0.3785	-0.13
Mof_N 	N 	0.3674	0.0041	0.3082	-0.049
Mof_C 	C 	0.3741	0.0098	0.3681	0.07
Mof_H 	H 	0.4394	0.0142	0.3856	0.003
Mof_C 	C 	0.2852	0.0092	0.4025	-0.093
Mof_H 	H 	0.2897	0.0131	0.4434	0.087
Mof_C 	C 	0.1896	0.0028	0.377	-0.035
Mof_C 	C 	0.1829	0.997	0.3171	0.086
Mof_H 	H 	0.1175	0.9927	0.2996	0.032
Mof_C 	C 	0.2718	0.9977	0.2827	-0.147
Mof_H 	H 	0.2673	0.9938	0.2417	0.099
Mof_N 	N 	0.9914	0.0092	0.683	-0.108
Mof_C 	C 	0.085	0.0127	0.6536	0.114
Mof_H 	H 	0.1463	0.0172	0.675	-0.068
Mof_C 	C 	0.0887	0.0094	0.5928	0.056
Mof_H 	H 	0.1526	0.0118	0.5727	0.088
Mof_C 	C 	0.9989	0.0027	0.5615	0.138
Mof_C 	C 	0.9053	0.9992	0.5909	0.032
Mof_H 	H 	0.844	0.9947	0.5695	0.085
Mof_C 	C 	0.9016	0.0025	0.6516	0.095
Mof_H 	H 	0.8377	0.0001	0.6717	-0.05
Mof_N 	N 	0.6451	0.9958	0.3092	0.362
Mof_C 	C 	0.63	0.989	0.3658	0.123
Mof_H 	H 	0.5645	0.985	0.3833	-0.003
Mof_C 	C 	0.7261	0.9887	0.3947	-0.053
Mof_H 	H 	0.7291	0.9809	0.4333	0.075
Mof_C 	C 	0.8158	0.999	0.3714	-0.202
Mof_C 	C 	0.821	0.0049	0.3196	0.461
Mof_H 	H 	0.8864	0.0075	0.3009	-0.107
Mof_C 	C 	0.7265	0.0077	0.2882	-0.904
Mof_H 	H 	0.7232	0.0182	0.2525	0.309
Mof_C 	C 	0.9143	0.0021	0.0908	-0.287
Mof_N 	N 	0.0071	0.0054	0.1217	-0.04
Mof_C 	C 	0.1002	0.0079	0.0915	0.043
Mof_N 	N 	0.1006	0.0071	0.0303	-0.115
Mof_C 	C 	0.0079	0.0039	0.9994	0.079
Mof_N 	N 	0.9147	0.0014	0.0296	-0.113
Mof_N 	N 	0.6381	0.998	0.1889	0.155
Mof_C 	C 	0.7342	0.9964	0.217	-0.537
Mof_H 	H 	0.7378	0.9953	0.2587	0.494
Mof_C 	C 	0.8249	0.9964	0.1842	0.05
Mof_H 	H 	0.8905	0.9953	0.2034	0.065
Mof_C 	C 	0.8196	0.9981	0.1232	0.046
Mof_C 	C 	0.7236	0.9997	0.095	-0.177
Mof_H 	H 	0.72	0.0009	0.0533	0.123
Mof_C 	C 	0.6329	0.9997	0.1279	0.215
Mof_H 	H 	0.5673	0.0008	0.1086	-0.022
Mof_N 	N 	0.3634	0.0034	0.1934	-0.032
Mof_C 	C 	0.2711	0.0135	0.2171	-0.039
Mof_H 	H 	0.2692	0.0197	0.2569	0.072
Mof_C 	C 	0.1816	0.0145	0.1826	-0.175
Mof_H 	H 	0.1186	0.0214	0.1988	0.066
Mof_C 	C 	0.1844	0.0055	0.1244	-0.001
Mof_C 	C 	0.2767	0.9954	0.1007	0.003
Mof_H 	H 	0.2786	0.9892	0.0609	0.059
Mof_C 	C 	0.3661	0.9944	0.1352	-0.308
Mof_H 	H 	0.4292	0.9875	0.119	0.112
Mof_N 	N 	0.0222	0.9991	0.8225	-0.084
Mof_C 	C 	0.1099	0.0071	0.8545	-0.073
Mof_H 	H 	0.1744	0.0096	0.835	0.053
Mof_C 	C 	0.1032	0.0115	0.9148	0.402
Mof_H 	H 	0.1631	0.0169	0.9366	-0.043
Mof_C 	C 	0.0088	0.00782	0.9432	0.064
Mof_C 	C 	0.9211	0.99979	0.9113	-0.053
Mof_H 	H 	0.8566	0.9973	0.9307	0.098
Mof_C 	C 	0.9278	0.9954	0.8509	0.023
Mof_H 	H 	0.8679	0.9899	0.8291	0.121
Mof_S 	S 	0.6374	0.01549	0.0592	0.027
Mof_Cl	Cl	0.4538	0.11807	0.9836	-0.242
Mof_Co	Co	0.99743	0.49982	0.25085	1.142
Mof_Co	Co	0.65314	0.74522	0.99251	1.126
Mof_S 	S 	0.364	0.67682	0.9834	-0.042
Mof_N 	N 	0.5273	0.7188	0.9924	-0.292
Mof_C 	C 	0.4695	0.7038	0.9888	0.139
Mof_N 	N 	0.7831	0.7702	0.9873	-0.272
Mof_S 	S 	0.9398	0.8102	0.9764	-0.011
Mof_C 	C 	0.8541	0.7832	0.9847	0.116
Mof_N 	N 	0.0931	0.5032	0.3232	-0.205
Mof_C 	C 	0.1221	0.5094	0.3704	0.34
Mof_S 	S 	0.1474	0.5244	0.4368	0.023
Mof_N 	N 	0.8996	0.4977	0.3252	-0.395
Mof_C 	C 	0.7849	0.5149	0.3168	0.123
Mof_C 	C 	0.8555	0.6744	0.2007	0.097
Mof_N 	N 	0.8983	0.6915	0.2481	-0.134
Mof_C 	C 	0.9534	0.6788	0.2872	0.103
Mof_N 	N 	0.9541	0.6495	0.2943	-0.125
Mof_C 	C 	0.9235	0.6353	0.2448	0.109
Mof_N 	N 	0.8657	0.6469	0.2026	-0.137
Mof_N 	N 	0.7201	0.7181	0.0624	-0.241
Mof_C 	C 	0.789	0.7319	0.0967	0.06
Mof_H 	H 	0.8065	0.7511	0.0888	-0.004
Mof_C 	C 	0.8344	0.7175	0.1441	-0.111
Mof_H 	H 	0.8806	0.7274	0.1696	0.08
Mof_C 	C 	0.8138	0.6896	0.1543	0.05
Mof_C 	C 	0.7408	0.6755	0.1153	-0.126
Mof_H 	H 	0.7187	0.6564	0.1214	0.084
Mof_C 	C 	0.7049	0.6922	0.0675	0.104
Mof_H 	H 	0.6664	0.6829	0.0373	-0.018
Mof_N 	N 	0.0762	0.7282	0.4265	-0.233
Mof_C 	C 	0.0013	0.7376	0.3871	0.081
Mof_H 	H 	0.9779	0.7567	0.392	-0.003
Mof_C 	C 	0.959	0.7231	0.3438	-0.13
Mof_H 	H 	0.9075	0.7314	0.319	0.087
Mof_C 	C 	0.9923	0.6953	0.3354	0.065
Mof_C 	C 	0.0662	0.6848	0.3725	-0.116
Mof_H 	H 	0.0941	0.6663	0.3659	0.099
Mof_C 	C 	0.1014	0.7008	0.4202	0.077
Mof_H 	H 	0.1444	0.692	0.449	0.01
Mof_N 	N 	0.9767	0.54625	0.2471	-0.213
Mof_C 	C 	0.9646	0.5612	0.3006	0.049
Mof_H 	H 	0.9638	0.5513	0.3371	0.032
Mof_C 	C 	0.9546	0.5891	0.2988	-0.09
Mof_H 	H 	0.9643	0.5994	0.3344	0.11
Mof_C 	C 	0.9304	0.6047	0.2477	0.042
Mof_C 	C 	0.9013	0.5865	0.2006	-0.093
Mof_H 	H 	0.8704	0.5944	0.1663	0.075
Mof_C 	C 	0.9159	0.5592	0.2034	0.044
Mof_H 	H 	0.884	0.5475	0.1744	0.03
Mof_N 	N 	0.8793	0.6473	0.7869	-0.133
Mof_C 	C 	0.8676	0.6764	0.7816	0.101
Mof_N 	N 	0.898	0.6919	0.7372	-0.135
Mof_C 	C 	0.9638	0.6775	0.6979	0.103
Mof_N 	N 	0.9891	0.6506	0.7018	-0.126
Mof_C 	C 	0.933	0.6355	0.7428	0.102
Mof_N 	N 	0.717	0.7209	0.9193	-0.236
Mof_C 	C 	0.7626	0.7345	0.8763	0.081
Mof_H 	H 	0.7658	0.7547	0.8766	-0.007
Mof_C 	C 	0.8052	0.7197	0.8313	-0.122
Mof_H 	H 	0.831	0.7305	0.7992	0.082
Mof_C 	C 	0.815	0.6905	0.8275	0.056
Mof_C 	C 	0.7647	0.6774	0.8723	-0.117
Mof_H 	H 	0.7673	0.6572	0.8749	0.081
Mof_C 	C 	0.7102	0.6922	0.9141	0.069
Mof_H 	H 	0.6665	0.682	0.9402	-0.003
Mof_N 	N 	0.0964	0.7269	0.5627	-0.226
Mof_C 	C 	0.0208	0.7397	0.598	0.045
Mof_H 	H 	0.993	0.758	0.5895	0.004
Mof_C 	C 	0.9887	0.7237	0.647	-0.107
Mof_H 	H 	0.9486	0.7321	0.6774	0.079
Mof_C 	C 	0.0167	0.6958	0.6496	0.068
Mof_C 	C 	0.0757	0.6823	0.6103	-0.115
Mof_H 	H 	0.0791	0.6621	0.608	0.117
Mof_C 	C 	0.1366	0.7016	0.5699	0.082
Mof_N 	N 	0.9772	0.54584	0.7462	-0.224
Mof_C 	C 	0.9482	0.5603	0.7946	0.08
Mof_H 	H 	0.9369	0.5502	0.8302	0.005
Mof_C 	C 	0.9345	0.5896	0.7938	-0.13
Mof_H 	H 	0.9126	0.5991	0.8286	0.087
Mof_C 	C 	0.9509	0.6041	0.747	0.075
Mof_C 	C 	0.0089	0.5913	0.6985	-0.103
Mof_H 	H 	0.0469	0.6019	0.6702	0.122
Mof_C 	C 	0.0014	0.5618	0.6993	0.086
Mof_H 	H 	0.0145	0.5521	0.6634	0.04
Mof_Cl	Cl	0.9022	0.56669	0.4474	-0.278
Mof_Cl	Cl	0.9101	0.57098	0.576	-0.273
Mof_Cl	Cl	0.1653	0.57904	0.5647	-0.286
Mof_Cl	Cl	0.1516	0.5718	0.4472	-0.326
Mof_C 	C 	0.0793	0.57845	0.5042	0.332
Mof_C 	C 	0.9869	0.56152	0.5154	0.158
Mof_S 	S 	0.1133	0.518	0.0569	-0.057
Mof_C 	C 	0.103	0.5104	0.1318	0.072
Mof_N 	N 	0.086	0.504	0.1733	-0.212
Mof_N 	N 	0.8958	0.4925	0.1777	-0.536
Mof_C 	C 	0.875	0.4823	0.1397	0.107
Mof_S 	S 	0.8586	0.4664	0.0685	-0.077
Mof_C 	C 	0.415	0.4926	0.0901	-0.047
Mof_N 	N 	0.4051	0.5018	0.0313	-0.131
Mof_C 	C 	0.502	0.4975	0.998	0.053
Mof_N 	N 	0.5876	0.4946	0.0307	-0.133
Mof_C 	C 	0.584	0.4991	0.0911	-0.044
Mof_N 	N 	0.4974	0.4963	0.1215	-0.13
Mof_N 	N 	0.1326	0.5041	0.1918	-0.049
Mof_C 	C 	0.1259	0.5098	0.1319	0.07
Mof_H 	H 	0.0606	0.5142	0.1144	0.003
Mof_C 	C 	0.2148	0.5092	0.0975	-0.093
Mof_H 	H 	0.2103	0.5131	0.0566	0.087
Mof_C 	C 	0.3104	0.5028	0.123	-0.035
Mof_C 	C 	0.3171	0.497	0.1829	0.086
Mof_H 	H 	0.3825	0.4927	0.2004	0.031
Mof_C 	C 	0.2282	0.4977	0.2173	-0.147
Mof_H 	H 	0.2327	0.4938	0.2583	0.098
Mof_N 	N 	0.5086	0.5092	0.817	-0.108
Mof_C 	C 	0.415	0.5127	0.8464	0.114
Mof_H 	H 	0.3537	0.5172	0.825	-0.068
Mof_C 	C 	0.4113	0.5094	0.9072	0.056
Mof_H 	H 	0.3474	0.5118	0.9273	0.088
Mof_C 	C 	0.5011	0.5027	0.9385	0.138
Mof_C 	C 	0.5947	0.4992	0.9091	0.032
Mof_H 	H 	0.656	0.4947	0.9305	0.085
Mof_C 	C 	0.5984	0.5025	0.8484	0.095
Mof_H 	H 	0.6623	0.5001	0.8283	-0.05
Mof_N 	N 	0.8549	0.4958	0.1908	0.363
Mof_C 	C 	0.87	0.489	0.1342	0.123
Mof_H 	H 	0.9355	0.485	0.1167	-0.003
Mof_C 	C 	0.7739	0.4887	0.1053	-0.053
Mof_H 	H 	0.7709	0.4809	0.0667	0.075
Mof_C 	C 	0.6842	0.499	0.1286	-0.202
Mof_C 	C 	0.679	0.5049	0.1804	0.461
Mof_H 	H 	0.6136	0.5075	0.1991	-0.107
Mof_C 	C 	0.7735	0.5077	0.2118	-0.904
Mof_H 	H 	0.7768	0.5182	0.2475	0.309
Mof_C 	C 	0.5857	0.5021	0.4092	-0.286
Mof_N 	N 	0.4929	0.5054	0.3783	-0.041
Mof_C 	C 	0.3998	0.5079	0.4085	0.042
Mof_N 	N 	0.3994	0.5071	0.4697	-0.115
Mof_C 	C 	0.4921	0.5039	0.5006	0.079
Mof_N 	N 	0.5853	0.5014	0.4704	-0.113
Mof_N 	N 	0.8619	0.498	0.3111	0.155
Mof_C 	C 	0.7658	0.4964	0.283	-0.537
Mof_H 	H 	0.7622	0.4953	0.2413	0.494
Mof_C 	C 	0.6751	0.4964	0.3158	0.05
Mof_H 	H 	0.6095	0.4953	0.2966	0.065
Mof_C 	C 	0.6804	0.4981	0.3768	0.046
Mof_C 	C 	0.7764	0.4997	0.405	-0.177
Mof_H 	H 	0.78	0.5009	0.4467	0.123
Mof_C 	C 	0.8671	0.4997	0.3721	0.215
Mof_H 	H 	0.9327	0.5008	0.3914	-0.022
Mof_N 	N 	0.1366	0.5034	0.3066	-0.032
Mof_C 	C 	0.2289	0.5135	0.2829	-0.039
Mof_H 	H 	0.2308	0.5197	0.2431	0.072
Mof_C 	C 	0.3184	0.5145	0.3174	-0.176
Mof_H 	H 	0.3814	0.5214	0.3012	0.066
Mof_C 	C 	0.3156	0.5055	0.3756	-0.001
Mof_C 	C 	0.2233	0.4954	0.3993	0.003
Mof_H 	H 	0.2214	0.4892	0.4391	0.059
Mof_C 	C 	0.1339	0.4944	0.3648	-0.308
Mof_H 	H 	0.0708	0.4875	0.381	0.112
Mof_N 	N 	0.4778	0.4991	0.6775	-0.084
Mof_C 	C 	0.3901	0.5071	0.6455	-0.073
Mof_H 	H 	0.3256	0.5096	0.665	0.053
Mof_C 	C 	0.3968	0.5115	0.5852	0.402
Mof_H 	H 	0.3369	0.5169	0.5634	-0.043
Mof_C 	C 	0.4912	0.50782	0.5568	0.064
Mof_C 	C 	0.5789	0.49979	0.5887	-0.053
Mof_H 	H 	0.6434	0.4973	0.5693	0.098
Mof_C 	C 	0.5722	0.4954	0.6491	0.023
Mof_H 	H 	0.6321	0.4899	0.6709	0.121
Mof_S 	S 	0.8626	0.51549	0.4408	0.027
Mof_Cl	Cl	0.0462	0.61807	0.5164	-0.242
Mof_Co	Co	0.49743	0.00018	0.75085	1.142
Mof_Co	Co	0.15314	0.75478	0.49251	1.126
Mof_S 	S 	0.864	0.82318	0.4834	-0.042
Mof_N 	N 	0.0273	0.7812	0.4924	-0.292
Mof_C 	C 	0.9695	0.7962	0.4888	0.139
Mof_N 	N 	0.2831	0.7298	0.4873	-0.272
Mof_S 	S 	0.4398	0.6898	0.4764	-0.011
Mof_C 	C 	0.3541	0.7168	0.4847	0.116
Mof_N 	N 	0.5931	0.9968	0.8232	-0.205
Mof_C 	C 	0.6221	0.9906	0.8704	0.34
Mof_S 	S 	0.6474	0.9756	0.9368	0.023
Mof_N 	N 	0.3996	0.0023	0.8252	-0.395
Mof_C 	C 	0.2849	0.9851	0.8168	0.123
Mof_C 	C 	0.3555	0.8256	0.7007	0.097
Mof_N 	N 	0.3983	0.8085	0.7481	-0.134
Mof_C 	C 	0.4534	0.8212	0.7872	0.103
Mof_N 	N 	0.4541	0.8505	0.7943	-0.125
Mof_C 	C 	0.4235	0.8647	0.7448	0.109
Mof_N 	N 	0.3657	0.8531	0.7026	-0.137
Mof_N 	N 	0.2201	0.7819	0.5624	-0.241
Mof_C 	C 	0.289	0.7681	0.5967	0.06
Mof_H 	H 	0.3065	0.7489	0.5888	-0.004
Mof_C 	C 	0.3344	0.7825	0.6441	-0.111
Mof_H 	H 	0.3806	0.7726	0.6696	0.08
Mof_C 	C 	0.3138	0.8104	0.6543	0.05
Mof_C 	C 	0.2408	0.8245	0.6153	-0.127
Mof_H 	H 	0.2187	0.8436	0.6214	0.084
Mof_C 	C 	0.2049	0.8078	0.5675	0.104
Mof_H 	H 	0.1664	0.8171	0.5373	-0.018
Mof_N 	N 	0.5762	0.7718	0.9265	-0.233
Mof_C 	C 	0.5013	0.7624	0.8871	0.081
Mof_H 	H 	0.4779	0.7433	0.892	-0.003
Mof_C 	C 	0.459	0.7769	0.8438	-0.13
Mof_H 	H 	0.4075	0.7686	0.819	0.087
Mof_C 	C 	0.4923	0.8047	0.8354	0.065
Mof_C 	C 	0.5662	0.8152	0.8725	-0.116
Mof_H 	H 	0.5941	0.8337	0.8659	0.099
Mof_C 	C 	0.6014	0.7992	0.9202	0.077
Mof_H 	H 	0.6444	0.808	0.949	0.01
Mof_N 	N 	0.4767	0.95375	0.7471	-0.213
Mof_C 	C 	0.4646	0.9388	0.8006	0.049
Mof_H 	H 	0.4638	0.9487	0.8371	0.032
Mof_C 	C 	0.4546	0.9109	0.7988	-0.09
Mof_H 	H 	0.4643	0.9006	0.8344	0.11
Mof_C 	C 	0.4304	0.8953	0.7477	0.042
Mof_C 	C 	0.4013	0.9135	0.7006	-0.093
Mof_H 	H 	0.3704	0.9056	0.6663	0.075
Mof_C 	C 	0.4159	0.9408	0.7034	0.044
Mof_H 	H 	0.384	0.9525	0.6744	0.03
Mof_N 	N 	0.3793	0.8527	0.2869	-0.133
Mof_C 	C 	0.3676	0.8236	0.2816	0.101
Mof_N 	N 	0.398	0.8081	0.2372	-0.135
Mof_C 	C 	0.4638	0.8225	0.1979	0.103
Mof_N 	N 	0.4891	0.8494	0.2018	-0.126
Mof_C 	C 	0.433	0.8645	0.2428	0.102
Mof_N 	N 	0.217	0.7791	0.4193	-0.236
Mof_C 	C 	0.2626	0.7655	0.3763	0.081
Mof_H 	H 	0.2658	0.7453	0.3766	-0.007
Mof_C 	C 	0.3052	0.7803	0.3313	-0.122
Mof_H 	H 	0.331	0.7695	0.2992	0.082
Mof_C 	C 	0.315	0.8095	0.3275	0.056
Mof_C 	C 	0.2647	0.8226	0.3723	-0.117
Mof_H 	H 	0.2673	0.8428	0.3749	0.081
Mof_C 	C 	0.2102	0.8078	0.4141	0.069
Mof_H 	H 	0.1665	0.818	0.4402	-0.003
Mof_N 	N 	0.5964	0.7731	0.0627	-0.226
Mof_C 	C 	0.5208	0.7603	0.098	0.046
Mof_H 	H 	0.493	0.742	0.0895	0.004
Mof_C 	C 	0.4887	0.7763	0.147	-0.108
Mof_H 	H 	0.4486	0.7679	0.1774	0.079
Mof_C 	C 	0.5167	0.8042	0.1496	0.069
Mof_C 	C 	0.5757	0.8177	0.1103	-0.115
Mof_H 	H 	0.5791	0.8379	0.108	0.117
Mof_C 	C 	0.6366	0.7984	0.0699	0.082
Mof_N 	N 	0.4772	0.95416	0.2462	-0.224
Mof_C 	C 	0.4482	0.9397	0.2946	0.08
Mof_H 	H 	0.4369	0.9498	0.3302	0.005
Mof_C 	C 	0.4345	0.9104	0.2938	-0.13
Mof_H 	H 	0.4126	0.9009	0.3286	0.087
Mof_C 	C 	0.4509	0.8959	0.247	0.075
Mof_C 	C 	0.5089	0.9087	0.1985	-0.102
Mof_H 	H 	0.5469	0.8981	0.1702	0.122
Mof_C 	C 	0.5014	0.9382	0.1993	0.086
Mof_H 	H 	0.5145	0.9479	0.1634	0.04
Mof_Cl	Cl	0.4022	0.93331	0.9474	-0.278
Mof_Cl	Cl	0.4101	0.92902	0.076	-0.273
Mof_Cl	Cl	0.6653	0.92096	0.0647	-0.286
Mof_Cl	Cl	0.6516	0.9282	0.9472	-0.326
Mof_C 	C 	0.5793	0.92155	0.0042	0.332
Mof_C 	C 	0.4869	0.93848	0.0154	0.158
Mof_S 	S 	0.6133	0.982	0.5569	-0.057
Mof_C 	C 	0.603	0.9896	0.6318	0.072
Mof_N 	N 	0.586	0.996	0.6733	-0.212
Mof_N 	N 	0.3958	0.0075	0.6777	-0.536
Mof_C 	C 	0.375	0.0177	0.6397	0.106
Mof_S 	S 	0.3586	0.0336	0.5685	-0.077
Mof_C 	C 	0.915	0.0074	0.5901	-0.047
Mof_N 	N 	0.9051	0.9982	0.5313	-0.131
Mof_C 	C 	0.002	0.0025	0.498	0.053
Mof_N 	N 	0.0876	0.0054	0.5307	-0.133
Mof_C 	C 	0.084	0.0009	0.5911	-0.044
Mof_N 	N 	0.9974	0.0037	0.6215	-0.13
Mof_N 	N 	0.6326	0.9959	0.6918	-0.049
Mof_C 	C 	0.6259	0.9902	0.6319	0.07
Mof_H 	H 	0.5606	0.9858	0.6144	0.003
Mof_C 	C 	0.7148	0.9908	0.5975	-0.093
Mof_H 	H 	0.7103	0.9869	0.5566	0.087
Mof_C 	C 	0.8104	0.9972	0.623	-0.035
Mof_C 	C 	0.8171	0.003	0.6829	0.086
Mof_H 	H 	0.8825	0.0073	0.7004	0.032
Mof_C 	C 	0.7282	0.0023	0.7173	-0.147
Mof_H 	H 	0.7327	0.0062	0.7583	0.099
Mof_N 	N 	0.0086	0.9908	0.317	-0.108
Mof_C 	C 	0.915	0.9873	0.3464	0.114
Mof_H 	H 	0.8537	0.9828	0.325	-0.068
Mof_C 	C 	0.9113	0.9906	0.4072	0.056
Mof_H 	H 	0.8474	0.9882	0.4273	0.088
Mof_C 	C 	0.0011	0.9973	0.4385	0.138
Mof_C 	C 	0.0947	0.0008	0.4091	0.032
Mof_H 	H 	0.156	0.0053	0.4305	0.085
Mof_C 	C 	0.0984	0.9975	0.3484	0.095
Mof_H 	H 	0.1623	0.9999	0.3283	-0.05
Mof_N 	N 	0.3549	0.0042	0.6908	0.362
Mof_C 	C 	0.37	0.011	0.6342	0.123
Mof_H 	H 	0.4355	0.015	0.6167	-0.003
Mof_C 	C 	0.2739	0.0113	0.6053	-0.053
Mof_H 	H 	0.2709	0.0191	0.5667	0.075
Mof_C 	C 	0.1842	0.001	0.6286	-0.202
Mof_C 	C 	0.179	0.9951	0.6804	0.461
Mof_H 	H 	0.1136	0.9925	0.6991	-0.107
Mof_C 	C 	0.2735	0.9923	0.7118	-0.904
Mof_H 	H 	0.2768	0.9818	0.7475	0.309
Mof_C 	C 	0.0857	0.9979	0.9092	-0.287
Mof_N 	N 	0.9929	0.9946	0.8783	-0.04
Mof_C 	C 	0.8998	0.9921	0.9085	0.043
Mof_N 	N 	0.8994	0.9929	0.9697	-0.115
Mof_C 	C 	0.9921	0.9961	0.0006	0.079
Mof_N 	N 	0.0853	0.9986	0.9704	-0.113
Mof_N 	N 	0.3619	0.002	0.8111	0.155
Mof_C 	C 	0.2658	0.0036	0.783	-0.537
Mof_H 	H 	0.2622	0.0047	0.7413	0.494
Mof_C 	C 	0.1751	0.0036	0.8158	0.05
Mof_H 	H 	0.1095	0.0047	0.7966	0.065
Mof_C 	C 	0.1804	0.0019	0.8768	0.046
Mof_C 	C 	0.2764	0.0003	0.905	-0.177
Mof_H 	H 	0.28	0.9991	0.9467	0.123
Mof_C 	C 	0.3671	0.0003	0.8721	0.215
Mof_H 	H 	0.4327	0.9992	0.8914	-0.022
Mof_N 	N 	0.6366	0.9966	0.8066	-0.032
Mof_C 	C 	0.7289	0.9865	0.7829	-0.039
Mof_H 	H 	0.7308	0.9803	0.7431	0.072
Mof_C 	C 	0.8184	0.9855	0.8174	-0.175
Mof_H 	H 	0.8814	0.9786	0.8012	0.066
Mof_C 	C 	0.8156	0.9945	0.8756	-0.001
Mof_C 	C 	0.7233	0.0046	0.8993	0.003
Mof_H 	H 	0.7214	0.0108	0.9391	0.059
Mof_C 	C 	0.6339	0.0056	0.8648	-0.308
Mof_H 	H 	0.5708	0.0125	0.881	0.112
Mof_N 	N 	0.9778	0.0009	0.1775	-0.084
Mof_C 	C 	0.8901	0.9929	0.1455	-0.073
Mof_H 	H 	0.8256	0.9904	0.165	0.053
Mof_C 	C 	0.8968	0.9885	0.0852	0.402
Mof_H 	H 	0.8369	0.9831	0.0634	-0.043
Mof_C 	C 	0.9912	0.99218	0.0568	0.064
Mof_C 	C 	0.0789	0.00021	0.0887	-0.053
Mof_H 	H 	0.1434	0.0027	0.0693	0.098
Mof_C 	C 	0.0722	0.0046	0.1491	0.023
Mof_H 	H 	0.1321	0.0101	0.1709	0.121
Mof_S 	S 	0.3626	0.98451	0.9408	0.027
Mof_Cl	Cl	0.5462	0.88193	0.0164	-0.242
Mof_Co	Co	0.00257	0.50018	0.74915	1.142
Mof_Co	Co	0.34686	0.25478	0.00749	1.126
Mof_S 	S 	0.636	0.32318	0.0166	-0.042
Mof_N 	N 	0.4727	0.2812	0.0076	-0.292
Mof_C 	C 	0.5305	0.2962	0.0112	0.139
Mof_N 	N 	0.2169	0.2298	0.0127	-0.272
Mof_S 	S 	0.0602	0.1898	0.0236	-0.011
Mof_C 	C 	0.1459	0.2168	0.0153	0.116
Mof_N 	N 	0.9069	0.4968	0.6768	-0.205
Mof_C 	C 	0.8779	0.4906	0.6296	0.34
Mof_S 	S 	0.8526	0.4756	0.5632	0.023
Mof_N 	N 	0.1004	0.5023	0.6748	-0.395
Mof_C 	C 	0.2151	0.4851	0.6832	0.123
Mof_C 	C 	0.1445	0.3256	0.7993	0.097
Mof_N 	N 	0.1017	0.3085	0.7519	-0.134
Mof_C 	C 	0.0466	0.3212	0.7128	0.103
Mof_N 	N 	0.0459	0.3505	0.7057	-0.125
Mof_C 	C 	0.0765	0.3647	0.7552	0.109
Mof_N 	N 	0.1343	0.3531	0.7974	-0.137
Mof_N 	N 	0.2799	0.2819	0.9376	-0.241
Mof_C 	C 	0.211	0.2681	0.9033	0.06
Mof_H 	H 	0.1935	0.2489	0.9112	-0.004
Mof_C 	C 	0.1656	0.2825	0.8559	-0.111
Mof_H 	H 	0.1194	0.2726	0.8304	0.08
Mof_C 	C 	0.1862	0.3104	0.8457	0.05
Mof_C 	C 	0.2592	0.3245	0.8847	-0.126
Mof_H 	H 	0.2813	0.3436	0.8786	0.084
Mof_C 	C 	0.2951	0.3078	0.9325	0.104
Mof_H 	H 	0.3336	0.3171	0.9627	-0.018
Mof_N 	N 	0.9238	0.2718	0.5735	-0.233
Mof_C 	C 	0.9987	0.2624	0.6129	0.081
Mof_H 	H 	0.0221	0.2433	0.608	-0.003
Mof_C 	C 	0.041	0.2769	0.6562	-0.13
Mof_H 	H 	0.0925	0.2686	0.681	0.087
Mof_C 	C 	0.0077	0.3047	0.6646	0.065
Mof_C 	C 	0.9338	0.3152	0.6275	-0.116
Mof_H 	H 	0.9059	0.3337	0.6341	0.099
Mof_C 	C 	0.8986	0.2992	0.5798	0.077
Mof_H 	H 	0.8556	0.308	0.551	0.01
Mof_N 	N 	0.0233	0.45375	0.7529	-0.213
Mof_C 	C 	0.0354	0.4388	0.6994	0.049
Mof_H 	H 	0.0362	0.4487	0.6629	0.032
Mof_C 	C 	0.0454	0.4109	0.7012	-0.09
Mof_H 	H 	0.0357	0.4006	0.6656	0.11
Mof_C 	C 	0.0696	0.3953	0.7523	0.042
Mof_C 	C 	0.0987	0.4135	0.7994	-0.093
Mof_H 	H 	0.1296	0.4056	0.8337	0.075
Mof_C 	C 	0.0841	0.4408	0.7966	0.044
Mof_H 	H 	0.116	0.4525	0.8256	0.03
Mof_N 	N 	0.1207	0.3527	0.2131	-0.133
Mof_C 	C 	0.1324	0.3236	0.2184	0.101
Mof_N 	N 	0.102	0.3081	0.2628	-0.135
Mof_C 	C 	0.0362	0.3225	0.3021	0.103
Mof_N 	N 	0.0109	0.3494	0.2982	-0.126
Mof_C 	C 	0.067	0.3645	0.2572	0.102
Mof_N 	N 	0.283	0.2791	0.0807	-0.236
Mof_C 	C 	0.2374	0.2655	0.1237	0.081
Mof_H 	H 	0.2342	0.2453	0.1234	-0.007
Mof_C 	C 	0.1948	0.2803	0.1687	-0.122
Mof_H 	H 	0.169	0.2695	0.2008	0.082
Mof_C 	C 	0.185	0.3095	0.1725	0.056
Mof_C 	C 	0.2353	0.3226	0.1277	-0.117
Mof_H 	H 	0.2327	0.3428	0.1251	0.081
Mof_C 	C 	0.2898	0.3078	0.0859	0.069
Mof_H 	H 	0.3335	0.318	0.0598	-0.003
Mof_N 	N 	0.9036	0.2731	0.4373	-0.226
Mof_C 	C 	0.9792	0.2603	0.402	0.045
Mof_H 	H 	0.007	0.242	0.4105	0.004
Mof_C 	C 	0.0113	0.2763	0.353	-0.107
Mof_H 	H 	0.0514	0.2679	0.3226	0.079
Mof_C 	C 	0.9833	0.3042	0.3504	0.068
Mof_C 	C 	0.9243	0.3177	0.3897	-0.115
Mof_H 	H 	0.9209	0.3379	0.392	0.117
Mof_C 	C 	0.8634	0.2984	0.4301	0.082
Mof_N 	N 	0.0228	0.45416	0.2538	-0.224
Mof_C 	C 	0.0518	0.4397	0.2054	0.08
Mof_H 	H 	0.0631	0.4498	0.1698	0.005
Mof_C 	C 	0.0655	0.4104	0.2062	-0.13
Mof_H 	H 	0.0874	0.4009	0.1714	0.087
Mof_C 	C 	0.0491	0.3959	0.253	0.075
Mof_C 	C 	0.9911	0.4087	0.3015	-0.103
Mof_H 	H 	0.9531	0.3981	0.3298	0.122
Mof_C 	C 	0.9986	0.4382	0.3007	0.086
Mof_H 	H 	0.9855	0.4479	0.3366	0.04
Mof_Cl	Cl	0.0978	0.43331	0.5526	-0.278
Mof_Cl	Cl	0.0899	0.42902	0.424	-0.273
Mof_Cl	Cl	0.8347	0.42096	0.4353	-0.286
Mof_Cl	Cl	0.8484	0.4282	0.5528	-0.326
Mof_C 	C 	0.9207	0.42155	0.4958	0.332
Mof_C 	C 	0.0131	0.43848	0.4846	0.158
Mof_S 	S 	0.8867	0.482	0.9431	-0.057
Mof_C 	C 	0.897	0.4896	0.8682	0.072
Mof_N 	N 	0.914	0.496	0.8267	-0.212
Mof_N 	N 	0.1042	0.5075	0.8223	-0.536
Mof_C 	C 	0.125	0.5177	0.8603	0.107
Mof_S 	S 	0.1414	0.5336	0.9315	-0.077
Mof_C 	C 	0.585	0.5074	0.9099	-0.047
Mof_N 	N 	0.5949	0.4982	0.9687	-0.131
Mof_C 	C 	0.498	0.5025	0.002	0.053
Mof_N 	N 	0.4124	0.5054	0.9693	-0.133
Mof_C 	C 	0.416	0.5009	0.9089	-0.044
Mof_N 	N 	0.5026	0.5037	0.8785	-0.13
Mof_N 	N 	0.8674	0.4959	0.8082	-0.049
Mof_C 	C 	0.8741	0.4902	0.8681	0.07
Mof_H 	H 	0.9394	0.4858	0.8856	0.003
Mof_C 	C 	0.7852	0.4908	0.9025	-0.093
Mof_H 	H 	0.7897	0.4869	0.9434	0.087
Mof_C 	C 	0.6896	0.4972	0.877	-0.035
Mof_C 	C 	0.6829	0.503	0.8171	0.086
Mof_H 	H 	0.6175	0.5073	0.7996	0.031
Mof_C 	C 	0.7718	0.5023	0.7827	-0.147
Mof_H 	H 	0.7673	0.5062	0.7417	0.098
Mof_N 	N 	0.4914	0.4908	0.183	-0.108
Mof_C 	C 	0.585	0.4873	0.1536	0.114
Mof_H 	H 	0.6463	0.4828	0.175	-0.068
Mof_C 	C 	0.5887	0.4906	0.0928	0.056
Mof_H 	H 	0.6526	0.4882	0.0727	0.088
Mof_C 	C 	0.4989	0.4973	0.0615	0.138
Mof_C 	C 	0.4053	0.5008	0.0909	0.032
Mof_H 	H 	0.344	0.5053	0.0695	0.085
Mof_C 	C 	0.4016	0.4975	0.1516	0.095
Mof_H 	H 	0.3377	0.4999	0.1717	-0.05
Mof_N 	N 	0.1451	0.5042	0.8092	0.363
Mof_C 	C 	0.13	0.511	0.8658	0.123
Mof_H 	H 	0.0645	0.515	0.8833	-0.003
Mof_C 	C 	0.2261	0.5113	0.8947	-0.053
Mof_H 	H 	0.2291	0.5191	0.9333	0.075
Mof_C 	C 	0.3158	0.501	0.8714	-0.202
Mof_C 	C 	0.321	0.4951	0.8196	0.461
Mof_H 	H 	0.3864	0.4925	0.8009	-0.107
Mof_C 	C 	0.2265	0.4923	0.7882	-0.904
Mof_H 	H 	0.2232	0.4818	0.7525	0.309
Mof_C 	C 	0.4143	0.4979	0.5908	-0.286
Mof_N 	N 	0.5071	0.4946	0.6217	-0.041
Mof_C 	C 	0.6002	0.4921	0.5915	0.042
Mof_N 	N 	0.6006	0.4929	0.5303	-0.115
Mof_C 	C 	0.5079	0.4961	0.4994	0.079
Mof_N 	N 	0.4147	0.4986	0.5296	-0.113
Mof_N 	N 	0.1381	0.502	0.6889	0.155
Mof_C 	C 	0.2342	0.5036	0.717	-0.537
Mof_H 	H 	0.2378	0.5047	0.7587	0.494
Mof_C 	C 	0.3249	0.5036	0.6842	0.05
Mof_H 	H 	0.3905	0.5047	0.7034	0.065
Mof_C 	C 	0.3196	0.5019	0.6232	0.046
Mof_C 	C 	0.2236	0.5003	0.595	-0.177
Mof_H 	H 	0.22	0.4991	0.5533	0.123
Mof_C 	C 	0.1329	0.5003	0.6279	0.215
Mof_H 	H 	0.0673	0.4992	0.6086	-0.022
Mof_N 	N 	0.8634	0.4966	0.6934	-0.032
Mof_C 	C 	0.7711	0.4865	0.7171	-0.039
Mof_H 	H 	0.7692	0.4803	0.7569	0.072
Mof_C 	C 	0.6816	0.4855	0.6826	-0.176
Mof_H 	H 	0.6186	0.4786	0.6988	0.066
Mof_C 	C 	0.6844	0.4945	0.6244	-0.001
Mof_C 	C 	0.7767	0.5046	0.6007	0.003
Mof_H 	H 	0.7786	0.5108	0.5609	0.059
Mof_C 	C 	0.8661	0.5056	0.6352	-0.308
Mof_H 	H 	0.9292	0.5125	0.619	0.112
Mof_N 	N 	0.5222	0.5009	0.3225	-0.084
Mof_C 	C 	0.6099	0.4929	0.3545	-0.073
Mof_H 	H 	0.6744	0.4904	0.335	0.053
Mof_C 	C 	0.6032	0.4885	0.4148	0.402
Mof_H 	H 	0.6631	0.4831	0.4366	-0.043
Mof_C 	C 	0.5088	0.49218	0.4432	0.064
Mof_C 	C 	0.4211	0.50021	0.4113	-0.053
Mof_H 	H 	0.3566	0.5027	0.4307	0.098
Mof_C 	C 	0.4278	0.5046	0.3509	0.023
Mof_H 	H 	0.3679	0.5101	0.3291	0.121
Mof_S 	S 	0.1374	0.48451	0.5592	0.027
Mof_Cl	Cl	0.9538	0.38193	0.4836	-0.242
_end
