# CIF file generated by openbabel 3.1.0, see https://openbabel.org
data_I
_chemical_name_common 'image0'
_cell_length_a 37.441
_cell_length_b 37.449
_cell_length_c 27.25
_cell_angle_alpha 90
_cell_angle_beta 90
_cell_angle_gamma 90
_space_group_name_H-M_alt 'P 1'
_space_group_name_Hall 'P 1'
loop_
    _symmetry_equiv_pos_as_xyz
    x,y,z
loop_
    _atom_site_label
    _atom_site_type_symbol
    _atom_site_fract_x
    _atom_site_fract_y
    _atom_site_fract_z
    _atom_site_occupancy
    Cu1      Cu       0.00102    0.00335    0.14958    1.000
    Cu2      Cu       0.99089    0.99795    0.24613    1.000
    Cu3      Cu       0.23856    0.28367    0.03999    1.000
    N1       N        0.09341    0.30135    0.34180    1.000
    N2       N        0.09182    0.19675    0.23600    1.000
    N3       N        0.19445    0.90888    0.22460    1.000
    O1       O        0.02520    0.04760    0.17054    1.000
    O2       O        0.04497    0.97601    0.16470    1.000
    O3       O        0.26616    0.79492    0.08120    1.000
    O4       O        0.20991    0.77551    0.08170    1.000
    O5       O        0.03889    0.97570    0.24578    1.000
    O6       O        0.01457    0.04553    0.25101    1.000
    O7       O        0.44550    0.97811    0.27184    1.000
    O8       O        0.23272    0.79443    0.48020    1.000
    O9       O        0.28887    0.77646    0.47890    1.000
    O10      O        0.45533    0.97111    0.35204    1.000
    O11      O        0.20498    0.26665    0.08910    1.000
    O12      O        0.22513    0.21020    0.09030    1.000
    O13      O        0.02528    0.45707    0.35680    1.000
    O14      O        0.02990    0.45143    0.27513    1.000
    O15      O        0.22472    0.29159    0.49050    1.000
    O16      O        0.20582    0.23482    0.49020    1.000
    C1       C        0.07391    0.27466    0.31470    1.000
    C2       C        0.09156    0.24868    0.28840    1.000
    H1       H        0.11640    0.24870    0.28730    1.000
    C3       C        0.07297    0.22308    0.26390    1.000
    C4       C        0.07597    0.16252    0.22900    1.000
    C5       C        0.07310    0.14630    0.18430    1.000
    H2       H        0.08220    0.15790    0.15680    1.000
    C6       C        0.05740    0.11355    0.17840    1.000
    H3       H        0.05560    0.10350    0.14730    1.000
    C7       C        0.04399    0.09513    0.21890    1.000
    C8       C        0.02714    0.06006    0.21290    1.000
    C9       C        0.05558    0.96924    0.20710    1.000
    C10      C        0.09080    0.95164    0.21250    1.000
    C11      C        0.11010    0.94230    0.17200    1.000
    H4       H        0.09970    0.94530    0.14130    1.000
    C12      C        0.14450    0.92840    0.17430    1.000
    H5       H        0.15750    0.92360    0.14610    1.000
    C13      C        0.15858    0.92210    0.22120    1.000
    C14      C        0.21886    0.92700    0.25340    1.000
    C15      C        0.24538    0.90870    0.27970    1.000
    H6       H        0.24610    0.88390    0.27900    1.000
    C16      C        0.27000    0.92720    0.30630    1.000
    C17      C        0.26850    0.96440    0.30910    1.000
    H7       H        0.28520    0.97690    0.32750    1.000
    C18      C        0.24250    0.98200    0.28480    1.000
    H8       H        0.24070    0.00670    0.28750    1.000
    C19      C        0.21820    0.96300    0.25540    1.000
    H9       H        0.20140    0.97550    0.23700    1.000
    C20      C        0.20430    0.88020    0.19330    1.000
    C21      C        0.23760    0.87900    0.17280    1.000
    H10      H        0.25360    0.89730    0.18010    1.000
    C22      C        0.24870    0.85210    0.14200    1.000
    H11      H        0.27160    0.85200    0.12890    1.000
    C23      C        0.22400    0.82400    0.13060    1.000
    C24      C        0.23580    0.79580    0.09570    1.000
    C25      C        0.18990    0.82510    0.15080    1.000
    H12      H        0.17350    0.80740    0.14310    1.000
    C26      C        0.18030    0.85270    0.18270    1.000
    H13      H        0.15780    0.85280    0.19690    1.000
    C27      C        0.13975    0.93070    0.26180    1.000
    H14      H        0.14950    0.92670    0.29270    1.000
    C28      C        0.10594    0.94570    0.25750    1.000
    H15      H        0.09340    0.95180    0.28570    1.000
    C29      C        0.43655    0.96824    0.31350    1.000
    C30      C        0.40094    0.95071    0.31920    1.000
    C31      C        0.38809    0.94050    0.36420    1.000
    H16      H        0.40240    0.94310    0.39190    1.000
    C32      C        0.35419    0.92660    0.36870    1.000
    H17      H        0.34570    0.92000    0.39940    1.000
    C33      C        0.33290    0.92230    0.32810    1.000
    C34      C        0.34581    0.93230    0.28240    1.000
    H18      H        0.33140    0.92960    0.25490    1.000
    C35      C        0.37909    0.94600    0.27750    1.000
    H19      H        0.38760    0.95230    0.24660    1.000
    N4       N        0.29766    0.90820    0.33240    1.000
    C36      C        0.28929    0.87940    0.36460    1.000
    C37      C        0.25588    0.87770    0.38760    1.000
    H20      H        0.23920    0.89540    0.38090    1.000
    C38      C        0.24720    0.85250    0.41780    1.000
    H21      H        0.22430    0.85200    0.43110    1.000
    C39      C        0.27260    0.82540    0.43100    1.000
    C40      C        0.26360    0.79660    0.46680    1.000
    C41      C        0.30616    0.82670    0.40850    1.000
    H22      H        0.32340    0.80970    0.41610    1.000
    C42      C        0.31390    0.85380    0.37460    1.000
    H23      H        0.33590    0.85410    0.35880    1.000
    C43      C        0.04860    0.11005    0.26520    1.000
    H24      H        0.04120    0.09760    0.29300    1.000
    C44      C        0.06440    0.14380    0.27020    1.000
    H25      H        0.06720    0.15370    0.30120    1.000
    C45      C        0.11954    0.20724    0.20430    1.000
    C46      C        0.14760    0.18339    0.19390    1.000
    H26      H        0.14790    0.16100    0.20870    1.000
    C47      C        0.17450    0.19279    0.16230    1.000
    H27      H        0.19240    0.17650    0.15500    1.000
    C48      C        0.17510    0.22530    0.14180    1.000
    C49      C        0.20450    0.23430    0.10450    1.000
    C50      C        0.14820    0.24940    0.15200    1.000
    H28      H        0.14910    0.27220    0.13830    1.000
    C51      C        0.12060    0.24055    0.18160    1.000
    H29      H        0.10230    0.25680    0.18690    1.000
    C52      C        0.03640    0.22320    0.26550    1.000
    H30      H        0.02340    0.20570    0.24910    1.000
    C53      C        0.01890    0.24980    0.29170    1.000
    H31      H        0.99410    0.25020    0.29190    1.000
    C54      C        0.03660    0.27450    0.31650    1.000
    H32      H        0.02440    0.29150    0.33490    1.000
    C55      C        0.08075    0.33753    0.33690    1.000
    C56      C        0.07360    0.35106    0.28970    1.000
    H33      H        0.07920    0.33740    0.26220    1.000
    C57      C        0.05860    0.38445    0.28370    1.000
    H34      H        0.05330    0.39290    0.25240    1.000
    C58      C        0.05126    0.40527    0.32440    1.000
    C59      C        0.03444    0.44074    0.31700    1.000
    C60      C        0.05920    0.39259    0.37170    1.000
    H35      H        0.05440    0.40660    0.39910    1.000
    C61      C        0.07450    0.35848    0.37720    1.000
    H36      H        0.08030    0.35010    0.40830    1.000
    C62      C        0.12078    0.29301    0.37460    1.000
    C63      C        0.14720    0.31775    0.38640    1.000
    H37      H        0.14620    0.34050    0.37290    1.000
    C64      C        0.17410    0.30925    0.41700    1.000
    H38      H        0.19190    0.32590    0.42340    1.000
    C65      C        0.17526    0.27578    0.43900    1.000
    C66      C        0.20420    0.26680    0.47570    1.000
    C67      C        0.15060    0.25200    0.42790    1.000
    H39      H        0.15210    0.22920    0.44150    1.000
    C68      C        0.12220    0.26006    0.39620    1.000
    H40      H        0.10460    0.24320    0.39000    1.000
    N5       N        0.97543    0.98961    0.31800    1.000
    C69      C        0.99230    0.00040    0.36220    1.000
    H41      H        0.01310    0.01400    0.36460    1.000
    N6       N        0.97200    0.98700    0.40206    1.000
    C70      C        0.94250    0.96780    0.38250    1.000
    H42      H        0.92490    0.95620    0.40050    1.000
    C71      C        0.94460    0.96950    0.33050    1.000
    H43      H        0.92870    0.95910    0.30850    1.000
    N7       N        0.21820    0.33785    0.04050    1.000
    C72      C        0.18990    0.35020    0.07090    1.000
    H44      H        0.18050    0.33820    0.09790    1.000
    N8       N        0.17870    0.38390    0.05290    1.000
    C73      C        0.19990    0.39250    0.01140    1.000
    H45      H        0.19810    0.41310    0.99250    1.000
    C74      C        0.22430    0.36400    0.00370    1.000
    H46      H        0.24130    0.36270    0.97890    1.000
    C75      C        0.98810    0.99530    0.45320    1.000
    C76      C        0.96550    0.99140    0.49050    1.000
    H47      H        0.94200    0.98510    0.48400    1.000
    C77      C        0.14490    0.40220    0.07510    1.000
    C78      C        0.02430    0.00370    0.46290    1.000
    H48      H        0.04070    0.00580    0.43740    1.000
    Cu4      Cu       0.28340    0.76109    0.03072    1.000
    Cu5      Cu       0.49898    0.49665    0.14958    1.000
    Cu6      Cu       0.50911    0.50205    0.24613    1.000
    Cu7      Cu       0.26144    0.21633    0.03999    1.000
    N9       N        0.40659    0.19865    0.34180    1.000
    N10      N        0.40818    0.30325    0.23600    1.000
    N11      N        0.30555    0.59112    0.22460    1.000
    O17      O        0.47480    0.45240    0.17054    1.000
    O18      O        0.45503    0.52399    0.16470    1.000
    O19      O        0.23384    0.70508    0.08120    1.000
    O20      O        0.29009    0.72449    0.08170    1.000
    O21      O        0.46111    0.52430    0.24578    1.000
    O22      O        0.48543    0.45447    0.25101    1.000
    O23      O        0.05450    0.52189    0.27184    1.000
    O24      O        0.26728    0.70557    0.48020    1.000
    O25      O        0.21113    0.72354    0.47890    1.000
    O26      O        0.04467    0.52889    0.35204    1.000
    O27      O        0.29502    0.23335    0.08910    1.000
    O28      O        0.27487    0.28980    0.09030    1.000
    O29      O        0.47472    0.04293    0.35680    1.000
    O30      O        0.47010    0.04857    0.27513    1.000
    O31      O        0.27528    0.20841    0.49050    1.000
    O32      O        0.29418    0.26518    0.49020    1.000
    C79      C        0.42609    0.22534    0.31470    1.000
    C80      C        0.40844    0.25132    0.28840    1.000
    H49      H        0.38360    0.25130    0.28730    1.000
    C81      C        0.42703    0.27692    0.26390    1.000
    C82      C        0.42403    0.33748    0.22900    1.000
    C83      C        0.42690    0.35370    0.18430    1.000
    H50      H        0.41780    0.34210    0.15680    1.000
    C84      C        0.44260    0.38645    0.17840    1.000
    H51      H        0.44440    0.39650    0.14730    1.000
    C85      C        0.45601    0.40487    0.21890    1.000
    C86      C        0.47286    0.43994    0.21290    1.000
    C87      C        0.44442    0.53076    0.20710    1.000
    C88      C        0.40920    0.54836    0.21250    1.000
    C89      C        0.38990    0.55770    0.17200    1.000
    H52      H        0.40030    0.55470    0.14130    1.000
    C90      C        0.35550    0.57160    0.17430    1.000
    H53      H        0.34250    0.57640    0.14610    1.000
    C91      C        0.34142    0.57790    0.22120    1.000
    C92      C        0.28114    0.57300    0.25340    1.000
    C93      C        0.25462    0.59130    0.27970    1.000
    H54      H        0.25390    0.61610    0.27900    1.000
    C94      C        0.23000    0.57280    0.30630    1.000
    C95      C        0.23150    0.53560    0.30910    1.000
    H55      H        0.21480    0.52310    0.32750    1.000
    C96      C        0.25750    0.51800    0.28480    1.000
    H56      H        0.25930    0.49330    0.28750    1.000
    C97      C        0.28180    0.53700    0.25540    1.000
    H57      H        0.29860    0.52450    0.23700    1.000
    C98      C        0.29570    0.61980    0.19330    1.000
    C99      C        0.26240    0.62100    0.17280    1.000
    H58      H        0.24640    0.60270    0.18010    1.000
    C100     C        0.25130    0.64790    0.14200    1.000
    H59      H        0.22840    0.64800    0.12890    1.000
    C101     C        0.27600    0.67600    0.13060    1.000
    C102     C        0.26420    0.70420    0.09570    1.000
    C103     C        0.31010    0.67490    0.15080    1.000
    H60      H        0.32650    0.69260    0.14310    1.000
    C104     C        0.31970    0.64730    0.18270    1.000
    H61      H        0.34220    0.64720    0.19690    1.000
    C105     C        0.36025    0.56930    0.26180    1.000
    H62      H        0.35050    0.57330    0.29270    1.000
    C106     C        0.39406    0.55430    0.25750    1.000
    H63      H        0.40660    0.54820    0.28570    1.000
    C107     C        0.06345    0.53176    0.31350    1.000
    C108     C        0.09906    0.54929    0.31920    1.000
    C109     C        0.11191    0.55950    0.36420    1.000
    H64      H        0.09760    0.55690    0.39190    1.000
    C110     C        0.14581    0.57340    0.36870    1.000
    H65      H        0.15430    0.58000    0.39940    1.000
    C111     C        0.16710    0.57770    0.32810    1.000
    C112     C        0.15419    0.56770    0.28240    1.000
    H66      H        0.16860    0.57040    0.25490    1.000
    C113     C        0.12091    0.55400    0.27750    1.000
    H67      H        0.11240    0.54770    0.24660    1.000
    N12      N        0.20234    0.59180    0.33240    1.000
    C114     C        0.21071    0.62060    0.36460    1.000
    C115     C        0.24412    0.62230    0.38760    1.000
    H68      H        0.26080    0.60460    0.38090    1.000
    C116     C        0.25280    0.64750    0.41780    1.000
    H69      H        0.27570    0.64800    0.43110    1.000
    C117     C        0.22740    0.67460    0.43100    1.000
    C118     C        0.23640    0.70340    0.46680    1.000
    C119     C        0.19384    0.67330    0.40850    1.000
    H70      H        0.17660    0.69030    0.41610    1.000
    C120     C        0.18610    0.64620    0.37460    1.000
    H71      H        0.16410    0.64590    0.35880    1.000
    C121     C        0.45140    0.38995    0.26520    1.000
    H72      H        0.45880    0.40240    0.29300    1.000
    C122     C        0.43560    0.35620    0.27020    1.000
    H73      H        0.43280    0.34630    0.30120    1.000
    C123     C        0.38046    0.29276    0.20430    1.000
    C124     C        0.35240    0.31661    0.19390    1.000
    H74      H        0.35210    0.33900    0.20870    1.000
    C125     C        0.32550    0.30721    0.16230    1.000
    H75      H        0.30760    0.32350    0.15500    1.000
    C126     C        0.32490    0.27470    0.14180    1.000
    C127     C        0.29550    0.26570    0.10450    1.000
    C128     C        0.35180    0.25060    0.15200    1.000
    H76      H        0.35090    0.22780    0.13830    1.000
    C129     C        0.37940    0.25945    0.18160    1.000
    H77      H        0.39770    0.24320    0.18690    1.000
    C130     C        0.46360    0.27680    0.26550    1.000
    H78      H        0.47660    0.29430    0.24910    1.000
    C131     C        0.48110    0.25020    0.29170    1.000
    H79      H        0.50590    0.24980    0.29190    1.000
    C132     C        0.46340    0.22550    0.31650    1.000
    H80      H        0.47560    0.20850    0.33490    1.000
    C133     C        0.41925    0.16247    0.33690    1.000
    C134     C        0.42640    0.14894    0.28970    1.000
    H81      H        0.42080    0.16260    0.26220    1.000
    C135     C        0.44140    0.11555    0.28370    1.000
    H82      H        0.44670    0.10710    0.25240    1.000
    C136     C        0.44874    0.09473    0.32440    1.000
    C137     C        0.46556    0.05926    0.31700    1.000
    C138     C        0.44080    0.10741    0.37170    1.000
    H83      H        0.44560    0.09340    0.39910    1.000
    C139     C        0.42550    0.14152    0.37720    1.000
    H84      H        0.41970    0.14990    0.40830    1.000
    C140     C        0.37922    0.20699    0.37460    1.000
    C141     C        0.35280    0.18225    0.38640    1.000
    H85      H        0.35380    0.15950    0.37290    1.000
    C142     C        0.32590    0.19075    0.41700    1.000
    H86      H        0.30810    0.17410    0.42340    1.000
    C143     C        0.32474    0.22422    0.43900    1.000
    C144     C        0.29580    0.23320    0.47570    1.000
    C145     C        0.34940    0.24800    0.42790    1.000
    H87      H        0.34790    0.27080    0.44150    1.000
    C146     C        0.37780    0.23994    0.39620    1.000
    H88      H        0.39540    0.25680    0.39000    1.000
    N13      N        0.52457    0.51039    0.31800    1.000
    C147     C        0.50770    0.49960    0.36220    1.000
    H89      H        0.48690    0.48600    0.36460    1.000
    N14      N        0.52800    0.51300    0.40206    1.000
    C148     C        0.55750    0.53220    0.38250    1.000
    H90      H        0.57510    0.54380    0.40050    1.000
    C149     C        0.55540    0.53050    0.33050    1.000
    H91      H        0.57130    0.54090    0.30850    1.000
    N15      N        0.28180    0.16215    0.04050    1.000
    C150     C        0.31010    0.14980    0.07090    1.000
    H92      H        0.31950    0.16180    0.09790    1.000
    N16      N        0.32130    0.11610    0.05290    1.000
    C151     C        0.30010    0.10750    0.01140    1.000
    H93      H        0.30190    0.08690    0.99250    1.000
    C152     C        0.27570    0.13600    0.00370    1.000
    H94      H        0.25870    0.13730    0.97890    1.000
    C153     C        0.51190    0.50470    0.45320    1.000
    C154     C        0.53450    0.50860    0.49050    1.000
    H95      H        0.55800    0.51490    0.48400    1.000
    C155     C        0.35510    0.09780    0.07510    1.000
    C156     C        0.47570    0.49630    0.46290    1.000
    H96      H        0.45930    0.49420    0.43740    1.000
    Cu8      Cu       0.21660    0.73891    0.03072    1.000
    Cu9      Cu       0.99898    0.50335    0.35042    1.000
    Cu10     Cu       0.00911    0.49795    0.25387    1.000
    Cu11     Cu       0.76144    0.78367    0.46001    1.000
    N17      N        0.90659    0.80135    0.15820    1.000
    N18      N        0.90818    0.69675    0.26400    1.000
    N19      N        0.80555    0.40888    0.27540    1.000
    O33      O        0.97480    0.54760    0.32946    1.000
    O34      O        0.95503    0.47601    0.33530    1.000
    O35      O        0.73384    0.29492    0.41880    1.000
    O36      O        0.79009    0.27551    0.41830    1.000
    O37      O        0.96111    0.47570    0.25422    1.000
    O38      O        0.98543    0.54553    0.24899    1.000
    O39      O        0.55450    0.47811    0.22816    1.000
    O40      O        0.76728    0.29443    0.01980    1.000
    O41      O        0.71113    0.27646    0.02110    1.000
    O42      O        0.54467    0.47111    0.14796    1.000
    O43      O        0.79502    0.76665    0.41090    1.000
    O44      O        0.77487    0.71020    0.40970    1.000
    O45      O        0.97472    0.95707    0.14320    1.000
    O46      O        0.97010    0.95143    0.22487    1.000
    O47      O        0.77528    0.79159    0.00950    1.000
    O48      O        0.79418    0.73482    0.00980    1.000
    C157     C        0.92609    0.77466    0.18530    1.000
    C158     C        0.90844    0.74868    0.21160    1.000
    H97      H        0.88360    0.74870    0.21270    1.000
    C159     C        0.92703    0.72308    0.23610    1.000
    C160     C        0.92403    0.66252    0.27100    1.000
    C161     C        0.92690    0.64630    0.31570    1.000
    H98      H        0.91780    0.65790    0.34320    1.000
    C162     C        0.94260    0.61355    0.32160    1.000
    H99      H        0.94440    0.60350    0.35270    1.000
    C163     C        0.95601    0.59513    0.28110    1.000
    C164     C        0.97286    0.56006    0.28710    1.000
    C165     C        0.94442    0.46924    0.29290    1.000
    C166     C        0.90920    0.45164    0.28750    1.000
    C167     C        0.88990    0.44230    0.32800    1.000
    H100     H        0.90030    0.44530    0.35870    1.000
    C168     C        0.85550    0.42840    0.32570    1.000
    H101     H        0.84250    0.42360    0.35390    1.000
    C169     C        0.84142    0.42210    0.27880    1.000
    C170     C        0.78114    0.42700    0.24660    1.000
    C171     C        0.75462    0.40870    0.22030    1.000
    H102     H        0.75390    0.38390    0.22100    1.000
    C172     C        0.73000    0.42720    0.19370    1.000
    C173     C        0.73150    0.46440    0.19090    1.000
    H103     H        0.71480    0.47690    0.17250    1.000
    C174     C        0.75750    0.48200    0.21520    1.000
    H104     H        0.75930    0.50670    0.21250    1.000
    C175     C        0.78180    0.46300    0.24460    1.000
    H105     H        0.79860    0.47550    0.26300    1.000
    C176     C        0.79570    0.38020    0.30670    1.000
    C177     C        0.76240    0.37900    0.32720    1.000
    H106     H        0.74640    0.39730    0.31990    1.000
    C178     C        0.75130    0.35210    0.35800    1.000
    H107     H        0.72840    0.35200    0.37110    1.000
    C179     C        0.77600    0.32400    0.36940    1.000
    C180     C        0.76420    0.29580    0.40430    1.000
    C181     C        0.81010    0.32510    0.34920    1.000
    H108     H        0.82650    0.30740    0.35690    1.000
    C182     C        0.81970    0.35270    0.31730    1.000
    H109     H        0.84220    0.35280    0.30310    1.000
    C183     C        0.86025    0.43070    0.23820    1.000
    H110     H        0.85050    0.42670    0.20730    1.000
    C184     C        0.89406    0.44570    0.24250    1.000
    H111     H        0.90660    0.45180    0.21430    1.000
    C185     C        0.56345    0.46824    0.18650    1.000
    C186     C        0.59906    0.45071    0.18080    1.000
    C187     C        0.61191    0.44050    0.13580    1.000
    H112     H        0.59760    0.44310    0.10810    1.000
    C188     C        0.64581    0.42660    0.13130    1.000
    H113     H        0.65430    0.42000    0.10060    1.000
    C189     C        0.66710    0.42230    0.17190    1.000
    C190     C        0.65419    0.43230    0.21760    1.000
    H114     H        0.66860    0.42960    0.24510    1.000
    C191     C        0.62091    0.44600    0.22250    1.000
    H115     H        0.61240    0.45230    0.25340    1.000
    N20      N        0.70234    0.40820    0.16760    1.000
    C192     C        0.71071    0.37940    0.13540    1.000
    C193     C        0.74412    0.37770    0.11240    1.000
    H116     H        0.76080    0.39540    0.11910    1.000
    C194     C        0.75280    0.35250    0.08220    1.000
    H117     H        0.77570    0.35200    0.06890    1.000
    C195     C        0.72740    0.32540    0.06900    1.000
    C196     C        0.73640    0.29660    0.03320    1.000
    C197     C        0.69384    0.32670    0.09150    1.000
    H118     H        0.67660    0.30970    0.08390    1.000
    C198     C        0.68610    0.35380    0.12540    1.000
    H119     H        0.66410    0.35410    0.14120    1.000
    C199     C        0.95140    0.61005    0.23480    1.000
    H120     H        0.95880    0.59760    0.20700    1.000
    C200     C        0.93560    0.64380    0.22980    1.000
    H121     H        0.93280    0.65370    0.19880    1.000
    C201     C        0.88046    0.70724    0.29570    1.000
    C202     C        0.85240    0.68339    0.30610    1.000
    H122     H        0.85210    0.66100    0.29130    1.000
    C203     C        0.82550    0.69279    0.33770    1.000
    H123     H        0.80760    0.67650    0.34500    1.000
    C204     C        0.82490    0.72530    0.35820    1.000
    C205     C        0.79550    0.73430    0.39550    1.000
    C206     C        0.85180    0.74940    0.34800    1.000
    H124     H        0.85090    0.77220    0.36170    1.000
    C207     C        0.87940    0.74055    0.31840    1.000
    H125     H        0.89770    0.75680    0.31310    1.000
    C208     C        0.96360    0.72320    0.23450    1.000
    H126     H        0.97660    0.70570    0.25090    1.000
    C209     C        0.98110    0.74980    0.20830    1.000
    H127     H        0.00590    0.75020    0.20810    1.000
    C210     C        0.96340    0.77450    0.18350    1.000
    H128     H        0.97560    0.79150    0.16510    1.000
    C211     C        0.91925    0.83753    0.16310    1.000
    C212     C        0.92640    0.85106    0.21030    1.000
    H129     H        0.92080    0.83740    0.23780    1.000
    C213     C        0.94140    0.88445    0.21630    1.000
    H130     H        0.94670    0.89290    0.24760    1.000
    C214     C        0.94874    0.90527    0.17560    1.000
    C215     C        0.96556    0.94074    0.18300    1.000
    C216     C        0.94080    0.89259    0.12830    1.000
    H131     H        0.94560    0.90660    0.10090    1.000
    C217     C        0.92550    0.85848    0.12280    1.000
    H132     H        0.91970    0.85010    0.09170    1.000
    C218     C        0.87922    0.79301    0.12540    1.000
    C219     C        0.85280    0.81775    0.11360    1.000
    H133     H        0.85380    0.84050    0.12710    1.000
    C220     C        0.82590    0.80925    0.08300    1.000
    H134     H        0.80810    0.82590    0.07660    1.000
    C221     C        0.82474    0.77578    0.06100    1.000
    C222     C        0.79580    0.76680    0.02430    1.000
    C223     C        0.84940    0.75200    0.07210    1.000
    H135     H        0.84790    0.72920    0.05850    1.000
    C224     C        0.87780    0.76006    0.10380    1.000
    H136     H        0.89540    0.74320    0.11000    1.000
    N21      N        0.02457    0.48961    0.18200    1.000
    C225     C        0.00770    0.50040    0.13780    1.000
    H137     H        0.98690    0.51400    0.13540    1.000
    N22      N        0.02800    0.48700    0.09794    1.000
    C226     C        0.05750    0.46780    0.11750    1.000
    H138     H        0.07510    0.45620    0.09950    1.000
    C227     C        0.05540    0.46950    0.16950    1.000
    H139     H        0.07130    0.45910    0.19150    1.000
    N23      N        0.78180    0.83785    0.45950    1.000
    C228     C        0.81010    0.85020    0.42910    1.000
    H140     H        0.81950    0.83820    0.40210    1.000
    N24      N        0.82130    0.88390    0.44710    1.000
    C229     C        0.80010    0.89250    0.48860    1.000
    H141     H        0.80190    0.91310    0.50750    1.000
    C230     C        0.77570    0.86400    0.49630    1.000
    H142     H        0.75870    0.86270    0.52110    1.000
    C231     C        0.01190    0.49530    0.04680    1.000
    C232     C        0.03450    0.49140    0.00950    1.000
    H143     H        0.05800    0.48510    0.01600    1.000
    C233     C        0.85510    0.90220    0.42490    1.000
    C234     C        0.97570    0.50370    0.03710    1.000
    H144     H        0.95930    0.50580    0.06260    1.000
    Cu12     Cu       0.71660    0.26109    0.46928    1.000
    Cu13     Cu       0.50102    0.99665    0.35042    1.000
    Cu14     Cu       0.49089    0.00205    0.25387    1.000
    Cu15     Cu       0.73856    0.71633    0.46001    1.000
    N25      N        0.59341    0.69865    0.15820    1.000
    N26      N        0.59182    0.80325    0.26400    1.000
    N27      N        0.69445    0.09112    0.27540    1.000
    O49      O        0.52520    0.95240    0.32946    1.000
    O50      O        0.54497    0.02399    0.33530    1.000
    O51      O        0.76616    0.20508    0.41880    1.000
    O52      O        0.70991    0.22449    0.41830    1.000
    O53      O        0.53889    0.02430    0.25422    1.000
    O54      O        0.51457    0.95447    0.24899    1.000
    O55      O        0.94550    0.02189    0.22816    1.000
    O56      O        0.73272    0.20557    0.01980    1.000
    O57      O        0.78887    0.22354    0.02110    1.000
    O58      O        0.95533    0.02889    0.14796    1.000
    O59      O        0.70498    0.73335    0.41090    1.000
    O60      O        0.72513    0.78980    0.40970    1.000
    O61      O        0.52528    0.54293    0.14320    1.000
    O62      O        0.52990    0.54857    0.22487    1.000
    O63      O        0.72472    0.70841    0.00950    1.000
    O64      O        0.70582    0.76518    0.00980    1.000
    C235     C        0.57391    0.72534    0.18530    1.000
    C236     C        0.59156    0.75132    0.21160    1.000
    H145     H        0.61640    0.75130    0.21270    1.000
    C237     C        0.57297    0.77692    0.23610    1.000
    C238     C        0.57597    0.83748    0.27100    1.000
    C239     C        0.57310    0.85370    0.31570    1.000
    H146     H        0.58220    0.84210    0.34320    1.000
    C240     C        0.55740    0.88645    0.32160    1.000
    H147     H        0.55560    0.89650    0.35270    1.000
    C241     C        0.54399    0.90487    0.28110    1.000
    C242     C        0.52714    0.93994    0.28710    1.000
    C243     C        0.55558    0.03076    0.29290    1.000
    C244     C        0.59080    0.04836    0.28750    1.000
    C245     C        0.61010    0.05770    0.32800    1.000
    H148     H        0.59970    0.05470    0.35870    1.000
    C246     C        0.64450    0.07160    0.32570    1.000
    H149     H        0.65750    0.07640    0.35390    1.000
    C247     C        0.65858    0.07790    0.27880    1.000
    C248     C        0.71886    0.07300    0.24660    1.000
    C249     C        0.74538    0.09130    0.22030    1.000
    H150     H        0.74610    0.11610    0.22100    1.000
    C250     C        0.77000    0.07280    0.19370    1.000
    C251     C        0.76850    0.03560    0.19090    1.000
    H151     H        0.78520    0.02310    0.17250    1.000
    C252     C        0.74250    0.01800    0.21520    1.000
    H152     H        0.74070    0.99330    0.21250    1.000
    C253     C        0.71820    0.03700    0.24460    1.000
    H153     H        0.70140    0.02450    0.26300    1.000
    C254     C        0.70430    0.11980    0.30670    1.000
    C255     C        0.73760    0.12100    0.32720    1.000
    H154     H        0.75360    0.10270    0.31990    1.000
    C256     C        0.74870    0.14790    0.35800    1.000
    H155     H        0.77160    0.14800    0.37110    1.000
    C257     C        0.72400    0.17600    0.36940    1.000
    C258     C        0.73580    0.20420    0.40430    1.000
    C259     C        0.68990    0.17490    0.34920    1.000
    H156     H        0.67350    0.19260    0.35690    1.000
    C260     C        0.68030    0.14730    0.31730    1.000
    H157     H        0.65780    0.14720    0.30310    1.000
    C261     C        0.63975    0.06930    0.23820    1.000
    H158     H        0.64950    0.07330    0.20730    1.000
    C262     C        0.60594    0.05430    0.24250    1.000
    H159     H        0.59340    0.04820    0.21430    1.000
    C263     C        0.93655    0.03176    0.18650    1.000
    C264     C        0.90094    0.04929    0.18080    1.000
    C265     C        0.88809    0.05950    0.13580    1.000
    H160     H        0.90240    0.05690    0.10810    1.000
    C266     C        0.85419    0.07340    0.13130    1.000
    H161     H        0.84570    0.08000    0.10060    1.000
    C267     C        0.83290    0.07770    0.17190    1.000
    C268     C        0.84581    0.06770    0.21760    1.000
    H162     H        0.83140    0.07040    0.24510    1.000
    C269     C        0.87909    0.05400    0.22250    1.000
    H163     H        0.88760    0.04770    0.25340    1.000
    N28      N        0.79766    0.09180    0.16760    1.000
    C270     C        0.78929    0.12060    0.13540    1.000
    C271     C        0.75588    0.12230    0.11240    1.000
    H164     H        0.73920    0.10460    0.11910    1.000
    C272     C        0.74720    0.14750    0.08220    1.000
    H165     H        0.72430    0.14800    0.06890    1.000
    C273     C        0.77260    0.17460    0.06900    1.000
    C274     C        0.76360    0.20340    0.03320    1.000
    C275     C        0.80616    0.17330    0.09150    1.000
    H166     H        0.82340    0.19030    0.08390    1.000
    C276     C        0.81390    0.14620    0.12540    1.000
    H167     H        0.83590    0.14590    0.14120    1.000
    C277     C        0.54860    0.88995    0.23480    1.000
    H168     H        0.54120    0.90240    0.20700    1.000
    C278     C        0.56440    0.85620    0.22980    1.000
    H169     H        0.56720    0.84630    0.19880    1.000
    C279     C        0.61954    0.79276    0.29570    1.000
    C280     C        0.64760    0.81661    0.30610    1.000
    H170     H        0.64790    0.83900    0.29130    1.000
    C281     C        0.67450    0.80721    0.33770    1.000
    H171     H        0.69240    0.82350    0.34500    1.000
    C282     C        0.67510    0.77470    0.35820    1.000
    C283     C        0.70450    0.76570    0.39550    1.000
    C284     C        0.64820    0.75060    0.34800    1.000
    H172     H        0.64910    0.72780    0.36170    1.000
    C285     C        0.62060    0.75945    0.31840    1.000
    H173     H        0.60230    0.74320    0.31310    1.000
    C286     C        0.53640    0.77680    0.23450    1.000
    H174     H        0.52340    0.79430    0.25090    1.000
    C287     C        0.51890    0.75020    0.20830    1.000
    H175     H        0.49410    0.74980    0.20810    1.000
    C288     C        0.53660    0.72550    0.18350    1.000
    H176     H        0.52440    0.70850    0.16510    1.000
    C289     C        0.58075    0.66247    0.16310    1.000
    C290     C        0.57360    0.64894    0.21030    1.000
    H177     H        0.57920    0.66260    0.23780    1.000
    C291     C        0.55860    0.61555    0.21630    1.000
    H178     H        0.55330    0.60710    0.24760    1.000
    C292     C        0.55126    0.59473    0.17560    1.000
    C293     C        0.53444    0.55926    0.18300    1.000
    C294     C        0.55920    0.60741    0.12830    1.000
    H179     H        0.55440    0.59340    0.10090    1.000
    C295     C        0.57450    0.64152    0.12280    1.000
    H180     H        0.58030    0.64990    0.09170    1.000
    C296     C        0.62078    0.70699    0.12540    1.000
    C297     C        0.64720    0.68225    0.11360    1.000
    H181     H        0.64620    0.65950    0.12710    1.000
    C298     C        0.67410    0.69075    0.08300    1.000
    H182     H        0.69190    0.67410    0.07660    1.000
    C299     C        0.67526    0.72422    0.06100    1.000
    C300     C        0.70420    0.73320    0.02430    1.000
    C301     C        0.65060    0.74800    0.07210    1.000
    H183     H        0.65210    0.77080    0.05850    1.000
    C302     C        0.62220    0.73994    0.10380    1.000
    H184     H        0.60460    0.75680    0.11000    1.000
    N29      N        0.47543    0.01039    0.18200    1.000
    C303     C        0.49230    0.99960    0.13780    1.000
    H185     H        0.51310    0.98600    0.13540    1.000
    N30      N        0.47200    0.01300    0.09794    1.000
    C304     C        0.44250    0.03220    0.11750    1.000
    H186     H        0.42490    0.04380    0.09950    1.000
    C305     C        0.44460    0.03050    0.16950    1.000
    H187     H        0.42870    0.04090    0.19150    1.000
    N31      N        0.71820    0.66215    0.45950    1.000
    C306     C        0.68990    0.64980    0.42910    1.000
    H188     H        0.68050    0.66180    0.40210    1.000
    N32      N        0.67870    0.61610    0.44710    1.000
    C307     C        0.69990    0.60750    0.48860    1.000
    H189     H        0.69810    0.58690    0.50750    1.000
    C308     C        0.72430    0.63600    0.49630    1.000
    H190     H        0.74130    0.63730    0.52110    1.000
    C309     C        0.48810    0.00470    0.04680    1.000
    C310     C        0.46550    0.00860    0.00950    1.000
    H191     H        0.44200    0.01490    0.01600    1.000
    C311     C        0.64490    0.59780    0.42490    1.000
    C312     C        0.52430    0.99630    0.03710    1.000
    H192     H        0.54070    0.99420    0.06260    1.000
    Cu16     Cu       0.78340    0.23891    0.46928    1.000
    Cu17     Cu       0.99898    0.99665    0.85042    1.000
    Cu18     Cu       0.00911    0.00205    0.75387    1.000
    Cu19     Cu       0.76144    0.71633    0.96001    1.000
    N33      N        0.90659    0.69865    0.65820    1.000
    N34      N        0.90818    0.80325    0.76400    1.000
    N35      N        0.80555    0.09112    0.77540    1.000
    O65      O        0.97480    0.95240    0.82946    1.000
    O66      O        0.95503    0.02399    0.83530    1.000
    O67      O        0.73384    0.20508    0.91880    1.000
    O68      O        0.79009    0.22449    0.91830    1.000
    O69      O        0.96111    0.02430    0.75422    1.000
    O70      O        0.98543    0.95447    0.74899    1.000
    O71      O        0.55450    0.02189    0.72816    1.000
    O72      O        0.76728    0.20557    0.51980    1.000
    O73      O        0.71113    0.22354    0.52110    1.000
    O74      O        0.54467    0.02889    0.64796    1.000
    O75      O        0.79502    0.73335    0.91090    1.000
    O76      O        0.77487    0.78980    0.90970    1.000
    O77      O        0.97472    0.54293    0.64320    1.000
    O78      O        0.97010    0.54857    0.72487    1.000
    O79      O        0.77528    0.70841    0.50950    1.000
    O80      O        0.79418    0.76518    0.50980    1.000
    C313     C        0.92609    0.72534    0.68530    1.000
    C314     C        0.90844    0.75132    0.71160    1.000
    H193     H        0.88360    0.75130    0.71270    1.000
    C315     C        0.92703    0.77692    0.73610    1.000
    C316     C        0.92403    0.83748    0.77100    1.000
    C317     C        0.92690    0.85370    0.81570    1.000
    H194     H        0.91780    0.84210    0.84320    1.000
    C318     C        0.94260    0.88645    0.82160    1.000
    H195     H        0.94440    0.89650    0.85270    1.000
    C319     C        0.95601    0.90487    0.78110    1.000
    C320     C        0.97286    0.93994    0.78710    1.000
    C321     C        0.94442    0.03076    0.79290    1.000
    C322     C        0.90920    0.04836    0.78750    1.000
    C323     C        0.88990    0.05770    0.82800    1.000
    H196     H        0.90030    0.05470    0.85870    1.000
    C324     C        0.85550    0.07160    0.82570    1.000
    H197     H        0.84250    0.07640    0.85390    1.000
    C325     C        0.84142    0.07790    0.77880    1.000
    C326     C        0.78114    0.07300    0.74660    1.000
    C327     C        0.75462    0.09130    0.72030    1.000
    H198     H        0.75390    0.11610    0.72100    1.000
    C328     C        0.73000    0.07280    0.69370    1.000
    C329     C        0.73150    0.03560    0.69090    1.000
    H199     H        0.71480    0.02310    0.67250    1.000
    C330     C        0.75750    0.01800    0.71520    1.000
    H200     H        0.75930    0.99330    0.71250    1.000
    C331     C        0.78180    0.03700    0.74460    1.000
    H201     H        0.79860    0.02450    0.76300    1.000
    C332     C        0.79570    0.11980    0.80670    1.000
    C333     C        0.76240    0.12100    0.82720    1.000
    H202     H        0.74640    0.10270    0.81990    1.000
    C334     C        0.75130    0.14790    0.85800    1.000
    H203     H        0.72840    0.14800    0.87110    1.000
    C335     C        0.77600    0.17600    0.86940    1.000
    C336     C        0.76420    0.20420    0.90430    1.000
    C337     C        0.81010    0.17490    0.84920    1.000
    H204     H        0.82650    0.19260    0.85690    1.000
    C338     C        0.81970    0.14730    0.81730    1.000
    H205     H        0.84220    0.14720    0.80310    1.000
    C339     C        0.86025    0.06930    0.73820    1.000
    H206     H        0.85050    0.07330    0.70730    1.000
    C340     C        0.89406    0.05430    0.74250    1.000
    H207     H        0.90660    0.04820    0.71430    1.000
    C341     C        0.56345    0.03176    0.68650    1.000
    C342     C        0.59906    0.04929    0.68080    1.000
    C343     C        0.61191    0.05950    0.63580    1.000
    H208     H        0.59760    0.05690    0.60810    1.000
    C344     C        0.64581    0.07340    0.63130    1.000
    H209     H        0.65430    0.08000    0.60060    1.000
    C345     C        0.66710    0.07770    0.67190    1.000
    C346     C        0.65419    0.06770    0.71760    1.000
    H210     H        0.66860    0.07040    0.74510    1.000
    C347     C        0.62091    0.05400    0.72250    1.000
    H211     H        0.61240    0.04770    0.75340    1.000
    N36      N        0.70234    0.09180    0.66760    1.000
    C348     C        0.71071    0.12060    0.63540    1.000
    C349     C        0.74412    0.12230    0.61240    1.000
    H212     H        0.76080    0.10460    0.61910    1.000
    C350     C        0.75280    0.14750    0.58220    1.000
    H213     H        0.77570    0.14800    0.56890    1.000
    C351     C        0.72740    0.17460    0.56900    1.000
    C352     C        0.73640    0.20340    0.53320    1.000
    C353     C        0.69384    0.17330    0.59150    1.000
    H214     H        0.67660    0.19030    0.58390    1.000
    C354     C        0.68610    0.14620    0.62540    1.000
    H215     H        0.66410    0.14590    0.64120    1.000
    C355     C        0.95140    0.88995    0.73480    1.000
    H216     H        0.95880    0.90240    0.70700    1.000
    C356     C        0.93560    0.85620    0.72980    1.000
    H217     H        0.93280    0.84630    0.69880    1.000
    C357     C        0.88046    0.79276    0.79570    1.000
    C358     C        0.85240    0.81661    0.80610    1.000
    H218     H        0.85210    0.83900    0.79130    1.000
    C359     C        0.82550    0.80721    0.83770    1.000
    H219     H        0.80760    0.82350    0.84500    1.000
    C360     C        0.82490    0.77470    0.85820    1.000
    C361     C        0.79550    0.76570    0.89550    1.000
    C362     C        0.85180    0.75060    0.84800    1.000
    H220     H        0.85090    0.72780    0.86170    1.000
    C363     C        0.87940    0.75945    0.81840    1.000
    H221     H        0.89770    0.74320    0.81310    1.000
    C364     C        0.96360    0.77680    0.73450    1.000
    H222     H        0.97660    0.79430    0.75090    1.000
    C365     C        0.98110    0.75020    0.70830    1.000
    H223     H        0.00590    0.74980    0.70810    1.000
    C366     C        0.96340    0.72550    0.68350    1.000
    H224     H        0.97560    0.70850    0.66510    1.000
    C367     C        0.91925    0.66247    0.66310    1.000
    C368     C        0.92640    0.64894    0.71030    1.000
    H225     H        0.92080    0.66260    0.73780    1.000
    C369     C        0.94140    0.61555    0.71630    1.000
    H226     H        0.94670    0.60710    0.74760    1.000
    C370     C        0.94874    0.59473    0.67560    1.000
    C371     C        0.96556    0.55926    0.68300    1.000
    C372     C        0.94080    0.60741    0.62830    1.000
    H227     H        0.94560    0.59340    0.60090    1.000
    C373     C        0.92550    0.64152    0.62280    1.000
    H228     H        0.91970    0.64990    0.59170    1.000
    C374     C        0.87922    0.70699    0.62540    1.000
    C375     C        0.85280    0.68225    0.61360    1.000
    H229     H        0.85380    0.65950    0.62710    1.000
    C376     C        0.82590    0.69075    0.58300    1.000
    H230     H        0.80810    0.67410    0.57660    1.000
    C377     C        0.82474    0.72422    0.56100    1.000
    C378     C        0.79580    0.73320    0.52430    1.000
    C379     C        0.84940    0.74800    0.57210    1.000
    H231     H        0.84790    0.77080    0.55850    1.000
    C380     C        0.87780    0.73994    0.60380    1.000
    H232     H        0.89540    0.75680    0.61000    1.000
    N37      N        0.02457    0.01039    0.68200    1.000
    C381     C        0.00770    0.99960    0.63780    1.000
    H233     H        0.98690    0.98600    0.63540    1.000
    N38      N        0.02800    0.01300    0.59794    1.000
    C382     C        0.05750    0.03220    0.61750    1.000
    H234     H        0.07510    0.04380    0.59950    1.000
    C383     C        0.05540    0.03050    0.66950    1.000
    H235     H        0.07130    0.04090    0.69150    1.000
    N39      N        0.78180    0.66215    0.95950    1.000
    C384     C        0.81010    0.64980    0.92910    1.000
    H236     H        0.81950    0.66180    0.90210    1.000
    N40      N        0.82130    0.61610    0.94710    1.000
    C385     C        0.80010    0.60750    0.98860    1.000
    H237     H        0.80190    0.58690    0.00750    1.000
    C386     C        0.77570    0.63600    0.99630    1.000
    H238     H        0.75870    0.63730    0.02110    1.000
    C387     C        0.01190    0.00470    0.54680    1.000
    C388     C        0.03450    0.00860    0.50950    1.000
    H239     H        0.05800    0.01490    0.51600    1.000
    C389     C        0.85510    0.59780    0.92490    1.000
    C390     C        0.97570    0.99630    0.53710    1.000
    H240     H        0.95930    0.99420    0.56260    1.000
    Cu20     Cu       0.71660    0.23891    0.96928    1.000
    Cu21     Cu       0.50102    0.50335    0.85042    1.000
    Cu22     Cu       0.49089    0.49795    0.75387    1.000
    Cu23     Cu       0.73856    0.78367    0.96001    1.000
    N41      N        0.59341    0.80135    0.65820    1.000
    N42      N        0.59182    0.69675    0.76400    1.000
    N43      N        0.69445    0.40888    0.77540    1.000
    O81      O        0.52520    0.54760    0.82946    1.000
    O82      O        0.54497    0.47601    0.83530    1.000
    O83      O        0.76616    0.29492    0.91880    1.000
    O84      O        0.70991    0.27551    0.91830    1.000
    O85      O        0.53889    0.47570    0.75422    1.000
    O86      O        0.51457    0.54553    0.74899    1.000
    O87      O        0.94550    0.47811    0.72816    1.000
    O88      O        0.73272    0.29443    0.51980    1.000
    O89      O        0.78887    0.27646    0.52110    1.000
    O90      O        0.95533    0.47111    0.64796    1.000
    O91      O        0.70498    0.76665    0.91090    1.000
    O92      O        0.72513    0.71020    0.90970    1.000
    O93      O        0.52528    0.95707    0.64320    1.000
    O94      O        0.52990    0.95143    0.72487    1.000
    O95      O        0.72472    0.79159    0.50950    1.000
    O96      O        0.70582    0.73482    0.50980    1.000
    C391     C        0.57391    0.77466    0.68530    1.000
    C392     C        0.59156    0.74868    0.71160    1.000
    H241     H        0.61640    0.74870    0.71270    1.000
    C393     C        0.57297    0.72308    0.73610    1.000
    C394     C        0.57597    0.66252    0.77100    1.000
    C395     C        0.57310    0.64630    0.81570    1.000
    H242     H        0.58220    0.65790    0.84320    1.000
    C396     C        0.55740    0.61355    0.82160    1.000
    H243     H        0.55560    0.60350    0.85270    1.000
    C397     C        0.54399    0.59513    0.78110    1.000
    C398     C        0.52714    0.56006    0.78710    1.000
    C399     C        0.55558    0.46924    0.79290    1.000
    C400     C        0.59080    0.45164    0.78750    1.000
    C401     C        0.61010    0.44230    0.82800    1.000
    H244     H        0.59970    0.44530    0.85870    1.000
    C402     C        0.64450    0.42840    0.82570    1.000
    H245     H        0.65750    0.42360    0.85390    1.000
    C403     C        0.65858    0.42210    0.77880    1.000
    C404     C        0.71886    0.42700    0.74660    1.000
    C405     C        0.74538    0.40870    0.72030    1.000
    H246     H        0.74610    0.38390    0.72100    1.000
    C406     C        0.77000    0.42720    0.69370    1.000
    C407     C        0.76850    0.46440    0.69090    1.000
    H247     H        0.78520    0.47690    0.67250    1.000
    C408     C        0.74250    0.48200    0.71520    1.000
    H248     H        0.74070    0.50670    0.71250    1.000
    C409     C        0.71820    0.46300    0.74460    1.000
    H249     H        0.70140    0.47550    0.76300    1.000
    C410     C        0.70430    0.38020    0.80670    1.000
    C411     C        0.73760    0.37900    0.82720    1.000
    H250     H        0.75360    0.39730    0.81990    1.000
    C412     C        0.74870    0.35210    0.85800    1.000
    H251     H        0.77160    0.35200    0.87110    1.000
    C413     C        0.72400    0.32400    0.86940    1.000
    C414     C        0.73580    0.29580    0.90430    1.000
    C415     C        0.68990    0.32510    0.84920    1.000
    H252     H        0.67350    0.30740    0.85690    1.000
    C416     C        0.68030    0.35270    0.81730    1.000
    H253     H        0.65780    0.35280    0.80310    1.000
    C417     C        0.63975    0.43070    0.73820    1.000
    H254     H        0.64950    0.42670    0.70730    1.000
    C418     C        0.60594    0.44570    0.74250    1.000
    H255     H        0.59340    0.45180    0.71430    1.000
    C419     C        0.93655    0.46824    0.68650    1.000
    C420     C        0.90094    0.45071    0.68080    1.000
    C421     C        0.88809    0.44050    0.63580    1.000
    H256     H        0.90240    0.44310    0.60810    1.000
    C422     C        0.85419    0.42660    0.63130    1.000
    H257     H        0.84570    0.42000    0.60060    1.000
    C423     C        0.83290    0.42230    0.67190    1.000
    C424     C        0.84581    0.43230    0.71760    1.000
    H258     H        0.83140    0.42960    0.74510    1.000
    C425     C        0.87909    0.44600    0.72250    1.000
    H259     H        0.88760    0.45230    0.75340    1.000
    N44      N        0.79766    0.40820    0.66760    1.000
    C426     C        0.78929    0.37940    0.63540    1.000
    C427     C        0.75588    0.37770    0.61240    1.000
    H260     H        0.73920    0.39540    0.61910    1.000
    C428     C        0.74720    0.35250    0.58220    1.000
    H261     H        0.72430    0.35200    0.56890    1.000
    C429     C        0.77260    0.32540    0.56900    1.000
    C430     C        0.76360    0.29660    0.53320    1.000
    C431     C        0.80616    0.32670    0.59150    1.000
    H262     H        0.82340    0.30970    0.58390    1.000
    C432     C        0.81390    0.35380    0.62540    1.000
    H263     H        0.83590    0.35410    0.64120    1.000
    C433     C        0.54860    0.61005    0.73480    1.000
    H264     H        0.54120    0.59760    0.70700    1.000
    C434     C        0.56440    0.64380    0.72980    1.000
    H265     H        0.56720    0.65370    0.69880    1.000
    C435     C        0.61954    0.70724    0.79570    1.000
    C436     C        0.64760    0.68339    0.80610    1.000
    H266     H        0.64790    0.66100    0.79130    1.000
    C437     C        0.67450    0.69279    0.83770    1.000
    H267     H        0.69240    0.67650    0.84500    1.000
    C438     C        0.67510    0.72530    0.85820    1.000
    C439     C        0.70450    0.73430    0.89550    1.000
    C440     C        0.64820    0.74940    0.84800    1.000
    H268     H        0.64910    0.77220    0.86170    1.000
    C441     C        0.62060    0.74055    0.81840    1.000
    H269     H        0.60230    0.75680    0.81310    1.000
    C442     C        0.53640    0.72320    0.73450    1.000
    H270     H        0.52340    0.70570    0.75090    1.000
    C443     C        0.51890    0.74980    0.70830    1.000
    H271     H        0.49410    0.75020    0.70810    1.000
    C444     C        0.53660    0.77450    0.68350    1.000
    H272     H        0.52440    0.79150    0.66510    1.000
    C445     C        0.58075    0.83753    0.66310    1.000
    C446     C        0.57360    0.85106    0.71030    1.000
    H273     H        0.57920    0.83740    0.73780    1.000
    C447     C        0.55860    0.88445    0.71630    1.000
    H274     H        0.55330    0.89290    0.74760    1.000
    C448     C        0.55126    0.90527    0.67560    1.000
    C449     C        0.53444    0.94074    0.68300    1.000
    C450     C        0.55920    0.89259    0.62830    1.000
    H275     H        0.55440    0.90660    0.60090    1.000
    C451     C        0.57450    0.85848    0.62280    1.000
    H276     H        0.58030    0.85010    0.59170    1.000
    C452     C        0.62078    0.79301    0.62540    1.000
    C453     C        0.64720    0.81775    0.61360    1.000
    H277     H        0.64620    0.84050    0.62710    1.000
    C454     C        0.67410    0.80925    0.58300    1.000
    H278     H        0.69190    0.82590    0.57660    1.000
    C455     C        0.67526    0.77578    0.56100    1.000
    C456     C        0.70420    0.76680    0.52430    1.000
    C457     C        0.65060    0.75200    0.57210    1.000
    H279     H        0.65210    0.72920    0.55850    1.000
    C458     C        0.62220    0.76006    0.60380    1.000
    H280     H        0.60460    0.74320    0.61000    1.000
    N45      N        0.47543    0.48961    0.68200    1.000
    C459     C        0.49230    0.50040    0.63780    1.000
    H281     H        0.51310    0.51400    0.63540    1.000
    N46      N        0.47200    0.48700    0.59794    1.000
    C460     C        0.44250    0.46780    0.61750    1.000
    H282     H        0.42490    0.45620    0.59950    1.000
    C461     C        0.44460    0.46950    0.66950    1.000
    H283     H        0.42870    0.45910    0.69150    1.000
    N47      N        0.71820    0.83785    0.95950    1.000
    C462     C        0.68990    0.85020    0.92910    1.000
    H284     H        0.68050    0.83820    0.90210    1.000
    N48      N        0.67870    0.88390    0.94710    1.000
    C463     C        0.69990    0.89250    0.98860    1.000
    H285     H        0.69810    0.91310    0.00750    1.000
    C464     C        0.72430    0.86400    0.99630    1.000
    H286     H        0.74130    0.86270    0.02110    1.000
    C465     C        0.48810    0.49530    0.54680    1.000
    C466     C        0.46550    0.49140    0.50950    1.000
    H287     H        0.44200    0.48510    0.51600    1.000
    C467     C        0.64490    0.90220    0.92490    1.000
    C468     C        0.52430    0.50370    0.53710    1.000
    H288     H        0.54070    0.50580    0.56260    1.000
    Cu24     Cu       0.78340    0.26109    0.96928    1.000
    Cu25     Cu       0.00102    0.49665    0.64958    1.000
    Cu26     Cu       0.99089    0.50205    0.74613    1.000
    Cu27     Cu       0.23856    0.21633    0.53999    1.000
    N49      N        0.09341    0.19865    0.84180    1.000
    N50      N        0.09182    0.30325    0.73600    1.000
    N51      N        0.19445    0.59112    0.72460    1.000
    O97      O        0.02520    0.45240    0.67054    1.000
    O98      O        0.04497    0.52399    0.66470    1.000
    O99      O        0.26616    0.70508    0.58120    1.000
    O100     O        0.20991    0.72449    0.58170    1.000
    O101     O        0.03889    0.52430    0.74578    1.000
    O102     O        0.01457    0.45447    0.75101    1.000
    O103     O        0.44550    0.52189    0.77184    1.000
    O104     O        0.23272    0.70557    0.98020    1.000
    O105     O        0.28887    0.72354    0.97890    1.000
    O106     O        0.45533    0.52889    0.85204    1.000
    O107     O        0.20498    0.23335    0.58910    1.000
    O108     O        0.22513    0.28980    0.59030    1.000
    O109     O        0.02528    0.04293    0.85680    1.000
    O110     O        0.02990    0.04857    0.77513    1.000
    O111     O        0.22472    0.20841    0.99050    1.000
    O112     O        0.20582    0.26518    0.99020    1.000
    C469     C        0.07391    0.22534    0.81470    1.000
    C470     C        0.09156    0.25132    0.78840    1.000
    H289     H        0.11640    0.25130    0.78730    1.000
    C471     C        0.07297    0.27692    0.76390    1.000
    C472     C        0.07597    0.33748    0.72900    1.000
    C473     C        0.07310    0.35370    0.68430    1.000
    H290     H        0.08220    0.34210    0.65680    1.000
    C474     C        0.05740    0.38645    0.67840    1.000
    H291     H        0.05560    0.39650    0.64730    1.000
    C475     C        0.04399    0.40487    0.71890    1.000
    C476     C        0.02714    0.43994    0.71290    1.000
    C477     C        0.05558    0.53076    0.70710    1.000
    C478     C        0.09080    0.54836    0.71250    1.000
    C479     C        0.11010    0.55770    0.67200    1.000
    H292     H        0.09970    0.55470    0.64130    1.000
    C480     C        0.14450    0.57160    0.67430    1.000
    H293     H        0.15750    0.57640    0.64610    1.000
    C481     C        0.15858    0.57790    0.72120    1.000
    C482     C        0.21886    0.57300    0.75340    1.000
    C483     C        0.24538    0.59130    0.77970    1.000
    H294     H        0.24610    0.61610    0.77900    1.000
    C484     C        0.27000    0.57280    0.80630    1.000
    C485     C        0.26850    0.53560    0.80910    1.000
    H295     H        0.28520    0.52310    0.82750    1.000
    C486     C        0.24250    0.51800    0.78480    1.000
    H296     H        0.24070    0.49330    0.78750    1.000
    C487     C        0.21820    0.53700    0.75540    1.000
    H297     H        0.20140    0.52450    0.73700    1.000
    C488     C        0.20430    0.61980    0.69330    1.000
    C489     C        0.23760    0.62100    0.67280    1.000
    H298     H        0.25360    0.60270    0.68010    1.000
    C490     C        0.24870    0.64790    0.64200    1.000
    H299     H        0.27160    0.64800    0.62890    1.000
    C491     C        0.22400    0.67600    0.63060    1.000
    C492     C        0.23580    0.70420    0.59570    1.000
    C493     C        0.18990    0.67490    0.65080    1.000
    H300     H        0.17350    0.69260    0.64310    1.000
    C494     C        0.18030    0.64730    0.68270    1.000
    H301     H        0.15780    0.64720    0.69690    1.000
    C495     C        0.13975    0.56930    0.76180    1.000
    H302     H        0.14950    0.57330    0.79270    1.000
    C496     C        0.10594    0.55430    0.75750    1.000
    H303     H        0.09340    0.54820    0.78570    1.000
    C497     C        0.43655    0.53176    0.81350    1.000
    C498     C        0.40094    0.54929    0.81920    1.000
    C499     C        0.38809    0.55950    0.86420    1.000
    H304     H        0.40240    0.55690    0.89190    1.000
    C500     C        0.35419    0.57340    0.86870    1.000
    H305     H        0.34570    0.58000    0.89940    1.000
    C501     C        0.33290    0.57770    0.82810    1.000
    C502     C        0.34581    0.56770    0.78240    1.000
    H306     H        0.33140    0.57040    0.75490    1.000
    C503     C        0.37909    0.55400    0.77750    1.000
    H307     H        0.38760    0.54770    0.74660    1.000
    N52      N        0.29766    0.59180    0.83240    1.000
    C504     C        0.28929    0.62060    0.86460    1.000
    C505     C        0.25588    0.62230    0.88760    1.000
    H308     H        0.23920    0.60460    0.88090    1.000
    C506     C        0.24720    0.64750    0.91780    1.000
    H309     H        0.22430    0.64800    0.93110    1.000
    C507     C        0.27260    0.67460    0.93100    1.000
    C508     C        0.26360    0.70340    0.96680    1.000
    C509     C        0.30616    0.67330    0.90850    1.000
    H310     H        0.32340    0.69030    0.91610    1.000
    C510     C        0.31390    0.64620    0.87460    1.000
    H311     H        0.33590    0.64590    0.85880    1.000
    C511     C        0.04860    0.38995    0.76520    1.000
    H312     H        0.04120    0.40240    0.79300    1.000
    C512     C        0.06440    0.35620    0.77020    1.000
    H313     H        0.06720    0.34630    0.80120    1.000
    C513     C        0.11954    0.29276    0.70430    1.000
    C514     C        0.14760    0.31661    0.69390    1.000
    H314     H        0.14790    0.33900    0.70870    1.000
    C515     C        0.17450    0.30721    0.66230    1.000
    H315     H        0.19240    0.32350    0.65500    1.000
    C516     C        0.17510    0.27470    0.64180    1.000
    C517     C        0.20450    0.26570    0.60450    1.000
    C518     C        0.14820    0.25060    0.65200    1.000
    H316     H        0.14910    0.22780    0.63830    1.000
    C519     C        0.12060    0.25945    0.68160    1.000
    H317     H        0.10230    0.24320    0.68690    1.000
    C520     C        0.03640    0.27680    0.76550    1.000
    H318     H        0.02340    0.29430    0.74910    1.000
    C521     C        0.01890    0.25020    0.79170    1.000
    H319     H        0.99410    0.24980    0.79190    1.000
    C522     C        0.03660    0.22550    0.81650    1.000
    H320     H        0.02440    0.20850    0.83490    1.000
    C523     C        0.08075    0.16247    0.83690    1.000
    C524     C        0.07360    0.14894    0.78970    1.000
    H321     H        0.07920    0.16260    0.76220    1.000
    C525     C        0.05860    0.11555    0.78370    1.000
    H322     H        0.05330    0.10710    0.75240    1.000
    C526     C        0.05126    0.09473    0.82440    1.000
    C527     C        0.03444    0.05926    0.81700    1.000
    C528     C        0.05920    0.10741    0.87170    1.000
    H323     H        0.05440    0.09340    0.89910    1.000
    C529     C        0.07450    0.14152    0.87720    1.000
    H324     H        0.08030    0.14990    0.90830    1.000
    C530     C        0.12078    0.20699    0.87460    1.000
    C531     C        0.14720    0.18225    0.88640    1.000
    H325     H        0.14620    0.15950    0.87290    1.000
    C532     C        0.17410    0.19075    0.91700    1.000
    H326     H        0.19190    0.17410    0.92340    1.000
    C533     C        0.17526    0.22422    0.93900    1.000
    C534     C        0.20420    0.23320    0.97570    1.000
    C535     C        0.15060    0.24800    0.92790    1.000
    H327     H        0.15210    0.27080    0.94150    1.000
    C536     C        0.12220    0.23994    0.89620    1.000
    H328     H        0.10460    0.25680    0.89000    1.000
    N53      N        0.97543    0.51039    0.81800    1.000
    C537     C        0.99230    0.49960    0.86220    1.000
    H329     H        0.01310    0.48600    0.86460    1.000
    N54      N        0.97200    0.51300    0.90206    1.000
    C538     C        0.94250    0.53220    0.88250    1.000
    H330     H        0.92490    0.54380    0.90050    1.000
    C539     C        0.94460    0.53050    0.83050    1.000
    H331     H        0.92870    0.54090    0.80850    1.000
    N55      N        0.21820    0.16215    0.54050    1.000
    C540     C        0.18990    0.14980    0.57090    1.000
    H332     H        0.18050    0.16180    0.59790    1.000
    N56      N        0.17870    0.11610    0.55290    1.000
    C541     C        0.19990    0.10750    0.51140    1.000
    H333     H        0.19810    0.08690    0.49250    1.000
    C542     C        0.22430    0.13600    0.50370    1.000
    H334     H        0.24130    0.13730    0.47890    1.000
    C543     C        0.98810    0.50470    0.95320    1.000
    C544     C        0.96550    0.50860    0.99050    1.000
    H335     H        0.94200    0.51490    0.98400    1.000
    C545     C        0.14490    0.09780    0.57510    1.000
    C546     C        0.02430    0.49630    0.96290    1.000
    H336     H        0.04070    0.49420    0.93740    1.000
    Cu28     Cu       0.28340    0.73891    0.53072    1.000
    Cu29     Cu       0.49898    0.00335    0.64958    1.000
    Cu30     Cu       0.50911    0.99795    0.74613    1.000
    Cu31     Cu       0.26144    0.28367    0.53999    1.000
    N57      N        0.40659    0.30135    0.84180    1.000
    N58      N        0.40818    0.19675    0.73600    1.000
    N59      N        0.30555    0.90888    0.72460    1.000
    O113     O        0.47480    0.04760    0.67054    1.000
    O114     O        0.45503    0.97601    0.66470    1.000
    O115     O        0.23384    0.79492    0.58120    1.000
    O116     O        0.29009    0.77551    0.58170    1.000
    O117     O        0.46111    0.97570    0.74578    1.000
    O118     O        0.48543    0.04553    0.75101    1.000
    O119     O        0.05450    0.97811    0.77184    1.000
    O120     O        0.26728    0.79443    0.98020    1.000
    O121     O        0.21113    0.77646    0.97890    1.000
    O122     O        0.04467    0.97111    0.85204    1.000
    O123     O        0.29502    0.26665    0.58910    1.000
    O124     O        0.27487    0.21020    0.59030    1.000
    O125     O        0.47472    0.45707    0.85680    1.000
    O126     O        0.47010    0.45143    0.77513    1.000
    O127     O        0.27528    0.29159    0.99050    1.000
    O128     O        0.29418    0.23482    0.99020    1.000
    C547     C        0.42609    0.27466    0.81470    1.000
    C548     C        0.40844    0.24868    0.78840    1.000
    H337     H        0.38360    0.24870    0.78730    1.000
    C549     C        0.42703    0.22308    0.76390    1.000
    C550     C        0.42403    0.16252    0.72900    1.000
    C551     C        0.42690    0.14630    0.68430    1.000
    H338     H        0.41780    0.15790    0.65680    1.000
    C552     C        0.44260    0.11355    0.67840    1.000
    H339     H        0.44440    0.10350    0.64730    1.000
    C553     C        0.45601    0.09513    0.71890    1.000
    C554     C        0.47286    0.06006    0.71290    1.000
    C555     C        0.44442    0.96924    0.70710    1.000
    C556     C        0.40920    0.95164    0.71250    1.000
    C557     C        0.38990    0.94230    0.67200    1.000
    H340     H        0.40030    0.94530    0.64130    1.000
    C558     C        0.35550    0.92840    0.67430    1.000
    H341     H        0.34250    0.92360    0.64610    1.000
    C559     C        0.34142    0.92210    0.72120    1.000
    C560     C        0.28114    0.92700    0.75340    1.000
    C561     C        0.25462    0.90870    0.77970    1.000
    H342     H        0.25390    0.88390    0.77900    1.000
    C562     C        0.23000    0.92720    0.80630    1.000
    C563     C        0.23150    0.96440    0.80910    1.000
    H343     H        0.21480    0.97690    0.82750    1.000
    C564     C        0.25750    0.98200    0.78480    1.000
    H344     H        0.25930    0.00670    0.78750    1.000
    C565     C        0.28180    0.96300    0.75540    1.000
    H345     H        0.29860    0.97550    0.73700    1.000
    C566     C        0.29570    0.88020    0.69330    1.000
    C567     C        0.26240    0.87900    0.67280    1.000
    H346     H        0.24640    0.89730    0.68010    1.000
    C568     C        0.25130    0.85210    0.64200    1.000
    H347     H        0.22840    0.85200    0.62890    1.000
    C569     C        0.27600    0.82400    0.63060    1.000
    C570     C        0.26420    0.79580    0.59570    1.000
    C571     C        0.31010    0.82510    0.65080    1.000
    H348     H        0.32650    0.80740    0.64310    1.000
    C572     C        0.31970    0.85270    0.68270    1.000
    H349     H        0.34220    0.85280    0.69690    1.000
    C573     C        0.36025    0.93070    0.76180    1.000
    H350     H        0.35050    0.92670    0.79270    1.000
    C574     C        0.39406    0.94570    0.75750    1.000
    H351     H        0.40660    0.95180    0.78570    1.000
    C575     C        0.06345    0.96824    0.81350    1.000
    C576     C        0.09906    0.95071    0.81920    1.000
    C577     C        0.11191    0.94050    0.86420    1.000
    H352     H        0.09760    0.94310    0.89190    1.000
    C578     C        0.14581    0.92660    0.86870    1.000
    H353     H        0.15430    0.92000    0.89940    1.000
    C579     C        0.16710    0.92230    0.82810    1.000
    C580     C        0.15419    0.93230    0.78240    1.000
    H354     H        0.16860    0.92960    0.75490    1.000
    C581     C        0.12091    0.94600    0.77750    1.000
    H355     H        0.11240    0.95230    0.74660    1.000
    N60      N        0.20234    0.90820    0.83240    1.000
    C582     C        0.21071    0.87940    0.86460    1.000
    C583     C        0.24412    0.87770    0.88760    1.000
    H356     H        0.26080    0.89540    0.88090    1.000
    C584     C        0.25280    0.85250    0.91780    1.000
    H357     H        0.27570    0.85200    0.93110    1.000
    C585     C        0.22740    0.82540    0.93100    1.000
    C586     C        0.23640    0.79660    0.96680    1.000
    C587     C        0.19384    0.82670    0.90850    1.000
    H358     H        0.17660    0.80970    0.91610    1.000
    C588     C        0.18610    0.85380    0.87460    1.000
    H359     H        0.16410    0.85410    0.85880    1.000
    C589     C        0.45140    0.11005    0.76520    1.000
    H360     H        0.45880    0.09760    0.79300    1.000
    C590     C        0.43560    0.14380    0.77020    1.000
    H361     H        0.43280    0.15370    0.80120    1.000
    C591     C        0.38046    0.20724    0.70430    1.000
    C592     C        0.35240    0.18339    0.69390    1.000
    H362     H        0.35210    0.16100    0.70870    1.000
    C593     C        0.32550    0.19279    0.66230    1.000
    H363     H        0.30760    0.17650    0.65500    1.000
    C594     C        0.32490    0.22530    0.64180    1.000
    C595     C        0.29550    0.23430    0.60450    1.000
    C596     C        0.35180    0.24940    0.65200    1.000
    H364     H        0.35090    0.27220    0.63830    1.000
    C597     C        0.37940    0.24055    0.68160    1.000
    H365     H        0.39770    0.25680    0.68690    1.000
    C598     C        0.46360    0.22320    0.76550    1.000
    H366     H        0.47660    0.20570    0.74910    1.000
    C599     C        0.48110    0.24980    0.79170    1.000
    H367     H        0.50590    0.25020    0.79190    1.000
    C600     C        0.46340    0.27450    0.81650    1.000
    H368     H        0.47560    0.29150    0.83490    1.000
    C601     C        0.41925    0.33753    0.83690    1.000
    C602     C        0.42640    0.35106    0.78970    1.000
    H369     H        0.42080    0.33740    0.76220    1.000
    C603     C        0.44140    0.38445    0.78370    1.000
    H370     H        0.44670    0.39290    0.75240    1.000
    C604     C        0.44874    0.40527    0.82440    1.000
    C605     C        0.46556    0.44074    0.81700    1.000
    C606     C        0.44080    0.39259    0.87170    1.000
    H371     H        0.44560    0.40660    0.89910    1.000
    C607     C        0.42550    0.35848    0.87720    1.000
    H372     H        0.41970    0.35010    0.90830    1.000
    C608     C        0.37922    0.29301    0.87460    1.000
    C609     C        0.35280    0.31775    0.88640    1.000
    H373     H        0.35380    0.34050    0.87290    1.000
    C610     C        0.32590    0.30925    0.91700    1.000
    H374     H        0.30810    0.32590    0.92340    1.000
    C611     C        0.32474    0.27578    0.93900    1.000
    C612     C        0.29580    0.26680    0.97570    1.000
    C613     C        0.34940    0.25200    0.92790    1.000
    H375     H        0.34790    0.22920    0.94150    1.000
    C614     C        0.37780    0.26006    0.89620    1.000
    H376     H        0.39540    0.24320    0.89000    1.000
    N61      N        0.52457    0.98961    0.81800    1.000
    C615     C        0.50770    0.00040    0.86220    1.000
    H377     H        0.48690    0.01400    0.86460    1.000
    N62      N        0.52800    0.98700    0.90206    1.000
    C616     C        0.55750    0.96780    0.88250    1.000
    H378     H        0.57510    0.95620    0.90050    1.000
    C617     C        0.55540    0.96950    0.83050    1.000
    H379     H        0.57130    0.95910    0.80850    1.000
    N63      N        0.28180    0.33785    0.54050    1.000
    C618     C        0.31010    0.35020    0.57090    1.000
    H380     H        0.31950    0.33820    0.59790    1.000
    N64      N        0.32130    0.38390    0.55290    1.000
    C619     C        0.30010    0.39250    0.51140    1.000
    H381     H        0.30190    0.41310    0.49250    1.000
    C620     C        0.27570    0.36400    0.50370    1.000
    H382     H        0.25870    0.36270    0.47890    1.000
    C621     C        0.51190    0.99530    0.95320    1.000
    C622     C        0.53450    0.99140    0.99050    1.000
    H383     H        0.55800    0.98510    0.98400    1.000
    C623     C        0.35510    0.40220    0.57510    1.000
    C624     C        0.47570    0.00370    0.96290    1.000
    H384     H        0.45930    0.00580    0.93740    1.000
    Cu32     Cu       0.21660    0.76109    0.53072    1.000
