data_functionalizedCrystal
_audit_creation_method	'EQeq! by Chris Wilmer'
_symmetry_space_group_name_H-M	'P1'
_symmetry_Int_Tables_number	1
_symmetry_cell_setting	triclinic
loop_
_symmetry_equiv_pos_as_xyz
  x,y,z
_cell_length_a	26.3504
_cell_length_b	26.3504
_cell_length_c	26.3504
_cell_angle_alpha	90
_cell_angle_beta	90
_cell_angle_gamma	90
loop_
_atom_site_label
_atom_site_type_symbol
_atom_site_fract_x
_atom_site_fract_y
_atom_site_fract_z
_atom_site_charge
Mof_O 	O 	0.68341	0.44754	0.24325	-0.409
Mof_O 	O 	0.68341	0.94754	0.74325	-0.373
Mof_O 	O 	0.18341	0.44754	0.74325	-0.411
Mof_O 	O 	0.18341	0.94754	0.24325	-0.382
Mof_O 	O 	0.31659	0.55246	0.24325	-0.41
Mof_O 	O 	0.31659	0.05246	0.74325	-0.423
Mof_O 	O 	0.81659	0.55246	0.74325	-0.4
Mof_O 	O 	0.81659	0.05246	0.24325	-0.421
Mof_O 	O 	0.31659	0.44754	0.75675	-0.406
Mof_O 	O 	0.31659	0.94754	0.25675	-0.378
Mof_O 	O 	0.81659	0.44754	0.25675	-0.404
Mof_O 	O 	0.81659	0.94754	0.75675	-0.369
Mof_O 	O 	0.68341	0.55246	0.75675	-0.406
Mof_O 	O 	0.68341	0.05246	0.25675	-0.427
Mof_O 	O 	0.18341	0.55246	0.25675	-0.415
Mof_O 	O 	0.18341	0.05246	0.75675	-0.428
Mof_O 	O 	0.24325	0.68341	0.44754	-0.409
Mof_O 	O 	0.24325	0.18341	0.94754	-0.382
Mof_O 	O 	0.74325	0.68341	0.94754	-0.373
Mof_O 	O 	0.74325	0.18341	0.44754	-0.411
Mof_O 	O 	0.24325	0.31659	0.55246	-0.41
Mof_O 	O 	0.24325	0.81659	0.05246	-0.422
Mof_O 	O 	0.74325	0.31659	0.05246	-0.424
Mof_O 	O 	0.74325	0.81659	0.55246	-0.401
Mof_O 	O 	0.75675	0.31659	0.44754	-0.407
Mof_O 	O 	0.75675	0.81659	0.94754	-0.37
Mof_O 	O 	0.25675	0.31659	0.94754	-0.379
Mof_O 	O 	0.25675	0.81659	0.44754	-0.405
Mof_O 	O 	0.75675	0.68341	0.55246	-0.407
Mof_O 	O 	0.75675	0.18341	0.05246	-0.429
Mof_O 	O 	0.25675	0.68341	0.05246	-0.428
Mof_O 	O 	0.25675	0.18341	0.55246	-0.416
Mof_O 	O 	0.44754	0.24325	0.68341	-0.41
Mof_O 	O 	0.44754	0.74325	0.18341	-0.412
Mof_O 	O 	0.94754	0.24325	0.18341	-0.383
Mof_O 	O 	0.94754	0.74325	0.68341	-0.374
Mof_O 	O 	0.55246	0.24325	0.31659	-0.411
Mof_O 	O 	0.55246	0.74325	0.81659	-0.401
Mof_O 	O 	0.05246	0.24325	0.81659	-0.422
Mof_O 	O 	0.05246	0.74325	0.31659	-0.424
Mof_O 	O 	0.44754	0.75675	0.31659	-0.407
Mof_O 	O 	0.44754	0.25675	0.81659	-0.405
Mof_O 	O 	0.94754	0.75675	0.81659	-0.37
Mof_O 	O 	0.94754	0.25675	0.31659	-0.379
Mof_O 	O 	0.55246	0.75675	0.68341	-0.407
Mof_O 	O 	0.55246	0.25675	0.18341	-0.416
Mof_O 	O 	0.05246	0.75675	0.18341	-0.429
Mof_O 	O 	0.05246	0.25675	0.68341	-0.428
Mof_O 	O 	0.44754	0.68341	0.75675	-0.407
Mof_O 	O 	0.44754	0.18341	0.25675	-0.416
Mof_O 	O 	0.94754	0.68341	0.25675	-0.378
Mof_O 	O 	0.94754	0.18341	0.75675	-0.38
Mof_O 	O 	0.55246	0.31659	0.75675	-0.407
Mof_O 	O 	0.55246	0.81659	0.25675	-0.405
Mof_O 	O 	0.05246	0.31659	0.25675	-0.428
Mof_O 	O 	0.05246	0.81659	0.75675	-0.419
Mof_O 	O 	0.44754	0.31659	0.24325	-0.411
Mof_O 	O 	0.44754	0.81659	0.74325	-0.401
Mof_O 	O 	0.94754	0.31659	0.74325	-0.375
Mof_O 	O 	0.94754	0.81659	0.24325	-0.373
Mof_O 	O 	0.55246	0.68341	0.24325	-0.41
Mof_O 	O 	0.55246	0.18341	0.74325	-0.411
Mof_O 	O 	0.05246	0.68341	0.74325	-0.423
Mof_O 	O 	0.05246	0.18341	0.24325	-0.432
Mof_O 	O 	0.68341	0.24325	0.55246	-0.41
Mof_O 	O 	0.68341	0.74325	0.05246	-0.423
Mof_O 	O 	0.18341	0.24325	0.05246	-0.432
Mof_O 	O 	0.18341	0.74325	0.55246	-0.411
Mof_O 	O 	0.31659	0.24325	0.44754	-0.411
Mof_O 	O 	0.31659	0.74325	0.94754	-0.375
Mof_O 	O 	0.81659	0.24325	0.94754	-0.373
Mof_O 	O 	0.81659	0.74325	0.44754	-0.401
Mof_O 	O 	0.31659	0.75675	0.55246	-0.407
Mof_O 	O 	0.31659	0.25675	0.05246	-0.428
Mof_O 	O 	0.81659	0.75675	0.05246	-0.419
Mof_O 	O 	0.81659	0.25675	0.55246	-0.405
Mof_O 	O 	0.68341	0.75675	0.44754	-0.407
Mof_O 	O 	0.68341	0.25675	0.94754	-0.378
Mof_O 	O 	0.18341	0.75675	0.94754	-0.38
Mof_O 	O 	0.18341	0.25675	0.44754	-0.416
Mof_O 	O 	0.24325	0.44754	0.31659	-0.411
Mof_O 	O 	0.24325	0.94754	0.81659	-0.373
Mof_O 	O 	0.74325	0.44754	0.81659	-0.401
Mof_O 	O 	0.74325	0.94754	0.31659	-0.375
Mof_O 	O 	0.24325	0.55246	0.68341	-0.41
Mof_O 	O 	0.24325	0.05246	0.18341	-0.432
Mof_O 	O 	0.74325	0.55246	0.18341	-0.411
Mof_O 	O 	0.74325	0.05246	0.68341	-0.423
Mof_O 	O 	0.75675	0.44754	0.68341	-0.407
Mof_O 	O 	0.75675	0.94754	0.18341	-0.38
Mof_O 	O 	0.25675	0.44754	0.18341	-0.416
Mof_O 	O 	0.25675	0.94754	0.68341	-0.378
Mof_O 	O 	0.75675	0.55246	0.31659	-0.407
Mof_O 	O 	0.75675	0.05246	0.81659	-0.419
Mof_O 	O 	0.25675	0.55246	0.81659	-0.405
Mof_O 	O 	0.25675	0.05246	0.31659	-0.428
Mof_O 	O 	0.31659	0.55246	0.75675	-0.407
Mof_O 	O 	0.31659	0.05246	0.25675	-0.428
Mof_O 	O 	0.81659	0.55246	0.25675	-0.405
Mof_O 	O 	0.81659	0.05246	0.75675	-0.419
Mof_O 	O 	0.68341	0.44754	0.75675	-0.407
Mof_O 	O 	0.68341	0.94754	0.25675	-0.378
Mof_O 	O 	0.18341	0.44754	0.25675	-0.416
Mof_O 	O 	0.18341	0.94754	0.75675	-0.38
Mof_O 	O 	0.68341	0.55246	0.24325	-0.41
Mof_O 	O 	0.68341	0.05246	0.74325	-0.423
Mof_O 	O 	0.18341	0.55246	0.74325	-0.411
Mof_O 	O 	0.18341	0.05246	0.24325	-0.432
Mof_O 	O 	0.31659	0.44754	0.24325	-0.411
Mof_O 	O 	0.31659	0.94754	0.74325	-0.375
Mof_O 	O 	0.81659	0.44754	0.74325	-0.401
Mof_O 	O 	0.81659	0.94754	0.24325	-0.373
Mof_O 	O 	0.75675	0.31659	0.55246	-0.407
Mof_O 	O 	0.75675	0.81659	0.05246	-0.419
Mof_O 	O 	0.25675	0.31659	0.05246	-0.428
Mof_O 	O 	0.25675	0.81659	0.55246	-0.405
Mof_O 	O 	0.75675	0.68341	0.44754	-0.407
Mof_O 	O 	0.75675	0.18341	0.94754	-0.38
Mof_O 	O 	0.25675	0.68341	0.94754	-0.378
Mof_O 	O 	0.25675	0.18341	0.44754	-0.416
Mof_O 	O 	0.24325	0.68341	0.55246	-0.41
Mof_O 	O 	0.24325	0.18341	0.05246	-0.432
Mof_O 	O 	0.74325	0.68341	0.05246	-0.423
Mof_O 	O 	0.74325	0.18341	0.55246	-0.411
Mof_O 	O 	0.24325	0.31659	0.44754	-0.411
Mof_O 	O 	0.24325	0.81659	0.94754	-0.373
Mof_O 	O 	0.74325	0.31659	0.94754	-0.375
Mof_O 	O 	0.74325	0.81659	0.44754	-0.401
Mof_O 	O 	0.55246	0.75675	0.31659	-0.407
Mof_O 	O 	0.55246	0.25675	0.81659	-0.405
Mof_O 	O 	0.05246	0.75675	0.81659	-0.419
Mof_O 	O 	0.05246	0.25675	0.31659	-0.428
Mof_O 	O 	0.44754	0.75675	0.68341	-0.407
Mof_O 	O 	0.44754	0.25675	0.18341	-0.416
Mof_O 	O 	0.94754	0.75675	0.18341	-0.38
Mof_O 	O 	0.94754	0.25675	0.68341	-0.378
Mof_O 	O 	0.55246	0.24325	0.68341	-0.41
Mof_O 	O 	0.55246	0.74325	0.18341	-0.411
Mof_O 	O 	0.05246	0.24325	0.18341	-0.432
Mof_O 	O 	0.05246	0.74325	0.68341	-0.423
Mof_O 	O 	0.44754	0.24325	0.31659	-0.411
Mof_O 	O 	0.44754	0.74325	0.81659	-0.401
Mof_O 	O 	0.94754	0.24325	0.81659	-0.373
Mof_O 	O 	0.94754	0.74325	0.31659	-0.375
Mof_O 	O 	0.55246	0.31659	0.24325	-0.411
Mof_O 	O 	0.55246	0.81659	0.74325	-0.401
Mof_O 	O 	0.05246	0.31659	0.74325	-0.424
Mof_O 	O 	0.05246	0.81659	0.24325	-0.422
Mof_O 	O 	0.44754	0.68341	0.24325	-0.41
Mof_O 	O 	0.44754	0.18341	0.74325	-0.412
Mof_O 	O 	0.94754	0.68341	0.74325	-0.374
Mof_O 	O 	0.94754	0.18341	0.24325	-0.383
Mof_O 	O 	0.55246	0.68341	0.75675	-0.407
Mof_O 	O 	0.55246	0.18341	0.25675	-0.416
Mof_O 	O 	0.05246	0.68341	0.25675	-0.428
Mof_O 	O 	0.05246	0.18341	0.75675	-0.429
Mof_O 	O 	0.44754	0.31659	0.75675	-0.407
Mof_O 	O 	0.44754	0.81659	0.25675	-0.405
Mof_O 	O 	0.94754	0.31659	0.25675	-0.379
Mof_O 	O 	0.94754	0.81659	0.75675	-0.37
Mof_O 	O 	0.31659	0.75675	0.44754	-0.407
Mof_O 	O 	0.31659	0.25675	0.94754	-0.379
Mof_O 	O 	0.81659	0.75675	0.94754	-0.37
Mof_O 	O 	0.81659	0.25675	0.44754	-0.405
Mof_O 	O 	0.68341	0.75675	0.55246	-0.407
Mof_O 	O 	0.68341	0.25675	0.05246	-0.428
Mof_O 	O 	0.18341	0.75675	0.05246	-0.429
Mof_O 	O 	0.18341	0.25675	0.55246	-0.416
Mof_O 	O 	0.68341	0.24325	0.44754	-0.41
Mof_O 	O 	0.68341	0.74325	0.94754	-0.374
Mof_O 	O 	0.18341	0.24325	0.94754	-0.383
Mof_O 	O 	0.18341	0.74325	0.44754	-0.412
Mof_O 	O 	0.31659	0.24325	0.55246	-0.411
Mof_O 	O 	0.31659	0.74325	0.05246	-0.424
Mof_O 	O 	0.81659	0.24325	0.05246	-0.422
Mof_O 	O 	0.81659	0.74325	0.55246	-0.401
Mof_O 	O 	0.75675	0.55246	0.68341	-0.407
Mof_O 	O 	0.75675	0.05246	0.18341	-0.429
Mof_O 	O 	0.25675	0.55246	0.18341	-0.416
Mof_O 	O 	0.25675	0.05246	0.68341	-0.428
Mof_O 	O 	0.75675	0.44754	0.31659	-0.407
Mof_O 	O 	0.75675	0.94754	0.81659	-0.37
Mof_O 	O 	0.25675	0.44754	0.81659	-0.405
Mof_O 	O 	0.25675	0.94754	0.31659	-0.379
Mof_O 	O 	0.24325	0.55246	0.31659	-0.411
Mof_O 	O 	0.24325	0.05246	0.81659	-0.422
Mof_O 	O 	0.74325	0.55246	0.81659	-0.401
Mof_O 	O 	0.74325	0.05246	0.31659	-0.424
Mof_O 	O 	0.24325	0.44754	0.68341	-0.41
Mof_O 	O 	0.24325	0.94754	0.18341	-0.383
Mof_O 	O 	0.74325	0.44754	0.18341	-0.412
Mof_O 	O 	0.74325	0.94754	0.68341	-0.374
Mof_Cu	Cu	0.71477	0.5	0.28523	0.907
Mof_Cu	Cu	0.71477	-5.51885e-33	0.78523	0.88
Mof_Cu	Cu	0.21477	0.5	0.78523	0.907
Mof_Cu	Cu	0.21477	0	0.28523	0.876
Mof_Cu	Cu	0.28523	0.5	0.28523	0.907
Mof_Cu	Cu	0.28523	-5.51885e-33	0.78523	0.88
Mof_Cu	Cu	0.78523	0.5	0.78523	0.911
Mof_Cu	Cu	0.78523	0	0.28523	0.88
Mof_Cu	Cu	0.28523	0.5	0.71477	0.907
Mof_Cu	Cu	0.28523	-2.75943e-33	0.21477	0.876
Mof_Cu	Cu	0.78523	0.5	0.21477	0.907
Mof_Cu	Cu	0.78523	0	0.71477	0.88
Mof_Cu	Cu	0.71477	0.5	0.71477	0.907
Mof_Cu	Cu	0.71477	-2.75943e-33	0.21477	0.876
Mof_Cu	Cu	0.21477	0.5	0.21477	0.904
Mof_Cu	Cu	0.21477	0	0.71477	0.876
Mof_Cu	Cu	0.28523	0.71477	0.5	0.907
Mof_Cu	Cu	0.28523	0.21477	-0	0.876
Mof_Cu	Cu	0.78523	0.71477	-0	0.88
Mof_Cu	Cu	0.78523	0.21477	0.5	0.907
Mof_Cu	Cu	0.28523	0.28523	0.5	0.907
Mof_Cu	Cu	0.28523	0.78523	-0	0.88
Mof_Cu	Cu	0.78523	0.28523	-0	0.88
Mof_Cu	Cu	0.78523	0.78523	0.5	0.911
Mof_Cu	Cu	0.71477	0.28523	0.5	0.907
Mof_Cu	Cu	0.71477	0.78523	-0	0.88
Mof_Cu	Cu	0.21477	0.28523	-0	0.876
Mof_Cu	Cu	0.21477	0.78523	0.5	0.907
Mof_Cu	Cu	0.71477	0.71477	0.5	0.907
Mof_Cu	Cu	0.71477	0.21477	-0	0.876
Mof_Cu	Cu	0.21477	0.71477	-0	0.876
Mof_Cu	Cu	0.21477	0.21477	0.5	0.904
Mof_Cu	Cu	0.5	0.28523	0.71477	0.907
Mof_Cu	Cu	0.5	0.78523	0.21477	0.907
Mof_Cu	Cu	8.05259e-34	0.28523	0.21477	0.876
Mof_Cu	Cu	2.67996e-33	0.78523	0.71477	0.88
Mof_Cu	Cu	0.5	0.28523	0.28523	0.907
Mof_Cu	Cu	0.5	0.78523	0.78523	0.911
Mof_Cu	Cu	-8.09356e-33	0.28523	0.78523	0.88
Mof_Cu	Cu	-7.20884e-33	0.78523	0.28523	0.88
Mof_Cu	Cu	0.5	0.71477	0.28523	0.907
Mof_Cu	Cu	0.5	0.21477	0.78523	0.907
Mof_Cu	Cu	2.94414e-33	0.71477	0.78523	0.88
Mof_Cu	Cu	1.06944e-33	0.21477	0.28523	0.876
Mof_Cu	Cu	0.5	0.71477	0.71477	0.907
Mof_Cu	Cu	0.5	0.21477	0.21477	0.904
Mof_Cu	Cu	3.56468e-33	0.71477	0.21477	0.876
Mof_Cu	Cu	2.67996e-33	0.21477	0.71477	0.876
Mof_C 	C 	0.70355	0.43082	0.20355	0.376
Mof_C 	C 	0.67802	0.38652	0.17802	-0.124
Mof_C 	C 	0.70355	0.93082	0.70355	0.366
Mof_C 	C 	0.67802	0.88652	0.67802	-0.1
Mof_C 	C 	0.29645	0.56918	0.20355	0.378
Mof_C 	C 	0.32198	0.61348	0.17802	-0.126
Mof_C 	C 	0.29645	0.06918	0.70355	0.378
Mof_C 	C 	0.32198	0.11348	0.67802	-0.129
Mof_C 	C 	0.79645	0.56918	0.70355	0.373
Mof_C 	C 	0.82198	0.61348	0.67802	-0.107
Mof_C 	C 	0.29645	0.43082	0.79645	0.375
Mof_C 	C 	0.32198	0.38652	0.82198	-0.111
Mof_C 	C 	0.29645	0.93082	0.29645	0.37
Mof_C 	C 	0.32198	0.88652	0.32198	-0.106
Mof_C 	C 	0.79645	0.93082	0.79645	0.364
Mof_C 	C 	0.82198	0.88652	0.82198	-0.087
Mof_C 	C 	0.70355	0.56918	0.79645	0.373
Mof_C 	C 	0.67802	0.61348	0.82198	-0.107
Mof_C 	C 	0.70355	0.06918	0.29645	0.378
Mof_C 	C 	0.67802	0.11348	0.32198	-0.129
Mof_C 	C 	0.20355	0.70355	0.43082	0.376
Mof_C 	C 	0.17802	0.67802	0.38652	-0.124
Mof_C 	C 	0.20355	0.20355	0.93082	0.371
Mof_C 	C 	0.17802	0.17802	0.88652	-0.117
Mof_C 	C 	0.70355	0.70355	0.93082	0.366
Mof_C 	C 	0.67802	0.67802	0.88652	-0.1
Mof_C 	C 	0.20355	0.29645	0.56918	0.378
Mof_C 	C 	0.17802	0.32198	0.61348	-0.126
Mof_C 	C 	0.20355	0.79645	0.06918	0.377
Mof_C 	C 	0.17802	0.82198	0.11348	-0.128
Mof_C 	C 	0.70355	0.79645	0.56918	0.373
Mof_C 	C 	0.67802	0.82198	0.61348	-0.107
Mof_C 	C 	0.79645	0.29645	0.43082	0.375
Mof_C 	C 	0.82198	0.32198	0.38652	-0.111
Mof_C 	C 	0.79645	0.79645	0.93082	0.364
Mof_C 	C 	0.82198	0.82198	0.88652	-0.087
Mof_C 	C 	0.79645	0.70355	0.56918	0.373
Mof_C 	C 	0.82198	0.67802	0.61348	-0.107
Mof_C 	C 	0.79645	0.20355	0.06918	0.377
Mof_C 	C 	0.82198	0.17802	0.11348	-0.128
Mof_C 	C 	0.43082	0.20355	0.70355	0.376
Mof_C 	C 	0.38652	0.17802	0.67802	-0.124
Mof_C 	C 	0.93082	0.20355	0.20355	0.371
Mof_C 	C 	0.88652	0.17802	0.17802	-0.117
Mof_C 	C 	0.93082	0.70355	0.70355	0.366
Mof_C 	C 	0.88652	0.67802	0.67802	-0.1
Mof_C 	C 	0.56918	0.20355	0.29645	0.378
Mof_C 	C 	0.61348	0.17802	0.32198	-0.126
Mof_C 	C 	0.56918	0.70355	0.79645	0.373
Mof_C 	C 	0.61348	0.67802	0.82198	-0.107
Mof_C 	C 	0.06918	0.20355	0.79645	0.377
Mof_C 	C 	0.11348	0.17802	0.82198	-0.128
Mof_C 	C 	0.43082	0.79645	0.29645	0.375
Mof_C 	C 	0.38652	0.82198	0.32198	-0.111
Mof_C 	C 	0.93082	0.79645	0.79645	0.364
Mof_C 	C 	0.88652	0.82198	0.82198	-0.087
Mof_C 	C 	0.56918	0.79645	0.70355	0.373
Mof_C 	C 	0.61348	0.82198	0.67802	-0.107
Mof_C 	C 	0.06918	0.79645	0.20355	0.377
Mof_C 	C 	0.11348	0.82198	0.17802	-0.128
Mof_C 	C 	0.43082	0.70355	0.79645	0.373
Mof_C 	C 	0.38652	0.67802	0.82198	-0.109
Mof_C 	C 	0.93082	0.70355	0.29645	0.368
Mof_C 	C 	0.88652	0.67802	0.32198	-0.103
Mof_C 	C 	0.56918	0.29645	0.79645	0.374
Mof_C 	C 	0.61348	0.32198	0.82198	-0.11
Mof_C 	C 	0.06918	0.29645	0.29645	0.379
Mof_C 	C 	0.11348	0.32198	0.32198	-0.132
Mof_C 	C 	0.06918	0.79645	0.79645	0.374
Mof_C 	C 	0.11348	0.82198	0.82198	-0.112
Mof_C 	C 	0.43082	0.29645	0.20355	0.378
Mof_C 	C 	0.38652	0.32198	0.17802	-0.127
Mof_C 	C 	0.43082	0.79645	0.70355	0.373
Mof_C 	C 	0.38652	0.82198	0.67802	-0.109
Mof_C 	C 	0.93082	0.29645	0.70355	0.368
Mof_C 	C 	0.88652	0.32198	0.67802	-0.103
Mof_C 	C 	0.56918	0.70355	0.20355	0.376
Mof_C 	C 	0.61348	0.67802	0.17802	-0.123
Mof_C 	C 	0.06918	0.70355	0.70355	0.376
Mof_C 	C 	0.11348	0.67802	0.67802	-0.126
Mof_C 	C 	0.70355	0.20355	0.56918	0.376
Mof_C 	C 	0.67802	0.17802	0.61348	-0.123
Mof_C 	C 	0.70355	0.70355	0.06918	0.376
Mof_C 	C 	0.67802	0.67802	0.11348	-0.126
Mof_C 	C 	0.29645	0.20355	0.43082	0.378
Mof_C 	C 	0.32198	0.17802	0.38652	-0.127
Mof_C 	C 	0.29645	0.70355	0.93082	0.368
Mof_C 	C 	0.32198	0.67802	0.88652	-0.103
Mof_C 	C 	0.79645	0.70355	0.43082	0.373
Mof_C 	C 	0.82198	0.67802	0.38652	-0.109
Mof_C 	C 	0.29645	0.79645	0.56918	0.374
Mof_C 	C 	0.32198	0.82198	0.61348	-0.11
Mof_C 	C 	0.29645	0.29645	0.06918	0.379
Mof_C 	C 	0.32198	0.32198	0.11348	-0.132
Mof_C 	C 	0.79645	0.79645	0.06918	0.374
Mof_C 	C 	0.82198	0.82198	0.11348	-0.112
Mof_C 	C 	0.70355	0.79645	0.43082	0.373
Mof_C 	C 	0.67802	0.82198	0.38652	-0.109
Mof_C 	C 	0.70355	0.29645	0.93082	0.368
Mof_C 	C 	0.67802	0.32198	0.88652	-0.103
Mof_C 	C 	0.20355	0.43082	0.29645	0.378
Mof_C 	C 	0.17802	0.38652	0.32198	-0.127
Mof_C 	C 	0.20355	0.93082	0.79645	0.367
Mof_C 	C 	0.17802	0.88652	0.82198	-0.102
Mof_C 	C 	0.70355	0.43082	0.79645	0.373
Mof_C 	C 	0.67802	0.38652	0.82198	-0.109
Mof_C 	C 	0.20355	0.56918	0.70355	0.376
Mof_C 	C 	0.17802	0.61348	0.67802	-0.123
Mof_C 	C 	0.20355	0.06918	0.20355	0.381
Mof_C 	C 	0.17802	0.11348	0.17802	-0.143
Mof_C 	C 	0.70355	0.06918	0.70355	0.376
Mof_C 	C 	0.67802	0.11348	0.67802	-0.126
Mof_C 	C 	0.79645	0.43082	0.70355	0.373
Mof_C 	C 	0.82198	0.38652	0.67802	-0.109
Mof_C 	C 	0.79645	0.93082	0.20355	0.367
Mof_C 	C 	0.82198	0.88652	0.17802	-0.102
Mof_C 	C 	0.79645	0.56918	0.29645	0.374
Mof_C 	C 	0.82198	0.61348	0.32198	-0.11
Mof_C 	C 	0.79645	0.06918	0.79645	0.374
Mof_C 	C 	0.82198	0.11348	0.82198	-0.112
Mof_C 	C 	0.29645	0.56918	0.79645	0.374
Mof_C 	C 	0.32198	0.61348	0.82198	-0.11
Mof_C 	C 	0.29645	0.06918	0.29645	0.379
Mof_C 	C 	0.32198	0.11348	0.32198	-0.132
Mof_C 	C 	0.70355	0.93082	0.29645	0.368
Mof_C 	C 	0.67802	0.88652	0.32198	-0.103
Mof_C 	C 	0.70355	0.56918	0.20355	0.376
Mof_C 	C 	0.67802	0.61348	0.17802	-0.123
Mof_C 	C 	0.29645	0.43082	0.20355	0.378
Mof_C 	C 	0.32198	0.38652	0.17802	-0.127
Mof_C 	C 	0.29645	0.93082	0.70355	0.368
Mof_C 	C 	0.32198	0.88652	0.67802	-0.103
Mof_C 	C 	0.79645	0.29645	0.56918	0.374
Mof_C 	C 	0.82198	0.32198	0.61348	-0.11
Mof_C 	C 	0.79645	0.20355	0.93082	0.367
Mof_C 	C 	0.82198	0.17802	0.88652	-0.102
Mof_C 	C 	0.20355	0.70355	0.56918	0.376
Mof_C 	C 	0.17802	0.67802	0.61348	-0.123
Mof_C 	C 	0.20355	0.20355	0.06918	0.381
Mof_C 	C 	0.17802	0.17802	0.11348	-0.143
Mof_C 	C 	0.20355	0.29645	0.43082	0.378
Mof_C 	C 	0.17802	0.32198	0.38652	-0.127
Mof_C 	C 	0.20355	0.79645	0.93082	0.367
Mof_C 	C 	0.17802	0.82198	0.88652	-0.102
Mof_C 	C 	0.56918	0.79645	0.29645	0.374
Mof_C 	C 	0.61348	0.82198	0.32198	-0.11
Mof_C 	C 	0.93082	0.79645	0.20355	0.367
Mof_C 	C 	0.88652	0.82198	0.17802	-0.102
Mof_C 	C 	0.56918	0.20355	0.70355	0.376
Mof_C 	C 	0.61348	0.17802	0.67802	-0.123
Mof_C 	C 	0.06918	0.20355	0.20355	0.381
Mof_C 	C 	0.11348	0.17802	0.17802	-0.143
Mof_C 	C 	0.43082	0.20355	0.29645	0.378
Mof_C 	C 	0.38652	0.17802	0.32198	-0.127
Mof_C 	C 	0.93082	0.20355	0.79645	0.367
Mof_C 	C 	0.88652	0.17802	0.82198	-0.102
Mof_C 	C 	0.56918	0.29645	0.20355	0.378
Mof_C 	C 	0.61348	0.32198	0.17802	-0.126
Mof_C 	C 	0.06918	0.29645	0.70355	0.378
Mof_C 	C 	0.11348	0.32198	0.67802	-0.129
Mof_C 	C 	0.43082	0.70355	0.20355	0.376
Mof_C 	C 	0.38652	0.67802	0.17802	-0.124
Mof_C 	C 	0.06918	0.70355	0.29645	0.378
Mof_C 	C 	0.11348	0.67802	0.32198	-0.129
Mof_C 	C 	0.43082	0.29645	0.79645	0.375
Mof_C 	C 	0.38652	0.32198	0.82198	-0.111
Mof_C 	C 	0.93082	0.29645	0.29645	0.37
Mof_C 	C 	0.88652	0.32198	0.32198	-0.106
Mof_C 	C 	0.29645	0.79645	0.43082	0.375
Mof_C 	C 	0.32198	0.82198	0.38652	-0.111
Mof_C 	C 	0.29645	0.29645	0.93082	0.37
Mof_C 	C 	0.32198	0.32198	0.88652	-0.106
Mof_C 	C 	0.70355	0.29645	0.06918	0.378
Mof_C 	C 	0.67802	0.32198	0.11348	-0.129
Mof_C 	C 	0.70355	0.20355	0.43082	0.376
Mof_C 	C 	0.67802	0.17802	0.38652	-0.124
Mof_C 	C 	0.29645	0.20355	0.56918	0.378
Mof_C 	C 	0.32198	0.17802	0.61348	-0.126
Mof_C 	C 	0.29645	0.70355	0.06918	0.378
Mof_C 	C 	0.32198	0.67802	0.11348	-0.129
Mof_C 	C 	0.79645	0.06918	0.20355	0.377
Mof_C 	C 	0.82198	0.11348	0.17802	-0.128
Mof_C 	C 	0.79645	0.43082	0.29645	0.375
Mof_C 	C 	0.82198	0.38652	0.32198	-0.111
Mof_C 	C 	0.20355	0.56918	0.29645	0.378
Mof_C 	C 	0.17802	0.61348	0.32198	-0.126
Mof_C 	C 	0.20355	0.06918	0.79645	0.377
Mof_C 	C 	0.17802	0.11348	0.82198	-0.128
Mof_C 	C 	0.20355	0.43082	0.70355	0.376
Mof_C 	C 	0.17802	0.38652	0.67802	-0.124
Mof_C 	C 	0.20355	0.93082	0.20355	0.371
Mof_C 	C 	0.17802	0.88652	0.17802	-0.117
Mof_C 	C 	0.63501	0.36499	0.19951	0.067
Mof_H 	H 	0.6206	0.3794	0.2283	0.04
Mof_C 	C 	0.63501	0.86499	0.69951	0.054
Mof_H 	H 	0.6206	0.8794	0.7283	0.054
Mof_C 	C 	0.13501	0.36499	0.69951	0.067
Mof_H 	H 	0.1206	0.3794	0.7283	0.037
Mof_C 	C 	0.13501	0.86499	0.19951	0.065
Mof_H 	H 	0.1206	0.8794	0.2283	0.042
Mof_C 	C 	0.36499	0.63501	0.19951	0.067
Mof_H 	H 	0.3794	0.6206	0.2283	0.04
Mof_C 	C 	0.36499	0.13501	0.69951	0.067
Mof_H 	H 	0.3794	0.1206	0.7283	0.037
Mof_C 	C 	0.86499	0.63501	0.69951	0.054
Mof_H 	H 	0.8794	0.6206	0.7283	0.054
Mof_C 	C 	0.86499	0.13501	0.19951	0.065
Mof_H 	H 	0.8794	0.1206	0.2283	0.042
Mof_C 	C 	0.36499	0.36499	0.80049	0.06
Mof_H 	H 	0.3794	0.3794	0.7717	0.045
Mof_C 	C 	0.36499	0.86499	0.30049	0.059
Mof_H 	H 	0.3794	0.8794	0.2717	0.049
Mof_C 	C 	0.86499	0.36499	0.30049	0.059
Mof_H 	H 	0.8794	0.3794	0.2717	0.049
Mof_C 	C 	0.86499	0.86499	0.80049	0.045
Mof_H 	H 	0.8794	0.8794	0.7717	0.063
Mof_C 	C 	0.63501	0.63501	0.80049	0.057
Mof_H 	H 	0.6206	0.6206	0.7717	0.046
Mof_C 	C 	0.63501	0.13501	0.30049	0.068
Mof_H 	H 	0.6206	0.1206	0.2717	0.034
Mof_C 	C 	0.13501	0.63501	0.30049	0.068
Mof_H 	H 	0.1206	0.6206	0.2717	0.034
Mof_C 	C 	0.13501	0.13501	0.80049	0.067
Mof_H 	H 	0.1206	0.1206	0.7717	0.031
Mof_C 	C 	0.19951	0.63501	0.36499	0.067
Mof_H 	H 	0.2283	0.6206	0.3794	0.04
Mof_C 	C 	0.19951	0.13501	0.86499	0.065
Mof_H 	H 	0.2283	0.1206	0.8794	0.042
Mof_C 	C 	0.69951	0.63501	0.86499	0.054
Mof_H 	H 	0.7283	0.6206	0.8794	0.054
Mof_C 	C 	0.69951	0.13501	0.36499	0.067
Mof_H 	H 	0.7283	0.1206	0.3794	0.037
Mof_C 	C 	0.19951	0.36499	0.63501	0.067
Mof_H 	H 	0.2283	0.3794	0.6206	0.04
Mof_C 	C 	0.19951	0.86499	0.13501	0.065
Mof_H 	H 	0.2283	0.8794	0.1206	0.042
Mof_C 	C 	0.69951	0.36499	0.13501	0.067
Mof_H 	H 	0.7283	0.3794	0.1206	0.037
Mof_C 	C 	0.69951	0.86499	0.63501	0.054
Mof_H 	H 	0.7283	0.8794	0.6206	0.054
Mof_C 	C 	0.80049	0.36499	0.36499	0.06
Mof_H 	H 	0.7717	0.3794	0.3794	0.045
Mof_C 	C 	0.80049	0.86499	0.86499	0.045
Mof_H 	H 	0.7717	0.8794	0.8794	0.063
Mof_C 	C 	0.30049	0.36499	0.86499	0.059
Mof_H 	H 	0.2717	0.3794	0.8794	0.049
Mof_C 	C 	0.30049	0.86499	0.36499	0.059
Mof_H 	H 	0.2717	0.8794	0.3794	0.049
Mof_C 	C 	0.80049	0.63501	0.63501	0.057
Mof_H 	H 	0.7717	0.6206	0.6206	0.046
Mof_C 	C 	0.80049	0.13501	0.13501	0.067
Mof_H 	H 	0.7717	0.1206	0.1206	0.031
Mof_C 	C 	0.30049	0.63501	0.13501	0.068
Mof_H 	H 	0.2717	0.6206	0.1206	0.034
Mof_C 	C 	0.30049	0.13501	0.63501	0.068
Mof_H 	H 	0.2717	0.1206	0.6206	0.034
Mof_C 	C 	0.36499	0.19951	0.63501	0.067
Mof_H 	H 	0.3794	0.2283	0.6206	0.04
Mof_C 	C 	0.36499	0.69951	0.13501	0.067
Mof_H 	H 	0.3794	0.7283	0.1206	0.037
Mof_C 	C 	0.86499	0.19951	0.13501	0.065
Mof_H 	H 	0.8794	0.2283	0.1206	0.042
Mof_C 	C 	0.86499	0.69951	0.63501	0.054
Mof_H 	H 	0.8794	0.7283	0.6206	0.054
Mof_C 	C 	0.63501	0.19951	0.36499	0.067
Mof_H 	H 	0.6206	0.2283	0.3794	0.04
Mof_C 	C 	0.63501	0.69951	0.86499	0.054
Mof_H 	H 	0.6206	0.7283	0.8794	0.054
Mof_C 	C 	0.13501	0.19951	0.86499	0.065
Mof_H 	H 	0.1206	0.2283	0.8794	0.042
Mof_C 	C 	0.13501	0.69951	0.36499	0.067
Mof_H 	H 	0.1206	0.7283	0.3794	0.037
Mof_C 	C 	0.36499	0.80049	0.36499	0.06
Mof_H 	H 	0.3794	0.7717	0.3794	0.045
Mof_C 	C 	0.36499	0.30049	0.86499	0.059
Mof_H 	H 	0.3794	0.2717	0.8794	0.049
Mof_C 	C 	0.86499	0.80049	0.86499	0.045
Mof_H 	H 	0.8794	0.7717	0.8794	0.063
Mof_C 	C 	0.86499	0.30049	0.36499	0.059
Mof_H 	H 	0.8794	0.2717	0.3794	0.049
Mof_C 	C 	0.63501	0.80049	0.63501	0.057
Mof_H 	H 	0.6206	0.7717	0.6206	0.046
Mof_C 	C 	0.63501	0.30049	0.13501	0.068
Mof_H 	H 	0.6206	0.2717	0.1206	0.034
Mof_C 	C 	0.13501	0.80049	0.13501	0.067
Mof_H 	H 	0.1206	0.7717	0.1206	0.031
Mof_C 	C 	0.13501	0.30049	0.63501	0.068
Mof_H 	H 	0.1206	0.2717	0.6206	0.034
Mof_C 	C 	0.36499	0.63501	0.80049	0.058
Mof_H 	H 	0.3794	0.6206	0.7717	0.046
Mof_C 	C 	0.36499	0.13501	0.30049	0.07
Mof_H 	H 	0.3794	0.1206	0.2717	0.033
Mof_C 	C 	0.86499	0.63501	0.30049	0.057
Mof_H 	H 	0.8794	0.6206	0.2717	0.05
Mof_C 	C 	0.86499	0.13501	0.80049	0.056
Mof_H 	H 	0.8794	0.1206	0.7717	0.047
Mof_C 	C 	0.63501	0.36499	0.80049	0.058
Mof_H 	H 	0.6206	0.3794	0.7717	0.046
Mof_C 	C 	0.63501	0.86499	0.30049	0.057
Mof_H 	H 	0.6206	0.8794	0.2717	0.05
Mof_C 	C 	0.13501	0.36499	0.30049	0.07
Mof_H 	H 	0.1206	0.3794	0.2717	0.033
Mof_C 	C 	0.13501	0.86499	0.80049	0.056
Mof_H 	H 	0.1206	0.8794	0.7717	0.047
Mof_C 	C 	0.36499	0.36499	0.19951	0.068
Mof_H 	H 	0.3794	0.3794	0.2283	0.04
Mof_C 	C 	0.36499	0.86499	0.69951	0.056
Mof_H 	H 	0.3794	0.8794	0.7283	0.053
Mof_C 	C 	0.86499	0.36499	0.69951	0.056
Mof_H 	H 	0.8794	0.3794	0.7283	0.053
Mof_C 	C 	0.86499	0.86499	0.19951	0.054
Mof_H 	H 	0.8794	0.8794	0.2283	0.058
Mof_C 	C 	0.63501	0.63501	0.19951	0.065
Mof_H 	H 	0.6206	0.6206	0.2283	0.041
Mof_C 	C 	0.63501	0.13501	0.69951	0.066
Mof_H 	H 	0.6206	0.1206	0.7283	0.038
Mof_C 	C 	0.13501	0.63501	0.69951	0.066
Mof_H 	H 	0.1206	0.6206	0.7283	0.038
Mof_C 	C 	0.13501	0.13501	0.19951	0.076
Mof_H 	H 	0.1206	0.1206	0.2283	0.026
Mof_C 	C 	0.63501	0.19951	0.63501	0.065
Mof_H 	H 	0.6206	0.2283	0.6206	0.041
Mof_C 	C 	0.63501	0.69951	0.13501	0.066
Mof_H 	H 	0.6206	0.7283	0.1206	0.038
Mof_C 	C 	0.13501	0.19951	0.13501	0.076
Mof_H 	H 	0.1206	0.2283	0.1206	0.026
Mof_C 	C 	0.13501	0.69951	0.63501	0.066
Mof_H 	H 	0.1206	0.7283	0.6206	0.038
Mof_C 	C 	0.36499	0.19951	0.36499	0.068
Mof_H 	H 	0.3794	0.2283	0.3794	0.04
Mof_C 	C 	0.36499	0.69951	0.86499	0.056
Mof_H 	H 	0.3794	0.7283	0.8794	0.053
Mof_C 	C 	0.86499	0.19951	0.86499	0.054
Mof_H 	H 	0.8794	0.2283	0.8794	0.058
Mof_C 	C 	0.86499	0.69951	0.36499	0.056
Mof_H 	H 	0.8794	0.7283	0.3794	0.053
Mof_C 	C 	0.36499	0.80049	0.63501	0.058
Mof_H 	H 	0.3794	0.7717	0.6206	0.046
Mof_C 	C 	0.36499	0.30049	0.13501	0.07
Mof_H 	H 	0.3794	0.2717	0.1206	0.033
Mof_C 	C 	0.86499	0.80049	0.13501	0.056
Mof_H 	H 	0.8794	0.7717	0.1206	0.047
Mof_C 	C 	0.86499	0.30049	0.63501	0.057
Mof_H 	H 	0.8794	0.2717	0.6206	0.05
Mof_C 	C 	0.63501	0.80049	0.36499	0.058
Mof_H 	H 	0.6206	0.7717	0.3794	0.046
Mof_C 	C 	0.63501	0.30049	0.86499	0.057
Mof_H 	H 	0.6206	0.2717	0.8794	0.05
Mof_C 	C 	0.13501	0.80049	0.86499	0.056
Mof_H 	H 	0.1206	0.7717	0.8794	0.047
Mof_C 	C 	0.13501	0.30049	0.36499	0.07
Mof_H 	H 	0.1206	0.2717	0.3794	0.033
Mof_C 	C 	0.19951	0.36499	0.36499	0.068
Mof_H 	H 	0.2283	0.3794	0.3794	0.04
Mof_C 	C 	0.19951	0.86499	0.86499	0.054
Mof_H 	H 	0.2283	0.8794	0.8794	0.058
Mof_C 	C 	0.69951	0.36499	0.86499	0.056
Mof_H 	H 	0.7283	0.3794	0.8794	0.053
Mof_C 	C 	0.69951	0.86499	0.36499	0.056
Mof_H 	H 	0.7283	0.8794	0.3794	0.053
Mof_C 	C 	0.19951	0.63501	0.63501	0.065
Mof_H 	H 	0.2283	0.6206	0.6206	0.041
Mof_C 	C 	0.19951	0.13501	0.13501	0.076
Mof_H 	H 	0.2283	0.1206	0.1206	0.026
Mof_C 	C 	0.69951	0.63501	0.13501	0.066
Mof_H 	H 	0.7283	0.6206	0.1206	0.038
Mof_C 	C 	0.69951	0.13501	0.63501	0.066
Mof_H 	H 	0.7283	0.1206	0.6206	0.038
Mof_C 	C 	0.80049	0.36499	0.63501	0.058
Mof_H 	H 	0.7717	0.3794	0.6206	0.046
Mof_C 	C 	0.80049	0.86499	0.13501	0.056
Mof_H 	H 	0.7717	0.8794	0.1206	0.047
Mof_C 	C 	0.30049	0.36499	0.13501	0.07
Mof_H 	H 	0.2717	0.3794	0.1206	0.033
Mof_C 	C 	0.30049	0.86499	0.63501	0.057
Mof_H 	H 	0.2717	0.8794	0.6206	0.05
Mof_C 	C 	0.80049	0.63501	0.36499	0.058
Mof_H 	H 	0.7717	0.6206	0.3794	0.046
Mof_C 	C 	0.80049	0.13501	0.86499	0.056
Mof_H 	H 	0.7717	0.1206	0.8794	0.047
Mof_C 	C 	0.30049	0.63501	0.86499	0.057
Mof_H 	H 	0.2717	0.6206	0.8794	0.05
Mof_C 	C 	0.30049	0.13501	0.36499	0.07
Mof_H 	H 	0.2717	0.1206	0.3794	0.033
_end
