data_functionalizedCrystal
_audit_creation_method	'EQeq! by Chris Wilmer'
_symmetry_space_group_name_H-M	'P1'
_symmetry_Int_Tables_number	1
_symmetry_cell_setting	triclinic
loop_
_symmetry_equiv_pos_as_xyz
  x,y,z
_cell_length_a	20.8484
_cell_length_b	21.71
_cell_length_c	15.4856
_cell_angle_alpha	90
_cell_angle_beta	90
_cell_angle_gamma	90
loop_
_atom_site_label
_atom_site_type_symbol
_atom_site_fract_x
_atom_site_fract_y
_atom_site_fract_z
_atom_site_charge
Mof_Fe	Fe	0.94677	0.67117	0.98153	-0.179
Mof_O 	O 	0.8778	0.7238	0.0206	-0.178
Mof_O 	O 	0.9265	0.5888	0.943	0.732
Mof_O 	O 	0.7163	0.7554	0.3106	-0.041
Mof_O 	O 	0.8062	0.4728	0.6726	-0.819
Mof_N 	N 	0.948	0.6394	0.1089	-0.134
Mof_N 	N 	0.0467	0.6378	0.9967	-0.211
Mof_H 	H 	0.0497	0.6033	0.9636	0.135
Mof_N 	N 	0.0081	0.7552	0.965	-0.264
Mof_H 	H 	0.9915	0.786	0.9981	0.268
Mof_N 	N 	0.9201	0.6965	0.8567	-0.013
Mof_C 	C 	0.8464	0.7325	0.0929	0.237
Mof_C 	C 	0.7985	0.777	0.0909	-0.263
Mof_H 	H 	0.794	0.8023	0.0428	0.199
Mof_C 	C 	0.7573	0.7837	0.1609	-0.032
Mof_H 	H 	0.7253	0.8135	0.1596	0.082
Mof_C 	C 	0.7641	0.746	0.2328	-0.321
Mof_C 	C 	0.812	0.7015	0.2348	0.563
Mof_H 	H 	0.8165	0.6762	0.2829	-0.154
Mof_C 	C 	0.8532	0.6947	0.1648	0.311
Mof_C 	C 	0.9061	0.6533	0.1724	-0.077
Mof_H 	H 	0.9122	0.6344	0.2256	0.064
Mof_C 	C 	0.9968	0.5916	0.1237	0.245
Mof_H 	H 	0.9853	0.5537	0.0945	-0.007
Mof_H 	H 	0.0015	0.5833	0.1849	0.04
Mof_C 	C 	0.0582	0.6177	0.087	-0.008
Mof_H 	H 	0.0723	0.6524	0.1216	0.146
Mof_H 	H 	0.0916	0.5865	0.0883	0.191
Mof_C 	C 	0.0948	0.6814	0.9621	0.129
Mof_H 	H 	0.0958	0.6797	0.8995	0.039
Mof_H 	H 	0.1372	0.6717	0.984	0.015
Mof_C 	C 	0.0737	0.744	0.9925	-0.035
Mof_H 	H 	0.0764	0.7461	0.0549	0.088
Mof_H 	H 	0.1017	0.7753	0.9686	0.048
Mof_C 	C 	0.0004	0.7735	0.868	0.073
Mof_H 	H 	0.0102	0.8168	0.8605	-0.013
Mof_H 	H 	0.03	0.7498	0.8328	-0.186
Mof_C 	C 	0.9351	0.7613	0.8409	-0.143
Mof_H 	H 	0.9304	0.7706	0.78	0.092
Mof_H 	H 	0.9058	0.7874	0.873	0.11
Mof_C 	C 	0.8921	0.6652	0.7974	-0.01
Mof_H 	H 	0.8806	0.6852	0.7466	0.034
Mof_C 	C 	0.8774	0.5999	0.8055	0.226
Mof_C 	C 	0.847	0.5715	0.7363	-0.54
Mof_H 	H 	0.8319	0.5951	0.6904	0.155
Mof_C 	C 	0.839	0.5079	0.7356	0.184
Mof_C 	C 	0.8615	0.4727	0.8042	-1.149
Mof_H 	H 	0.8561	0.4302	0.8037	-0.331
Mof_C 	C 	0.8919	0.5011	0.8734	0.075
Mof_H 	H 	0.907	0.4775	0.9193	0.05
Mof_C 	C 	0.8999	0.5646	0.8741	1.154
Mof_C 	C 	0.7498	0.7498	0.3844	-0.392
Mof_H 	H 	0.7216	0.7555	0.4328	0.186
Mof_H 	H 	0.783	0.7804	0.3859	0.175
Mof_H 	H 	0.7687	0.7095	0.3872	0.184
Mof_C 	C 	0.7737	0.5047	0.6139	3.297
Mof_H 	H 	0.7535	0.4768	0.5742	-1.558
Mof_H 	H 	0.8026	0.5312	0.5831	-0.8
Mof_H 	H 	0.7415	0.5291	0.6421	-0.905
Mof_C 	C 	0.8684	0.7481	0.0849	-0.171
Mof_C 	C 	0.8246	0.7403	0.1517	0.235
Mof_C 	C 	0.7788	0.7853	0.1679	-0.239
Mof_C 	C 	0.7767	0.8381	0.1174	0.428
Mof_C 	C 	0.8205	0.846	0.0506	-0.488
Mof_C 	C 	0.8663	0.801	0.0343	0.174
Mof_C 	C 	0.9173	0.8109	0.9822	-0.017
Mof_C 	C 	0.0177	0.7861	0.9119	0.09
Mof_C 	C 	0.0499	0.7417	0.861	0.091
Mof_C 	C 	0.1054	0.6716	0.9857	0.086
Mof_C 	C 	0.1054	0.709	0.0577	-0.325
Mof_C 	C 	0.027	0.653	0.154	-0.335
Mof_C 	C 	0.0267	0.5979	0.1155	0.004
Mof_C 	C 	0.9498	0.5539	-0	0.297
Mof_C 	C 	0.9094	0.5601	0.9276	-1.624
Mof_C 	C 	0.8906	0.5053	0.8887	-0.159
Mof_C 	C 	0.8562	0.5065	0.8118	0.892
Mof_C 	C 	0.8405	0.5626	0.7739	-0.18
Mof_C 	C 	0.8592	0.6174	0.8129	-0.316
Mof_C 	C 	0.8937	0.6161	0.8897	-0.267
Mof_C 	C 	0.7345	0.9388	0.087	3.508
Mof_C 	C 	0.8595	0.3968	0.7982	1.556
Mof_Fe	Fe	0.973	0.6885	0.0045	1.097
Mof_H 	H 	0.826	0.7049	0.1855	-0.492
Mof_H 	H 	0.7495	0.78	0.2126	0.297
Mof_H 	H 	0.8191	0.8814	0.0168	0.22
Mof_H 	H 	0.9175	0.848	0.9521	0.064
Mof_H 	H 	0.0506	0.8065	0.9458	0.009
Mof_H 	H 	0.0013	0.8166	0.8719	0.024
Mof_H 	H 	0.0935	0.7543	0.8479	0.017
Mof_H 	H 	0.0271	0.7334	0.8077	0.157
Mof_H 	H 	0.1039	0.6289	0.0042	-0.016
Mof_H 	H 	0.1452	0.6776	0.9544	-0.01
Mof_H 	H 	0.0435	0.6497	0.8908	0.131
Mof_H 	H 	0.1142	0.7515	0.0422	0.065
Mof_H 	H 	0.1371	0.6954	0.0994	0.147
Mof_H 	H 	0.0609	0.6543	0.1973	0.14
Mof_H 	H 	0.9866	0.6598	0.1835	0.158
Mof_H 	H 	0.0128	0.5664	0.1557	-0.073
Mof_H 	H 	0.0692	0.5875	0.0949	-0.128
Mof_H 	H 	0.9567	0.5146	0.0221	-0.044
Mof_H 	H 	0.9012	0.4678	0.914	0.14
Mof_H 	H 	0.8174	0.5634	0.7225	0.323
Mof_H 	H 	0.8487	0.6549	0.7876	0.169
Mof_H 	H 	0.0272	0.7379	0.1208	0.08
Mof_H 	H 	0.6987	0.9661	0.0944	-1.411
Mof_H 	H 	0.7433	0.9344	0.0261	-0.735
Mof_H 	H 	0.7715	0.9554	0.1152	-0.779
Mof_H 	H 	0.8418	0.3657	0.7611	-0.429
Mof_H 	H 	0.8459	0.3895	0.8565	-0.352
Mof_H 	H 	0.9055	0.3953	0.7953	-0.359
Mof_N 	N 	0.9682	0.7731	0.9685	-0.242
Mof_N 	N 	0.0486	0.6839	0.9241	-0.271
Mof_N 	N 	0.0373	0.702	0.0937	-0.194
Mof_N 	N 	0.9794	0.6029	0.0395	-0.28
Mof_O 	O 	0.9074	0.7015	0.0881	-0.262
Mof_O 	O 	0.9146	0.6741	0.9195	-0.15
Mof_O 	O 	0.7194	0.88	0.1224	-0.896
Mof_O 	O 	0.8352	0.4628	0.7676	0.337
Mof_Fe	Fe	0.55323	0.17117	0.48153	0.286
Mof_O 	O 	0.6222	0.2238	0.5206	-0.166
Mof_O 	O 	0.5735	0.0888	0.443	0.654
Mof_O 	O 	0.7837	0.2554	0.8106	-0.027
Mof_O 	O 	0.6938	0.9728	0.1726	-0.865
Mof_N 	N 	0.552	0.1394	0.6089	-0.134
Mof_N 	N 	0.4533	0.1378	0.4967	-0.229
Mof_H 	H 	0.4503	0.1033	0.4636	0.111
Mof_N 	N 	0.4919	0.2552	0.465	-0.241
Mof_H 	H 	0.5085	0.286	0.4981	0.237
Mof_N 	N 	0.5799	0.1965	0.3567	0.024
Mof_C 	C 	0.6536	0.2325	0.5929	0.178
Mof_C 	C 	0.7015	0.277	0.5909	-0.274
Mof_H 	H 	0.706	0.3023	0.5428	0.218
Mof_C 	C 	0.7427	0.2837	0.6609	-0.042
Mof_H 	H 	0.7747	0.3135	0.6596	0.081
Mof_C 	C 	0.7359	0.246	0.7328	-0.291
Mof_C 	C 	0.688	0.2015	0.7348	0.493
Mof_H 	H 	0.6835	0.1762	0.7829	-0.124
Mof_C 	C 	0.6468	0.1947	0.6648	0.283
Mof_C 	C 	0.5939	0.1533	0.6724	-0.06
Mof_H 	H 	0.5878	0.1344	0.7256	0.059
Mof_C 	C 	0.5032	0.0916	0.6237	0.262
Mof_H 	H 	0.5147	0.0537	0.5945	-0.017
Mof_H 	H 	0.4985	0.0833	0.6849	0.042
Mof_C 	C 	0.4418	0.1177	0.587	-0.088
Mof_H 	H 	0.4277	0.1524	0.6216	0.172
Mof_H 	H 	0.4084	0.0865	0.5883	0.165
Mof_C 	C 	0.4052	0.1814	0.4621	0.12
Mof_H 	H 	0.4042	0.1797	0.3995	0.021
Mof_H 	H 	0.3628	0.1717	0.484	-0.13
Mof_C 	C 	0.4263	0.244	0.4925	-0.158
Mof_H 	H 	0.4236	0.2461	0.5549	0.133
Mof_H 	H 	0.3983	0.2753	0.4686	0.069
Mof_C 	C 	0.4996	0.2735	0.368	-0.018
Mof_H 	H 	0.4898	0.3168	0.3605	-0.011
Mof_H 	H 	0.47	0.2498	0.3328	-0.224
Mof_C 	C 	0.5649	0.2613	0.3409	-0.117
Mof_H 	H 	0.5696	0.2706	0.28	0.082
Mof_H 	H 	0.5942	0.2874	0.373	0.099
Mof_C 	C 	0.6079	0.1652	0.2974	-0.012
Mof_H 	H 	0.6194	0.1852	0.2466	0.027
Mof_C 	C 	0.6226	0.0999	0.3055	0.215
Mof_C 	C 	0.653	0.0715	0.2363	-0.589
Mof_H 	H 	0.6681	0.0951	0.1904	0.162
Mof_C 	C 	0.661	0.0079	0.2356	0.134
Mof_C 	C 	0.6385	0.9727	0.3042	-1.262
Mof_H 	H 	0.6439	0.9302	0.3037	-0.335
Mof_C 	C 	0.6081	0.0011	0.3734	0.058
Mof_H 	H 	0.593	0.9775	0.4193	0.05
Mof_C 	C 	0.6001	0.0646	0.3741	1.239
Mof_C 	C 	0.7502	0.2498	0.8844	-0.452
Mof_H 	H 	0.7784	0.2555	0.9328	0.224
Mof_H 	H 	0.717	0.2804	0.8859	0.204
Mof_H 	H 	0.7313	0.2095	0.8872	0.214
Mof_C 	C 	0.7263	0.0047	0.1139	3.631
Mof_H 	H 	0.7465	0.9768	0.0742	-1.729
Mof_H 	H 	0.6974	0.0312	0.0831	-0.902
Mof_H 	H 	0.7585	0.0291	0.1421	-1.015
Mof_C 	C 	0.6316	0.2481	0.5849	-0.13
Mof_C 	C 	0.6754	0.2403	0.6517	0.255
Mof_C 	C 	0.7212	0.2853	0.6679	-0.225
Mof_C 	C 	0.7233	0.3381	0.6174	0.435
Mof_C 	C 	0.6795	0.346	0.5506	-0.54
Mof_C 	C 	0.6337	0.301	0.5343	0.275
Mof_C 	C 	0.5827	0.3109	0.4822	-0.138
Mof_C 	C 	0.4823	0.2861	0.4119	0.164
Mof_C 	C 	0.4501	0.2417	0.361	0.177
Mof_C 	C 	0.3946	0.1716	0.4857	0.111
Mof_C 	C 	0.3946	0.209	0.5577	-0.253
Mof_C 	C 	0.473	0.153	0.654	-0.346
Mof_C 	C 	0.4733	0.0979	0.6155	0.041
Mof_C 	C 	0.5502	0.0539	0.5	0.462
Mof_C 	C 	0.5906	0.0601	0.4276	-1.744
Mof_C 	C 	0.6094	0.0053	0.3887	-0.17
Mof_C 	C 	0.6438	0.0065	0.3118	0.957
Mof_C 	C 	0.6595	0.0626	0.2739	-0.144
Mof_C 	C 	0.6408	0.1174	0.3129	-0.359
Mof_C 	C 	0.6063	0.1161	0.3897	-0.223
Mof_C 	C 	0.7655	0.4388	0.587	3.117
Mof_C 	C 	0.6405	0.8968	0.2982	1.601
Mof_Fe	Fe	0.527	0.1885	0.5045	0.744
Mof_H 	H 	0.674	0.2049	0.6855	-0.445
Mof_H 	H 	0.7505	0.28	0.7126	0.283
Mof_H 	H 	0.6809	0.3814	0.5168	0.258
Mof_H 	H 	0.5825	0.348	0.4521	0.09
Mof_H 	H 	0.4494	0.3065	0.4458	-0.019
Mof_H 	H 	0.4987	0.3166	0.3719	0.032
Mof_H 	H 	0.4065	0.2543	0.3479	-0.016
Mof_H 	H 	0.4729	0.2334	0.3077	0.171
Mof_H 	H 	0.3961	0.1289	0.5042	0.046
Mof_H 	H 	0.3548	0.1776	0.4544	0.086
Mof_H 	H 	0.4565	0.1497	0.3908	0.123
Mof_H 	H 	0.3858	0.2515	0.5422	0.074
Mof_H 	H 	0.3629	0.1954	0.5994	0.132
Mof_H 	H 	0.4391	0.1543	0.6973	0.14
Mof_H 	H 	0.5134	0.1598	0.6835	0.164
Mof_H 	H 	0.4872	0.0664	0.6557	-0.097
Mof_H 	H 	0.4308	0.0875	0.5949	-0.063
Mof_H 	H 	0.5433	0.0146	0.5221	-0.085
Mof_H 	H 	0.5988	0.9678	0.414	0.143
Mof_H 	H 	0.6826	0.0634	0.2225	0.337
Mof_H 	H 	0.6513	0.1549	0.2876	0.182
Mof_H 	H 	0.4728	0.2379	0.6208	0.087
Mof_H 	H 	0.8013	0.4661	0.5944	-1.25
Mof_H 	H 	0.7567	0.4344	0.5261	-0.629
Mof_H 	H 	0.7285	0.4554	0.6152	-0.682
Mof_H 	H 	0.6582	0.8657	0.2611	-0.446
Mof_H 	H 	0.6541	0.8895	0.3565	-0.374
Mof_H 	H 	0.5945	0.8953	0.2953	-0.37
Mof_N 	N 	0.5318	0.2731	0.4685	-0.221
Mof_N 	N 	0.4514	0.1839	0.4241	-0.262
Mof_N 	N 	0.4627	0.202	0.5937	-0.167
Mof_N 	N 	0.5206	0.1029	0.5395	-0.297
Mof_O 	O 	0.5926	0.2015	0.5881	-0.249
Mof_O 	O 	0.5854	0.1741	0.4195	-0.348
Mof_O 	O 	0.7806	0.38	0.6224	-0.817
Mof_O 	O 	0.6648	0.9628	0.2676	0.42
Mof_Fe	Fe	0.05323	0.32883	0.48153	0.286
Mof_O 	O 	0.1222	0.2762	0.5206	-0.166
Mof_O 	O 	0.0735	0.4112	0.443	0.65
Mof_O 	O 	0.2837	0.2446	0.8106	-0.029
Mof_O 	O 	0.1938	0.5272	0.1726	-0.724
Mof_N 	N 	0.052	0.3606	0.6089	-0.134
Mof_N 	N 	0.9533	0.3622	0.4967	-0.229
Mof_H 	H 	0.9503	0.3967	0.4636	0.111
Mof_N 	N 	0.9919	0.2448	0.465	-0.239
Mof_H 	H 	0.0085	0.214	0.4981	0.238
Mof_N 	N 	0.0799	0.3035	0.3567	0.026
Mof_C 	C 	0.1536	0.2675	0.5929	0.181
Mof_C 	C 	0.2015	0.223	0.5909	-0.27
Mof_H 	H 	0.206	0.1977	0.5428	0.215
Mof_C 	C 	0.2427	0.2163	0.6609	-0.038
Mof_H 	H 	0.2747	0.1865	0.6596	0.075
Mof_C 	C 	0.2359	0.254	0.7328	-0.292
Mof_C 	C 	0.188	0.2985	0.7348	0.499
Mof_H 	H 	0.1835	0.3238	0.7829	-0.127
Mof_C 	C 	0.1468	0.3053	0.6648	0.29
Mof_C 	C 	0.0939	0.3467	0.6724	-0.063
Mof_H 	H 	0.0878	0.3656	0.7256	0.06
Mof_C 	C 	0.0032	0.4084	0.6237	0.263
Mof_H 	H 	0.0147	0.4463	0.5945	-0.016
Mof_H 	H 	0.9985	0.4167	0.6849	0.042
Mof_C 	C 	0.9418	0.3823	0.587	-0.093
Mof_H 	H 	0.9277	0.3476	0.6216	0.173
Mof_H 	H 	0.9084	0.4135	0.5883	0.165
Mof_C 	C 	0.9052	0.3186	0.4621	0.117
Mof_H 	H 	0.9042	0.3203	0.3995	0.023
Mof_H 	H 	0.8628	0.3283	0.484	-0.126
Mof_C 	C 	0.9263	0.256	0.4925	-0.154
Mof_H 	H 	0.9236	0.2539	0.5549	0.131
Mof_H 	H 	0.8983	0.2247	0.4686	0.067
Mof_C 	C 	0.9996	0.2265	0.368	0.001
Mof_H 	H 	0.9898	0.1832	0.3605	-0.011
Mof_H 	H 	0.97	0.2502	0.3328	-0.212
Mof_C 	C 	0.0649	0.2387	0.3409	-0.125
Mof_H 	H 	0.0696	0.2294	0.28	0.085
Mof_H 	H 	0.0942	0.2126	0.373	0.101
Mof_C 	C 	0.1079	0.3348	0.2974	-0.011
Mof_H 	H 	0.1194	0.3148	0.2466	0.027
Mof_C 	C 	0.1226	0.4001	0.3055	0.214
Mof_C 	C 	0.153	0.4285	0.2363	-0.562
Mof_H 	H 	0.1681	0.4049	0.1904	0.15
Mof_C 	C 	0.161	0.4921	0.2356	0.133
Mof_C 	C 	0.1385	0.5273	0.3042	-1.185
Mof_H 	H 	0.1439	0.5698	0.3037	-0.328
Mof_C 	C 	0.1081	0.4989	0.3734	0.07
Mof_H 	H 	0.093	0.5225	0.4193	0.044
Mof_C 	C 	0.1001	0.4354	0.3741	1.238
Mof_C 	C 	0.2502	0.2502	0.8844	-0.442
Mof_H 	H 	0.2784	0.2445	0.9328	0.218
Mof_H 	H 	0.217	0.2196	0.8859	0.2
Mof_H 	H 	0.2313	0.2905	0.8872	0.208
Mof_C 	C 	0.2263	0.4953	0.1139	2.756
Mof_H 	H 	0.2465	0.5232	0.0742	-1.314
Mof_H 	H 	0.1974	0.4688	0.0831	-0.676
Mof_H 	H 	0.2585	0.4709	0.1421	-0.759
Mof_C 	C 	0.1316	0.2519	0.5849	-0.131
Mof_C 	C 	0.1754	0.2597	0.6517	0.247
Mof_C 	C 	0.2212	0.2147	0.6679	-0.219
Mof_C 	C 	0.2233	0.1619	0.6174	0.416
Mof_C 	C 	0.1795	0.154	0.5506	-0.526
Mof_C 	C 	0.1337	0.199	0.5343	0.269
Mof_C 	C 	0.0827	0.1891	0.4822	-0.136
Mof_C 	C 	0.9823	0.2139	0.4119	0.144
Mof_C 	C 	0.9501	0.2583	0.361	0.157
Mof_C 	C 	0.8946	0.3284	0.4857	0.11
Mof_C 	C 	0.8946	0.291	0.5577	-0.252
Mof_C 	C 	0.973	0.347	0.654	-0.338
Mof_C 	C 	0.9733	0.4021	0.6155	0.035
Mof_C 	C 	0.0502	0.4461	0.5	0.463
Mof_C 	C 	0.0906	0.4399	0.4276	-1.738
Mof_C 	C 	0.1094	0.4947	0.3887	-0.17
Mof_C 	C 	0.1438	0.4935	0.3118	0.919
Mof_C 	C 	0.1595	0.4374	0.2739	-0.15
Mof_C 	C 	0.1408	0.3826	0.3129	-0.36
Mof_C 	C 	0.1063	0.3839	0.3897	-0.221
Mof_C 	C 	0.2655	0.0612	0.587	2.785
Mof_C 	C 	0.1405	0.6032	0.2982	1.562
Mof_Fe	Fe	0.027	0.3115	0.5045	0.746
Mof_H 	H 	0.174	0.2951	0.6855	-0.448
Mof_H 	H 	0.2505	0.22	0.7126	0.28
Mof_H 	H 	0.1809	0.1186	0.5168	0.251
Mof_H 	H 	0.0825	0.152	0.4521	0.089
Mof_H 	H 	0.9494	0.1935	0.4458	-0.013
Mof_H 	H 	0.9987	0.1834	0.3719	0.03
Mof_H 	H 	0.9065	0.2457	0.3479	-0.009
Mof_H 	H 	0.9729	0.2666	0.3077	0.165
Mof_H 	H 	0.8961	0.3711	0.5042	0.047
Mof_H 	H 	0.8548	0.3224	0.4544	0.084
Mof_H 	H 	0.9565	0.3503	0.3908	0.122
Mof_H 	H 	0.8858	0.2485	0.5422	0.074
Mof_H 	H 	0.8629	0.3046	0.5994	0.133
Mof_H 	H 	0.9391	0.3457	0.6973	0.138
Mof_H 	H 	0.0134	0.3402	0.6835	0.161
Mof_H 	H 	0.9872	0.4336	0.6557	-0.093
Mof_H 	H 	0.9308	0.4125	0.5949	-0.055
Mof_H 	H 	0.0433	0.4854	0.5221	-0.081
Mof_H 	H 	0.0988	0.5322	0.414	0.136
Mof_H 	H 	0.1826	0.4366	0.2225	0.329
Mof_H 	H 	0.1513	0.3451	0.2876	0.182
Mof_H 	H 	0.9728	0.2621	0.6208	0.087
Mof_H 	H 	0.3013	0.0339	0.5944	-1.11
Mof_H 	H 	0.2567	0.0656	0.5261	-0.557
Mof_H 	H 	0.2285	0.0446	0.6152	-0.603
Mof_H 	H 	0.1582	0.6343	0.2611	-0.437
Mof_H 	H 	0.1541	0.6105	0.3565	-0.365
Mof_H 	H 	0.0945	0.6047	0.2953	-0.363
Mof_N 	N 	0.0318	0.2269	0.4685	-0.22
Mof_N 	N 	0.9514	0.3161	0.4241	-0.26
Mof_N 	N 	0.9627	0.298	0.5937	-0.169
Mof_N 	N 	0.0206	0.3971	0.5395	-0.296
Mof_O 	O 	0.0926	0.2985	0.5881	-0.25
Mof_O 	O 	0.0854	0.3259	0.4195	-0.349
Mof_O 	O 	0.2806	0.12	0.6224	-0.753
Mof_O 	O 	0.1648	0.5372	0.2676	0.349
Mof_Fe	Fe	0.44677	0.82883	0.98153	-0.137
Mof_O 	O 	0.3778	0.7762	0.0206	-0.177
Mof_O 	O 	0.4265	0.9112	0.943	0.717
Mof_O 	O 	0.2163	0.7446	0.3106	-0.043
Mof_O 	O 	0.3062	0.0272	0.6726	-0.766
Mof_N 	N 	0.448	0.8606	0.1089	-0.134
Mof_N 	N 	0.5467	0.8622	0.9967	-0.205
Mof_H 	H 	0.5497	0.8967	0.9636	0.133
Mof_N 	N 	0.5081	0.7448	0.965	-0.271
Mof_H 	H 	0.4915	0.714	0.9981	0.262
Mof_N 	N 	0.4201	0.8035	0.8567	-0.016
Mof_C 	C 	0.3464	0.7675	0.0929	0.242
Mof_C 	C 	0.2985	0.723	0.0909	-0.253
Mof_H 	H 	0.294	0.6977	0.0428	0.193
Mof_C 	C 	0.2573	0.7163	0.1609	-0.022
Mof_H 	H 	0.2253	0.6865	0.1596	0.068
Mof_C 	C 	0.2641	0.754	0.2328	-0.323
Mof_C 	C 	0.312	0.7985	0.2348	0.573
Mof_H 	H 	0.3165	0.8238	0.2829	-0.158
Mof_C 	C 	0.3532	0.8053	0.1648	0.329
Mof_C 	C 	0.4061	0.8467	0.1724	-0.086
Mof_H 	H 	0.4122	0.8656	0.2256	0.067
Mof_C 	C 	0.4968	0.9084	0.1237	0.271
Mof_H 	H 	0.4853	0.9463	0.0945	-0.01
Mof_H 	H 	0.5015	0.9167	0.1849	0.039
Mof_C 	C 	0.5582	0.8823	0.087	-0.042
Mof_H 	H 	0.5723	0.8476	0.1216	0.163
Mof_H 	H 	0.5916	0.9135	0.0883	0.208
Mof_C 	C 	0.5948	0.8186	0.9621	0.135
Mof_H 	H 	0.5958	0.8203	0.8995	0.035
Mof_H 	H 	0.6372	0.8283	0.984	0.017
Mof_C 	C 	0.5737	0.756	0.9925	-0.031
Mof_H 	H 	0.5764	0.7539	0.0549	0.088
Mof_H 	H 	0.6017	0.7247	0.9686	0.05
Mof_C 	C 	0.5004	0.7265	0.868	0.007
Mof_H 	H 	0.5102	0.6832	0.8605	-0.014
Mof_H 	H 	0.53	0.7502	0.8328	-0.23
Mof_C 	C 	0.4351	0.7387	0.8409	-0.111
Mof_H 	H 	0.4304	0.7294	0.78	0.082
Mof_H 	H 	0.4058	0.7126	0.873	0.099
Mof_C 	C 	0.3921	0.8348	0.7974	-0.01
Mof_H 	H 	0.3806	0.8148	0.7466	0.032
Mof_C 	C 	0.3774	0.9001	0.8055	0.225
Mof_C 	C 	0.347	0.9285	0.7363	-0.534
Mof_H 	H 	0.3319	0.9049	0.6904	0.151
Mof_C 	C 	0.339	0.9921	0.7356	0.179
Mof_C 	C 	0.3615	0.0273	0.8042	-1.129
Mof_H 	H 	0.3561	0.0698	0.8037	-0.329
Mof_C 	C 	0.3919	0.9989	0.8734	0.077
Mof_H 	H 	0.407	0.0225	0.9193	0.048
Mof_C 	C 	0.3999	0.9354	0.8741	1.161
Mof_C 	C 	0.2498	0.7502	0.3844	-0.388
Mof_H 	H 	0.2216	0.7445	0.4328	0.185
Mof_H 	H 	0.283	0.7196	0.3859	0.172
Mof_H 	H 	0.2687	0.7905	0.3872	0.183
Mof_C 	C 	0.2737	0.9953	0.6139	2.968
Mof_H 	H 	0.2535	0.0232	0.5742	-1.403
Mof_H 	H 	0.3026	0.9688	0.5831	-0.715
Mof_H 	H 	0.2415	0.9709	0.6421	-0.81
Mof_C 	C 	0.3684	0.7519	0.0849	-0.171
Mof_C 	C 	0.3246	0.7597	0.1517	0.215
Mof_C 	C 	0.2788	0.7147	0.1679	-0.221
Mof_C 	C 	0.2767	0.6619	0.1174	0.378
Mof_C 	C 	0.3205	0.654	0.0506	-0.454
Mof_C 	C 	0.3663	0.699	0.0343	0.162
Mof_C 	C 	0.4173	0.6891	0.9822	-0.013
Mof_C 	C 	0.5177	0.7139	0.9119	0.155
Mof_C 	C 	0.5499	0.7583	0.861	0.163
Mof_C 	C 	0.6054	0.8284	0.9857	0.087
Mof_C 	C 	0.6054	0.791	0.0577	-0.335
Mof_C 	C 	0.527	0.847	0.154	-0.353
Mof_C 	C 	0.5267	0.9021	0.1155	0.011
Mof_C 	C 	0.4498	0.9461	-0	0.32
Mof_C 	C 	0.4094	0.9399	0.9276	-1.633
Mof_C 	C 	0.3906	0.9947	0.8887	-0.161
Mof_C 	C 	0.3562	0.9935	0.8118	0.884
Mof_C 	C 	0.3405	0.9374	0.7739	-0.18
Mof_C 	C 	0.3592	0.8826	0.8129	-0.322
Mof_C 	C 	0.3937	0.8839	0.8897	-0.26
Mof_C 	C 	0.2345	0.5612	0.087	2.626
Mof_C 	C 	0.3595	0.1032	0.7982	1.545
Mof_Fe	Fe	0.473	0.8115	0.0045	1.063
Mof_H 	H 	0.326	0.7951	0.1855	-0.5
Mof_H 	H 	0.2495	0.72	0.2126	0.288
Mof_H 	H 	0.3191	0.6186	0.0168	0.201
Mof_H 	H 	0.4175	0.652	0.9521	0.061
Mof_H 	H 	0.5506	0.6935	0.9458	-0.011
Mof_H 	H 	0.5013	0.6834	0.8719	0.032
Mof_H 	H 	0.5935	0.7457	0.8479	-0.005
Mof_H 	H 	0.5271	0.7666	0.8077	0.179
Mof_H 	H 	0.6039	0.8711	0.0042	-0.015
Mof_H 	H 	0.6452	0.8224	0.9544	-0.01
Mof_H 	H 	0.5435	0.8503	0.8908	0.132
Mof_H 	H 	0.6142	0.7485	0.0422	0.064
Mof_H 	H 	0.6371	0.8046	0.0994	0.154
Mof_H 	H 	0.5609	0.8457	0.1973	0.145
Mof_H 	H 	0.4866	0.8402	0.1835	0.165
Mof_H 	H 	0.5128	0.9336	0.1557	-0.082
Mof_H 	H 	0.5692	0.9125	0.0949	-0.122
Mof_H 	H 	0.4567	0.9854	0.0221	-0.044
Mof_H 	H 	0.4012	0.0322	0.914	0.137
Mof_H 	H 	0.3174	0.9366	0.7225	0.322
Mof_H 	H 	0.3487	0.8451	0.7876	0.17
Mof_H 	H 	0.5272	0.7621	0.1208	0.079
Mof_H 	H 	0.1987	0.5339	0.0944	-1.038
Mof_H 	H 	0.2433	0.5656	0.0261	-0.544
Mof_H 	H 	0.2715	0.5446	0.1152	-0.57
Mof_H 	H 	0.3418	0.1343	0.7611	-0.428
Mof_H 	H 	0.3459	0.1105	0.8565	-0.35
Mof_H 	H 	0.4055	0.1047	0.7953	-0.358
Mof_N 	N 	0.4682	0.7269	0.9685	-0.246
Mof_N 	N 	0.5486	0.8161	0.9241	-0.279
Mof_N 	N 	0.5373	0.798	0.0937	-0.189
Mof_N 	N 	0.4794	0.8971	0.0395	-0.285
Mof_O 	O 	0.4074	0.7985	0.0881	-0.263
Mof_O 	O 	0.4146	0.8259	0.9195	-0.168
Mof_O 	O 	0.2194	0.62	0.1224	-0.726
Mof_O 	O 	0.3352	0.0372	0.7676	0.316
Mof_C 	C 	0.7649	0.4576	0.3539	0.347
Mof_C 	C 	0.7625	0.529	0.348	0.242
Mof_C 	C 	0.9134	0.4493	0.1721	0.257
Mof_C 	C 	0.9547	0.4128	0.2381	0.269
Mof_C 	C 	0.9328	0.5422	0.4836	0.256
Mof_C 	C 	0.9652	0.5801	0.4114	0.274
Mof_C 	C 	0.0304	0.2399	0.0816	0.229
Mof_C 	C 	0.9566	0.2351	0.0774	0.265
Mof_C 	C 	0.5853	0.4509	0.1911	0.253
Mof_C 	C 	0.5447	0.4147	0.2563	0.236
Mof_C 	C 	0.58	0.5373	0.5188	0.261
Mof_C 	C 	0.5448	0.5694	0.4415	0.296
Mof_O 	O 	0.7107	0.4305	0.3628	-0.327
Mof_O 	O 	0.7085	0.5563	0.3477	-0.282
Mof_O 	O 	0.8171	0.4348	0.3467	-0.552
Mof_O 	O 	0.8159	0.5561	0.3392	-0.5
Mof_O 	O 	0.9125	0.4333	0.0947	-0.311
Mof_O 	O 	0.9875	0.3691	0.2107	-0.334
Mof_O 	O 	0.8799	0.4916	0.2053	-0.517
Mof_O 	O 	0.9493	0.4299	0.3157	-0.58
Mof_O 	O 	0.899	0.4973	0.4584	-0.494
Mof_O 	O 	0.9513	0.5626	0.3363	-0.529
Mof_O 	O 	0.9442	0.5593	0.5605	-0.285
Mof_O 	O 	0.0037	0.6215	0.4291	-0.308
Mof_O 	O 	0.058	0.2916	0.0775	-0.314
Mof_O 	O 	0.927	0.2852	0.0672	-0.333
Mof_O 	O 	0.0589	0.1881	0.0914	-0.509
Mof_O 	O 	0.933	0.1839	0.0869	-0.518
Mof_O 	O 	0.5701	0.4409	0.1107	-0.499
Mof_O 	O 	0.4993	0.3799	0.225	-0.493
Mof_O 	O 	0.6288	0.4842	0.2157	-0.31
Mof_O 	O 	0.5574	0.4209	0.3343	-0.326
Mof_O 	O 	0.6205	0.4977	0.496	-0.273
Mof_O 	O 	0.5549	0.5595	0.371	-0.341
Mof_O 	O 	0.5662	0.5521	0.5931	-0.483
Mof_O 	O 	0.5004	0.6077	0.4701	-0.497
Mof_Cr	Cr	0.88668	0.49556	0.33304	2.142
Mof_Cr	Cr	0.49905	0.38111	0.09757	2.014
Mof_Mn	Mn	0.9878	0.36483	0.06949	0.904
Mof_Mn	Mn	0.62967	0.48987	0.35751	0.972
Mof_C 	C 	0.2351	0.5424	0.8539	0.346
Mof_C 	C 	0.2375	0.471	0.848	0.244
Mof_C 	C 	0.0866	0.5507	0.6721	0.253
Mof_C 	C 	0.0453	0.5872	0.7381	0.272
Mof_C 	C 	0.0672	0.4578	0.9836	0.339
Mof_C 	C 	0.0348	0.4199	0.9114	0.25
Mof_C 	C 	0.9696	0.7601	0.5816	0.232
Mof_C 	C 	0.0434	0.7649	0.5774	0.275
Mof_C 	C 	0.4147	0.5491	0.6911	0.254
Mof_C 	C 	0.4553	0.5853	0.7563	0.239
Mof_C 	C 	0.42	0.4627	0.0188	0.11
Mof_C 	C 	0.4552	0.4306	0.9415	0.379
Mof_O 	O 	0.2893	0.5695	0.8628	-0.316
Mof_O 	O 	0.2915	0.4437	0.8477	-0.275
Mof_O 	O 	0.1829	0.5652	0.8467	-0.542
Mof_O 	O 	0.1841	0.4439	0.8392	-0.497
Mof_O 	O 	0.0875	0.5667	0.5947	-0.293
Mof_O 	O 	0.0125	0.6309	0.7107	-0.338
Mof_O 	O 	0.1201	0.5084	0.7053	-0.511
Mof_O 	O 	0.0507	0.5701	0.8157	-0.576
Mof_O 	O 	0.101	0.5027	0.9584	-0.498
Mof_O 	O 	0.0487	0.4374	0.8363	-0.522
Mof_O 	O 	0.0558	0.4407	0.0605	-0.343
Mof_O 	O 	0.9963	0.3785	0.9291	-0.263
Mof_O 	O 	0.942	0.7084	0.5775	-0.301
Mof_O 	O 	0.073	0.7148	0.5672	-0.317
Mof_O 	O 	0.9411	0.8119	0.5914	-0.507
Mof_O 	O 	0.067	0.8161	0.5869	-0.514
Mof_O 	O 	0.4299	0.5591	0.6107	-0.49
Mof_O 	O 	0.5007	0.6201	0.725	-0.499
Mof_O 	O 	0.3712	0.5158	0.7157	-0.301
Mof_O 	O 	0.4426	0.5791	0.8343	-0.318
Mof_O 	O 	0.3795	0.5023	0.996	-0.189
Mof_O 	O 	0.4451	0.4405	0.871	-0.358
Mof_O 	O 	0.4338	0.4479	0.0931	-0.454
Mof_O 	O 	0.4996	0.3923	0.9701	-0.46
Mof_Cr	Cr	0.11332	0.50444	0.83304	2.145
Mof_Cr	Cr	0.50095	0.61889	0.59757	2.092
Mof_Mn	Mn	0.0122	0.63517	0.56949	0.952
Mof_Mn	Mn	0.37033	0.51013	0.85751	0.981
Mof_C 	C 	0.2649	0.0424	0.3539	0.333
Mof_C 	C 	0.2625	0.971	0.348	0.25
Mof_C 	C 	0.4134	0.0507	0.1721	0.257
Mof_C 	C 	0.4547	0.0872	0.2381	0.268
Mof_C 	C 	0.4328	0.9578	0.4836	0.268
Mof_C 	C 	0.4652	0.9199	0.4114	0.27
Mof_C 	C 	0.5304	0.2601	0.0816	0.222
Mof_C 	C 	0.4566	0.2649	0.0774	0.272
Mof_C 	C 	0.0853	0.0491	0.1911	0.251
Mof_C 	C 	0.0447	0.0853	0.2563	0.242
Mof_C 	C 	0.08	0.9627	0.5188	0.271
Mof_C 	C 	0.0448	0.9306	0.4415	0.292
Mof_O 	O 	0.2107	0.0695	0.3628	-0.327
Mof_O 	O 	0.2085	0.9437	0.3477	-0.281
Mof_O 	O 	0.3171	0.0652	0.3467	-0.548
Mof_O 	O 	0.3159	0.9439	0.3392	-0.495
Mof_O 	O 	0.4125	0.0667	0.0947	-0.314
Mof_O 	O 	0.4875	0.1309	0.2107	-0.333
Mof_O 	O 	0.3799	0.0084	0.2053	-0.518
Mof_O 	O 	0.4493	0.0701	0.3157	-0.577
Mof_O 	O 	0.399	0.0027	0.4584	-0.506
Mof_O 	O 	0.4513	0.9374	0.3363	-0.519
Mof_O 	O 	0.4442	0.9407	0.5605	-0.29
Mof_O 	O 	0.5037	0.8785	0.4291	-0.306
Mof_O 	O 	0.558	0.2084	0.0775	-0.314
Mof_O 	O 	0.427	0.2148	0.0672	-0.334
Mof_O 	O 	0.5589	0.3119	0.0914	-0.513
Mof_O 	O 	0.433	0.3161	0.0869	-0.523
Mof_O 	O 	0.0701	0.0591	0.1107	-0.494
Mof_O 	O 	0.9993	0.1201	0.225	-0.496
Mof_O 	O 	0.1288	0.0158	0.2157	-0.311
Mof_O 	O 	0.0574	0.0791	0.3343	-0.326
Mof_O 	O 	0.1205	0.0023	0.496	-0.286
Mof_O 	O 	0.0549	0.9405	0.371	-0.334
Mof_O 	O 	0.0662	0.9479	0.5931	-0.487
Mof_O 	O 	0.0004	0.8923	0.4701	-0.494
Mof_Cr	Cr	0.38668	0.00444	0.33304	2.118
Mof_Cr	Cr	0.99905	0.11889	0.09757	1.992
Mof_Mn	Mn	0.4878	0.13517	0.06949	0.909
Mof_Mn	Mn	0.12967	0.01013	0.35751	0.962
Mof_C 	C 	0.7351	0.9576	0.8539	0.365
Mof_C 	C 	0.7375	0.029	0.848	0.245
Mof_C 	C 	0.5866	0.9493	0.6721	0.254
Mof_C 	C 	0.5453	0.9128	0.7381	0.273
Mof_C 	C 	0.5672	0.0422	0.9836	0.349
Mof_C 	C 	0.5348	0.0801	0.9114	0.255
Mof_C 	C 	0.4696	0.7399	0.5816	0.229
Mof_C 	C 	0.5434	0.7351	0.5774	0.277
Mof_C 	C 	0.9147	0.9509	0.6911	0.252
Mof_C 	C 	0.9553	0.9147	0.7563	0.247
Mof_C 	C 	0.92	0.0373	0.0188	0.077
Mof_C 	C 	0.9552	0.0694	0.9415	0.396
Mof_O 	O 	0.7893	0.9305	0.8628	-0.312
Mof_O 	O 	0.7915	0.0563	0.8477	-0.274
Mof_O 	O 	0.6829	0.9348	0.8467	-0.544
Mof_O 	O 	0.6841	0.0561	0.8392	-0.497
Mof_O 	O 	0.5875	0.9333	0.5947	-0.29
Mof_O 	O 	0.5125	0.8691	0.7107	-0.338
Mof_O 	O 	0.6201	0.9916	0.7053	-0.51
Mof_O 	O 	0.5507	0.9299	0.8157	-0.579
Mof_O 	O 	0.601	0.9973	0.9584	-0.484
Mof_O 	O 	0.5487	0.0626	0.8363	-0.527
Mof_O 	O 	0.5558	0.0593	0.0605	-0.348
Mof_O 	O 	0.4963	0.1215	0.9291	-0.267
Mof_O 	O 	0.442	0.7916	0.5775	-0.303
Mof_O 	O 	0.573	0.7852	0.5672	-0.317
Mof_O 	O 	0.4411	0.6881	0.5914	-0.51
Mof_O 	O 	0.567	0.6839	0.5869	-0.515
Mof_O 	O 	0.9299	0.9409	0.6107	-0.483
Mof_O 	O 	0.0007	0.8799	0.725	-0.506
Mof_O 	O 	0.8712	0.9842	0.7157	-0.298
Mof_O 	O 	0.9426	0.9209	0.8343	-0.318
Mof_O 	O 	0.8795	0.9977	0.996	-0.154
Mof_O 	O 	0.9451	0.0595	0.871	-0.368
Mof_O 	O 	0.9338	0.0521	0.0931	-0.44
Mof_O 	O 	0.9996	0.1077	0.9701	-0.458
Mof_Cr	Cr	0.61332	0.99556	0.83304	2.166
Mof_Cr	Cr	0.00095	0.88111	0.59757	2.083
Mof_Mn	Mn	0.5122	0.86483	0.56949	0.954
Mof_Mn	Mn	0.87033	0.98987	0.85751	0.995
_end
