data_functionalizedCrystal
_audit_creation_method	'EQeq! by Chris Wilmer'
_symmetry_space_group_name_H-M	'P1'
_symmetry_Int_Tables_number	1
_symmetry_cell_setting	triclinic
loop_
_symmetry_equiv_pos_as_xyz
  x,y,z
_cell_length_a	7.2776
_cell_length_b	22.06
_cell_length_c	15.0234
_cell_angle_alpha	90
_cell_angle_beta	98.687
_cell_angle_gamma	90
loop_
_atom_site_label
_atom_site_type_symbol
_atom_site_fract_x
_atom_site_fract_y
_atom_site_fract_z
_atom_site_charge
Mof_C 	C 	0.2932	0.4752	0.1687	0.597
Mof_C 	C 	0.3473	0.457	0.2652	-0.156
Mof_C 	C 	0.5215	0.4731	0.3108	0.061
Mof_H 	H 	0.6021	0.4959	0.2818	0.039
Mof_C 	C 	0.2262	0.4228	0.3093	-0.048
Mof_H 	H 	0.1076	0.4131	0.2806	0.045
Mof_C 	C 	0.5752	0.4552	0.3997	-0.063
Mof_C 	C 	0.4567	0.4209	0.4435	-0.077
Mof_H 	H 	0.4907	0.4095	0.5033	0.105
Mof_C 	C 	0.2864	0.4038	0.3959	0.144
Mof_C 	C 	0.3509	0.2785	0.4378	-0.234
Mof_H 	H 	0.4521	0.3005	0.4242	0.141
Mof_C 	C 	0.1921	0.3078	0.4453	0.199
Mof_C 	C 	0.3671	0.2172	0.4497	0.12
Mof_H 	H 	0.4781	0.198	0.4432	0.003
Mof_C 	C 	0.0431	0.2734	0.4648	-0.039
Mof_C 	C 	0.7627	0.4737	0.4449	0.41
Mof_C 	C 	0.2199	0.1835	0.4714	-0.147
Mof_C 	C 	0.2334	0.1162	0.4851	0.529
Mof_C 	C 	0.0523	0.2124	0.4765	-0.145
Mof_H 	H 	0.949	0.1905	0.4877	0.172
Mof_N 	N 	0.8597	0.3021	0.461	0.043
Mof_O 	O 	0.2314	0.4711	0.9459	-0.937
Mof_H 	H 	0.1702	0.4536	0.8913	0.262
Mof_O 	O 	0.1308	0.4692	0.1341	-0.688
Mof_O 	O 	0.421	0.4963	0.132	-0.734
Mof_O 	O 	0.1623	0.3695	0.4392	-0.254
Mof_O 	O 	0.8066	0.4564	0.5264	-0.492
Mof_H 	H 	0.9147	0.4659	0.5447	0.371
Mof_O 	O 	0.8646	0.5038	0.4031	-0.253
Mof_O 	O 	0.3804	0.0904	0.475	-0.673
Mof_O 	O 	0.0926	0.0918	0.5104	-0.687
Mof_O 	O 	0.781	0.2928	0.5272	-0.094
Mof_O 	O 	0.798	0.3344	0.4012	-0.092
Mof_C 	C 	0.2068	0.9752	0.3313	0.55
Mof_C 	C 	0.1527	0.957	0.2348	-0.121
Mof_C 	C 	0.9785	0.9731	0.1892	0.057
Mof_H 	H 	0.8979	0.9959	0.2182	0.104
Mof_C 	C 	0.2738	0.9228	0.1907	-0.153
Mof_H 	H 	0.3924	0.9131	0.2194	0.13
Mof_C 	C 	0.9248	0.9552	0.1003	0.195
Mof_C 	C 	0.0433	0.9209	0.0565	-0.567
Mof_H 	H 	0.0093	0.9095	0.9967	0.349
Mof_C 	C 	0.2136	0.9038	0.1041	0.349
Mof_C 	C 	0.1491	0.7785	0.0622	-0.291
Mof_H 	H 	0.0479	0.8005	0.0758	0.117
Mof_C 	C 	0.3079	0.8078	0.0547	0.227
Mof_C 	C 	0.1329	0.7172	0.0503	0.154
Mof_H 	H 	0.0219	0.698	0.0568	-0.05
Mof_C 	C 	0.4569	0.7734	0.0352	-0.052
Mof_C 	C 	0.7373	0.9737	0.0551	0.373
Mof_C 	C 	0.2801	0.6835	0.0286	-0.21
Mof_C 	C 	0.2666	0.6162	0.0149	0.419
Mof_C 	C 	0.4477	0.7124	0.0235	0.053
Mof_H 	H 	0.551	0.6905	0.0123	0.012
Mof_N 	N 	0.6403	0.8021	0.039	-0.051
Mof_O 	O 	0.2686	0.9711	0.5541	-0.884
Mof_H 	H 	0.3298	0.9536	0.6087	0.3
Mof_O 	O 	0.3692	0.9692	0.3659	-0.574
Mof_O 	O 	0.079	0.9963	0.368	-0.602
Mof_O 	O 	0.3377	0.8695	0.0608	-0.294
Mof_O 	O 	0.6934	0.9564	0.9736	-0.341
Mof_H 	H 	0.5853	0.9659	0.9553	0.349
Mof_O 	O 	0.6354	0.0038	0.0969	-0.455
Mof_O 	O 	0.1196	0.5904	0.025	-0.654
Mof_O 	O 	0.4074	0.5918	0.9896	-0.525
Mof_O 	O 	0.719	0.7928	0.9728	0.047
Mof_O 	O 	0.702	0.8344	0.0988	-0.089
Mof_C 	C 	0.7068	0.5248	0.8313	0.566
Mof_C 	C 	0.6527	0.543	0.7348	-0.105
Mof_C 	C 	0.4785	0.5269	0.6892	0.043
Mof_H 	H 	0.3979	0.5041	0.7182	0.034
Mof_C 	C 	0.7738	0.5772	0.6907	-0.066
Mof_H 	H 	0.8924	0.5869	0.7194	0.12
Mof_C 	C 	0.4248	0.5448	0.6003	-0.058
Mof_C 	C 	0.5433	0.5791	0.5565	-0.09
Mof_H 	H 	0.5093	0.5905	0.4967	0.107
Mof_C 	C 	0.7136	0.5962	0.6041	0.176
Mof_C 	C 	0.6491	0.7215	0.5622	-0.323
Mof_H 	H 	0.5479	0.6995	0.5758	0.179
Mof_C 	C 	0.8079	0.6922	0.5547	0.278
Mof_C 	C 	0.6329	0.7828	0.5503	0.261
Mof_H 	H 	0.5219	0.802	0.5568	-0.034
Mof_C 	C 	0.9569	0.7266	0.5352	-0.047
Mof_C 	C 	0.2373	0.5263	0.5551	0.398
Mof_C 	C 	0.7801	0.8165	0.5286	-0.3
Mof_C 	C 	0.7666	0.8838	0.5149	0.604
Mof_C 	C 	0.9477	0.7876	0.5235	0.312
Mof_H 	H 	0.051	0.8095	0.5123	-0.11
Mof_N 	N 	0.1403	0.6979	0.539	-0.01
Mof_O 	O 	0.7686	0.5289	0.0541	-1.025
Mof_H 	H 	0.8298	0.5464	0.1087	0.323
Mof_O 	O 	0.8692	0.5308	0.8659	-0.528
Mof_O 	O 	0.579	0.5037	0.868	-0.667
Mof_O 	O 	0.8377	0.6305	0.5608	-0.212
Mof_O 	O 	0.1934	0.5436	0.4736	-0.488
Mof_H 	H 	0.0853	0.5341	0.4553	0.289
Mof_O 	O 	0.1354	0.4962	0.5969	-0.344
Mof_O 	O 	0.6196	0.9096	0.525	-0.597
Mof_O 	O 	0.9074	0.9082	0.4896	-0.535
Mof_O 	O 	0.219	0.7072	0.4728	-0.134
Mof_O 	O 	0.202	0.6656	0.5988	-0.13
Mof_C 	C 	0.7932	0.0248	0.6687	0.564
Mof_C 	C 	0.8473	0.043	0.7652	-0.105
Mof_C 	C 	0.0215	0.0269	0.8108	0.012
Mof_H 	H 	0.1021	0.0041	0.7818	-0.018
Mof_C 	C 	0.7262	0.0772	0.8093	0.014
Mof_H 	H 	0.6076	0.0869	0.7806	0.044
Mof_C 	C 	0.0752	0.0448	0.8997	-0.292
Mof_C 	C 	0.9567	0.0791	0.9435	0.366
Mof_H 	H 	0.9907	0.0905	0.0033	-0.118
Mof_C 	C 	0.7864	0.0962	0.8959	-0.009
Mof_C 	C 	0.8509	0.2215	0.9378	-0.278
Mof_H 	H 	0.9521	0.1995	0.9242	0.206
Mof_C 	C 	0.6921	0.1922	0.9453	0.259
Mof_C 	C 	0.8671	0.2828	0.9497	0.239
Mof_H 	H 	0.9781	0.302	0.9432	0.012
Mof_C 	C 	0.5431	0.2266	0.9648	-0.043
Mof_C 	C 	0.2627	0.0263	0.9449	0.414
Mof_C 	C 	0.7199	0.3165	0.9714	-0.256
Mof_C 	C 	0.7334	0.3838	0.9851	0.741
Mof_C 	C 	0.5523	0.2876	0.9765	0.134
Mof_H 	H 	0.449	0.3095	0.9877	0.04
Mof_N 	N 	0.3597	0.1979	0.961	0.085
Mof_O 	O 	0.7314	0.0289	0.4459	-0.975
Mof_H 	H 	0.6702	0.0464	0.3913	0.248
Mof_O 	O 	0.6308	0.0308	0.6341	-0.676
Mof_O 	O 	0.921	0.0037	0.632	-0.643
Mof_O 	O 	0.6623	0.1305	0.9392	-0.178
Mof_O 	O 	0.3066	0.0436	0.0264	-0.63
Mof_H 	H 	0.4147	0.0341	0.0447	0.309
Mof_O 	O 	0.3646	0.9962	0.9031	-0.13
Mof_O 	O 	0.8804	0.4096	0.975	-0.575
Mof_O 	O 	0.5926	0.4082	0.0104	-0.842
Mof_O 	O 	0.281	0.2072	0.0272	-0.274
Mof_O 	O 	0.298	0.1656	0.9012	-0.133
Mof_In	In	-0	0.5	-0	2.103
Mof_In	In	0.5	0	0.5	2.33
Mof_In	In	0.5	0.5	-0	2.68
Mof_In	In	4.45452e-33	0	0.5	2.188
_end
