data_functionalizedCrystal
_audit_creation_method	'EQeq! by Chris Wilmer'
_symmetry_space_group_name_H-M	'P1'
_symmetry_Int_Tables_number	1
_symmetry_cell_setting	triclinic
loop_
_symmetry_equiv_pos_as_xyz
  x,y,z
_cell_length_a	10.4693
_cell_length_b	26.9783
_cell_length_c	26.9783
_cell_angle_alpha	61.6471
_cell_angle_beta	82.5677
_cell_angle_gamma	97.4323
loop_
_atom_site_label
_atom_site_type_symbol
_atom_site_fract_x
_atom_site_fract_y
_atom_site_fract_z
_atom_site_charge
Mof_Cu	Cu	0.42073	0	0.46571	0.883
Mof_Cu	Cu	0.88644	0.46571	0.53429	0.901
Mof_Cu	Cu	0.42073	0.53429	-0	0.883
Mof_Cu	Cu	0.11356	0.53429	0.46571	0.901
Mof_Cu	Cu	0.57927	-3.50422e-17	0.53429	0.882
Mof_Cu	Cu	0.57927	0.46571	-0	0.882
Mof_H 	H 	0.4475	0.1259	0.5731	0.097
Mof_H 	H 	0.2571	0.1432	0.45	0.071
Mof_H 	H 	0.3403	0.2355	0.5939	0.231
Mof_H 	H 	0.4702	0.2124	0.5936	0.225
Mof_H 	H 	0.3372	0.17	0.6349	0.215
Mof_H 	H 	0.0206	0.5731	0.301	0.099
Mof_H 	H 	0.7071	0.45	0.4068	0.074
Mof_H 	H 	0.9342	0.5939	0.1706	0.227
Mof_H 	H 	0.0638	0.5936	0.194	0.221
Mof_H 	H 	0.9721	0.6349	0.1951	0.214
Mof_H 	H 	0.3216	0.301	0.1259	0.093
Mof_H 	H 	0.1139	0.4068	0.1432	0.07
Mof_H 	H 	0.1048	0.1706	0.2355	0.22
Mof_H 	H 	0.2578	0.194	0.2124	0.213
Mof_H 	H 	0.1672	0.1951	0.17	0.203
Mof_H 	H 	0.9794	0.301	0.5731	0.099
Mof_H 	H 	0.2929	0.4068	0.45	0.074
Mof_H 	H 	0.0658	0.1706	0.5939	0.227
Mof_H 	H 	0.9362	0.194	0.5936	0.221
Mof_H 	H 	0.0279	0.1951	0.6349	0.214
Mof_H 	H 	0.6784	0.1259	0.301	0.093
Mof_H 	H 	0.8861	0.1432	0.4068	0.07
Mof_H 	H 	0.8952	0.2355	0.1706	0.22
Mof_H 	H 	0.7422	0.2124	0.194	0.213
Mof_H 	H 	0.8328	0.17	0.1951	0.203
Mof_H 	H 	0.5525	0.5731	0.1259	0.097
Mof_H 	H 	0.7429	0.45	0.1432	0.071
Mof_H 	H 	0.6597	0.5939	0.2355	0.231
Mof_H 	H 	0.5298	0.5936	0.2124	0.225
Mof_H 	H 	0.6628	0.6349	0.17	0.215
Mof_H 	H 	0.5525	0.8741	0.4269	0.107
Mof_H 	H 	0.7429	0.8568	0.55	0.079
Mof_H 	H 	0.6597	0.7645	0.4061	0.238
Mof_H 	H 	0.5298	0.7876	0.4064	0.232
Mof_H 	H 	0.6628	0.83	0.3651	0.226
Mof_H 	H 	0.9794	0.4269	0.699	0.102
Mof_H 	H 	0.2929	0.55	0.5932	0.075
Mof_H 	H 	0.0658	0.4061	0.8294	0.24
Mof_H 	H 	0.9362	0.4064	0.806	0.233
Mof_H 	H 	0.0279	0.3651	0.8049	0.225
Mof_H 	H 	0.6784	0.699	0.8741	0.111
Mof_H 	H 	0.8861	0.5932	0.8568	0.08
Mof_H 	H 	0.8952	0.8294	0.7645	0.249
Mof_H 	H 	0.7422	0.806	0.7876	0.244
Mof_H 	H 	0.8328	0.8049	0.83	0.239
Mof_H 	H 	0.0206	0.699	0.4269	0.102
Mof_H 	H 	0.7071	0.5932	0.55	0.075
Mof_H 	H 	0.9342	0.8294	0.4061	0.24
Mof_H 	H 	0.0638	0.806	0.4064	0.233
Mof_H 	H 	0.9721	0.8049	0.3651	0.225
Mof_H 	H 	0.3216	0.8741	0.699	0.111
Mof_H 	H 	0.1139	0.8568	0.5932	0.08
Mof_H 	H 	0.1048	0.7645	0.8294	0.249
Mof_H 	H 	0.2578	0.7876	0.806	0.244
Mof_H 	H 	0.1672	0.83	0.8049	0.239
Mof_H 	H 	0.4475	0.4269	0.8741	0.107
Mof_H 	H 	0.2571	0.55	0.8568	0.079
Mof_H 	H 	0.3403	0.4061	0.7645	0.238
Mof_H 	H 	0.4702	0.4064	0.7876	0.232
Mof_H 	H 	0.3372	0.3651	0.83	0.226
Mof_C 	C 	0.35843	0.12638	0.51169	0.006
Mof_C 	C 	0.39285	0.14441	0.54886	-0.189
Mof_C 	C 	0.34734	0.19032	0.5513	0.222
Mof_C 	C 	0.26691	0.21741	0.51488	-0.089
Mof_C 	C 	0.22952	0.1991	0.47764	0.034
Mof_C 	C 	0.27883	0.15443	0.47614	-0.095
Mof_C 	C 	0.4102	0.07786	0.50946	0.319
Mof_C 	C 	0.37641	0.20323	0.5976	-0.703
Mof_C 	C 	0.87012	0.51169	0.36193	0.01
Mof_C 	C 	0.94171	0.54886	0.30673	-0.188
Mof_C 	C 	0.89864	0.5513	0.25838	0.222
Mof_C 	C 	0.78179	0.51488	0.26771	-0.089
Mof_C 	C 	0.70716	0.47764	0.32326	0.036
Mof_C 	C 	0.75497	0.47614	0.36943	-0.096
Mof_C 	C 	0.91966	0.50946	0.41268	0.319
Mof_C 	C 	0.97401	0.5976	0.19917	-0.696
Mof_C 	C 	0.23205	0.36193	0.12638	0.002
Mof_C 	C 	0.24844	0.30673	0.14441	-0.184
Mof_C 	C 	0.15702	0.25838	0.19032	0.212
Mof_C 	C 	0.0495	0.26771	0.21741	-0.086
Mof_C 	C 	0.03042	0.32326	0.1991	0.032
Mof_C 	C 	0.1244	0.36943	0.15443	-0.092
Mof_C 	C 	0.33234	0.41268	0.07786	0.32
Mof_C 	C 	0.17318	0.19917	0.20323	-0.679
Mof_C 	C 	0.12988	0.36193	0.51169	0.01
Mof_C 	C 	0.05829	0.30673	0.54886	-0.188
Mof_C 	C 	0.10136	0.25838	0.5513	0.222
Mof_C 	C 	0.21821	0.26771	0.51488	-0.089
Mof_C 	C 	0.29284	0.32326	0.47764	0.036
Mof_C 	C 	0.24503	0.36943	0.47614	-0.096
Mof_C 	C 	0.08034	0.41268	0.50946	0.319
Mof_C 	C 	0.02599	0.19917	0.5976	-0.696
Mof_C 	C 	0.76795	0.12638	0.36193	0.002
Mof_C 	C 	0.75156	0.14441	0.30673	-0.184
Mof_C 	C 	0.84298	0.19032	0.25838	0.212
Mof_C 	C 	0.9505	0.21741	0.26771	-0.086
Mof_C 	C 	0.96958	0.1991	0.32326	0.032
Mof_C 	C 	0.8756	0.15443	0.36943	-0.092
Mof_C 	C 	0.66766	0.07786	0.41268	0.32
Mof_C 	C 	0.82682	0.20323	0.19917	-0.679
Mof_C 	C 	0.64157	0.51169	0.12638	0.006
Mof_C 	C 	0.60715	0.54886	0.14441	-0.189
Mof_C 	C 	0.65266	0.5513	0.19032	0.222
Mof_C 	C 	0.73309	0.51488	0.21741	-0.089
Mof_C 	C 	0.77048	0.47764	0.1991	0.034
Mof_C 	C 	0.72117	0.47614	0.15443	-0.095
Mof_C 	C 	0.5898	0.50946	0.07786	0.319
Mof_C 	C 	0.62359	0.5976	0.20323	-0.703
Mof_C 	C 	0.64157	0.87362	0.48831	0.021
Mof_C 	C 	0.60715	0.85559	0.45114	-0.198
Mof_C 	C 	0.65266	0.80968	0.4487	0.234
Mof_C 	C 	0.73309	0.78259	0.48512	-0.094
Mof_C 	C 	0.77048	0.8009	0.52236	0.041
Mof_C 	C 	0.72117	0.84557	0.52386	-0.102
Mof_C 	C 	0.5898	0.92214	0.49054	0.314
Mof_C 	C 	0.62359	0.79677	0.4024	-0.722
Mof_C 	C 	0.12988	0.48831	0.63807	0.013
Mof_C 	C 	0.05829	0.45114	0.69327	-0.195
Mof_C 	C 	0.10136	0.4487	0.74162	0.231
Mof_C 	C 	0.21821	0.48512	0.73229	-0.091
Mof_C 	C 	0.29284	0.52236	0.67674	0.037
Mof_C 	C 	0.24503	0.52386	0.63057	-0.098
Mof_C 	C 	0.08034	0.49054	0.58732	0.318
Mof_C 	C 	0.02599	0.4024	0.80083	-0.722
Mof_C 	C 	0.76795	0.63807	0.87362	0.025
Mof_C 	C 	0.75156	0.69327	0.85559	-0.204
Mof_C 	C 	0.84298	0.74162	0.80968	0.244
Mof_C 	C 	0.9505	0.73229	0.78259	-0.096
Mof_C 	C 	0.96958	0.67674	0.8009	0.043
Mof_C 	C 	0.8756	0.63057	0.84557	-0.104
Mof_C 	C 	0.66766	0.58732	0.92214	0.313
Mof_C 	C 	0.82682	0.80083	0.79677	-0.746
Mof_C 	C 	0.87012	0.63807	0.48831	0.013
Mof_C 	C 	0.94171	0.69327	0.45114	-0.195
Mof_C 	C 	0.89864	0.74162	0.4487	0.231
Mof_C 	C 	0.78179	0.73229	0.48512	-0.091
Mof_C 	C 	0.70716	0.67674	0.52236	0.037
Mof_C 	C 	0.75497	0.63057	0.52386	-0.098
Mof_C 	C 	0.91966	0.58732	0.49054	0.318
Mof_C 	C 	0.97401	0.80083	0.4024	-0.722
Mof_C 	C 	0.23205	0.87362	0.63807	0.025
Mof_C 	C 	0.24844	0.85559	0.69327	-0.204
Mof_C 	C 	0.15702	0.80968	0.74162	0.244
Mof_C 	C 	0.0495	0.78259	0.73229	-0.096
Mof_C 	C 	0.03042	0.8009	0.67674	0.043
Mof_C 	C 	0.1244	0.84557	0.63057	-0.104
Mof_C 	C 	0.33234	0.92214	0.58732	0.313
Mof_C 	C 	0.17318	0.79677	0.80083	-0.746
Mof_C 	C 	0.35843	0.48831	0.87362	0.021
Mof_C 	C 	0.39285	0.45114	0.85559	-0.198
Mof_C 	C 	0.34734	0.4487	0.80968	0.234
Mof_C 	C 	0.26691	0.48512	0.78259	-0.094
Mof_C 	C 	0.22952	0.52236	0.8009	0.041
Mof_C 	C 	0.27883	0.52386	0.84557	-0.102
Mof_C 	C 	0.4102	0.49054	0.92214	0.314
Mof_C 	C 	0.37641	0.4024	0.79677	-0.722
Mof_O 	O 	0.36297	0.06001	0.4788	-0.415
Mof_O 	O 	0.49671	0.05936	0.5377	-0.416
Mof_O 	O 	0.84177	0.4788	0.46119	-0.405
Mof_O 	O 	0.03441	0.5377	0.40294	-0.407
Mof_O 	O 	0.30296	0.46119	0.06001	-0.415
Mof_O 	O 	0.43735	0.40294	0.05936	-0.418
Mof_O 	O 	0.15823	0.46119	0.4788	-0.405
Mof_O 	O 	0.96559	0.40294	0.5377	-0.407
Mof_O 	O 	0.69704	0.06001	0.46119	-0.415
Mof_O 	O 	0.56265	0.05936	0.40294	-0.418
Mof_O 	O 	0.63703	0.4788	0.06001	-0.415
Mof_O 	O 	0.50329	0.5377	0.05936	-0.416
Mof_O 	O 	0.63703	0.93999	0.5212	-0.385
Mof_O 	O 	0.50329	0.94064	0.4623	-0.387
Mof_O 	O 	0.15823	0.5212	0.53881	-0.405
Mof_O 	O 	0.96559	0.4623	0.59706	-0.406
Mof_O 	O 	0.69704	0.53881	0.93999	-0.385
Mof_O 	O 	0.56265	0.59706	0.94064	-0.385
Mof_O 	O 	0.84177	0.53881	0.5212	-0.405
Mof_O 	O 	0.03441	0.59706	0.4623	-0.406
Mof_O 	O 	0.30296	0.93999	0.53881	-0.385
Mof_O 	O 	0.43735	0.94064	0.59706	-0.385
Mof_O 	O 	0.36297	0.5212	0.93999	-0.385
Mof_O 	O 	0.49671	0.4623	0.94064	-0.387
_end
