# CIF file generated by openbabel 3.1.0, see https://openbabel.org
data_I
_chemical_name_common 'image0'
_cell_length_a 7.8354
_cell_length_b 12.0496
_cell_length_c 12.2524
_cell_angle_alpha 112.015
_cell_angle_beta 89.967
_cell_angle_gamma 99.921
_space_group_name_H-M_alt 'P 1'
_space_group_name_Hall 'P 1'
loop_
    _symmetry_equiv_pos_as_xyz
    x,y,z
loop_
    _atom_site_label
    _atom_site_type_symbol
    _atom_site_fract_x
    _atom_site_fract_y
    _atom_site_fract_z
    _atom_site_occupancy
    C1       C        0.64700    0.42900    0.14900    1.000
    C2       C        0.72200    0.31000    0.08570    1.000
    H1       H        0.74410    0.27600    0.14320    1.000
    H2       H        0.63560    0.25110    0.02620    1.000
    C3       C        0.89400    0.33300    0.02570    1.000
    H3       H        0.97290    0.40210    0.08170    1.000
    H4       H        0.94850    0.26240    0.00510    1.000
    C4       C        0.86300    0.35900    0.91360    1.000
    C5       C        0.14400    0.42600    0.29710    1.000
    C6       C        0.22400    0.30880    0.27180    1.000
    C7       C        0.38800    0.33300    0.35120    1.000
    C8       C        0.36500    0.36300    0.47600    1.000
    C9       C        0.32300    0.86100    0.31510    1.000
    C10      C        0.24800    0.96900    0.36500    1.000
    H5       H        0.28630    0.02160    0.32330    1.000
    H6       H        0.12260    0.94440    0.35070    1.000
    C11      C        0.28600    0.03700    0.48800    1.000
    H7       H        0.40930    0.07230    0.50120    1.000
    H8       H        0.26470    0.98170    0.52920    1.000
    C12      C        0.17900    0.14400    0.54500    1.000
    Nd1      Nd       0.99131    0.64570    0.35421    1.000
    Nd2      Nd       0.49093    0.64513    0.25275    1.000
    O1       O        0.73630    0.51840    0.22070    1.000
    O2       O        0.48800    0.42840    0.11800    1.000
    O3       O        0.23170    0.51790    0.28990    1.000
    O4       O        0.99090    0.42850    0.32680    1.000
    O5       O        0.27160    0.77710    0.35910    1.000
    O6       O        0.45000    0.85500    0.25890    1.000
    O7       O        0.72140    0.39100    0.90130    1.000
    O8       O        0.98440    0.34610    0.84900    1.000
    O9       O        0.23110    0.22310    0.65340    1.000
    O10      O        0.04720    0.14950    0.49510    1.000
    O11      O        0.48620    0.35000    0.53550    1.000
    O12      O        0.22690    0.39690    0.51680    1.000
    C13      C        0.35300    0.57100    0.85100    1.000
    C14      C        0.27800    0.69000    0.91430    1.000
    H9       H        0.25590    0.72400    0.85680    1.000
    H10      H        0.36440    0.74890    0.97380    1.000
    C15      C        0.10600    0.66700    0.97430    1.000
    H11      H        0.02710    0.59790    0.91830    1.000
    H12      H        0.05150    0.73760    0.99490    1.000
    C16      C        0.13700    0.64100    0.08640    1.000
    C17      C        0.85600    0.57400    0.70290    1.000
    C18      C        0.77600    0.69120    0.72820    1.000
    C19      C        0.61200    0.66700    0.64880    1.000
    C20      C        0.63500    0.63700    0.52400    1.000
    C21      C        0.67700    0.13900    0.68490    1.000
    C22      C        0.75200    0.03100    0.63500    1.000
    H13      H        0.71370    0.97840    0.67670    1.000
    H14      H        0.87740    0.05560    0.64930    1.000
    C23      C        0.71400    0.96300    0.51200    1.000
    H15      H        0.59070    0.92770    0.49880    1.000
    H16      H        0.73530    0.01830    0.47080    1.000
    C24      C        0.82100    0.85600    0.45500    1.000
    Nd3      Nd       0.00869    0.35430    0.64579    1.000
    Nd4      Nd       0.50907    0.35487    0.74725    1.000
    O13      O        0.26370    0.48160    0.77930    1.000
    O14      O        0.51200    0.57160    0.88200    1.000
    O15      O        0.76830    0.48210    0.71010    1.000
    O16      O        0.00910    0.57150    0.67320    1.000
    O17      O        0.72840    0.22290    0.64090    1.000
    O18      O        0.55000    0.14500    0.74110    1.000
    O19      O        0.27860    0.60900    0.09870    1.000
    O20      O        0.01560    0.65390    0.15100    1.000
    O21      O        0.76890    0.77690    0.34660    1.000
    O22      O        0.95280    0.85050    0.50490    1.000
    O23      O        0.51380    0.65000    0.46450    1.000
    O24      O        0.77310    0.60310    0.48320    1.000
