data_functionalizedCrystal
_audit_creation_method	'EQeq! by Chris Wilmer'
_symmetry_space_group_name_H-M	'P1'
_symmetry_Int_Tables_number	1
_symmetry_cell_setting	triclinic
loop_
_symmetry_equiv_pos_as_xyz
  x,y,z
_cell_length_a	12.066
_cell_length_b	16.121
_cell_length_c	15.099
_cell_angle_alpha	90
_cell_angle_beta	90
_cell_angle_gamma	90
loop_
_atom_site_label
_atom_site_type_symbol
_atom_site_fract_x
_atom_site_fract_y
_atom_site_fract_z
_atom_site_charge
Mof_N 	N 	0.6102	0.1631	0.3855	-0.206
Mof_C 	C 	0.664	0.1042	0.3891	0.059
Mof_N 	N 	0.1102	0.6631	0.3855	-0.206
Mof_C 	C 	0.164	0.6042	0.3891	0.051
Mof_N 	N 	0.3898	0.3369	0.3855	-0.207
Mof_C 	C 	0.336	0.3958	0.3891	0.058
Mof_N 	N 	0.8898	0.8369	0.3855	-0.19
Mof_C 	C 	0.836	0.8958	0.3891	0.072
Mof_N 	N 	0.6102	0.3369	0.3855	-0.206
Mof_C 	C 	0.664	0.3958	0.3891	0.058
Mof_N 	N 	0.1102	0.8369	0.3855	-0.207
Mof_C 	C 	0.164	0.8958	0.3891	0.06
Mof_N 	N 	0.3898	0.1631	0.3855	-0.207
Mof_C 	C 	0.336	0.1042	0.3891	0.059
Mof_N 	N 	0.8898	0.6631	0.3855	-0.189
Mof_C 	C 	0.836	0.6042	0.3891	0.063
Mof_Au	Au	0.75	0	0.39271	0.046
Mof_Au	Au	0.25	0.5	0.39271	0.039
Mof_Au	Au	0.75	0.5	0.39271	0.058
Mof_Au	Au	0.25	0	0.39271	0.028
Mof_Fe	Fe	0.5	0.25	0.3845	0.782
Mof_N 	N 	0.5	0.25	0.2527	-0.208
Mof_N 	N 	0.5	0.25	0.5164	-0.208
Mof_C 	C 	0.5	0.25	0.067	0.071
Mof_C 	C 	0.5	0.25	0.9689	0.087
Mof_C 	C 	0.5	0.25	0.7998	0.085
Mof_C 	C 	0.5	0.25	0.7006	0.076
Mof_Fe	Fe	6.10154e-33	0.75	0.3845	0.739
Mof_N 	N 	-3.11187e-33	0.75	0.2527	-0.225
Mof_N 	N 	2.42289e-33	0.75	0.5164	-0.224
Mof_C 	C 	-8.28066e-33	0.75	0.067	0.026
Mof_C 	C 	-4.04906e-33	0.75	0.9689	0.065
Mof_C 	C 	-2.20325e-32	0.75	0.7998	0.064
Mof_C 	C 	-5.30789e-33	0.75	0.7006	0.022
Mof_N 	N 	0.5987	0.25	0.9278	-0.084
Mof_N 	N 	0.5982	0.25	0.8398	-0.087
Mof_C 	C 	0.595	0.25	0.2061	0.097
Mof_H 	H 	0.6629	0.25	0.238	0.001
Mof_C 	C 	0.5995	0.25	0.115	-0.137
Mof_H 	H 	0.6689	0.25	0.0852	0.099
Mof_C 	C 	0.5969	0.25	0.6552	-0.145
Mof_H 	H 	0.6655	0.25	0.686	0.088
Mof_C 	C 	0.5949	0.25	0.5629	0.089
Mof_H 	H 	0.6633	0.25	0.5317	-0.003
Mof_N 	N 	0.0987	0.75	0.9278	-0.085
Mof_N 	N 	0.0982	0.75	0.8398	-0.088
Mof_C 	C 	0.095	0.75	0.2061	0.082
Mof_H 	H 	0.1629	0.75	0.238	0.004
Mof_C 	C 	0.0995	0.75	0.115	-0.123
Mof_H 	H 	0.1689	0.75	0.0852	0.091
Mof_C 	C 	0.0969	0.75	0.6552	-0.123
Mof_H 	H 	0.1655	0.75	0.686	0.079
Mof_C 	C 	0.0949	0.75	0.5629	0.071
Mof_H 	H 	0.1633	0.75	0.5317	0.003
Mof_N 	N 	0.4013	0.25	0.9278	-0.086
Mof_N 	N 	0.4018	0.25	0.8398	-0.089
Mof_C 	C 	0.405	0.25	0.2061	0.097
Mof_H 	H 	0.3371	0.25	0.238	-0.001
Mof_C 	C 	0.4005	0.25	0.115	-0.138
Mof_H 	H 	0.3311	0.25	0.0852	0.096
Mof_C 	C 	0.4031	0.25	0.6552	-0.145
Mof_H 	H 	0.3345	0.25	0.686	0.087
Mof_C 	C 	0.4051	0.25	0.5629	0.09
Mof_H 	H 	0.3367	0.25	0.5317	-0.003
Mof_N 	N 	0.9013	0.75	0.9278	-0.064
Mof_N 	N 	0.9018	0.75	0.8398	-0.066
Mof_C 	C 	0.905	0.75	0.2061	0.121
Mof_H 	H 	0.8371	0.75	0.238	-0.003
Mof_C 	C 	0.9005	0.75	0.115	-0.089
Mof_H 	H 	0.8311	0.75	0.0852	0.088
Mof_C 	C 	0.9031	0.75	0.6552	-0.087
Mof_H 	H 	0.8345	0.75	0.686	0.074
Mof_C 	C 	0.9051	0.75	0.5629	0.109
Mof_H 	H 	0.8367	0.75	0.5317	-0.005
Mof_N 	N 	0.3898	0.6631	0.6145	-0.207
Mof_C 	C 	0.336	0.6042	0.6109	0.058
Mof_N 	N 	0.8898	0.1631	0.6145	-0.189
Mof_C 	C 	0.836	0.1042	0.6109	0.064
Mof_N 	N 	0.6102	0.8369	0.6145	-0.207
Mof_C 	C 	0.664	0.8958	0.6109	0.067
Mof_N 	N 	0.1102	0.3369	0.6145	-0.206
Mof_C 	C 	0.164	0.3958	0.6109	0.051
Mof_N 	N 	0.3898	0.8369	0.6145	-0.208
Mof_C 	C 	0.336	0.8958	0.6109	0.066
Mof_N 	N 	0.8898	0.3369	0.6145	-0.189
Mof_C 	C 	0.836	0.3958	0.6109	0.063
Mof_N 	N 	0.6102	0.6631	0.6145	-0.206
Mof_C 	C 	0.664	0.6042	0.6109	0.058
Mof_N 	N 	0.1102	0.1631	0.6145	-0.206
Mof_C 	C 	0.164	0.1042	0.6109	0.053
Mof_Au	Au	0.25	0.5	0.60729	0.039
Mof_Au	Au	0.75	0	0.60729	0.046
Mof_Au	Au	0.25	0	0.60729	0.028
Mof_Au	Au	0.75	0.5	0.60729	0.058
Mof_Fe	Fe	0.5	0.75	0.6155	0.783
Mof_N 	N 	0.5	0.75	0.7473	-0.208
Mof_N 	N 	0.5	0.75	0.4836	-0.208
Mof_C 	C 	0.5	0.75	0.933	0.072
Mof_C 	C 	0.5	0.75	0.0311	0.088
Mof_C 	C 	0.5	0.75	0.2002	0.086
Mof_C 	C 	0.5	0.75	0.2994	0.077
Mof_Fe	Fe	-1.43022e-32	0.25	0.6155	0.737
Mof_N 	N 	-2.22788e-32	0.25	0.7473	-0.225
Mof_N 	N 	-1.06235e-32	0.25	0.4836	-0.224
Mof_C 	C 	-2.14075e-32	0.25	0.933	0.026
Mof_C 	C 	-2.27143e-33	0.25	0.0311	0.064
Mof_C 	C 	-3.3582e-33	0.25	0.2002	0.064
Mof_C 	C 	-2.89276e-33	0.25	0.2994	0.022
Mof_N 	N 	0.4013	0.75	0.0722	-0.086
Mof_N 	N 	0.4018	0.75	0.1602	-0.088
Mof_C 	C 	0.405	0.75	0.7939	0.097
Mof_H 	H 	0.3371	0.75	0.762	-0.001
Mof_C 	C 	0.4005	0.75	0.885	-0.138
Mof_H 	H 	0.3311	0.75	0.9148	0.097
Mof_C 	C 	0.4031	0.75	0.3448	-0.145
Mof_H 	H 	0.3345	0.75	0.314	0.087
Mof_C 	C 	0.4051	0.75	0.4371	0.091
Mof_H 	H 	0.3367	0.75	0.4683	-0.003
Mof_N 	N 	0.9013	0.25	0.0722	-0.064
Mof_N 	N 	0.9018	0.25	0.1602	-0.067
Mof_C 	C 	0.905	0.25	0.7939	0.121
Mof_H 	H 	0.8371	0.25	0.762	-0.003
Mof_C 	C 	0.9005	0.25	0.885	-0.09
Mof_H 	H 	0.8311	0.25	0.9148	0.087
Mof_C 	C 	0.9031	0.25	0.3448	-0.087
Mof_H 	H 	0.8345	0.25	0.314	0.073
Mof_C 	C 	0.9051	0.25	0.4371	0.108
Mof_H 	H 	0.8367	0.25	0.4683	-0.005
Mof_N 	N 	0.5987	0.75	0.0722	-0.084
Mof_N 	N 	0.5982	0.75	0.1602	-0.087
Mof_C 	C 	0.595	0.75	0.7939	0.098
Mof_H 	H 	0.6629	0.75	0.762	0.002
Mof_C 	C 	0.5995	0.75	0.885	-0.137
Mof_H 	H 	0.6689	0.75	0.9148	0.1
Mof_C 	C 	0.5969	0.75	0.3448	-0.145
Mof_H 	H 	0.6655	0.75	0.314	0.089
Mof_C 	C 	0.5949	0.75	0.4371	0.09
Mof_H 	H 	0.6633	0.75	0.4683	-0.003
Mof_N 	N 	0.0987	0.25	0.0722	-0.086
Mof_N 	N 	0.0982	0.25	0.1602	-0.088
Mof_C 	C 	0.095	0.25	0.7939	0.081
Mof_H 	H 	0.1629	0.25	0.762	0.004
Mof_C 	C 	0.0995	0.25	0.885	-0.124
Mof_H 	H 	0.1689	0.25	0.9148	0.091
Mof_C 	C 	0.0969	0.25	0.3448	-0.124
Mof_H 	H 	0.1655	0.25	0.314	0.079
Mof_C 	C 	0.0949	0.25	0.4371	0.07
Mof_H 	H 	0.1633	0.25	0.4683	0.003
_end
