data_functionalizedCrystal
_audit_creation_method	'EQeq! by Chris Wilmer'
_symmetry_space_group_name_H-M	'P1'
_symmetry_Int_Tables_number	1
_symmetry_cell_setting	triclinic
loop_
_symmetry_equiv_pos_as_xyz
  x,y,z
_cell_length_a	19.0435
_cell_length_b	21.6023
_cell_length_c	22.2298
_cell_angle_alpha	90
_cell_angle_beta	90
_cell_angle_gamma	90
loop_
_atom_site_label
_atom_site_type_symbol
_atom_site_fract_x
_atom_site_fract_y
_atom_site_fract_z
_atom_site_charge
Mof_Ni	Ni	0.75	0.75	0.90382	1.094
Mof_Ni	Ni	0.25	0.25	0.59618	1.094
Mof_Ni	Ni	0.25	0.25	0.09618	1.094
Mof_Ni	Ni	0.75	0.75	0.40382	1.094
Mof_Sb	Sb	0.96541	0.98867	0.03682	0.474
Mof_Sb	Sb	0.53459	0.51133	0.03682	0.477
Mof_Sb	Sb	0.03459	0.48867	0.46318	0.476
Mof_Sb	Sb	0.46541	0.01133	0.46318	0.476
Mof_Sb	Sb	0.03459	0.01133	0.96318	0.473
Mof_Sb	Sb	0.46541	0.48867	0.96318	0.476
Mof_Sb	Sb	0.96541	0.51133	0.53682	0.476
Mof_Sb	Sb	0.53459	0.98867	0.53682	0.476
Mof_H 	H 	0.3062	0.9776	0.8189	0.167
Mof_H 	H 	0.4875	0.7766	0.8767	0.114
Mof_H 	H 	0.5912	0.7289	0.892	-0
Mof_H 	H 	0.694	0.8849	0.8885	0.022
Mof_H 	H 	0.5911	0.9343	0.8646	0.101
Mof_H 	H 	0.4959	0.9615	0.8019	0.119
Mof_H 	H 	0.4021	0.0158	0.7783	-0.004
Mof_H 	H 	0.2882	0.8941	0.8742	0.019
Mof_H 	H 	0.3934	0.8386	0.9004	0.121
Mof_H 	H 	0.796	0.6693	0.3034	0.022
Mof_H 	H 	0.8008	0.6679	0.1995	0.111
Mof_H 	H 	0.8459	0.7171	0.0066	0
Mof_H 	H 	0.8479	0.7148	0.109	0.116
Mof_H 	H 	0.1938	0.5224	0.8189	0.166
Mof_H 	H 	0.0125	0.7234	0.8767	0.121
Mof_H 	H 	0.9088	0.7711	0.892	-0.003
Mof_H 	H 	0.806	0.6151	0.8885	0.022
Mof_H 	H 	0.9089	0.5657	0.8646	0.101
Mof_H 	H 	0.0041	0.5385	0.8019	0.119
Mof_H 	H 	0.0979	0.4842	0.7783	-0.002
Mof_H 	H 	0.2118	0.6059	0.8742	0.019
Mof_H 	H 	0.1066	0.6614	0.9004	0.122
Mof_H 	H 	0.704	0.8307	0.3034	0.022
Mof_H 	H 	0.6992	0.8321	0.1995	0.111
Mof_H 	H 	0.6541	0.7829	0.0066	-0
Mof_H 	H 	0.6521	0.7852	0.109	0.116
Mof_H 	H 	0.6938	0.4776	0.6811	0.166
Mof_H 	H 	0.5125	0.2766	0.6233	0.115
Mof_H 	H 	0.4088	0.2289	0.608	-0.001
Mof_H 	H 	0.306	0.3849	0.6115	0.022
Mof_H 	H 	0.4089	0.4343	0.6354	0.101
Mof_H 	H 	0.5041	0.4615	0.6981	0.117
Mof_H 	H 	0.5979	0.5158	0.7217	-0.001
Mof_H 	H 	0.7118	0.3941	0.6258	0.019
Mof_H 	H 	0.6066	0.3386	0.5996	0.121
Mof_H 	H 	0.204	0.1693	0.1966	0.022
Mof_H 	H 	0.1992	0.1679	0.3005	0.111
Mof_H 	H 	0.1541	0.2171	0.4934	-0
Mof_H 	H 	0.1521	0.2148	0.391	0.115
Mof_H 	H 	0.8062	0.0224	0.6811	0.167
Mof_H 	H 	0.9875	0.2234	0.6233	0.116
Mof_H 	H 	0.0912	0.2711	0.608	-0.001
Mof_H 	H 	0.194	0.1151	0.6115	0.022
Mof_H 	H 	0.0911	0.0657	0.6354	0.099
Mof_H 	H 	0.9959	0.0385	0.6981	0.122
Mof_H 	H 	0.9021	0.9842	0.7217	-0.009
Mof_H 	H 	0.7882	0.1059	0.6258	0.018
Mof_H 	H 	0.8934	0.1614	0.5996	0.123
Mof_H 	H 	0.296	0.3307	0.1966	0.022
Mof_H 	H 	0.3008	0.3321	0.3005	0.111
Mof_H 	H 	0.3459	0.2829	0.4934	0
Mof_H 	H 	0.3479	0.2852	0.391	0.116
Mof_H 	H 	0.6938	0.0224	0.1811	0.167
Mof_H 	H 	0.5125	0.2234	0.1233	0.114
Mof_H 	H 	0.4088	0.2711	0.108	-0
Mof_H 	H 	0.306	0.1151	0.1115	0.022
Mof_H 	H 	0.4089	0.0657	0.1354	0.101
Mof_H 	H 	0.5041	0.0385	0.1981	0.119
Mof_H 	H 	0.5979	0.9842	0.2217	-0.004
Mof_H 	H 	0.7118	0.1059	0.1258	0.019
Mof_H 	H 	0.6066	0.1614	0.0996	0.121
Mof_H 	H 	0.204	0.3307	0.6966	0.022
Mof_H 	H 	0.1992	0.3321	0.8005	0.111
Mof_H 	H 	0.1541	0.2829	0.9934	0
Mof_H 	H 	0.1521	0.2852	0.891	0.116
Mof_H 	H 	0.8062	0.4776	0.1811	0.166
Mof_H 	H 	0.9875	0.2766	0.1233	0.121
Mof_H 	H 	0.0912	0.2289	0.108	-0.003
Mof_H 	H 	0.194	0.3849	0.1115	0.022
Mof_H 	H 	0.0911	0.4343	0.1354	0.101
Mof_H 	H 	0.9959	0.4615	0.1981	0.119
Mof_H 	H 	0.9021	0.5158	0.2217	-0.002
Mof_H 	H 	0.7882	0.3941	0.1258	0.019
Mof_H 	H 	0.8934	0.3386	0.0996	0.122
Mof_H 	H 	0.296	0.1693	0.6966	0.022
Mof_H 	H 	0.3008	0.1679	0.8005	0.111
Mof_H 	H 	0.3459	0.2171	0.9934	-0
Mof_H 	H 	0.3479	0.2148	0.891	0.116
Mof_H 	H 	0.3062	0.5224	0.3189	0.166
Mof_H 	H 	0.4875	0.7234	0.3767	0.115
Mof_H 	H 	0.5912	0.7711	0.392	-0.001
Mof_H 	H 	0.694	0.6151	0.3885	0.022
Mof_H 	H 	0.5911	0.5657	0.3646	0.101
Mof_H 	H 	0.4959	0.5385	0.3019	0.117
Mof_H 	H 	0.4021	0.4842	0.2783	-0.001
Mof_H 	H 	0.2882	0.6059	0.3742	0.019
Mof_H 	H 	0.3934	0.6614	0.4004	0.121
Mof_H 	H 	0.796	0.8307	0.8034	0.022
Mof_H 	H 	0.8008	0.8321	0.6995	0.111
Mof_H 	H 	0.8459	0.7829	0.5066	-0
Mof_H 	H 	0.8479	0.7852	0.609	0.115
Mof_H 	H 	0.1938	0.9776	0.3189	0.167
Mof_H 	H 	0.0125	0.7766	0.3767	0.116
Mof_H 	H 	0.9088	0.7289	0.392	-0.001
Mof_H 	H 	0.806	0.8849	0.3885	0.022
Mof_H 	H 	0.9089	0.9343	0.3646	0.099
Mof_H 	H 	0.0041	0.9615	0.3019	0.122
Mof_H 	H 	0.0979	0.0158	0.2783	-0.009
Mof_H 	H 	0.2118	0.8941	0.3742	0.018
Mof_H 	H 	0.1066	0.8386	0.4004	0.123
Mof_H 	H 	0.704	0.6693	0.8034	0.022
Mof_H 	H 	0.6992	0.6679	0.6995	0.111
Mof_H 	H 	0.6541	0.7171	0.5066	0
Mof_H 	H 	0.6521	0.7148	0.609	0.116
Mof_W 	W 	0.83929	0.89242	0.96076	1.311
Mof_W 	W 	0.77078	0.93587	0.09133	1.324
Mof_W 	W 	0.79651	0.0388	0.98152	1.276
Mof_W 	W 	0.9028	0.13685	0.0868	1.271
Mof_W 	W 	0.92135	0.8692	0.17444	1.335
Mof_W 	W 	0.99082	0.82228	0.04459	1.312
Mof_W 	W 	0.96493	0.9241	0.83944	1.297
Mof_W 	W 	0.08449	0.90946	0.13702	1.292
Mof_W 	W 	0.87383	0.03361	0.19589	1.355
Mof_W 	W 	0.66071	0.60758	0.96076	1.312
Mof_W 	W 	0.72922	0.56413	0.09133	1.326
Mof_W 	W 	0.70349	0.4612	0.98152	1.276
Mof_W 	W 	0.5972	0.36315	0.0868	1.271
Mof_W 	W 	0.57865	0.6308	0.17444	1.336
Mof_W 	W 	0.50918	0.67772	0.04459	1.314
Mof_W 	W 	0.53507	0.5759	0.83944	1.309
Mof_W 	W 	0.41551	0.59054	0.13702	1.292
Mof_W 	W 	0.62617	0.46639	0.19589	1.35
Mof_W 	W 	0.16071	0.39242	0.53924	1.313
Mof_W 	W 	0.22922	0.43587	0.40867	1.326
Mof_W 	W 	0.20349	0.5388	0.51848	1.278
Mof_W 	W 	0.0972	0.63685	0.4132	1.271
Mof_W 	W 	0.07865	0.3692	0.32556	1.334
Mof_W 	W 	0.00918	0.32228	0.45541	1.31
Mof_W 	W 	0.03507	0.4241	0.66056	1.31
Mof_W 	W 	0.91551	0.40946	0.36298	1.293
Mof_W 	W 	0.12617	0.53361	0.30411	1.349
Mof_W 	W 	0.33929	0.10758	0.53924	1.314
Mof_W 	W 	0.27078	0.06413	0.40867	1.324
Mof_W 	W 	0.29651	0.9612	0.51848	1.28
Mof_W 	W 	0.4028	0.86315	0.4132	1.271
Mof_W 	W 	0.42135	0.1308	0.32556	1.336
Mof_W 	W 	0.49082	0.17772	0.45541	1.314
Mof_W 	W 	0.46493	0.0759	0.66056	1.309
Mof_W 	W 	0.58449	0.09054	0.36298	1.292
Mof_W 	W 	0.37383	0.96639	0.30411	1.351
Mof_W 	W 	0.16071	0.10758	0.03924	1.311
Mof_W 	W 	0.22922	0.06413	0.90867	1.324
Mof_W 	W 	0.20349	0.9612	0.01848	1.276
Mof_W 	W 	0.0972	0.86315	0.9132	1.271
Mof_W 	W 	0.07865	0.1308	0.82556	1.335
Mof_W 	W 	0.00918	0.17772	0.95541	1.312
Mof_W 	W 	0.03507	0.0759	0.16056	1.297
Mof_W 	W 	0.91551	0.09054	0.86298	1.292
Mof_W 	W 	0.12617	0.96639	0.80411	1.355
Mof_W 	W 	0.33929	0.39242	0.03924	1.312
Mof_W 	W 	0.27078	0.43587	0.90867	1.326
Mof_W 	W 	0.29651	0.5388	0.01848	1.276
Mof_W 	W 	0.4028	0.63685	0.9132	1.271
Mof_W 	W 	0.42135	0.3692	0.82556	1.336
Mof_W 	W 	0.49082	0.32228	0.95541	1.314
Mof_W 	W 	0.46493	0.4241	0.16056	1.309
Mof_W 	W 	0.58449	0.40946	0.86298	1.292
Mof_W 	W 	0.37383	0.53361	0.80411	1.35
Mof_W 	W 	0.83929	0.60758	0.46076	1.313
Mof_W 	W 	0.77078	0.56413	0.59133	1.326
Mof_W 	W 	0.79651	0.4612	0.48152	1.278
Mof_W 	W 	0.9028	0.36315	0.5868	1.271
Mof_W 	W 	0.92135	0.6308	0.67444	1.334
Mof_W 	W 	0.99082	0.67772	0.54459	1.31
Mof_W 	W 	0.96493	0.5759	0.33944	1.31
Mof_W 	W 	0.08449	0.59054	0.63702	1.293
Mof_W 	W 	0.87383	0.46639	0.69589	1.349
Mof_W 	W 	0.66071	0.89242	0.46076	1.314
Mof_W 	W 	0.72922	0.93587	0.59133	1.324
Mof_W 	W 	0.70349	0.0388	0.48152	1.28
Mof_W 	W 	0.5972	0.13685	0.5868	1.271
Mof_W 	W 	0.57865	0.8692	0.67444	1.336
Mof_W 	W 	0.50918	0.82228	0.54459	1.314
Mof_W 	W 	0.53507	0.9241	0.33944	1.309
Mof_W 	W 	0.41551	0.90946	0.63702	1.292
Mof_W 	W 	0.62617	0.03361	0.69589	1.351
Mof_C 	C 	0.5291	0.8651	0.8689	0.08
Mof_C 	C 	0.5289	0.7993	0.8781	-0.136
Mof_C 	C 	0.5912	0.7718	0.889	0.128
Mof_C 	C 	0.6523	0.8625	0.8859	0.091
Mof_C 	C 	0.5895	0.892	0.8721	-0.129
Mof_C 	C 	0.4592	0.8947	0.8533	0.106
Mof_C 	C 	0.453	0.9477	0.8176	-0.182
Mof_C 	C 	0.401	0.981	0.8025	0.199
Mof_C 	C 	0.3325	0.906	0.861	0.149
Mof_C 	C 	0.3952	0.874	0.876	-0.145
Mof_C 	C 	0.7776	0.7025	0.2819	0.102
Mof_C 	C 	0.78	0.7008	0.2197	-0.121
Mof_C 	C 	0.8065	0.7304	0.0276	0.123
Mof_C 	C 	0.8083	0.7292	0.0889	-0.141
Mof_C 	C 	0.9709	0.6349	0.8689	0.08
Mof_C 	C 	0.9711	0.7007	0.8781	-0.146
Mof_C 	C 	0.9088	0.7282	0.889	0.133
Mof_C 	C 	0.8477	0.6375	0.8859	0.091
Mof_C 	C 	0.9105	0.608	0.8721	-0.13
Mof_C 	C 	0.0408	0.6053	0.8533	0.107
Mof_C 	C 	0.047	0.5523	0.8176	-0.18
Mof_C 	C 	0.099	0.519	0.8025	0.195
Mof_C 	C 	0.1675	0.594	0.861	0.149
Mof_C 	C 	0.1048	0.626	0.876	-0.145
Mof_C 	C 	0.7224	0.7975	0.2819	0.102
Mof_C 	C 	0.72	0.7992	0.2197	-0.121
Mof_C 	C 	0.6935	0.7696	0.0276	0.123
Mof_C 	C 	0.6917	0.7708	0.0889	-0.141
Mof_C 	C 	0.4709	0.3651	0.6311	0.081
Mof_C 	C 	0.4711	0.2993	0.6219	-0.136
Mof_C 	C 	0.4088	0.2718	0.611	0.129
Mof_C 	C 	0.3477	0.3625	0.6141	0.091
Mof_C 	C 	0.4105	0.392	0.6279	-0.13
Mof_C 	C 	0.5408	0.3947	0.6467	0.103
Mof_C 	C 	0.547	0.4477	0.6824	-0.178
Mof_C 	C 	0.599	0.481	0.6975	0.193
Mof_C 	C 	0.6675	0.406	0.639	0.148
Mof_C 	C 	0.6048	0.374	0.624	-0.144
Mof_C 	C 	0.2224	0.2025	0.2181	0.102
Mof_C 	C 	0.22	0.2008	0.2803	-0.121
Mof_C 	C 	0.1935	0.2304	0.4724	0.121
Mof_C 	C 	0.1917	0.2292	0.4111	-0.14
Mof_C 	C 	0.0291	0.1349	0.6311	0.075
Mof_C 	C 	0.0289	0.2007	0.6219	-0.138
Mof_C 	C 	0.0912	0.2282	0.611	0.129
Mof_C 	C 	0.1523	0.1375	0.6141	0.089
Mof_C 	C 	0.0895	0.108	0.6279	-0.126
Mof_C 	C 	0.9592	0.1053	0.6467	0.112
Mof_C 	C 	0.953	0.0523	0.6824	-0.189
Mof_C 	C 	0.901	0.019	0.6975	0.208
Mof_C 	C 	0.8325	0.094	0.639	0.152
Mof_C 	C 	0.8952	0.126	0.624	-0.149
Mof_C 	C 	0.2776	0.2975	0.2181	0.102
Mof_C 	C 	0.28	0.2992	0.2803	-0.121
Mof_C 	C 	0.3065	0.2696	0.4724	0.121
Mof_C 	C 	0.3083	0.2708	0.4111	-0.14
Mof_C 	C 	0.4709	0.1349	0.1311	0.08
Mof_C 	C 	0.4711	0.2007	0.1219	-0.136
Mof_C 	C 	0.4088	0.2282	0.111	0.128
Mof_C 	C 	0.3477	0.1375	0.1141	0.091
Mof_C 	C 	0.4105	0.108	0.1279	-0.129
Mof_C 	C 	0.5408	0.1053	0.1467	0.106
Mof_C 	C 	0.547	0.0523	0.1824	-0.182
Mof_C 	C 	0.599	0.019	0.1975	0.199
Mof_C 	C 	0.6675	0.094	0.139	0.149
Mof_C 	C 	0.6048	0.126	0.124	-0.145
Mof_C 	C 	0.2224	0.2975	0.7181	0.102
Mof_C 	C 	0.22	0.2992	0.7803	-0.121
Mof_C 	C 	0.1935	0.2696	0.9724	0.123
Mof_C 	C 	0.1917	0.2708	0.9111	-0.141
Mof_C 	C 	0.0291	0.3651	0.1311	0.08
Mof_C 	C 	0.0289	0.2993	0.1219	-0.146
Mof_C 	C 	0.0912	0.2718	0.111	0.133
Mof_C 	C 	0.1523	0.3625	0.1141	0.091
Mof_C 	C 	0.0895	0.392	0.1279	-0.13
Mof_C 	C 	0.9592	0.3947	0.1467	0.107
Mof_C 	C 	0.953	0.4477	0.1824	-0.18
Mof_C 	C 	0.901	0.481	0.1975	0.195
Mof_C 	C 	0.8325	0.406	0.139	0.149
Mof_C 	C 	0.8952	0.374	0.124	-0.145
Mof_C 	C 	0.2776	0.2025	0.7181	0.102
Mof_C 	C 	0.28	0.2008	0.7803	-0.121
Mof_C 	C 	0.3065	0.2304	0.9724	0.123
Mof_C 	C 	0.3083	0.2292	0.9111	-0.141
Mof_C 	C 	0.5291	0.6349	0.3689	0.081
Mof_C 	C 	0.5289	0.7007	0.3781	-0.136
Mof_C 	C 	0.5912	0.7282	0.389	0.129
Mof_C 	C 	0.6523	0.6375	0.3859	0.091
Mof_C 	C 	0.5895	0.608	0.3721	-0.13
Mof_C 	C 	0.4592	0.6053	0.3533	0.103
Mof_C 	C 	0.453	0.5523	0.3176	-0.178
Mof_C 	C 	0.401	0.519	0.3025	0.193
Mof_C 	C 	0.3325	0.594	0.361	0.148
Mof_C 	C 	0.3952	0.626	0.376	-0.144
Mof_C 	C 	0.7776	0.7975	0.7819	0.102
Mof_C 	C 	0.78	0.7992	0.7197	-0.121
Mof_C 	C 	0.8065	0.7696	0.5276	0.121
Mof_C 	C 	0.8083	0.7708	0.5889	-0.14
Mof_C 	C 	0.9709	0.8651	0.3689	0.075
Mof_C 	C 	0.9711	0.7993	0.3781	-0.138
Mof_C 	C 	0.9088	0.7718	0.389	0.129
Mof_C 	C 	0.8477	0.8625	0.3859	0.089
Mof_C 	C 	0.9105	0.892	0.3721	-0.126
Mof_C 	C 	0.0408	0.8947	0.3533	0.112
Mof_C 	C 	0.047	0.9477	0.3176	-0.189
Mof_C 	C 	0.099	0.981	0.3025	0.208
Mof_C 	C 	0.1675	0.906	0.361	0.152
Mof_C 	C 	0.1048	0.874	0.376	-0.149
Mof_C 	C 	0.7224	0.7025	0.7819	0.102
Mof_C 	C 	0.72	0.7008	0.7197	-0.121
Mof_C 	C 	0.6935	0.7304	0.5276	0.121
Mof_C 	C 	0.6917	0.7292	0.5889	-0.14
Mof_C 	C 	0.75	0.75	0.1885	0.078
Mof_C 	C 	0.75	0.75	0.1211	0.086
Mof_C 	C 	0.25	0.25	0.3115	0.078
Mof_C 	C 	0.25	0.25	0.3789	0.085
Mof_C 	C 	0.25	0.25	0.8115	0.078
Mof_C 	C 	0.25	0.25	0.8789	0.086
Mof_C 	C 	0.75	0.75	0.6885	0.078
Mof_C 	C 	0.75	0.75	0.6211	0.085
Mof_N 	N 	0.6517	0.8	0.8956	-0.224
Mof_N 	N 	0.344	0.9569	0.8266	-0.234
Mof_N 	N 	0.8483	0.7	0.8956	-0.225
Mof_N 	N 	0.156	0.5431	0.8266	-0.233
Mof_N 	N 	0.3483	0.3	0.6044	-0.224
Mof_N 	N 	0.656	0.4569	0.6734	-0.233
Mof_N 	N 	0.1517	0.2	0.6044	-0.224
Mof_N 	N 	0.844	0.0431	0.6734	-0.236
Mof_N 	N 	0.3483	0.2	0.1044	-0.224
Mof_N 	N 	0.656	0.0431	0.1734	-0.234
Mof_N 	N 	0.1517	0.3	0.1044	-0.225
Mof_N 	N 	0.844	0.4569	0.1734	-0.233
Mof_N 	N 	0.6517	0.7	0.3956	-0.224
Mof_N 	N 	0.344	0.5431	0.3266	-0.233
Mof_N 	N 	0.8483	0.8	0.3956	-0.224
Mof_N 	N 	0.156	0.9569	0.3266	-0.236
Mof_N 	N 	0.75	0.75	0.9955	-0.245
Mof_N 	N 	0.75	0.75	0.3123	-0.233
Mof_N 	N 	0.25	0.25	0.5045	-0.244
Mof_N 	N 	0.25	0.25	0.1877	-0.233
Mof_N 	N 	0.25	0.25	0.0045	-0.245
Mof_N 	N 	0.25	0.25	0.6877	-0.233
Mof_N 	N 	0.75	0.75	0.4955	-0.244
Mof_N 	N 	0.75	0.75	0.8123	-0.233
Mof_O 	O 	0.8358	0.8851	0.1306	-0.495
Mof_O 	O 	0.8635	0.9668	0.0271	-0.454
Mof_O 	O 	0.8043	0.8362	0.9124	-0.501
Mof_O 	O 	0.832	0.0957	0.0389	-0.464
Mof_O 	O 	0.7367	0.0001	0.0418	-0.452
Mof_O 	O 	0.979	0.9155	0.0923	-0.449
Mof_O 	O 	0.0138	0.8525	0.8645	-0.464
Mof_O 	O 	0.7854	0.9615	0.9351	-0.449
Mof_O 	O 	0.8027	0.9991	0.1461	-0.489
Mof_O 	O 	0.0745	0.8317	0.0924	-0.432
Mof_O 	O 	0.8529	0.1099	0.1604	-0.449
Mof_O 	O 	0.9158	0.9217	0.9152	-0.508
Mof_O 	O 	0.6922	0.9172	0.1242	-0.371
Mof_O 	O 	0.0361	0.9394	0.7795	-0.46
Mof_O 	O 	0.7685	0.8832	0.0231	-0.472
Mof_O 	O 	0.9425	0.0403	0.1097	-0.451
Mof_O 	O 	0.9042	0.8442	0.0063	-0.494
Mof_O 	O 	0.8796	0.0543	0.9338	-0.496
Mof_O 	O 	0.905	0.8911	0.7924	-0.365
Mof_O 	O 	0.0172	0.8752	0.1958	-0.448
Mof_O 	O 	0.0026	0.7486	0.0215	-0.365
Mof_O 	O 	0.9428	0.8043	0.1185	-0.461
Mof_O 	O 	0.1594	0.893	0.1758	-0.334
Mof_O 	O 	0.0369	0.8665	0.9826	-0.499
Mof_O 	O 	0.8749	0.2121	0.085	-0.349
Mof_O 	O 	0.9081	0.9519	0.2022	-0.498
Mof_O 	O 	0.9353	0.0097	0.8348	-0.473
Mof_O 	O 	0.7357	0.0837	0.9451	-0.329
Mof_O 	O 	0.8932	0.8261	0.2319	-0.383
Mof_O 	O 	0.8298	0.0435	0.2617	-0.35
Mof_O 	O 	0.6642	0.6149	0.1306	-0.495
Mof_O 	O 	0.6365	0.5332	0.0271	-0.453
Mof_O 	O 	0.6957	0.6638	0.9124	-0.501
Mof_O 	O 	0.668	0.4043	0.0389	-0.465
Mof_O 	O 	0.7633	0.4999	0.0418	-0.455
Mof_O 	O 	0.521	0.5845	0.0923	-0.449
Mof_O 	O 	0.4862	0.6475	0.8645	-0.469
Mof_O 	O 	0.7146	0.5385	0.9351	-0.448
Mof_O 	O 	0.6973	0.5009	0.1461	-0.486
Mof_O 	O 	0.4255	0.6683	0.0924	-0.433
Mof_O 	O 	0.6471	0.3901	0.1604	-0.449
Mof_O 	O 	0.5842	0.5783	0.9152	-0.508
Mof_O 	O 	0.8078	0.5828	0.1242	-0.371
Mof_O 	O 	0.4639	0.5606	0.7795	-0.464
Mof_O 	O 	0.7315	0.6168	0.0231	-0.472
Mof_O 	O 	0.5575	0.4597	0.1097	-0.455
Mof_O 	O 	0.5958	0.6558	0.0063	-0.494
Mof_O 	O 	0.6204	0.4457	0.9338	-0.497
Mof_O 	O 	0.595	0.6089	0.7924	-0.366
Mof_O 	O 	0.4828	0.6248	0.1958	-0.449
Mof_O 	O 	0.4974	0.7514	0.0215	-0.365
Mof_O 	O 	0.5572	0.6957	0.1185	-0.462
Mof_O 	O 	0.3406	0.607	0.1758	-0.334
Mof_O 	O 	0.4631	0.6335	0.9826	-0.503
Mof_O 	O 	0.6251	0.2879	0.085	-0.349
Mof_O 	O 	0.5919	0.5481	0.2022	-0.495
Mof_O 	O 	0.5647	0.4903	0.8348	-0.476
Mof_O 	O 	0.7643	0.4163	0.9451	-0.329
Mof_O 	O 	0.6068	0.6739	0.2319	-0.382
Mof_O 	O 	0.6702	0.4565	0.2617	-0.351
Mof_O 	O 	0.1642	0.3851	0.3694	-0.495
Mof_O 	O 	0.1365	0.4668	0.4729	-0.454
Mof_O 	O 	0.1957	0.3362	0.5876	-0.501
Mof_O 	O 	0.168	0.5957	0.4611	-0.466
Mof_O 	O 	0.2633	0.5001	0.4582	-0.456
Mof_O 	O 	0.021	0.4155	0.4077	-0.449
Mof_O 	O 	0.9862	0.3525	0.6355	-0.468
Mof_O 	O 	0.2146	0.4615	0.5649	-0.448
Mof_O 	O 	0.1973	0.4991	0.3539	-0.486
Mof_O 	O 	0.9255	0.3317	0.4076	-0.431
Mof_O 	O 	0.1471	0.6099	0.3396	-0.449
Mof_O 	O 	0.0842	0.4217	0.5848	-0.508
Mof_O 	O 	0.3078	0.4172	0.3758	-0.371
Mof_O 	O 	0.9639	0.4394	0.7205	-0.464
Mof_O 	O 	0.2315	0.3832	0.4769	-0.473
Mof_O 	O 	0.0575	0.5403	0.3903	-0.455
Mof_O 	O 	0.0958	0.3442	0.4937	-0.494
Mof_O 	O 	0.1204	0.5543	0.5662	-0.497
Mof_O 	O 	0.095	0.3911	0.7076	-0.366
Mof_O 	O 	0.9828	0.3752	0.3042	-0.447
Mof_O 	O 	0.9974	0.2486	0.4785	-0.362
Mof_O 	O 	0.0572	0.3043	0.3815	-0.462
Mof_O 	O 	0.8406	0.393	0.3242	-0.334
Mof_O 	O 	0.9631	0.3665	0.5174	-0.502
Mof_O 	O 	0.1251	0.7121	0.415	-0.35
Mof_O 	O 	0.0919	0.4519	0.2978	-0.496
Mof_O 	O 	0.0647	0.5097	0.6652	-0.476
Mof_O 	O 	0.2643	0.5837	0.5549	-0.328
Mof_O 	O 	0.1068	0.3261	0.2681	-0.383
Mof_O 	O 	0.1702	0.5435	0.2383	-0.351
Mof_O 	O 	0.3358	0.1149	0.3694	-0.495
Mof_O 	O 	0.3635	0.0332	0.4729	-0.455
Mof_O 	O 	0.3043	0.1638	0.5876	-0.501
Mof_O 	O 	0.332	0.9043	0.4611	-0.466
Mof_O 	O 	0.2367	0.9999	0.4582	-0.454
Mof_O 	O 	0.479	0.0845	0.4077	-0.449
Mof_O 	O 	0.5138	0.1475	0.6355	-0.469
Mof_O 	O 	0.2854	0.0385	0.5649	-0.45
Mof_O 	O 	0.3027	0.0009	0.3539	-0.487
Mof_O 	O 	0.5745	0.1683	0.4076	-0.432
Mof_O 	O 	0.3529	0.8901	0.3396	-0.449
Mof_O 	O 	0.4158	0.0783	0.5848	-0.508
Mof_O 	O 	0.1922	0.0828	0.3758	-0.372
Mof_O 	O 	0.5361	0.0606	0.7205	-0.464
Mof_O 	O 	0.2685	0.1168	0.4769	-0.473
Mof_O 	O 	0.4425	0.9597	0.3903	-0.455
Mof_O 	O 	0.4042	0.1558	0.4937	-0.495
Mof_O 	O 	0.3796	0.9457	0.5662	-0.497
Mof_O 	O 	0.405	0.1089	0.7076	-0.366
Mof_O 	O 	0.5172	0.1248	0.3042	-0.449
Mof_O 	O 	0.5026	0.2514	0.4785	-0.364
Mof_O 	O 	0.4428	0.1957	0.3815	-0.462
Mof_O 	O 	0.6594	0.107	0.3242	-0.334
Mof_O 	O 	0.5369	0.1335	0.5174	-0.503
Mof_O 	O 	0.3749	0.7879	0.415	-0.35
Mof_O 	O 	0.4081	0.0481	0.2978	-0.496
Mof_O 	O 	0.4353	0.9903	0.6652	-0.476
Mof_O 	O 	0.2357	0.9163	0.5549	-0.328
Mof_O 	O 	0.3932	0.1739	0.2681	-0.382
Mof_O 	O 	0.3298	0.9565	0.2383	-0.351
Mof_O 	O 	0.1642	0.1149	0.8694	-0.495
Mof_O 	O 	0.1365	0.0332	0.9729	-0.454
Mof_O 	O 	0.1957	0.1638	0.0876	-0.501
Mof_O 	O 	0.168	0.9043	0.9611	-0.464
Mof_O 	O 	0.2633	0.9999	0.9582	-0.452
Mof_O 	O 	0.021	0.0845	0.9077	-0.449
Mof_O 	O 	0.9862	0.1475	0.1355	-0.464
Mof_O 	O 	0.2146	0.0385	0.0649	-0.449
Mof_O 	O 	0.1973	0.0009	0.8539	-0.489
Mof_O 	O 	0.9255	0.1683	0.9076	-0.432
Mof_O 	O 	0.1471	0.8901	0.8396	-0.449
Mof_O 	O 	0.0842	0.0783	0.0848	-0.508
Mof_O 	O 	0.3078	0.0828	0.8758	-0.371
Mof_O 	O 	0.9639	0.0606	0.2205	-0.46
Mof_O 	O 	0.2315	0.1168	0.9769	-0.472
Mof_O 	O 	0.0575	0.9597	0.8903	-0.451
Mof_O 	O 	0.0958	0.1558	0.9937	-0.494
Mof_O 	O 	0.1204	0.9457	0.0662	-0.496
Mof_O 	O 	0.095	0.1089	0.2076	-0.365
Mof_O 	O 	0.9828	0.1248	0.8042	-0.448
Mof_O 	O 	0.9974	0.2514	0.9785	-0.365
Mof_O 	O 	0.0572	0.1957	0.8815	-0.461
Mof_O 	O 	0.8406	0.107	0.8242	-0.334
Mof_O 	O 	0.9631	0.1335	0.0174	-0.499
Mof_O 	O 	0.1251	0.7879	0.915	-0.349
Mof_O 	O 	0.0919	0.0481	0.7978	-0.498
Mof_O 	O 	0.0647	0.9903	0.1652	-0.473
Mof_O 	O 	0.2643	0.9163	0.0549	-0.329
Mof_O 	O 	0.1068	0.1739	0.7681	-0.383
Mof_O 	O 	0.1702	0.9565	0.7383	-0.35
Mof_O 	O 	0.3358	0.3851	0.8694	-0.495
Mof_O 	O 	0.3635	0.4668	0.9729	-0.453
Mof_O 	O 	0.3043	0.3362	0.0876	-0.501
Mof_O 	O 	0.332	0.5957	0.9611	-0.465
Mof_O 	O 	0.2367	0.5001	0.9582	-0.455
Mof_O 	O 	0.479	0.4155	0.9077	-0.449
Mof_O 	O 	0.5138	0.3525	0.1355	-0.469
Mof_O 	O 	0.2854	0.4615	0.0649	-0.448
Mof_O 	O 	0.3027	0.4991	0.8539	-0.486
Mof_O 	O 	0.5745	0.3317	0.9076	-0.433
Mof_O 	O 	0.3529	0.6099	0.8396	-0.449
Mof_O 	O 	0.4158	0.4217	0.0848	-0.508
Mof_O 	O 	0.1922	0.4172	0.8758	-0.371
Mof_O 	O 	0.5361	0.4394	0.2205	-0.464
Mof_O 	O 	0.2685	0.3832	0.9769	-0.472
Mof_O 	O 	0.4425	0.5403	0.8903	-0.455
Mof_O 	O 	0.4042	0.3442	0.9937	-0.494
Mof_O 	O 	0.3796	0.5543	0.0662	-0.497
Mof_O 	O 	0.405	0.3911	0.2076	-0.366
Mof_O 	O 	0.5172	0.3752	0.8042	-0.449
Mof_O 	O 	0.5026	0.2486	0.9785	-0.365
Mof_O 	O 	0.4428	0.3043	0.8815	-0.462
Mof_O 	O 	0.6594	0.393	0.8242	-0.334
Mof_O 	O 	0.5369	0.3665	0.0174	-0.503
Mof_O 	O 	0.3749	0.7121	0.915	-0.349
Mof_O 	O 	0.4081	0.4519	0.7978	-0.495
Mof_O 	O 	0.4353	0.5097	0.1652	-0.476
Mof_O 	O 	0.2357	0.5837	0.0549	-0.329
Mof_O 	O 	0.3932	0.3261	0.7681	-0.382
Mof_O 	O 	0.3298	0.5435	0.7383	-0.351
Mof_O 	O 	0.8358	0.6149	0.6306	-0.495
Mof_O 	O 	0.8635	0.5332	0.5271	-0.454
Mof_O 	O 	0.8043	0.6638	0.4124	-0.501
Mof_O 	O 	0.832	0.4043	0.5389	-0.466
Mof_O 	O 	0.7367	0.4999	0.5418	-0.456
Mof_O 	O 	0.979	0.5845	0.5923	-0.449
Mof_O 	O 	0.0138	0.6475	0.3645	-0.468
Mof_O 	O 	0.7854	0.5385	0.4351	-0.448
Mof_O 	O 	0.8027	0.5009	0.6461	-0.486
Mof_O 	O 	0.0745	0.6683	0.5924	-0.431
Mof_O 	O 	0.8529	0.3901	0.6604	-0.449
Mof_O 	O 	0.9158	0.5783	0.4152	-0.508
Mof_O 	O 	0.6922	0.5828	0.6242	-0.371
Mof_O 	O 	0.0361	0.5606	0.2795	-0.464
Mof_O 	O 	0.7685	0.6168	0.5231	-0.473
Mof_O 	O 	0.9425	0.4597	0.6097	-0.455
Mof_O 	O 	0.9042	0.6558	0.5063	-0.494
Mof_O 	O 	0.8796	0.4457	0.4338	-0.497
Mof_O 	O 	0.905	0.6089	0.2924	-0.366
Mof_O 	O 	0.0172	0.6248	0.6958	-0.447
Mof_O 	O 	0.0026	0.7514	0.5215	-0.362
Mof_O 	O 	0.9428	0.6957	0.6185	-0.462
Mof_O 	O 	0.1594	0.607	0.6758	-0.334
Mof_O 	O 	0.0369	0.6335	0.4826	-0.502
Mof_O 	O 	0.8749	0.2879	0.585	-0.35
Mof_O 	O 	0.9081	0.5481	0.7022	-0.496
Mof_O 	O 	0.9353	0.4903	0.3348	-0.476
Mof_O 	O 	0.7357	0.4163	0.4451	-0.328
Mof_O 	O 	0.8932	0.6739	0.7319	-0.383
Mof_O 	O 	0.8298	0.4565	0.7617	-0.351
Mof_O 	O 	0.6642	0.8851	0.6306	-0.495
Mof_O 	O 	0.6365	0.9668	0.5271	-0.455
Mof_O 	O 	0.6957	0.8362	0.4124	-0.501
Mof_O 	O 	0.668	0.0957	0.5389	-0.466
Mof_O 	O 	0.7633	0.0001	0.5418	-0.454
Mof_O 	O 	0.521	0.9155	0.5923	-0.449
Mof_O 	O 	0.4862	0.8525	0.3645	-0.469
Mof_O 	O 	0.7146	0.9615	0.4351	-0.45
Mof_O 	O 	0.6973	0.9991	0.6461	-0.487
Mof_O 	O 	0.4255	0.8317	0.5924	-0.432
Mof_O 	O 	0.6471	0.1099	0.6604	-0.449
Mof_O 	O 	0.5842	0.9217	0.4152	-0.508
Mof_O 	O 	0.8078	0.9172	0.6242	-0.372
Mof_O 	O 	0.4639	0.9394	0.2795	-0.464
Mof_O 	O 	0.7315	0.8832	0.5231	-0.473
Mof_O 	O 	0.5575	0.0403	0.6097	-0.455
Mof_O 	O 	0.5958	0.8442	0.5063	-0.495
Mof_O 	O 	0.6204	0.0543	0.4338	-0.497
Mof_O 	O 	0.595	0.8911	0.2924	-0.366
Mof_O 	O 	0.4828	0.8752	0.6958	-0.449
Mof_O 	O 	0.4974	0.7486	0.5215	-0.364
Mof_O 	O 	0.5572	0.8043	0.6185	-0.462
Mof_O 	O 	0.3406	0.893	0.6758	-0.334
Mof_O 	O 	0.4631	0.8665	0.4826	-0.503
Mof_O 	O 	0.6251	0.2121	0.585	-0.35
Mof_O 	O 	0.5919	0.9519	0.7022	-0.496
Mof_O 	O 	0.5647	0.0097	0.3348	-0.476
Mof_O 	O 	0.7643	0.0837	0.4451	-0.328
Mof_O 	O 	0.6068	0.8261	0.7319	-0.382
Mof_O 	O 	0.6702	0.0435	0.7617	-0.351
_end
