data_functionalizedCrystal
_audit_creation_method	'EQeq! by Chris Wilmer'
_symmetry_space_group_name_H-M	'P1'
_symmetry_Int_Tables_number	1
_symmetry_cell_setting	triclinic
loop_
_symmetry_equiv_pos_as_xyz
  x,y,z
_cell_length_a	20.5266
_cell_length_b	9.1925
_cell_length_c	6.8763
_cell_angle_alpha	90
_cell_angle_beta	113.084
_cell_angle_gamma	90
loop_
_atom_site_label
_atom_site_type_symbol
_atom_site_fract_x
_atom_site_fract_y
_atom_site_fract_z
_atom_site_charge
Mof_Fe	Fe	0.9959	0.0053	0.9612	0.998
Mof_O 	O 	0.0617	0.1267	0.6357	-0.351
Mof_O 	O 	0.079	0.0973	0.9698	-0.366
Mof_O 	O 	0.4106	0.3651	0.9394	-0.365
Mof_O 	O 	0.4278	0.3356	0.2735	-0.356
Mof_C 	C 	0.1763	0.1844	0.895	-0.146
Mof_C 	C 	0.2025	0.2154	0.7446	0.046
Mof_C 	C 	0.271	0.2622	0.8042	-0.074
Mof_C 	C 	0.3132	0.278	0.0142	-0.026
Mof_C 	C 	0.287	0.247	0.1646	-0.056
Mof_C 	C 	0.2185	0.2002	0.105	0.067
Mof_C 	C 	0.1021	0.1337	0.8304	0.422
Mof_C 	C 	0.3874	0.3287	0.0788	0.372
Mof_H 	H 	0.1723	0.2041	0.5944	0.048
Mof_H 	H 	0.2897	0.2843	0.6966	0.07
Mof_H 	H 	0.3173	0.2583	0.3149	0.068
Mof_H 	H 	0.1998	0.178	0.2126	0.037
Mof_O 	O 	0.9968	0.9031	0.703	-0.403
Mof_Fe	Fe	0.4959	0.5053	0.9612	1.087
Mof_O 	O 	0.5617	0.6267	0.6357	-0.415
Mof_O 	O 	0.579	0.5973	0.9698	-0.42
Mof_O 	O 	0.9106	0.8651	0.9394	-0.36
Mof_O 	O 	0.9278	0.8356	0.2735	-0.358
Mof_C 	C 	0.6763	0.6844	0.895	-0.163
Mof_C 	C 	0.7025	0.7154	0.7446	0.054
Mof_C 	C 	0.771	0.7622	0.8042	-0.08
Mof_C 	C 	0.8132	0.778	0.0142	-0.023
Mof_C 	C 	0.787	0.747	0.1646	-0.065
Mof_C 	C 	0.7185	0.7002	0.105	0.073
Mof_C 	C 	0.6021	0.6337	0.8304	0.444
Mof_C 	C 	0.8874	0.8287	0.0788	0.359
Mof_H 	H 	0.6723	0.7041	0.5944	0.039
Mof_H 	H 	0.7897	0.7843	0.6966	0.07
Mof_H 	H 	0.8173	0.7583	0.3149	0.069
Mof_H 	H 	0.6998	0.678	0.2126	0.031
Mof_O 	O 	0.4968	0.4031	0.703	-0.389
Mof_Fe	Fe	0.9959	0.9947	0.4612	1.018
Mof_O 	O 	0.0617	0.8733	0.1357	-0.335
Mof_O 	O 	0.079	0.9027	0.4698	-0.353
Mof_O 	O 	0.4106	0.6349	0.4394	-0.347
Mof_O 	O 	0.4278	0.6644	0.7735	-0.359
Mof_C 	C 	0.1763	0.8156	0.395	-0.081
Mof_C 	C 	0.2025	0.7846	0.2446	-0.005
Mof_C 	C 	0.271	0.7378	0.3042	-0.005
Mof_C 	C 	0.3132	0.722	0.5142	-0.083
Mof_C 	C 	0.287	0.753	0.6646	-0.008
Mof_C 	C 	0.2185	0.7998	0.605	-0.005
Mof_C 	C 	0.1021	0.8663	0.3304	0.401
Mof_C 	C 	0.3874	0.6713	0.5788	0.363
Mof_H 	H 	0.1723	0.7959	0.0944	0.068
Mof_H 	H 	0.2897	0.7157	0.1966	0.055
Mof_H 	H 	0.3173	0.7417	0.8149	0.048
Mof_H 	H 	0.1998	0.822	0.7126	0.051
Mof_O 	O 	0.9968	0.0969	0.203	-0.387
Mof_Fe	Fe	0.4959	0.4947	0.4612	1.115
Mof_O 	O 	0.5617	0.3733	0.1357	-0.393
Mof_O 	O 	0.579	0.4027	0.4698	-0.407
Mof_O 	O 	0.9106	0.1349	0.4394	-0.344
Mof_O 	O 	0.9278	0.1644	0.7735	-0.361
Mof_C 	C 	0.6763	0.3156	0.395	-0.101
Mof_C 	C 	0.7025	0.2846	0.2446	0.007
Mof_C 	C 	0.771	0.2378	0.3042	-0.017
Mof_C 	C 	0.8132	0.222	0.5142	-0.075
Mof_C 	C 	0.787	0.253	0.6646	-0.019
Mof_C 	C 	0.7185	0.2998	0.605	0.006
Mof_C 	C 	0.6021	0.3663	0.3304	0.424
Mof_C 	C 	0.8874	0.1713	0.5788	0.354
Mof_H 	H 	0.6723	0.2959	0.0944	0.06
Mof_H 	H 	0.7897	0.2157	0.1966	0.058
Mof_H 	H 	0.8173	0.2417	0.8149	0.049
Mof_H 	H 	0.6998	0.322	0.7126	0.044
Mof_O 	O 	0.4968	0.5969	0.203	-0.374
_end
