# CIF file generated by openbabel 3.1.0, see https://openbabel.org
data_I
_chemical_name_common 'OJIWAG_clean'
_cell_length_a 15.282
_cell_length_b 15.436
_cell_length_c 24.6098
_cell_angle_alpha 106.579
_cell_angle_beta 108.089
_cell_angle_gamma 90
_space_group_name_H-M_alt 'P 1'
_space_group_name_Hall 'P 1'
loop_
    _symmetry_equiv_pos_as_xyz
    x,y,z
loop_
    _atom_site_label
    _atom_site_type_symbol
    _atom_site_fract_x
    _atom_site_fract_y
    _atom_site_fract_z
    _atom_site_occupancy
    Zn1      Zn       0.64674    0.92791    0.80120    1.000
    Zn2      Zn       0.07857    0.36719    0.66864    1.000
    Zn3      Zn       0.15446    0.42791    0.80120    1.000
    Zn4      Zn       0.59007    0.86719    0.66864    1.000
    H1       H        0.33250    0.65060    0.81400    1.000
    H2       H        0.43770    0.75860    0.81280    1.000
    H3       H        0.35370    0.66800    0.63140    1.000
    H4       H        0.24980    0.55890    0.63200    1.000
    H5       H        0.75060    0.64930    0.65640    1.000
    H6       H        0.85350    0.53890    0.65200    1.000
    H7       H        0.93680    0.60160    0.83380    1.000
    H8       H        0.83090    0.71020    0.83680    1.000
    H9       H        0.76170    0.89230    0.91500    1.000
    H10      H        0.79630    0.95040    0.01760    1.000
    H11      H        0.64480    0.15900    0.99080    1.000
    H12      H        0.61140    0.09120    0.88760    1.000
    H13      H        0.64170    0.99530    0.18160    1.000
    H14      H        0.68740    0.04610    0.28680    1.000
    H15      H        0.95850    0.37010    0.28900    1.000
    H16      H        0.90740    0.32260    0.18340    1.000
    H17      H        0.96620    0.44790    0.57700    1.000
    H18      H        0.88770    0.40930    0.47520    1.000
    H19      H        0.95870    0.15350    0.46080    1.000
    H20      H        0.03710    0.19970    0.56320    1.000
    H21      H        0.48150    0.15060    0.81400    1.000
    H22      H        0.37510    0.25860    0.81280    1.000
    H23      H        0.27770    0.16800    0.63140    1.000
    H24      H        0.38220    0.05890    0.63200    1.000
    H25      H        0.90580    0.14930    0.65640    1.000
    H26      H        0.79850    0.03890    0.65200    1.000
    H27      H        0.89700    0.10160    0.83380    1.000
    H28      H        0.00590    0.21020    0.83680    1.000
    H29      H        0.15330    0.39230    0.91500    1.000
    H30      H        0.22130    0.45040    0.01760    1.000
    H31      H        0.34600    0.65900    0.99080    1.000
    H32      H        0.27620    0.59120    0.88760    1.000
    H33      H        0.53990    0.49530    0.18160    1.000
    H34      H        0.59940    0.54610    0.28680    1.000
    H35      H        0.33050    0.87010    0.28900    1.000
    H36      H        0.27600    0.82260    0.18340    1.000
    H37      H        0.61080    0.94790    0.57700    1.000
    H38      H        0.58750    0.90930    0.47520    1.000
    H39      H        0.50210    0.65350    0.46080    1.000
    H40      H        0.52610    0.69970    0.56320    1.000
    C1       C        0.21463    0.52370    0.72446    1.000
    C2       C        0.28060    0.59390    0.72300    1.000
    C3       C        0.33696    0.65380    0.77692    1.000
    C4       C        0.39958    0.71780    0.77616    1.000
    C5       C        0.40738    0.72320    0.72216    1.000
    C6       C        0.34996    0.66390    0.66852    1.000
    C7       C        0.28791    0.59960    0.66882    1.000
    C8       C        0.47868    0.79020    0.72296    1.000
    C9       C        0.72050    0.76650    0.74780    1.000
    C10      C        0.78228    0.69150    0.74656    1.000
    C11      C        0.78897    0.63980    0.69234    1.000
    C12      C        0.85019    0.57460    0.68958    1.000
    C13      C        0.90827    0.56110    0.74314    1.000
    C14      C        0.89953    0.61160    0.79766    1.000
    C15      C        0.83679    0.67630    0.79958    1.000
    C16      C        0.98253    0.49680    0.74106    1.000
    C17      C        0.73626    0.94620    0.93052    1.000
    C18      C        0.75796    0.98050    0.99172    1.000
    C19      C        0.72266    0.05990    0.01452    1.000
    C20      C        0.66829    0.10330    0.97598    1.000
    C21      C        0.64917    0.06230    0.91454    1.000
    C22      C        0.70060    0.05060    0.10640    1.000
    C23      C        0.72468    0.08760    0.17236    1.000
    C24      C        0.68710    0.04560    0.20320    1.000
    C25      C        0.71439    0.07560    0.26598    1.000
    C26      C        0.78059    0.14850    0.29738    1.000
    C27      C        0.81216    0.17750    0.36332    1.000
    C28      C        0.91962    0.30070    0.36424    1.000
    C29      C        0.88452    0.27110    0.29784    1.000
    C30      C        0.91586    0.31760    0.26752    1.000
    C31      C        0.88573    0.28870    0.20406    1.000
    C32      C        0.82584    0.21250    0.17248    1.000
    C33      C        0.80111    0.17870    0.10642    1.000
    C34      C        0.78914    0.16400    0.20348    1.000
    C35      C        0.81776    0.19510    0.26672    1.000
    C36      C        0.96517    0.38740    0.55294    1.000
    C37      C        0.91891    0.36540    0.49242    1.000
    C38      C        0.91896    0.27740    0.45692    1.000
    C39      C        0.96077    0.21490    0.48374    1.000
    C40      C        0.00631    0.24280    0.54502    1.000
    C41      C        0.50983    0.02370    0.72446    1.000
    C42      C        0.44240    0.09390    0.72300    1.000
    C43      C        0.43996    0.15380    0.77692    1.000
    C44      C        0.37658    0.21780    0.77616    1.000
    C45      C        0.31478    0.22320    0.72216    1.000
    C46      C        0.31856    0.16390    0.66852    1.000
    C47      C        0.38091    0.09960    0.66882    1.000
    C48      C        0.24428    0.29020    0.72296    1.000
    C49      C        0.02730    0.26650    0.74780    1.000
    C50      C        0.96428    0.19150    0.74656    1.000
    C51      C        0.90337    0.13980    0.69234    1.000
    C52      C        0.83939    0.07460    0.68958    1.000
    C53      C        0.83487    0.06110    0.74314    1.000
    C54      C        0.89813    0.11160    0.79766    1.000
    C55      C        0.96279    0.17630    0.79958    1.000
    C56      C        0.75853    0.99680    0.74106    1.000
    C57      C        0.19426    0.44620    0.93052    1.000
    C58      C        0.23376    0.48050    0.99172    1.000
    C59      C        0.29186    0.55990    0.01452    1.000
    C60      C        0.30769    0.60330    0.97598    1.000
    C61      C        0.26537    0.56230    0.91454    1.000
    C62      C        0.40580    0.55060    0.10640    1.000
    C63      C        0.44768    0.58760    0.17236    1.000
    C64      C        0.51610    0.54560    0.20320    1.000
    C65      C        0.55159    0.57560    0.26598    1.000
    C66      C        0.51679    0.64850    0.29738    1.000
    C67      C        0.55116    0.67750    0.36332    1.000
    C68      C        0.44462    0.80070    0.36424    1.000
    C69      C        0.41332    0.77110    0.29784    1.000
    C70      C        0.35166    0.81760    0.26752    1.000
    C71      C        0.31833    0.78870    0.20406    1.000
    C72      C        0.34664    0.71250    0.17248    1.000
    C73      C        0.30531    0.67870    0.10642    1.000
    C74      C        0.41434    0.66400    0.20348    1.000
    C75      C        0.44896    0.69510    0.26672    1.000
    C76      C        0.58777    0.88740    0.55294    1.000
    C77      C        0.57351    0.86540    0.49242    1.000
    C78      C        0.53796    0.77740    0.45692    1.000
    C79      C        0.52297    0.71490    0.48374    1.000
    C80      C        0.53871    0.74280    0.54502    1.000
    N1       N        0.68145    0.98430    0.89170    1.000
    N2       N        0.00887    0.32790    0.57974    1.000
    N3       N        0.74199    0.09790    0.07818    1.000
    N4       N        0.87903    0.25270    0.39286    1.000
    N5       N        0.21025    0.48430    0.89170    1.000
    N6       N        0.57087    0.82790    0.57974    1.000
    N7       N        0.33619    0.59790    0.07818    1.000
    N8       N        0.51383    0.75270    0.39286    1.000
    O1       O        0.21384    0.52070    0.77528    1.000
    O2       O        0.16343    0.47260    0.67466    1.000
    O3       O        0.52969    0.84010    0.77298    1.000
    O4       O        0.48540    0.79020    0.67300    1.000
    O5       O        0.72089    0.81710    0.79898    1.000
    O6       O        0.67495    0.77730    0.69850    1.000
    O7       O        0.03680    0.49370    0.79040    1.000
    O8       O        0.98555    0.45460    0.68990    1.000
    O9       O        0.64726    0.98300    0.07652    1.000
    O10      O        0.83158    0.21490    0.07816    1.000
    O11      O        0.78401    0.13870    0.39242    1.000
    O12      O        0.97931    0.36250    0.39282    1.000
    O13      O        0.56144    0.02070    0.77528    1.000
    O14      O        0.51123    0.97260    0.67466    1.000
    O15      O        0.24329    0.34010    0.77298    1.000
    O16      O        0.18760    0.29020    0.67300    1.000
    O17      O        0.07809    0.31710    0.79898    1.000
    O18      O        0.02355    0.27730    0.69850    1.000
    O19      O        0.75360    0.99370    0.79040    1.000
    O20      O        0.70435    0.95460    0.68990    1.000
    O21      O        0.42926    0.48300    0.07652    1.000
    O22      O        0.24658    0.71490    0.07816    1.000
    O23      O        0.60841    0.63870    0.39242    1.000
    O24      O        0.41351    0.86250    0.39282    1.000
    Zn5      Zn       0.84554    0.57209    0.19880    1.000
    Zn6      Zn       0.40993    0.13281    0.33136    1.000
    Zn7      Zn       0.35326    0.07209    0.19880    1.000
    Zn8      Zn       0.92143    0.63281    0.33136    1.000
    H41      H        0.51850    0.84940    0.18600    1.000
    H42      H        0.62490    0.74140    0.18720    1.000
    H43      H        0.72230    0.83200    0.36860    1.000
    H44      H        0.61780    0.94110    0.36800    1.000
    H45      H        0.09420    0.85070    0.34360    1.000
    H46      H        0.20150    0.96110    0.34800    1.000
    H47      H        0.10300    0.89840    0.16620    1.000
    H48      H        0.99410    0.78980    0.16320    1.000
    H49      H        0.84670    0.60770    0.08500    1.000
    H50      H        0.77870    0.54960    0.98240    1.000
    H51      H        0.65400    0.34100    0.00920    1.000
    H52      H        0.72380    0.40880    0.11240    1.000
    H53      H        0.46010    0.50470    0.81840    1.000
    H54      H        0.40060    0.45390    0.71320    1.000
    H55      H        0.66950    0.12990    0.71100    1.000
    H56      H        0.72400    0.17740    0.81660    1.000
    H57      H        0.38920    0.05210    0.42300    1.000
    H58      H        0.41250    0.09070    0.52480    1.000
    H59      H        0.49790    0.34650    0.53920    1.000
    H60      H        0.47390    0.30030    0.43680    1.000
    H61      H        0.66750    0.34940    0.18600    1.000
    H62      H        0.56230    0.24140    0.18720    1.000
    H63      H        0.64630    0.33200    0.36860    1.000
    H64      H        0.75020    0.44110    0.36800    1.000
    H65      H        0.24940    0.35070    0.34360    1.000
    H66      H        0.14650    0.46110    0.34800    1.000
    H67      H        0.06320    0.39840    0.16620    1.000
    H68      H        0.16910    0.28980    0.16320    1.000
    H69      H        0.23830    0.10770    0.08500    1.000
    H70      H        0.20370    0.04960    0.98240    1.000
    H71      H        0.35520    0.84100    0.00920    1.000
    H72      H        0.38860    0.90880    0.11240    1.000
    H73      H        0.35830    0.00470    0.81840    1.000
    H74      H        0.31260    0.95390    0.71320    1.000
    H75      H        0.04150    0.62990    0.71100    1.000
    H76      H        0.09260    0.67740    0.81660    1.000
    H77      H        0.03380    0.55210    0.42300    1.000
    H78      H        0.11230    0.59070    0.52480    1.000
    H79      H        0.04130    0.84650    0.53920    1.000
    H80      H        0.96290    0.80030    0.43680    1.000
    C81      C        0.49017    0.97630    0.27554    1.000
    C82      C        0.55760    0.90610    0.27700    1.000
    C83      C        0.56004    0.84620    0.22308    1.000
    C84      C        0.62342    0.78220    0.22384    1.000
    C85      C        0.68522    0.77680    0.27784    1.000
    C86      C        0.68144    0.83610    0.33148    1.000
    C87      C        0.61909    0.90040    0.33118    1.000
    C88      C        0.75572    0.70980    0.27704    1.000
    C89      C        0.97270    0.73350    0.25220    1.000
    C90      C        0.03572    0.80850    0.25344    1.000
    C91      C        0.09663    0.86020    0.30766    1.000
    C92      C        0.16061    0.92540    0.31042    1.000
    C93      C        0.16513    0.93890    0.25686    1.000
    C94      C        0.10187    0.88840    0.20234    1.000
    C95      C        0.03721    0.82370    0.20042    1.000
    C96      C        0.24147    0.00320    0.25894    1.000
    C97      C        0.80574    0.55380    0.06948    1.000
    C98      C        0.76624    0.51950    0.00828    1.000
    C99      C        0.70814    0.44010    0.98548    1.000
    C100     C        0.69231    0.39670    0.02402    1.000
    C101     C        0.73463    0.43770    0.08546    1.000
    C102     C        0.59420    0.44940    0.89360    1.000
    C103     C        0.55232    0.41240    0.82764    1.000
    C104     C        0.48390    0.45440    0.79680    1.000
    C105     C        0.44841    0.42440    0.73402    1.000
    C106     C        0.48321    0.35150    0.70262    1.000
    C107     C        0.44884    0.32250    0.63668    1.000
    C108     C        0.55538    0.19930    0.63576    1.000
    C109     C        0.58668    0.22890    0.70216    1.000
    C110     C        0.64834    0.18240    0.73248    1.000
    C111     C        0.68167    0.21130    0.79594    1.000
    C112     C        0.65336    0.28750    0.82752    1.000
    C113     C        0.69469    0.32130    0.89358    1.000
    C114     C        0.58566    0.33600    0.79652    1.000
    C115     C        0.55104    0.30490    0.73328    1.000
    C116     C        0.41223    0.11260    0.44706    1.000
    C117     C        0.42649    0.13460    0.50758    1.000
    C118     C        0.46204    0.22260    0.54308    1.000
    C119     C        0.47703    0.28510    0.51626    1.000
    C120     C        0.46129    0.25720    0.45498    1.000
    C121     C        0.78537    0.47630    0.27554    1.000
    C122     C        0.71940    0.40610    0.27700    1.000
    C123     C        0.66304    0.34620    0.22308    1.000
    C124     C        0.60042    0.28220    0.22384    1.000
    C125     C        0.59262    0.27680    0.27784    1.000
    C126     C        0.65004    0.33610    0.33148    1.000
    C127     C        0.71209    0.40040    0.33118    1.000
    C128     C        0.52132    0.20980    0.27704    1.000
    C129     C        0.27950    0.23350    0.25220    1.000
    C130     C        0.21772    0.30850    0.25344    1.000
    C131     C        0.21103    0.36020    0.30766    1.000
    C132     C        0.14981    0.42540    0.31042    1.000
    C133     C        0.09173    0.43890    0.25686    1.000
    C134     C        0.10047    0.38840    0.20234    1.000
    C135     C        0.16321    0.32370    0.20042    1.000
    C136     C        0.01747    0.50320    0.25894    1.000
    C137     C        0.26374    0.05380    0.06948    1.000
    C138     C        0.24204    0.01950    0.00828    1.000
    C139     C        0.27734    0.94010    0.98548    1.000
    C140     C        0.33171    0.89670    0.02402    1.000
    C141     C        0.35083    0.93770    0.08546    1.000
    C142     C        0.29940    0.94940    0.89360    1.000
    C143     C        0.27532    0.91240    0.82764    1.000
    C144     C        0.31290    0.95440    0.79680    1.000
    C145     C        0.28561    0.92440    0.73402    1.000
    C146     C        0.21941    0.85150    0.70262    1.000
    C147     C        0.18784    0.82250    0.63668    1.000
    C148     C        0.08038    0.69930    0.63576    1.000
    C149     C        0.11548    0.72890    0.70216    1.000
    C150     C        0.08414    0.68240    0.73248    1.000
    C151     C        0.11427    0.71130    0.79594    1.000
    C152     C        0.17416    0.78750    0.82752    1.000
    C153     C        0.19889    0.82130    0.89358    1.000
    C154     C        0.21086    0.83600    0.79652    1.000
    C155     C        0.18224    0.80490    0.73328    1.000
    C156     C        0.03483    0.61260    0.44706    1.000
    C157     C        0.08109    0.63460    0.50758    1.000
    C158     C        0.08104    0.72260    0.54308    1.000
    C159     C        0.03923    0.78510    0.51626    1.000
    C160     C        0.99369    0.75720    0.45498    1.000
    N9       N        0.78975    0.51570    0.10830    1.000
    N10      N        0.42913    0.17210    0.42026    1.000
    N11      N        0.66381    0.40210    0.92182    1.000
    N12      N        0.48617    0.24730    0.60714    1.000
    N13      N        0.31855    0.01570    0.10830    1.000
    N14      N        0.99113    0.67210    0.42026    1.000
    N15      N        0.25801    0.90210    0.92182    1.000
    N16      N        0.12097    0.74730    0.60714    1.000
    O25      O        0.43856    0.97930    0.22472    1.000
    O26      O        0.48877    0.02740    0.32534    1.000
    O27      O        0.75671    0.65990    0.22702    1.000
    O28      O        0.81240    0.70980    0.32700    1.000
    O29      O        0.92191    0.68290    0.20102    1.000
    O30      O        0.97645    0.72270    0.30150    1.000
    O31      O        0.24640    0.00630    0.20960    1.000
    O32      O        0.29565    0.04540    0.31010    1.000
    O33      O        0.57074    0.51700    0.92348    1.000
    O34      O        0.75342    0.28510    0.92184    1.000
    O35      O        0.39159    0.36130    0.60758    1.000
    O36      O        0.58649    0.13750    0.60718    1.000
    O37      O        0.78616    0.47930    0.22472    1.000
    O38      O        0.83657    0.52740    0.32534    1.000
    O39      O        0.47031    0.15990    0.22702    1.000
    O40      O        0.51460    0.20980    0.32700    1.000
    O41      O        0.27911    0.18290    0.20102    1.000
    O42      O        0.32505    0.22270    0.30150    1.000
    O43      O        0.96320    0.50630    0.20960    1.000
    O44      O        0.01445    0.54540    0.31010    1.000
    O45      O        0.35274    0.01700    0.92348    1.000
    O46      O        0.16842    0.78510    0.92184    1.000
    O47      O        0.21599    0.86130    0.60758    1.000
    O48      O        0.02069    0.63750    0.60718    1.000
