data_functionalizedCrystal
_audit_creation_method	'EQeq! by Chris Wilmer'
_symmetry_space_group_name_H-M	'P1'
_symmetry_Int_Tables_number	1
_symmetry_cell_setting	triclinic
loop_
_symmetry_equiv_pos_as_xyz
  x,y,z
_cell_length_a	8.6697
_cell_length_b	10.155
_cell_length_c	13.455
_cell_angle_alpha	85.39
_cell_angle_beta	89
_cell_angle_gamma	77.26
loop_
_atom_site_label
_atom_site_type_symbol
_atom_site_fract_x
_atom_site_fract_y
_atom_site_fract_z
_atom_site_charge
Mof_Yb	Yb	0.08102	0.1933	0.50264	1.714
Mof_Yb	Yb	0.46699	0.23244	0.92284	1.427
Mof_O 	O 	0.0632	0.1382	0.3358	-0.388
Mof_O 	O 	0.1699	0.0933	0.1874	-0.277
Mof_O 	O 	0.4615	0.1859	0.0901	-0.485
Mof_O 	O 	0.5381	0.9664	0.1345	-0.534
Mof_O 	O 	0.8412	0.0373	0.4925	-0.526
Mof_O 	O 	0.8074	0.2576	0.4602	-0.415
Mof_O 	O 	0.5607	0.1907	0.6139	-0.274
Mof_O 	O 	0.2982	0.2071	0.5988	-0.433
Mof_O 	O 	0.9934	0.3794	0.5968	-0.405
Mof_O 	O 	0.9403	0.6044	0.5958	-0.385
Mof_O 	O 	0.3336	0.4494	0.9576	-0.388
Mof_O 	O 	0.3546	0.6399	0.0248	-0.381
Mof_N 	N 	0.3281	0.1622	0.4103	-0.203
Mof_C 	C 	0.177	0.1227	0.2735	0.315
Mof_C 	C 	0.3331	0.1363	0.3144	0.044
Mof_C 	C 	0.474	0.1173	0.2604	-0.155
Mof_C 	C 	0.6138	0.1236	0.3093	0.086
Mof_H 	H 	0.7098	0.1103	0.2755	0.002
Mof_C 	C 	0.6058	0.1501	0.4093	-0.139
Mof_C 	C 	0.4604	0.1692	0.4571	0.027
Mof_C 	C 	0.4384	0.1916	0.5667	0.315
Mof_C 	C 	0.489	0.0881	0.1528	0.494
Mof_C 	C 	0.7596	0.1492	0.4597	0.432
Mof_C 	C 	0.9821	0.4937	0.5563	0.278
Mof_C 	C 	0.4107	0.5255	0.9955	0.255
Mof_Yb	Yb	0.91898	0.8067	0.49736	1.713
Mof_Yb	Yb	0.53301	0.76756	0.07716	1.426
Mof_O 	O 	0.9368	0.8618	0.6642	-0.388
Mof_O 	O 	0.8301	0.9067	0.8126	-0.277
Mof_O 	O 	0.5385	0.8141	0.9099	-0.485
Mof_O 	O 	0.4619	0.0336	0.8655	-0.534
Mof_O 	O 	0.1588	0.9627	0.5075	-0.526
Mof_O 	O 	0.1926	0.7424	0.5398	-0.415
Mof_O 	O 	0.4393	0.8093	0.3861	-0.274
Mof_O 	O 	0.7018	0.7929	0.4012	-0.433
Mof_O 	O 	0.0066	0.6206	0.4032	-0.405
Mof_O 	O 	0.0597	0.3956	0.4042	-0.385
Mof_O 	O 	0.6664	0.5506	0.0424	-0.388
Mof_O 	O 	0.6454	0.3601	0.9752	-0.381
Mof_N 	N 	0.6719	0.8378	0.5897	-0.203
Mof_C 	C 	0.823	0.8773	0.7265	0.315
Mof_C 	C 	0.6669	0.8637	0.6856	0.044
Mof_C 	C 	0.526	0.8827	0.7396	-0.155
Mof_C 	C 	0.3862	0.8764	0.6907	0.086
Mof_H 	H 	0.2902	0.8897	0.7245	0.002
Mof_C 	C 	0.3942	0.8499	0.5907	-0.139
Mof_C 	C 	0.5396	0.8308	0.5429	0.027
Mof_C 	C 	0.5616	0.8084	0.4333	0.315
Mof_C 	C 	0.511	0.9119	0.8472	0.494
Mof_C 	C 	0.2404	0.8508	0.5403	0.432
Mof_C 	C 	0.0179	0.5063	0.4437	0.278
Mof_C 	C 	0.5893	0.4745	0.0045	0.255
_end
