data_functionalizedCrystal
_audit_creation_method	'EQeq! by Chris Wilmer'
_symmetry_space_group_name_H-M	'P1'
_symmetry_Int_Tables_number	1
_symmetry_cell_setting	triclinic
loop_
_symmetry_equiv_pos_as_xyz
  x,y,z
_cell_length_a	37.526
_cell_length_b	8.8468
_cell_length_c	29.72
_cell_angle_alpha	90
_cell_angle_beta	127.61
_cell_angle_gamma	90
loop_
_atom_site_label
_atom_site_type_symbol
_atom_site_fract_x
_atom_site_fract_y
_atom_site_fract_z
_atom_site_charge
Mof_N 	N 	0.25887	0.7609	0.93804	-0.226
Mof_H 	H 	0.2796	0.6797	0.9454	0.107
Mof_N 	N 	0.2035	0.5772	0.96054	-0.222
Mof_H 	H 	0.2198	0.482	0.9688	0.088
Mof_N 	N 	0.19239	0.6044	0.87055	-0.06
Mof_C 	C 	0.2171	0.7413	0.87946	-0.054
Mof_H 	H 	0.1976	0.8274	0.8699	0.056
Mof_H 	H 	0.2247	0.7412	0.8536	0.052
Mof_C 	C 	0.17129	0.595	0.89803	-0.061
Mof_H 	H 	0.1507	0.5099	0.8823	0.062
Mof_H 	H 	0.1537	0.6859	0.8894	0.056
Mof_C 	C 	0.28185	0.9067	0.947	-0.048
Mof_H 	H 	0.2604	0.9892	0.9322	0.053
Mof_H 	H 	0.2951	0.9062	0.9274	0.05
Mof_C 	C 	0.18154	0.5732	0.9892	-0.056
Mof_H 	H 	0.1663	0.4774	0.9817	0.056
Mof_H 	H 	0.1595	0.6537	0.9747	0.055
Mof_C 	C 	0.21569	0.4648	0.875	-0.387
Mof_H 	H 	0.2408	0.4474	0.914	0.152
Mof_H 	H 	0.2263	0.4749	0.8528	0.148
Mof_H 	H 	0.1952	0.3811	0.861	0.148
Mof_N 	N 	0.56865	0.9683	0.04884	-0.208
Mof_H 	H 	0.5829	0.0568	0.0736	0.087
Mof_N 	N 	0.49785	0.1423	0.94341	-0.213
Mof_H 	H 	0.5074	0.2429	0.9608	0.092
Mof_N 	N 	0.57524	0.0808	0.97848	-0.001
Mof_C 	C 	0.44976	0.1523	0.89348	-0.099
Mof_H 	H 	0.4412	0.0633	0.8698	0.055
Mof_H 	H 	0.4449	0.2405	0.871	0.064
Mof_C 	C 	0.52873	0.0947	0.9298	-0.107
Mof_H 	H 	0.5185	0.9982	0.9103	0.075
Mof_H 	H 	0.5265	0.1679	0.9039	0.074
Mof_C 	C 	0.57849	0.8365	0.08578	-0.089
Mof_H 	H 	0.6102	0.8353	0.118	0.059
Mof_H 	H 	0.5715	0.7435	0.0646	0.048
Mof_C 	C 	0.58657	0.9551	0.0158	-0.156
Mof_H 	H 	0.6191	0.9461	0.0422	0.077
Mof_H 	H 	0.5749	0.8632	0.9934	0.105
Mof_C 	C 	0.5967	0.2241	0.0067	-0.615
Mof_H 	H 	0.5824	0.2661	0.0218	0.21
Mof_H 	H 	0.5938	0.2933	0.9797	0.243
Mof_H 	H 	0.628	0.2072	0.037	0.21
Mof_O 	O 	0.49527	0.6881	0.19101	-0.249
Mof_C 	C 	0.52778	0.7784	0.23971	0.03
Mof_H 	H 	0.5451	0.8394	0.2322	0.036
Mof_H 	H 	0.5482	0.7148	0.2725	0.041
Mof_O 	O 	0.50766	0.1943	0.04795	-0.419
Mof_O 	O 	0.58124	0.2372	0.11302	-0.299
Mof_O 	O 	0.30148	0.5836	0.04808	-0.402
Mof_C 	C 	0.52963	0.3729	0.11982	-0.188
Mof_C 	C 	0.46914	0.9781	0.19741	0.092
Mof_H 	H 	0.4868	0.0346	0.1894	0.011
Mof_H 	H 	0.448	0.9152	0.1648	0.02
Mof_C 	C 	0.41771	0.1839	0.16621	0.268
Mof_C 	C 	0.38174	0.2989	0.07464	0.123
Mof_H 	H 	0.3778	0.3054	0.0406	-0.015
Mof_C 	C 	0.35793	0.3968	0.0841	-0.173
Mof_C 	C 	0.56357	0.442	0.17067	0.137
Mof_H 	H 	0.5934	0.4168	0.1877	-0.01
Mof_C 	C 	0.50953	0.5833	0.17138	0.273
Mof_C 	C 	0.55414	0.5482	0.19684	-0.267
Mof_H 	H 	0.5773	0.5945	0.2306	0.125
Mof_C 	C 	0.41126	0.1918	0.11455	-0.258
Mof_H 	H 	0.4265	0.1264	0.1071	0.119
Mof_C 	C 	0.54024	0.2604	0.0912	0.357
Mof_O 	O 	0.3264	0.531	0.9981	-0.258
Mof_C 	C 	0.39452	0.2814	0.17649	-0.261
Mof_H 	H 	0.399	0.2767	0.2109	0.131
Mof_C 	C 	0.36479	0.3853	0.13595	0.13
Mof_H 	H 	0.349	0.4488	0.1431	-0.012
Mof_C 	C 	0.48518	0.4101	0.09538	0.144
Mof_H 	H 	0.462	0.3643	0.0615	-0.016
Mof_C 	C 	0.32596	0.5112	0.03972	0.307
Mof_C 	C 	0.47499	0.5133	0.1204	-0.263
Mof_H 	H 	0.4451	0.5368	0.1036	0.132
Mof_O 	O 	0.44539	0.0797	0.20785	-0.266
Mof_N 	N 	0.75887	0.2609	0.93804	-0.23
Mof_H 	H 	0.7796	0.1797	0.9454	0.105
Mof_N 	N 	0.7035	0.0772	0.96054	-0.227
Mof_H 	H 	0.7198	0.982	0.9688	0.099
Mof_N 	N 	0.69239	0.1044	0.87055	-0.067
Mof_C 	C 	0.7171	0.2413	0.87946	-0.051
Mof_H 	H 	0.6976	0.3274	0.8699	0.052
Mof_H 	H 	0.7247	0.2412	0.8536	0.048
Mof_C 	C 	0.67129	0.095	0.89803	-0.059
Mof_H 	H 	0.6507	0.0099	0.8823	0.055
Mof_H 	H 	0.6537	0.1859	0.8894	0.053
Mof_C 	C 	0.78185	0.4067	0.947	-0.025
Mof_H 	H 	0.7604	0.4892	0.9322	0.041
Mof_H 	H 	0.7951	0.4062	0.9274	0.04
Mof_C 	C 	0.68154	0.0732	0.9892	-0.088
Mof_H 	H 	0.6663	0.9774	0.9817	0.075
Mof_H 	H 	0.6595	0.1537	0.9747	0.063
Mof_C 	C 	0.71569	0.9648	0.875	-0.372
Mof_H 	H 	0.7408	0.9474	0.914	0.152
Mof_H 	H 	0.7263	0.9749	0.8528	0.149
Mof_H 	H 	0.6952	0.8811	0.861	0.148
Mof_N 	N 	0.06865	0.4683	0.04884	-0.22
Mof_H 	H 	0.0829	0.5568	0.0736	0.1
Mof_N 	N 	0.99785	0.6423	0.94341	-0.201
Mof_H 	H 	0.0074	0.7429	0.9608	0.082
Mof_N 	N 	0.07524	0.5808	0.97848	0.003
Mof_C 	C 	0.94976	0.6523	0.89348	-0.099
Mof_H 	H 	0.9412	0.5633	0.8698	0.062
Mof_H 	H 	0.9449	0.7405	0.871	0.068
Mof_C 	C 	0.02873	0.5947	0.9298	-0.087
Mof_H 	H 	0.0185	0.4982	0.9103	0.055
Mof_H 	H 	0.0265	0.6679	0.9039	0.069
Mof_C 	C 	0.07849	0.3365	0.08578	-0.09
Mof_H 	H 	0.1102	0.3353	0.118	0.055
Mof_H 	H 	0.0715	0.2435	0.0646	0.044
Mof_C 	C 	0.08657	0.4551	0.0158	-0.169
Mof_H 	H 	0.1191	0.4461	0.0422	0.076
Mof_H 	H 	0.0749	0.3632	0.9934	0.105
Mof_C 	C 	0.0967	0.7241	0.0067	-0.607
Mof_H 	H 	0.0824	0.7661	0.0218	0.21
Mof_H 	H 	0.0938	0.7933	0.9797	0.241
Mof_H 	H 	0.128	0.7072	0.037	0.212
Mof_O 	O 	0.99527	0.1881	0.19101	-0.235
Mof_C 	C 	0.02778	0.2784	0.23971	0.009
Mof_H 	H 	0.0451	0.3394	0.2322	0.036
Mof_H 	H 	0.0482	0.2148	0.2725	0.045
Mof_O 	O 	0.00766	0.6943	0.04795	-0.424
Mof_O 	O 	0.08124	0.7372	0.11302	-0.298
Mof_O 	O 	0.80148	0.0836	0.04808	-0.401
Mof_C 	C 	0.02963	0.8729	0.11982	-0.223
Mof_C 	C 	0.96914	0.4781	0.19741	0.037
Mof_H 	H 	0.9868	0.5346	0.1894	0.043
Mof_H 	H 	0.948	0.4152	0.1648	0.032
Mof_C 	C 	0.91771	0.6839	0.16621	0.256
Mof_C 	C 	0.88174	0.7989	0.07464	0.107
Mof_H 	H 	0.8778	0.8054	0.0406	-0.006
Mof_C 	C 	0.85793	0.8968	0.0841	-0.147
Mof_C 	C 	0.06357	0.942	0.17067	0.175
Mof_H 	H 	0.0934	0.9168	0.1877	-0.02
Mof_C 	C 	0.00953	0.0833	0.17138	0.267
Mof_C 	C 	0.05414	0.0482	0.19684	-0.297
Mof_H 	H 	0.0773	0.0945	0.2306	0.131
Mof_C 	C 	0.91126	0.6918	0.11455	-0.24
Mof_H 	H 	0.9265	0.6264	0.1071	0.117
Mof_C 	C 	0.04024	0.7604	0.0912	0.369
Mof_O 	O 	0.8264	0.031	0.9981	-0.258
Mof_C 	C 	0.89452	0.7814	0.17649	-0.243
Mof_H 	H 	0.899	0.7767	0.2109	0.128
Mof_C 	C 	0.86479	0.8853	0.13595	0.114
Mof_H 	H 	0.849	0.9488	0.1431	-0.001
Mof_C 	C 	0.98518	0.9101	0.09538	0.195
Mof_H 	H 	0.962	0.8643	0.0615	-0.029
Mof_C 	C 	0.82596	0.0112	0.03972	0.288
Mof_C 	C 	0.97499	0.0133	0.1204	-0.286
Mof_H 	H 	0.9451	0.0368	0.1036	0.137
Mof_O 	O 	0.94539	0.5797	0.20785	-0.239
Mof_N 	N 	0.74113	0.7609	0.56196	-0.226
Mof_H 	H 	0.7204	0.6797	0.5546	0.1
Mof_N 	N 	0.7965	0.5772	0.53946	-0.222
Mof_H 	H 	0.7802	0.482	0.5312	0.079
Mof_N 	N 	0.80761	0.6044	0.62945	-0.06
Mof_C 	C 	0.7829	0.7413	0.62054	-0.056
Mof_H 	H 	0.8024	0.8274	0.6301	0.056
Mof_H 	H 	0.7753	0.7412	0.6464	0.053
Mof_C 	C 	0.82871	0.595	0.60197	-0.064
Mof_H 	H 	0.8493	0.5099	0.6177	0.063
Mof_H 	H 	0.8463	0.6859	0.6106	0.056
Mof_C 	C 	0.71815	0.9067	0.553	-0.1
Mof_H 	H 	0.7396	0.9892	0.5678	0.061
Mof_H 	H 	0.7049	0.9062	0.5726	0.059
Mof_C 	C 	0.81846	0.5732	0.5108	-0.11
Mof_H 	H 	0.8337	0.4774	0.5183	0.064
Mof_H 	H 	0.8405	0.6537	0.5253	0.063
Mof_C 	C 	0.78431	0.4648	0.625	-0.379
Mof_H 	H 	0.7592	0.4474	0.586	0.145
Mof_H 	H 	0.7737	0.4749	0.6472	0.145
Mof_H 	H 	0.8048	0.3811	0.639	0.145
Mof_N 	N 	0.43135	0.9683	0.45116	-0.217
Mof_H 	H 	0.4171	0.0568	0.4264	0.09
Mof_N 	N 	0.50215	0.1423	0.55659	-0.221
Mof_H 	H 	0.4926	0.2429	0.5392	0.082
Mof_N 	N 	0.42476	0.0808	0.52152	-0.064
Mof_C 	C 	0.55024	0.1523	0.60652	-0.1
Mof_H 	H 	0.5588	0.0633	0.6302	0.055
Mof_H 	H 	0.5551	0.2405	0.629	0.064
Mof_C 	C 	0.47127	0.0947	0.5702	-0.099
Mof_H 	H 	0.4815	0.9982	0.5897	0.071
Mof_H 	H 	0.4735	0.1679	0.5961	0.071
Mof_C 	C 	0.42151	0.8365	0.41422	-0.087
Mof_H 	H 	0.3898	0.8353	0.382	0.059
Mof_H 	H 	0.4285	0.7435	0.4354	0.056
Mof_C 	C 	0.41343	0.9551	0.4842	-0.043
Mof_H 	H 	0.3809	0.9461	0.4578	0.052
Mof_H 	H 	0.4251	0.8632	0.5066	0.05
Mof_C 	C 	0.4033	0.2241	0.4933	-0.396
Mof_H 	H 	0.4176	0.2661	0.4782	0.155
Mof_H 	H 	0.4062	0.2933	0.5203	0.155
Mof_H 	H 	0.372	0.2072	0.463	0.152
Mof_O 	O 	0.50473	0.6881	0.30899	-0.249
Mof_C 	C 	0.47222	0.7784	0.26029	0.03
Mof_H 	H 	0.4549	0.8394	0.2678	0.036
Mof_H 	H 	0.4518	0.7148	0.2275	0.041
Mof_O 	O 	0.49234	0.1943	0.45205	-0.408
Mof_O 	O 	0.41876	0.2372	0.38698	-0.294
Mof_O 	O 	0.69852	0.5836	0.45192	-0.405
Mof_C 	C 	0.47037	0.3729	0.38018	-0.184
Mof_C 	C 	0.53086	0.9781	0.30259	0.092
Mof_H 	H 	0.5132	0.0346	0.3106	0.011
Mof_H 	H 	0.552	0.9152	0.3352	0.02
Mof_C 	C 	0.58229	0.1839	0.33379	0.273
Mof_C 	C 	0.61826	0.2989	0.42536	0.135
Mof_H 	H 	0.6222	0.3054	0.4594	-0.011
Mof_C 	C 	0.64207	0.3968	0.4159	-0.187
Mof_C 	C 	0.43643	0.442	0.32933	0.135
Mof_H 	H 	0.4066	0.4168	0.3123	-0.009
Mof_C 	C 	0.49047	0.5833	0.32862	0.272
Mof_C 	C 	0.44586	0.5482	0.30316	-0.265
Mof_H 	H 	0.4227	0.5945	0.2694	0.124
Mof_C 	C 	0.58874	0.1918	0.38545	-0.264
Mof_H 	H 	0.5735	0.1264	0.3929	0.122
Mof_C 	C 	0.45976	0.2604	0.4088	0.356
Mof_O 	O 	0.6736	0.531	0.5019	-0.303
Mof_C 	C 	0.60548	0.2814	0.32351	-0.268
Mof_H 	H 	0.601	0.2767	0.2891	0.133
Mof_C 	C 	0.63521	0.3853	0.36405	0.141
Mof_H 	H 	0.651	0.4488	0.3569	-0.015
Mof_C 	C 	0.51482	0.4101	0.40462	0.142
Mof_H 	H 	0.538	0.3643	0.4385	-0.012
Mof_C 	C 	0.67404	0.5112	0.46028	0.355
Mof_C 	C 	0.52501	0.5133	0.3796	-0.261
Mof_H 	H 	0.5549	0.5368	0.3964	0.131
Mof_O 	O 	0.55461	0.0797	0.29215	-0.267
Mof_N 	N 	0.24113	0.2609	0.56196	-0.23
Mof_H 	H 	0.2204	0.1797	0.5546	0.099
Mof_N 	N 	0.2965	0.0772	0.53946	-0.226
Mof_H 	H 	0.2802	0.982	0.5312	0.09
Mof_N 	N 	0.30761	0.1044	0.62945	-0.068
Mof_C 	C 	0.2829	0.2413	0.62054	-0.053
Mof_H 	H 	0.3024	0.3274	0.6301	0.052
Mof_H 	H 	0.2753	0.2412	0.6464	0.049
Mof_C 	C 	0.32871	0.095	0.60197	-0.062
Mof_H 	H 	0.3493	0.0099	0.6177	0.056
Mof_H 	H 	0.3463	0.1859	0.6106	0.053
Mof_C 	C 	0.21815	0.4067	0.553	-0.079
Mof_H 	H 	0.2396	0.4892	0.5678	0.05
Mof_H 	H 	0.2049	0.4062	0.5726	0.049
Mof_C 	C 	0.31846	0.0732	0.5108	-0.146
Mof_H 	H 	0.3337	0.9774	0.5183	0.086
Mof_H 	H 	0.3405	0.1537	0.5253	0.072
Mof_C 	C 	0.28431	0.9648	0.625	-0.364
Mof_H 	H 	0.2592	0.9474	0.586	0.146
Mof_H 	H 	0.2737	0.9749	0.6472	0.146
Mof_H 	H 	0.3048	0.8811	0.639	0.144
Mof_N 	N 	0.93135	0.4683	0.45116	-0.227
Mof_H 	H 	0.9171	0.5568	0.4264	0.102
Mof_N 	N 	0.00215	0.6423	0.55659	-0.236
Mof_H 	H 	0.9926	0.7429	0.5392	0.094
Mof_N 	N 	0.92476	0.5808	0.52152	-0.06
Mof_C 	C 	0.05024	0.6523	0.60652	-0.097
Mof_H 	H 	0.0588	0.5633	0.6302	0.058
Mof_H 	H 	0.0551	0.7405	0.629	0.063
Mof_C 	C 	0.97127	0.5947	0.5702	-0.058
Mof_H 	H 	0.9815	0.4982	0.5897	0.053
Mof_H 	H 	0.9735	0.6679	0.5961	0.064
Mof_C 	C 	0.92151	0.3365	0.41422	-0.084
Mof_H 	H 	0.8898	0.3353	0.382	0.054
Mof_H 	H 	0.9285	0.2435	0.4354	0.054
Mof_C 	C 	0.91343	0.4551	0.4842	-0.055
Mof_H 	H 	0.8809	0.4461	0.4578	0.05
Mof_H 	H 	0.9251	0.3632	0.5066	0.052
Mof_C 	C 	0.9033	0.7241	0.4933	-0.4
Mof_H 	H 	0.9176	0.7661	0.4782	0.158
Mof_H 	H 	0.9062	0.7933	0.5203	0.159
Mof_H 	H 	0.872	0.7072	0.463	0.157
Mof_O 	O 	0.00473	0.1881	0.30899	-0.281
Mof_C 	C 	0.97222	0.2784	0.26029	0.06
Mof_H 	H 	0.9549	0.3394	0.2678	0.025
Mof_H 	H 	0.9518	0.2148	0.2275	0.032
Mof_O 	O 	0.99234	0.6943	0.45205	-0.4
Mof_O 	O 	0.91876	0.7372	0.38698	-0.291
Mof_O 	O 	0.19852	0.0836	0.45192	-0.404
Mof_C 	C 	0.97037	0.8729	0.38018	-0.201
Mof_C 	C 	0.03086	0.4781	0.30259	0.028
Mof_H 	H 	0.0132	0.5346	0.3106	0.037
Mof_H 	H 	0.052	0.4152	0.3352	0.034
Mof_C 	C 	0.08229	0.6839	0.33379	0.26
Mof_C 	C 	0.11826	0.7989	0.42536	0.119
Mof_H 	H 	0.1222	0.8054	0.4594	-0.003
Mof_C 	C 	0.14207	0.8968	0.4159	-0.163
Mof_C 	C 	0.93643	0.942	0.32933	0.185
Mof_H 	H 	0.9066	0.9168	0.3123	-0.022
Mof_C 	C 	0.99047	0.0833	0.32862	0.333
Mof_C 	C 	0.94586	0.0482	0.30316	-0.325
Mof_H 	H 	0.9227	0.0945	0.2694	0.142
Mof_C 	C 	0.08874	0.6918	0.38545	-0.247
Mof_H 	H 	0.0735	0.6264	0.3929	0.119
Mof_C 	C 	0.95976	0.7604	0.4088	0.365
Mof_O 	O 	0.1736	0.031	0.5019	-0.304
Mof_C 	C 	0.10548	0.7814	0.32351	-0.252
Mof_H 	H 	0.101	0.7767	0.2891	0.129
Mof_C 	C 	0.13521	0.8853	0.36405	0.126
Mof_H 	H 	0.151	0.9488	0.3569	-0.005
Mof_C 	C 	0.01482	0.9101	0.40462	0.182
Mof_H 	H 	0.038	0.8643	0.4385	-0.026
Mof_C 	C 	0.17404	0.0112	0.46028	0.338
Mof_C 	C 	0.02501	0.0133	0.3796	-0.331
Mof_H 	H 	0.0549	0.0368	0.3964	0.151
Mof_O 	O 	0.05461	0.5797	0.29215	-0.244
Mof_N 	N 	0.74113	0.2391	0.06196	-0.229
Mof_H 	H 	0.7204	0.3203	0.0546	0.095
Mof_N 	N 	0.7965	0.4228	0.03946	-0.218
Mof_H 	H 	0.7802	0.518	0.0312	0.071
Mof_N 	N 	0.80761	0.3956	0.12945	-0.062
Mof_C 	C 	0.7829	0.2587	0.12054	-0.053
Mof_H 	H 	0.8024	0.1726	0.1301	0.049
Mof_H 	H 	0.7753	0.2588	0.1464	0.048
Mof_C 	C 	0.82871	0.405	0.10197	-0.065
Mof_H 	H 	0.8493	0.4901	0.1177	0.063
Mof_H 	H 	0.8463	0.3141	0.1106	0.054
Mof_C 	C 	0.71815	0.0933	0.053	-0.116
Mof_H 	H 	0.7396	0.0108	0.0678	0.048
Mof_H 	H 	0.7049	0.0938	0.0726	0.049
Mof_C 	C 	0.81846	0.4268	0.0108	-0.163
Mof_H 	H 	0.8337	0.5226	0.0183	0.073
Mof_H 	H 	0.8405	0.3463	0.0253	0.071
Mof_C 	C 	0.78431	0.5352	0.125	-0.376
Mof_H 	H 	0.7592	0.5526	0.086	0.141
Mof_H 	H 	0.7737	0.5251	0.1472	0.143
Mof_H 	H 	0.8048	0.6189	0.139	0.144
Mof_N 	N 	0.43135	0.0317	0.95116	-0.243
Mof_H 	H 	0.4171	0.9432	0.9264	0.116
Mof_N 	N 	0.50215	0.8577	0.05659	-0.227
Mof_H 	H 	0.4926	0.7571	0.0392	0.074
Mof_N 	N 	0.42476	0.9192	0.02152	-0.116
Mof_C 	C 	0.55024	0.8477	0.10652	-0.099
Mof_H 	H 	0.5588	0.9367	0.1302	0.066
Mof_H 	H 	0.5551	0.7595	0.129	0.064
Mof_C 	C 	0.47127	0.9053	0.0702	-0.023
Mof_H 	H 	0.4815	0.0018	0.0897	0.027
Mof_H 	H 	0.4735	0.8321	0.0961	0.052
Mof_C 	C 	0.42151	0.1635	0.91422	-0.084
Mof_H 	H 	0.3898	0.1647	0.882	0.055
Mof_H 	H 	0.4285	0.2565	0.9354	0.064
Mof_C 	C 	0.41343	0.0449	0.9842	0.046
Mof_H 	H 	0.3809	0.0539	0.9578	0.024
Mof_H 	H 	0.4251	0.1368	0.0066	-0.001
Mof_C 	C 	0.4033	0.7759	0.9933	-0.185
Mof_H 	H 	0.4176	0.7339	0.9782	0.102
Mof_H 	H 	0.4062	0.7067	0.0203	0.071
Mof_H 	H 	0.372	0.7928	0.963	0.1
Mof_O 	O 	0.50473	0.3119	0.80899	-0.244
Mof_C 	C 	0.47222	0.2216	0.76029	-0.01
Mof_H 	H 	0.4549	0.1606	0.7678	0.041
Mof_H 	H 	0.4518	0.2852	0.7275	0.052
Mof_O 	O 	0.49234	0.8057	0.95205	-0.387
Mof_O 	O 	0.41876	0.7628	0.88698	-0.283
Mof_O 	O 	0.69852	0.4164	0.95192	-0.402
Mof_C 	C 	0.47037	0.6271	0.88018	-0.176
Mof_C 	C 	0.53086	0.0219	0.80259	-0.056
Mof_H 	H 	0.5132	0.9654	0.8106	0.074
Mof_H 	H 	0.552	0.0848	0.8352	0.055
Mof_C 	C 	0.58229	0.8161	0.83379	0.262
Mof_C 	C 	0.61826	0.7011	0.92536	0.137
Mof_H 	H 	0.6222	0.6946	0.9594	-0.003
Mof_C 	C 	0.64207	0.6032	0.9159	-0.193
Mof_C 	C 	0.43643	0.558	0.82933	0.129
Mof_H 	H 	0.4066	0.5832	0.8123	-0.005
Mof_C 	C 	0.49047	0.4167	0.82862	0.265
Mof_C 	C 	0.44586	0.4518	0.80316	-0.259
Mof_H 	H 	0.4227	0.4055	0.7694	0.121
Mof_C 	C 	0.58874	0.8082	0.88545	-0.254
Mof_H 	H 	0.5735	0.8736	0.8929	0.124
Mof_C 	C 	0.45976	0.7396	0.9088	0.353
Mof_O 	O 	0.6736	0.469	0.0019	-0.346
Mof_C 	C 	0.60548	0.7186	0.82351	-0.261
Mof_H 	H 	0.601	0.7233	0.7891	0.132
Mof_C 	C 	0.63521	0.6147	0.86405	0.144
Mof_H 	H 	0.651	0.5512	0.8569	-0.015
Mof_C 	C 	0.51482	0.5899	0.90462	0.136
Mof_H 	H 	0.538	0.6357	0.9385	-0.007
Mof_C 	C 	0.67404	0.4888	0.96028	0.399
Mof_C 	C 	0.52501	0.4867	0.8796	-0.254
Mof_H 	H 	0.5549	0.4632	0.8964	0.128
Mof_O 	O 	0.55461	0.9203	0.79215	-0.219
Mof_N 	N 	0.24113	0.7391	0.06196	-0.226
Mof_H 	H 	0.2204	0.8203	0.0546	0.097
Mof_N 	N 	0.2965	0.9228	0.03946	-0.213
Mof_H 	H 	0.2802	0.018	0.0312	0.058
Mof_N 	N 	0.30761	0.8956	0.12945	-0.053
Mof_C 	C 	0.2829	0.7587	0.12054	-0.055
Mof_H 	H 	0.3024	0.6726	0.1301	0.052
Mof_H 	H 	0.2753	0.7588	0.1464	0.053
Mof_C 	C 	0.32871	0.905	0.10197	-0.066
Mof_H 	H 	0.3493	0.9901	0.1177	0.071
Mof_H 	H 	0.3463	0.8141	0.1106	0.057
Mof_C 	C 	0.21815	0.5933	0.053	-0.131
Mof_H 	H 	0.2396	0.5108	0.0678	0.057
Mof_H 	H 	0.2049	0.5938	0.0726	0.057
Mof_C 	C 	0.31846	0.9268	0.0108	-0.118
Mof_H 	H 	0.3337	0.0226	0.0183	0.048
Mof_H 	H 	0.3405	0.8463	0.0253	0.06
Mof_C 	C 	0.28431	0.0352	0.125	-0.394
Mof_H 	H 	0.2592	0.0526	0.086	0.141
Mof_H 	H 	0.2737	0.0251	0.1472	0.143
Mof_H 	H 	0.3048	0.1189	0.139	0.145
Mof_N 	N 	0.93135	0.5317	0.95116	-0.232
Mof_H 	H 	0.9171	0.4432	0.9264	0.104
Mof_N 	N 	0.00215	0.3577	0.05659	-0.239
Mof_H 	H 	0.9926	0.2571	0.0392	0.082
Mof_N 	N 	0.92476	0.4192	0.02152	-0.123
Mof_C 	C 	0.05024	0.3477	0.10652	-0.099
Mof_H 	H 	0.0588	0.4367	0.1302	0.059
Mof_H 	H 	0.0551	0.2595	0.129	0.06
Mof_C 	C 	0.97127	0.4053	0.0702	-0.049
Mof_H 	H 	0.9815	0.5018	0.0897	0.05
Mof_H 	H 	0.9735	0.3321	0.0961	0.06
Mof_C 	C 	0.92151	0.6635	0.91422	-0.084
Mof_H 	H 	0.8898	0.6647	0.882	0.058
Mof_H 	H 	0.9285	0.7565	0.9354	0.067
Mof_C 	C 	0.91343	0.5449	0.9842	0.057
Mof_H 	H 	0.8809	0.5539	0.9578	0.026
Mof_H 	H 	0.9251	0.6368	0.0066	-0
Mof_C 	C 	0.9033	0.2759	0.9933	-0.177
Mof_H 	H 	0.9176	0.2339	0.9782	0.099
Mof_H 	H 	0.9062	0.2067	0.0203	0.067
Mof_H 	H 	0.872	0.2928	0.963	0.095
Mof_O 	O 	0.00473	0.8119	0.80899	-0.264
Mof_C 	C 	0.97222	0.7216	0.76029	0.05
Mof_H 	H 	0.9549	0.6606	0.7678	0.029
Mof_H 	H 	0.9518	0.7852	0.7275	0.038
Mof_O 	O 	0.99234	0.3057	0.95205	-0.381
Mof_O 	O 	0.91876	0.2628	0.88698	-0.284
Mof_O 	O 	0.19852	0.9164	0.95192	-0.402
Mof_C 	C 	0.97037	0.1271	0.88018	-0.14
Mof_C 	C 	0.03086	0.5219	0.80259	0.028
Mof_H 	H 	0.0132	0.4654	0.8106	0.035
Mof_H 	H 	0.052	0.5848	0.8352	0.034
Mof_C 	C 	0.08229	0.3161	0.83379	0.276
Mof_C 	C 	0.11826	0.2011	0.92536	0.153
Mof_H 	H 	0.1222	0.1946	0.9594	-0.013
Mof_C 	C 	0.14207	0.1032	0.9159	-0.218
Mof_C 	C 	0.93643	0.058	0.82933	0.092
Mof_H 	H 	0.9066	0.0832	0.8123	0.004
Mof_C 	C 	0.99047	0.9167	0.82862	0.276
Mof_C 	C 	0.94586	0.9518	0.80316	-0.231
Mof_H 	H 	0.9227	0.9055	0.7694	0.116
Mof_C 	C 	0.08874	0.3082	0.88545	-0.273
Mof_H 	H 	0.0735	0.3736	0.8929	0.127
Mof_C 	C 	0.95976	0.2396	0.9088	0.341
Mof_O 	O 	0.1736	0.969	0.0019	-0.342
Mof_C 	C 	0.10548	0.2186	0.82351	-0.28
Mof_H 	H 	0.101	0.2233	0.7891	0.136
Mof_C 	C 	0.13521	0.1147	0.86405	0.16
Mof_H 	H 	0.151	0.0512	0.8569	-0.026
Mof_C 	C 	0.01482	0.0899	0.90462	0.085
Mof_H 	H 	0.038	0.1357	0.9385	0.005
Mof_C 	C 	0.17404	0.9888	0.96028	0.415
Mof_C 	C 	0.02501	0.9867	0.8796	-0.235
Mof_H 	H 	0.0549	0.9632	0.8964	0.125
Mof_O 	O 	0.05461	0.4203	0.79215	-0.249
Mof_N 	N 	0.25887	0.2391	0.43804	-0.232
Mof_H 	H 	0.2796	0.3203	0.4454	0.101
Mof_N 	N 	0.2035	0.4228	0.46054	-0.222
Mof_H 	H 	0.2198	0.518	0.4688	0.08
Mof_N 	N 	0.19239	0.3956	0.37055	-0.061
Mof_C 	C 	0.2171	0.2587	0.37946	-0.051
Mof_H 	H 	0.1976	0.1726	0.3699	0.049
Mof_H 	H 	0.2247	0.2588	0.3536	0.048
Mof_C 	C 	0.17129	0.405	0.39803	-0.063
Mof_H 	H 	0.1507	0.4901	0.3823	0.063
Mof_H 	H 	0.1537	0.3141	0.3894	0.054
Mof_C 	C 	0.28185	0.0933	0.447	-0.06
Mof_H 	H 	0.2604	0.0108	0.4322	0.039
Mof_H 	H 	0.2951	0.0938	0.4274	0.04
Mof_C 	C 	0.18154	0.4268	0.4892	-0.109
Mof_H 	H 	0.1663	0.5226	0.4817	0.065
Mof_H 	H 	0.1595	0.3463	0.4747	0.062
Mof_C 	C 	0.21569	0.5352	0.375	-0.383
Mof_H 	H 	0.2408	0.5526	0.414	0.148
Mof_H 	H 	0.2263	0.5251	0.3528	0.147
Mof_H 	H 	0.1952	0.6189	0.361	0.148
Mof_N 	N 	0.56865	0.0317	0.54884	-0.237
Mof_H 	H 	0.5829	0.9432	0.5736	0.113
Mof_N 	N 	0.49785	0.8577	0.44341	-0.223
Mof_H 	H 	0.5074	0.7571	0.4608	0.082
Mof_N 	N 	0.57524	0.9192	0.47848	-0.054
Mof_C 	C 	0.44976	0.8477	0.39348	-0.098
Mof_H 	H 	0.4412	0.9367	0.3698	0.066
Mof_H 	H 	0.4449	0.7595	0.371	0.065
Mof_C 	C 	0.52873	0.9053	0.4298	-0.035
Mof_H 	H 	0.5185	0.0018	0.4103	0.032
Mof_H 	H 	0.5265	0.8321	0.4039	0.057
Mof_C 	C 	0.57849	0.1635	0.58578	-0.088
Mof_H 	H 	0.6102	0.1647	0.618	0.054
Mof_H 	H 	0.5715	0.2565	0.5646	0.056
Mof_C 	C 	0.58657	0.0449	0.5158	-0.072
Mof_H 	H 	0.6191	0.0539	0.5422	0.051
Mof_H 	H 	0.5749	0.1368	0.4934	0.056
Mof_C 	C 	0.5967	0.7759	0.5067	-0.397
Mof_H 	H 	0.5824	0.7339	0.5218	0.156
Mof_H 	H 	0.5938	0.7067	0.4797	0.156
Mof_H 	H 	0.628	0.7928	0.537	0.157
Mof_O 	O 	0.49527	0.3119	0.69101	-0.244
Mof_C 	C 	0.52778	0.2216	0.73971	-0.01
Mof_H 	H 	0.5451	0.1606	0.7322	0.041
Mof_H 	H 	0.5482	0.2852	0.7725	0.052
Mof_O 	O 	0.50766	0.8057	0.54795	-0.402
Mof_O 	O 	0.58124	0.7628	0.61302	-0.289
Mof_O 	O 	0.30148	0.4164	0.54808	-0.404
Mof_C 	C 	0.52963	0.6271	0.61982	-0.18
Mof_C 	C 	0.46914	0.0219	0.69741	-0.057
Mof_H 	H 	0.4868	0.9654	0.6894	0.075
Mof_H 	H 	0.448	0.0848	0.6648	0.055
Mof_C 	C 	0.41771	0.8161	0.66621	0.257
Mof_C 	C 	0.38174	0.7011	0.57464	0.126
Mof_H 	H 	0.3778	0.6946	0.5406	-0.007
Mof_C 	C 	0.35793	0.6032	0.5841	-0.179
Mof_C 	C 	0.56357	0.558	0.67067	0.132
Mof_H 	H 	0.5934	0.5832	0.6877	-0.006
Mof_C 	C 	0.50953	0.4167	0.67138	0.266
Mof_C 	C 	0.55414	0.4518	0.69684	-0.261
Mof_H 	H 	0.5773	0.4055	0.7306	0.122
Mof_C 	C 	0.41126	0.8082	0.61455	-0.248
Mof_H 	H 	0.4265	0.8736	0.6071	0.121
Mof_C 	C 	0.54024	0.7396	0.5912	0.355
Mof_O 	O 	0.3264	0.469	0.4981	-0.302
Mof_C 	C 	0.39452	0.7186	0.67649	-0.254
Mof_H 	H 	0.399	0.7233	0.7109	0.13
Mof_C 	C 	0.36479	0.6147	0.63595	0.133
Mof_H 	H 	0.349	0.5512	0.6431	-0.012
Mof_C 	C 	0.48518	0.5899	0.59538	0.138
Mof_H 	H 	0.462	0.6357	0.5615	-0.011
Mof_C 	C 	0.32596	0.4888	0.53972	0.352
Mof_C 	C 	0.47499	0.4867	0.6204	-0.257
Mof_H 	H 	0.4451	0.4632	0.6036	0.129
Mof_O 	O 	0.44539	0.9203	0.70785	-0.218
Mof_N 	N 	0.75887	0.7391	0.43804	-0.229
Mof_H 	H 	0.7796	0.8203	0.4454	0.103
Mof_N 	N 	0.7035	0.9228	0.46054	-0.217
Mof_H 	H 	0.7198	0.018	0.4688	0.067
Mof_N 	N 	0.69239	0.8956	0.37055	-0.052
Mof_C 	C 	0.7171	0.7587	0.37946	-0.054
Mof_H 	H 	0.6976	0.6726	0.3699	0.052
Mof_H 	H 	0.7247	0.7588	0.3536	0.053
Mof_C 	C 	0.67129	0.905	0.39803	-0.064
Mof_H 	H 	0.6507	0.9901	0.3823	0.071
Mof_H 	H 	0.6537	0.8141	0.3894	0.056
Mof_C 	C 	0.78185	0.5933	0.447	-0.078
Mof_H 	H 	0.7604	0.5108	0.4322	0.049
Mof_H 	H 	0.7951	0.5938	0.4274	0.049
Mof_C 	C 	0.68154	0.9268	0.4892	-0.069
Mof_H 	H 	0.6663	0.0226	0.4817	0.041
Mof_H 	H 	0.6595	0.8463	0.4747	0.053
Mof_C 	C 	0.71569	0.0352	0.375	-0.401
Mof_H 	H 	0.7408	0.0526	0.414	0.147
Mof_H 	H 	0.7263	0.0251	0.3528	0.146
Mof_H 	H 	0.6952	0.1189	0.361	0.149
Mof_N 	N 	0.06865	0.5317	0.54884	-0.228
Mof_H 	H 	0.0829	0.4432	0.5736	0.101
Mof_N 	N 	0.99785	0.3577	0.44341	-0.208
Mof_H 	H 	0.0074	0.2571	0.4608	0.071
Mof_N 	N 	0.07524	0.4192	0.47848	-0.059
Mof_C 	C 	0.94976	0.3477	0.39348	-0.102
Mof_H 	H 	0.9412	0.4367	0.3698	0.063
Mof_H 	H 	0.9449	0.2595	0.371	0.066
Mof_C 	C 	0.02873	0.4053	0.4298	-0.079
Mof_H 	H 	0.0185	0.5018	0.4103	0.052
Mof_H 	H 	0.0265	0.3321	0.4039	0.065
Mof_C 	C 	0.07849	0.6635	0.58578	-0.09
Mof_H 	H 	0.1102	0.6647	0.618	0.059
Mof_H 	H 	0.0715	0.7565	0.5646	0.057
Mof_C 	C 	0.08657	0.5449	0.5158	-0.059
Mof_H 	H 	0.1191	0.5539	0.5422	0.052
Mof_H 	H 	0.0749	0.6368	0.4934	0.053
Mof_C 	C 	0.0967	0.2759	0.5067	-0.393
Mof_H 	H 	0.0824	0.2339	0.5218	0.153
Mof_H 	H 	0.0938	0.2067	0.4797	0.153
Mof_H 	H 	0.128	0.2928	0.537	0.153
Mof_O 	O 	0.99527	0.8119	0.69101	-0.216
Mof_C 	C 	0.02778	0.7216	0.73971	-0.004
Mof_H 	H 	0.0451	0.6606	0.7322	0.041
Mof_H 	H 	0.0482	0.7852	0.7725	0.052
Mof_O 	O 	0.00766	0.3057	0.54795	-0.41
Mof_O 	O 	0.08124	0.2628	0.61302	-0.291
Mof_O 	O 	0.80148	0.9164	0.54808	-0.404
Mof_C 	C 	0.02963	0.1271	0.61982	-0.161
Mof_C 	C 	0.96914	0.5219	0.69741	0.037
Mof_H 	H 	0.9868	0.4654	0.6894	0.041
Mof_H 	H 	0.948	0.5848	0.6648	0.032
Mof_C 	C 	0.91771	0.3161	0.66621	0.274
Mof_C 	C 	0.88174	0.2011	0.57464	0.145
Mof_H 	H 	0.8778	0.1946	0.5406	-0.017
Mof_C 	C 	0.85793	0.1032	0.5841	-0.207
Mof_C 	C 	0.06357	0.058	0.67067	0.078
Mof_H 	H 	0.0934	0.0832	0.6877	0.008
Mof_C 	C 	0.00953	0.9167	0.67138	0.205
Mof_C 	C 	0.05414	0.9518	0.69684	-0.2
Mof_H 	H 	0.0773	0.9055	0.7306	0.103
Mof_C 	C 	0.91126	0.3082	0.61455	-0.268
Mof_H 	H 	0.9265	0.3736	0.6071	0.126
Mof_C 	C 	0.04024	0.2396	0.5912	0.345
Mof_O 	O 	0.8264	0.969	0.4981	-0.301
Mof_C 	C 	0.89452	0.2186	0.67649	-0.273
Mof_H 	H 	0.899	0.2233	0.7109	0.135
Mof_C 	C 	0.86479	0.1147	0.63595	0.151
Mof_H 	H 	0.849	0.0512	0.6431	-0.024
Mof_C 	C 	0.98518	0.0899	0.59538	0.094
Mof_H 	H 	0.962	0.1357	0.5615	0.004
Mof_C 	C 	0.82596	0.9888	0.53972	0.372
Mof_C 	C 	0.97499	0.9867	0.6204	-0.183
Mof_H 	H 	0.9451	0.9632	0.6036	0.108
Mof_O 	O 	0.94539	0.4203	0.70785	-0.244
Mof_Ni	Ni	0.25	0.75	-0	1.08
Mof_Ni	Ni	0.75	0.75	0.5	1.095
Mof_Ni	Ni	0.75	0.25	-0	1.079
Mof_Ni	Ni	0.25	0.25	0.5	1.094
Mof_Ni	Ni	0.5	0	-0	1.072
Mof_Ni	Ni	-0	0.5	-0	1.075
Mof_Ni	Ni	0.5	0	0.5	1.088
Mof_Ni	Ni	2.39084e-33	0.5	0.5	1.089
Mof_C 	C 	0.5	0.8792	0.25	-0.022
Mof_C 	C 	1.19542e-33	0.3792	0.25	-0.016
Mof_C 	C 	0.5	0.1208	0.75	0.052
Mof_C 	C 	5.81805e-17	0.6208	0.75	-0.012
_end
