data_functionalizedCrystal
_audit_creation_method	'EQeq! by Chris Wilmer'
_symmetry_space_group_name_H-M	'P1'
_symmetry_Int_Tables_number	1
_symmetry_cell_setting	triclinic
loop_
_symmetry_equiv_pos_as_xyz
  x,y,z
_cell_length_a	9.4514
_cell_length_b	16.189
_cell_length_c	23.983
_cell_angle_alpha	108.098
_cell_angle_beta	90
_cell_angle_gamma	90
loop_
_atom_site_label
_atom_site_type_symbol
_atom_site_fract_x
_atom_site_fract_y
_atom_site_fract_z
_atom_site_charge
Mof_Eu	Eu	0.49558	0.70256	0.90275	2.256
Mof_Eu	Eu	0.49558	0.29745	0.59725	2.243
Mof_Eu	Eu	0.50442	0.29745	0.09725	2.235
Mof_Eu	Eu	0.50442	0.70256	0.40275	2.247
Mof_Ca	Ca	0.99731	0.5	0.75	1.447
Mof_Ca	Ca	0.00269	0.5	0.25	1.035
Mof_Ca	Ca	-0	0.5	-0	0.825
Mof_Ca	Ca	-1.44743e-32	0.5	0.5	0.874
Mof_Ca	Ca	-0	0	-0	0.791
Mof_Ca	Ca	-0	0	0.5	0.838
Mof_H 	H 	0.3864	0.8699	0.7438	0.048
Mof_H 	H 	0.5744	0.8155	0.6806	0.053
Mof_H 	H 	0.7182	0.7095	0.6964	0.053
Mof_H 	H 	0.6477	0.4164	0.9605	0.041
Mof_H 	H 	0.4733	0.3226	0.9095	0.056
Mof_H 	H 	0.3143	0.3692	0.8521	0.015
Mof_H 	H 	0.313	0.9025	0.1183	0.037
Mof_H 	H 	0.4667	0.0196	0.1312	0.015
Mof_H 	H 	0.6441	0.0099	0.0622	-0.019
Mof_H 	H 	0.3864	0.1301	0.7562	0.034
Mof_H 	H 	0.5744	0.1845	0.8194	0.051
Mof_H 	H 	0.7182	0.2905	0.8036	0.051
Mof_H 	H 	0.6477	0.5836	0.5395	0.03
Mof_H 	H 	0.4733	0.6774	0.5905	0.055
Mof_H 	H 	0.3143	0.6308	0.6479	0.013
Mof_H 	H 	0.313	0.0975	0.3817	0.007
Mof_H 	H 	0.4667	0.9804	0.3688	0.098
Mof_H 	H 	0.6441	0.9901	0.4378	0.08
Mof_H 	H 	0.6136	0.1301	0.2562	0.053
Mof_H 	H 	0.4256	0.1845	0.3194	0.047
Mof_H 	H 	0.2818	0.2905	0.3036	0.027
Mof_H 	H 	0.3523	0.5836	0.0395	0.012
Mof_H 	H 	0.5267	0.6774	0.0905	0.056
Mof_H 	H 	0.6857	0.6308	0.1479	0.046
Mof_H 	H 	0.687	0.0975	0.8817	0.047
Mof_H 	H 	0.5333	0.9804	0.8688	0.086
Mof_H 	H 	0.3559	0.9901	0.9378	0.092
Mof_H 	H 	0.6136	0.8699	0.2438	0.066
Mof_H 	H 	0.4256	0.8155	0.1806	0.05
Mof_H 	H 	0.2818	0.7095	0.1964	0.03
Mof_H 	H 	0.3523	0.4164	0.4605	0.018
Mof_H 	H 	0.5267	0.3226	0.4095	0.058
Mof_H 	H 	0.6857	0.3692	0.3521	0.046
Mof_H 	H 	0.687	0.9025	0.6183	0.071
Mof_H 	H 	0.5333	0.0196	0.6312	0.008
Mof_H 	H 	0.3559	0.0099	0.5622	-0.018
Mof_C 	C 	0.3144	0.8326	0.8424	0.318
Mof_C 	C 	0.428	0.7981	0.7967	-0.029
Mof_C 	C 	0.4468	0.8283	0.75	-0.031
Mof_C 	C 	0.5578	0.7952	0.7123	-0.043
Mof_C 	C 	0.6436	0.7326	0.7217	-0.011
Mof_C 	C 	0.6173	0.7043	0.7693	-0.046
Mof_C 	C 	0.7076	0.6374	0.7847	0.398
Mof_C 	C 	0.6892	0.5857	0.96757	0.385
Mof_C 	C 	0.5845	0.5177	0.93458	-0.058
Mof_C 	C 	0.5816	0.4345	0.938	0.004
Mof_C 	C 	0.4788	0.3789	0.9074	-0.066
Mof_C 	C 	0.3836	0.4066	0.8734	0.01
Mof_C 	C 	0.3926	0.4908	0.8714	-0.081
Mof_C 	C 	0.2936	0.5296	0.83771	0.406
Mof_C 	C 	0.2992	0.7533	0.0266	0.296
Mof_C 	C 	0.3925	0.8311	0.0402	-0.068
Mof_C 	C 	0.3816	0.9015	0.0903	-0.022
Mof_C 	C 	0.4744	0.9706	0.0985	-0.026
Mof_C 	C 	0.5785	0.9654	0.0571	0.081
Mof_C 	C 	0.5832	0.8933	0.0082	-0.135
Mof_C 	C 	0.6897	0.8827	0.9601	0.438
Mof_C 	C 	0.3144	0.1674	0.6576	0.324
Mof_C 	C 	0.428	0.2019	0.7033	-0.038
Mof_C 	C 	0.4468	0.1717	0.75	-0.026
Mof_C 	C 	0.5578	0.2048	0.7877	-0.052
Mof_C 	C 	0.6436	0.2674	0.7783	-0.009
Mof_C 	C 	0.6173	0.2957	0.7307	-0.05
Mof_C 	C 	0.7076	0.3626	0.7153	0.397
Mof_C 	C 	0.6892	0.4143	0.53243	0.389
Mof_C 	C 	0.5845	0.4823	0.56542	-0.068
Mof_C 	C 	0.5816	0.5655	0.562	0.007
Mof_C 	C 	0.4788	0.6211	0.5926	-0.075
Mof_C 	C 	0.3836	0.5934	0.6266	0.01
Mof_C 	C 	0.3926	0.5092	0.6286	-0.085
Mof_C 	C 	0.2936	0.4704	0.66229	0.405
Mof_C 	C 	0.2992	0.2467	0.4734	0.334
Mof_C 	C 	0.3925	0.1689	0.4598	-0.066
Mof_C 	C 	0.3816	0.0985	0.4097	0.014
Mof_C 	C 	0.4744	0.0294	0.4015	-0.124
Mof_C 	C 	0.5785	0.0346	0.4429	-0.048
Mof_C 	C 	0.5832	0.1067	0.4918	-0.05
Mof_C 	C 	0.6897	0.1173	0.5399	0.385
Mof_C 	C 	0.6856	0.1674	0.1576	0.32
Mof_C 	C 	0.572	0.2019	0.2033	-0.023
Mof_C 	C 	0.5532	0.1717	0.25	-0.032
Mof_C 	C 	0.4422	0.2048	0.2877	-0.055
Mof_C 	C 	0.3564	0.2674	0.2783	-0.013
Mof_C 	C 	0.3827	0.2957	0.2307	-0.057
Mof_C 	C 	0.2924	0.3626	0.2153	0.384
Mof_C 	C 	0.3108	0.4143	0.03243	0.395
Mof_C 	C 	0.4155	0.4823	0.06542	-0.082
Mof_C 	C 	0.4184	0.5655	0.062	0.004
Mof_C 	C 	0.5212	0.6211	0.0926	-0.069
Mof_C 	C 	0.6164	0.5934	0.1266	-0.004
Mof_C 	C 	0.6074	0.5092	0.1286	-0.056
Mof_C 	C 	0.7064	0.4704	0.16229	0.375
Mof_C 	C 	0.7008	0.2467	0.9734	0.357
Mof_C 	C 	0.6075	0.1689	0.9598	-0.016
Mof_C 	C 	0.6184	0.0985	0.9097	-0.025
Mof_C 	C 	0.5256	0.0294	0.9015	-0.075
Mof_C 	C 	0.4215	0.0346	0.9429	-0.101
Mof_C 	C 	0.4168	0.1067	0.9918	0.015
Mof_C 	C 	0.3103	0.1173	0.0399	0.342
Mof_C 	C 	0.6856	0.8326	0.3424	0.315
Mof_C 	C 	0.572	0.7981	0.2967	-0.015
Mof_C 	C 	0.5532	0.8283	0.25	-0.037
Mof_C 	C 	0.4422	0.7952	0.2123	-0.045
Mof_C 	C 	0.3564	0.7326	0.2217	-0.015
Mof_C 	C 	0.3827	0.7043	0.2693	-0.054
Mof_C 	C 	0.2924	0.6374	0.2847	0.385
Mof_C 	C 	0.3108	0.5857	0.46757	0.398
Mof_C 	C 	0.4155	0.5177	0.43458	-0.078
Mof_C 	C 	0.4184	0.4345	0.438	0.006
Mof_C 	C 	0.5212	0.3789	0.4074	-0.064
Mof_C 	C 	0.6164	0.4066	0.3734	-0.003
Mof_C 	C 	0.6074	0.4908	0.3714	-0.055
Mof_C 	C 	0.7064	0.5296	0.33771	0.375
Mof_C 	C 	0.7008	0.7533	0.5266	0.322
Mof_C 	C 	0.6075	0.8311	0.5402	-0.024
Mof_C 	C 	0.6184	0.9015	0.5903	-0.053
Mof_C 	C 	0.5256	0.9706	0.5985	0.008
Mof_C 	C 	0.4215	0.9654	0.5571	0.043
Mof_C 	C 	0.4168	0.8933	0.5082	-0.082
Mof_C 	C 	0.3103	0.8827	0.4601	0.404
Mof_N 	N 	0.5115	0.7375	0.80674	-0.207
Mof_N 	N 	0.4909	0.546	0.90225	-0.2
Mof_N 	N 	0.4914	0.8282	0.99919	-0.161
Mof_N 	N 	0.5115	0.2625	0.69326	-0.205
Mof_N 	N 	0.4909	0.454	0.59775	-0.199
Mof_N 	N 	0.4914	0.1718	0.50081	-0.199
Mof_N 	N 	0.4885	0.2625	0.19326	-0.206
Mof_N 	N 	0.5091	0.454	0.09775	-0.201
Mof_N 	N 	0.5086	0.1718	0.00081	-0.241
Mof_N 	N 	0.4885	0.7375	0.30674	-0.207
Mof_N 	N 	0.5091	0.546	0.40225	-0.201
Mof_N 	N 	0.5086	0.8282	0.49919	-0.201
Mof_O 	O 	0.3208	0.807	0.8879	-0.466
Mof_O 	O 	0.2272	0.8848	0.83451	-0.293
Mof_O 	O 	0.6787	0.627	0.83415	-0.493
Mof_O 	O 	0.7997	0.5995	0.75024	-0.424
Mof_O 	O 	0.6686	0.6623	0.96561	-0.459
Mof_O 	O 	0.7867	0.5631	0.9938	-0.367
Mof_O 	O 	0.3157	0.609	0.8423	-0.526
Mof_O 	O 	0.1963	0.4841	0.80989	-0.499
Mof_O 	O 	0.3143	0.6977	0.9764	-0.449
Mof_O 	O 	0.2161	0.7467	0.06549	-0.31
Mof_O 	O 	0.6743	0.818	0.91542	-0.469
Mof_O 	O 	0.7864	0.9373	0.96737	-0.348
Mof_O 	O 	0.3208	0.193	0.6121	-0.477
Mof_O 	O 	0.2272	0.1152	0.66549	-0.318
Mof_O 	O 	0.6787	0.373	0.66585	-0.494
Mof_O 	O 	0.7997	0.4005	0.74976	-0.425
Mof_O 	O 	0.6686	0.3377	0.53439	-0.47
Mof_O 	O 	0.7867	0.4369	0.5062	-0.392
Mof_O 	O 	0.3157	0.391	0.6577	-0.527
Mof_O 	O 	0.1963	0.5159	0.69011	-0.501
Mof_O 	O 	0.3143	0.3023	0.5236	-0.483
Mof_O 	O 	0.2161	0.2533	0.43451	-0.321
Mof_O 	O 	0.6743	0.182	0.58458	-0.465
Mof_O 	O 	0.7864	0.0627	0.53263	-0.389
Mof_O 	O 	0.6792	0.193	0.1121	-0.446
Mof_O 	O 	0.7728	0.1152	0.16549	-0.251
Mof_O 	O 	0.3213	0.373	0.16585	-0.502
Mof_O 	O 	0.2003	0.4005	0.24976	-0.427
Mof_O 	O 	0.3314	0.3377	0.03439	-0.506
Mof_O 	O 	0.2133	0.4369	0.0062	-0.464
Mof_O 	O 	0.6843	0.391	0.1577	-0.476
Mof_O 	O 	0.8037	0.5159	0.19011	-0.363
Mof_O 	O 	0.6857	0.3023	0.0236	-0.477
Mof_O 	O 	0.7839	0.2533	0.93451	-0.259
Mof_O 	O 	0.3257	0.182	0.08458	-0.484
Mof_O 	O 	0.2136	0.0627	0.03263	-0.449
Mof_O 	O 	0.6792	0.807	0.3879	-0.439
Mof_O 	O 	0.7728	0.8848	0.33451	-0.232
Mof_O 	O 	0.3213	0.627	0.33415	-0.502
Mof_O 	O 	0.2003	0.5995	0.25024	-0.426
Mof_O 	O 	0.3314	0.6623	0.46561	-0.498
Mof_O 	O 	0.2133	0.5631	0.4938	-0.459
Mof_O 	O 	0.6843	0.609	0.3423	-0.477
Mof_O 	O 	0.8037	0.4841	0.30989	-0.363
Mof_O 	O 	0.6857	0.6977	0.4764	-0.449
Mof_O 	O 	0.7839	0.7467	0.56549	-0.254
Mof_O 	O 	0.3257	0.818	0.41542	-0.492
Mof_O 	O 	0.2136	0.9373	0.46737	-0.425
_end
