# CIF file generated by openbabel 3.1.0, see https://openbabel.org
data_I
_chemical_name_common 'image0'
_cell_length_a 13.4307
_cell_length_b 17.0964
_cell_length_c 9.5948
_cell_angle_alpha 90
_cell_angle_beta 90
_cell_angle_gamma 90
_space_group_name_H-M_alt 'P 1'
_space_group_name_Hall 'P 1'
loop_
    _symmetry_equiv_pos_as_xyz
    x,y,z
loop_
    _atom_site_label
    _atom_site_type_symbol
    _atom_site_fract_x
    _atom_site_fract_y
    _atom_site_fract_z
    _atom_site_occupancy
    O1       O        0.60290    0.58371    0.38480    1.000
    C1       C        0.72150    0.71690    0.62680    1.000
    H1       H        0.70210    0.69380    0.71260    1.000
    H2       H        0.44030    0.39150    0.11550    1.000
    C2       C        0.41120    0.45830    0.08060    1.000
    H3       H        0.35010    0.48410    0.11520    1.000
    H4       H        0.41140    0.40370    0.11520    1.000
    O2       O        0.10290    0.08371    0.38480    1.000
    C3       C        0.22150    0.21690    0.62680    1.000
    H5       H        0.20210    0.19380    0.71260    1.000
    H6       H        0.94030    0.89150    0.11550    1.000
    C4       C        0.91120    0.95830    0.08060    1.000
    H7       H        0.85010    0.98410    0.11520    1.000
    H8       H        0.91140    0.90370    0.11520    1.000
    O3       O        0.39710    0.41629    0.38480    1.000
    C5       C        0.27850    0.28310    0.62680    1.000
    H9       H        0.29790    0.30620    0.71260    1.000
    H10      H        0.55970    0.60850    0.11550    1.000
    C6       C        0.58880    0.54170    0.08060    1.000
    H11      H        0.64990    0.51590    0.11520    1.000
    H12      H        0.58860    0.59630    0.11520    1.000
    O4       O        0.89710    0.91629    0.38480    1.000
    C7       C        0.77850    0.78310    0.62680    1.000
    H13      H        0.79790    0.80620    0.71260    1.000
    H14      H        0.05970    0.10850    0.11550    1.000
    C8       C        0.08880    0.04170    0.08060    1.000
    H15      H        0.14990    0.01590    0.11520    1.000
    H16      H        0.08860    0.09630    0.11520    1.000
    O5       O        0.39710    0.58371    0.61520    1.000
    C9       C        0.27850    0.71690    0.37320    1.000
    H17      H        0.29790    0.69380    0.28740    1.000
    H18      H        0.55970    0.39150    0.88450    1.000
    C10      C        0.58880    0.45830    0.91940    1.000
    H19      H        0.64990    0.48410    0.88480    1.000
    H20      H        0.58860    0.40370    0.88480    1.000
    O6       O        0.89710    0.08371    0.61520    1.000
    C11      C        0.77850    0.21690    0.37320    1.000
    H21      H        0.79790    0.19380    0.28740    1.000
    H22      H        0.05970    0.89150    0.88450    1.000
    C12      C        0.08880    0.95830    0.91940    1.000
    H23      H        0.14990    0.98410    0.88480    1.000
    H24      H        0.08860    0.90370    0.88480    1.000
    O7       O        0.60290    0.41629    0.61520    1.000
    C13      C        0.72150    0.28310    0.37320    1.000
    H25      H        0.70210    0.30620    0.28740    1.000
    H26      H        0.44030    0.60850    0.88450    1.000
    C14      C        0.41120    0.54170    0.91940    1.000
    H27      H        0.35010    0.51590    0.88480    1.000
    H28      H        0.41140    0.59630    0.88480    1.000
    O8       O        0.10290    0.91629    0.61520    1.000
    C15      C        0.22150    0.78310    0.37320    1.000
    H29      H        0.20210    0.80620    0.28740    1.000
    H30      H        0.94030    0.10850    0.88450    1.000
    C16      C        0.91120    0.04170    0.91940    1.000
    H31      H        0.85010    0.01590    0.88480    1.000
    H32      H        0.91140    0.09630    0.88480    1.000
    O9       O        0.39710    0.41629    0.61520    1.000
    C17      C        0.27850    0.28310    0.37320    1.000
    H33      H        0.29790    0.30620    0.28740    1.000
    H34      H        0.55970    0.60850    0.88450    1.000
    C18      C        0.58880    0.54170    0.91940    1.000
    H35      H        0.64990    0.51590    0.88480    1.000
    H36      H        0.58860    0.59630    0.88480    1.000
    O10      O        0.89710    0.91629    0.61520    1.000
    C19      C        0.77850    0.78310    0.37320    1.000
    H37      H        0.79790    0.80620    0.28740    1.000
    H38      H        0.05970    0.10850    0.88450    1.000
    C20      C        0.08880    0.04170    0.91940    1.000
    H39      H        0.14990    0.01590    0.88480    1.000
    H40      H        0.08860    0.09630    0.88480    1.000
    O11      O        0.60290    0.58371    0.61520    1.000
    C21      C        0.72150    0.71690    0.37320    1.000
    H41      H        0.70210    0.69380    0.28740    1.000
    H42      H        0.44030    0.39150    0.88450    1.000
    C22      C        0.41120    0.45830    0.91940    1.000
    H43      H        0.35010    0.48410    0.88480    1.000
    H44      H        0.41140    0.40370    0.88480    1.000
    O12      O        0.10290    0.08371    0.61520    1.000
    C23      C        0.22150    0.21690    0.37320    1.000
    H45      H        0.20210    0.19380    0.28740    1.000
    H46      H        0.94030    0.89150    0.88450    1.000
    C24      C        0.91120    0.95830    0.91940    1.000
    H47      H        0.85010    0.98410    0.88480    1.000
    H48      H        0.91140    0.90370    0.88480    1.000
    O13      O        0.60290    0.41629    0.38480    1.000
    C25      C        0.72150    0.28310    0.62680    1.000
    H49      H        0.70210    0.30620    0.71260    1.000
    H50      H        0.44030    0.60850    0.11550    1.000
    C26      C        0.41120    0.54170    0.08060    1.000
    H51      H        0.35010    0.51590    0.11520    1.000
    H52      H        0.41140    0.59630    0.11520    1.000
    O14      O        0.10290    0.91629    0.38480    1.000
    C27      C        0.22150    0.78310    0.62680    1.000
    H53      H        0.20210    0.80620    0.71260    1.000
    H54      H        0.94030    0.10850    0.11550    1.000
    C28      C        0.91120    0.04170    0.08060    1.000
    H55      H        0.85010    0.01590    0.11520    1.000
    H56      H        0.91140    0.09630    0.11520    1.000
    O15      O        0.39710    0.58371    0.38480    1.000
    C29      C        0.27850    0.71690    0.62680    1.000
    H57      H        0.29790    0.69380    0.71260    1.000
    H58      H        0.55970    0.39150    0.11550    1.000
    C30      C        0.58880    0.45830    0.08060    1.000
    H59      H        0.64990    0.48410    0.11520    1.000
    H60      H        0.58860    0.40370    0.11520    1.000
    O16      O        0.89710    0.08371    0.38480    1.000
    C31      C        0.77850    0.21690    0.62680    1.000
    H61      H        0.79790    0.19380    0.71260    1.000
    H62      H        0.05970    0.89150    0.11550    1.000
    C32      C        0.08880    0.95830    0.08060    1.000
    H63      H        0.14990    0.98410    0.11520    1.000
    H64      H        0.08860    0.90370    0.11520    1.000
    Zn1      Zn       0.50000    0.50000    0.34806    1.000
    N1       N        0.50000    0.50000    0.13430    1.000
    Zn2      Zn       0.00000    0.00000    0.34806    1.000
    N2       N        0.00000    0.00000    0.13430    1.000
    Zn3      Zn       0.50000    0.50000    0.65194    1.000
    N3       N        0.50000    0.50000    0.86570    1.000
    Zn4      Zn       0.00000    0.00000    0.65194    1.000
    N4       N        0.00000    0.00000    0.86570    1.000
    C33      C        0.62770    0.61080    0.50000    1.000
    C34      C        0.69150    0.68280    0.50000    1.000
    C35      C        0.12770    0.11080    0.50000    1.000
    C36      C        0.19150    0.18280    0.50000    1.000
    C37      C        0.37230    0.38920    0.50000    1.000
    C38      C        0.30850    0.31720    0.50000    1.000
    C39      C        0.87230    0.88920    0.50000    1.000
    C40      C        0.80850    0.81720    0.50000    1.000
    C41      C        0.37230    0.61080    0.50000    1.000
    C42      C        0.30850    0.68280    0.50000    1.000
    C43      C        0.87230    0.11080    0.50000    1.000
    C44      C        0.80850    0.18280    0.50000    1.000
    C45      C        0.62770    0.38920    0.50000    1.000
    C46      C        0.69150    0.31720    0.50000    1.000
    C47      C        0.12770    0.88920    0.50000    1.000
    C48      C        0.19150    0.81720    0.50000    1.000
    C49      C        0.50000    0.41940    0.08090    1.000
    C50      C        0.00000    0.91940    0.08090    1.000
    C51      C        0.50000    0.58060    0.08090    1.000
    C52      C        0.00000    0.08060    0.08090    1.000
    C53      C        0.50000    0.41940    0.91910    1.000
    C54      C        0.00000    0.91940    0.91910    1.000
    C55      C        0.50000    0.58060    0.91910    1.000
    C56      C        0.00000    0.08060    0.91910    1.000
