# CIF file generated by openbabel 3.1.0, see https://openbabel.org
data_I
_chemical_name_common 'image0'
_cell_length_a 26.2978
_cell_length_b 26.2978
_cell_length_c 7.0741
_cell_angle_alpha 90
_cell_angle_beta 90
_cell_angle_gamma 120
_space_group_name_H-M_alt 'P 1'
_space_group_name_Hall 'P 1'
loop_
    _symmetry_equiv_pos_as_xyz
    x,y,z
loop_
    _atom_site_label
    _atom_site_type_symbol
    _atom_site_fract_x
    _atom_site_fract_y
    _atom_site_fract_z
    _atom_site_occupancy
    Mn1      Mn       0.95080    0.63850    0.01800    1.000
    C1       C        0.01250    0.59020    0.75500    1.000
    C2       C        0.00710    0.54550    0.87400    1.000
    C3       C        0.99300    0.54330    0.06800    1.000
    C4       C        0.98180    0.49800    0.19300    1.000
    H1       H        0.97257    0.49750    0.33724    1.000
    O1       O        0.03260    0.59300    0.58100    1.000
    O2       O        0.00870    0.63350    0.78900    1.000
    O3       O        0.97640    0.58030    0.14100    1.000
    Mn2      Mn       0.61747    0.97183    0.35133    1.000
    C5       C        0.67917    0.92353    0.08833    1.000
    C6       C        0.67377    0.87883    0.20733    1.000
    C7       C        0.65967    0.87663    0.40133    1.000
    C8       C        0.64847    0.83133    0.52633    1.000
    H2       H        0.63924    0.83083    0.67057    1.000
    O4       O        0.69927    0.92633    0.91433    1.000
    O5       O        0.67537    0.96683    0.12233    1.000
    O6       O        0.64307    0.91363    0.47433    1.000
    Mn3      Mn       0.28413    0.30517    0.68467    1.000
    C9       C        0.34583    0.25687    0.42167    1.000
    C10      C        0.34043    0.21217    0.54067    1.000
    C11      C        0.32633    0.20997    0.73467    1.000
    C12      C        0.31513    0.16467    0.85967    1.000
    H3       H        0.30590    0.16417    0.00391    1.000
    O7       O        0.36593    0.25967    0.24767    1.000
    O8       O        0.34203    0.30017    0.45567    1.000
    O9       O        0.30973    0.24697    0.80767    1.000
    Mn4      Mn       0.36150    0.31230    0.01800    1.000
    C13      C        0.40980    0.42230    0.75500    1.000
    C14      C        0.45450    0.46160    0.87400    1.000
    C15      C        0.45670    0.44970    0.06800    1.000
    C16      C        0.50200    0.48380    0.19300    1.000
    H4       H        0.50250    0.47507    0.33724    1.000
    O10      O        0.40700    0.43960    0.58100    1.000
    O11      O        0.36650    0.37520    0.78900    1.000
    O12      O        0.41970    0.39610    0.14100    1.000
    Mn5      Mn       0.02817    0.64563    0.35133    1.000
    C17      C        0.07647    0.75563    0.08833    1.000
    C18      C        0.12117    0.79493    0.20733    1.000
    C19      C        0.12337    0.78303    0.40133    1.000
    C20      C        0.16867    0.81713    0.52633    1.000
    H5       H        0.16917    0.80840    0.67057    1.000
    O13      O        0.07367    0.77293    0.91433    1.000
    O14      O        0.03317    0.70853    0.12233    1.000
    O15      O        0.08637    0.72943    0.47433    1.000
    Mn6      Mn       0.69483    0.97897    0.68467    1.000
    C21      C        0.74313    0.08897    0.42167    1.000
    C22      C        0.78783    0.12827    0.54067    1.000
    C23      C        0.79003    0.11637    0.73467    1.000
    C24      C        0.83533    0.15047    0.85967    1.000
    H6       H        0.83583    0.14174    0.00391    1.000
    O16      O        0.74033    0.10627    0.24767    1.000
    O17      O        0.69983    0.04187    0.45567    1.000
    O18      O        0.75303    0.06277    0.80767    1.000
    Mn7      Mn       0.68770    0.04920    0.01800    1.000
    C25      C        0.57770    0.98750    0.75500    1.000
    C26      C        0.53840    0.99290    0.87400    1.000
    C27      C        0.55030    0.00700    0.06800    1.000
    C28      C        0.51620    0.01820    0.19300    1.000
    H7       H        0.52493    0.02743    0.33724    1.000
    O19      O        0.56040    0.96740    0.58100    1.000
    O20      O        0.62480    0.99130    0.78900    1.000
    O21      O        0.60390    0.02360    0.14100    1.000
    Mn8      Mn       0.35437    0.38253    0.35133    1.000
    C29      C        0.24437    0.32083    0.08833    1.000
    C30      C        0.20507    0.32623    0.20733    1.000
    C31      C        0.21697    0.34033    0.40133    1.000
    C32      C        0.18287    0.35153    0.52633    1.000
    H8       H        0.19160    0.36076    0.67057    1.000
    O22      O        0.22707    0.30073    0.91433    1.000
    O23      O        0.29147    0.32463    0.12233    1.000
    O24      O        0.27057    0.35693    0.47433    1.000
    Mn9      Mn       0.02103    0.71587    0.68467    1.000
    C33      C        0.91103    0.65417    0.42167    1.000
    C34      C        0.87173    0.65957    0.54067    1.000
    C35      C        0.88363    0.67367    0.73467    1.000
    C36      C        0.84953    0.68487    0.85967    1.000
    H9       H        0.85826    0.69410    0.00391    1.000
    O25      O        0.89373    0.63407    0.24767    1.000
    O26      O        0.95813    0.65797    0.45567    1.000
    O27      O        0.93723    0.69027    0.80767    1.000
    Mn10     Mn       0.04920    0.36150    0.98200    1.000
    C37      C        0.98750    0.40980    0.24500    1.000
    C38      C        0.99290    0.45450    0.12600    1.000
    C39      C        0.00700    0.45670    0.93200    1.000
    C40      C        0.01820    0.50200    0.80700    1.000
    H10      H        0.02743    0.50250    0.66276    1.000
    O28      O        0.96740    0.40700    0.41900    1.000
    O29      O        0.99130    0.36650    0.21100    1.000
    O30      O        0.02360    0.41970    0.85900    1.000
    Mn11     Mn       0.71587    0.69483    0.31533    1.000
    C41      C        0.65417    0.74313    0.57833    1.000
    C42      C        0.65957    0.78783    0.45933    1.000
    C43      C        0.67367    0.79003    0.26533    1.000
    C44      C        0.68487    0.83533    0.14033    1.000
    H11      H        0.69410    0.83583    0.99609    1.000
    O31      O        0.63407    0.74033    0.75233    1.000
    O32      O        0.65797    0.69983    0.54433    1.000
    O33      O        0.69027    0.75303    0.19233    1.000
    Mn12     Mn       0.38253    0.02817    0.64867    1.000
    C45      C        0.32083    0.07647    0.91167    1.000
    C46      C        0.32623    0.12117    0.79267    1.000
    C47      C        0.34033    0.12337    0.59867    1.000
    C48      C        0.35153    0.16867    0.47367    1.000
    H12      H        0.36076    0.16917    0.32943    1.000
    O34      O        0.30073    0.07367    0.08567    1.000
    O35      O        0.32463    0.03317    0.87767    1.000
    O36      O        0.35693    0.08637    0.52567    1.000
    Mn13     Mn       0.63850    0.68770    0.98200    1.000
    C49      C        0.59020    0.57770    0.24500    1.000
    C50      C        0.54550    0.53840    0.12600    1.000
    C51      C        0.54330    0.55030    0.93200    1.000
    C52      C        0.49800    0.51620    0.80700    1.000
    H13      H        0.49750    0.52493    0.66276    1.000
    O37      O        0.59300    0.56040    0.41900    1.000
    O38      O        0.63350    0.62480    0.21100    1.000
    O39      O        0.58030    0.60390    0.85900    1.000
    Mn14     Mn       0.30517    0.02103    0.31533    1.000
    C53      C        0.25687    0.91103    0.57833    1.000
    C54      C        0.21217    0.87173    0.45933    1.000
    C55      C        0.20997    0.88363    0.26533    1.000
    C56      C        0.16467    0.84953    0.14033    1.000
    H14      H        0.16417    0.85826    0.99609    1.000
    O40      O        0.25967    0.89373    0.75233    1.000
    O41      O        0.30017    0.95813    0.54433    1.000
    O42      O        0.24697    0.93723    0.19233    1.000
    Mn15     Mn       0.97183    0.35437    0.64867    1.000
    C57      C        0.92353    0.24437    0.91167    1.000
    C58      C        0.87883    0.20507    0.79267    1.000
    C59      C        0.87663    0.21697    0.59867    1.000
    C60      C        0.83133    0.18287    0.47367    1.000
    H15      H        0.83083    0.19160    0.32943    1.000
    O43      O        0.92633    0.22707    0.08567    1.000
    O44      O        0.96683    0.29147    0.87767    1.000
    O45      O        0.91363    0.27057    0.52567    1.000
    Mn16     Mn       0.31230    0.95080    0.98200    1.000
    C61      C        0.42230    0.01250    0.24500    1.000
    C62      C        0.46160    0.00710    0.12600    1.000
    C63      C        0.44970    0.99300    0.93200    1.000
    C64      C        0.48380    0.98180    0.80700    1.000
    H16      H        0.47507    0.97257    0.66276    1.000
    O46      O        0.43960    0.03260    0.41900    1.000
    O47      O        0.37520    0.00870    0.21100    1.000
    O48      O        0.39610    0.97640    0.85900    1.000
    Mn17     Mn       0.97897    0.28413    0.31533    1.000
    C65      C        0.08897    0.34583    0.57833    1.000
    C66      C        0.12827    0.34043    0.45933    1.000
    C67      C        0.11637    0.32633    0.26533    1.000
    C68      C        0.15047    0.31513    0.14033    1.000
    H17      H        0.14174    0.30590    0.99609    1.000
    O49      O        0.10627    0.36593    0.75233    1.000
    O50      O        0.04187    0.34203    0.54433    1.000
    O51      O        0.06277    0.30973    0.19233    1.000
    Mn18     Mn       0.64563    0.61747    0.64867    1.000
    C69      C        0.75563    0.67917    0.91167    1.000
    C70      C        0.79493    0.67377    0.79267    1.000
    C71      C        0.78303    0.65967    0.59867    1.000
    C72      C        0.81713    0.64847    0.47367    1.000
    H18      H        0.80840    0.63924    0.32943    1.000
    O52      O        0.77293    0.69927    0.08567    1.000
    O53      O        0.70853    0.67537    0.87767    1.000
    O54      O        0.72943    0.64307    0.52567    1.000
