data_functionalizedCrystal
_audit_creation_method	'EQeq! by Chris Wilmer'
_symmetry_space_group_name_H-M	'P1'
_symmetry_Int_Tables_number	1
_symmetry_cell_setting	triclinic
loop_
_symmetry_equiv_pos_as_xyz
  x,y,z
_cell_length_a	12.3418
_cell_length_b	21.655
_cell_length_c	34.182
_cell_angle_alpha	90
_cell_angle_beta	90
_cell_angle_gamma	90
loop_
_atom_site_label
_atom_site_type_symbol
_atom_site_fract_x
_atom_site_fract_y
_atom_site_fract_z
_atom_site_charge
Mof_N 	N 	0.6267	0.1937	0.07949	-0.239
Mof_N 	N 	0.3585	0.2255	0.00199	-0.087
Mof_C 	C 	0.5589	0.1889	0.0494	-0.004
Mof_H 	H 	0.5112	0.1544	0.0488	0.005
Mof_C 	C 	0.5534	0.2307	0.01895	0.023
Mof_C 	C 	0.6254	0.2809	0.0201	-0.054
Mof_H 	H 	0.6268	0.3101	0.9994	0.043
Mof_C 	C 	0.6934	0.2872	0.0514	-0.066
Mof_H 	H 	0.7408	0.3217	0.0531	0.043
Mof_C 	C 	0.6926	0.243	0.0805	0.029
Mof_H 	H 	0.7405	0.2477	0.102	-0.012
Mof_C 	C 	0.4723	0.2214	0.9869	-0.102
Mof_H 	H 	0.4838	0.1803	0.9748	0.055
Mof_H 	H 	0.4833	0.2531	0.9664	0.053
Mof_C 	C 	0.282	0.2078	0.9707	-0.056
Mof_H 	H 	0.2979	0.1652	0.9619	0.041
Mof_H 	H 	0.2911	0.2358	0.948	0.044
Mof_C 	C 	0.3338	0.2886	0.0145	-0.053
Mof_H 	H 	0.3433	0.3172	0.9922	0.045
Mof_H 	H 	0.3844	0.3011	0.0355	0.044
Mof_N 	N 	0.6267	0.6937	0.57949	-0.239
Mof_N 	N 	0.3585	0.7255	0.50199	-0.087
Mof_C 	C 	0.5589	0.6889	0.5494	-0.004
Mof_H 	H 	0.5112	0.6544	0.5488	0.005
Mof_C 	C 	0.5534	0.7307	0.51895	0.023
Mof_C 	C 	0.6254	0.7809	0.5201	-0.054
Mof_H 	H 	0.6268	0.8101	0.4994	0.042
Mof_C 	C 	0.6934	0.7872	0.5514	-0.067
Mof_H 	H 	0.7408	0.8217	0.5531	0.042
Mof_C 	C 	0.6926	0.743	0.5805	0.028
Mof_H 	H 	0.7405	0.7477	0.602	-0.013
Mof_C 	C 	0.4723	0.7214	0.4869	-0.103
Mof_H 	H 	0.4838	0.6803	0.4748	0.054
Mof_H 	H 	0.4833	0.7531	0.4664	0.052
Mof_C 	C 	0.282	0.7078	0.4707	-0.057
Mof_H 	H 	0.2979	0.6652	0.4619	0.04
Mof_H 	H 	0.2911	0.7358	0.448	0.043
Mof_C 	C 	0.3338	0.7886	0.5145	-0.054
Mof_H 	H 	0.3433	0.8172	0.4922	0.044
Mof_H 	H 	0.3844	0.8011	0.5355	0.043
Mof_N 	N 	0.1267	0.1937	0.57949	-0.24
Mof_N 	N 	0.8585	0.2255	0.50199	-0.088
Mof_C 	C 	0.0589	0.1889	0.5494	-0.005
Mof_H 	H 	0.0112	0.1544	0.5488	0.004
Mof_C 	C 	0.0534	0.2307	0.51895	0.022
Mof_C 	C 	0.1254	0.2809	0.5201	-0.055
Mof_H 	H 	0.1268	0.3101	0.4994	0.042
Mof_C 	C 	0.1934	0.2872	0.5514	-0.067
Mof_H 	H 	0.2408	0.3217	0.5531	0.042
Mof_C 	C 	0.1926	0.243	0.5805	0.028
Mof_H 	H 	0.2405	0.2477	0.602	-0.013
Mof_C 	C 	0.9723	0.2214	0.4869	-0.102
Mof_H 	H 	0.9838	0.1803	0.4748	0.054
Mof_H 	H 	0.9833	0.2531	0.4664	0.052
Mof_C 	C 	0.782	0.2078	0.4707	-0.057
Mof_H 	H 	0.7979	0.1652	0.4619	0.04
Mof_H 	H 	0.7911	0.2358	0.448	0.043
Mof_C 	C 	0.8338	0.2886	0.5145	-0.054
Mof_H 	H 	0.8433	0.3172	0.4922	0.044
Mof_H 	H 	0.8844	0.3011	0.5355	0.043
Mof_N 	N 	0.1267	0.6937	0.07949	-0.24
Mof_N 	N 	0.8585	0.7255	0.00199	-0.088
Mof_C 	C 	0.0589	0.6889	0.0494	-0.005
Mof_H 	H 	0.0112	0.6544	0.0488	0.004
Mof_C 	C 	0.0534	0.7307	0.01895	0.022
Mof_C 	C 	0.1254	0.7809	0.0201	-0.055
Mof_H 	H 	0.1268	0.8101	0.9994	0.042
Mof_C 	C 	0.1934	0.7872	0.0514	-0.067
Mof_H 	H 	0.2408	0.8217	0.0531	0.042
Mof_C 	C 	0.1926	0.743	0.0805	0.028
Mof_H 	H 	0.2405	0.7477	0.102	-0.013
Mof_C 	C 	0.9723	0.7214	0.9869	-0.103
Mof_H 	H 	0.9838	0.6803	0.9748	0.054
Mof_H 	H 	0.9833	0.7531	0.9664	0.052
Mof_C 	C 	0.782	0.7078	0.9707	-0.057
Mof_H 	H 	0.7979	0.6652	0.9619	0.04
Mof_H 	H 	0.7911	0.7358	0.948	0.043
Mof_C 	C 	0.8338	0.7886	0.0145	-0.054
Mof_H 	H 	0.8433	0.8172	0.9922	0.044
Mof_H 	H 	0.8844	0.8011	0.0355	0.043
Mof_N 	N 	0.1233	0.5563	0.07949	-0.24
Mof_N 	N 	0.3915	0.5245	0.00199	-0.088
Mof_C 	C 	0.1911	0.5611	0.0494	-0.005
Mof_H 	H 	0.2388	0.5956	0.0488	0.004
Mof_C 	C 	0.1966	0.5193	0.01895	0.022
Mof_C 	C 	0.1246	0.4691	0.0201	-0.055
Mof_H 	H 	0.1232	0.4399	0.9994	0.042
Mof_C 	C 	0.0566	0.4628	0.0514	-0.067
Mof_H 	H 	0.0092	0.4283	0.0531	0.042
Mof_C 	C 	0.0574	0.507	0.0805	0.028
Mof_H 	H 	0.0095	0.5023	0.102	-0.013
Mof_C 	C 	0.2777	0.5286	0.9869	-0.103
Mof_H 	H 	0.2662	0.5697	0.9748	0.054
Mof_H 	H 	0.2667	0.4969	0.9664	0.052
Mof_C 	C 	0.468	0.5422	0.9707	-0.057
Mof_H 	H 	0.4521	0.5848	0.9619	0.04
Mof_H 	H 	0.4589	0.5142	0.948	0.043
Mof_C 	C 	0.4162	0.4614	0.0145	-0.054
Mof_H 	H 	0.4067	0.4328	0.9922	0.044
Mof_H 	H 	0.3656	0.4489	0.0355	0.043
Mof_N 	N 	0.1233	0.0563	0.57949	-0.24
Mof_N 	N 	0.3915	0.0245	0.50199	-0.088
Mof_C 	C 	0.1911	0.0611	0.5494	-0.005
Mof_H 	H 	0.2388	0.0956	0.5488	0.004
Mof_C 	C 	0.1966	0.0193	0.51895	0.022
Mof_C 	C 	0.1246	0.9691	0.5201	-0.055
Mof_H 	H 	0.1232	0.9399	0.4994	0.042
Mof_C 	C 	0.0566	0.9628	0.5514	-0.066
Mof_H 	H 	0.0092	0.9283	0.5531	0.042
Mof_C 	C 	0.0574	0.007	0.5805	0.027
Mof_H 	H 	0.0095	0.0023	0.602	-0.013
Mof_C 	C 	0.2777	0.0286	0.4869	-0.103
Mof_H 	H 	0.2662	0.0697	0.4748	0.054
Mof_H 	H 	0.2667	0.9969	0.4664	0.052
Mof_C 	C 	0.468	0.0422	0.4707	-0.057
Mof_H 	H 	0.4521	0.0848	0.4619	0.04
Mof_H 	H 	0.4589	0.0142	0.448	0.043
Mof_C 	C 	0.4162	0.9614	0.5145	-0.054
Mof_H 	H 	0.4067	0.9328	0.4922	0.044
Mof_H 	H 	0.3656	0.9489	0.5355	0.043
Mof_N 	N 	0.6233	0.5563	0.57949	-0.24
Mof_N 	N 	0.8915	0.5245	0.50199	-0.088
Mof_C 	C 	0.6911	0.5611	0.5494	-0.005
Mof_H 	H 	0.7388	0.5956	0.5488	0.004
Mof_C 	C 	0.6966	0.5193	0.51895	0.022
Mof_C 	C 	0.6246	0.4691	0.5201	-0.055
Mof_H 	H 	0.6232	0.4399	0.4994	0.042
Mof_C 	C 	0.5566	0.4628	0.5514	-0.067
Mof_H 	H 	0.5092	0.4283	0.5531	0.042
Mof_C 	C 	0.5574	0.507	0.5805	0.028
Mof_H 	H 	0.5095	0.5023	0.602	-0.013
Mof_C 	C 	0.7777	0.5286	0.4869	-0.103
Mof_H 	H 	0.7662	0.5697	0.4748	0.054
Mof_H 	H 	0.7667	0.4969	0.4664	0.052
Mof_C 	C 	0.968	0.5422	0.4707	-0.057
Mof_H 	H 	0.9521	0.5848	0.4619	0.04
Mof_H 	H 	0.9589	0.5142	0.448	0.043
Mof_C 	C 	0.9162	0.4614	0.5145	-0.054
Mof_H 	H 	0.9067	0.4328	0.4922	0.044
Mof_H 	H 	0.8656	0.4489	0.5355	0.043
Mof_N 	N 	0.6233	0.0563	0.07949	-0.24
Mof_N 	N 	0.8915	0.0245	0.00199	-0.088
Mof_C 	C 	0.6911	0.0611	0.0494	-0.005
Mof_H 	H 	0.7388	0.0956	0.0488	0.004
Mof_C 	C 	0.6966	0.0193	0.01895	0.021
Mof_C 	C 	0.6246	0.9691	0.0201	-0.054
Mof_H 	H 	0.6232	0.9399	0.9994	0.042
Mof_C 	C 	0.5566	0.9628	0.0514	-0.067
Mof_H 	H 	0.5092	0.9283	0.0531	0.042
Mof_C 	C 	0.5574	0.007	0.0805	0.028
Mof_H 	H 	0.5095	0.0023	0.102	-0.013
Mof_C 	C 	0.7777	0.0286	0.9869	-0.102
Mof_H 	H 	0.7662	0.0697	0.9748	0.054
Mof_H 	H 	0.7667	0.9969	0.9664	0.051
Mof_C 	C 	0.968	0.0422	0.9707	-0.056
Mof_H 	H 	0.9521	0.0848	0.9619	0.04
Mof_H 	H 	0.9589	0.0142	0.948	0.043
Mof_C 	C 	0.9162	0.9614	0.0145	-0.054
Mof_H 	H 	0.9067	0.9328	0.9922	0.044
Mof_H 	H 	0.8656	0.9489	0.0355	0.043
Mof_N 	N 	0.1233	0.1937	0.67051	-0.24
Mof_N 	N 	0.3915	0.2255	0.74801	-0.088
Mof_C 	C 	0.1911	0.1889	0.7006	-0.005
Mof_H 	H 	0.2388	0.1544	0.7012	0.004
Mof_C 	C 	0.1966	0.2307	0.73105	0.022
Mof_C 	C 	0.1246	0.2809	0.7299	-0.055
Mof_H 	H 	0.1232	0.3101	0.7506	0.042
Mof_C 	C 	0.0566	0.2872	0.6986	-0.067
Mof_H 	H 	0.0092	0.3217	0.6969	0.042
Mof_C 	C 	0.0574	0.243	0.6695	0.028
Mof_H 	H 	0.0095	0.2477	0.648	-0.013
Mof_C 	C 	0.2777	0.2214	0.7631	-0.103
Mof_H 	H 	0.2662	0.1803	0.7752	0.054
Mof_H 	H 	0.2667	0.2531	0.7836	0.052
Mof_C 	C 	0.468	0.2078	0.7793	-0.057
Mof_H 	H 	0.4521	0.1652	0.7881	0.04
Mof_H 	H 	0.4589	0.2358	0.802	0.043
Mof_C 	C 	0.4162	0.2886	0.7355	-0.054
Mof_H 	H 	0.4067	0.3172	0.7578	0.044
Mof_H 	H 	0.3656	0.3011	0.7145	0.043
Mof_N 	N 	0.1233	0.6937	0.17051	-0.24
Mof_N 	N 	0.3915	0.7255	0.24801	-0.088
Mof_C 	C 	0.1911	0.6889	0.2006	-0.005
Mof_H 	H 	0.2388	0.6544	0.2012	0.004
Mof_C 	C 	0.1966	0.7307	0.23105	0.022
Mof_C 	C 	0.1246	0.7809	0.2299	-0.055
Mof_H 	H 	0.1232	0.8101	0.2506	0.042
Mof_C 	C 	0.0566	0.7872	0.1986	-0.067
Mof_H 	H 	0.0092	0.8217	0.1969	0.042
Mof_C 	C 	0.0574	0.743	0.1695	0.028
Mof_H 	H 	0.0095	0.7477	0.148	-0.013
Mof_C 	C 	0.2777	0.7214	0.2631	-0.103
Mof_H 	H 	0.2662	0.6803	0.2752	0.054
Mof_H 	H 	0.2667	0.7531	0.2836	0.052
Mof_C 	C 	0.468	0.7078	0.2793	-0.057
Mof_H 	H 	0.4521	0.6652	0.2881	0.04
Mof_H 	H 	0.4589	0.7358	0.302	0.043
Mof_C 	C 	0.4162	0.7886	0.2355	-0.054
Mof_H 	H 	0.4067	0.8172	0.2578	0.044
Mof_H 	H 	0.3656	0.8011	0.2145	0.043
Mof_N 	N 	0.6233	0.1937	0.17051	-0.24
Mof_N 	N 	0.8915	0.2255	0.24801	-0.088
Mof_C 	C 	0.6911	0.1889	0.2006	-0.005
Mof_H 	H 	0.7388	0.1544	0.2012	0.004
Mof_C 	C 	0.6966	0.2307	0.23105	0.022
Mof_C 	C 	0.6246	0.2809	0.2299	-0.055
Mof_H 	H 	0.6232	0.3101	0.2506	0.042
Mof_C 	C 	0.5566	0.2872	0.1986	-0.067
Mof_H 	H 	0.5092	0.3217	0.1969	0.042
Mof_C 	C 	0.5574	0.243	0.1695	0.028
Mof_H 	H 	0.5095	0.2477	0.148	-0.013
Mof_C 	C 	0.7777	0.2214	0.2631	-0.103
Mof_H 	H 	0.7662	0.1803	0.2752	0.054
Mof_H 	H 	0.7667	0.2531	0.2836	0.052
Mof_C 	C 	0.968	0.2078	0.2793	-0.057
Mof_H 	H 	0.9521	0.1652	0.2881	0.04
Mof_H 	H 	0.9589	0.2358	0.302	0.043
Mof_C 	C 	0.9162	0.2886	0.2355	-0.054
Mof_H 	H 	0.9067	0.3172	0.2578	0.044
Mof_H 	H 	0.8656	0.3011	0.2145	0.043
Mof_N 	N 	0.6233	0.6937	0.67051	-0.24
Mof_N 	N 	0.8915	0.7255	0.74801	-0.088
Mof_C 	C 	0.6911	0.6889	0.7006	-0.005
Mof_H 	H 	0.7388	0.6544	0.7012	0.004
Mof_C 	C 	0.6966	0.7307	0.73105	0.022
Mof_C 	C 	0.6246	0.7809	0.7299	-0.055
Mof_H 	H 	0.6232	0.8101	0.7506	0.042
Mof_C 	C 	0.5566	0.7872	0.6986	-0.067
Mof_H 	H 	0.5092	0.8217	0.6969	0.042
Mof_C 	C 	0.5574	0.743	0.6695	0.028
Mof_H 	H 	0.5095	0.7477	0.648	-0.013
Mof_C 	C 	0.7777	0.7214	0.7631	-0.103
Mof_H 	H 	0.7662	0.6803	0.7752	0.054
Mof_H 	H 	0.7667	0.7531	0.7836	0.052
Mof_C 	C 	0.968	0.7078	0.7793	-0.057
Mof_H 	H 	0.9521	0.6652	0.7881	0.04
Mof_H 	H 	0.9589	0.7358	0.802	0.043
Mof_C 	C 	0.9162	0.7886	0.7355	-0.054
Mof_H 	H 	0.9067	0.8172	0.7578	0.044
Mof_H 	H 	0.8656	0.8011	0.7145	0.043
Mof_N 	N 	0.6267	0.5563	0.67051	-0.24
Mof_N 	N 	0.3585	0.5245	0.74801	-0.088
Mof_C 	C 	0.5589	0.5611	0.7006	-0.005
Mof_H 	H 	0.5112	0.5956	0.7012	0.004
Mof_C 	C 	0.5534	0.5193	0.73105	0.022
Mof_C 	C 	0.6254	0.4691	0.7299	-0.055
Mof_H 	H 	0.6268	0.4399	0.7506	0.042
Mof_C 	C 	0.6934	0.4628	0.6986	-0.067
Mof_H 	H 	0.7408	0.4283	0.6969	0.042
Mof_C 	C 	0.6926	0.507	0.6695	0.028
Mof_H 	H 	0.7405	0.5023	0.648	-0.013
Mof_C 	C 	0.4723	0.5286	0.7631	-0.103
Mof_H 	H 	0.4838	0.5697	0.7752	0.054
Mof_H 	H 	0.4833	0.4969	0.7836	0.052
Mof_C 	C 	0.282	0.5422	0.7793	-0.057
Mof_H 	H 	0.2979	0.5848	0.7881	0.04
Mof_H 	H 	0.2911	0.5142	0.802	0.043
Mof_C 	C 	0.3338	0.4614	0.7355	-0.054
Mof_H 	H 	0.3433	0.4328	0.7578	0.044
Mof_H 	H 	0.3844	0.4489	0.7145	0.043
Mof_N 	N 	0.6267	0.0563	0.17051	-0.24
Mof_N 	N 	0.3585	0.0245	0.24801	-0.088
Mof_C 	C 	0.5589	0.0611	0.2006	-0.005
Mof_H 	H 	0.5112	0.0956	0.2012	0.004
Mof_C 	C 	0.5534	0.0193	0.23105	0.022
Mof_C 	C 	0.6254	0.9691	0.2299	-0.055
Mof_H 	H 	0.6268	0.9399	0.2506	0.042
Mof_C 	C 	0.6934	0.9628	0.1986	-0.067
Mof_H 	H 	0.7408	0.9283	0.1969	0.042
Mof_C 	C 	0.6926	0.007	0.1695	0.028
Mof_H 	H 	0.7405	0.0023	0.148	-0.013
Mof_C 	C 	0.4723	0.0286	0.2631	-0.103
Mof_H 	H 	0.4838	0.0697	0.2752	0.054
Mof_H 	H 	0.4833	0.9969	0.2836	0.052
Mof_C 	C 	0.282	0.0422	0.2793	-0.057
Mof_H 	H 	0.2979	0.0848	0.2881	0.04
Mof_H 	H 	0.2911	0.0142	0.302	0.043
Mof_C 	C 	0.3338	0.9614	0.2355	-0.054
Mof_H 	H 	0.3433	0.9328	0.2578	0.044
Mof_H 	H 	0.3844	0.9489	0.2145	0.043
Mof_N 	N 	0.1267	0.5563	0.17051	-0.24
Mof_N 	N 	0.8585	0.5245	0.24801	-0.088
Mof_C 	C 	0.0589	0.5611	0.2006	-0.005
Mof_H 	H 	0.0112	0.5956	0.2012	0.004
Mof_C 	C 	0.0534	0.5193	0.23105	0.022
Mof_C 	C 	0.1254	0.4691	0.2299	-0.055
Mof_H 	H 	0.1268	0.4399	0.2506	0.042
Mof_C 	C 	0.1934	0.4628	0.1986	-0.067
Mof_H 	H 	0.2408	0.4283	0.1969	0.042
Mof_C 	C 	0.1926	0.507	0.1695	0.028
Mof_H 	H 	0.2405	0.5023	0.148	-0.013
Mof_C 	C 	0.9723	0.5286	0.2631	-0.103
Mof_H 	H 	0.9838	0.5697	0.2752	0.054
Mof_H 	H 	0.9833	0.4969	0.2836	0.052
Mof_C 	C 	0.782	0.5422	0.2793	-0.057
Mof_H 	H 	0.7979	0.5848	0.2881	0.04
Mof_H 	H 	0.7911	0.5142	0.302	0.043
Mof_C 	C 	0.8338	0.4614	0.2355	-0.054
Mof_H 	H 	0.8433	0.4328	0.2578	0.044
Mof_H 	H 	0.8844	0.4489	0.2145	0.043
Mof_N 	N 	0.1267	0.0563	0.67051	-0.24
Mof_N 	N 	0.8585	0.0245	0.74801	-0.088
Mof_C 	C 	0.0589	0.0611	0.7006	-0.005
Mof_H 	H 	0.0112	0.0956	0.7012	0.004
Mof_C 	C 	0.0534	0.0193	0.73105	0.021
Mof_C 	C 	0.1254	0.9691	0.7299	-0.054
Mof_H 	H 	0.1268	0.9399	0.7506	0.042
Mof_C 	C 	0.1934	0.9628	0.6986	-0.067
Mof_H 	H 	0.2408	0.9283	0.6969	0.042
Mof_C 	C 	0.1926	0.007	0.6695	0.028
Mof_H 	H 	0.2405	0.0023	0.648	-0.013
Mof_C 	C 	0.9723	0.0286	0.7631	-0.101
Mof_H 	H 	0.9838	0.0697	0.7752	0.054
Mof_H 	H 	0.9833	0.9969	0.7836	0.051
Mof_C 	C 	0.782	0.0422	0.7793	-0.057
Mof_H 	H 	0.7979	0.0848	0.7881	0.04
Mof_H 	H 	0.7911	0.0142	0.802	0.043
Mof_C 	C 	0.8338	0.9614	0.7355	-0.054
Mof_H 	H 	0.8433	0.9328	0.7578	0.044
Mof_H 	H 	0.8844	0.9489	0.7145	0.043
Mof_N 	N 	0.3733	0.8063	0.92051	-0.24
Mof_N 	N 	0.6415	0.7745	0.99801	-0.088
Mof_C 	C 	0.4411	0.8111	0.9506	-0.005
Mof_H 	H 	0.4888	0.8456	0.9512	0.004
Mof_C 	C 	0.4466	0.7693	0.98105	0.022
Mof_C 	C 	0.3746	0.7191	0.9799	-0.055
Mof_H 	H 	0.3732	0.6899	0.0006	0.042
Mof_C 	C 	0.3066	0.7128	0.9486	-0.067
Mof_H 	H 	0.2592	0.6783	0.9469	0.042
Mof_C 	C 	0.3074	0.757	0.9195	0.028
Mof_H 	H 	0.2595	0.7523	0.898	-0.013
Mof_C 	C 	0.5277	0.7786	0.0131	-0.103
Mof_H 	H 	0.5162	0.8197	0.0252	0.054
Mof_H 	H 	0.5167	0.7469	0.0336	0.052
Mof_C 	C 	0.718	0.7922	0.0293	-0.057
Mof_H 	H 	0.7021	0.8348	0.0381	0.04
Mof_H 	H 	0.7089	0.7642	0.052	0.043
Mof_C 	C 	0.6662	0.7114	0.9855	-0.054
Mof_H 	H 	0.6567	0.6828	0.0078	0.044
Mof_H 	H 	0.6156	0.6989	0.9645	0.043
Mof_N 	N 	0.3733	0.3063	0.42051	-0.24
Mof_N 	N 	0.6415	0.2745	0.49801	-0.088
Mof_C 	C 	0.4411	0.3111	0.4506	-0.005
Mof_H 	H 	0.4888	0.3456	0.4512	0.004
Mof_C 	C 	0.4466	0.2693	0.48105	0.022
Mof_C 	C 	0.3746	0.2191	0.4799	-0.055
Mof_H 	H 	0.3732	0.1899	0.5006	0.042
Mof_C 	C 	0.3066	0.2128	0.4486	-0.067
Mof_H 	H 	0.2592	0.1783	0.4469	0.042
Mof_C 	C 	0.3074	0.257	0.4195	0.028
Mof_H 	H 	0.2595	0.2523	0.398	-0.013
Mof_C 	C 	0.5277	0.2786	0.5131	-0.103
Mof_H 	H 	0.5162	0.3197	0.5252	0.054
Mof_H 	H 	0.5167	0.2469	0.5336	0.052
Mof_C 	C 	0.718	0.2922	0.5293	-0.057
Mof_H 	H 	0.7021	0.3348	0.5381	0.04
Mof_H 	H 	0.7089	0.2642	0.552	0.043
Mof_C 	C 	0.6662	0.2114	0.4855	-0.054
Mof_H 	H 	0.6567	0.1828	0.5078	0.044
Mof_H 	H 	0.6156	0.1989	0.4645	0.043
Mof_N 	N 	0.8733	0.8063	0.42051	-0.24
Mof_N 	N 	0.1415	0.7745	0.49801	-0.088
Mof_C 	C 	0.9411	0.8111	0.4506	-0.005
Mof_H 	H 	0.9888	0.8456	0.4512	0.004
Mof_C 	C 	0.9466	0.7693	0.48105	0.022
Mof_C 	C 	0.8746	0.7191	0.4799	-0.055
Mof_H 	H 	0.8732	0.6899	0.5006	0.042
Mof_C 	C 	0.8066	0.7128	0.4486	-0.067
Mof_H 	H 	0.7592	0.6783	0.4469	0.042
Mof_C 	C 	0.8074	0.757	0.4195	0.028
Mof_H 	H 	0.7595	0.7523	0.398	-0.013
Mof_C 	C 	0.0277	0.7786	0.5131	-0.102
Mof_H 	H 	0.0162	0.8197	0.5252	0.054
Mof_H 	H 	0.0167	0.7469	0.5336	0.052
Mof_C 	C 	0.218	0.7922	0.5293	-0.057
Mof_H 	H 	0.2021	0.8348	0.5381	0.04
Mof_H 	H 	0.2089	0.7642	0.552	0.043
Mof_C 	C 	0.1662	0.7114	0.4855	-0.054
Mof_H 	H 	0.1567	0.6828	0.5078	0.044
Mof_H 	H 	0.1156	0.6989	0.4645	0.043
Mof_N 	N 	0.8733	0.3063	0.92051	-0.24
Mof_N 	N 	0.1415	0.2745	0.99801	-0.088
Mof_C 	C 	0.9411	0.3111	0.9506	-0.005
Mof_H 	H 	0.9888	0.3456	0.9512	0.004
Mof_C 	C 	0.9466	0.2693	0.98105	0.022
Mof_C 	C 	0.8746	0.2191	0.9799	-0.055
Mof_H 	H 	0.8732	0.1899	0.0006	0.042
Mof_C 	C 	0.8066	0.2128	0.9486	-0.067
Mof_H 	H 	0.7592	0.1783	0.9469	0.042
Mof_C 	C 	0.8074	0.257	0.9195	0.028
Mof_H 	H 	0.7595	0.2523	0.898	-0.013
Mof_C 	C 	0.0277	0.2786	0.0131	-0.103
Mof_H 	H 	0.0162	0.3197	0.0252	0.054
Mof_H 	H 	0.0167	0.2469	0.0336	0.052
Mof_C 	C 	0.218	0.2922	0.0293	-0.057
Mof_H 	H 	0.2021	0.3348	0.0381	0.04
Mof_H 	H 	0.2089	0.2642	0.052	0.043
Mof_C 	C 	0.1662	0.2114	0.9855	-0.054
Mof_H 	H 	0.1567	0.1828	0.0078	0.044
Mof_H 	H 	0.1156	0.1989	0.9645	0.043
Mof_N 	N 	0.8767	0.4437	0.92051	-0.24
Mof_N 	N 	0.6085	0.4755	0.99801	-0.088
Mof_C 	C 	0.8089	0.4389	0.9506	-0.005
Mof_H 	H 	0.7612	0.4044	0.9512	0.004
Mof_C 	C 	0.8034	0.4807	0.98105	0.022
Mof_C 	C 	0.8754	0.5309	0.9799	-0.055
Mof_H 	H 	0.8768	0.5601	0.0006	0.042
Mof_C 	C 	0.9434	0.5372	0.9486	-0.067
Mof_H 	H 	0.9908	0.5717	0.9469	0.042
Mof_C 	C 	0.9426	0.493	0.9195	0.028
Mof_H 	H 	0.9905	0.4977	0.898	-0.013
Mof_C 	C 	0.7223	0.4714	0.0131	-0.103
Mof_H 	H 	0.7338	0.4303	0.0252	0.054
Mof_H 	H 	0.7333	0.5031	0.0336	0.052
Mof_C 	C 	0.532	0.4578	0.0293	-0.057
Mof_H 	H 	0.5479	0.4152	0.0381	0.04
Mof_H 	H 	0.5411	0.4858	0.052	0.043
Mof_C 	C 	0.5838	0.5386	0.9855	-0.054
Mof_H 	H 	0.5933	0.5672	0.0078	0.044
Mof_H 	H 	0.6344	0.5511	0.9645	0.043
Mof_N 	N 	0.8767	0.9437	0.42051	-0.24
Mof_N 	N 	0.6085	0.9755	0.49801	-0.088
Mof_C 	C 	0.8089	0.9389	0.4506	-0.005
Mof_H 	H 	0.7612	0.9044	0.4512	0.004
Mof_C 	C 	0.8034	0.9807	0.48105	0.022
Mof_C 	C 	0.8754	0.0309	0.4799	-0.055
Mof_H 	H 	0.8768	0.0601	0.5006	0.042
Mof_C 	C 	0.9434	0.0372	0.4486	-0.066
Mof_H 	H 	0.9908	0.0717	0.4469	0.042
Mof_C 	C 	0.9426	0.993	0.4195	0.027
Mof_H 	H 	0.9905	0.9977	0.398	-0.013
Mof_C 	C 	0.7223	0.9714	0.5131	-0.103
Mof_H 	H 	0.7338	0.9303	0.5252	0.054
Mof_H 	H 	0.7333	0.0031	0.5336	0.052
Mof_C 	C 	0.532	0.9578	0.5293	-0.057
Mof_H 	H 	0.5479	0.9152	0.5381	0.04
Mof_H 	H 	0.5411	0.9858	0.552	0.043
Mof_C 	C 	0.5838	0.0386	0.4855	-0.054
Mof_H 	H 	0.5933	0.0672	0.5078	0.044
Mof_H 	H 	0.6344	0.0511	0.4645	0.043
Mof_N 	N 	0.3767	0.4437	0.42051	-0.24
Mof_N 	N 	0.1085	0.4755	0.49801	-0.088
Mof_C 	C 	0.3089	0.4389	0.4506	-0.005
Mof_H 	H 	0.2612	0.4044	0.4512	0.004
Mof_C 	C 	0.3034	0.4807	0.48105	0.022
Mof_C 	C 	0.3754	0.5309	0.4799	-0.055
Mof_H 	H 	0.3768	0.5601	0.5006	0.042
Mof_C 	C 	0.4434	0.5372	0.4486	-0.067
Mof_H 	H 	0.4908	0.5717	0.4469	0.042
Mof_C 	C 	0.4426	0.493	0.4195	0.028
Mof_H 	H 	0.4905	0.4977	0.398	-0.013
Mof_C 	C 	0.2223	0.4714	0.5131	-0.103
Mof_H 	H 	0.2338	0.4303	0.5252	0.054
Mof_H 	H 	0.2333	0.5031	0.5336	0.052
Mof_C 	C 	0.032	0.4578	0.5293	-0.057
Mof_H 	H 	0.0479	0.4152	0.5381	0.04
Mof_H 	H 	0.0411	0.4858	0.552	0.043
Mof_C 	C 	0.0838	0.5386	0.4855	-0.054
Mof_H 	H 	0.0933	0.5672	0.5078	0.044
Mof_H 	H 	0.1344	0.5511	0.4645	0.043
Mof_N 	N 	0.3767	0.9437	0.92051	-0.24
Mof_N 	N 	0.1085	0.9755	0.99801	-0.088
Mof_C 	C 	0.3089	0.9389	0.9506	-0.005
Mof_H 	H 	0.2612	0.9044	0.9512	0.004
Mof_C 	C 	0.3034	0.9807	0.98105	0.021
Mof_C 	C 	0.3754	0.0309	0.9799	-0.054
Mof_H 	H 	0.3768	0.0601	0.0006	0.042
Mof_C 	C 	0.4434	0.0372	0.9486	-0.067
Mof_H 	H 	0.4908	0.0717	0.9469	0.042
Mof_C 	C 	0.4426	0.993	0.9195	0.028
Mof_H 	H 	0.4905	0.9977	0.898	-0.013
Mof_C 	C 	0.2223	0.9714	0.0131	-0.102
Mof_H 	H 	0.2338	0.9303	0.0252	0.054
Mof_H 	H 	0.2333	0.0031	0.0336	0.051
Mof_C 	C 	0.032	0.9578	0.0293	-0.056
Mof_H 	H 	0.0479	0.9152	0.0381	0.04
Mof_H 	H 	0.0411	0.9858	0.052	0.043
Mof_C 	C 	0.0838	0.0386	0.9855	-0.054
Mof_H 	H 	0.0933	0.0672	0.0078	0.044
Mof_H 	H 	0.1344	0.0511	0.9645	0.043
Mof_N 	N 	0.8767	0.8063	0.32949	-0.24
Mof_N 	N 	0.6085	0.7745	0.25199	-0.088
Mof_C 	C 	0.8089	0.8111	0.2994	-0.005
Mof_H 	H 	0.7612	0.8456	0.2988	0.004
Mof_C 	C 	0.8034	0.7693	0.26895	0.022
Mof_C 	C 	0.8754	0.7191	0.2701	-0.055
Mof_H 	H 	0.8768	0.6899	0.2494	0.042
Mof_C 	C 	0.9434	0.7128	0.3014	-0.067
Mof_H 	H 	0.9908	0.6783	0.3031	0.042
Mof_C 	C 	0.9426	0.757	0.3305	0.028
Mof_H 	H 	0.9905	0.7523	0.352	-0.013
Mof_C 	C 	0.7223	0.7786	0.2369	-0.103
Mof_H 	H 	0.7338	0.8197	0.2248	0.054
Mof_H 	H 	0.7333	0.7469	0.2164	0.052
Mof_C 	C 	0.532	0.7922	0.2207	-0.057
Mof_H 	H 	0.5479	0.8348	0.2119	0.04
Mof_H 	H 	0.5411	0.7642	0.198	0.043
Mof_C 	C 	0.5838	0.7114	0.2645	-0.054
Mof_H 	H 	0.5933	0.6828	0.2422	0.044
Mof_H 	H 	0.6344	0.6989	0.2855	0.043
Mof_N 	N 	0.8767	0.3063	0.82949	-0.24
Mof_N 	N 	0.6085	0.2745	0.75199	-0.088
Mof_C 	C 	0.8089	0.3111	0.7994	-0.005
Mof_H 	H 	0.7612	0.3456	0.7988	0.004
Mof_C 	C 	0.8034	0.2693	0.76895	0.022
Mof_C 	C 	0.8754	0.2191	0.7701	-0.055
Mof_H 	H 	0.8768	0.1899	0.7494	0.042
Mof_C 	C 	0.9434	0.2128	0.8014	-0.067
Mof_H 	H 	0.9908	0.1783	0.8031	0.042
Mof_C 	C 	0.9426	0.257	0.8305	0.028
Mof_H 	H 	0.9905	0.2523	0.852	-0.013
Mof_C 	C 	0.7223	0.2786	0.7369	-0.103
Mof_H 	H 	0.7338	0.3197	0.7248	0.054
Mof_H 	H 	0.7333	0.2469	0.7164	0.052
Mof_C 	C 	0.532	0.2922	0.7207	-0.057
Mof_H 	H 	0.5479	0.3348	0.7119	0.04
Mof_H 	H 	0.5411	0.2642	0.698	0.043
Mof_C 	C 	0.5838	0.2114	0.7645	-0.054
Mof_H 	H 	0.5933	0.1828	0.7422	0.044
Mof_H 	H 	0.6344	0.1989	0.7855	0.043
Mof_N 	N 	0.3767	0.8063	0.82949	-0.24
Mof_N 	N 	0.1085	0.7745	0.75199	-0.088
Mof_C 	C 	0.3089	0.8111	0.7994	-0.005
Mof_H 	H 	0.2612	0.8456	0.7988	0.004
Mof_C 	C 	0.3034	0.7693	0.76895	0.022
Mof_C 	C 	0.3754	0.7191	0.7701	-0.055
Mof_H 	H 	0.3768	0.6899	0.7494	0.042
Mof_C 	C 	0.4434	0.7128	0.8014	-0.067
Mof_H 	H 	0.4908	0.6783	0.8031	0.042
Mof_C 	C 	0.4426	0.757	0.8305	0.028
Mof_H 	H 	0.4905	0.7523	0.852	-0.013
Mof_C 	C 	0.2223	0.7786	0.7369	-0.103
Mof_H 	H 	0.2338	0.8197	0.7248	0.054
Mof_H 	H 	0.2333	0.7469	0.7164	0.052
Mof_C 	C 	0.032	0.7922	0.7207	-0.057
Mof_H 	H 	0.0479	0.8348	0.7119	0.04
Mof_H 	H 	0.0411	0.7642	0.698	0.043
Mof_C 	C 	0.0838	0.7114	0.7645	-0.054
Mof_H 	H 	0.0933	0.6828	0.7422	0.044
Mof_H 	H 	0.1344	0.6989	0.7855	0.043
Mof_N 	N 	0.3767	0.3063	0.32949	-0.24
Mof_N 	N 	0.1085	0.2745	0.25199	-0.088
Mof_C 	C 	0.3089	0.3111	0.2994	-0.005
Mof_H 	H 	0.2612	0.3456	0.2988	0.004
Mof_C 	C 	0.3034	0.2693	0.26895	0.022
Mof_C 	C 	0.3754	0.2191	0.2701	-0.055
Mof_H 	H 	0.3768	0.1899	0.2494	0.042
Mof_C 	C 	0.4434	0.2128	0.3014	-0.067
Mof_H 	H 	0.4908	0.1783	0.3031	0.042
Mof_C 	C 	0.4426	0.257	0.3305	0.028
Mof_H 	H 	0.4905	0.2523	0.352	-0.013
Mof_C 	C 	0.2223	0.2786	0.2369	-0.103
Mof_H 	H 	0.2338	0.3197	0.2248	0.054
Mof_H 	H 	0.2333	0.2469	0.2164	0.052
Mof_C 	C 	0.032	0.2922	0.2207	-0.057
Mof_H 	H 	0.0479	0.3348	0.2119	0.04
Mof_H 	H 	0.0411	0.2642	0.198	0.043
Mof_C 	C 	0.0838	0.2114	0.2645	-0.054
Mof_H 	H 	0.0933	0.1828	0.2422	0.044
Mof_H 	H 	0.1344	0.1989	0.2855	0.043
Mof_N 	N 	0.3733	0.4437	0.32949	-0.24
Mof_N 	N 	0.6415	0.4755	0.25199	-0.088
Mof_C 	C 	0.4411	0.4389	0.2994	-0.005
Mof_H 	H 	0.4888	0.4044	0.2988	0.004
Mof_C 	C 	0.4466	0.4807	0.26895	0.022
Mof_C 	C 	0.3746	0.5309	0.2701	-0.055
Mof_H 	H 	0.3732	0.5601	0.2494	0.042
Mof_C 	C 	0.3066	0.5372	0.3014	-0.067
Mof_H 	H 	0.2592	0.5717	0.3031	0.042
Mof_C 	C 	0.3074	0.493	0.3305	0.028
Mof_H 	H 	0.2595	0.4977	0.352	-0.013
Mof_C 	C 	0.5277	0.4714	0.2369	-0.103
Mof_H 	H 	0.5162	0.4303	0.2248	0.054
Mof_H 	H 	0.5167	0.5031	0.2164	0.052
Mof_C 	C 	0.718	0.4578	0.2207	-0.057
Mof_H 	H 	0.7021	0.4152	0.2119	0.04
Mof_H 	H 	0.7089	0.4858	0.198	0.043
Mof_C 	C 	0.6662	0.5386	0.2645	-0.054
Mof_H 	H 	0.6567	0.5672	0.2422	0.044
Mof_H 	H 	0.6156	0.5511	0.2855	0.043
Mof_N 	N 	0.3733	0.9437	0.82949	-0.24
Mof_N 	N 	0.6415	0.9755	0.75199	-0.088
Mof_C 	C 	0.4411	0.9389	0.7994	-0.005
Mof_H 	H 	0.4888	0.9044	0.7988	0.004
Mof_C 	C 	0.4466	0.9807	0.76895	0.022
Mof_C 	C 	0.3746	0.0309	0.7701	-0.055
Mof_H 	H 	0.3732	0.0601	0.7494	0.042
Mof_C 	C 	0.3066	0.0372	0.8014	-0.067
Mof_H 	H 	0.2592	0.0717	0.8031	0.042
Mof_C 	C 	0.3074	0.993	0.8305	0.028
Mof_H 	H 	0.2595	0.9977	0.852	-0.013
Mof_C 	C 	0.5277	0.9714	0.7369	-0.103
Mof_H 	H 	0.5162	0.9303	0.7248	0.054
Mof_H 	H 	0.5167	0.0031	0.7164	0.052
Mof_C 	C 	0.718	0.9578	0.7207	-0.057
Mof_H 	H 	0.7021	0.9152	0.7119	0.04
Mof_H 	H 	0.7089	0.9858	0.698	0.043
Mof_C 	C 	0.6662	0.0386	0.7645	-0.054
Mof_H 	H 	0.6567	0.0672	0.7422	0.044
Mof_H 	H 	0.6156	0.0511	0.7855	0.043
Mof_N 	N 	0.8733	0.4437	0.82949	-0.24
Mof_N 	N 	0.1415	0.4755	0.75199	-0.088
Mof_C 	C 	0.9411	0.4389	0.7994	-0.005
Mof_H 	H 	0.9888	0.4044	0.7988	0.004
Mof_C 	C 	0.9466	0.4807	0.76895	0.022
Mof_C 	C 	0.8746	0.5309	0.7701	-0.055
Mof_H 	H 	0.8732	0.5601	0.7494	0.042
Mof_C 	C 	0.8066	0.5372	0.8014	-0.067
Mof_H 	H 	0.7592	0.5717	0.8031	0.042
Mof_C 	C 	0.8074	0.493	0.8305	0.028
Mof_H 	H 	0.7595	0.4977	0.852	-0.013
Mof_C 	C 	0.0277	0.4714	0.7369	-0.103
Mof_H 	H 	0.0162	0.4303	0.7248	0.054
Mof_H 	H 	0.0167	0.5031	0.7164	0.052
Mof_C 	C 	0.218	0.4578	0.7207	-0.057
Mof_H 	H 	0.2021	0.4152	0.7119	0.04
Mof_H 	H 	0.2089	0.4858	0.698	0.043
Mof_C 	C 	0.1662	0.5386	0.7645	-0.054
Mof_H 	H 	0.1567	0.5672	0.7422	0.044
Mof_H 	H 	0.1156	0.5511	0.7855	0.043
Mof_N 	N 	0.8733	0.9437	0.32949	-0.24
Mof_N 	N 	0.1415	0.9755	0.25199	-0.088
Mof_C 	C 	0.9411	0.9389	0.2994	-0.005
Mof_H 	H 	0.9888	0.9044	0.2988	0.004
Mof_C 	C 	0.9466	0.9807	0.26895	0.021
Mof_C 	C 	0.8746	0.0309	0.2701	-0.054
Mof_H 	H 	0.8732	0.0601	0.2494	0.042
Mof_C 	C 	0.8066	0.0372	0.3014	-0.067
Mof_H 	H 	0.7592	0.0717	0.3031	0.042
Mof_C 	C 	0.8074	0.993	0.3305	0.028
Mof_H 	H 	0.7595	0.9977	0.352	-0.013
Mof_C 	C 	0.0277	0.9714	0.2369	-0.101
Mof_H 	H 	0.0162	0.9303	0.2248	0.054
Mof_H 	H 	0.0167	0.0031	0.2164	0.051
Mof_C 	C 	0.218	0.9578	0.2207	-0.057
Mof_H 	H 	0.2021	0.9152	0.2119	0.04
Mof_H 	H 	0.2089	0.9858	0.198	0.043
Mof_C 	C 	0.1662	0.0386	0.2645	-0.054
Mof_H 	H 	0.1567	0.0672	0.2422	0.044
Mof_H 	H 	0.1156	0.0511	0.2855	0.043
Mof_Co	Co	0.625	0.125	0.125	1.068
Mof_Co	Co	0.625	0.625	0.625	1.068
Mof_Co	Co	0.125	0.625	0.125	1.068
Mof_Co	Co	0.125	0.125	0.625	1.068
Mof_Co	Co	0.375	0.875	0.875	1.068
Mof_Co	Co	0.375	0.375	0.375	1.068
Mof_Co	Co	0.875	0.375	0.875	1.068
Mof_Co	Co	0.875	0.875	0.375	1.068
_end
