# CIF file generated by openbabel 3.1.0, see https://openbabel.org
data_I
_chemical_name_common 'BUSNAF_clean'
_cell_length_a 10.126
_cell_length_b 15.9892
_cell_length_c 15.9892
_cell_angle_alpha 64.3321
_cell_angle_beta 77.8131
_cell_angle_gamma 102.187
_space_group_name_H-M_alt 'P 1'
_space_group_name_Hall 'P 1'
loop_
    _symmetry_equiv_pos_as_xyz
    x,y,z
loop_
    _atom_site_label
    _atom_site_type_symbol
    _atom_site_fract_x
    _atom_site_fract_y
    _atom_site_fract_z
    _atom_site_occupancy
    Co1      Co       0.50000    0.00000    0.50000    1.000
    Co2      Co       0.00000    0.50000    0.50000    1.000
    Co3      Co       0.50000    0.50000    0.00000    1.000
    H1       H        0.37470    0.86280    0.73380    1.000
    H2       H        0.45980    0.80880    0.86280    1.000
    H3       H        0.70000    0.88010    0.83510    1.000
    H4       H        0.01140    0.22600    0.17750    1.000
    H5       H        0.21690    0.33760    0.05150    1.000
    H6       H        0.39280    0.37090    0.23300    1.000
    H7       H        0.19110    0.25880    0.36570    1.000
    H8       H        0.96660    0.06070    0.60230    1.000
    H9       H        0.95910    0.96250    0.69130    1.000
    H10      H        0.92690    0.04630    0.70910    1.000
    H11      H        0.10850    0.73380    0.40340    1.000
    H12      H        0.32260    0.86280    0.32840    1.000
    H13      H        0.53510    0.83510    0.28480    1.000
    H14      H        0.18890    0.17750    0.59650    1.000
    H15      H        0.26840    0.05150    0.61090    1.000
    H16      H        0.62580    0.23300    0.39610    1.000
    H17      H        0.55680    0.36570    0.37550    1.000
    H18      H        0.56890    0.60230    0.33700    1.000
    H19      H        0.65040    0.69130    0.34620    1.000
    H20      H        0.63600    0.70910    0.24460    1.000
    H21      H        0.51190    0.40340    0.86280    1.000
    H22      H        0.65100    0.32840    0.80880    1.000
    H23      H        0.81990    0.28480    0.88010    1.000
    H24      H        0.78540    0.59650    0.22600    1.000
    H25      H        0.87930    0.61090    0.33760    1.000
    H26      H        0.02190    0.39610    0.37090    1.000
    H27      H        0.93230    0.37550    0.25880    1.000
    H28      H        0.90590    0.33700    0.06070    1.000
    H29      H        0.99660    0.34620    0.96250    1.000
    H30      H        0.88060    0.24460    0.04630    1.000
    H31      H        0.62530    0.13720    0.26620    1.000
    H32      H        0.54020    0.19120    0.13720    1.000
    H33      H        0.30000    0.11990    0.16490    1.000
    H34      H        0.98860    0.77400    0.82250    1.000
    H35      H        0.78310    0.66240    0.94850    1.000
    H36      H        0.60720    0.62910    0.76700    1.000
    H37      H        0.80890    0.74120    0.63430    1.000
    H38      H        0.03340    0.93930    0.39770    1.000
    H39      H        0.04090    0.03750    0.30870    1.000
    H40      H        0.07310    0.95370    0.29090    1.000
    H41      H        0.89150    0.26620    0.59660    1.000
    H42      H        0.67740    0.13720    0.67160    1.000
    H43      H        0.46490    0.16490    0.71520    1.000
    H44      H        0.81110    0.82250    0.40350    1.000
    H45      H        0.73160    0.94850    0.38910    1.000
    H46      H        0.37420    0.76700    0.60390    1.000
    H47      H        0.44320    0.63430    0.62450    1.000
    H48      H        0.43110    0.39770    0.66300    1.000
    H49      H        0.34960    0.30870    0.65380    1.000
    H50      H        0.36400    0.29090    0.75540    1.000
    H51      H        0.48810    0.59660    0.13720    1.000
    H52      H        0.34900    0.67160    0.19120    1.000
    H53      H        0.18010    0.71520    0.11990    1.000
    H54      H        0.21460    0.40350    0.77400    1.000
    H55      H        0.12070    0.38910    0.66240    1.000
    H56      H        0.97810    0.60390    0.62910    1.000
    H57      H        0.06770    0.62450    0.74120    1.000
    H58      H        0.09410    0.66300    0.93930    1.000
    H59      H        0.00340    0.65380    0.03750    1.000
    H60      H        0.11940    0.75540    0.95370    1.000
    C1       C        0.47230    0.88870    0.72220    1.000
    C2       C        0.52180    0.85730    0.79970    1.000
    C3       C        0.66610    0.89930    0.78230    1.000
    C4       C        0.75970    0.96840    0.68940    1.000
    C5       C        0.70230    0.99550    0.61330    1.000
    C6       C        0.78410    0.06530    0.50820    1.000
    C7       C        0.93820    0.16300    0.36890    1.000
    C8       C        0.07390    0.23130    0.28690    1.000
    C9       C        0.08740    0.25560    0.19090    1.000
    C10      C        0.21110    0.32250    0.11560    1.000
    C11      C        0.31390    0.34200    0.22150    1.000
    C12      C        0.19280    0.27470    0.30210    1.000
    C13      C        0.91760    0.01370    0.67140    1.000
    C14      C        0.19450    0.72220    0.38910    1.000
    C15      C        0.32150    0.79970    0.34300    1.000
    C16      C        0.44840    0.78230    0.31840    1.000
    C17      C        0.44910    0.68940    0.34220    1.000
    C18      C        0.31560    0.61330    0.39120    1.000
    C19      C        0.29230    0.50820    0.42650    1.000
    C20      C        0.30710    0.36890    0.46810    1.000
    C21      C        0.36080    0.28690    0.48180    1.000
    C22      C        0.27830    0.19090    0.55350    1.000
    C23      C        0.32670    0.11560    0.56190    1.000
    C24      C        0.53540    0.22150    0.43650    1.000
    C25      C        0.49490    0.30210    0.42320    1.000
    C26      C        0.58900    0.67140    0.31490    1.000
    C27      C        0.58360    0.38910    0.88870    1.000
    C28      C        0.66450    0.34300    0.85730    1.000
    C29      C        0.76680    0.31840    0.89930    1.000
    C30      C        0.79130    0.34220    0.96840    1.000
    C31      C        0.70680    0.39120    0.99550    1.000
    C32      C        0.71880    0.42650    0.06530    1.000
    C33      C        0.77520    0.46810    0.16300    1.000
    C34      C        0.84260    0.48180    0.23130    1.000
    C35      C        0.83180    0.55350    0.25560    1.000
    C36      C        0.88860    0.56190    0.32250    1.000
    C37      C        0.97190    0.43650    0.34200    1.000
    C38      C        0.91810    0.42320    0.27470    1.000
    C39      C        0.90390    0.31490    0.01370    1.000
    C40      C        0.52770    0.11130    0.27780    1.000
    C41      C        0.47820    0.14270    0.20030    1.000
    C42      C        0.33390    0.10070    0.21770    1.000
    C43      C        0.24030    0.03160    0.31060    1.000
    C44      C        0.29770    0.00450    0.38670    1.000
    C45      C        0.21590    0.93470    0.49180    1.000
    C46      C        0.06180    0.83700    0.63110    1.000
    C47      C        0.92610    0.76870    0.71310    1.000
    C48      C        0.91260    0.74440    0.80910    1.000
    C49      C        0.78890    0.67750    0.88440    1.000
    C50      C        0.68610    0.65800    0.77850    1.000
    C51      C        0.80720    0.72530    0.69790    1.000
    C52      C        0.08240    0.98630    0.32860    1.000
    C53      C        0.80550    0.27780    0.61090    1.000
    C54      C        0.67850    0.20030    0.65700    1.000
    C55      C        0.55160    0.21770    0.68160    1.000
    C56      C        0.55090    0.31060    0.65780    1.000
    C57      C        0.68440    0.38670    0.60880    1.000
    C58      C        0.70770    0.49180    0.57350    1.000
    C59      C        0.69290    0.63110    0.53190    1.000
    C60      C        0.63920    0.71310    0.51820    1.000
    C61      C        0.72170    0.80910    0.44650    1.000
    C62      C        0.67330    0.88440    0.43810    1.000
    C63      C        0.46460    0.77850    0.56350    1.000
    C64      C        0.50510    0.69790    0.57680    1.000
    C65      C        0.41100    0.32860    0.68510    1.000
    C66      C        0.41640    0.61090    0.11130    1.000
    C67      C        0.33550    0.65700    0.14270    1.000
    C68      C        0.23320    0.68160    0.10070    1.000
    C69      C        0.20870    0.65780    0.03160    1.000
    C70      C        0.29320    0.60880    0.00450    1.000
    C71      C        0.28120    0.57350    0.93470    1.000
    C72      C        0.22480    0.53190    0.83700    1.000
    C73      C        0.15740    0.51820    0.76870    1.000
    C74      C        0.16820    0.44650    0.74440    1.000
    C75      C        0.11140    0.43810    0.67750    1.000
    C76      C        0.02810    0.56350    0.65800    1.000
    C77      C        0.08190    0.57680    0.72530    1.000
    C78      C        0.09610    0.68510    0.98630    1.000
    N1       N        0.56020    0.95550    0.63060    1.000
    N2       N        0.71502    0.07754    0.44298    1.000
    N3       N        0.81579    0.14078    0.35091    1.000
    N4       N        0.92620    0.11920    0.46520    1.000
    N5       N        0.32560    0.36840    0.12880    1.000
    N6       N        0.19080    0.63060    0.41390    1.000
    N7       N        0.15800    0.44298    0.47948    1.000
    N8       N        0.16670    0.35091    0.50831    1.000
    N9       N        0.39140    0.46520    0.41560    1.000
    N10      N        0.45440    0.12880    0.50280    1.000
    N11      N        0.60470    0.41390    0.95550    1.000
    N12      N        0.63748    0.47948    0.07754    1.000
    N13      N        0.67501    0.50831    0.14078    1.000
    N14      N        0.80700    0.41560    0.11920    1.000
    N15      N        0.95720    0.50280    0.36840    1.000
    N16      N        0.43980    0.04450    0.36940    1.000
    N17      N        0.28498    0.92246    0.55702    1.000
    N18      N        0.18421    0.85922    0.64909    1.000
    N19      N        0.07380    0.88080    0.53480    1.000
    N20      N        0.67440    0.63160    0.87120    1.000
    N21      N        0.80920    0.36940    0.58610    1.000
    N22      N        0.84200    0.55702    0.52052    1.000
    N23      N        0.83330    0.64909    0.49169    1.000
    N24      N        0.60860    0.53480    0.58440    1.000
    N25      N        0.54560    0.87120    0.49720    1.000
    N26      N        0.39530    0.58610    0.04450    1.000
    N27      N        0.36252    0.52052    0.92246    1.000
    N28      N        0.32499    0.49169    0.85922    1.000
    N29      N        0.19300    0.58440    0.88080    1.000
    N30      N        0.04280    0.49720    0.63160    1.000
