data_functionalizedCrystal
_audit_creation_method	'EQeq! by Chris Wilmer'
_symmetry_space_group_name_H-M	'P1'
_symmetry_Int_Tables_number	1
_symmetry_cell_setting	triclinic
loop_
_symmetry_equiv_pos_as_xyz
  x,y,z
_cell_length_a	15.4676
_cell_length_b	13.1962
_cell_length_c	26.497
_cell_angle_alpha	90
_cell_angle_beta	98.729
_cell_angle_gamma	90
loop_
_atom_site_label
_atom_site_type_symbol
_atom_site_fract_x
_atom_site_fract_y
_atom_site_fract_z
_atom_site_charge
Mof_Cd	Cd	0.25407	0.81505	0.23937	0.5
Mof_Cd	Cd	0.21126	0.67755	0.34551	0.379
Mof_C 	C 	0.6089	0.1902	0.21695	0.298
Mof_O 	O 	0.35152	0.9614	0.25114	-0.255
Mof_O 	O 	0.29562	0.9035	0.17431	-0.259
Mof_C 	C 	0.3484	0.9583	0.20325	0.275
Mof_C 	C 	0.0039	0.4993	0.10985	0.043
Mof_O 	O 	0.8189	0.343	0.17884	-0.292
Mof_C 	C 	0.4192	0.0038	0.12805	-0.077
Mof_H 	H 	0.3776	0.9633	0.1086	0.079
Mof_C 	C 	0.0646	0.5592	0.14011	-0.063
Mof_H 	H 	0.1051	0.5965	0.1252	0.074
Mof_O 	O 	0.6013	0.214	0.2613	-0.261
Mof_C 	C 	0.5409	0.126	0.18551	-0.051
Mof_O 	O 	0.67404	0.2187	0.19645	-0.303
Mof_C 	C 	0.8747	0.3927	0.20768	0.308
Mof_C 	C 	0.4139	0.0192	0.17911	-0.035
Mof_O 	O 	0.533	0.6615	0.09116	-0.142
Mof_C 	C 	0.5455	0.1083	0.13467	-0.066
Mof_H 	H 	0.59	0.1379	0.1198	0.055
Mof_C 	C 	0.4846	0.0471	0.10536	0.048
Mof_C 	C 	0.943	0.4498	0.185	-0.054
Mof_C 	C 	0.474	0.0815	0.20775	-0.02
Mof_H 	H 	0.47	0.0938	0.2419	0.056
Mof_C 	C 	0.0025	0.4978	0.05298	-0.05
Mof_C 	C 	0.4929	0.023	0.05123	-0.053
Mof_O 	O 	0.5344	0.62	0.99681	-0.129
Mof_C 	C 	0.064	0.4426	0.0314	0.038
Mof_C 	C 	0.0041	0.5099	0.2151	-0.01
Mof_H 	H 	0.0038	0.5136	0.2501	0.061
Mof_C 	C 	0.9378	0.5544	0.0224	0.035
Mof_C 	C 	0.128	0.3815	0.06146	-0.135
Mof_H 	H 	0.1294	0.3792	0.0967	0.086
Mof_O 	O 	0.873	0.4012	0.2543	-0.27
Mof_C 	C 	0.9438	0.4438	0.13252	-0.063
Mof_H 	H 	0.9037	0.4023	0.1125	0.064
Mof_C 	C 	0.5243	0.7444	0.05914	0.096
Mof_C 	C 	0.527	0.7195	0.00714	0.104
Mof_C 	C 	0.0653	0.5641	0.19337	-0.051
Mof_C 	C 	0.1868	0.3268	0.03995	0.1
Mof_C 	C 	0.5064	0.9225	0.03724	0.036
Mof_C 	C 	0.8734	0.6129	0.04367	-0.131
Mof_H 	H 	0.873	0.6115	0.0787	0.086
Mof_C 	C 	0.5242	0.7959	0.97201	-0.128
Mof_H 	H 	0.5303	0.78	0.9385	0.086
Mof_C 	C 	0.5148	0.8419	0.07378	-0.133
Mof_H 	H 	0.5138	0.8564	0.108	0.085
Mof_C 	C 	0.4878	0.1012	0.01479	0.037
Mof_C 	C 	0.5383	0.6828	0.14501	-0.284
Mof_H 	H 	0.4857	0.716	0.1512	0.138
Mof_H 	H 	0.5876	0.7259	0.1558	0.121
Mof_H 	H 	0.5452	0.6204	0.1639	0.136
Mof_O 	O 	0.2496	0.2641	0.06512	-0.144
Mof_C 	C 	0.186	0.3307	0.98612	0.1
Mof_O 	O 	0.2498	0.2725	0.96932	-0.135
Mof_O 	O 	0.1779	0.6855	0.20243	-0.275
Mof_O 	O 	0.1299	0.6292	0.27264	-0.293
Mof_C 	C 	0.1293	0.6313	0.22548	0.313
Mof_C 	C 	0.5382	0.5929	0.9453	-0.289
Mof_H 	H 	0.4868	0.6173	0.9238	0.131
Mof_H 	H 	0.5411	0.5205	0.9425	0.15
Mof_H 	H 	0.5892	0.6226	0.9347	0.136
Mof_C 	C 	0.2523	0.2756	0.9151	-0.266
Mof_H 	H 	0.1942	0.2673	0.8969	0.117
Mof_H 	H 	0.2889	0.2219	0.9061	0.123
Mof_H 	H 	0.2755	0.3396	0.9063	0.129
Mof_C 	C 	0.2508	0.2475	0.1174	-0.246
Mof_H 	H 	0.1949	0.2224	0.1231	0.115
Mof_H 	H 	0.2632	0.31	0.1355	0.111
Mof_H 	H 	0.2953	0.1986	0.1293	0.12
Mof_Cd	Cd	0.74593	0.31505	0.26063	0.499
Mof_Cd	Cd	0.78874	0.17755	0.15449	0.378
Mof_C 	C 	0.3911	0.6902	0.28305	0.297
Mof_O 	O 	0.64848	0.4614	0.24886	-0.256
Mof_O 	O 	0.70438	0.4035	0.32569	-0.26
Mof_C 	C 	0.6516	0.4583	0.29675	0.274
Mof_C 	C 	0.9961	0.9993	0.39015	0.04
Mof_O 	O 	0.1811	0.843	0.32116	-0.293
Mof_C 	C 	0.5808	0.5038	0.37195	-0.077
Mof_H 	H 	0.6224	0.4633	0.3914	0.079
Mof_C 	C 	0.9354	0.0592	0.35989	-0.062
Mof_H 	H 	0.8949	0.0965	0.3748	0.074
Mof_O 	O 	0.3987	0.714	0.2387	-0.261
Mof_C 	C 	0.4591	0.626	0.31449	-0.051
Mof_O 	O 	0.32596	0.7187	0.30355	-0.303
Mof_C 	C 	0.1253	0.8927	0.29232	0.308
Mof_C 	C 	0.5861	0.5192	0.32089	-0.035
Mof_O 	O 	0.467	0.1615	0.40884	-0.142
Mof_C 	C 	0.4545	0.6083	0.36533	-0.067
Mof_H 	H 	0.41	0.6379	0.3802	0.055
Mof_C 	C 	0.5154	0.5471	0.39464	0.048
Mof_C 	C 	0.057	0.9498	0.315	-0.054
Mof_C 	C 	0.526	0.5815	0.29225	-0.02
Mof_H 	H 	0.53	0.5938	0.2581	0.056
Mof_C 	C 	0.9975	0.9978	0.44702	-0.05
Mof_C 	C 	0.5071	0.523	0.44877	-0.053
Mof_O 	O 	0.4656	0.12	0.50319	-0.129
Mof_C 	C 	0.936	0.9426	0.4686	0.038
Mof_C 	C 	0.9959	0.0099	0.2849	-0.009
Mof_H 	H 	0.9962	0.0136	0.2499	0.061
Mof_C 	C 	0.0622	0.0544	0.4776	0.035
Mof_C 	C 	0.872	0.8815	0.43854	-0.134
Mof_H 	H 	0.8706	0.8792	0.4033	0.086
Mof_O 	O 	0.127	0.9012	0.2457	-0.27
Mof_C 	C 	0.0562	0.9438	0.36748	-0.061
Mof_H 	H 	0.0963	0.9023	0.3875	0.063
Mof_C 	C 	0.4757	0.2444	0.44086	0.096
Mof_C 	C 	0.473	0.2195	0.49286	0.104
Mof_C 	C 	0.9347	0.0641	0.30663	-0.052
Mof_C 	C 	0.8132	0.8268	0.46005	0.1
Mof_C 	C 	0.4936	0.4225	0.46276	0.036
Mof_C 	C 	0.1266	0.1129	0.45633	-0.132
Mof_H 	H 	0.127	0.1115	0.4213	0.086
Mof_C 	C 	0.4758	0.2959	0.52799	-0.128
Mof_H 	H 	0.4697	0.28	0.5615	0.086
Mof_C 	C 	0.4852	0.3419	0.42622	-0.133
Mof_H 	H 	0.4862	0.3564	0.392	0.085
Mof_C 	C 	0.5122	0.6012	0.48521	0.037
Mof_C 	C 	0.4617	0.1828	0.35499	-0.284
Mof_H 	H 	0.5143	0.216	0.3488	0.138
Mof_H 	H 	0.4124	0.2259	0.3442	0.121
Mof_H 	H 	0.4548	0.1204	0.3361	0.136
Mof_O 	O 	0.7504	0.7641	0.43488	-0.144
Mof_C 	C 	0.814	0.8307	0.51388	0.1
Mof_O 	O 	0.7502	0.7725	0.53068	-0.135
Mof_O 	O 	0.8221	0.1855	0.29757	-0.275
Mof_O 	O 	0.8701	0.1292	0.22736	-0.293
Mof_C 	C 	0.8707	0.1313	0.27452	0.313
Mof_C 	C 	0.4618	0.0929	0.5547	-0.289
Mof_H 	H 	0.5132	0.1173	0.5762	0.131
Mof_H 	H 	0.4589	0.0205	0.5575	0.15
Mof_H 	H 	0.4108	0.1226	0.5653	0.136
Mof_C 	C 	0.7477	0.7756	0.5849	-0.266
Mof_H 	H 	0.8058	0.7673	0.6031	0.117
Mof_H 	H 	0.7111	0.7219	0.5939	0.124
Mof_H 	H 	0.7245	0.8396	0.5937	0.129
Mof_C 	C 	0.7492	0.7475	0.3826	-0.246
Mof_H 	H 	0.8051	0.7224	0.3769	0.115
Mof_H 	H 	0.7368	0.81	0.3645	0.111
Mof_H 	H 	0.7047	0.6986	0.3707	0.12
Mof_Cd	Cd	0.74593	0.18495	0.76063	0.499
Mof_Cd	Cd	0.78874	0.32245	0.65449	0.378
Mof_C 	C 	0.3911	0.8098	0.78305	0.297
Mof_O 	O 	0.64848	0.0386	0.74886	-0.256
Mof_O 	O 	0.70438	0.0965	0.82569	-0.26
Mof_C 	C 	0.6516	0.0417	0.79675	0.274
Mof_C 	C 	0.9961	0.5007	0.89015	0.042
Mof_O 	O 	0.1811	0.657	0.82116	-0.293
Mof_C 	C 	0.5808	0.9962	0.87195	-0.077
Mof_H 	H 	0.6224	0.0367	0.8914	0.079
Mof_C 	C 	0.9354	0.4408	0.85989	-0.063
Mof_H 	H 	0.8949	0.4035	0.8748	0.074
Mof_O 	O 	0.3987	0.786	0.7387	-0.261
Mof_C 	C 	0.4591	0.874	0.81449	-0.051
Mof_O 	O 	0.32596	0.7813	0.80355	-0.303
Mof_C 	C 	0.1253	0.6073	0.79232	0.308
Mof_C 	C 	0.5861	0.9808	0.82089	-0.035
Mof_O 	O 	0.467	0.3385	0.90884	-0.142
Mof_C 	C 	0.4545	0.8917	0.86533	-0.066
Mof_H 	H 	0.41	0.8621	0.8802	0.055
Mof_C 	C 	0.5154	0.9529	0.89464	0.048
Mof_C 	C 	0.057	0.5502	0.815	-0.054
Mof_C 	C 	0.526	0.9185	0.79225	-0.02
Mof_H 	H 	0.53	0.9062	0.7581	0.056
Mof_C 	C 	0.9975	0.5022	0.94702	-0.05
Mof_C 	C 	0.5071	0.977	0.94877	-0.053
Mof_O 	O 	0.4656	0.38	0.00319	-0.129
Mof_C 	C 	0.936	0.5574	0.9686	0.038
Mof_C 	C 	0.9959	0.4901	0.7849	-0.01
Mof_H 	H 	0.9962	0.4864	0.7499	0.061
Mof_C 	C 	0.0622	0.4456	0.9776	0.035
Mof_C 	C 	0.872	0.6185	0.93854	-0.135
Mof_H 	H 	0.8706	0.6208	0.9033	0.086
Mof_O 	O 	0.127	0.5988	0.7457	-0.27
Mof_C 	C 	0.0562	0.5562	0.86748	-0.063
Mof_H 	H 	0.0963	0.5977	0.8875	0.064
Mof_C 	C 	0.4757	0.2556	0.94086	0.096
Mof_C 	C 	0.473	0.2805	0.99286	0.104
Mof_C 	C 	0.9347	0.4359	0.80663	-0.051
Mof_C 	C 	0.8132	0.6732	0.96005	0.1
Mof_C 	C 	0.4936	0.0775	0.96276	0.036
Mof_C 	C 	0.1266	0.3871	0.95633	-0.131
Mof_H 	H 	0.127	0.3885	0.9213	0.086
Mof_C 	C 	0.4758	0.2041	0.02799	-0.128
Mof_H 	H 	0.4697	0.22	0.0615	0.086
Mof_C 	C 	0.4852	0.1581	0.92622	-0.133
Mof_H 	H 	0.4862	0.1436	0.892	0.085
Mof_C 	C 	0.5122	0.8988	0.98521	0.037
Mof_C 	C 	0.4617	0.3172	0.85499	-0.284
Mof_H 	H 	0.5143	0.284	0.8488	0.138
Mof_H 	H 	0.4124	0.2741	0.8442	0.121
Mof_H 	H 	0.4548	0.3796	0.8361	0.136
Mof_O 	O 	0.7504	0.7359	0.93488	-0.144
Mof_C 	C 	0.814	0.6693	0.01388	0.1
Mof_O 	O 	0.7502	0.7275	0.03068	-0.135
Mof_O 	O 	0.8221	0.3145	0.79757	-0.275
Mof_O 	O 	0.8701	0.3708	0.72736	-0.293
Mof_C 	C 	0.8707	0.3687	0.77452	0.313
Mof_C 	C 	0.4618	0.4071	0.0547	-0.289
Mof_H 	H 	0.5132	0.3827	0.0762	0.131
Mof_H 	H 	0.4589	0.4795	0.0575	0.15
Mof_H 	H 	0.4108	0.3774	0.0653	0.136
Mof_C 	C 	0.7477	0.7244	0.0849	-0.266
Mof_H 	H 	0.8058	0.7327	0.1031	0.117
Mof_H 	H 	0.7111	0.7781	0.0939	0.123
Mof_H 	H 	0.7245	0.6604	0.0937	0.129
Mof_C 	C 	0.7492	0.7525	0.8826	-0.246
Mof_H 	H 	0.8051	0.7776	0.8769	0.115
Mof_H 	H 	0.7368	0.69	0.8645	0.111
Mof_H 	H 	0.7047	0.8014	0.8707	0.12
Mof_Cd	Cd	0.25407	0.68495	0.73937	0.499
Mof_Cd	Cd	0.21126	0.82245	0.84551	0.378
Mof_C 	C 	0.6089	0.3098	0.71695	0.297
Mof_O 	O 	0.35152	0.5386	0.75114	-0.256
Mof_O 	O 	0.29562	0.5965	0.67431	-0.26
Mof_C 	C 	0.3484	0.5417	0.70325	0.274
Mof_C 	C 	0.0039	0.0007	0.60985	0.04
Mof_O 	O 	0.8189	0.157	0.67884	-0.293
Mof_C 	C 	0.4192	0.4962	0.62805	-0.077
Mof_H 	H 	0.3776	0.5367	0.6086	0.079
Mof_C 	C 	0.0646	0.9408	0.64011	-0.062
Mof_H 	H 	0.1051	0.9035	0.6252	0.074
Mof_O 	O 	0.6013	0.286	0.7613	-0.261
Mof_C 	C 	0.5409	0.374	0.68551	-0.051
Mof_O 	O 	0.67404	0.2813	0.69645	-0.303
Mof_C 	C 	0.8747	0.1073	0.70768	0.308
Mof_C 	C 	0.4139	0.4808	0.67911	-0.035
Mof_O 	O 	0.533	0.8385	0.59116	-0.142
Mof_C 	C 	0.5455	0.3917	0.63467	-0.067
Mof_H 	H 	0.59	0.3621	0.6198	0.055
Mof_C 	C 	0.4846	0.4529	0.60536	0.048
Mof_C 	C 	0.943	0.0502	0.685	-0.054
Mof_C 	C 	0.474	0.4185	0.70775	-0.02
Mof_H 	H 	0.47	0.4062	0.7419	0.056
Mof_C 	C 	0.0025	0.0022	0.55298	-0.05
Mof_C 	C 	0.4929	0.477	0.55123	-0.053
Mof_O 	O 	0.5344	0.88	0.49681	-0.129
Mof_C 	C 	0.064	0.0574	0.5314	0.038
Mof_C 	C 	0.0041	0.9901	0.7151	-0.009
Mof_H 	H 	0.0038	0.9864	0.7501	0.061
Mof_C 	C 	0.9378	0.9456	0.5224	0.035
Mof_C 	C 	0.128	0.1185	0.56146	-0.134
Mof_H 	H 	0.1294	0.1208	0.5967	0.086
Mof_O 	O 	0.873	0.0988	0.7543	-0.27
Mof_C 	C 	0.9438	0.0562	0.63252	-0.061
Mof_H 	H 	0.9037	0.0977	0.6125	0.063
Mof_C 	C 	0.5243	0.7556	0.55914	0.096
Mof_C 	C 	0.527	0.7805	0.50714	0.104
Mof_C 	C 	0.0653	0.9359	0.69337	-0.052
Mof_C 	C 	0.1868	0.1732	0.53995	0.1
Mof_C 	C 	0.5064	0.5775	0.53724	0.036
Mof_C 	C 	0.8734	0.8871	0.54367	-0.132
Mof_H 	H 	0.873	0.8885	0.5787	0.086
Mof_C 	C 	0.5242	0.7041	0.47201	-0.128
Mof_H 	H 	0.5303	0.72	0.4385	0.086
Mof_C 	C 	0.5148	0.6581	0.57378	-0.133
Mof_H 	H 	0.5138	0.6436	0.608	0.085
Mof_C 	C 	0.4878	0.3988	0.51479	0.037
Mof_C 	C 	0.5383	0.8172	0.64501	-0.284
Mof_H 	H 	0.4857	0.784	0.6512	0.138
Mof_H 	H 	0.5876	0.7741	0.6558	0.121
Mof_H 	H 	0.5452	0.8796	0.6639	0.136
Mof_O 	O 	0.2496	0.2359	0.56512	-0.144
Mof_C 	C 	0.186	0.1693	0.48612	0.1
Mof_O 	O 	0.2498	0.2275	0.46932	-0.135
Mof_O 	O 	0.1779	0.8145	0.70243	-0.275
Mof_O 	O 	0.1299	0.8708	0.77264	-0.293
Mof_C 	C 	0.1293	0.8687	0.72548	0.313
Mof_C 	C 	0.5382	0.9071	0.4453	-0.289
Mof_H 	H 	0.4868	0.8827	0.4238	0.131
Mof_H 	H 	0.5411	0.9795	0.4425	0.15
Mof_H 	H 	0.5892	0.8774	0.4347	0.136
Mof_C 	C 	0.2523	0.2244	0.4151	-0.266
Mof_H 	H 	0.1942	0.2327	0.3969	0.117
Mof_H 	H 	0.2889	0.2781	0.4061	0.124
Mof_H 	H 	0.2755	0.1604	0.4063	0.129
Mof_C 	C 	0.2508	0.2525	0.6174	-0.246
Mof_H 	H 	0.1949	0.2776	0.6231	0.115
Mof_H 	H 	0.2632	0.19	0.6355	0.111
Mof_H 	H 	0.2953	0.3014	0.6293	0.12
_end
