# CIF file generated by openbabel 3.1.0, see https://openbabel.org
data_I
_chemical_name_common 'image0'
_cell_length_a 11.6985
_cell_length_b 11.6985
_cell_length_c 27.669
_cell_angle_alpha 90
_cell_angle_beta 90
_cell_angle_gamma 90
_space_group_name_H-M_alt 'P 1'
_space_group_name_Hall 'P 1'
loop_
    _symmetry_equiv_pos_as_xyz
    x,y,z
loop_
    _atom_site_label
    _atom_site_type_symbol
    _atom_site_fract_x
    _atom_site_fract_y
    _atom_site_fract_z
    _atom_site_occupancy
    Li1      Li       0.22820    0.21620    0.08150    1.000
    C1       C        0.15210    0.57630    0.01006    1.000
    C2       C        0.13850    0.46300    0.02294    1.000
    C3       C        0.11760    0.43360    0.07185    1.000
    C4       C        0.11560    0.63080    0.08510    1.000
    H1       H        0.10350    0.68890    0.10750    1.000
    C5       C        0.17500    0.47730    0.94640    1.000
    H2       H        0.18840    0.45680    0.91440    1.000
    N1       N        0.10360    0.52440    0.10221    1.000
    N2       N        0.14210    0.66490    0.04103    1.000
    N3       N        0.15250    0.39970    0.98104    1.000
    N4       N        0.17680    0.58510    0.96125    1.000
    O1       O        0.11190    0.33180    0.08731    1.000
    H3       H        0.08710    0.51320    0.13210    1.000
    H4       H        0.15240    0.73850    0.03260    1.000
    H5       H        0.19010    0.64570    0.94460    1.000
    Li2      Li       0.72820    0.71620    0.58150    1.000
    C6       C        0.65210    0.07630    0.51006    1.000
    C7       C        0.63850    0.96300    0.52294    1.000
    C8       C        0.61760    0.93360    0.57185    1.000
    C9       C        0.61560    0.13080    0.58510    1.000
    H6       H        0.60350    0.18890    0.60750    1.000
    C10      C        0.67500    0.97730    0.44640    1.000
    H7       H        0.68840    0.95680    0.41440    1.000
    N5       N        0.60360    0.02440    0.60221    1.000
    N6       N        0.64210    0.16490    0.54103    1.000
    N7       N        0.65250    0.89970    0.48104    1.000
    N8       N        0.67680    0.08510    0.46125    1.000
    O2       O        0.61190    0.83180    0.58731    1.000
    H8       H        0.58710    0.01320    0.63210    1.000
    H9       H        0.65240    0.23850    0.53260    1.000
    H10      H        0.69010    0.14570    0.44460    1.000
    Li3      Li       0.27180    0.78380    0.58150    1.000
    C11      C        0.34790    0.42370    0.51006    1.000
    C12      C        0.36150    0.53700    0.52294    1.000
    C13      C        0.38240    0.56640    0.57185    1.000
    C14      C        0.38440    0.36920    0.58510    1.000
    H11      H        0.39650    0.31110    0.60750    1.000
    C15      C        0.32500    0.52270    0.44640    1.000
    H12      H        0.31160    0.54320    0.41440    1.000
    N9       N        0.39640    0.47560    0.60221    1.000
    N10      N        0.35790    0.33510    0.54103    1.000
    N11      N        0.34750    0.60030    0.48104    1.000
    N12      N        0.32320    0.41490    0.46125    1.000
    O3       O        0.38810    0.66820    0.58731    1.000
    H13      H        0.41290    0.48680    0.63210    1.000
    H14      H        0.34760    0.26150    0.53260    1.000
    H15      H        0.30990    0.35430    0.44460    1.000
    Li4      Li       0.77180    0.28380    0.08150    1.000
    C16      C        0.84790    0.92370    0.01006    1.000
    C17      C        0.86150    0.03700    0.02294    1.000
    C18      C        0.88240    0.06640    0.07185    1.000
    C19      C        0.88440    0.86920    0.08510    1.000
    H16      H        0.89650    0.81110    0.10750    1.000
    C20      C        0.82500    0.02270    0.94640    1.000
    H17      H        0.81160    0.04320    0.91440    1.000
    N13      N        0.89640    0.97560    0.10221    1.000
    N14      N        0.85790    0.83510    0.04103    1.000
    N15      N        0.84750    0.10030    0.98104    1.000
    N16      N        0.82320    0.91490    0.96125    1.000
    O4       O        0.88810    0.16820    0.08731    1.000
    H18      H        0.91290    0.98680    0.13210    1.000
    H19      H        0.84760    0.76150    0.03260    1.000
    H20      H        0.80990    0.85430    0.94460    1.000
    Li5      Li       0.53380    0.47820    0.33150    1.000
    C21      C        0.17370    0.40210    0.26006    1.000
    C22      C        0.28700    0.38850    0.27294    1.000
    C23      C        0.31640    0.36760    0.32185    1.000
    C24      C        0.11920    0.36560    0.33510    1.000
    H21      H        0.06110    0.35350    0.35750    1.000
    C25      C        0.27270    0.42500    0.19640    1.000
    H22      H        0.29320    0.43840    0.16440    1.000
    N17      N        0.22560    0.35360    0.35221    1.000
    N18      N        0.08510    0.39210    0.29103    1.000
    N19      N        0.35030    0.40250    0.23104    1.000
    N20      N        0.16490    0.42680    0.21125    1.000
    O5       O        0.41820    0.36190    0.33731    1.000
    H23      H        0.23680    0.33710    0.38210    1.000
    H24      H        0.01150    0.40240    0.28260    1.000
    H25      H        0.10430    0.44010    0.19460    1.000
    Li6      Li       0.03380    0.97820    0.83150    1.000
    C26      C        0.67370    0.90210    0.76006    1.000
    C27      C        0.78700    0.88850    0.77294    1.000
    C28      C        0.81640    0.86760    0.82185    1.000
    C29      C        0.61920    0.86560    0.83510    1.000
    H26      H        0.56110    0.85350    0.85750    1.000
    C30      C        0.77270    0.92500    0.69640    1.000
    H27      H        0.79320    0.93840    0.66440    1.000
    N21      N        0.72560    0.85360    0.85221    1.000
    N22      N        0.58510    0.89210    0.79103    1.000
    N23      N        0.85030    0.90250    0.73104    1.000
    N24      N        0.66490    0.92680    0.71125    1.000
    O6       O        0.91820    0.86190    0.83731    1.000
    H28      H        0.73680    0.83710    0.88210    1.000
    H29      H        0.51150    0.90240    0.78260    1.000
    H30      H        0.60430    0.94010    0.69460    1.000
    Li7      Li       0.96620    0.52180    0.83150    1.000
    C31      C        0.32630    0.59790    0.76006    1.000
    C32      C        0.21300    0.61150    0.77294    1.000
    C33      C        0.18360    0.63240    0.82185    1.000
    C34      C        0.38080    0.63440    0.83510    1.000
    H31      H        0.43890    0.64650    0.85750    1.000
    C35      C        0.22730    0.57500    0.69640    1.000
    H32      H        0.20680    0.56160    0.66440    1.000
    N25      N        0.27440    0.64640    0.85221    1.000
    N26      N        0.41490    0.60790    0.79103    1.000
    N27      N        0.14970    0.59750    0.73104    1.000
    N28      N        0.33510    0.57320    0.71125    1.000
    O7       O        0.08180    0.63810    0.83731    1.000
    H33      H        0.26320    0.66290    0.88210    1.000
    H34      H        0.48850    0.59760    0.78260    1.000
    H35      H        0.39570    0.55990    0.69460    1.000
    Li8      Li       0.46620    0.02180    0.33150    1.000
    C36      C        0.82630    0.09790    0.26006    1.000
    C37      C        0.71300    0.11150    0.27294    1.000
    C38      C        0.68360    0.13240    0.32185    1.000
    C39      C        0.88080    0.13440    0.33510    1.000
    H36      H        0.93890    0.14650    0.35750    1.000
    C40      C        0.72730    0.07500    0.19640    1.000
    H37      H        0.70680    0.06160    0.16440    1.000
    N29      N        0.77440    0.14640    0.35221    1.000
    N30      N        0.91490    0.10790    0.29103    1.000
    N31      N        0.64970    0.09750    0.23104    1.000
    N32      N        0.83510    0.07320    0.21125    1.000
    O8       O        0.58180    0.13810    0.33731    1.000
    H38      H        0.76320    0.16290    0.38210    1.000
    H39      H        0.98850    0.09760    0.28260    1.000
    H40      H        0.89570    0.05990    0.19460    1.000
    Li9      Li       0.77180    0.78380    0.91850    1.000
    C41      C        0.84790    0.42370    0.98994    1.000
    C42      C        0.86150    0.53700    0.97706    1.000
    C43      C        0.88240    0.56640    0.92815    1.000
    C44      C        0.88440    0.36920    0.91490    1.000
    H41      H        0.89650    0.31110    0.89250    1.000
    C45      C        0.82500    0.52270    0.05360    1.000
    H42      H        0.81160    0.54320    0.08560    1.000
    N33      N        0.89640    0.47560    0.89779    1.000
    N34      N        0.85790    0.33510    0.95897    1.000
    N35      N        0.84750    0.60030    0.01896    1.000
    N36      N        0.82320    0.41490    0.03875    1.000
    O9       O        0.88810    0.66820    0.91269    1.000
    H43      H        0.91290    0.48680    0.86790    1.000
    H44      H        0.84760    0.26150    0.96740    1.000
    H45      H        0.80990    0.35430    0.05540    1.000
    Li10     Li       0.27180    0.28380    0.41850    1.000
    C46      C        0.34790    0.92370    0.48994    1.000
    C47      C        0.36150    0.03700    0.47706    1.000
    C48      C        0.38240    0.06640    0.42815    1.000
    C49      C        0.38440    0.86920    0.41490    1.000
    H46      H        0.39650    0.81110    0.39250    1.000
    C50      C        0.32500    0.02270    0.55360    1.000
    H47      H        0.31160    0.04320    0.58560    1.000
    N37      N        0.39640    0.97560    0.39779    1.000
    N38      N        0.35790    0.83510    0.45897    1.000
    N39      N        0.34750    0.10030    0.51896    1.000
    N40      N        0.32320    0.91490    0.53875    1.000
    O10      O        0.38810    0.16820    0.41269    1.000
    H48      H        0.41290    0.98680    0.36790    1.000
    H49      H        0.34760    0.76150    0.46740    1.000
    H50      H        0.30990    0.85430    0.55540    1.000
    Li11     Li       0.72820    0.21620    0.41850    1.000
    C51      C        0.65210    0.57630    0.48994    1.000
    C52      C        0.63850    0.46300    0.47706    1.000
    C53      C        0.61760    0.43360    0.42815    1.000
    C54      C        0.61560    0.63080    0.41490    1.000
    H51      H        0.60350    0.68890    0.39250    1.000
    C55      C        0.67500    0.47730    0.55360    1.000
    H52      H        0.68840    0.45680    0.58560    1.000
    N41      N        0.60360    0.52440    0.39779    1.000
    N42      N        0.64210    0.66490    0.45897    1.000
    N43      N        0.65250    0.39970    0.51896    1.000
    N44      N        0.67680    0.58510    0.53875    1.000
    O11      O        0.61190    0.33180    0.41269    1.000
    H53      H        0.58710    0.51320    0.36790    1.000
    H54      H        0.65240    0.73850    0.46740    1.000
    H55      H        0.69010    0.64570    0.55540    1.000
    Li12     Li       0.22820    0.71620    0.91850    1.000
    C56      C        0.15210    0.07630    0.98994    1.000
    C57      C        0.13850    0.96300    0.97706    1.000
    C58      C        0.11760    0.93360    0.92815    1.000
    C59      C        0.11560    0.13080    0.91490    1.000
    H56      H        0.10350    0.18890    0.89250    1.000
    C60      C        0.17500    0.97730    0.05360    1.000
    H57      H        0.18840    0.95680    0.08560    1.000
    N45      N        0.10360    0.02440    0.89779    1.000
    N46      N        0.14210    0.16490    0.95897    1.000
    N47      N        0.15250    0.89970    0.01896    1.000
    N48      N        0.17680    0.08510    0.03875    1.000
    O12      O        0.11190    0.83180    0.91269    1.000
    H58      H        0.08710    0.01320    0.86790    1.000
    H59      H        0.15240    0.23850    0.96740    1.000
    H60      H        0.19010    0.14570    0.05540    1.000
    Li13     Li       0.46620    0.52180    0.66850    1.000
    C61      C        0.82630    0.59790    0.73994    1.000
    C62      C        0.71300    0.61150    0.72706    1.000
    C63      C        0.68360    0.63240    0.67815    1.000
    C64      C        0.88080    0.63440    0.66490    1.000
    H61      H        0.93890    0.64650    0.64250    1.000
    C65      C        0.72730    0.57500    0.80360    1.000
    H62      H        0.70680    0.56160    0.83560    1.000
    N49      N        0.77440    0.64640    0.64779    1.000
    N50      N        0.91490    0.60790    0.70897    1.000
    N51      N        0.64970    0.59750    0.76896    1.000
    N52      N        0.83510    0.57320    0.78875    1.000
    O13      O        0.58180    0.63810    0.66269    1.000
    H63      H        0.76320    0.66290    0.61790    1.000
    H64      H        0.98850    0.59760    0.71740    1.000
    H65      H        0.89570    0.55990    0.80540    1.000
    Li14     Li       0.96620    0.02180    0.16850    1.000
    C66      C        0.32630    0.09790    0.23994    1.000
    C67      C        0.21300    0.11150    0.22706    1.000
    C68      C        0.18360    0.13240    0.17815    1.000
    C69      C        0.38080    0.13440    0.16490    1.000
    H66      H        0.43890    0.14650    0.14250    1.000
    C70      C        0.22730    0.07500    0.30360    1.000
    H67      H        0.20680    0.06160    0.33560    1.000
    N53      N        0.27440    0.14640    0.14779    1.000
    N54      N        0.41490    0.10790    0.20897    1.000
    N55      N        0.14970    0.09750    0.26896    1.000
    N56      N        0.33510    0.07320    0.28875    1.000
    O14      O        0.08180    0.13810    0.16269    1.000
    H68      H        0.26320    0.16290    0.11790    1.000
    H69      H        0.48850    0.09760    0.21740    1.000
    H70      H        0.39570    0.05990    0.30540    1.000
    Li15     Li       0.03380    0.47820    0.16850    1.000
    C71      C        0.67370    0.40210    0.23994    1.000
    C72      C        0.78700    0.38850    0.22706    1.000
    C73      C        0.81640    0.36760    0.17815    1.000
    C74      C        0.61920    0.36560    0.16490    1.000
    H71      H        0.56110    0.35350    0.14250    1.000
    C75      C        0.77270    0.42500    0.30360    1.000
    H72      H        0.79320    0.43840    0.33560    1.000
    N57      N        0.72560    0.35360    0.14779    1.000
    N58      N        0.58510    0.39210    0.20897    1.000
    N59      N        0.85030    0.40250    0.26896    1.000
    N60      N        0.66490    0.42680    0.28875    1.000
    O15      O        0.91820    0.36190    0.16269    1.000
    H73      H        0.73680    0.33710    0.11790    1.000
    H74      H        0.51150    0.40240    0.21740    1.000
    H75      H        0.60430    0.44010    0.30540    1.000
    Li16     Li       0.53380    0.97820    0.66850    1.000
    C76      C        0.17370    0.90210    0.73994    1.000
    C77      C        0.28700    0.88850    0.72706    1.000
    C78      C        0.31640    0.86760    0.67815    1.000
    C79      C        0.11920    0.86560    0.66490    1.000
    H76      H        0.06110    0.85350    0.64250    1.000
    C80      C        0.27270    0.92500    0.80360    1.000
    H77      H        0.29320    0.93840    0.83560    1.000
    N61      N        0.22560    0.85360    0.64779    1.000
    N62      N        0.08510    0.89210    0.70897    1.000
    N63      N        0.35030    0.90250    0.76896    1.000
    N64      N        0.16490    0.92680    0.78875    1.000
    O16      O        0.41820    0.86190    0.66269    1.000
    H78      H        0.23680    0.83710    0.61790    1.000
    H79      H        0.01150    0.90240    0.71740    1.000
    H80      H        0.10430    0.94010    0.80540    1.000
    Li17     Li       0.00000    0.25000    0.12500    1.000
    Li18     Li       0.50000    0.75000    0.62500    1.000
    Li19     Li       0.50000    0.25000    0.37500    1.000
    Li20     Li       0.00000    0.75000    0.87500    1.000
