data_functionalizedCrystal
_audit_creation_method	'EQeq! by Chris Wilmer'
_symmetry_space_group_name_H-M	'P1'
_symmetry_Int_Tables_number	1
_symmetry_cell_setting	triclinic
loop_
_symmetry_equiv_pos_as_xyz
  x,y,z
_cell_length_a	25.6886
_cell_length_b	25.6886
_cell_length_c	25.6886
_cell_angle_alpha	90
_cell_angle_beta	90
_cell_angle_gamma	90
loop_
_atom_site_label
_atom_site_type_symbol
_atom_site_fract_x
_atom_site_fract_y
_atom_site_fract_z
_atom_site_charge
Mof_N 	N 	0.3661	0.0632	0.3001	-0.221
Mof_N 	N 	0.44106	0.1078	0.28076	-0.193
Mof_H 	H 	0.4632	0.1317	0.2884	0.099
Mof_N 	N 	0.4542	0.07097	0.246	-0.171
Mof_C 	C 	0.3192	0.0618	0.3245	0.096
Mof_H 	H 	0.2985	0.0323	0.3209	-0.032
Mof_C 	C 	0.3012	0.1027	0.3547	-0.196
Mof_H 	H 	0.2704	0.0994	0.3735	0.084
Mof_C 	C 	0.3289	0.1475	0.3564	0.119
Mof_H 	H 	0.3154	0.1766	0.3731	-0.033
Mof_C 	C 	0.3771	0.1496	0.3333	-0.227
Mof_H 	H 	0.3977	0.1791	0.3377	0.092
Mof_C 	C 	0.3956	0.1082	0.3032	0.182
Mof_C 	C 	0.5009	0.0717	0.2281	0.213
Mof_C 	C 	0.5431	0.1107	0.2485	-0.653
Mof_H 	H 	0.5284	0.1319	0.2755	0.209
Mof_H 	H 	0.5545	0.1325	0.2204	0.214
Mof_H 	H 	0.5722	0.0916	0.2621	0.213
Mof_C 	C 	0.5159	0.0354	0.1856	-0.151
Mof_C 	C 	0.5693	0.0222	0.1785	0.065
Mof_H 	H 	0.5948	0.0346	0.2009	-0.013
Mof_C 	C 	0.582	0.9904	0.1374	-0.191
Mof_H 	H 	0.6167	0.9819	0.1319	0.087
Mof_C 	C 	0.5463	0.9715	0.1055	0.157
Mof_C 	C 	0.4925	0.985	0.1141	-0.197
Mof_H 	H 	0.4668	0.9721	0.092	0.098
Mof_C 	C 	0.4798	0.0152	0.1525	0.102
Mof_H 	H 	0.4449	0.0232	0.1577	-0.036
Mof_N 	N 	0.8661	0.5632	0.8001	-0.22
Mof_N 	N 	0.94106	0.6078	0.78076	-0.192
Mof_H 	H 	0.9632	0.6317	0.7884	0.103
Mof_N 	N 	0.9542	0.57097	0.746	-0.167
Mof_C 	C 	0.8192	0.5618	0.8245	0.099
Mof_H 	H 	0.7985	0.5323	0.8209	-0.029
Mof_C 	C 	0.8012	0.6027	0.8547	-0.195
Mof_H 	H 	0.7704	0.5994	0.8735	0.088
Mof_C 	C 	0.8289	0.6475	0.8564	0.122
Mof_H 	H 	0.8154	0.6766	0.8731	-0.031
Mof_C 	C 	0.8771	0.6496	0.8333	-0.227
Mof_H 	H 	0.8977	0.6791	0.8377	0.094
Mof_C 	C 	0.8956	0.6082	0.8032	0.185
Mof_C 	C 	0.0009	0.5717	0.7281	0.219
Mof_C 	C 	0.0431	0.6107	0.7485	-0.657
Mof_H 	H 	0.0284	0.6319	0.7755	0.209
Mof_H 	H 	0.0545	0.6325	0.7204	0.216
Mof_H 	H 	0.0722	0.5916	0.7621	0.216
Mof_C 	C 	0.0159	0.5354	0.6856	-0.188
Mof_C 	C 	0.0693	0.5222	0.6785	0.108
Mof_H 	H 	0.0948	0.5346	0.7009	-0.026
Mof_C 	C 	0.082	0.4904	0.6374	-0.232
Mof_H 	H 	0.1167	0.4819	0.6319	0.099
Mof_C 	C 	0.0463	0.4715	0.6055	0.175
Mof_C 	C 	0.9925	0.485	0.6141	-0.237
Mof_H 	H 	0.9668	0.4721	0.592	0.113
Mof_C 	C 	0.9798	0.5152	0.6525	0.162
Mof_H 	H 	0.9449	0.5232	0.6577	-0.053
Mof_N 	N 	0.1339	0.9368	0.8001	-0.216
Mof_N 	N 	0.05894	0.8922	0.78076	-0.19
Mof_H 	H 	0.0368	0.8683	0.7884	0.096
Mof_N 	N 	0.0458	0.92903	0.746	-0.178
Mof_C 	C 	0.1808	0.9382	0.8245	0.099
Mof_H 	H 	0.2015	0.9677	0.8209	-0.026
Mof_C 	C 	0.1988	0.8973	0.8547	-0.194
Mof_H 	H 	0.2296	0.9006	0.8735	0.088
Mof_C 	C 	0.1711	0.8525	0.8564	0.121
Mof_H 	H 	0.1846	0.8234	0.8731	-0.03
Mof_C 	C 	0.1229	0.8504	0.8333	-0.225
Mof_H 	H 	0.1023	0.8209	0.8377	0.092
Mof_C 	C 	0.1044	0.8918	0.8032	0.183
Mof_C 	C 	0.9991	0.9283	0.7281	0.249
Mof_C 	C 	0.9569	0.8893	0.7485	-0.688
Mof_H 	H 	0.9716	0.8681	0.7755	0.224
Mof_H 	H 	0.9455	0.8675	0.7204	0.227
Mof_H 	H 	0.9278	0.9084	0.7621	0.227
Mof_C 	C 	0.9841	0.9646	0.6856	-0.203
Mof_C 	C 	0.9307	0.9778	0.6785	0.149
Mof_H 	H 	0.9052	0.9654	0.7009	-0.039
Mof_C 	C 	0.918	0.0096	0.6374	-0.278
Mof_H 	H 	0.8833	0.0181	0.6319	0.112
Mof_C 	C 	0.9537	0.0285	0.6055	0.217
Mof_C 	C 	0.0075	0.015	0.6141	-0.299
Mof_H 	H 	0.0332	0.0279	0.592	0.127
Mof_C 	C 	0.0202	0.9848	0.6525	0.194
Mof_H 	H 	0.0551	0.9768	0.6577	-0.063
Mof_N 	N 	0.6339	0.4368	0.3001	-0.22
Mof_N 	N 	0.55894	0.3922	0.28076	-0.192
Mof_H 	H 	0.5368	0.3683	0.2884	0.099
Mof_N 	N 	0.5458	0.42903	0.246	-0.173
Mof_C 	C 	0.6808	0.4382	0.3245	0.098
Mof_H 	H 	0.7015	0.4677	0.3209	-0.029
Mof_C 	C 	0.6988	0.3973	0.3547	-0.195
Mof_H 	H 	0.7296	0.4006	0.3735	0.087
Mof_C 	C 	0.6711	0.3525	0.3564	0.121
Mof_H 	H 	0.6846	0.3234	0.3731	-0.031
Mof_C 	C 	0.6229	0.3504	0.3333	-0.226
Mof_H 	H 	0.6023	0.3209	0.3377	0.093
Mof_C 	C 	0.6044	0.3918	0.3032	0.183
Mof_C 	C 	0.4991	0.4283	0.2281	0.227
Mof_C 	C 	0.4569	0.3893	0.2485	-0.666
Mof_H 	H 	0.4716	0.3681	0.2755	0.214
Mof_H 	H 	0.4455	0.3675	0.2204	0.219
Mof_H 	H 	0.4278	0.4084	0.2621	0.218
Mof_C 	C 	0.4841	0.4646	0.1856	-0.182
Mof_C 	C 	0.4307	0.4778	0.1785	0.108
Mof_H 	H 	0.4052	0.4654	0.2009	-0.026
Mof_C 	C 	0.418	0.5096	0.1374	-0.235
Mof_H 	H 	0.3833	0.5181	0.1319	0.1
Mof_C 	C 	0.4537	0.5285	0.1055	0.183
Mof_C 	C 	0.5075	0.515	0.1141	-0.245
Mof_H 	H 	0.5332	0.5279	0.092	0.112
Mof_C 	C 	0.5202	0.4848	0.1525	0.153
Mof_H 	H 	0.5551	0.4768	0.1577	-0.052
Mof_N 	N 	0.6339	0.5632	0.1999	-0.22
Mof_N 	N 	0.55894	0.6078	0.21924	-0.192
Mof_H 	H 	0.5368	0.6317	0.2116	0.099
Mof_N 	N 	0.5458	0.57097	0.254	-0.173
Mof_C 	C 	0.6808	0.5618	0.1755	0.098
Mof_H 	H 	0.7015	0.5323	0.1791	-0.029
Mof_C 	C 	0.6988	0.6027	0.1453	-0.195
Mof_H 	H 	0.7296	0.5994	0.1265	0.086
Mof_C 	C 	0.6711	0.6475	0.1436	0.121
Mof_H 	H 	0.6846	0.6766	0.1269	-0.032
Mof_C 	C 	0.6229	0.6496	0.1667	-0.226
Mof_H 	H 	0.6023	0.6791	0.1623	0.093
Mof_C 	C 	0.6044	0.6082	0.1968	0.183
Mof_C 	C 	0.4991	0.5717	0.2719	0.227
Mof_C 	C 	0.4569	0.6107	0.2515	-0.666
Mof_H 	H 	0.4716	0.6319	0.2245	0.214
Mof_H 	H 	0.4455	0.6325	0.2796	0.219
Mof_H 	H 	0.4278	0.5916	0.2379	0.219
Mof_C 	C 	0.4841	0.5354	0.3144	-0.181
Mof_C 	C 	0.4307	0.5222	0.3215	0.108
Mof_H 	H 	0.4052	0.5346	0.2991	-0.026
Mof_C 	C 	0.418	0.4904	0.3626	-0.234
Mof_H 	H 	0.3833	0.4819	0.3681	0.1
Mof_C 	C 	0.4537	0.4715	0.3945	0.183
Mof_C 	C 	0.5075	0.485	0.3859	-0.245
Mof_H 	H 	0.5332	0.4721	0.408	0.113
Mof_C 	C 	0.5202	0.5152	0.3475	0.153
Mof_H 	H 	0.5551	0.5232	0.3423	-0.052
Mof_N 	N 	0.1339	0.0632	0.6999	-0.219
Mof_N 	N 	0.05894	0.1078	0.71924	-0.191
Mof_H 	H 	0.0368	0.1317	0.7116	0.096
Mof_N 	N 	0.0458	0.07097	0.754	-0.176
Mof_C 	C 	0.1808	0.0618	0.6755	0.097
Mof_H 	H 	0.2015	0.0323	0.6791	-0.03
Mof_C 	C 	0.1988	0.1027	0.6453	-0.195
Mof_H 	H 	0.2296	0.0994	0.6265	0.085
Mof_C 	C 	0.1711	0.1475	0.6436	0.119
Mof_H 	H 	0.1846	0.1766	0.6269	-0.031
Mof_C 	C 	0.1229	0.1496	0.6667	-0.225
Mof_H 	H 	0.1023	0.1791	0.6623	0.092
Mof_C 	C 	0.1044	0.1082	0.6968	0.182
Mof_C 	C 	0.9991	0.0717	0.7719	0.223
Mof_C 	C 	0.9569	0.1107	0.7515	-0.663
Mof_H 	H 	0.9716	0.1319	0.7245	0.216
Mof_H 	H 	0.9455	0.1325	0.7796	0.219
Mof_H 	H 	0.9278	0.0916	0.7379	0.217
Mof_C 	C 	0.9841	0.0354	0.8144	-0.145
Mof_C 	C 	0.9307	0.0222	0.8215	0.067
Mof_H 	H 	0.9052	0.0346	0.7991	-0.014
Mof_C 	C 	0.918	0.9904	0.8626	-0.194
Mof_H 	H 	0.8833	0.9819	0.8681	0.088
Mof_C 	C 	0.9537	0.9715	0.8945	0.165
Mof_C 	C 	0.0075	0.985	0.8859	-0.204
Mof_H 	H 	0.0332	0.9721	0.908	0.1
Mof_C 	C 	0.0202	0.0152	0.8475	0.095
Mof_H 	H 	0.0551	0.0232	0.8423	-0.034
Mof_N 	N 	0.8661	0.4368	0.6999	-0.22
Mof_N 	N 	0.94106	0.3922	0.71924	-0.192
Mof_H 	H 	0.9632	0.3683	0.7116	0.103
Mof_N 	N 	0.9542	0.42903	0.754	-0.167
Mof_C 	C 	0.8192	0.4382	0.6755	0.099
Mof_H 	H 	0.7985	0.4677	0.6791	-0.029
Mof_C 	C 	0.8012	0.3973	0.6453	-0.196
Mof_H 	H 	0.7704	0.4006	0.6265	0.087
Mof_C 	C 	0.8289	0.3525	0.6436	0.122
Mof_H 	H 	0.8154	0.3234	0.6269	-0.032
Mof_C 	C 	0.8771	0.3504	0.6667	-0.227
Mof_H 	H 	0.8977	0.3209	0.6623	0.094
Mof_C 	C 	0.8956	0.3918	0.6968	0.185
Mof_C 	C 	0.0009	0.4283	0.7719	0.219
Mof_C 	C 	0.0431	0.3893	0.7515	-0.657
Mof_H 	H 	0.0284	0.3681	0.7245	0.209
Mof_H 	H 	0.0545	0.3675	0.7796	0.216
Mof_H 	H 	0.0722	0.4084	0.7379	0.216
Mof_C 	C 	0.0159	0.4646	0.8144	-0.188
Mof_C 	C 	0.0693	0.4778	0.8215	0.108
Mof_H 	H 	0.0948	0.4654	0.7991	-0.026
Mof_C 	C 	0.082	0.5096	0.8626	-0.231
Mof_H 	H 	0.1167	0.5181	0.8681	0.099
Mof_C 	C 	0.0463	0.5285	0.8945	0.175
Mof_C 	C 	0.9925	0.515	0.8859	-0.237
Mof_H 	H 	0.9668	0.5279	0.908	0.114
Mof_C 	C 	0.9798	0.4848	0.8475	0.162
Mof_H 	H 	0.9449	0.4768	0.8423	-0.053
Mof_N 	N 	0.3661	0.9368	0.1999	-0.217
Mof_N 	N 	0.44106	0.8922	0.21924	-0.191
Mof_H 	H 	0.4632	0.8683	0.2116	0.099
Mof_N 	N 	0.4542	0.92903	0.254	-0.172
Mof_C 	C 	0.3192	0.9382	0.1755	0.098
Mof_H 	H 	0.2985	0.9677	0.1791	-0.027
Mof_C 	C 	0.3012	0.8973	0.1453	-0.194
Mof_H 	H 	0.2704	0.9006	0.1265	0.086
Mof_C 	C 	0.3289	0.8525	0.1436	0.121
Mof_H 	H 	0.3154	0.8234	0.1269	-0.032
Mof_C 	C 	0.3771	0.8504	0.1667	-0.226
Mof_H 	H 	0.3977	0.8209	0.1623	0.093
Mof_C 	C 	0.3956	0.8918	0.1968	0.184
Mof_C 	C 	0.5009	0.9283	0.2719	0.24
Mof_C 	C 	0.5431	0.8893	0.2515	-0.679
Mof_H 	H 	0.5284	0.8681	0.2245	0.218
Mof_H 	H 	0.5545	0.8675	0.2796	0.223
Mof_H 	H 	0.5722	0.9084	0.2379	0.224
Mof_C 	C 	0.5159	0.9646	0.3144	-0.21
Mof_C 	C 	0.5693	0.9778	0.3215	0.15
Mof_H 	H 	0.5948	0.9654	0.2991	-0.039
Mof_C 	C 	0.582	0.0096	0.3626	-0.276
Mof_H 	H 	0.6167	0.0181	0.3681	0.112
Mof_C 	C 	0.5463	0.0285	0.3945	0.209
Mof_C 	C 	0.4925	0.015	0.3859	-0.291
Mof_H 	H 	0.4668	0.0279	0.408	0.127
Mof_C 	C 	0.4798	0.9848	0.3475	0.202
Mof_H 	H 	0.4449	0.9768	0.3423	-0.065
Mof_N 	N 	0.3001	0.3661	0.0632	-0.22
Mof_N 	N 	0.28076	0.44106	0.1078	-0.192
Mof_H 	H 	0.2884	0.4632	0.1317	0.1
Mof_N 	N 	0.246	0.4542	0.07097	-0.17
Mof_C 	C 	0.3245	0.3192	0.0618	0.097
Mof_H 	H 	0.3209	0.2985	0.0323	-0.031
Mof_C 	C 	0.3547	0.3012	0.1027	-0.195
Mof_H 	H 	0.3735	0.2704	0.0994	0.085
Mof_C 	C 	0.3564	0.3289	0.1475	0.12
Mof_H 	H 	0.3731	0.3154	0.1766	-0.032
Mof_C 	C 	0.3333	0.3771	0.1496	-0.226
Mof_H 	H 	0.3377	0.3977	0.1791	0.093
Mof_C 	C 	0.3032	0.3956	0.1082	0.183
Mof_C 	C 	0.2281	0.5009	0.0717	0.214
Mof_C 	C 	0.2485	0.5431	0.1107	-0.652
Mof_H 	H 	0.2755	0.5284	0.1319	0.21
Mof_H 	H 	0.2204	0.5545	0.1325	0.215
Mof_H 	H 	0.2621	0.5722	0.0916	0.213
Mof_C 	C 	0.1856	0.5159	0.0354	-0.151
Mof_C 	C 	0.1785	0.5693	0.0222	0.065
Mof_H 	H 	0.2009	0.5948	0.0346	-0.013
Mof_C 	C 	0.1374	0.582	0.9904	-0.191
Mof_H 	H 	0.1319	0.6167	0.9819	0.087
Mof_C 	C 	0.1055	0.5463	0.9715	0.157
Mof_C 	C 	0.1141	0.4925	0.985	-0.197
Mof_H 	H 	0.092	0.4668	0.9721	0.098
Mof_C 	C 	0.1525	0.4798	0.0152	0.102
Mof_H 	H 	0.1577	0.4449	0.0232	-0.036
Mof_N 	N 	0.8001	0.8661	0.5632	-0.22
Mof_N 	N 	0.78076	0.94106	0.6078	-0.192
Mof_H 	H 	0.7884	0.9632	0.6317	0.103
Mof_N 	N 	0.746	0.9542	0.57097	-0.167
Mof_C 	C 	0.8245	0.8192	0.5618	0.099
Mof_H 	H 	0.8209	0.7985	0.5323	-0.029
Mof_C 	C 	0.8547	0.8012	0.6027	-0.195
Mof_H 	H 	0.8735	0.7704	0.5994	0.088
Mof_C 	C 	0.8564	0.8289	0.6475	0.122
Mof_H 	H 	0.8731	0.8154	0.6766	-0.031
Mof_C 	C 	0.8333	0.8771	0.6496	-0.227
Mof_H 	H 	0.8377	0.8977	0.6791	0.094
Mof_C 	C 	0.8032	0.8956	0.6082	0.185
Mof_C 	C 	0.7281	0.0009	0.5717	0.219
Mof_C 	C 	0.7485	0.0431	0.6107	-0.657
Mof_H 	H 	0.7755	0.0284	0.6319	0.209
Mof_H 	H 	0.7204	0.0545	0.6325	0.216
Mof_H 	H 	0.7621	0.0722	0.5916	0.216
Mof_C 	C 	0.6856	0.0159	0.5354	-0.188
Mof_C 	C 	0.6785	0.0693	0.5222	0.108
Mof_H 	H 	0.7009	0.0948	0.5346	-0.026
Mof_C 	C 	0.6374	0.082	0.4904	-0.232
Mof_H 	H 	0.6319	0.1167	0.4819	0.099
Mof_C 	C 	0.6055	0.0463	0.4715	0.175
Mof_C 	C 	0.6141	0.9925	0.485	-0.237
Mof_H 	H 	0.592	0.9668	0.4721	0.113
Mof_C 	C 	0.6525	0.9798	0.5152	0.162
Mof_H 	H 	0.6577	0.9449	0.5232	-0.053
Mof_N 	N 	0.8001	0.1339	0.9368	-0.216
Mof_N 	N 	0.78076	0.05894	0.8922	-0.19
Mof_H 	H 	0.7884	0.0368	0.8683	0.096
Mof_N 	N 	0.746	0.0458	0.92903	-0.178
Mof_C 	C 	0.8245	0.1808	0.9382	0.099
Mof_H 	H 	0.8209	0.2015	0.9677	-0.026
Mof_C 	C 	0.8547	0.1988	0.8973	-0.194
Mof_H 	H 	0.8735	0.2296	0.9006	0.088
Mof_C 	C 	0.8564	0.1711	0.8525	0.121
Mof_H 	H 	0.8731	0.1846	0.8234	-0.03
Mof_C 	C 	0.8333	0.1229	0.8504	-0.225
Mof_H 	H 	0.8377	0.1023	0.8209	0.092
Mof_C 	C 	0.8032	0.1044	0.8918	0.183
Mof_C 	C 	0.7281	0.9991	0.9283	0.249
Mof_C 	C 	0.7485	0.9569	0.8893	-0.688
Mof_H 	H 	0.7755	0.9716	0.8681	0.224
Mof_H 	H 	0.7204	0.9455	0.8675	0.227
Mof_H 	H 	0.7621	0.9278	0.9084	0.227
Mof_C 	C 	0.6856	0.9841	0.9646	-0.203
Mof_C 	C 	0.6785	0.9307	0.9778	0.149
Mof_H 	H 	0.7009	0.9052	0.9654	-0.039
Mof_C 	C 	0.6374	0.918	0.0096	-0.278
Mof_H 	H 	0.6319	0.8833	0.0181	0.112
Mof_C 	C 	0.6055	0.9537	0.0285	0.217
Mof_C 	C 	0.6141	0.0075	0.015	-0.299
Mof_H 	H 	0.592	0.0332	0.0279	0.127
Mof_C 	C 	0.6525	0.0202	0.9848	0.194
Mof_H 	H 	0.6577	0.0551	0.9768	-0.063
Mof_N 	N 	0.3001	0.6339	0.4368	-0.22
Mof_N 	N 	0.28076	0.55894	0.3922	-0.192
Mof_H 	H 	0.2884	0.5368	0.3683	0.099
Mof_N 	N 	0.246	0.5458	0.42903	-0.173
Mof_C 	C 	0.3245	0.6808	0.4382	0.098
Mof_H 	H 	0.3209	0.7015	0.4677	-0.029
Mof_C 	C 	0.3547	0.6988	0.3973	-0.195
Mof_H 	H 	0.3735	0.7296	0.4006	0.087
Mof_C 	C 	0.3564	0.6711	0.3525	0.121
Mof_H 	H 	0.3731	0.6846	0.3234	-0.031
Mof_C 	C 	0.3333	0.6229	0.3504	-0.226
Mof_H 	H 	0.3377	0.6023	0.3209	0.093
Mof_C 	C 	0.3032	0.6044	0.3918	0.183
Mof_C 	C 	0.2281	0.4991	0.4283	0.227
Mof_C 	C 	0.2485	0.4569	0.3893	-0.666
Mof_H 	H 	0.2755	0.4716	0.3681	0.214
Mof_H 	H 	0.2204	0.4455	0.3675	0.219
Mof_H 	H 	0.2621	0.4278	0.4084	0.218
Mof_C 	C 	0.1856	0.4841	0.4646	-0.182
Mof_C 	C 	0.1785	0.4307	0.4778	0.108
Mof_H 	H 	0.2009	0.4052	0.4654	-0.026
Mof_C 	C 	0.1374	0.418	0.5096	-0.235
Mof_H 	H 	0.1319	0.3833	0.5181	0.1
Mof_C 	C 	0.1055	0.4537	0.5285	0.183
Mof_C 	C 	0.1141	0.5075	0.515	-0.245
Mof_H 	H 	0.092	0.5332	0.5279	0.112
Mof_C 	C 	0.1525	0.5202	0.4848	0.153
Mof_H 	H 	0.1577	0.5551	0.4768	-0.052
Mof_N 	N 	0.1999	0.6339	0.5632	-0.22
Mof_N 	N 	0.21924	0.55894	0.6078	-0.192
Mof_H 	H 	0.2116	0.5368	0.6317	0.099
Mof_N 	N 	0.254	0.5458	0.57097	-0.173
Mof_C 	C 	0.1755	0.6808	0.5618	0.098
Mof_H 	H 	0.1791	0.7015	0.5323	-0.029
Mof_C 	C 	0.1453	0.6988	0.6027	-0.195
Mof_H 	H 	0.1265	0.7296	0.5994	0.086
Mof_C 	C 	0.1436	0.6711	0.6475	0.121
Mof_H 	H 	0.1269	0.6846	0.6766	-0.032
Mof_C 	C 	0.1667	0.6229	0.6496	-0.226
Mof_H 	H 	0.1623	0.6023	0.6791	0.093
Mof_C 	C 	0.1968	0.6044	0.6082	0.183
Mof_C 	C 	0.2719	0.4991	0.5717	0.227
Mof_C 	C 	0.2515	0.4569	0.6107	-0.666
Mof_H 	H 	0.2245	0.4716	0.6319	0.214
Mof_H 	H 	0.2796	0.4455	0.6325	0.219
Mof_H 	H 	0.2379	0.4278	0.5916	0.219
Mof_C 	C 	0.3144	0.4841	0.5354	-0.181
Mof_C 	C 	0.3215	0.4307	0.5222	0.108
Mof_H 	H 	0.2991	0.4052	0.5346	-0.026
Mof_C 	C 	0.3626	0.418	0.4904	-0.234
Mof_H 	H 	0.3681	0.3833	0.4819	0.1
Mof_C 	C 	0.3945	0.4537	0.4715	0.183
Mof_C 	C 	0.3859	0.5075	0.485	-0.245
Mof_H 	H 	0.408	0.5332	0.4721	0.113
Mof_C 	C 	0.3475	0.5202	0.5152	0.153
Mof_H 	H 	0.3423	0.5551	0.5232	-0.052
Mof_N 	N 	0.6999	0.1339	0.0632	-0.219
Mof_N 	N 	0.71924	0.05894	0.1078	-0.191
Mof_H 	H 	0.7116	0.0368	0.1317	0.096
Mof_N 	N 	0.754	0.0458	0.07097	-0.176
Mof_C 	C 	0.6755	0.1808	0.0618	0.097
Mof_H 	H 	0.6791	0.2015	0.0323	-0.03
Mof_C 	C 	0.6453	0.1988	0.1027	-0.195
Mof_H 	H 	0.6265	0.2296	0.0994	0.085
Mof_C 	C 	0.6436	0.1711	0.1475	0.119
Mof_H 	H 	0.6269	0.1846	0.1766	-0.031
Mof_C 	C 	0.6667	0.1229	0.1496	-0.225
Mof_H 	H 	0.6623	0.1023	0.1791	0.092
Mof_C 	C 	0.6968	0.1044	0.1082	0.182
Mof_C 	C 	0.7719	0.9991	0.0717	0.223
Mof_C 	C 	0.7515	0.9569	0.1107	-0.663
Mof_H 	H 	0.7245	0.9716	0.1319	0.216
Mof_H 	H 	0.7796	0.9455	0.1325	0.219
Mof_H 	H 	0.7379	0.9278	0.0916	0.217
Mof_C 	C 	0.8144	0.9841	0.0354	-0.145
Mof_C 	C 	0.8215	0.9307	0.0222	0.067
Mof_H 	H 	0.7991	0.9052	0.0346	-0.014
Mof_C 	C 	0.8626	0.918	0.9904	-0.194
Mof_H 	H 	0.8681	0.8833	0.9819	0.088
Mof_C 	C 	0.8945	0.9537	0.9715	0.165
Mof_C 	C 	0.8859	0.0075	0.985	-0.204
Mof_H 	H 	0.908	0.0332	0.9721	0.1
Mof_C 	C 	0.8475	0.0202	0.0152	0.095
Mof_H 	H 	0.8423	0.0551	0.0232	-0.034
Mof_N 	N 	0.6999	0.8661	0.4368	-0.22
Mof_N 	N 	0.71924	0.94106	0.3922	-0.192
Mof_H 	H 	0.7116	0.9632	0.3683	0.103
Mof_N 	N 	0.754	0.9542	0.42903	-0.167
Mof_C 	C 	0.6755	0.8192	0.4382	0.099
Mof_H 	H 	0.6791	0.7985	0.4677	-0.029
Mof_C 	C 	0.6453	0.8012	0.3973	-0.196
Mof_H 	H 	0.6265	0.7704	0.4006	0.087
Mof_C 	C 	0.6436	0.8289	0.3525	0.122
Mof_H 	H 	0.6269	0.8154	0.3234	-0.032
Mof_C 	C 	0.6667	0.8771	0.3504	-0.227
Mof_H 	H 	0.6623	0.8977	0.3209	0.094
Mof_C 	C 	0.6968	0.8956	0.3918	0.185
Mof_C 	C 	0.7719	0.0009	0.4283	0.219
Mof_C 	C 	0.7515	0.0431	0.3893	-0.657
Mof_H 	H 	0.7245	0.0284	0.3681	0.209
Mof_H 	H 	0.7796	0.0545	0.3675	0.216
Mof_H 	H 	0.7379	0.0722	0.4084	0.216
Mof_C 	C 	0.8144	0.0159	0.4646	-0.188
Mof_C 	C 	0.8215	0.0693	0.4778	0.108
Mof_H 	H 	0.7991	0.0948	0.4654	-0.026
Mof_C 	C 	0.8626	0.082	0.5096	-0.231
Mof_H 	H 	0.8681	0.1167	0.5181	0.099
Mof_C 	C 	0.8945	0.0463	0.5285	0.175
Mof_C 	C 	0.8859	0.9925	0.515	-0.237
Mof_H 	H 	0.908	0.9668	0.5279	0.114
Mof_C 	C 	0.8475	0.9798	0.4848	0.162
Mof_H 	H 	0.8423	0.9449	0.4768	-0.053
Mof_N 	N 	0.1999	0.3661	0.9368	-0.217
Mof_N 	N 	0.21924	0.44106	0.8922	-0.191
Mof_H 	H 	0.2116	0.4632	0.8683	0.099
Mof_N 	N 	0.254	0.4542	0.92903	-0.172
Mof_C 	C 	0.1755	0.3192	0.9382	0.098
Mof_H 	H 	0.1791	0.2985	0.9677	-0.027
Mof_C 	C 	0.1453	0.3012	0.8973	-0.194
Mof_H 	H 	0.1265	0.2704	0.9006	0.086
Mof_C 	C 	0.1436	0.3289	0.8525	0.121
Mof_H 	H 	0.1269	0.3154	0.8234	-0.032
Mof_C 	C 	0.1667	0.3771	0.8504	-0.226
Mof_H 	H 	0.1623	0.3977	0.8209	0.093
Mof_C 	C 	0.1968	0.3956	0.8918	0.184
Mof_C 	C 	0.2719	0.5009	0.9283	0.24
Mof_C 	C 	0.2515	0.5431	0.8893	-0.679
Mof_H 	H 	0.2245	0.5284	0.8681	0.218
Mof_H 	H 	0.2796	0.5545	0.8675	0.223
Mof_H 	H 	0.2379	0.5722	0.9084	0.224
Mof_C 	C 	0.3144	0.5159	0.9646	-0.21
Mof_C 	C 	0.3215	0.5693	0.9778	0.15
Mof_H 	H 	0.2991	0.5948	0.9654	-0.039
Mof_C 	C 	0.3626	0.582	0.0096	-0.276
Mof_H 	H 	0.3681	0.6167	0.0181	0.112
Mof_C 	C 	0.3945	0.5463	0.0285	0.209
Mof_C 	C 	0.3859	0.4925	0.015	-0.291
Mof_H 	H 	0.408	0.4668	0.0279	0.127
Mof_C 	C 	0.3475	0.4798	0.9848	0.202
Mof_H 	H 	0.3423	0.4449	0.9768	-0.065
Mof_N 	N 	0.0632	0.3001	0.3661	-0.22
Mof_N 	N 	0.1078	0.28076	0.44106	-0.192
Mof_H 	H 	0.1317	0.2884	0.4632	0.1
Mof_N 	N 	0.07097	0.246	0.4542	-0.17
Mof_C 	C 	0.0618	0.3245	0.3192	0.097
Mof_H 	H 	0.0323	0.3209	0.2985	-0.031
Mof_C 	C 	0.1027	0.3547	0.3012	-0.195
Mof_H 	H 	0.0994	0.3735	0.2704	0.085
Mof_C 	C 	0.1475	0.3564	0.3289	0.12
Mof_H 	H 	0.1766	0.3731	0.3154	-0.032
Mof_C 	C 	0.1496	0.3333	0.3771	-0.226
Mof_H 	H 	0.1791	0.3377	0.3977	0.093
Mof_C 	C 	0.1082	0.3032	0.3956	0.183
Mof_C 	C 	0.0717	0.2281	0.5009	0.214
Mof_C 	C 	0.1107	0.2485	0.5431	-0.652
Mof_H 	H 	0.1319	0.2755	0.5284	0.21
Mof_H 	H 	0.1325	0.2204	0.5545	0.215
Mof_H 	H 	0.0916	0.2621	0.5722	0.213
Mof_C 	C 	0.0354	0.1856	0.5159	-0.151
Mof_C 	C 	0.0222	0.1785	0.5693	0.065
Mof_H 	H 	0.0346	0.2009	0.5948	-0.013
Mof_C 	C 	0.9904	0.1374	0.582	-0.191
Mof_H 	H 	0.9819	0.1319	0.6167	0.087
Mof_C 	C 	0.9715	0.1055	0.5463	0.157
Mof_C 	C 	0.985	0.1141	0.4925	-0.197
Mof_H 	H 	0.9721	0.092	0.4668	0.098
Mof_C 	C 	0.0152	0.1525	0.4798	0.102
Mof_H 	H 	0.0232	0.1577	0.4449	-0.036
Mof_N 	N 	0.5632	0.8001	0.8661	-0.22
Mof_N 	N 	0.6078	0.78076	0.94106	-0.192
Mof_H 	H 	0.6317	0.7884	0.9632	0.103
Mof_N 	N 	0.57097	0.746	0.9542	-0.167
Mof_C 	C 	0.5618	0.8245	0.8192	0.099
Mof_H 	H 	0.5323	0.8209	0.7985	-0.029
Mof_C 	C 	0.6027	0.8547	0.8012	-0.195
Mof_H 	H 	0.5994	0.8735	0.7704	0.088
Mof_C 	C 	0.6475	0.8564	0.8289	0.122
Mof_H 	H 	0.6766	0.8731	0.8154	-0.031
Mof_C 	C 	0.6496	0.8333	0.8771	-0.227
Mof_H 	H 	0.6791	0.8377	0.8977	0.094
Mof_C 	C 	0.6082	0.8032	0.8956	0.185
Mof_C 	C 	0.5717	0.7281	0.0009	0.219
Mof_C 	C 	0.6107	0.7485	0.0431	-0.657
Mof_H 	H 	0.6319	0.7755	0.0284	0.209
Mof_H 	H 	0.6325	0.7204	0.0545	0.216
Mof_H 	H 	0.5916	0.7621	0.0722	0.216
Mof_C 	C 	0.5354	0.6856	0.0159	-0.188
Mof_C 	C 	0.5222	0.6785	0.0693	0.108
Mof_H 	H 	0.5346	0.7009	0.0948	-0.026
Mof_C 	C 	0.4904	0.6374	0.082	-0.232
Mof_H 	H 	0.4819	0.6319	0.1167	0.099
Mof_C 	C 	0.4715	0.6055	0.0463	0.175
Mof_C 	C 	0.485	0.6141	0.9925	-0.237
Mof_H 	H 	0.4721	0.592	0.9668	0.113
Mof_C 	C 	0.5152	0.6525	0.9798	0.162
Mof_H 	H 	0.5232	0.6577	0.9449	-0.053
Mof_N 	N 	0.9368	0.8001	0.1339	-0.216
Mof_N 	N 	0.8922	0.78076	0.05894	-0.19
Mof_H 	H 	0.8683	0.7884	0.0368	0.096
Mof_N 	N 	0.92903	0.746	0.0458	-0.178
Mof_C 	C 	0.9382	0.8245	0.1808	0.099
Mof_H 	H 	0.9677	0.8209	0.2015	-0.026
Mof_C 	C 	0.8973	0.8547	0.1988	-0.194
Mof_H 	H 	0.9006	0.8735	0.2296	0.088
Mof_C 	C 	0.8525	0.8564	0.1711	0.121
Mof_H 	H 	0.8234	0.8731	0.1846	-0.03
Mof_C 	C 	0.8504	0.8333	0.1229	-0.225
Mof_H 	H 	0.8209	0.8377	0.1023	0.092
Mof_C 	C 	0.8918	0.8032	0.1044	0.183
Mof_C 	C 	0.9283	0.7281	0.9991	0.249
Mof_C 	C 	0.8893	0.7485	0.9569	-0.688
Mof_H 	H 	0.8681	0.7755	0.9716	0.224
Mof_H 	H 	0.8675	0.7204	0.9455	0.227
Mof_H 	H 	0.9084	0.7621	0.9278	0.227
Mof_C 	C 	0.9646	0.6856	0.9841	-0.203
Mof_C 	C 	0.9778	0.6785	0.9307	0.149
Mof_H 	H 	0.9654	0.7009	0.9052	-0.039
Mof_C 	C 	0.0096	0.6374	0.918	-0.278
Mof_H 	H 	0.0181	0.6319	0.8833	0.112
Mof_C 	C 	0.0285	0.6055	0.9537	0.217
Mof_C 	C 	0.015	0.6141	0.0075	-0.299
Mof_H 	H 	0.0279	0.592	0.0332	0.127
Mof_C 	C 	0.9848	0.6525	0.0202	0.194
Mof_H 	H 	0.9768	0.6577	0.0551	-0.063
Mof_N 	N 	0.4368	0.3001	0.6339	-0.22
Mof_N 	N 	0.3922	0.28076	0.55894	-0.192
Mof_H 	H 	0.3683	0.2884	0.5368	0.099
Mof_N 	N 	0.42903	0.246	0.5458	-0.173
Mof_C 	C 	0.4382	0.3245	0.6808	0.098
Mof_H 	H 	0.4677	0.3209	0.7015	-0.029
Mof_C 	C 	0.3973	0.3547	0.6988	-0.195
Mof_H 	H 	0.4006	0.3735	0.7296	0.087
Mof_C 	C 	0.3525	0.3564	0.6711	0.121
Mof_H 	H 	0.3234	0.3731	0.6846	-0.031
Mof_C 	C 	0.3504	0.3333	0.6229	-0.226
Mof_H 	H 	0.3209	0.3377	0.6023	0.093
Mof_C 	C 	0.3918	0.3032	0.6044	0.183
Mof_C 	C 	0.4283	0.2281	0.4991	0.227
Mof_C 	C 	0.3893	0.2485	0.4569	-0.666
Mof_H 	H 	0.3681	0.2755	0.4716	0.214
Mof_H 	H 	0.3675	0.2204	0.4455	0.219
Mof_H 	H 	0.4084	0.2621	0.4278	0.218
Mof_C 	C 	0.4646	0.1856	0.4841	-0.182
Mof_C 	C 	0.4778	0.1785	0.4307	0.108
Mof_H 	H 	0.4654	0.2009	0.4052	-0.026
Mof_C 	C 	0.5096	0.1374	0.418	-0.235
Mof_H 	H 	0.5181	0.1319	0.3833	0.1
Mof_C 	C 	0.5285	0.1055	0.4537	0.183
Mof_C 	C 	0.515	0.1141	0.5075	-0.245
Mof_H 	H 	0.5279	0.092	0.5332	0.112
Mof_C 	C 	0.4848	0.1525	0.5202	0.153
Mof_H 	H 	0.4768	0.1577	0.5551	-0.052
Mof_N 	N 	0.5632	0.1999	0.6339	-0.22
Mof_N 	N 	0.6078	0.21924	0.55894	-0.192
Mof_H 	H 	0.6317	0.2116	0.5368	0.099
Mof_N 	N 	0.57097	0.254	0.5458	-0.173
Mof_C 	C 	0.5618	0.1755	0.6808	0.098
Mof_H 	H 	0.5323	0.1791	0.7015	-0.029
Mof_C 	C 	0.6027	0.1453	0.6988	-0.195
Mof_H 	H 	0.5994	0.1265	0.7296	0.086
Mof_C 	C 	0.6475	0.1436	0.6711	0.121
Mof_H 	H 	0.6766	0.1269	0.6846	-0.032
Mof_C 	C 	0.6496	0.1667	0.6229	-0.226
Mof_H 	H 	0.6791	0.1623	0.6023	0.093
Mof_C 	C 	0.6082	0.1968	0.6044	0.183
Mof_C 	C 	0.5717	0.2719	0.4991	0.227
Mof_C 	C 	0.6107	0.2515	0.4569	-0.666
Mof_H 	H 	0.6319	0.2245	0.4716	0.214
Mof_H 	H 	0.6325	0.2796	0.4455	0.219
Mof_H 	H 	0.5916	0.2379	0.4278	0.219
Mof_C 	C 	0.5354	0.3144	0.4841	-0.181
Mof_C 	C 	0.5222	0.3215	0.4307	0.108
Mof_H 	H 	0.5346	0.2991	0.4052	-0.026
Mof_C 	C 	0.4904	0.3626	0.418	-0.234
Mof_H 	H 	0.4819	0.3681	0.3833	0.1
Mof_C 	C 	0.4715	0.3945	0.4537	0.183
Mof_C 	C 	0.485	0.3859	0.5075	-0.245
Mof_H 	H 	0.4721	0.408	0.5332	0.113
Mof_C 	C 	0.5152	0.3475	0.5202	0.153
Mof_H 	H 	0.5232	0.3423	0.5551	-0.052
Mof_N 	N 	0.0632	0.6999	0.1339	-0.219
Mof_N 	N 	0.1078	0.71924	0.05894	-0.191
Mof_H 	H 	0.1317	0.7116	0.0368	0.096
Mof_N 	N 	0.07097	0.754	0.0458	-0.176
Mof_C 	C 	0.0618	0.6755	0.1808	0.097
Mof_H 	H 	0.0323	0.6791	0.2015	-0.03
Mof_C 	C 	0.1027	0.6453	0.1988	-0.195
Mof_H 	H 	0.0994	0.6265	0.2296	0.085
Mof_C 	C 	0.1475	0.6436	0.1711	0.119
Mof_H 	H 	0.1766	0.6269	0.1846	-0.031
Mof_C 	C 	0.1496	0.6667	0.1229	-0.225
Mof_H 	H 	0.1791	0.6623	0.1023	0.092
Mof_C 	C 	0.1082	0.6968	0.1044	0.182
Mof_C 	C 	0.0717	0.7719	0.9991	0.223
Mof_C 	C 	0.1107	0.7515	0.9569	-0.663
Mof_H 	H 	0.1319	0.7245	0.9716	0.216
Mof_H 	H 	0.1325	0.7796	0.9455	0.219
Mof_H 	H 	0.0916	0.7379	0.9278	0.217
Mof_C 	C 	0.0354	0.8144	0.9841	-0.145
Mof_C 	C 	0.0222	0.8215	0.9307	0.067
Mof_H 	H 	0.0346	0.7991	0.9052	-0.014
Mof_C 	C 	0.9904	0.8626	0.918	-0.194
Mof_H 	H 	0.9819	0.8681	0.8833	0.088
Mof_C 	C 	0.9715	0.8945	0.9537	0.165
Mof_C 	C 	0.985	0.8859	0.0075	-0.204
Mof_H 	H 	0.9721	0.908	0.0332	0.1
Mof_C 	C 	0.0152	0.8475	0.0202	0.095
Mof_H 	H 	0.0232	0.8423	0.0551	-0.034
Mof_N 	N 	0.4368	0.6999	0.8661	-0.22
Mof_N 	N 	0.3922	0.71924	0.94106	-0.192
Mof_H 	H 	0.3683	0.7116	0.9632	0.103
Mof_N 	N 	0.42903	0.754	0.9542	-0.167
Mof_C 	C 	0.4382	0.6755	0.8192	0.099
Mof_H 	H 	0.4677	0.6791	0.7985	-0.029
Mof_C 	C 	0.3973	0.6453	0.8012	-0.196
Mof_H 	H 	0.4006	0.6265	0.7704	0.087
Mof_C 	C 	0.3525	0.6436	0.8289	0.122
Mof_H 	H 	0.3234	0.6269	0.8154	-0.032
Mof_C 	C 	0.3504	0.6667	0.8771	-0.227
Mof_H 	H 	0.3209	0.6623	0.8977	0.094
Mof_C 	C 	0.3918	0.6968	0.8956	0.185
Mof_C 	C 	0.4283	0.7719	0.0009	0.219
Mof_C 	C 	0.3893	0.7515	0.0431	-0.657
Mof_H 	H 	0.3681	0.7245	0.0284	0.209
Mof_H 	H 	0.3675	0.7796	0.0545	0.216
Mof_H 	H 	0.4084	0.7379	0.0722	0.216
Mof_C 	C 	0.4646	0.8144	0.0159	-0.188
Mof_C 	C 	0.4778	0.8215	0.0693	0.108
Mof_H 	H 	0.4654	0.7991	0.0948	-0.026
Mof_C 	C 	0.5096	0.8626	0.082	-0.231
Mof_H 	H 	0.5181	0.8681	0.1167	0.099
Mof_C 	C 	0.5285	0.8945	0.0463	0.175
Mof_C 	C 	0.515	0.8859	0.9925	-0.237
Mof_H 	H 	0.5279	0.908	0.9668	0.114
Mof_C 	C 	0.4848	0.8475	0.9798	0.162
Mof_H 	H 	0.4768	0.8423	0.9449	-0.053
Mof_N 	N 	0.9368	0.1999	0.3661	-0.217
Mof_N 	N 	0.8922	0.21924	0.44106	-0.191
Mof_H 	H 	0.8683	0.2116	0.4632	0.099
Mof_N 	N 	0.92903	0.254	0.4542	-0.172
Mof_C 	C 	0.9382	0.1755	0.3192	0.098
Mof_H 	H 	0.9677	0.1791	0.2985	-0.027
Mof_C 	C 	0.8973	0.1453	0.3012	-0.194
Mof_H 	H 	0.9006	0.1265	0.2704	0.086
Mof_C 	C 	0.8525	0.1436	0.3289	0.121
Mof_H 	H 	0.8234	0.1269	0.3154	-0.032
Mof_C 	C 	0.8504	0.1667	0.3771	-0.226
Mof_H 	H 	0.8209	0.1623	0.3977	0.093
Mof_C 	C 	0.8918	0.1968	0.3956	0.184
Mof_C 	C 	0.9283	0.2719	0.5009	0.24
Mof_C 	C 	0.8893	0.2515	0.5431	-0.679
Mof_H 	H 	0.8681	0.2245	0.5284	0.218
Mof_H 	H 	0.8675	0.2796	0.5545	0.223
Mof_H 	H 	0.9084	0.2379	0.5722	0.224
Mof_C 	C 	0.9646	0.3144	0.5159	-0.21
Mof_C 	C 	0.9778	0.3215	0.5693	0.15
Mof_H 	H 	0.9654	0.2991	0.5948	-0.039
Mof_C 	C 	0.0096	0.3626	0.582	-0.276
Mof_H 	H 	0.0181	0.3681	0.6167	0.112
Mof_C 	C 	0.0285	0.3945	0.5463	0.209
Mof_C 	C 	0.015	0.3859	0.4925	-0.291
Mof_H 	H 	0.0279	0.408	0.4668	0.127
Mof_C 	C 	0.9848	0.3475	0.4798	0.202
Mof_H 	H 	0.9768	0.3423	0.4449	-0.065
Mof_Ag	Ag	0.3941	0	0.25	0.619
Mof_Ag	Ag	0.1059	1.19129e-32	0.75	0.618
Mof_Ag	Ag	0.6059	0.5	0.25	0.634
Mof_Ag	Ag	0.8941	0.5	0.75	0.638
Mof_Ag	Ag	0.25	0.3941	-0	0.619
Mof_Ag	Ag	0.75	0.1059	-0	0.618
Mof_Ag	Ag	0.25	0.6059	0.5	0.634
Mof_Ag	Ag	0.75	0.8941	0.5	0.638
Mof_Ag	Ag	1.47764e-33	0.25	0.3941	0.619
Mof_Ag	Ag	1.15654e-32	0.75	0.1059	0.618
Mof_Ag	Ag	0.5	0.25	0.6059	0.634
Mof_Ag	Ag	0.5	0.75	0.8941	0.638
Mof_N 	N 	0.5622	0.9378	0.0622	-0.193
Mof_N 	N 	0.0622	0.4378	0.5622	-0.196
Mof_N 	N 	0.9378	0.0622	0.5622	-0.193
Mof_N 	N 	0.4378	0.5622	0.0622	-0.196
Mof_N 	N 	0.4378	0.4378	0.4378	-0.193
Mof_N 	N 	0.9378	0.9378	0.9378	-0.183
Mof_N 	N 	0.0622	0.5622	0.9378	-0.193
Mof_N 	N 	0.5622	0.0622	0.4378	-0.196
_end
