data_functionalizedCrystal
_audit_creation_method	'EQeq! by Chris Wilmer'
_symmetry_space_group_name_H-M	'P1'
_symmetry_Int_Tables_number	1
_symmetry_cell_setting	triclinic
loop_
_symmetry_equiv_pos_as_xyz
  x,y,z
_cell_length_a	18.701
_cell_length_b	18.701
_cell_length_c	49.754
_cell_angle_alpha	90
_cell_angle_beta	90
_cell_angle_gamma	120
loop_
_atom_site_label
_atom_site_type_symbol
_atom_site_fract_x
_atom_site_fract_y
_atom_site_fract_z
_atom_site_charge
Mof_C 	C 	0.97096	0.15851	0.33125	0.061
Mof_H 	H 	0.0208	0.1947	0.323	0.022
Mof_C 	C 	0.95392	0.17551	0.35705	-0.093
Mof_H 	H 	0.9926	0.2224	0.3662	0.068
Mof_C 	C 	0.85568	0.27419	0.43891	-0.038
Mof_H 	H 	0.9039	0.3128	0.4304	0.067
Mof_C 	C 	0.83622	0.28801	0.46484	-0.109
Mof_C 	C 	0.88909	0.36064	0.47811	0.41
Mof_O 	O 	0.99576	0.1234	0.28167	-0.422
Mof_O 	O 	0.94754	0.41033	0.46476	-0.399
Mof_O 	O 	0.87303	0.36962	0.5013	-0.398
Mof_H 	H 	0.1733	0.5723	0.4423	0.164
Mof_H 	H 	0.122	0.6126	0.4324	0.534
Mof_H 	H 	0.9157	0.4438	0.9299	0.001
Mof_H 	H 	0.8644	0.3802	0.9398	-0.468
Mof_C 	C 	0.84149	0.81245	0.33125	0.044
Mof_H 	H 	0.8053	0.8261	0.323	0.032
Mof_C 	C 	0.82449	0.77841	0.35705	-0.084
Mof_H 	H 	0.7776	0.7702	0.3662	0.063
Mof_C 	C 	0.72581	0.58149	0.43891	-0.038
Mof_H 	H 	0.6872	0.5911	0.4304	0.066
Mof_C 	C 	0.71199	0.54821	0.46484	-0.109
Mof_C 	C 	0.63936	0.52845	0.47811	0.41
Mof_O 	O 	0.8766	0.87236	0.28167	-0.426
Mof_O 	O 	0.58967	0.53721	0.46476	-0.4
Mof_O 	O 	0.63038	0.50341	0.5013	-0.398
Mof_H 	H 	0.4277	0.601	0.4423	0.164
Mof_H 	H 	0.3874	0.5094	0.4324	0.533
Mof_H 	H 	0.5562	0.4719	0.9299	0.001
Mof_H 	H 	0.6198	0.4842	0.9398	-0.468
Mof_C 	C 	0.18755	0.02904	0.33125	0.055
Mof_H 	H 	0.1739	0.9792	0.323	0.022
Mof_C 	C 	0.22159	0.04608	0.35705	-0.09
Mof_H 	H 	0.2298	0.0074	0.3662	0.065
Mof_C 	C 	0.41851	0.14432	0.43891	-0.039
Mof_H 	H 	0.4089	0.0961	0.4304	0.065
Mof_C 	C 	0.45179	0.16378	0.46484	-0.11
Mof_C 	C 	0.47155	0.11091	0.47811	0.409
Mof_O 	O 	0.12764	0.00424	0.28167	-0.424
Mof_O 	O 	0.46279	0.05246	0.46476	-0.4
Mof_O 	O 	0.49659	0.12697	0.5013	-0.399
Mof_H 	H 	0.399	0.8267	0.4423	0.163
Mof_H 	H 	0.4906	0.878	0.4324	0.533
Mof_H 	H 	0.5281	0.0843	0.9299	0
Mof_H 	H 	0.5158	0.1356	0.9398	-0.469
Mof_C 	C 	0.02904	0.84149	0.83125	0.06
Mof_H 	H 	0.9792	0.8053	0.823	0.021
Mof_C 	C 	0.04608	0.82449	0.85705	-0.094
Mof_H 	H 	0.0074	0.7776	0.8662	0.067
Mof_C 	C 	0.14432	0.72581	0.93891	-0.039
Mof_H 	H 	0.0961	0.6872	0.9304	0.066
Mof_C 	C 	0.16378	0.71199	0.96484	-0.11
Mof_C 	C 	0.11091	0.63936	0.97811	0.409
Mof_O 	O 	0.00424	0.8766	0.78167	-0.423
Mof_O 	O 	0.05246	0.58967	0.96476	-0.4
Mof_O 	O 	0.12697	0.63038	0.0013	-0.399
Mof_H 	H 	0.8267	0.4277	0.9423	0.163
Mof_H 	H 	0.878	0.3874	0.9324	0.533
Mof_H 	H 	0.0843	0.5562	0.4299	0
Mof_H 	H 	0.1356	0.6198	0.4398	-0.469
Mof_C 	C 	0.15851	0.18755	0.83125	0.043
Mof_H 	H 	0.1947	0.1739	0.823	0.031
Mof_C 	C 	0.17551	0.22159	0.85705	-0.085
Mof_H 	H 	0.2224	0.2298	0.8662	0.062
Mof_C 	C 	0.27419	0.41851	0.93891	-0.039
Mof_H 	H 	0.3128	0.4089	0.9304	0.065
Mof_C 	C 	0.28801	0.45179	0.96484	-0.11
Mof_C 	C 	0.36064	0.47155	0.97811	0.409
Mof_O 	O 	0.1234	0.12764	0.78167	-0.427
Mof_O 	O 	0.41033	0.46279	0.96476	-0.401
Mof_O 	O 	0.36962	0.49659	0.0013	-0.399
Mof_H 	H 	0.5723	0.399	0.9423	0.163
Mof_H 	H 	0.6126	0.4906	0.9324	0.532
Mof_H 	H 	0.4438	0.5281	0.4299	0.001
Mof_H 	H 	0.3802	0.5158	0.4398	-0.468
Mof_C 	C 	0.81245	0.97096	0.83125	0.055
Mof_H 	H 	0.8261	0.0208	0.823	0.022
Mof_C 	C 	0.77841	0.95392	0.85705	-0.09
Mof_H 	H 	0.7702	0.9926	0.8662	0.065
Mof_C 	C 	0.58149	0.85568	0.93891	-0.039
Mof_H 	H 	0.5911	0.9039	0.9304	0.065
Mof_C 	C 	0.54821	0.83622	0.96484	-0.11
Mof_C 	C 	0.52845	0.88909	0.97811	0.409
Mof_O 	O 	0.87236	0.99576	0.78167	-0.424
Mof_O 	O 	0.53721	0.94754	0.96476	-0.4
Mof_O 	O 	0.50341	0.87303	0.0013	-0.399
Mof_H 	H 	0.601	0.1733	0.9423	0.163
Mof_H 	H 	0.5094	0.122	0.9324	0.533
Mof_H 	H 	0.4719	0.9157	0.4299	0
Mof_H 	H 	0.4842	0.8644	0.4398	-0.469
Mof_C 	C 	0.15851	0.97096	0.66875	0.06
Mof_H 	H 	0.1947	0.0208	0.677	0.021
Mof_C 	C 	0.17551	0.95392	0.64295	-0.094
Mof_H 	H 	0.2224	0.9926	0.6338	0.067
Mof_C 	C 	0.27419	0.85568	0.56109	-0.039
Mof_H 	H 	0.3128	0.9039	0.5696	0.066
Mof_C 	C 	0.28801	0.83622	0.53516	-0.11
Mof_C 	C 	0.36064	0.88909	0.52189	0.409
Mof_O 	O 	0.1234	0.99576	0.71833	-0.423
Mof_O 	O 	0.41033	0.94754	0.53524	-0.4
Mof_O 	O 	0.36962	0.87303	0.4987	-0.399
Mof_H 	H 	0.5723	0.1733	0.5577	0.163
Mof_H 	H 	0.6126	0.122	0.5676	0.533
Mof_H 	H 	0.4438	0.9157	0.0701	0
Mof_H 	H 	0.3802	0.8644	0.0602	-0.469
Mof_C 	C 	0.81245	0.84149	0.66875	0.043
Mof_H 	H 	0.8261	0.8053	0.677	0.031
Mof_C 	C 	0.77841	0.82449	0.64295	-0.085
Mof_H 	H 	0.7702	0.7776	0.6338	0.062
Mof_C 	C 	0.58149	0.72581	0.56109	-0.039
Mof_H 	H 	0.5911	0.6872	0.5696	0.065
Mof_C 	C 	0.54821	0.71199	0.53516	-0.11
Mof_C 	C 	0.52845	0.63936	0.52189	0.409
Mof_O 	O 	0.87236	0.8766	0.71833	-0.427
Mof_O 	O 	0.53721	0.58967	0.53524	-0.401
Mof_O 	O 	0.50341	0.63038	0.4987	-0.399
Mof_H 	H 	0.601	0.4277	0.5577	0.163
Mof_H 	H 	0.5094	0.3874	0.5676	0.532
Mof_H 	H 	0.4719	0.5562	0.0701	0.001
Mof_H 	H 	0.4842	0.6198	0.0602	-0.468
Mof_C 	C 	0.02904	0.18755	0.66875	0.055
Mof_H 	H 	0.9792	0.1739	0.677	0.022
Mof_C 	C 	0.04608	0.22159	0.64295	-0.09
Mof_H 	H 	0.0074	0.2298	0.6338	0.065
Mof_C 	C 	0.14432	0.41851	0.56109	-0.039
Mof_H 	H 	0.0961	0.4089	0.5696	0.065
Mof_C 	C 	0.16378	0.45179	0.53516	-0.11
Mof_C 	C 	0.11091	0.47155	0.52189	0.409
Mof_O 	O 	0.00424	0.12764	0.71833	-0.424
Mof_O 	O 	0.05246	0.46279	0.53524	-0.4
Mof_O 	O 	0.12697	0.49659	0.4987	-0.399
Mof_H 	H 	0.8267	0.399	0.5577	0.163
Mof_H 	H 	0.878	0.4906	0.5676	0.533
Mof_H 	H 	0.0843	0.5281	0.0701	0
Mof_H 	H 	0.1356	0.5158	0.0602	-0.469
Mof_C 	C 	0.84149	0.02904	0.16875	0.06
Mof_H 	H 	0.8053	0.9792	0.177	0.021
Mof_C 	C 	0.82449	0.04608	0.14295	-0.094
Mof_H 	H 	0.7776	0.0074	0.1338	0.067
Mof_C 	C 	0.72581	0.14432	0.06109	-0.039
Mof_H 	H 	0.6872	0.0961	0.0696	0.066
Mof_C 	C 	0.71199	0.16378	0.03516	-0.11
Mof_C 	C 	0.63936	0.11091	0.02189	0.409
Mof_O 	O 	0.8766	0.00424	0.21833	-0.423
Mof_O 	O 	0.58967	0.05246	0.03524	-0.4
Mof_O 	O 	0.63038	0.12697	0.9987	-0.399
Mof_H 	H 	0.4277	0.8267	0.0577	0.163
Mof_H 	H 	0.3874	0.878	0.0676	0.533
Mof_H 	H 	0.5562	0.0843	0.5701	0
Mof_H 	H 	0.6198	0.1356	0.5602	-0.469
Mof_C 	C 	0.18755	0.15851	0.16875	0.043
Mof_H 	H 	0.1739	0.1947	0.177	0.031
Mof_C 	C 	0.22159	0.17551	0.14295	-0.085
Mof_H 	H 	0.2298	0.2224	0.1338	0.062
Mof_C 	C 	0.41851	0.27419	0.06109	-0.039
Mof_H 	H 	0.4089	0.3128	0.0696	0.065
Mof_C 	C 	0.45179	0.28801	0.03516	-0.11
Mof_C 	C 	0.47155	0.36064	0.02189	0.409
Mof_O 	O 	0.12764	0.1234	0.21833	-0.427
Mof_O 	O 	0.46279	0.41033	0.03524	-0.401
Mof_O 	O 	0.49659	0.36962	0.9987	-0.399
Mof_H 	H 	0.399	0.5723	0.0577	0.163
Mof_H 	H 	0.4906	0.6126	0.0676	0.532
Mof_H 	H 	0.5281	0.4438	0.5701	0.001
Mof_H 	H 	0.5158	0.3802	0.5602	-0.468
Mof_C 	C 	0.97096	0.81245	0.16875	0.055
Mof_H 	H 	0.0208	0.8261	0.177	0.022
Mof_C 	C 	0.95392	0.77841	0.14295	-0.09
Mof_H 	H 	0.9926	0.7702	0.1338	0.065
Mof_C 	C 	0.85568	0.58149	0.06109	-0.039
Mof_H 	H 	0.9039	0.5911	0.0696	0.065
Mof_C 	C 	0.83622	0.54821	0.03516	-0.11
Mof_C 	C 	0.88909	0.52845	0.02189	0.409
Mof_O 	O 	0.99576	0.87236	0.21833	-0.424
Mof_O 	O 	0.94754	0.53721	0.03524	-0.4
Mof_O 	O 	0.87303	0.50341	0.9987	-0.399
Mof_H 	H 	0.1733	0.601	0.0577	0.163
Mof_H 	H 	0.122	0.5094	0.0676	0.533
Mof_H 	H 	0.9157	0.4719	0.5701	0
Mof_H 	H 	0.8644	0.4842	0.5602	-0.469
Mof_C 	C 	0.02904	0.84149	0.66875	0.06
Mof_H 	H 	0.9792	0.8053	0.677	0.021
Mof_C 	C 	0.04608	0.82449	0.64295	-0.094
Mof_H 	H 	0.0074	0.7776	0.6338	0.067
Mof_C 	C 	0.14432	0.72581	0.56109	-0.039
Mof_H 	H 	0.0961	0.6872	0.5696	0.066
Mof_C 	C 	0.16378	0.71199	0.53516	-0.11
Mof_C 	C 	0.11091	0.63936	0.52189	0.409
Mof_O 	O 	0.00424	0.8766	0.71833	-0.423
Mof_O 	O 	0.05246	0.58967	0.53524	-0.4
Mof_O 	O 	0.12697	0.63038	0.4987	-0.399
Mof_H 	H 	0.8267	0.4277	0.5577	0.163
Mof_H 	H 	0.878	0.3874	0.5676	0.533
Mof_H 	H 	0.0843	0.5562	0.0701	0
Mof_H 	H 	0.1356	0.6198	0.0602	-0.469
Mof_C 	C 	0.15851	0.18755	0.66875	0.043
Mof_H 	H 	0.1947	0.1739	0.677	0.031
Mof_C 	C 	0.17551	0.22159	0.64295	-0.085
Mof_H 	H 	0.2224	0.2298	0.6338	0.062
Mof_C 	C 	0.27419	0.41851	0.56109	-0.039
Mof_H 	H 	0.3128	0.4089	0.5696	0.065
Mof_C 	C 	0.28801	0.45179	0.53516	-0.11
Mof_C 	C 	0.36064	0.47155	0.52189	0.409
Mof_O 	O 	0.1234	0.12764	0.71833	-0.427
Mof_O 	O 	0.41033	0.46279	0.53524	-0.401
Mof_O 	O 	0.36962	0.49659	0.4987	-0.399
Mof_H 	H 	0.5723	0.399	0.5577	0.163
Mof_H 	H 	0.6126	0.4906	0.5676	0.532
Mof_H 	H 	0.4438	0.5281	0.0701	0.001
Mof_H 	H 	0.3802	0.5158	0.0602	-0.468
Mof_C 	C 	0.81245	0.97096	0.66875	0.055
Mof_H 	H 	0.8261	0.0208	0.677	0.022
Mof_C 	C 	0.77841	0.95392	0.64295	-0.09
Mof_H 	H 	0.7702	0.9926	0.6338	0.065
Mof_C 	C 	0.58149	0.85568	0.56109	-0.039
Mof_H 	H 	0.5911	0.9039	0.5696	0.065
Mof_C 	C 	0.54821	0.83622	0.53516	-0.11
Mof_C 	C 	0.52845	0.88909	0.52189	0.409
Mof_O 	O 	0.87236	0.99576	0.71833	-0.424
Mof_O 	O 	0.53721	0.94754	0.53524	-0.4
Mof_O 	O 	0.50341	0.87303	0.4987	-0.399
Mof_H 	H 	0.601	0.1733	0.5577	0.163
Mof_H 	H 	0.5094	0.122	0.5676	0.533
Mof_H 	H 	0.4719	0.9157	0.0701	0
Mof_H 	H 	0.4842	0.8644	0.0602	-0.469
Mof_C 	C 	0.97096	0.15851	0.16875	0.06
Mof_H 	H 	0.0208	0.1947	0.177	0.021
Mof_C 	C 	0.95392	0.17551	0.14295	-0.094
Mof_H 	H 	0.9926	0.2224	0.1338	0.067
Mof_C 	C 	0.85568	0.27419	0.06109	-0.039
Mof_H 	H 	0.9039	0.3128	0.0696	0.066
Mof_C 	C 	0.83622	0.28801	0.03516	-0.11
Mof_C 	C 	0.88909	0.36064	0.02189	0.409
Mof_O 	O 	0.99576	0.1234	0.21833	-0.423
Mof_O 	O 	0.94754	0.41033	0.03524	-0.4
Mof_O 	O 	0.87303	0.36962	0.9987	-0.399
Mof_H 	H 	0.1733	0.5723	0.0577	0.163
Mof_H 	H 	0.122	0.6126	0.0676	0.533
Mof_H 	H 	0.9157	0.4438	0.5701	0
Mof_H 	H 	0.8644	0.3802	0.5602	-0.469
Mof_C 	C 	0.84149	0.81245	0.16875	0.043
Mof_H 	H 	0.8053	0.8261	0.177	0.031
Mof_C 	C 	0.82449	0.77841	0.14295	-0.085
Mof_H 	H 	0.7776	0.7702	0.1338	0.062
Mof_C 	C 	0.72581	0.58149	0.06109	-0.039
Mof_H 	H 	0.6872	0.5911	0.0696	0.065
Mof_C 	C 	0.71199	0.54821	0.03516	-0.11
Mof_C 	C 	0.63936	0.52845	0.02189	0.409
Mof_O 	O 	0.8766	0.87236	0.21833	-0.427
Mof_O 	O 	0.58967	0.53721	0.03524	-0.401
Mof_O 	O 	0.63038	0.50341	0.9987	-0.399
Mof_H 	H 	0.4277	0.601	0.0577	0.163
Mof_H 	H 	0.3874	0.5094	0.0676	0.532
Mof_H 	H 	0.5562	0.4719	0.5701	0.001
Mof_H 	H 	0.6198	0.4842	0.5602	-0.468
Mof_C 	C 	0.18755	0.02904	0.16875	0.055
Mof_H 	H 	0.1739	0.9792	0.177	0.022
Mof_C 	C 	0.22159	0.04608	0.14295	-0.09
Mof_H 	H 	0.2298	0.0074	0.1338	0.065
Mof_C 	C 	0.41851	0.14432	0.06109	-0.039
Mof_H 	H 	0.4089	0.0961	0.0696	0.065
Mof_C 	C 	0.45179	0.16378	0.03516	-0.11
Mof_C 	C 	0.47155	0.11091	0.02189	0.409
Mof_O 	O 	0.12764	0.00424	0.21833	-0.424
Mof_O 	O 	0.46279	0.05246	0.03524	-0.4
Mof_O 	O 	0.49659	0.12697	0.9987	-0.399
Mof_H 	H 	0.399	0.8267	0.0577	0.163
Mof_H 	H 	0.4906	0.878	0.0676	0.533
Mof_H 	H 	0.5281	0.0843	0.5701	0
Mof_H 	H 	0.5158	0.1356	0.5602	-0.469
Mof_C 	C 	0.84149	0.02904	0.33125	0.06
Mof_H 	H 	0.8053	0.9792	0.323	0.021
Mof_C 	C 	0.82449	0.04608	0.35705	-0.094
Mof_H 	H 	0.7776	0.0074	0.3662	0.067
Mof_C 	C 	0.72581	0.14432	0.43891	-0.039
Mof_H 	H 	0.6872	0.0961	0.4304	0.066
Mof_C 	C 	0.71199	0.16378	0.46484	-0.11
Mof_C 	C 	0.63936	0.11091	0.47811	0.409
Mof_O 	O 	0.8766	0.00424	0.28167	-0.423
Mof_O 	O 	0.58967	0.05246	0.46476	-0.4
Mof_O 	O 	0.63038	0.12697	0.5013	-0.399
Mof_H 	H 	0.4277	0.8267	0.4423	0.163
Mof_H 	H 	0.3874	0.878	0.4324	0.533
Mof_H 	H 	0.5562	0.0843	0.9299	0
Mof_H 	H 	0.6198	0.1356	0.9398	-0.469
Mof_C 	C 	0.18755	0.15851	0.33125	0.043
Mof_H 	H 	0.1739	0.1947	0.323	0.031
Mof_C 	C 	0.22159	0.17551	0.35705	-0.085
Mof_H 	H 	0.2298	0.2224	0.3662	0.062
Mof_C 	C 	0.41851	0.27419	0.43891	-0.039
Mof_H 	H 	0.4089	0.3128	0.4304	0.065
Mof_C 	C 	0.45179	0.28801	0.46484	-0.11
Mof_C 	C 	0.47155	0.36064	0.47811	0.409
Mof_O 	O 	0.12764	0.1234	0.28167	-0.427
Mof_O 	O 	0.46279	0.41033	0.46476	-0.401
Mof_O 	O 	0.49659	0.36962	0.5013	-0.399
Mof_H 	H 	0.399	0.5723	0.4423	0.163
Mof_H 	H 	0.4906	0.6126	0.4324	0.532
Mof_H 	H 	0.5281	0.4438	0.9299	0.001
Mof_H 	H 	0.5158	0.3802	0.9398	-0.468
Mof_C 	C 	0.97096	0.81245	0.33125	0.055
Mof_H 	H 	0.0208	0.8261	0.323	0.022
Mof_C 	C 	0.95392	0.77841	0.35705	-0.09
Mof_H 	H 	0.9926	0.7702	0.3662	0.065
Mof_C 	C 	0.85568	0.58149	0.43891	-0.039
Mof_H 	H 	0.9039	0.5911	0.4304	0.065
Mof_C 	C 	0.83622	0.54821	0.46484	-0.11
Mof_C 	C 	0.88909	0.52845	0.47811	0.409
Mof_O 	O 	0.99576	0.87236	0.28167	-0.424
Mof_O 	O 	0.94754	0.53721	0.46476	-0.4
Mof_O 	O 	0.87303	0.50341	0.5013	-0.399
Mof_H 	H 	0.1733	0.601	0.4423	0.163
Mof_H 	H 	0.122	0.5094	0.4324	0.533
Mof_H 	H 	0.9157	0.4719	0.9299	0
Mof_H 	H 	0.8644	0.4842	0.9398	-0.469
Mof_C 	C 	0.15851	0.97096	0.83125	0.06
Mof_H 	H 	0.1947	0.0208	0.823	0.021
Mof_C 	C 	0.17551	0.95392	0.85705	-0.094
Mof_H 	H 	0.2224	0.9926	0.8662	0.067
Mof_C 	C 	0.27419	0.85568	0.93891	-0.039
Mof_H 	H 	0.3128	0.9039	0.9304	0.066
Mof_C 	C 	0.28801	0.83622	0.96484	-0.11
Mof_C 	C 	0.36064	0.88909	0.97811	0.409
Mof_O 	O 	0.1234	0.99576	0.78167	-0.423
Mof_O 	O 	0.41033	0.94754	0.96476	-0.4
Mof_O 	O 	0.36962	0.87303	0.0013	-0.399
Mof_H 	H 	0.5723	0.1733	0.9423	0.163
Mof_H 	H 	0.6126	0.122	0.9324	0.533
Mof_H 	H 	0.4438	0.9157	0.4299	0
Mof_H 	H 	0.3802	0.8644	0.4398	-0.469
Mof_C 	C 	0.81245	0.84149	0.83125	0.043
Mof_H 	H 	0.8261	0.8053	0.823	0.031
Mof_C 	C 	0.77841	0.82449	0.85705	-0.085
Mof_H 	H 	0.7702	0.7776	0.8662	0.062
Mof_C 	C 	0.58149	0.72581	0.93891	-0.039
Mof_H 	H 	0.5911	0.6872	0.9304	0.065
Mof_C 	C 	0.54821	0.71199	0.96484	-0.11
Mof_C 	C 	0.52845	0.63936	0.97811	0.409
Mof_O 	O 	0.87236	0.8766	0.78167	-0.427
Mof_O 	O 	0.53721	0.58967	0.96476	-0.401
Mof_O 	O 	0.50341	0.63038	0.0013	-0.399
Mof_H 	H 	0.601	0.4277	0.9423	0.163
Mof_H 	H 	0.5094	0.3874	0.9324	0.532
Mof_H 	H 	0.4719	0.5562	0.4299	0.001
Mof_H 	H 	0.4842	0.6198	0.4398	-0.468
Mof_C 	C 	0.02904	0.18755	0.83125	0.055
Mof_H 	H 	0.9792	0.1739	0.823	0.022
Mof_C 	C 	0.04608	0.22159	0.85705	-0.09
Mof_H 	H 	0.0074	0.2298	0.8662	0.065
Mof_C 	C 	0.14432	0.41851	0.93891	-0.039
Mof_H 	H 	0.0961	0.4089	0.9304	0.065
Mof_C 	C 	0.16378	0.45179	0.96484	-0.11
Mof_C 	C 	0.11091	0.47155	0.97811	0.409
Mof_O 	O 	0.00424	0.12764	0.78167	-0.424
Mof_O 	O 	0.05246	0.46279	0.96476	-0.4
Mof_O 	O 	0.12697	0.49659	0.0013	-0.399
Mof_H 	H 	0.8267	0.399	0.9423	0.163
Mof_H 	H 	0.878	0.4906	0.9324	0.533
Mof_H 	H 	0.0843	0.5281	0.4299	0
Mof_H 	H 	0.1356	0.5158	0.4398	-0.469
Mof_C 	C 	0.9297	0.0703	0.29158	0.418
Mof_C 	C 	0.913	0.087	0.31778	-0.149
Mof_C 	C 	0.8785	0.1215	0.36889	0.01
Mof_C 	C 	0.8607	0.1393	0.39592	0.179
Mof_C 	C 	0.7999	0.2001	0.42635	0.096
Mof_C 	C 	0.76575	0.23425	0.47892	0.05
Mof_H 	H 	0.75535	0.24465	0.4963	0.054
Mof_N 	N 	0.81723	0.18277	0.40015	-0.209
Mof_H 	H 	0.80035	0.19965	0.3858	0.113
Mof_O 	O 	0.88254	0.11746	0.4158	-0.199
Mof_C 	C 	0.9297	0.8594	0.29158	0.415
Mof_C 	C 	0.913	0.826	0.31778	-0.142
Mof_C 	C 	0.8785	0.757	0.36889	0.004
Mof_C 	C 	0.8607	0.7214	0.39592	0.181
Mof_C 	C 	0.7999	0.5998	0.42635	0.096
Mof_C 	C 	0.76575	0.5315	0.47892	0.05
Mof_H 	H 	0.75535	0.5107	0.4963	0.054
Mof_N 	N 	0.81723	0.63446	0.40015	-0.209
Mof_H 	H 	0.80035	0.6007	0.3858	0.113
Mof_O 	O 	0.88254	0.76508	0.4158	-0.201
Mof_C 	C 	0.1406	0.0703	0.29158	0.415
Mof_C 	C 	0.174	0.087	0.31778	-0.142
Mof_C 	C 	0.243	0.1215	0.36889	0.004
Mof_C 	C 	0.2786	0.1393	0.39592	0.181
Mof_C 	C 	0.4002	0.2001	0.42635	0.096
Mof_C 	C 	0.4685	0.23425	0.47892	0.05
Mof_H 	H 	0.4893	0.24465	0.4963	0.054
Mof_N 	N 	0.36554	0.18277	0.40015	-0.209
Mof_H 	H 	0.3993	0.19965	0.3858	0.113
Mof_O 	O 	0.23492	0.11746	0.4158	-0.201
Mof_C 	C 	0.0703	0.9297	0.79158	0.418
Mof_C 	C 	0.087	0.913	0.81778	-0.149
Mof_C 	C 	0.1215	0.8785	0.86889	0.01
Mof_C 	C 	0.1393	0.8607	0.89592	0.179
Mof_C 	C 	0.2001	0.7999	0.92635	0.096
Mof_C 	C 	0.23425	0.76575	0.97892	0.05
Mof_H 	H 	0.24465	0.75535	0.9963	0.054
Mof_N 	N 	0.18277	0.81723	0.90015	-0.209
Mof_H 	H 	0.19965	0.80035	0.8858	0.113
Mof_O 	O 	0.11746	0.88254	0.9158	-0.199
Mof_C 	C 	0.0703	0.1406	0.79158	0.415
Mof_C 	C 	0.087	0.174	0.81778	-0.143
Mof_C 	C 	0.1215	0.243	0.86889	0.004
Mof_C 	C 	0.1393	0.2786	0.89592	0.181
Mof_C 	C 	0.2001	0.4002	0.92635	0.096
Mof_C 	C 	0.23425	0.4685	0.97892	0.05
Mof_H 	H 	0.24465	0.4893	0.9963	0.054
Mof_N 	N 	0.18277	0.36554	0.90015	-0.209
Mof_H 	H 	0.19965	0.3993	0.8858	0.113
Mof_O 	O 	0.11746	0.23492	0.9158	-0.201
Mof_C 	C 	0.8594	0.9297	0.79158	0.415
Mof_C 	C 	0.826	0.913	0.81778	-0.143
Mof_C 	C 	0.757	0.8785	0.86889	0.004
Mof_C 	C 	0.7214	0.8607	0.89592	0.181
Mof_C 	C 	0.5998	0.7999	0.92635	0.096
Mof_C 	C 	0.5315	0.76575	0.97892	0.05
Mof_H 	H 	0.5107	0.75535	0.9963	0.054
Mof_N 	N 	0.63446	0.81723	0.90015	-0.209
Mof_H 	H 	0.6007	0.80035	0.8858	0.113
Mof_O 	O 	0.76508	0.88254	0.9158	-0.201
Mof_C 	C 	0.0703	0.9297	0.70842	0.418
Mof_C 	C 	0.087	0.913	0.68222	-0.149
Mof_C 	C 	0.1215	0.8785	0.63111	0.01
Mof_C 	C 	0.1393	0.8607	0.60408	0.179
Mof_C 	C 	0.2001	0.7999	0.57365	0.096
Mof_C 	C 	0.23425	0.76575	0.52108	0.05
Mof_H 	H 	0.24465	0.75535	0.5037	0.054
Mof_N 	N 	0.18277	0.81723	0.59985	-0.209
Mof_H 	H 	0.19965	0.80035	0.6142	0.113
Mof_O 	O 	0.11746	0.88254	0.5842	-0.199
Mof_C 	C 	0.8594	0.9297	0.70842	0.415
Mof_C 	C 	0.826	0.913	0.68222	-0.142
Mof_C 	C 	0.757	0.8785	0.63111	0.004
Mof_C 	C 	0.7214	0.8607	0.60408	0.181
Mof_C 	C 	0.5998	0.7999	0.57365	0.096
Mof_C 	C 	0.5315	0.76575	0.52108	0.05
Mof_H 	H 	0.5107	0.75535	0.5037	0.054
Mof_N 	N 	0.63446	0.81723	0.59985	-0.209
Mof_H 	H 	0.6007	0.80035	0.6142	0.113
Mof_O 	O 	0.76508	0.88254	0.5842	-0.201
Mof_C 	C 	0.0703	0.1406	0.70842	0.415
Mof_C 	C 	0.087	0.174	0.68222	-0.142
Mof_C 	C 	0.1215	0.243	0.63111	0.004
Mof_C 	C 	0.1393	0.2786	0.60408	0.181
Mof_C 	C 	0.2001	0.4002	0.57365	0.096
Mof_C 	C 	0.23425	0.4685	0.52108	0.05
Mof_H 	H 	0.24465	0.4893	0.5037	0.054
Mof_N 	N 	0.18277	0.36554	0.59985	-0.209
Mof_H 	H 	0.19965	0.3993	0.6142	0.113
Mof_O 	O 	0.11746	0.23492	0.5842	-0.201
Mof_C 	C 	0.9297	0.0703	0.20842	0.418
Mof_C 	C 	0.913	0.087	0.18222	-0.149
Mof_C 	C 	0.8785	0.1215	0.13111	0.01
Mof_C 	C 	0.8607	0.1393	0.10408	0.179
Mof_C 	C 	0.7999	0.2001	0.07365	0.096
Mof_C 	C 	0.76575	0.23425	0.02108	0.05
Mof_H 	H 	0.75535	0.24465	0.0037	0.054
Mof_N 	N 	0.81723	0.18277	0.09985	-0.209
Mof_H 	H 	0.80035	0.19965	0.1142	0.113
Mof_O 	O 	0.88254	0.11746	0.0842	-0.199
Mof_C 	C 	0.1406	0.0703	0.20842	0.415
Mof_C 	C 	0.174	0.087	0.18222	-0.143
Mof_C 	C 	0.243	0.1215	0.13111	0.004
Mof_C 	C 	0.2786	0.1393	0.10408	0.181
Mof_C 	C 	0.4002	0.2001	0.07365	0.096
Mof_C 	C 	0.4685	0.23425	0.02108	0.05
Mof_H 	H 	0.4893	0.24465	0.0037	0.054
Mof_N 	N 	0.36554	0.18277	0.09985	-0.209
Mof_H 	H 	0.3993	0.19965	0.1142	0.113
Mof_O 	O 	0.23492	0.11746	0.0842	-0.201
Mof_C 	C 	0.9297	0.8594	0.20842	0.415
Mof_C 	C 	0.913	0.826	0.18222	-0.143
Mof_C 	C 	0.8785	0.757	0.13111	0.004
Mof_C 	C 	0.8607	0.7214	0.10408	0.181
Mof_C 	C 	0.7999	0.5998	0.07365	0.096
Mof_C 	C 	0.76575	0.5315	0.02108	0.05
Mof_H 	H 	0.75535	0.5107	0.0037	0.054
Mof_N 	N 	0.81723	0.63446	0.09985	-0.209
Mof_H 	H 	0.80035	0.6007	0.1142	0.113
Mof_O 	O 	0.88254	0.76508	0.0842	-0.201
Mof_Cu	Cu	0.06079	0.12158	0.25	0.895
Mof_Cu	Cu	0.87842	0.93921	0.25	0.895
Mof_Cu	Cu	0.06079	0.93921	0.25	0.892
Mof_Cu	Cu	0.93921	0.87842	0.75	0.895
Mof_Cu	Cu	0.12158	0.06079	0.75	0.895
Mof_Cu	Cu	0.93921	0.06079	0.75	0.892
Mof_Cu	Cu	0.05041	0.5252	0.47845	0.907
Mof_O 	O 	0.1113	0.55565	0.4392	-0.132
Mof_Cu	Cu	0.4748	0.5252	0.47845	0.908
Mof_O 	O 	0.44435	0.55565	0.4392	-0.132
Mof_Cu	Cu	0.4748	0.94959	0.47845	0.907
Mof_O 	O 	0.44435	0.8887	0.4392	-0.132
Mof_Cu	Cu	0.94959	0.4748	0.97845	0.907
Mof_O 	O 	0.8887	0.44435	0.9392	-0.132
Mof_Cu	Cu	0.5252	0.47479	0.97845	0.908
Mof_O 	O 	0.55565	0.44435	0.9392	-0.132
Mof_Cu	Cu	0.5252	0.05041	0.97845	0.907
Mof_O 	O 	0.55565	0.1113	0.9392	-0.132
Mof_Cu	Cu	0.5252	0.05041	0.52155	0.907
Mof_O 	O 	0.55565	0.1113	0.5608	-0.132
Mof_Cu	Cu	0.5252	0.4748	0.52155	0.908
Mof_O 	O 	0.55565	0.44435	0.5608	-0.132
Mof_Cu	Cu	0.94959	0.4748	0.52155	0.907
Mof_O 	O 	0.8887	0.44435	0.5608	-0.132
Mof_Cu	Cu	0.4748	0.94959	0.02155	0.907
Mof_O 	O 	0.44435	0.8887	0.0608	-0.132
Mof_Cu	Cu	0.4748	0.5252	0.02155	0.908
Mof_O 	O 	0.44435	0.55565	0.0608	-0.132
Mof_Cu	Cu	0.05041	0.5252	0.02155	0.907
Mof_O 	O 	0.1113	0.55565	0.0608	-0.132
Mof_O 	O 	0.8732	0.4366	0.944	-0.348
Mof_O 	O 	0.5634	0.4366	0.944	-0.348
Mof_O 	O 	0.5634	0.1268	0.944	-0.348
Mof_O 	O 	0.1268	0.5634	0.444	-0.348
Mof_O 	O 	0.4366	0.5634	0.444	-0.348
Mof_O 	O 	0.4366	0.8732	0.444	-0.348
Mof_O 	O 	0.4366	0.8732	0.056	-0.348
Mof_O 	O 	0.4366	0.5634	0.056	-0.348
Mof_O 	O 	0.1268	0.5634	0.056	-0.348
Mof_O 	O 	0.5634	0.1268	0.556	-0.348
Mof_O 	O 	0.5634	0.4366	0.556	-0.348
Mof_O 	O 	0.8732	0.4366	0.556	-0.348
_end
