data_functionalizedCrystal
_audit_creation_method	'EQeq! by Chris Wilmer'
_symmetry_space_group_name_H-M	'P1'
_symmetry_Int_Tables_number	1
_symmetry_cell_setting	triclinic
loop_
_symmetry_equiv_pos_as_xyz
  x,y,z
_cell_length_a	24.5377
_cell_length_b	24.5377
_cell_length_c	72.0873
_cell_angle_alpha	90
_cell_angle_beta	90
_cell_angle_gamma	90
loop_
_atom_site_label
_atom_site_type_symbol
_atom_site_fract_x
_atom_site_fract_y
_atom_site_fract_z
_atom_site_charge
Mof_O 	O 	0.92983	0.0108	0.11761	-0.417
Mof_O 	O 	0.99497	0.07244	0.1187	-0.41
Mof_O 	O 	0.92683	0.48595	0.094	-0.421
Mof_C 	C 	0.9514	0.0532	0.11178	0.389
Mof_C 	C 	0.87551	0.14043	0.0677	0.058
Mof_C 	C 	0.85072	0.0931	0.0749	-0.117
Mof_H 	H 	0.8179	0.0808	0.07	0.074
Mof_C 	C 	0.8757	0.0644	0.08956	0.052
Mof_H 	H 	0.8593	0.0332	0.0943	0.029
Mof_C 	C 	0.92539	0.08304	0.09703	-0.134
Mof_C 	C 	0.95018	0.13037	0.08984	0.051
Mof_H 	H 	0.983	0.1427	0.0948	0.029
Mof_C 	C 	0.92524	0.15907	0.07517	-0.116
Mof_H 	H 	0.9416	0.1903	0.0704	0.072
Mof_Cu	Cu	0.04058	0.46451	0.11259	0.903
Mof_C 	C 	0.82988	0.25589	0.03601	0.007
Mof_C 	C 	0.83401	0.31312	0.035	0.012
Mof_C 	C 	0.80887	0.34154	0.02031	-0.147
Mof_H 	H 	0.8116	0.3793	0.0196	0.091
Mof_C 	C 	0.7796	0.3127	0.00663	0.163
Mof_C 	C 	0.77548	0.2555	0.00764	-0.035
Mof_C 	C 	0.80062	0.22707	0.02233	0.026
Mof_C 	C 	0.8524	0.2275	0.05094	-0.079
Mof_H 	H 	0.8701	0.2468	0.0603	0.063
Mof_C 	C 	0.8492	0.1716	0.05226	0.011
Mof_C 	C 	0.8205	0.1421	0.03827	-0.049
Mof_H 	H 	0.8181	0.1043	0.0389	0.049
Mof_C 	C 	0.7962	0.1697	0.02392	-0.056
Mof_H 	H 	0.7765	0.1504	0.0151	0.059
Mof_C 	C 	0.86528	0.34742	0.04815	0.059
Mof_C 	C 	0.83879	0.39126	0.05701	-0.117
Mof_H 	H 	0.8026	0.399	0.0543	0.077
Mof_C 	C 	0.8672	0.42339	0.07003	0.048
Mof_H 	H 	0.8497	0.4523	0.0759	0.031
Mof_C 	C 	0.92212	0.41168	0.07418	-0.127
Mof_C 	C 	0.94862	0.36784	0.06532	0.05
Mof_H 	H 	0.9848	0.3601	0.0681	0.029
Mof_C 	C 	0.9202	0.33571	0.0523	-0.12
Mof_H 	H 	0.9377	0.3068	0.0465	0.074
Mof_O 	O 	0.9972	0.42953	0.09265	-0.405
Mof_C 	C 	0.9493	0.4453	0.08807	0.389
Mof_O 	O 	0.753	0.3374	0.99233	-0.211
Mof_C 	C 	0.687	0.4006	0.98	0.005
Mof_C 	C 	0.7338	0.3948	0.9938	0.059
Mof_C 	C 	0.766	0.3959	0.9916	0.022
Mof_C 	C 	0.735	0.4244	0.9765	-0.02
Mof_O 	O 	0.42983	0.5108	0.61761	-0.417
Mof_O 	O 	0.49497	0.57244	0.6187	-0.41
Mof_O 	O 	0.42683	0.98595	0.594	-0.421
Mof_C 	C 	0.4514	0.5532	0.61178	0.389
Mof_C 	C 	0.37551	0.64043	0.5677	0.058
Mof_C 	C 	0.35072	0.5931	0.5749	-0.117
Mof_H 	H 	0.3179	0.5808	0.57	0.074
Mof_C 	C 	0.3757	0.5644	0.58956	0.052
Mof_H 	H 	0.3593	0.5332	0.5943	0.029
Mof_C 	C 	0.42539	0.58304	0.59703	-0.134
Mof_C 	C 	0.45018	0.63037	0.58984	0.051
Mof_H 	H 	0.483	0.6427	0.5948	0.029
Mof_C 	C 	0.42524	0.65907	0.57517	-0.116
Mof_H 	H 	0.4416	0.6903	0.5704	0.072
Mof_Cu	Cu	0.54058	0.96451	0.61259	0.903
Mof_C 	C 	0.32988	0.75589	0.53601	0.007
Mof_C 	C 	0.33401	0.81312	0.535	0.012
Mof_C 	C 	0.30887	0.84154	0.52031	-0.147
Mof_H 	H 	0.3116	0.8793	0.5196	0.091
Mof_C 	C 	0.2796	0.8127	0.50663	0.163
Mof_C 	C 	0.27548	0.7555	0.50764	-0.035
Mof_C 	C 	0.30062	0.72707	0.52233	0.026
Mof_C 	C 	0.3524	0.7275	0.55094	-0.079
Mof_H 	H 	0.3701	0.7468	0.5603	0.063
Mof_C 	C 	0.3492	0.6716	0.55226	0.011
Mof_C 	C 	0.3205	0.6421	0.53827	-0.049
Mof_H 	H 	0.3181	0.6043	0.5389	0.049
Mof_C 	C 	0.2962	0.6697	0.52392	-0.056
Mof_H 	H 	0.2765	0.6504	0.5151	0.059
Mof_C 	C 	0.36528	0.84742	0.54815	0.059
Mof_C 	C 	0.33879	0.89126	0.55701	-0.117
Mof_H 	H 	0.3026	0.899	0.5543	0.077
Mof_C 	C 	0.3672	0.92339	0.57003	0.048
Mof_H 	H 	0.3497	0.9523	0.5759	0.031
Mof_C 	C 	0.42212	0.91168	0.57418	-0.127
Mof_C 	C 	0.44862	0.86784	0.56532	0.05
Mof_H 	H 	0.4848	0.8601	0.5681	0.029
Mof_C 	C 	0.4202	0.83571	0.5523	-0.12
Mof_H 	H 	0.4377	0.8068	0.5465	0.074
Mof_O 	O 	0.4972	0.92953	0.59265	-0.406
Mof_C 	C 	0.4493	0.9453	0.58807	0.389
Mof_O 	O 	0.253	0.8374	0.49233	-0.211
Mof_C 	C 	0.187	0.9006	0.48	0.006
Mof_C 	C 	0.2338	0.8948	0.4938	0.059
Mof_C 	C 	0.266	0.8959	0.4916	0.022
Mof_C 	C 	0.235	0.9244	0.4765	-0.02
Mof_O 	O 	0.57017	0.4892	0.61761	-0.417
Mof_O 	O 	0.50503	0.42756	0.6187	-0.41
Mof_O 	O 	0.57317	0.01405	0.594	-0.421
Mof_C 	C 	0.5486	0.4468	0.61178	0.389
Mof_C 	C 	0.62449	0.35957	0.5677	0.058
Mof_C 	C 	0.64928	0.4069	0.5749	-0.117
Mof_H 	H 	0.6821	0.4192	0.57	0.074
Mof_C 	C 	0.6243	0.4356	0.58956	0.052
Mof_H 	H 	0.6407	0.4668	0.5943	0.029
Mof_C 	C 	0.57461	0.41696	0.59703	-0.134
Mof_C 	C 	0.54982	0.36963	0.58984	0.051
Mof_H 	H 	0.517	0.3573	0.5948	0.029
Mof_C 	C 	0.57476	0.34093	0.57517	-0.116
Mof_H 	H 	0.5584	0.3097	0.5704	0.072
Mof_Cu	Cu	0.45942	0.03549	0.61259	0.903
Mof_C 	C 	0.67012	0.24411	0.53601	0.007
Mof_C 	C 	0.66599	0.18688	0.535	0.012
Mof_C 	C 	0.69113	0.15846	0.52031	-0.147
Mof_H 	H 	0.6884	0.1207	0.5196	0.091
Mof_C 	C 	0.7204	0.1873	0.50663	0.163
Mof_C 	C 	0.72452	0.2445	0.50764	-0.035
Mof_C 	C 	0.69938	0.27293	0.52233	0.026
Mof_C 	C 	0.6476	0.2725	0.55094	-0.079
Mof_H 	H 	0.6299	0.2532	0.5603	0.063
Mof_C 	C 	0.6508	0.3284	0.55226	0.011
Mof_C 	C 	0.6795	0.3579	0.53827	-0.049
Mof_H 	H 	0.6819	0.3957	0.5389	0.049
Mof_C 	C 	0.7038	0.3303	0.52392	-0.056
Mof_H 	H 	0.7235	0.3496	0.5151	0.059
Mof_C 	C 	0.63472	0.15258	0.54815	0.059
Mof_C 	C 	0.66121	0.10874	0.55701	-0.117
Mof_H 	H 	0.6974	0.101	0.5543	0.077
Mof_C 	C 	0.6328	0.07661	0.57003	0.048
Mof_H 	H 	0.6503	0.0477	0.5759	0.031
Mof_C 	C 	0.57788	0.08832	0.57418	-0.127
Mof_C 	C 	0.55138	0.13216	0.56532	0.05
Mof_H 	H 	0.5152	0.1399	0.5681	0.029
Mof_C 	C 	0.5798	0.16429	0.5523	-0.12
Mof_H 	H 	0.5623	0.1932	0.5465	0.074
Mof_O 	O 	0.5028	0.07047	0.59265	-0.406
Mof_C 	C 	0.5507	0.0547	0.58807	0.389
Mof_O 	O 	0.747	0.1626	0.49233	-0.211
Mof_C 	C 	0.813	0.0994	0.48	0.006
Mof_C 	C 	0.7662	0.1052	0.4938	0.059
Mof_C 	C 	0.734	0.1041	0.4916	0.022
Mof_C 	C 	0.765	0.0756	0.4765	-0.02
Mof_O 	O 	0.07017	0.9892	0.11761	-0.417
Mof_O 	O 	0.00503	0.92756	0.1187	-0.41
Mof_O 	O 	0.07317	0.51405	0.094	-0.421
Mof_C 	C 	0.0486	0.9468	0.11178	0.389
Mof_C 	C 	0.12449	0.85957	0.0677	0.058
Mof_C 	C 	0.14928	0.9069	0.0749	-0.117
Mof_H 	H 	0.1821	0.9192	0.07	0.074
Mof_C 	C 	0.1243	0.9356	0.08956	0.052
Mof_H 	H 	0.1407	0.9668	0.0943	0.029
Mof_C 	C 	0.07461	0.91696	0.09703	-0.134
Mof_C 	C 	0.04982	0.86963	0.08984	0.051
Mof_H 	H 	0.017	0.8573	0.0948	0.029
Mof_C 	C 	0.07476	0.84093	0.07517	-0.116
Mof_H 	H 	0.0584	0.8097	0.0704	0.072
Mof_Cu	Cu	0.95942	0.53549	0.11259	0.903
Mof_C 	C 	0.17012	0.74411	0.03601	0.007
Mof_C 	C 	0.16599	0.68688	0.035	0.012
Mof_C 	C 	0.19113	0.65846	0.02031	-0.147
Mof_H 	H 	0.1884	0.6207	0.0196	0.091
Mof_C 	C 	0.2204	0.6873	0.00663	0.163
Mof_C 	C 	0.22452	0.7445	0.00764	-0.035
Mof_C 	C 	0.19938	0.77293	0.02233	0.026
Mof_C 	C 	0.1476	0.7725	0.05094	-0.079
Mof_H 	H 	0.1299	0.7532	0.0603	0.063
Mof_C 	C 	0.1508	0.8284	0.05226	0.011
Mof_C 	C 	0.1795	0.8579	0.03827	-0.049
Mof_H 	H 	0.1819	0.8957	0.0389	0.049
Mof_C 	C 	0.2038	0.8303	0.02392	-0.056
Mof_H 	H 	0.2235	0.8496	0.0151	0.059
Mof_C 	C 	0.13472	0.65258	0.04815	0.059
Mof_C 	C 	0.16121	0.60874	0.05701	-0.117
Mof_H 	H 	0.1974	0.601	0.0543	0.077
Mof_C 	C 	0.1328	0.57661	0.07003	0.048
Mof_H 	H 	0.1503	0.5477	0.0759	0.031
Mof_C 	C 	0.07788	0.58832	0.07418	-0.127
Mof_C 	C 	0.05138	0.63216	0.06532	0.05
Mof_H 	H 	0.0152	0.6399	0.0681	0.029
Mof_C 	C 	0.0798	0.66429	0.0523	-0.12
Mof_H 	H 	0.0623	0.6932	0.0465	0.074
Mof_O 	O 	0.0028	0.57047	0.09265	-0.405
Mof_C 	C 	0.0507	0.5547	0.08807	0.389
Mof_O 	O 	0.247	0.6626	0.99233	-0.211
Mof_C 	C 	0.313	0.5994	0.98	0.005
Mof_C 	C 	0.2662	0.6052	0.9938	0.059
Mof_C 	C 	0.234	0.6041	0.9916	0.022
Mof_C 	C 	0.265	0.5756	0.9765	-0.02
Mof_O 	O 	0.9892	0.42983	0.36761	-0.417
Mof_O 	O 	0.92756	0.49497	0.3687	-0.41
Mof_O 	O 	0.51405	0.42683	0.344	-0.421
Mof_C 	C 	0.9468	0.4514	0.36178	0.389
Mof_C 	C 	0.85957	0.37551	0.3177	0.058
Mof_C 	C 	0.9069	0.35072	0.3249	-0.117
Mof_H 	H 	0.9192	0.3179	0.32	0.074
Mof_C 	C 	0.9356	0.3757	0.33956	0.052
Mof_H 	H 	0.9668	0.3593	0.3443	0.029
Mof_C 	C 	0.91696	0.42539	0.34703	-0.134
Mof_C 	C 	0.86963	0.45018	0.33984	0.051
Mof_H 	H 	0.8573	0.483	0.3448	0.029
Mof_C 	C 	0.84093	0.42524	0.32517	-0.116
Mof_H 	H 	0.8097	0.4416	0.3204	0.072
Mof_Cu	Cu	0.53549	0.54058	0.36259	0.903
Mof_C 	C 	0.74411	0.32988	0.28601	0.007
Mof_C 	C 	0.68688	0.33401	0.285	0.012
Mof_C 	C 	0.65846	0.30887	0.27031	-0.147
Mof_H 	H 	0.6207	0.3116	0.2696	0.091
Mof_C 	C 	0.6873	0.2796	0.25663	0.163
Mof_C 	C 	0.7445	0.27548	0.25764	-0.035
Mof_C 	C 	0.77293	0.30062	0.27233	0.026
Mof_C 	C 	0.7725	0.3524	0.30094	-0.079
Mof_H 	H 	0.7532	0.3701	0.3103	0.063
Mof_C 	C 	0.8284	0.3492	0.30226	0.011
Mof_C 	C 	0.8579	0.3205	0.28827	-0.049
Mof_H 	H 	0.8957	0.3181	0.2889	0.049
Mof_C 	C 	0.8303	0.2962	0.27392	-0.056
Mof_H 	H 	0.8496	0.2765	0.2651	0.059
Mof_C 	C 	0.65258	0.36528	0.29815	0.059
Mof_C 	C 	0.60874	0.33879	0.30701	-0.117
Mof_H 	H 	0.601	0.3026	0.3043	0.077
Mof_C 	C 	0.57661	0.3672	0.32003	0.048
Mof_H 	H 	0.5477	0.3497	0.3259	0.031
Mof_C 	C 	0.58832	0.42212	0.32418	-0.127
Mof_C 	C 	0.63216	0.44862	0.31532	0.05
Mof_H 	H 	0.6399	0.4848	0.3181	0.029
Mof_C 	C 	0.66429	0.4202	0.3023	-0.12
Mof_H 	H 	0.6932	0.4377	0.2965	0.074
Mof_O 	O 	0.57047	0.4972	0.34265	-0.405
Mof_C 	C 	0.5547	0.4493	0.33807	0.389
Mof_O 	O 	0.6626	0.253	0.24233	-0.211
Mof_C 	C 	0.5994	0.187	0.23	0.005
Mof_C 	C 	0.6052	0.2338	0.2438	0.059
Mof_C 	C 	0.6041	0.266	0.2416	0.022
Mof_C 	C 	0.5756	0.235	0.2265	-0.02
Mof_O 	O 	0.4892	0.92983	0.86761	-0.417
Mof_O 	O 	0.42756	0.99497	0.8687	-0.41
Mof_O 	O 	0.01405	0.92683	0.844	-0.421
Mof_C 	C 	0.4468	0.9514	0.86178	0.389
Mof_C 	C 	0.35957	0.87551	0.8177	0.058
Mof_C 	C 	0.4069	0.85072	0.8249	-0.117
Mof_H 	H 	0.4192	0.8179	0.82	0.074
Mof_C 	C 	0.4356	0.8757	0.83956	0.052
Mof_H 	H 	0.4668	0.8593	0.8443	0.029
Mof_C 	C 	0.41696	0.92539	0.84703	-0.134
Mof_C 	C 	0.36963	0.95018	0.83984	0.051
Mof_H 	H 	0.3573	0.983	0.8448	0.029
Mof_C 	C 	0.34093	0.92524	0.82517	-0.116
Mof_H 	H 	0.3097	0.9416	0.8204	0.072
Mof_Cu	Cu	0.03549	0.04058	0.86259	0.902
Mof_C 	C 	0.24411	0.82988	0.78601	0.007
Mof_C 	C 	0.18688	0.83401	0.785	0.012
Mof_C 	C 	0.15846	0.80887	0.77031	-0.147
Mof_H 	H 	0.1207	0.8116	0.7696	0.091
Mof_C 	C 	0.1873	0.7796	0.75663	0.163
Mof_C 	C 	0.2445	0.77548	0.75764	-0.035
Mof_C 	C 	0.27293	0.80062	0.77233	0.026
Mof_C 	C 	0.2725	0.8524	0.80094	-0.079
Mof_H 	H 	0.2532	0.8701	0.8103	0.063
Mof_C 	C 	0.3284	0.8492	0.80226	0.011
Mof_C 	C 	0.3579	0.8205	0.78827	-0.049
Mof_H 	H 	0.3957	0.8181	0.7889	0.049
Mof_C 	C 	0.3303	0.7962	0.77392	-0.056
Mof_H 	H 	0.3496	0.7765	0.7651	0.059
Mof_C 	C 	0.15258	0.86528	0.79815	0.059
Mof_C 	C 	0.10874	0.83879	0.80701	-0.117
Mof_H 	H 	0.101	0.8026	0.8043	0.077
Mof_C 	C 	0.07661	0.8672	0.82003	0.048
Mof_H 	H 	0.0477	0.8497	0.8259	0.031
Mof_C 	C 	0.08832	0.92212	0.82418	-0.127
Mof_C 	C 	0.13216	0.94862	0.81532	0.05
Mof_H 	H 	0.1399	0.9848	0.8181	0.029
Mof_C 	C 	0.16429	0.9202	0.8023	-0.12
Mof_H 	H 	0.1932	0.9377	0.7965	0.074
Mof_O 	O 	0.07047	0.9972	0.84265	-0.405
Mof_C 	C 	0.0547	0.9493	0.83807	0.389
Mof_O 	O 	0.1626	0.753	0.74233	-0.211
Mof_C 	C 	0.0994	0.687	0.73	0.006
Mof_C 	C 	0.1052	0.7338	0.7438	0.059
Mof_C 	C 	0.1041	0.766	0.7416	0.022
Mof_C 	C 	0.0756	0.735	0.7265	-0.02
Mof_O 	O 	0.5108	0.07017	0.86761	-0.417
Mof_O 	O 	0.57244	0.00503	0.8687	-0.41
Mof_O 	O 	0.98595	0.07317	0.844	-0.421
Mof_C 	C 	0.5532	0.0486	0.86178	0.389
Mof_C 	C 	0.64043	0.12449	0.8177	0.058
Mof_C 	C 	0.5931	0.14928	0.8249	-0.117
Mof_H 	H 	0.5808	0.1821	0.82	0.074
Mof_C 	C 	0.5644	0.1243	0.83956	0.052
Mof_H 	H 	0.5332	0.1407	0.8443	0.029
Mof_C 	C 	0.58304	0.07461	0.84703	-0.134
Mof_C 	C 	0.63037	0.04982	0.83984	0.051
Mof_H 	H 	0.6427	0.017	0.8448	0.029
Mof_C 	C 	0.65907	0.07476	0.82517	-0.116
Mof_H 	H 	0.6903	0.0584	0.8204	0.072
Mof_Cu	Cu	0.96451	0.95942	0.86259	0.902
Mof_C 	C 	0.75589	0.17012	0.78601	0.007
Mof_C 	C 	0.81312	0.16599	0.785	0.012
Mof_C 	C 	0.84154	0.19113	0.77031	-0.147
Mof_H 	H 	0.8793	0.1884	0.7696	0.091
Mof_C 	C 	0.8127	0.2204	0.75663	0.163
Mof_C 	C 	0.7555	0.22452	0.75764	-0.035
Mof_C 	C 	0.72707	0.19938	0.77233	0.026
Mof_C 	C 	0.7275	0.1476	0.80094	-0.079
Mof_H 	H 	0.7468	0.1299	0.8103	0.063
Mof_C 	C 	0.6716	0.1508	0.80226	0.011
Mof_C 	C 	0.6421	0.1795	0.78827	-0.049
Mof_H 	H 	0.6043	0.1819	0.7889	0.049
Mof_C 	C 	0.6697	0.2038	0.77392	-0.056
Mof_H 	H 	0.6504	0.2235	0.7651	0.059
Mof_C 	C 	0.84742	0.13472	0.79815	0.059
Mof_C 	C 	0.89126	0.16121	0.80701	-0.117
Mof_H 	H 	0.899	0.1974	0.8043	0.077
Mof_C 	C 	0.92339	0.1328	0.82003	0.048
Mof_H 	H 	0.9523	0.1503	0.8259	0.031
Mof_C 	C 	0.91168	0.07788	0.82418	-0.127
Mof_C 	C 	0.86784	0.05138	0.81532	0.05
Mof_H 	H 	0.8601	0.0152	0.8181	0.029
Mof_C 	C 	0.83571	0.0798	0.8023	-0.12
Mof_H 	H 	0.8068	0.0623	0.7965	0.074
Mof_O 	O 	0.92953	0.0028	0.84265	-0.405
Mof_C 	C 	0.9453	0.0507	0.83807	0.389
Mof_O 	O 	0.8374	0.247	0.74233	-0.211
Mof_C 	C 	0.9006	0.313	0.73	0.006
Mof_C 	C 	0.8948	0.2662	0.7438	0.059
Mof_C 	C 	0.8959	0.234	0.7416	0.022
Mof_C 	C 	0.9244	0.265	0.7265	-0.02
Mof_O 	O 	0.0108	0.57017	0.36761	-0.417
Mof_O 	O 	0.07244	0.50503	0.3687	-0.41
Mof_O 	O 	0.48595	0.57317	0.344	-0.421
Mof_C 	C 	0.0532	0.5486	0.36178	0.389
Mof_C 	C 	0.14043	0.62449	0.3177	0.058
Mof_C 	C 	0.0931	0.64928	0.3249	-0.117
Mof_H 	H 	0.0808	0.6821	0.32	0.074
Mof_C 	C 	0.0644	0.6243	0.33956	0.052
Mof_H 	H 	0.0332	0.6407	0.3443	0.029
Mof_C 	C 	0.08304	0.57461	0.34703	-0.134
Mof_C 	C 	0.13037	0.54982	0.33984	0.051
Mof_H 	H 	0.1427	0.517	0.3448	0.029
Mof_C 	C 	0.15907	0.57476	0.32517	-0.116
Mof_H 	H 	0.1903	0.5584	0.3204	0.072
Mof_Cu	Cu	0.46451	0.45942	0.36259	0.903
Mof_C 	C 	0.25589	0.67012	0.28601	0.007
Mof_C 	C 	0.31312	0.66599	0.285	0.012
Mof_C 	C 	0.34154	0.69113	0.27031	-0.147
Mof_H 	H 	0.3793	0.6884	0.2696	0.091
Mof_C 	C 	0.3127	0.7204	0.25663	0.163
Mof_C 	C 	0.2555	0.72452	0.25764	-0.035
Mof_C 	C 	0.22707	0.69938	0.27233	0.026
Mof_C 	C 	0.2275	0.6476	0.30094	-0.079
Mof_H 	H 	0.2468	0.6299	0.3103	0.063
Mof_C 	C 	0.1716	0.6508	0.30226	0.011
Mof_C 	C 	0.1421	0.6795	0.28827	-0.049
Mof_H 	H 	0.1043	0.6819	0.2889	0.049
Mof_C 	C 	0.1697	0.7038	0.27392	-0.056
Mof_H 	H 	0.1504	0.7235	0.2651	0.059
Mof_C 	C 	0.34742	0.63472	0.29815	0.059
Mof_C 	C 	0.39126	0.66121	0.30701	-0.117
Mof_H 	H 	0.399	0.6974	0.3043	0.077
Mof_C 	C 	0.42339	0.6328	0.32003	0.048
Mof_H 	H 	0.4523	0.6503	0.3259	0.031
Mof_C 	C 	0.41168	0.57788	0.32418	-0.127
Mof_C 	C 	0.36784	0.55138	0.31532	0.05
Mof_H 	H 	0.3601	0.5152	0.3181	0.029
Mof_C 	C 	0.33571	0.5798	0.3023	-0.12
Mof_H 	H 	0.3068	0.5623	0.2965	0.074
Mof_O 	O 	0.42953	0.5028	0.34265	-0.405
Mof_C 	C 	0.4453	0.5507	0.33807	0.389
Mof_O 	O 	0.3374	0.747	0.24233	-0.211
Mof_C 	C 	0.4006	0.813	0.23	0.005
Mof_C 	C 	0.3948	0.7662	0.2438	0.059
Mof_C 	C 	0.3959	0.734	0.2416	0.022
Mof_C 	C 	0.4244	0.765	0.2265	-0.02
Mof_O 	O 	0.57017	0.0108	0.63239	-0.417
Mof_O 	O 	0.50503	0.07244	0.6313	-0.41
Mof_O 	O 	0.57317	0.48595	0.656	-0.421
Mof_C 	C 	0.5486	0.0532	0.63822	0.389
Mof_C 	C 	0.62449	0.14043	0.6823	0.058
Mof_C 	C 	0.64928	0.0931	0.6751	-0.117
Mof_H 	H 	0.6821	0.0808	0.68	0.074
Mof_C 	C 	0.6243	0.0644	0.66044	0.052
Mof_H 	H 	0.6407	0.0332	0.6557	0.029
Mof_C 	C 	0.57461	0.08304	0.65297	-0.134
Mof_C 	C 	0.54982	0.13037	0.66016	0.051
Mof_H 	H 	0.517	0.1427	0.6552	0.029
Mof_C 	C 	0.57476	0.15907	0.67483	-0.116
Mof_H 	H 	0.5584	0.1903	0.6796	0.072
Mof_Cu	Cu	0.45942	0.46451	0.63741	0.903
Mof_C 	C 	0.67012	0.25589	0.71399	0.007
Mof_C 	C 	0.66599	0.31312	0.715	0.012
Mof_C 	C 	0.69113	0.34154	0.72969	-0.147
Mof_H 	H 	0.6884	0.3793	0.7304	0.091
Mof_C 	C 	0.7204	0.3127	0.74337	0.163
Mof_C 	C 	0.72452	0.2555	0.74236	-0.035
Mof_C 	C 	0.69938	0.22707	0.72767	0.026
Mof_C 	C 	0.6476	0.2275	0.69906	-0.079
Mof_H 	H 	0.6299	0.2468	0.6897	0.063
Mof_C 	C 	0.6508	0.1716	0.69774	0.011
Mof_C 	C 	0.6795	0.1421	0.71173	-0.049
Mof_H 	H 	0.6819	0.1043	0.7111	0.049
Mof_C 	C 	0.7038	0.1697	0.72608	-0.056
Mof_H 	H 	0.7235	0.1504	0.7349	0.059
Mof_C 	C 	0.63472	0.34742	0.70185	0.059
Mof_C 	C 	0.66121	0.39126	0.69299	-0.117
Mof_H 	H 	0.6974	0.399	0.6957	0.077
Mof_C 	C 	0.6328	0.42339	0.67997	0.048
Mof_H 	H 	0.6503	0.4523	0.6741	0.031
Mof_C 	C 	0.57788	0.41168	0.67582	-0.127
Mof_C 	C 	0.55138	0.36784	0.68468	0.05
Mof_H 	H 	0.5152	0.3601	0.6819	0.029
Mof_C 	C 	0.5798	0.33571	0.6977	-0.12
Mof_H 	H 	0.5623	0.3068	0.7035	0.074
Mof_O 	O 	0.5028	0.42953	0.65735	-0.405
Mof_C 	C 	0.5507	0.4453	0.66193	0.389
Mof_O 	O 	0.747	0.3374	0.75767	-0.211
Mof_C 	C 	0.813	0.4006	0.77	0.005
Mof_C 	C 	0.7662	0.3948	0.7562	0.059
Mof_C 	C 	0.734	0.3959	0.7584	0.022
Mof_C 	C 	0.765	0.4244	0.7735	-0.02
Mof_O 	O 	0.07017	0.5108	0.13239	-0.417
Mof_O 	O 	0.00503	0.57244	0.1313	-0.41
Mof_O 	O 	0.07317	0.98595	0.156	-0.421
Mof_C 	C 	0.0486	0.5532	0.13822	0.389
Mof_C 	C 	0.12449	0.64043	0.1823	0.058
Mof_C 	C 	0.14928	0.5931	0.1751	-0.117
Mof_H 	H 	0.1821	0.5808	0.18	0.074
Mof_C 	C 	0.1243	0.5644	0.16044	0.052
Mof_H 	H 	0.1407	0.5332	0.1557	0.029
Mof_C 	C 	0.07461	0.58304	0.15297	-0.134
Mof_C 	C 	0.04982	0.63037	0.16016	0.051
Mof_H 	H 	0.017	0.6427	0.1552	0.029
Mof_C 	C 	0.07476	0.65907	0.17483	-0.116
Mof_H 	H 	0.0584	0.6903	0.1796	0.072
Mof_Cu	Cu	0.95942	0.96451	0.13741	0.902
Mof_C 	C 	0.17012	0.75589	0.21399	0.007
Mof_C 	C 	0.16599	0.81312	0.215	0.012
Mof_C 	C 	0.19113	0.84154	0.22969	-0.147
Mof_H 	H 	0.1884	0.8793	0.2304	0.091
Mof_C 	C 	0.2204	0.8127	0.24337	0.163
Mof_C 	C 	0.22452	0.7555	0.24236	-0.035
Mof_C 	C 	0.19938	0.72707	0.22767	0.026
Mof_C 	C 	0.1476	0.7275	0.19906	-0.079
Mof_H 	H 	0.1299	0.7468	0.1897	0.063
Mof_C 	C 	0.1508	0.6716	0.19774	0.011
Mof_C 	C 	0.1795	0.6421	0.21173	-0.049
Mof_H 	H 	0.1819	0.6043	0.2111	0.049
Mof_C 	C 	0.2038	0.6697	0.22608	-0.056
Mof_H 	H 	0.2235	0.6504	0.2349	0.059
Mof_C 	C 	0.13472	0.84742	0.20185	0.059
Mof_C 	C 	0.16121	0.89126	0.19299	-0.117
Mof_H 	H 	0.1974	0.899	0.1957	0.077
Mof_C 	C 	0.1328	0.92339	0.17997	0.048
Mof_H 	H 	0.1503	0.9523	0.1741	0.031
Mof_C 	C 	0.07788	0.91168	0.17582	-0.127
Mof_C 	C 	0.05138	0.86784	0.18468	0.05
Mof_H 	H 	0.0152	0.8601	0.1819	0.029
Mof_C 	C 	0.0798	0.83571	0.1977	-0.12
Mof_H 	H 	0.0623	0.8068	0.2035	0.074
Mof_O 	O 	0.0028	0.92953	0.15735	-0.405
Mof_C 	C 	0.0507	0.9453	0.16193	0.389
Mof_O 	O 	0.247	0.8374	0.25767	-0.211
Mof_C 	C 	0.313	0.9006	0.27	0.006
Mof_C 	C 	0.2662	0.8948	0.2562	0.059
Mof_C 	C 	0.234	0.8959	0.2584	0.022
Mof_C 	C 	0.265	0.9244	0.2735	-0.02
Mof_O 	O 	0.92983	0.4892	0.13239	-0.417
Mof_O 	O 	0.99497	0.42756	0.1313	-0.41
Mof_O 	O 	0.92683	0.01405	0.156	-0.421
Mof_C 	C 	0.9514	0.4468	0.13822	0.389
Mof_C 	C 	0.87551	0.35957	0.1823	0.058
Mof_C 	C 	0.85072	0.4069	0.1751	-0.117
Mof_H 	H 	0.8179	0.4192	0.18	0.074
Mof_C 	C 	0.8757	0.4356	0.16044	0.052
Mof_H 	H 	0.8593	0.4668	0.1557	0.029
Mof_C 	C 	0.92539	0.41696	0.15297	-0.134
Mof_C 	C 	0.95018	0.36963	0.16016	0.051
Mof_H 	H 	0.983	0.3573	0.1552	0.029
Mof_C 	C 	0.92524	0.34093	0.17483	-0.116
Mof_H 	H 	0.9416	0.3097	0.1796	0.072
Mof_Cu	Cu	0.04058	0.03549	0.13741	0.902
Mof_C 	C 	0.82988	0.24411	0.21399	0.007
Mof_C 	C 	0.83401	0.18688	0.215	0.012
Mof_C 	C 	0.80887	0.15846	0.22969	-0.147
Mof_H 	H 	0.8116	0.1207	0.2304	0.091
Mof_C 	C 	0.7796	0.1873	0.24337	0.163
Mof_C 	C 	0.77548	0.2445	0.24236	-0.035
Mof_C 	C 	0.80062	0.27293	0.22767	0.026
Mof_C 	C 	0.8524	0.2725	0.19906	-0.079
Mof_H 	H 	0.8701	0.2532	0.1897	0.063
Mof_C 	C 	0.8492	0.3284	0.19774	0.011
Mof_C 	C 	0.8205	0.3579	0.21173	-0.049
Mof_H 	H 	0.8181	0.3957	0.2111	0.049
Mof_C 	C 	0.7962	0.3303	0.22608	-0.056
Mof_H 	H 	0.7765	0.3496	0.2349	0.059
Mof_C 	C 	0.86528	0.15258	0.20185	0.059
Mof_C 	C 	0.83879	0.10874	0.19299	-0.117
Mof_H 	H 	0.8026	0.101	0.1957	0.077
Mof_C 	C 	0.8672	0.07661	0.17997	0.048
Mof_H 	H 	0.8497	0.0477	0.1741	0.031
Mof_C 	C 	0.92212	0.08832	0.17582	-0.127
Mof_C 	C 	0.94862	0.13216	0.18468	0.05
Mof_H 	H 	0.9848	0.1399	0.1819	0.029
Mof_C 	C 	0.9202	0.16429	0.1977	-0.12
Mof_H 	H 	0.9377	0.1932	0.2035	0.074
Mof_O 	O 	0.9972	0.07047	0.15735	-0.405
Mof_C 	C 	0.9493	0.0547	0.16193	0.389
Mof_O 	O 	0.753	0.1626	0.25767	-0.211
Mof_C 	C 	0.687	0.0994	0.27	0.006
Mof_C 	C 	0.7338	0.1052	0.2562	0.059
Mof_C 	C 	0.766	0.1041	0.2584	0.022
Mof_C 	C 	0.735	0.0756	0.2735	-0.02
Mof_O 	O 	0.42983	0.9892	0.63239	-0.417
Mof_O 	O 	0.49497	0.92756	0.6313	-0.41
Mof_O 	O 	0.42683	0.51405	0.656	-0.421
Mof_C 	C 	0.4514	0.9468	0.63822	0.389
Mof_C 	C 	0.37551	0.85957	0.6823	0.058
Mof_C 	C 	0.35072	0.9069	0.6751	-0.117
Mof_H 	H 	0.3179	0.9192	0.68	0.074
Mof_C 	C 	0.3757	0.9356	0.66044	0.052
Mof_H 	H 	0.3593	0.9668	0.6557	0.029
Mof_C 	C 	0.42539	0.91696	0.65297	-0.134
Mof_C 	C 	0.45018	0.86963	0.66016	0.051
Mof_H 	H 	0.483	0.8573	0.6552	0.029
Mof_C 	C 	0.42524	0.84093	0.67483	-0.116
Mof_H 	H 	0.4416	0.8097	0.6796	0.072
Mof_Cu	Cu	0.54058	0.53549	0.63741	0.903
Mof_C 	C 	0.32988	0.74411	0.71399	0.007
Mof_C 	C 	0.33401	0.68688	0.715	0.012
Mof_C 	C 	0.30887	0.65846	0.72969	-0.147
Mof_H 	H 	0.3116	0.6207	0.7304	0.091
Mof_C 	C 	0.2796	0.6873	0.74337	0.163
Mof_C 	C 	0.27548	0.7445	0.74236	-0.035
Mof_C 	C 	0.30062	0.77293	0.72767	0.026
Mof_C 	C 	0.3524	0.7725	0.69906	-0.079
Mof_H 	H 	0.3701	0.7532	0.6897	0.063
Mof_C 	C 	0.3492	0.8284	0.69774	0.011
Mof_C 	C 	0.3205	0.8579	0.71173	-0.049
Mof_H 	H 	0.3181	0.8957	0.7111	0.049
Mof_C 	C 	0.2962	0.8303	0.72608	-0.056
Mof_H 	H 	0.2765	0.8496	0.7349	0.059
Mof_C 	C 	0.36528	0.65258	0.70185	0.059
Mof_C 	C 	0.33879	0.60874	0.69299	-0.117
Mof_H 	H 	0.3026	0.601	0.6957	0.077
Mof_C 	C 	0.3672	0.57661	0.67997	0.048
Mof_H 	H 	0.3497	0.5477	0.6741	0.031
Mof_C 	C 	0.42212	0.58832	0.67582	-0.127
Mof_C 	C 	0.44862	0.63216	0.68468	0.05
Mof_H 	H 	0.4848	0.6399	0.6819	0.029
Mof_C 	C 	0.4202	0.66429	0.6977	-0.12
Mof_H 	H 	0.4377	0.6932	0.7035	0.074
Mof_O 	O 	0.4972	0.57047	0.65735	-0.405
Mof_C 	C 	0.4493	0.5547	0.66193	0.389
Mof_O 	O 	0.253	0.6626	0.75767	-0.211
Mof_C 	C 	0.187	0.5994	0.77	0.005
Mof_C 	C 	0.2338	0.6052	0.7562	0.059
Mof_C 	C 	0.266	0.6041	0.7584	0.022
Mof_C 	C 	0.235	0.5756	0.7735	-0.02
Mof_O 	O 	0.5108	0.42983	0.38239	-0.417
Mof_O 	O 	0.57244	0.49497	0.3813	-0.41
Mof_O 	O 	0.98595	0.42683	0.406	-0.421
Mof_C 	C 	0.5532	0.4514	0.38822	0.389
Mof_C 	C 	0.64043	0.37551	0.4323	0.058
Mof_C 	C 	0.5931	0.35072	0.4251	-0.117
Mof_H 	H 	0.5808	0.3179	0.43	0.074
Mof_C 	C 	0.5644	0.3757	0.41044	0.052
Mof_H 	H 	0.5332	0.3593	0.4057	0.029
Mof_C 	C 	0.58304	0.42539	0.40297	-0.134
Mof_C 	C 	0.63037	0.45018	0.41016	0.051
Mof_H 	H 	0.6427	0.483	0.4052	0.029
Mof_C 	C 	0.65907	0.42524	0.42483	-0.116
Mof_H 	H 	0.6903	0.4416	0.4296	0.072
Mof_Cu	Cu	0.96451	0.54058	0.38741	0.903
Mof_C 	C 	0.75589	0.32988	0.46399	0.007
Mof_C 	C 	0.81312	0.33401	0.465	0.012
Mof_C 	C 	0.84154	0.30887	0.47969	-0.147
Mof_H 	H 	0.8793	0.3116	0.4804	0.091
Mof_C 	C 	0.8127	0.2796	0.49337	0.163
Mof_C 	C 	0.7555	0.27548	0.49236	-0.035
Mof_C 	C 	0.72707	0.30062	0.47767	0.026
Mof_C 	C 	0.7275	0.3524	0.44906	-0.079
Mof_H 	H 	0.7468	0.3701	0.4397	0.063
Mof_C 	C 	0.6716	0.3492	0.44774	0.011
Mof_C 	C 	0.6421	0.3205	0.46173	-0.049
Mof_H 	H 	0.6043	0.3181	0.4611	0.049
Mof_C 	C 	0.6697	0.2962	0.47608	-0.056
Mof_H 	H 	0.6504	0.2765	0.4849	0.059
Mof_C 	C 	0.84742	0.36528	0.45185	0.059
Mof_C 	C 	0.89126	0.33879	0.44299	-0.117
Mof_H 	H 	0.899	0.3026	0.4457	0.077
Mof_C 	C 	0.92339	0.3672	0.42997	0.048
Mof_H 	H 	0.9523	0.3497	0.4241	0.031
Mof_C 	C 	0.91168	0.42212	0.42582	-0.127
Mof_C 	C 	0.86784	0.44862	0.43468	0.05
Mof_H 	H 	0.8601	0.4848	0.4319	0.029
Mof_C 	C 	0.83571	0.4202	0.4477	-0.12
Mof_H 	H 	0.8068	0.4377	0.4535	0.074
Mof_O 	O 	0.92953	0.4972	0.40735	-0.406
Mof_C 	C 	0.9453	0.4493	0.41193	0.389
Mof_O 	O 	0.8374	0.253	0.50767	-0.211
Mof_C 	C 	0.9006	0.187	0.52	0.006
Mof_C 	C 	0.8948	0.2338	0.5062	0.059
Mof_C 	C 	0.8959	0.266	0.5084	0.022
Mof_C 	C 	0.9244	0.235	0.5235	-0.02
Mof_O 	O 	0.0108	0.92983	0.88239	-0.417
Mof_O 	O 	0.07244	0.99497	0.8813	-0.41
Mof_O 	O 	0.48595	0.92683	0.906	-0.421
Mof_C 	C 	0.0532	0.9514	0.88822	0.389
Mof_C 	C 	0.14043	0.87551	0.9323	0.058
Mof_C 	C 	0.0931	0.85072	0.9251	-0.117
Mof_H 	H 	0.0808	0.8179	0.93	0.074
Mof_C 	C 	0.0644	0.8757	0.91044	0.052
Mof_H 	H 	0.0332	0.8593	0.9057	0.029
Mof_C 	C 	0.08304	0.92539	0.90297	-0.134
Mof_C 	C 	0.13037	0.95018	0.91016	0.051
Mof_H 	H 	0.1427	0.983	0.9052	0.029
Mof_C 	C 	0.15907	0.92524	0.92483	-0.116
Mof_H 	H 	0.1903	0.9416	0.9296	0.072
Mof_Cu	Cu	0.46451	0.04058	0.88741	0.903
Mof_C 	C 	0.25589	0.82988	0.96399	0.007
Mof_C 	C 	0.31312	0.83401	0.965	0.012
Mof_C 	C 	0.34154	0.80887	0.97969	-0.147
Mof_H 	H 	0.3793	0.8116	0.9804	0.091
Mof_C 	C 	0.3127	0.7796	0.99337	0.163
Mof_C 	C 	0.2555	0.77548	0.99236	-0.035
Mof_C 	C 	0.22707	0.80062	0.97767	0.026
Mof_C 	C 	0.2275	0.8524	0.94906	-0.079
Mof_H 	H 	0.2468	0.8701	0.9397	0.063
Mof_C 	C 	0.1716	0.8492	0.94774	0.011
Mof_C 	C 	0.1421	0.8205	0.96173	-0.049
Mof_H 	H 	0.1043	0.8181	0.9611	0.049
Mof_C 	C 	0.1697	0.7962	0.97608	-0.056
Mof_H 	H 	0.1504	0.7765	0.9849	0.059
Mof_C 	C 	0.34742	0.86528	0.95185	0.059
Mof_C 	C 	0.39126	0.83879	0.94299	-0.117
Mof_H 	H 	0.399	0.8026	0.9457	0.077
Mof_C 	C 	0.42339	0.8672	0.92997	0.048
Mof_H 	H 	0.4523	0.8497	0.9241	0.031
Mof_C 	C 	0.41168	0.92212	0.92582	-0.127
Mof_C 	C 	0.36784	0.94862	0.93468	0.05
Mof_H 	H 	0.3601	0.9848	0.9319	0.029
Mof_C 	C 	0.33571	0.9202	0.9477	-0.12
Mof_H 	H 	0.3068	0.9377	0.9535	0.074
Mof_O 	O 	0.42953	0.9972	0.90735	-0.405
Mof_C 	C 	0.4453	0.9493	0.91193	0.389
Mof_O 	O 	0.3374	0.753	0.00767	-0.211
Mof_C 	C 	0.4006	0.687	0.02	0.005
Mof_C 	C 	0.3948	0.7338	0.0062	0.059
Mof_C 	C 	0.3959	0.766	0.0084	0.022
Mof_C 	C 	0.4244	0.735	0.0235	-0.02
Mof_O 	O 	0.9892	0.07017	0.88239	-0.417
Mof_O 	O 	0.92756	0.00503	0.8813	-0.41
Mof_O 	O 	0.51405	0.07317	0.906	-0.421
Mof_C 	C 	0.9468	0.0486	0.88822	0.389
Mof_C 	C 	0.85957	0.12449	0.9323	0.058
Mof_C 	C 	0.9069	0.14928	0.9251	-0.117
Mof_H 	H 	0.9192	0.1821	0.93	0.074
Mof_C 	C 	0.9356	0.1243	0.91044	0.052
Mof_H 	H 	0.9668	0.1407	0.9057	0.029
Mof_C 	C 	0.91696	0.07461	0.90297	-0.134
Mof_C 	C 	0.86963	0.04982	0.91016	0.051
Mof_H 	H 	0.8573	0.017	0.9052	0.029
Mof_C 	C 	0.84093	0.07476	0.92483	-0.116
Mof_H 	H 	0.8097	0.0584	0.9296	0.072
Mof_Cu	Cu	0.53549	0.95942	0.88741	0.903
Mof_C 	C 	0.74411	0.17012	0.96399	0.007
Mof_C 	C 	0.68688	0.16599	0.965	0.012
Mof_C 	C 	0.65846	0.19113	0.97969	-0.147
Mof_H 	H 	0.6207	0.1884	0.9804	0.091
Mof_C 	C 	0.6873	0.2204	0.99337	0.163
Mof_C 	C 	0.7445	0.22452	0.99236	-0.035
Mof_C 	C 	0.77293	0.19938	0.97767	0.026
Mof_C 	C 	0.7725	0.1476	0.94906	-0.079
Mof_H 	H 	0.7532	0.1299	0.9397	0.063
Mof_C 	C 	0.8284	0.1508	0.94774	0.011
Mof_C 	C 	0.8579	0.1795	0.96173	-0.049
Mof_H 	H 	0.8957	0.1819	0.9611	0.049
Mof_C 	C 	0.8303	0.2038	0.97608	-0.056
Mof_H 	H 	0.8496	0.2235	0.9849	0.059
Mof_C 	C 	0.65258	0.13472	0.95185	0.059
Mof_C 	C 	0.60874	0.16121	0.94299	-0.117
Mof_H 	H 	0.601	0.1974	0.9457	0.077
Mof_C 	C 	0.57661	0.1328	0.92997	0.048
Mof_H 	H 	0.5477	0.1503	0.9241	0.031
Mof_C 	C 	0.58832	0.07788	0.92582	-0.127
Mof_C 	C 	0.63216	0.05138	0.93468	0.05
Mof_H 	H 	0.6399	0.0152	0.9319	0.029
Mof_C 	C 	0.66429	0.0798	0.9477	-0.12
Mof_H 	H 	0.6932	0.0623	0.9535	0.074
Mof_O 	O 	0.57047	0.0028	0.90735	-0.405
Mof_C 	C 	0.5547	0.0507	0.91193	0.389
Mof_O 	O 	0.6626	0.247	0.00767	-0.211
Mof_C 	C 	0.5994	0.313	0.02	0.005
Mof_C 	C 	0.6052	0.2662	0.0062	0.059
Mof_C 	C 	0.6041	0.234	0.0084	0.022
Mof_C 	C 	0.5756	0.265	0.0235	-0.02
Mof_O 	O 	0.4892	0.57017	0.38239	-0.417
Mof_O 	O 	0.42756	0.50503	0.3813	-0.41
Mof_O 	O 	0.01405	0.57317	0.406	-0.421
Mof_C 	C 	0.4468	0.5486	0.38822	0.389
Mof_C 	C 	0.35957	0.62449	0.4323	0.058
Mof_C 	C 	0.4069	0.64928	0.4251	-0.117
Mof_H 	H 	0.4192	0.6821	0.43	0.074
Mof_C 	C 	0.4356	0.6243	0.41044	0.052
Mof_H 	H 	0.4668	0.6407	0.4057	0.029
Mof_C 	C 	0.41696	0.57461	0.40297	-0.134
Mof_C 	C 	0.36963	0.54982	0.41016	0.051
Mof_H 	H 	0.3573	0.517	0.4052	0.029
Mof_C 	C 	0.34093	0.57476	0.42483	-0.116
Mof_H 	H 	0.3097	0.5584	0.4296	0.072
Mof_Cu	Cu	0.03549	0.45942	0.38741	0.903
Mof_C 	C 	0.24411	0.67012	0.46399	0.007
Mof_C 	C 	0.18688	0.66599	0.465	0.012
Mof_C 	C 	0.15846	0.69113	0.47969	-0.147
Mof_H 	H 	0.1207	0.6884	0.4804	0.091
Mof_C 	C 	0.1873	0.7204	0.49337	0.163
Mof_C 	C 	0.2445	0.72452	0.49236	-0.035
Mof_C 	C 	0.27293	0.69938	0.47767	0.026
Mof_C 	C 	0.2725	0.6476	0.44906	-0.079
Mof_H 	H 	0.2532	0.6299	0.4397	0.063
Mof_C 	C 	0.3284	0.6508	0.44774	0.011
Mof_C 	C 	0.3579	0.6795	0.46173	-0.049
Mof_H 	H 	0.3957	0.6819	0.4611	0.049
Mof_C 	C 	0.3303	0.7038	0.47608	-0.056
Mof_H 	H 	0.3496	0.7235	0.4849	0.059
Mof_C 	C 	0.15258	0.63472	0.45185	0.059
Mof_C 	C 	0.10874	0.66121	0.44299	-0.117
Mof_H 	H 	0.101	0.6974	0.4457	0.077
Mof_C 	C 	0.07661	0.6328	0.42997	0.048
Mof_H 	H 	0.0477	0.6503	0.4241	0.031
Mof_C 	C 	0.08832	0.57788	0.42582	-0.127
Mof_C 	C 	0.13216	0.55138	0.43468	0.05
Mof_H 	H 	0.1399	0.5152	0.4319	0.029
Mof_C 	C 	0.16429	0.5798	0.4477	-0.12
Mof_H 	H 	0.1932	0.5623	0.4535	0.074
Mof_O 	O 	0.07047	0.5028	0.40735	-0.406
Mof_C 	C 	0.0547	0.5507	0.41193	0.389
Mof_O 	O 	0.1626	0.747	0.50767	-0.211
Mof_C 	C 	0.0994	0.813	0.52	0.006
Mof_C 	C 	0.1052	0.7662	0.5062	0.059
Mof_C 	C 	0.1041	0.734	0.5084	0.022
Mof_C 	C 	0.0756	0.765	0.5235	-0.02
_end
