# CIF file generated by openbabel 3.1.0, see https://openbabel.org
data_I
_chemical_name_common 'image0'
_cell_length_a 31.936
_cell_length_b 10.664
_cell_length_c 12.361
_cell_angle_alpha 90
_cell_angle_beta 96.2
_cell_angle_gamma 90
_space_group_name_H-M_alt 'P 1'
_space_group_name_Hall 'P 1'
loop_
    _symmetry_equiv_pos_as_xyz
    x,y,z
loop_
    _atom_site_label
    _atom_site_type_symbol
    _atom_site_fract_x
    _atom_site_fract_y
    _atom_site_fract_z
    _atom_site_occupancy
    Mn1      Mn       0.24953    0.25010    0.49958    1.000
    Cu1      Cu       0.99565    0.25738    0.28498    1.000
    C1       C        0.07450    0.25460    0.43450    1.000
    C2       C        0.14510    0.24510    0.48470    1.000
    C3       C        0.35260    0.25200    0.53840    1.000
    C4       C        0.42010    0.23970    0.62670    1.000
    C5       C        0.25530    0.95610    0.41090    1.000
    C6       C        0.25050    0.54400    0.59050    1.000
    C7       C        0.25270    0.67130    0.73830    1.000
    C8       C        0.25180    0.82700    0.26520    1.000
    N1       N        0.04310    0.25410    0.38000    1.000
    N2       N        0.10618    0.25580    0.50340    1.000
    N3       N        0.18040    0.23520    0.47990    1.000
    N4       N        0.31800    0.26150    0.52160    1.000
    N5       N        0.39260    0.23770    0.54330    1.000
    N6       N        0.44860    0.24020    0.69000    1.000
    N7       N        0.25050    0.84290    0.36900    1.000
    N8       N        0.25620    0.04760    0.45540    1.000
    N9       N        0.24610    0.45150    0.54400    1.000
    N10      N        0.25630    0.65370    0.63520    1.000
    N11      N        0.25110    0.69980    0.82560    1.000
    N12      N        0.25120    0.79940    0.17520    1.000
    Mn2      Mn       0.25047    0.75010    0.00042    1.000
    Cu2      Cu       0.50435    0.75738    0.21502    1.000
    C9       C        0.42550    0.75460    0.06550    1.000
    C10      C        0.35490    0.74510    0.01530    1.000
    C11      C        0.14740    0.75200    0.96160    1.000
    C12      C        0.07990    0.73970    0.87330    1.000
    C13      C        0.24470    0.45610    0.08910    1.000
    C14      C        0.24950    0.04400    0.90950    1.000
    C15      C        0.24730    0.17130    0.76170    1.000
    C16      C        0.24820    0.32700    0.23480    1.000
    N13      N        0.45690    0.75410    0.12000    1.000
    N14      N        0.39382    0.75580    0.99660    1.000
    N15      N        0.31960    0.73520    0.02010    1.000
    N16      N        0.18200    0.76150    0.97840    1.000
    N17      N        0.10740    0.73770    0.95670    1.000
    N18      N        0.05140    0.74020    0.81000    1.000
    N19      N        0.24950    0.34290    0.13100    1.000
    N20      N        0.24380    0.54760    0.04460    1.000
    N21      N        0.25390    0.95150    0.95600    1.000
    N22      N        0.24370    0.15370    0.86480    1.000
    N23      N        0.24890    0.19980    0.67440    1.000
    N24      N        0.24880    0.29940    0.32480    1.000
    Mn3      Mn       0.75047    0.74990    0.50042    1.000
    Cu3      Cu       0.00435    0.74262    0.71502    1.000
    C17      C        0.92550    0.74540    0.56550    1.000
    C18      C        0.85490    0.75490    0.51530    1.000
    C19      C        0.64740    0.74800    0.46160    1.000
    C20      C        0.57990    0.76030    0.37330    1.000
    C21      C        0.74470    0.04390    0.58910    1.000
    C22      C        0.74950    0.45600    0.40950    1.000
    C23      C        0.74730    0.32870    0.26170    1.000
    C24      C        0.74820    0.17300    0.73480    1.000
    N25      N        0.95690    0.74590    0.62000    1.000
    N26      N        0.89382    0.74420    0.49660    1.000
    N27      N        0.81960    0.76480    0.52010    1.000
    N28      N        0.68200    0.73850    0.47840    1.000
    N29      N        0.60740    0.76230    0.45670    1.000
    N30      N        0.55140    0.75980    0.31000    1.000
    N31      N        0.74950    0.15710    0.63100    1.000
    N32      N        0.74380    0.95240    0.54460    1.000
    N33      N        0.75390    0.54850    0.45600    1.000
    N34      N        0.74370    0.34630    0.36480    1.000
    N35      N        0.74890    0.30020    0.17440    1.000
    N36      N        0.74880    0.20060    0.82480    1.000
    Mn4      Mn       0.74953    0.24990    0.99958    1.000
    Cu4      Cu       0.49565    0.24262    0.78498    1.000
    C25      C        0.57450    0.24540    0.93450    1.000
    C26      C        0.64510    0.25490    0.98470    1.000
    C27      C        0.85260    0.24800    0.03840    1.000
    C28      C        0.92010    0.26030    0.12670    1.000
    C29      C        0.75530    0.54390    0.91090    1.000
    C30      C        0.75050    0.95600    0.09050    1.000
    C31      C        0.75270    0.82870    0.23830    1.000
    C32      C        0.75180    0.67300    0.76520    1.000
    N37      N        0.54310    0.24590    0.88000    1.000
    N38      N        0.60618    0.24420    0.00340    1.000
    N39      N        0.68040    0.26480    0.97990    1.000
    N40      N        0.81800    0.23850    0.02160    1.000
    N41      N        0.89260    0.26230    0.04330    1.000
    N42      N        0.94860    0.25980    0.19000    1.000
    N43      N        0.75050    0.65710    0.86900    1.000
    N44      N        0.75620    0.45240    0.95540    1.000
    N45      N        0.74610    0.04850    0.04400    1.000
    N46      N        0.75630    0.84630    0.13520    1.000
    N47      N        0.75110    0.80020    0.32560    1.000
    N48      N        0.75120    0.70060    0.67520    1.000
