data_functionalizedCrystal
_audit_creation_method	'EQeq! by Chris Wilmer'
_symmetry_space_group_name_H-M	'P1'
_symmetry_Int_Tables_number	1
_symmetry_cell_setting	triclinic
loop_
_symmetry_equiv_pos_as_xyz
  x,y,z
_cell_length_a	9.7792
_cell_length_b	11.3331
_cell_length_c	15.924
_cell_angle_alpha	71.042
_cell_angle_beta	85.29
_cell_angle_gamma	70.907
loop_
_atom_site_label
_atom_site_type_symbol
_atom_site_fract_x
_atom_site_fract_y
_atom_site_fract_z
_atom_site_charge
Mof_La	La	0.46104	0.09449	0.91594	1.887
Mof_La	La	0.90113	0.99316	0.93722	1.711
Mof_H 	H 	0.709	0.728	0.452	0.076
Mof_H 	H 	0.5445	0.8161	0.576	0.12
Mof_H 	H 	0.5205	0.8898	0.6989	-0.026
Mof_H 	H 	0.9331	0.861	0.697	-0.043
Mof_H 	H 	0.9616	0.7844	0.5758	0.094
Mof_H 	H 	0.6628	0.9671	0.3984	0.108
Mof_H 	H 	0.7679	0.9813	0.3186	0.104
Mof_H 	H 	0.6724	0.8897	0.3313	0.106
Mof_H 	H 	0.974	0.58	0.535	0.005
Mof_H 	H 	0.663	0.5177	0.5084	0.085
Mof_H 	H 	0.552	0.3836	0.6211	0.015
Mof_H 	H 	0.8403	0.3467	0.8012	-0.035
Mof_H 	H 	0.9464	0.4801	0.6909	0.06
Mof_H 	H 	0.9953	0.3575	0.4782	0.014
Mof_H 	H 	0.0759	0.4327	0.401	0.056
Mof_H 	H 	0.0892	0.4346	0.498	0.057
Mof_H 	H 	0.394	0.554	0.366	0.059
Mof_H 	H 	0.6496	0.6096	0.3388	0.131
Mof_H 	H 	0.784	0.7102	0.2374	-0.041
Mof_H 	H 	0.534	0.7316	0.0444	-0.008
Mof_H 	H 	0.4156	0.6073	0.1466	0.144
Mof_H 	H 	0.2089	0.7174	0.2695	0.147
Mof_H 	H 	0.1346	0.6656	0.2117	0.162
Mof_H 	H 	0.106	0.6347	0.3137	0.162
Mof_H 	H 	0.446	0.33	0.389	0.04
Mof_H 	H 	0.7649	0.3263	0.2621	0.093
Mof_H 	H 	0.8254	0.2459	0.1436	-0.004
Mof_H 	H 	0.4288	0.207	0.1558	-0.011
Mof_H 	H 	0.3842	0.2713	0.2781	0.115
Mof_H 	H 	0.7336	0.1673	0.434	0.087
Mof_H 	H 	0.7749	0.2279	0.5	0.091
Mof_H 	H 	0.6248	0.2039	0.5065	0.095
Mof_H 	H 	0.049	0.147	0.397	0.073
Mof_H 	H 	0.9724	0.0376	0.5728	0.05
Mof_H 	H 	0.9665	0.0686	0.7102	-0.069
Mof_H 	H 	0.3438	0.1451	0.6616	-0.007
Mof_H 	H 	0.3497	0.114	0.5242	0.105
Mof_H 	H 	0.0253	0.3214	0.3253	0.142
Mof_H 	H 	0.1573	0.3152	0.262	0.141
Mof_H 	H 	0.066	0.2208	0.2719	0.141
Mof_H 	H 	0.087	0.942	0.456	0.037
Mof_H 	H 	0.4052	0.9562	0.3111	0.097
Mof_H 	H 	0.4172	0.9577	0.1649	-0.011
Mof_H 	H 	0.9943	0.9862	0.1701	-0.056
Mof_H 	H 	0.9903	0.0077	0.3095	0.045
Mof_H 	H 	0.2462	0.7317	0.4844	0.104
Mof_H 	H 	0.3957	0.7208	0.4382	0.098
Mof_H 	H 	0.3871	0.6924	0.5413	0.098
Mof_C 	C 	0.7734	0.7405	0.4875	-0.073
Mof_C 	C 	0.7598	0.7883	0.564	0.159
Mof_C 	C 	0.6243	0.8227	0.5999	-0.236
Mof_C 	C 	0.6108	0.868	0.6737	0.163
Mof_C 	C 	0.7212	0.8809	0.7088	-0.256
Mof_C 	C 	0.8551	0.851	0.6735	0.145
Mof_C 	C 	0.8708	0.8049	0.6006	-0.228
Mof_C 	C 	0.703	0.9373	0.7865	0.508
Mof_C 	C 	0.726	0.9218	0.3615	-0.247
Mof_C 	C 	0.8782	0.597	0.5126	0.051
Mof_C 	C 	0.8136	0.5079	0.5869	0.064
Mof_C 	C 	0.6992	0.4835	0.5666	-0.14
Mof_C 	C 	0.6305	0.4036	0.635	0.066
Mof_C 	C 	0.6847	0.357	0.7228	-0.185
Mof_C 	C 	0.803	0.3817	0.7432	0.092
Mof_C 	C 	0.8683	0.4596	0.6769	-0.153
Mof_C 	C 	0.6129	0.2708	0.7924	0.456
Mof_C 	C 	0.026	0.4342	0.4553	-0.024
Mof_C 	C 	0.4344	0.5143	0.3206	-0.051
Mof_C 	C 	0.5173	0.5946	0.2525	0.183
Mof_C 	C 	0.6291	0.6309	0.2787	-0.268
Mof_C 	C 	0.7054	0.695	0.2187	0.214
Mof_C 	C 	0.6696	0.7387	0.1301	-0.3
Mof_C 	C 	0.5593	0.7045	0.1043	0.213
Mof_C 	C 	0.4868	0.6314	0.1657	-0.264
Mof_C 	C 	0.7418	0.8204	0.0627	0.599
Mof_C 	C 	0.1769	0.6461	0.269	-0.346
Mof_C 	C 	0.5166	0.3691	0.3567	0.008
Mof_C 	C 	0.5694	0.3042	0.2824	0.127
Mof_C 	C 	0.6995	0.2976	0.2414	-0.186
Mof_C 	C 	0.7366	0.2496	0.1704	0.109
Mof_C 	C 	0.6357	0.2062	0.1394	-0.203
Mof_C 	C 	0.5012	0.2247	0.1792	0.138
Mof_C 	C 	0.4725	0.2673	0.2506	-0.212
Mof_C 	C 	0.672	0.1526	0.065	0.462
Mof_C 	C 	0.697	0.2286	0.4666	-0.206
Mof_C 	C 	0.1298	0.0823	0.4348	-0.037
Mof_C 	C 	0.1616	0.0727	0.5349	0.121
Mof_C 	C 	0.0468	0.0591	0.5906	-0.146
Mof_C 	C 	0.0433	0.0777	0.6729	0.187
Mof_C 	C 	0.1546	0.1099	0.6995	-0.24
Mof_C 	C 	0.2693	0.1235	0.6438	0.132
Mof_C 	C 	0.2729	0.1049	0.5615	-0.187
Mof_C 	C 	0.1503	0.1218	0.7908	0.489
Mof_C 	C 	0.104	0.264	0.3025	-0.327
Mof_C 	C 	0.1802	0.944	0.4334	0.025
Mof_C 	C 	0.1998	0.9549	0.3319	0.097
Mof_C 	C 	0.3242	0.9576	0.2836	-0.171
Mof_C 	C 	0.3308	0.9623	0.1949	0.117
Mof_C 	C 	0.2057	0.974	0.1513	-0.232
Mof_C 	C 	0.0777	0.9822	0.1966	0.183
Mof_C 	C 	0.0791	0.984	0.283	-0.138
Mof_C 	C 	0.2119	0.9635	0.0584	0.523
Mof_C 	C 	0.338	0.7453	0.4852	-0.223
Mof_O 	O 	0.5749	0.9736	0.8126	-0.514
Mof_O 	O 	0.81	0.9437	0.8151	-0.541
Mof_O 	O 	0.8377	0.8148	0.4147	-0.135
Mof_O 	O 	0.4875	0.2874	0.7817	-0.488
Mof_O 	O 	0.6894	0.1864	0.8571	-0.593
Mof_O 	O 	0.8925	0.5586	0.437	-0.209
Mof_O 	O 	0.8747	0.811	0.0749	-0.441
Mof_O 	O 	0.6781	0.8995	0.9891	-0.728
Mof_O 	O 	0.2996	0.5258	0.2871	-0.12
Mof_O 	O 	0.7953	0.125	0.0376	-0.417
Mof_O 	O 	0.5639	0.1345	0.033	-0.439
Mof_O 	O 	0.636	0.3542	0.4078	-0.155
Mof_O 	O 	0.0387	0.1164	0.8345	-0.515
Mof_O 	O 	0.257	0.1429	0.8167	-0.524
Mof_O 	O 	0.2009	0.1646	0.377	-0.129
Mof_O 	O 	0.3229	0.9722	0.0143	-0.468
Mof_O 	O 	0.1111	0.946	0.0313	-0.433
Mof_O 	O 	0.3158	0.8762	0.4736	-0.147
_end
