data_functionalizedCrystal
_audit_creation_method	'EQeq! by Chris Wilmer'
_symmetry_space_group_name_H-M	'P1'
_symmetry_Int_Tables_number	1
_symmetry_cell_setting	triclinic
loop_
_symmetry_equiv_pos_as_xyz
  x,y,z
_cell_length_a	23.132
_cell_length_b	23.132
_cell_length_c	15.528
_cell_angle_alpha	90
_cell_angle_beta	90
_cell_angle_gamma	120
loop_
_atom_site_label
_atom_site_type_symbol
_atom_site_fract_x
_atom_site_fract_y
_atom_site_fract_z
_atom_site_charge
Mof_N 	N 	0.68062	0.6931	0.6031	-0.293
Mof_N 	N 	0.82872	0.75408	0.5384	-0.293
Mof_C 	C 	0.6198	0.6828	0.6272	0.112
Mof_C 	C 	0.8674	0.7942	0.6035	0.049
Mof_N 	N 	0.8424	0.8319	0.6509	0.13
Mof_O 	O 	0.7933	0.8265	0.6442	0.691
Mof_O 	O 	0.8848	0.8629	0.7137	-0.299
Mof_C 	C 	0.5798	0.6978	0.5513	-0.291
Mof_H 	H 	0.6114	0.7267	0.5081	-0.427
Mof_H 	H 	0.557	0.7194	0.576	0.29
Mof_H 	H 	0.5474	0.656	0.5247	0.14
Mof_N 	N 	0.5855	0.7083	0.588	-0.097
Mof_O 	O 	0.5322	0.6989	0.6167	-0.255
Mof_O 	O 	0.6069	0.7327	0.519	0.497
Mof_C 	C 	0.8456	0.8275	0.6642	-0.208
Mof_H 	H 	0.8015	0.819	0.6481	-0.712
Mof_H 	H 	0.8767	0.8752	0.663	0.195
Mof_H 	H 	0.8441	0.8105	0.7218	0.186
Mof_N 	N 	0.34729	0.02643	0.93643	-0.287
Mof_N 	N 	0.49539	0.08741	0.87173	-0.297
Mof_C 	C 	0.28647	0.01613	0.96053	0.07
Mof_C 	C 	0.53407	0.12753	0.93683	0.044
Mof_N 	N 	0.50907	0.16523	0.98423	0.134
Mof_O 	O 	0.45997	0.15983	0.97753	0.691
Mof_O 	O 	0.55147	0.19623	0.04703	-0.309
Mof_C 	C 	0.24647	0.03113	0.88463	-0.206
Mof_H 	H 	0.27807	0.06003	0.84143	-0.449
Mof_H 	H 	0.22367	0.05273	0.90933	0.285
Mof_H 	H 	0.21407	0.98933	0.85803	0.138
Mof_N 	N 	0.25217	0.04163	0.92133	-0.147
Mof_O 	O 	0.19887	0.03223	0.95003	-0.271
Mof_O 	O 	0.27357	0.06603	0.85233	0.489
Mof_C 	C 	0.51227	0.16083	0.99753	-0.209
Mof_H 	H 	0.46817	0.15233	0.98143	-0.716
Mof_H 	H 	0.54337	0.20853	0.99633	0.19
Mof_H 	H 	0.51077	0.14383	0.05513	0.185
Mof_N 	N 	0.01395	0.35977	0.26977	-0.31
Mof_N 	N 	0.16205	0.42075	0.20507	-0.295
Mof_C 	C 	0.95313	0.34947	0.29387	0.145
Mof_C 	C 	0.20073	0.46087	0.27017	0.044
Mof_N 	N 	0.17573	0.49857	0.31757	0.134
Mof_O 	O 	0.12663	0.49317	0.31087	0.693
Mof_O 	O 	0.21813	0.52957	0.38037	-0.308
Mof_C 	C 	0.91313	0.36447	0.21797	-0.284
Mof_H 	H 	0.94473	0.39337	0.17477	-0.421
Mof_H 	H 	0.89033	0.38607	0.24267	0.292
Mof_H 	H 	0.88073	0.32267	0.19137	0.14
Mof_N 	N 	0.91883	0.37497	0.25467	-0.107
Mof_O 	O 	0.86553	0.36557	0.28337	-0.254
Mof_O 	O 	0.94023	0.39937	0.18567	0.5
Mof_C 	C 	0.17893	0.49417	0.33087	-0.208
Mof_H 	H 	0.13483	0.48567	0.31477	-0.721
Mof_H 	H 	0.21003	0.54187	0.32967	0.188
Mof_H 	H 	0.17743	0.47717	0.38847	0.185
Mof_N 	N 	0.3069	0.98752	0.6031	-0.265
Mof_N 	N 	0.24592	0.07464	0.5384	-0.3
Mof_C 	C 	0.3172	0.937	0.6272	0.107
Mof_C 	C 	0.2058	0.0732	0.6035	0.041
Mof_N 	N 	0.1681	0.0105	0.6509	0.121
Mof_O 	O 	0.1735	0.9668	0.6442	0.718
Mof_O 	O 	0.1371	0.0219	0.7137	-0.317
Mof_C 	C 	0.3022	0.882	0.5513	-0.291
Mof_H 	H 	0.2733	0.8847	0.5081	-0.427
Mof_H 	H 	0.2806	0.8376	0.576	0.288
Mof_H 	H 	0.344	0.8914	0.5247	0.144
Mof_N 	N 	0.2917	0.8772	0.588	-0.097
Mof_O 	O 	0.3011	0.8333	0.6167	-0.254
Mof_O 	O 	0.2673	0.8742	0.519	0.5
Mof_C 	C 	0.1725	0.0181	0.6642	-0.22
Mof_H 	H 	0.181	0.9825	0.6481	-0.712
Mof_H 	H 	0.1248	0.0015	0.663	0.181
Mof_H 	H 	0.1895	0.0336	0.7218	0.184
Mof_N 	N 	0.97357	0.32085	0.93643	-0.277
Mof_N 	N 	0.91259	0.40797	0.87173	-0.29
Mof_C 	C 	0.98387	0.27033	0.96053	0.156
Mof_C 	C 	0.87247	0.40653	0.93683	0.048
Mof_N 	N 	0.83477	0.34383	0.98423	0.133
Mof_O 	O 	0.84017	0.30013	0.97753	0.693
Mof_O 	O 	0.80377	0.35523	0.04703	-0.309
Mof_C 	C 	0.96887	0.21533	0.88463	-0.375
Mof_H 	H 	0.93997	0.21803	0.84143	-0.408
Mof_H 	H 	0.94727	0.17093	0.90933	0.294
Mof_H 	H 	0.01067	0.22473	0.85803	0.14
Mof_N 	N 	0.95837	0.21053	0.92133	-0.05
Mof_O 	O 	0.96777	0.16663	0.95003	-0.243
Mof_O 	O 	0.93397	0.20753	0.85233	0.505
Mof_C 	C 	0.83917	0.35143	0.99753	-0.21
Mof_H 	H 	0.84767	0.31583	0.98143	-0.715
Mof_H 	H 	0.79147	0.33483	0.99633	0.19
Mof_H 	H 	0.85617	0.36693	0.05513	0.19
Mof_N 	N 	0.64023	0.65419	0.26977	-0.294
Mof_N 	N 	0.57925	0.74131	0.20507	-0.295
Mof_C 	C 	0.65053	0.60367	0.29387	0.111
Mof_C 	C 	0.53913	0.73987	0.27017	0.044
Mof_N 	N 	0.50143	0.67717	0.31757	0.133
Mof_O 	O 	0.50683	0.63347	0.31087	0.691
Mof_O 	O 	0.47043	0.68857	0.38037	-0.308
Mof_C 	C 	0.63553	0.54867	0.21797	-0.292
Mof_H 	H 	0.60663	0.55137	0.17477	-0.428
Mof_H 	H 	0.61393	0.50427	0.24267	0.29
Mof_H 	H 	0.67733	0.55807	0.19137	0.14
Mof_N 	N 	0.62503	0.54387	0.25467	-0.097
Mof_O 	O 	0.63443	0.49997	0.28337	-0.255
Mof_O 	O 	0.60063	0.54087	0.18567	0.498
Mof_C 	C 	0.50583	0.68477	0.33087	-0.209
Mof_H 	H 	0.51433	0.64917	0.31477	-0.716
Mof_H 	H 	0.45813	0.66817	0.32967	0.189
Mof_H 	H 	0.52283	0.70027	0.38847	0.187
Mof_N 	N 	0.01248	0.31938	0.6031	-0.32
Mof_N 	N 	0.92536	0.17128	0.5384	-0.287
Mof_C 	C 	0.063	0.3802	0.6272	0.114
Mof_C 	C 	0.9268	0.1326	0.6035	0.045
Mof_N 	N 	0.9895	0.1576	0.6509	0.147
Mof_O 	O 	0.0332	0.2067	0.6442	0.666
Mof_O 	O 	0.9781	0.1152	0.7137	-0.306
Mof_C 	C 	0.118	0.4202	0.5513	-0.294
Mof_H 	H 	0.1153	0.3886	0.5081	-0.428
Mof_H 	H 	0.1624	0.443	0.576	0.291
Mof_H 	H 	0.1086	0.4526	0.5247	0.136
Mof_N 	N 	0.1228	0.4145	0.588	-0.098
Mof_O 	O 	0.1667	0.4678	0.6167	-0.256
Mof_O 	O 	0.1258	0.3931	0.519	0.496
Mof_C 	C 	0.9819	0.1544	0.6642	-0.198
Mof_H 	H 	0.0175	0.1985	0.6481	-0.722
Mof_H 	H 	0.9985	0.1233	0.663	0.192
Mof_H 	H 	0.9664	0.1559	0.7218	0.19
Mof_N 	N 	0.67915	0.65271	0.93643	-0.294
Mof_N 	N 	0.59203	0.50461	0.87173	-0.295
Mof_C 	C 	0.72967	0.71353	0.96053	0.113
Mof_C 	C 	0.59347	0.46593	0.93683	0.045
Mof_N 	N 	0.65617	0.49093	0.98423	0.134
Mof_O 	O 	0.69987	0.54003	0.97753	0.691
Mof_O 	O 	0.64477	0.44853	0.04703	-0.309
Mof_C 	C 	0.78467	0.75353	0.88463	-0.292
Mof_H 	H 	0.78197	0.72193	0.84143	-0.427
Mof_H 	H 	0.82907	0.77633	0.90933	0.289
Mof_H 	H 	0.77527	0.78593	0.85803	0.142
Mof_N 	N 	0.78947	0.74783	0.92133	-0.098
Mof_O 	O 	0.83337	0.80113	0.95003	-0.248
Mof_O 	O 	0.79247	0.72643	0.85233	0.497
Mof_C 	C 	0.64857	0.48773	0.99753	-0.21
Mof_H 	H 	0.68417	0.53183	0.98143	-0.716
Mof_H 	H 	0.66517	0.45663	0.99633	0.19
Mof_H 	H 	0.63307	0.48923	0.05513	0.186
Mof_N 	N 	0.34581	0.98605	0.26977	-0.279
Mof_N 	N 	0.25869	0.83795	0.20507	-0.295
Mof_C 	C 	0.39633	0.04687	0.29387	0.078
Mof_C 	C 	0.26013	0.79927	0.27017	0.045
Mof_N 	N 	0.32283	0.82427	0.31757	0.131
Mof_O 	O 	0.36653	0.87337	0.31087	0.689
Mof_O 	O 	0.31143	0.78187	0.38037	-0.307
Mof_C 	C 	0.45133	0.08687	0.21797	-0.299
Mof_H 	H 	0.44863	0.05527	0.17477	-0.434
Mof_H 	H 	0.49573	0.10967	0.24267	0.287
Mof_H 	H 	0.44193	0.11927	0.19137	0.14
Mof_N 	N 	0.45613	0.08117	0.25467	-0.089
Mof_O 	O 	0.50003	0.13447	0.28337	-0.256
Mof_O 	O 	0.45913	0.05977	0.18567	0.496
Mof_C 	C 	0.31523	0.82107	0.33087	-0.209
Mof_H 	H 	0.35083	0.86517	0.31477	-0.711
Mof_H 	H 	0.33183	0.78997	0.32967	0.19
Mof_H 	H 	0.29973	0.82257	0.38847	0.188
Mof_N 	N 	0.6931	0.68062	0.3969	-0.294
Mof_N 	N 	0.75408	0.82872	0.4616	-0.294
Mof_C 	C 	0.6828	0.6198	0.3728	0.111
Mof_C 	C 	0.7942	0.8674	0.3965	0.048
Mof_N 	N 	0.8319	0.8424	0.3491	0.129
Mof_O 	O 	0.8265	0.7933	0.3558	0.69
Mof_O 	O 	0.8629	0.8848	0.2863	-0.3
Mof_C 	C 	0.6978	0.5798	0.4487	-0.292
Mof_H 	H 	0.7267	0.6114	0.4919	-0.428
Mof_H 	H 	0.7194	0.557	0.424	0.29
Mof_H 	H 	0.656	0.5474	0.4753	0.14
Mof_N 	N 	0.7083	0.5855	0.412	-0.097
Mof_O 	O 	0.6989	0.5322	0.3833	-0.255
Mof_O 	O 	0.7327	0.6069	0.481	0.497
Mof_C 	C 	0.8275	0.8456	0.3358	-0.208
Mof_H 	H 	0.819	0.8015	0.3519	-0.712
Mof_H 	H 	0.8752	0.8767	0.337	0.195
Mof_H 	H 	0.8105	0.8441	0.2782	0.186
Mof_N 	N 	0.35977	0.01395	0.73023	-0.31
Mof_N 	N 	0.42075	0.16205	0.79493	-0.295
Mof_C 	C 	0.34947	0.95313	0.70613	0.145
Mof_C 	C 	0.46087	0.20073	0.72983	0.044
Mof_N 	N 	0.49857	0.17573	0.68243	0.134
Mof_O 	O 	0.49317	0.12663	0.68913	0.693
Mof_O 	O 	0.52957	0.21813	0.61963	-0.308
Mof_C 	C 	0.36447	0.91313	0.78203	-0.284
Mof_H 	H 	0.39337	0.94473	0.82523	-0.421
Mof_H 	H 	0.38607	0.89033	0.75733	0.292
Mof_H 	H 	0.32267	0.88073	0.80863	0.14
Mof_N 	N 	0.37497	0.91883	0.74533	-0.107
Mof_O 	O 	0.36557	0.86553	0.71663	-0.254
Mof_O 	O 	0.39937	0.94023	0.81433	0.5
Mof_C 	C 	0.49417	0.17893	0.66913	-0.208
Mof_H 	H 	0.48567	0.13483	0.68523	-0.721
Mof_H 	H 	0.54187	0.21003	0.67033	0.188
Mof_H 	H 	0.47717	0.17743	0.61153	0.185
Mof_N 	N 	0.02643	0.34729	0.06357	-0.287
Mof_N 	N 	0.08741	0.49539	0.12827	-0.297
Mof_C 	C 	0.01613	0.28647	0.03947	0.067
Mof_C 	C 	0.12753	0.53407	0.06317	0.043
Mof_N 	N 	0.16523	0.50907	0.01577	0.131
Mof_O 	O 	0.15983	0.45997	0.02247	0.691
Mof_O 	O 	0.19623	0.55147	0.95297	-0.305
Mof_C 	C 	0.03113	0.24647	0.11537	-0.207
Mof_H 	H 	0.06003	0.27807	0.15857	-0.449
Mof_H 	H 	0.05273	0.22367	0.09067	0.286
Mof_H 	H 	0.98933	0.21407	0.14197	0.138
Mof_N 	N 	0.04163	0.25217	0.07867	-0.146
Mof_O 	O 	0.03223	0.19887	0.04997	-0.272
Mof_O 	O 	0.06603	0.27357	0.14767	0.49
Mof_C 	C 	0.16083	0.51227	0.00247	-0.207
Mof_H 	H 	0.15233	0.46817	0.01857	-0.717
Mof_H 	H 	0.20853	0.54337	0.00367	0.187
Mof_H 	H 	0.14383	0.51077	0.94487	0.185
Mof_N 	N 	0.98752	0.3069	0.3969	-0.265
Mof_N 	N 	0.07464	0.24592	0.4616	-0.3
Mof_C 	C 	0.937	0.3172	0.3728	0.107
Mof_C 	C 	0.0732	0.2058	0.3965	0.041
Mof_N 	N 	0.0105	0.1681	0.3491	0.121
Mof_O 	O 	0.9668	0.1735	0.3558	0.718
Mof_O 	O 	0.0219	0.1371	0.2863	-0.318
Mof_C 	C 	0.882	0.3022	0.4487	-0.291
Mof_H 	H 	0.8847	0.2733	0.4919	-0.427
Mof_H 	H 	0.8376	0.2806	0.424	0.288
Mof_H 	H 	0.8914	0.344	0.4753	0.144
Mof_N 	N 	0.8772	0.2917	0.412	-0.097
Mof_O 	O 	0.8333	0.3011	0.3833	-0.254
Mof_O 	O 	0.8742	0.2673	0.481	0.5
Mof_C 	C 	0.0181	0.1725	0.3358	-0.22
Mof_H 	H 	0.9825	0.181	0.3519	-0.713
Mof_H 	H 	0.0015	0.1248	0.337	0.181
Mof_H 	H 	0.0336	0.1895	0.2782	0.184
Mof_N 	N 	0.65419	0.64023	0.73023	-0.294
Mof_N 	N 	0.74131	0.57925	0.79493	-0.295
Mof_C 	C 	0.60367	0.65053	0.70613	0.111
Mof_C 	C 	0.73987	0.53913	0.72983	0.044
Mof_N 	N 	0.67717	0.50143	0.68243	0.133
Mof_O 	O 	0.63347	0.50683	0.68913	0.691
Mof_O 	O 	0.68857	0.47043	0.61963	-0.308
Mof_C 	C 	0.54867	0.63553	0.78203	-0.292
Mof_H 	H 	0.55137	0.60663	0.82523	-0.428
Mof_H 	H 	0.50427	0.61393	0.75733	0.29
Mof_H 	H 	0.55807	0.67733	0.80863	0.14
Mof_N 	N 	0.54387	0.62503	0.74533	-0.098
Mof_O 	O 	0.49997	0.63443	0.71663	-0.255
Mof_O 	O 	0.54087	0.60063	0.81433	0.498
Mof_C 	C 	0.68477	0.50583	0.66913	-0.209
Mof_H 	H 	0.64917	0.51433	0.68523	-0.716
Mof_H 	H 	0.66817	0.45813	0.67033	0.189
Mof_H 	H 	0.70027	0.52283	0.61153	0.187
Mof_N 	N 	0.32085	0.97357	0.06357	-0.277
Mof_N 	N 	0.40797	0.91259	0.12827	-0.29
Mof_C 	C 	0.27033	0.98387	0.03947	0.153
Mof_C 	C 	0.40653	0.87247	0.06317	0.047
Mof_N 	N 	0.34383	0.83477	0.01577	0.131
Mof_O 	O 	0.30013	0.84017	0.02247	0.693
Mof_O 	O 	0.35523	0.80377	0.95297	-0.306
Mof_C 	C 	0.21533	0.96887	0.11537	-0.377
Mof_H 	H 	0.21803	0.93997	0.15857	-0.408
Mof_H 	H 	0.17093	0.94727	0.09067	0.295
Mof_H 	H 	0.22473	0.01067	0.14197	0.14
Mof_N 	N 	0.21053	0.95837	0.07867	-0.049
Mof_O 	O 	0.16663	0.96777	0.04997	-0.245
Mof_O 	O 	0.20753	0.93397	0.14767	0.506
Mof_C 	C 	0.35143	0.83917	0.00247	-0.207
Mof_H 	H 	0.31583	0.84767	0.01857	-0.716
Mof_H 	H 	0.33483	0.79147	0.00367	0.187
Mof_H 	H 	0.36693	0.85617	0.94487	0.19
Mof_N 	N 	0.31938	0.01248	0.3969	-0.32
Mof_N 	N 	0.17128	0.92536	0.4616	-0.287
Mof_C 	C 	0.3802	0.063	0.3728	0.114
Mof_C 	C 	0.1326	0.9268	0.3965	0.045
Mof_N 	N 	0.1576	0.9895	0.3491	0.147
Mof_O 	O 	0.2067	0.0332	0.3558	0.665
Mof_O 	O 	0.1152	0.9781	0.2863	-0.306
Mof_C 	C 	0.4202	0.118	0.4487	-0.294
Mof_H 	H 	0.3886	0.1153	0.4919	-0.428
Mof_H 	H 	0.443	0.1624	0.424	0.291
Mof_H 	H 	0.4526	0.1086	0.4753	0.136
Mof_N 	N 	0.4145	0.1228	0.412	-0.098
Mof_O 	O 	0.4678	0.1667	0.3833	-0.256
Mof_O 	O 	0.3931	0.1258	0.481	0.496
Mof_C 	C 	0.1544	0.9819	0.3358	-0.198
Mof_H 	H 	0.1985	0.0175	0.3519	-0.722
Mof_H 	H 	0.1233	0.9985	0.337	0.192
Mof_H 	H 	0.1559	0.9664	0.2782	0.19
Mof_N 	N 	0.98605	0.34581	0.73023	-0.279
Mof_N 	N 	0.83795	0.25869	0.79493	-0.295
Mof_C 	C 	0.04687	0.39633	0.70613	0.078
Mof_C 	C 	0.79927	0.26013	0.72983	0.045
Mof_N 	N 	0.82427	0.32283	0.68243	0.131
Mof_O 	O 	0.87337	0.36653	0.68913	0.689
Mof_O 	O 	0.78187	0.31143	0.61963	-0.307
Mof_C 	C 	0.08687	0.45133	0.78203	-0.299
Mof_H 	H 	0.05527	0.44863	0.82523	-0.434
Mof_H 	H 	0.10967	0.49573	0.75733	0.287
Mof_H 	H 	0.11927	0.44193	0.80863	0.141
Mof_N 	N 	0.08117	0.45613	0.74533	-0.09
Mof_O 	O 	0.13447	0.50003	0.71663	-0.256
Mof_O 	O 	0.05977	0.45913	0.81433	0.497
Mof_C 	C 	0.82107	0.31523	0.66913	-0.209
Mof_H 	H 	0.86517	0.35083	0.68523	-0.711
Mof_H 	H 	0.78997	0.33183	0.67033	0.19
Mof_H 	H 	0.82257	0.29973	0.61153	0.188
Mof_N 	N 	0.65271	0.67915	0.06357	-0.294
Mof_N 	N 	0.50461	0.59203	0.12827	-0.295
Mof_C 	C 	0.71353	0.72967	0.03947	0.109
Mof_C 	C 	0.46593	0.59347	0.06317	0.044
Mof_N 	N 	0.49093	0.65617	0.01577	0.131
Mof_O 	O 	0.54003	0.69987	0.02247	0.691
Mof_O 	O 	0.44853	0.64477	0.95297	-0.305
Mof_C 	C 	0.75353	0.78467	0.11537	-0.293
Mof_H 	H 	0.72193	0.78197	0.15857	-0.427
Mof_H 	H 	0.77633	0.82907	0.09067	0.289
Mof_H 	H 	0.78593	0.77527	0.14197	0.142
Mof_N 	N 	0.74783	0.78947	0.07867	-0.098
Mof_O 	O 	0.80113	0.83337	0.04997	-0.25
Mof_O 	O 	0.72643	0.79247	0.14767	0.497
Mof_C 	C 	0.48773	0.64857	0.00247	-0.207
Mof_H 	H 	0.53183	0.68417	0.01857	-0.716
Mof_H 	H 	0.45663	0.66517	0.00367	0.187
Mof_H 	H 	0.48923	0.63307	0.94487	0.187
Mof_N 	N 	0.31938	0.3069	0.3969	-0.294
Mof_N 	N 	0.17128	0.24592	0.4616	-0.295
Mof_C 	C 	0.3802	0.3172	0.3728	0.111
Mof_C 	C 	0.1326	0.2058	0.3965	0.041
Mof_N 	N 	0.1576	0.1681	0.3491	0.136
Mof_O 	O 	0.2067	0.1735	0.3558	0.692
Mof_O 	O 	0.1152	0.1371	0.2863	-0.316
Mof_C 	C 	0.4202	0.3022	0.4487	-0.293
Mof_H 	H 	0.3886	0.2733	0.4919	-0.428
Mof_H 	H 	0.443	0.2806	0.424	0.29
Mof_H 	H 	0.4526	0.344	0.4753	0.14
Mof_N 	N 	0.4145	0.2917	0.412	-0.097
Mof_O 	O 	0.4678	0.3011	0.3833	-0.255
Mof_O 	O 	0.3931	0.2673	0.481	0.498
Mof_C 	C 	0.1544	0.1725	0.3358	-0.21
Mof_H 	H 	0.1985	0.181	0.3519	-0.72
Mof_H 	H 	0.1233	0.1248	0.337	0.183
Mof_H 	H 	0.1559	0.1895	0.2782	0.187
Mof_N 	N 	0.98605	0.64023	0.73023	-0.279
Mof_N 	N 	0.83795	0.57925	0.79493	-0.295
Mof_C 	C 	0.04687	0.65053	0.70613	0.079
Mof_C 	C 	0.79927	0.53913	0.72983	0.045
Mof_N 	N 	0.82427	0.50143	0.68243	0.131
Mof_O 	O 	0.87337	0.50683	0.68913	0.689
Mof_O 	O 	0.78187	0.47043	0.61963	-0.307
Mof_C 	C 	0.08687	0.63553	0.78203	-0.299
Mof_H 	H 	0.05527	0.60663	0.82523	-0.434
Mof_H 	H 	0.10967	0.61393	0.75733	0.287
Mof_H 	H 	0.11927	0.67733	0.80863	0.141
Mof_N 	N 	0.08117	0.62503	0.74533	-0.09
Mof_O 	O 	0.13447	0.63443	0.71663	-0.255
Mof_O 	O 	0.05977	0.60063	0.81433	0.497
Mof_C 	C 	0.82107	0.50583	0.66913	-0.209
Mof_H 	H 	0.86517	0.51433	0.68523	-0.711
Mof_H 	H 	0.78997	0.45813	0.67033	0.19
Mof_H 	H 	0.82257	0.52283	0.61153	0.188
Mof_N 	N 	0.65271	0.97357	0.06357	-0.277
Mof_N 	N 	0.50461	0.91259	0.12827	-0.29
Mof_C 	C 	0.71353	0.98387	0.03947	0.153
Mof_C 	C 	0.46593	0.87247	0.06317	0.047
Mof_N 	N 	0.49093	0.83477	0.01577	0.131
Mof_O 	O 	0.54003	0.84017	0.02247	0.693
Mof_O 	O 	0.44853	0.80377	0.95297	-0.306
Mof_C 	C 	0.75353	0.96887	0.11537	-0.376
Mof_H 	H 	0.72193	0.93997	0.15857	-0.408
Mof_H 	H 	0.77633	0.94727	0.09067	0.294
Mof_H 	H 	0.78593	0.01067	0.14197	0.142
Mof_N 	N 	0.74783	0.95837	0.07867	-0.049
Mof_O 	O 	0.80113	0.96777	0.04997	-0.239
Mof_O 	O 	0.72643	0.93397	0.14767	0.505
Mof_C 	C 	0.48773	0.83917	0.00247	-0.207
Mof_H 	H 	0.53183	0.84767	0.01857	-0.715
Mof_H 	H 	0.45663	0.79147	0.00367	0.187
Mof_H 	H 	0.48923	0.85617	0.94487	0.19
Mof_N 	N 	0.6931	0.01248	0.3969	-0.32
Mof_N 	N 	0.75408	0.92536	0.4616	-0.286
Mof_C 	C 	0.6828	0.063	0.3728	0.115
Mof_C 	C 	0.7942	0.9268	0.3965	0.049
Mof_N 	N 	0.8319	0.9895	0.3491	0.144
Mof_O 	O 	0.8265	0.0332	0.3558	0.664
Mof_O 	O 	0.8629	0.9781	0.2863	-0.298
Mof_C 	C 	0.6978	0.118	0.4487	-0.293
Mof_H 	H 	0.7267	0.1153	0.4919	-0.428
Mof_H 	H 	0.7194	0.1624	0.424	0.291
Mof_H 	H 	0.656	0.1086	0.4753	0.136
Mof_N 	N 	0.7083	0.1228	0.412	-0.098
Mof_O 	O 	0.6989	0.1667	0.3833	-0.256
Mof_O 	O 	0.7327	0.1258	0.481	0.496
Mof_C 	C 	0.8275	0.9819	0.3358	-0.197
Mof_H 	H 	0.819	0.0175	0.3519	-0.718
Mof_H 	H 	0.8752	0.9985	0.337	0.198
Mof_H 	H 	0.8105	0.9664	0.2782	0.189
Mof_N 	N 	0.35977	0.34581	0.73023	-0.294
Mof_N 	N 	0.42075	0.25869	0.79493	-0.295
Mof_C 	C 	0.34947	0.39633	0.70613	0.111
Mof_C 	C 	0.46087	0.26013	0.72983	0.045
Mof_N 	N 	0.49857	0.32283	0.68243	0.133
Mof_O 	O 	0.49317	0.36653	0.68913	0.691
Mof_O 	O 	0.52957	0.31143	0.61963	-0.308
Mof_C 	C 	0.36447	0.45133	0.78203	-0.292
Mof_H 	H 	0.39337	0.44863	0.82523	-0.428
Mof_H 	H 	0.38607	0.49573	0.75733	0.29
Mof_H 	H 	0.32267	0.44193	0.80863	0.14
Mof_N 	N 	0.37497	0.45613	0.74533	-0.097
Mof_O 	O 	0.36557	0.50003	0.71663	-0.255
Mof_O 	O 	0.39937	0.45913	0.81433	0.498
Mof_C 	C 	0.49417	0.31523	0.66913	-0.209
Mof_H 	H 	0.48567	0.35083	0.68523	-0.716
Mof_H 	H 	0.54187	0.33183	0.67033	0.189
Mof_H 	H 	0.47717	0.29973	0.61153	0.186
Mof_N 	N 	0.02643	0.67915	0.06357	-0.287
Mof_N 	N 	0.08741	0.59203	0.12827	-0.297
Mof_C 	C 	0.01613	0.72967	0.03947	0.066
Mof_C 	C 	0.12753	0.59347	0.06317	0.043
Mof_N 	N 	0.16523	0.65617	0.01577	0.131
Mof_O 	O 	0.15983	0.69987	0.02247	0.691
Mof_O 	O 	0.19623	0.64477	0.95297	-0.305
Mof_C 	C 	0.03113	0.78467	0.11537	-0.208
Mof_H 	H 	0.06003	0.78197	0.15857	-0.448
Mof_H 	H 	0.05273	0.82907	0.09067	0.285
Mof_H 	H 	0.98933	0.77527	0.14197	0.14
Mof_N 	N 	0.04163	0.78947	0.07867	-0.146
Mof_O 	O 	0.03223	0.83337	0.04997	-0.267
Mof_O 	O 	0.06603	0.79247	0.14767	0.489
Mof_C 	C 	0.16083	0.64857	0.00247	-0.207
Mof_H 	H 	0.15233	0.68417	0.01857	-0.717
Mof_H 	H 	0.20853	0.66517	0.00367	0.187
Mof_H 	H 	0.14383	0.63307	0.94487	0.186
Mof_N 	N 	0.98752	0.68062	0.3969	-0.265
Mof_N 	N 	0.07464	0.82872	0.4616	-0.3
Mof_C 	C 	0.937	0.6198	0.3728	0.108
Mof_C 	C 	0.0732	0.8674	0.3965	0.044
Mof_N 	N 	0.0105	0.8424	0.3491	0.118
Mof_O 	O 	0.9668	0.7933	0.3558	0.717
Mof_O 	O 	0.0219	0.8848	0.2863	-0.31
Mof_C 	C 	0.882	0.5798	0.4487	-0.291
Mof_H 	H 	0.8847	0.6114	0.4919	-0.427
Mof_H 	H 	0.8376	0.557	0.424	0.288
Mof_H 	H 	0.8914	0.5474	0.4753	0.144
Mof_N 	N 	0.8772	0.5855	0.412	-0.097
Mof_O 	O 	0.8333	0.5322	0.3833	-0.253
Mof_O 	O 	0.8742	0.6069	0.481	0.5
Mof_C 	C 	0.0181	0.8456	0.3358	-0.219
Mof_H 	H 	0.9825	0.8015	0.3519	-0.709
Mof_H 	H 	0.0015	0.8767	0.337	0.187
Mof_H 	H 	0.0336	0.8441	0.2782	0.183
Mof_N 	N 	0.65419	0.01395	0.73023	-0.31
Mof_N 	N 	0.74131	0.16205	0.79493	-0.294
Mof_C 	C 	0.60367	0.95313	0.70613	0.145
Mof_C 	C 	0.73987	0.20073	0.72983	0.044
Mof_N 	N 	0.67717	0.17573	0.68243	0.134
Mof_O 	O 	0.63347	0.12663	0.68913	0.693
Mof_O 	O 	0.68857	0.21813	0.61963	-0.308
Mof_C 	C 	0.54867	0.91313	0.78203	-0.284
Mof_H 	H 	0.55137	0.94473	0.82523	-0.421
Mof_H 	H 	0.50427	0.89033	0.75733	0.292
Mof_H 	H 	0.55807	0.88073	0.80863	0.14
Mof_N 	N 	0.54387	0.91883	0.74533	-0.107
Mof_O 	O 	0.49997	0.86553	0.71663	-0.254
Mof_O 	O 	0.54087	0.94023	0.81433	0.5
Mof_C 	C 	0.68477	0.17893	0.66913	-0.208
Mof_H 	H 	0.64917	0.13483	0.68523	-0.721
Mof_H 	H 	0.66817	0.21003	0.67033	0.188
Mof_H 	H 	0.70027	0.17743	0.61153	0.186
Mof_N 	N 	0.32085	0.34729	0.06357	-0.294
Mof_N 	N 	0.40797	0.49539	0.12827	-0.295
Mof_C 	C 	0.27033	0.28647	0.03947	0.109
Mof_C 	C 	0.40653	0.53407	0.06317	0.044
Mof_N 	N 	0.34383	0.50907	0.01577	0.131
Mof_O 	O 	0.30013	0.45997	0.02247	0.692
Mof_O 	O 	0.35523	0.55147	0.95297	-0.306
Mof_C 	C 	0.21533	0.24647	0.11537	-0.293
Mof_H 	H 	0.21803	0.27807	0.15857	-0.429
Mof_H 	H 	0.17093	0.22367	0.09067	0.29
Mof_H 	H 	0.22473	0.21407	0.14197	0.138
Mof_N 	N 	0.21053	0.25217	0.07867	-0.097
Mof_O 	O 	0.16663	0.19887	0.04997	-0.262
Mof_O 	O 	0.20753	0.27357	0.14767	0.498
Mof_C 	C 	0.35143	0.51227	0.00247	-0.207
Mof_H 	H 	0.31583	0.46817	0.01857	-0.717
Mof_H 	H 	0.33483	0.54337	0.00367	0.187
Mof_H 	H 	0.36693	0.51077	0.94487	0.187
Mof_N 	N 	0.3069	0.31938	0.6031	-0.294
Mof_N 	N 	0.24592	0.17128	0.5384	-0.295
Mof_C 	C 	0.3172	0.3802	0.6272	0.111
Mof_C 	C 	0.2058	0.1326	0.6035	0.041
Mof_N 	N 	0.1681	0.1576	0.6509	0.136
Mof_O 	O 	0.1735	0.2067	0.6442	0.692
Mof_O 	O 	0.1371	0.1152	0.7137	-0.315
Mof_C 	C 	0.3022	0.4202	0.5513	-0.293
Mof_H 	H 	0.2733	0.3886	0.5081	-0.428
Mof_H 	H 	0.2806	0.443	0.576	0.29
Mof_H 	H 	0.344	0.4526	0.5247	0.14
Mof_N 	N 	0.2917	0.4145	0.588	-0.097
Mof_O 	O 	0.3011	0.4678	0.6167	-0.255
Mof_O 	O 	0.2673	0.3931	0.519	0.498
Mof_C 	C 	0.1725	0.1544	0.6642	-0.21
Mof_H 	H 	0.181	0.1985	0.6481	-0.72
Mof_H 	H 	0.1248	0.1233	0.663	0.183
Mof_H 	H 	0.1895	0.1559	0.7218	0.187
Mof_N 	N 	0.97357	0.65271	0.93643	-0.277
Mof_N 	N 	0.91259	0.50461	0.87173	-0.29
Mof_C 	C 	0.98387	0.71353	0.96053	0.157
Mof_C 	C 	0.87247	0.46593	0.93683	0.048
Mof_N 	N 	0.83477	0.49093	0.98423	0.133
Mof_O 	O 	0.84017	0.54003	0.97753	0.692
Mof_O 	O 	0.80377	0.44853	0.04703	-0.309
Mof_C 	C 	0.96887	0.75353	0.88463	-0.375
Mof_H 	H 	0.93997	0.72193	0.84143	-0.408
Mof_H 	H 	0.94727	0.77633	0.90933	0.294
Mof_H 	H 	0.01067	0.78593	0.85803	0.142
Mof_N 	N 	0.95837	0.74783	0.92133	-0.05
Mof_O 	O 	0.96777	0.80113	0.95003	-0.237
Mof_O 	O 	0.93397	0.72643	0.85233	0.505
Mof_C 	C 	0.83917	0.48773	0.99753	-0.21
Mof_H 	H 	0.84767	0.53183	0.98143	-0.715
Mof_H 	H 	0.79147	0.45663	0.99633	0.19
Mof_H 	H 	0.85617	0.48923	0.05513	0.19
Mof_N 	N 	0.64023	0.98605	0.26977	-0.279
Mof_N 	N 	0.57925	0.83795	0.20507	-0.295
Mof_C 	C 	0.65053	0.04687	0.29387	0.078
Mof_C 	C 	0.53913	0.79927	0.27017	0.045
Mof_N 	N 	0.50143	0.82427	0.31757	0.131
Mof_O 	O 	0.50683	0.87337	0.31087	0.689
Mof_O 	O 	0.47043	0.78187	0.38037	-0.307
Mof_C 	C 	0.63553	0.08687	0.21797	-0.299
Mof_H 	H 	0.60663	0.05527	0.17477	-0.434
Mof_H 	H 	0.61393	0.10967	0.24267	0.287
Mof_H 	H 	0.67733	0.11927	0.19137	0.141
Mof_N 	N 	0.62503	0.08117	0.25467	-0.089
Mof_O 	O 	0.63443	0.13447	0.28337	-0.256
Mof_O 	O 	0.60063	0.05977	0.18567	0.496
Mof_C 	C 	0.50583	0.82107	0.33087	-0.209
Mof_H 	H 	0.51433	0.86517	0.31477	-0.711
Mof_H 	H 	0.45813	0.78997	0.32967	0.19
Mof_H 	H 	0.52283	0.82257	0.38847	0.188
Mof_N 	N 	0.01248	0.6931	0.6031	-0.32
Mof_N 	N 	0.92536	0.75408	0.5384	-0.286
Mof_C 	C 	0.063	0.6828	0.6272	0.114
Mof_C 	C 	0.9268	0.7942	0.6035	0.049
Mof_N 	N 	0.9895	0.8319	0.6509	0.143
Mof_O 	O 	0.0332	0.8265	0.6442	0.665
Mof_O 	O 	0.9781	0.8629	0.7137	-0.298
Mof_C 	C 	0.118	0.6978	0.5513	-0.293
Mof_H 	H 	0.1153	0.7267	0.5081	-0.428
Mof_H 	H 	0.1624	0.7194	0.576	0.291
Mof_H 	H 	0.1086	0.656	0.5247	0.136
Mof_N 	N 	0.1228	0.7083	0.588	-0.098
Mof_O 	O 	0.1667	0.6989	0.6167	-0.256
Mof_O 	O 	0.1258	0.7327	0.519	0.496
Mof_C 	C 	0.9819	0.8275	0.6642	-0.197
Mof_H 	H 	0.0175	0.819	0.6481	-0.718
Mof_H 	H 	0.9985	0.8752	0.663	0.198
Mof_H 	H 	0.9664	0.8105	0.7218	0.189
Mof_N 	N 	0.67915	0.02643	0.93643	-0.287
Mof_N 	N 	0.59203	0.08741	0.87173	-0.297
Mof_C 	C 	0.72967	0.01613	0.96053	0.07
Mof_C 	C 	0.59347	0.12753	0.93683	0.043
Mof_N 	N 	0.65617	0.16523	0.98423	0.133
Mof_O 	O 	0.69987	0.15983	0.97753	0.691
Mof_O 	O 	0.64477	0.19623	0.04703	-0.309
Mof_C 	C 	0.78467	0.03113	0.88463	-0.207
Mof_H 	H 	0.78197	0.06003	0.84143	-0.448
Mof_H 	H 	0.82907	0.05273	0.90933	0.285
Mof_H 	H 	0.77527	0.98933	0.85803	0.14
Mof_N 	N 	0.78947	0.04163	0.92133	-0.147
Mof_O 	O 	0.83337	0.03223	0.95003	-0.265
Mof_O 	O 	0.79247	0.06603	0.85233	0.489
Mof_C 	C 	0.64857	0.16083	0.99753	-0.209
Mof_H 	H 	0.68417	0.15233	0.98143	-0.716
Mof_H 	H 	0.66517	0.20853	0.99633	0.19
Mof_H 	H 	0.63307	0.14383	0.05513	0.185
Mof_N 	N 	0.34581	0.35977	0.26977	-0.294
Mof_N 	N 	0.25869	0.42075	0.20507	-0.295
Mof_C 	C 	0.39633	0.34947	0.29387	0.111
Mof_C 	C 	0.26013	0.46087	0.27017	0.045
Mof_N 	N 	0.32283	0.49857	0.31757	0.133
Mof_O 	O 	0.36653	0.49317	0.31087	0.691
Mof_O 	O 	0.31143	0.52957	0.38037	-0.308
Mof_C 	C 	0.45133	0.36447	0.21797	-0.293
Mof_H 	H 	0.44863	0.39337	0.17477	-0.428
Mof_H 	H 	0.49573	0.38607	0.24267	0.29
Mof_H 	H 	0.44193	0.32267	0.19137	0.14
Mof_N 	N 	0.45613	0.37497	0.25467	-0.097
Mof_O 	O 	0.50003	0.36557	0.28337	-0.255
Mof_O 	O 	0.45913	0.39937	0.18567	0.497
Mof_C 	C 	0.31523	0.49417	0.33087	-0.209
Mof_H 	H 	0.35083	0.48567	0.31477	-0.716
Mof_H 	H 	0.33183	0.54187	0.32967	0.189
Mof_H 	H 	0.29973	0.47717	0.38847	0.186
Mof_N 	N 	0.68062	0.98752	0.6031	-0.265
Mof_N 	N 	0.82872	0.07464	0.5384	-0.3
Mof_C 	C 	0.6198	0.937	0.6272	0.108
Mof_C 	C 	0.8674	0.0732	0.6035	0.044
Mof_N 	N 	0.8424	0.0105	0.6509	0.118
Mof_O 	O 	0.7933	0.9668	0.6442	0.717
Mof_O 	O 	0.8848	0.0219	0.7137	-0.31
Mof_C 	C 	0.5798	0.882	0.5513	-0.291
Mof_H 	H 	0.6114	0.8847	0.5081	-0.427
Mof_H 	H 	0.557	0.8376	0.576	0.288
Mof_H 	H 	0.5474	0.8914	0.5247	0.144
Mof_N 	N 	0.5855	0.8772	0.588	-0.097
Mof_O 	O 	0.5322	0.8333	0.6167	-0.253
Mof_O 	O 	0.6069	0.8742	0.519	0.5
Mof_C 	C 	0.8456	0.0181	0.6642	-0.219
Mof_H 	H 	0.8015	0.9825	0.6481	-0.708
Mof_H 	H 	0.8767	0.0015	0.663	0.186
Mof_H 	H 	0.8441	0.0336	0.7218	0.183
Mof_N 	N 	0.34729	0.32085	0.93643	-0.294
Mof_N 	N 	0.49539	0.40797	0.87173	-0.295
Mof_C 	C 	0.28647	0.27033	0.96053	0.113
Mof_C 	C 	0.53407	0.40653	0.93683	0.045
Mof_N 	N 	0.50907	0.34383	0.98423	0.134
Mof_O 	O 	0.45997	0.30013	0.97753	0.691
Mof_O 	O 	0.55147	0.35523	0.04703	-0.309
Mof_C 	C 	0.24647	0.21533	0.88463	-0.292
Mof_H 	H 	0.27807	0.21803	0.84143	-0.429
Mof_H 	H 	0.22367	0.17093	0.90933	0.29
Mof_H 	H 	0.21407	0.22473	0.85803	0.138
Mof_N 	N 	0.25217	0.21053	0.92133	-0.097
Mof_O 	O 	0.19887	0.16663	0.95003	-0.26
Mof_O 	O 	0.27357	0.20753	0.85233	0.498
Mof_C 	C 	0.51227	0.35143	0.99753	-0.21
Mof_H 	H 	0.46817	0.31583	0.98143	-0.716
Mof_H 	H 	0.54337	0.33483	0.99633	0.19
Mof_H 	H 	0.51077	0.36693	0.05513	0.186
Mof_N 	N 	0.01395	0.65419	0.26977	-0.31
Mof_N 	N 	0.16205	0.74131	0.20507	-0.294
Mof_C 	C 	0.95313	0.60367	0.29387	0.145
Mof_C 	C 	0.20073	0.73987	0.27017	0.044
Mof_N 	N 	0.17573	0.67717	0.31757	0.134
Mof_O 	O 	0.12663	0.63347	0.31087	0.693
Mof_O 	O 	0.21813	0.68857	0.38037	-0.308
Mof_C 	C 	0.91313	0.54867	0.21797	-0.284
Mof_H 	H 	0.94473	0.55137	0.17477	-0.421
Mof_H 	H 	0.89033	0.50427	0.24267	0.292
Mof_H 	H 	0.88073	0.55807	0.19137	0.14
Mof_N 	N 	0.91883	0.54387	0.25467	-0.107
Mof_O 	O 	0.86553	0.49997	0.28337	-0.254
Mof_O 	O 	0.94023	0.54087	0.18567	0.5
Mof_C 	C 	0.17893	0.68477	0.33087	-0.208
Mof_H 	H 	0.13483	0.64917	0.31477	-0.721
Mof_H 	H 	0.21003	0.66817	0.32967	0.188
Mof_H 	H 	0.17743	0.70027	0.38847	0.186
Mof_Zn	Zn	0.73834	0.73834	0.5	1.172
Mof_Zn	Zn	0.40501	0.07167	0.83333	1.17
Mof_Zn	Zn	0.07167	0.40501	0.16667	1.17
Mof_Zn	Zn	0.26166	0	0.5	1.161
Mof_Zn	Zn	0.92833	0.33333	0.83333	1.175
Mof_Zn	Zn	0.59499	0.66667	0.16667	1.172
Mof_Zn	Zn	6.29396e-18	0.26166	0.5	1.161
Mof_Zn	Zn	0.66667	0.59499	0.83333	1.172
Mof_Zn	Zn	0.33333	0.92833	0.16667	1.175
Mof_Zn	Zn	0.26166	0.26166	0.5	1.172
Mof_Zn	Zn	0.92833	0.59499	0.83333	1.175
Mof_Zn	Zn	0.59499	0.92833	0.16667	1.175
Mof_Zn	Zn	0.73834	0	0.5	1.161
Mof_Zn	Zn	0.40501	0.33333	0.83333	1.172
Mof_Zn	Zn	0.07167	0.66667	0.16667	1.17
Mof_Zn	Zn	-4.11039e-17	0.73834	0.5	1.161
Mof_Zn	Zn	0.66667	0.07167	0.83333	1.17
Mof_Zn	Zn	0.33333	0.40501	0.16667	1.172
Mof_C 	C 	0.69898	0.66667	0.66667	0.086
Mof_H 	H 	0.73958	0.66667	0.66667	-0.038
Mof_C 	C 	0.36565	0	-0	0.043
Mof_H 	H 	0.40625	0	-0	-0.036
Mof_C 	C 	0.33333	0.03232	0.66667	0.043
Mof_H 	H 	0.33333	0.07292	0.66667	-0.026
Mof_C 	C 	-0	0.36565	-0	0.043
Mof_H 	H 	-0	0.40625	-0	-0.036
Mof_C 	C 	0.96768	0.30102	0.66667	0.127
Mof_H 	H 	0.92708	0.26042	0.66667	-0.048
Mof_C 	C 	0.63435	0.63435	-0	0.083
Mof_H 	H 	0.59375	0.59375	-0	-0.038
Mof_C 	C 	0.66667	0.69898	0.33333	0.086
Mof_H 	H 	0.66667	0.73958	0.33333	-0.038
Mof_C 	C 	0.03232	0.33333	0.33333	0.043
Mof_H 	H 	0.07292	0.33333	0.33333	-0.027
Mof_C 	C 	0.30102	0.96768	0.33333	0.128
Mof_H 	H 	0.26042	0.92708	0.33333	-0.048
Mof_C 	C 	0.30102	0.33333	0.33333	0.085
Mof_H 	H 	0.26042	0.33333	0.33333	-0.038
Mof_C 	C 	0.66667	0.96768	0.33333	0.127
Mof_H 	H 	0.66667	0.92708	0.33333	-0.048
Mof_C 	C 	0.03232	0.69898	0.33333	0.043
Mof_H 	H 	0.07292	0.73958	0.33333	-0.027
Mof_C 	C 	0.33333	0.30102	0.66667	0.085
Mof_H 	H 	0.33333	0.26042	0.66667	-0.038
Mof_C 	C 	-0	0.63435	-0	0.042
Mof_H 	H 	-0	0.59375	-0	-0.036
Mof_C 	C 	0.96768	0.66667	0.66667	0.127
Mof_H 	H 	0.92708	0.66667	0.66667	-0.048
Mof_C 	C 	0.63435	0	-0	0.043
Mof_H 	H 	0.59375	0	-0	-0.036
Mof_C 	C 	0.69898	0.03232	0.66667	0.043
Mof_H 	H 	0.73958	0.07292	0.66667	-0.026
Mof_C 	C 	0.36565	0.36565	-0	0.083
Mof_H 	H 	0.40625	0.40625	-0	-0.038
Mof_C 	C 	0.8665	0.733	0.5012	0.084
Mof_H 	H 	0.85265	0.7053	0.4523	-0.077
Mof_C 	C 	0.53317	0.06633	0.83453	0.08
Mof_H 	H 	0.51932	0.03863	0.78563	-0.089
Mof_C 	C 	0.19983	0.39967	0.16787	0.083
Mof_H 	H 	0.18598	0.37197	0.11897	-0.078
Mof_C 	C 	0.267	0.1335	0.5012	0.082
Mof_H 	H 	0.2947	0.14735	0.4523	-0.079
Mof_C 	C 	0.93367	0.46683	0.83453	0.087
Mof_H 	H 	0.96137	0.48068	0.78563	-0.068
Mof_C 	C 	0.60033	0.80017	0.16787	0.083
Mof_H 	H 	0.62803	0.81402	0.11897	-0.079
Mof_C 	C 	0.8665	0.1335	0.5012	0.083
Mof_H 	H 	0.85265	0.14735	0.4523	-0.078
Mof_C 	C 	0.53317	0.46683	0.83453	0.083
Mof_H 	H 	0.51932	0.48068	0.78563	-0.079
Mof_C 	C 	0.19983	0.80017	0.16787	0.083
Mof_H 	H 	0.18598	0.81402	0.11897	-0.079
Mof_C 	C 	0.733	0.8665	0.4988	0.084
Mof_H 	H 	0.7053	0.85265	0.5477	-0.077
Mof_C 	C 	0.39967	0.19983	0.83213	0.083
Mof_H 	H 	0.37197	0.18598	0.88103	-0.078
Mof_C 	C 	0.06633	0.53317	0.16547	0.08
Mof_H 	H 	0.03863	0.51932	0.21437	-0.088
Mof_C 	C 	0.1335	0.267	0.4988	0.082
Mof_H 	H 	0.14735	0.2947	0.5477	-0.079
Mof_C 	C 	0.80017	0.60033	0.83213	0.083
Mof_H 	H 	0.81402	0.62803	0.88103	-0.079
Mof_C 	C 	0.46683	0.93367	0.16547	0.087
Mof_H 	H 	0.48068	0.96137	0.21437	-0.068
Mof_C 	C 	0.1335	0.8665	0.4988	0.083
Mof_H 	H 	0.14735	0.85265	0.5477	-0.078
Mof_C 	C 	0.80017	0.19983	0.83213	0.083
Mof_H 	H 	0.81402	0.18598	0.88103	-0.078
Mof_C 	C 	0.46683	0.53317	0.16547	0.083
Mof_H 	H 	0.48068	0.51932	0.21437	-0.079
_end
