data_functionalizedCrystal
_audit_creation_method	'EQeq! by Chris Wilmer'
_symmetry_space_group_name_H-M	'P1'
_symmetry_Int_Tables_number	1
_symmetry_cell_setting	triclinic
loop_
_symmetry_equiv_pos_as_xyz
  x,y,z
_cell_length_a	38.978
_cell_length_b	27.433
_cell_length_c	27.377
_cell_angle_alpha	90
_cell_angle_beta	133.806
_cell_angle_gamma	90
loop_
_atom_site_label
_atom_site_type_symbol
_atom_site_fract_x
_atom_site_fract_y
_atom_site_fract_z
_atom_site_charge
Mof_Zn	Zn	0.04856	0.25313	0.6954	1.215
Mof_N 	N 	0.97671	0.25864	0.6214	-0.25
Mof_O 	O 	0.06415	0.31613	0.74764	-0.471
Mof_O 	O 	0.05517	0.18872	0.6652	-0.465
Mof_O 	O 	0.06745	0.28775	0.65098	-0.477
Mof_O 	O 	0.06005	0.21599	0.7701	-0.469
Mof_C 	C 	0.95121	0.2821	0.6313	0.069
Mof_C 	C 	0.9513	0.2372	0.5617	0.081
Mof_C 	C 	0.104	0.32947	0.8006	0.412
Mof_C 	C 	0.0935	0.17146	0.6884	0.403
Mof_H 	H 	0.9676	0.2977	0.6725	0.008
Mof_C 	C 	0.90259	0.2838	0.5835	-0.109
Mof_C 	C 	0.9026	0.2376	0.5119	-0.118
Mof_H 	H 	0.9676	0.2209	0.553	0.004
Mof_C 	C 	0.1059	0.3744	0.8342	-0.165
Mof_O 	O 	0.14289	0.30846	0.8303	-0.467
Mof_C 	C 	0.0921	0.1281	0.6546	-0.15
Mof_O 	O 	0.13448	0.18847	0.7392	-0.464
Mof_O 	O 	0.14566	0.28901	0.7315	-0.467
Mof_O 	O 	0.13898	0.20734	0.84734	-0.469
Mof_H 	H 	0.8865	0.3009	0.5919	0.075
Mof_C 	C 	0.87764	0.26	0.5226	0.027
Mof_H 	H 	0.8869	0.2225	0.4707	0.078
Mof_C 	C 	0.0655	0.3988	0.807	0.099
Mof_C 	C 	0.1485	0.3904	0.8961	0.095
Mof_Zn	Zn	0.15291	0.2468	0.79923	1.216
Mof_C 	C 	0.0487	0.1047	0.6017	0.085
Mof_C 	C 	0.1332	0.1103	0.6747	0.08
Mof_C 	C 	0.8246	0.259	0.4708	0.15
Mof_H 	H 	0.0367	0.3899	0.7646	0.01
Mof_C 	C 	0.0667	0.437	0.8418	-0.179
Mof_C 	C 	0.1501	0.428	0.932	-0.178
Mof_H 	H 	0.1767	0.3757	0.9141	0.012
Mof_N 	N 	0.22547	0.24242	0.8718	-0.291
Mof_H 	H 	0.021	0.1147	0.5899	0.015
Mof_C 	C 	0.0474	0.0671	0.5675	-0.151
Mof_C 	C 	0.1311	0.0703	0.6397	-0.158
Mof_H 	H 	0.1624	0.1245	0.711	0.018
Mof_C 	C 	0.7993	0.2699	0.4828	-0.235
Mof_C 	C 	0.7989	0.2502	0.4052	-0.211
Mof_H 	H 	0.0387	0.453	0.8223	0.093
Mof_C 	C 	0.109	0.4513	0.9049	0.136
Mof_H 	H 	0.1789	0.4372	0.9741	0.116
Mof_H 	H 	0.0182	0.0533	0.5307	0.103
Mof_C 	C 	0.0894	0.0486	0.587	0.115
Mof_H 	H 	0.1591	0.0588	0.6532	0.09
Mof_C 	C 	0.7495	0.2688	0.4315	0.172
Mof_H 	H 	0.8141	0.2787	0.5264	0.119
Mof_H 	H 	0.8146	0.243	0.3917	0.108
Mof_C 	C 	0.7498	0.2515	0.357	0.147
Mof_C 	C 	0.111	0.4922	0.9424	-0.067
Mof_C 	C 	0.086	0.0092	0.5484	-0.039
Mof_H 	H 	0.7331	0.2774	0.4436	-0.033
Mof_H 	H 	0.7338	0.2477	0.3117	-0.022
Mof_C 	C 	0.1312	0.4814	0.0077	0.146
Mof_C 	C 	0.0792	0.5289	0.9045	-0.055
Mof_C 	C 	0.1141	0.9708	0.5818	-0.113
Mof_C 	C 	0.0496	0.0049	0.4775	0.127
Mof_C 	C 	0.14	0.52	0.0455	-0.118
Mof_O 	O 	0.1699	0.4504	0.0413	-0.196
Mof_C 	C 	0.0851	0.5659	0.954	0.084
Mof_H 	H 	0.0578	0.5317	0.8576	0.054
Mof_C 	C 	0.1046	0.9287	0.5315	0.297
Mof_H 	H 	0.1368	0.9682	0.6288	0.089
Mof_C 	C 	0.0529	0.9735	0.4425	-0.067
Mof_O 	O 	0.0152	0.0385	0.4382	-0.19
Mof_H 	H 	0.1662	0.5182	0.0919	0.077
Mof_C 	C 	0.1116	0.5636	0.0192	-0.039
Mof_C 	C 	0.2083	0.449	0.12	-0.09
Mof_O 	O 	0.0482	0.6095	0.903	-0.187
Mof_C 	C 	0.0891	0.9356	0.4765	-0.173
Mof_O 	O 	0.1374	0.908	0.5731	-0.275
Mof_H 	H 	0.0314	0.9763	0.3957	0.072
Mof_C 	C 	0.1098	0.6011	0.0553	0.122
Mof_H 	H 	0.2	0.4694	0.1394	0.056
Mof_H 	H 	0.2147	0.4161	0.1374	0.069
Mof_C 	C 	0.2492	0.47	0.1309	0.079
Mof_C 	C 	0.0133	0.6116	0.8303	0.043
Mof_C 	C 	0.092	0.8986	0.4412	0.182
Mof_C 	C 	0.068	0.6189	0.0313	-0.167
Mof_C 	C 	0.1517	0.6184	0.1165	-0.165
Mof_H 	H 	0.2723	0.4767	0.1791	0.004
Mof_H 	H 	0.2367	0.5018	0.1097	0.015
Mof_C 	C 	0.2819	0.4586	0.1189	-0.432
Mof_H 	H 	0.0249	0.5996	0.8106	0.021
Mof_H 	H 	0.9835	0.5961	0.8095	0.02
Mof_C 	C 	0.0114	0.6698	0.8315	-0.145
Mof_C 	C 	0.0509	0.8757	0.3818	-0.198
Mof_C 	C 	0.1345	0.8872	0.461	-0.205
Mof_C 	C 	0.0661	0.6503	0.07	0.096
Mof_H 	H 	0.0399	0.6101	0.988	0.104
Mof_H 	H 	0.1807	0.6091	0.1318	0.093
Mof_C 	C 	0.1506	0.6501	0.1557	0.094
Mof_H 	H 	0.2749	0.4828	0.0872	0.157
Mof_H 	H 	0.3143	0.4645	0.1615	0.157
Mof_C 	C 	0.2818	0.4204	0.0992	0.253
Mof_H 	H 	0.9849	0.6771	0.7839	0.075
Mof_H 	H 	0.999	0.6747	0.8519	0.089
Mof_C 	C 	0.0519	0.8433	0.3446	0.107
Mof_H 	H 	0.0217	0.8829	0.3673	0.109
Mof_H 	H 	0.1626	0.9006	0.5005	0.119
Mof_C 	C 	0.1361	0.8557	0.4227	0.12
Mof_H 	H 	0.0369	0.6604	0.0536	0.015
Mof_C 	C 	0.1079	0.6661	0.1326	-0.166
Mof_H 	H 	0.1789	0.6604	0.1977	0.017
Mof_H 	H 	0.3044	0.4207	0.0951	-0.05
Mof_H 	H 	0.2506	0.4139	0.0558	-0.041
Mof_H 	H 	0.2903	0.3955	0.1306	-0.038
Mof_C 	C 	0.09649	0.83424	0.3664	-0.167
Mof_H 	H 	0.0244	0.828	0.3066	0.012
Mof_H 	H 	0.1651	0.8494	0.4363	0.005
Mof_C 	C 	0.1069	0.6987	0.1746	0.431
Mof_C 	C 	0.09864	0.80102	0.3242	0.41
Mof_Zn	Zn	0.54856	0.75313	0.6954	1.216
Mof_N 	N 	0.47671	0.75864	0.6214	-0.248
Mof_O 	O 	0.56415	0.81613	0.74764	-0.47
Mof_O 	O 	0.55517	0.68872	0.6652	-0.464
Mof_O 	O 	0.56745	0.78775	0.65098	-0.475
Mof_O 	O 	0.56005	0.71599	0.7701	-0.469
Mof_C 	C 	0.45121	0.7821	0.6313	0.07
Mof_C 	C 	0.4513	0.7372	0.5617	0.082
Mof_C 	C 	0.604	0.82947	0.8006	0.413
Mof_C 	C 	0.5935	0.67146	0.6884	0.404
Mof_H 	H 	0.4676	0.7977	0.6725	0.009
Mof_C 	C 	0.40259	0.7838	0.5835	-0.108
Mof_C 	C 	0.4026	0.7376	0.5119	-0.118
Mof_H 	H 	0.4676	0.7209	0.553	0.004
Mof_C 	C 	0.6059	0.8744	0.8342	-0.165
Mof_O 	O 	0.64289	0.80846	0.8303	-0.467
Mof_C 	C 	0.5921	0.6281	0.6546	-0.15
Mof_O 	O 	0.63448	0.68847	0.7392	-0.464
Mof_O 	O 	0.64566	0.78901	0.7315	-0.467
Mof_O 	O 	0.63898	0.70734	0.84734	-0.469
Mof_H 	H 	0.3865	0.8009	0.5919	0.075
Mof_C 	C 	0.37764	0.76	0.5226	0.027
Mof_H 	H 	0.3869	0.7225	0.4707	0.078
Mof_C 	C 	0.5655	0.8988	0.807	0.099
Mof_C 	C 	0.6485	0.8904	0.8961	0.096
Mof_Zn	Zn	0.65291	0.7468	0.79923	1.216
Mof_C 	C 	0.5487	0.6047	0.6017	0.085
Mof_C 	C 	0.6332	0.6103	0.6747	0.08
Mof_C 	C 	0.3246	0.759	0.4708	0.15
Mof_H 	H 	0.5367	0.8899	0.7646	0.01
Mof_C 	C 	0.5667	0.937	0.8418	-0.179
Mof_C 	C 	0.6501	0.928	0.932	-0.178
Mof_H 	H 	0.6767	0.8757	0.9141	0.012
Mof_N 	N 	0.72547	0.74242	0.8718	-0.291
Mof_H 	H 	0.521	0.6147	0.5899	0.015
Mof_C 	C 	0.5474	0.5671	0.5675	-0.151
Mof_C 	C 	0.6311	0.5703	0.6397	-0.158
Mof_H 	H 	0.6624	0.6245	0.711	0.018
Mof_C 	C 	0.2993	0.7699	0.4828	-0.235
Mof_C 	C 	0.2989	0.7502	0.4052	-0.211
Mof_H 	H 	0.5387	0.953	0.8223	0.093
Mof_C 	C 	0.609	0.9513	0.9049	0.136
Mof_H 	H 	0.6789	0.9372	0.9741	0.116
Mof_H 	H 	0.5182	0.5533	0.5307	0.103
Mof_C 	C 	0.5894	0.5486	0.587	0.116
Mof_H 	H 	0.6591	0.5588	0.6532	0.09
Mof_C 	C 	0.2495	0.7688	0.4315	0.172
Mof_H 	H 	0.3141	0.7787	0.5264	0.12
Mof_H 	H 	0.3146	0.743	0.3917	0.108
Mof_C 	C 	0.2498	0.7515	0.357	0.147
Mof_C 	C 	0.611	0.9922	0.9424	-0.067
Mof_C 	C 	0.586	0.5092	0.5484	-0.039
Mof_H 	H 	0.2331	0.7774	0.4436	-0.033
Mof_H 	H 	0.2338	0.7477	0.3117	-0.022
Mof_C 	C 	0.6312	0.9814	0.0077	0.146
Mof_C 	C 	0.5792	0.0289	0.9045	-0.055
Mof_C 	C 	0.6141	0.4708	0.5818	-0.113
Mof_C 	C 	0.5496	0.5049	0.4775	0.127
Mof_C 	C 	0.64	0.02	0.0455	-0.119
Mof_O 	O 	0.6699	0.9504	0.0413	-0.196
Mof_C 	C 	0.5851	0.0659	0.954	0.083
Mof_H 	H 	0.5578	0.0317	0.8576	0.053
Mof_C 	C 	0.6046	0.4287	0.5315	0.297
Mof_H 	H 	0.6368	0.4682	0.6288	0.089
Mof_C 	C 	0.5529	0.4735	0.4425	-0.067
Mof_O 	O 	0.5152	0.5385	0.4382	-0.19
Mof_H 	H 	0.6662	0.0182	0.0919	0.077
Mof_C 	C 	0.6116	0.0636	0.0192	-0.038
Mof_C 	C 	0.7083	0.949	0.12	-0.09
Mof_O 	O 	0.5482	0.1095	0.903	-0.187
Mof_C 	C 	0.5891	0.4356	0.4765	-0.173
Mof_O 	O 	0.6374	0.408	0.5731	-0.275
Mof_H 	H 	0.5314	0.4763	0.3957	0.072
Mof_C 	C 	0.6098	0.1011	0.0553	0.121
Mof_H 	H 	0.7	0.9694	0.1394	0.056
Mof_H 	H 	0.7147	0.9161	0.1374	0.069
Mof_C 	C 	0.7492	0.97	0.1309	0.079
Mof_C 	C 	0.5133	0.1116	0.8303	0.042
Mof_C 	C 	0.592	0.3986	0.4412	0.182
Mof_C 	C 	0.568	0.1189	0.0313	-0.165
Mof_C 	C 	0.6517	0.1184	0.1165	-0.164
Mof_H 	H 	0.7723	0.9767	0.1791	0.004
Mof_H 	H 	0.7367	0.0018	0.1097	0.015
Mof_C 	C 	0.7819	0.9586	0.1189	-0.432
Mof_H 	H 	0.5249	0.0996	0.8106	0.021
Mof_H 	H 	0.4835	0.0961	0.8095	0.02
Mof_C 	C 	0.5114	0.1698	0.8315	-0.145
Mof_C 	C 	0.5509	0.3757	0.3818	-0.198
Mof_C 	C 	0.6345	0.3872	0.461	-0.205
Mof_C 	C 	0.5661	0.1503	0.07	0.095
Mof_H 	H 	0.5399	0.1101	0.988	0.103
Mof_H 	H 	0.6807	0.1091	0.1318	0.093
Mof_C 	C 	0.6506	0.1501	0.1557	0.093
Mof_H 	H 	0.7749	0.9828	0.0872	0.157
Mof_H 	H 	0.8143	0.9645	0.1615	0.157
Mof_C 	C 	0.7818	0.9204	0.0992	0.253
Mof_H 	H 	0.4849	0.1771	0.7839	0.076
Mof_H 	H 	0.499	0.1747	0.8519	0.09
Mof_C 	C 	0.5519	0.3433	0.3446	0.107
Mof_H 	H 	0.5217	0.3829	0.3673	0.109
Mof_H 	H 	0.6626	0.4006	0.5005	0.119
Mof_C 	C 	0.6361	0.3557	0.4227	0.12
Mof_H 	H 	0.5369	0.1604	0.0536	0.015
Mof_C 	C 	0.6079	0.1661	0.1326	-0.166
Mof_H 	H 	0.6789	0.1604	0.1977	0.017
Mof_H 	H 	0.8044	0.9207	0.0951	-0.05
Mof_H 	H 	0.7506	0.9139	0.0558	-0.041
Mof_H 	H 	0.7903	0.8955	0.1306	-0.038
Mof_C 	C 	0.59649	0.33424	0.3664	-0.167
Mof_H 	H 	0.5244	0.328	0.3066	0.012
Mof_H 	H 	0.6651	0.3494	0.4363	0.006
Mof_C 	C 	0.6069	0.1987	0.1746	0.431
Mof_C 	C 	0.59864	0.30102	0.3242	0.41
Mof_Zn	Zn	0.04856	0.74687	0.1954	1.216
Mof_N 	N 	0.97671	0.74136	0.1214	-0.248
Mof_O 	O 	0.06415	0.68387	0.24764	-0.47
Mof_O 	O 	0.05517	0.81128	0.1652	-0.464
Mof_O 	O 	0.06745	0.71225	0.15098	-0.476
Mof_O 	O 	0.06005	0.78401	0.2701	-0.469
Mof_C 	C 	0.95121	0.7179	0.1313	0.07
Mof_C 	C 	0.9513	0.7628	0.0617	0.081
Mof_C 	C 	0.104	0.67053	0.3006	0.414
Mof_C 	C 	0.0935	0.82854	0.1884	0.404
Mof_H 	H 	0.9676	0.7023	0.1725	0.009
Mof_C 	C 	0.90259	0.7162	0.0835	-0.108
Mof_C 	C 	0.9026	0.7624	0.0119	-0.117
Mof_H 	H 	0.9676	0.7791	0.053	0.004
Mof_C 	C 	0.1059	0.6256	0.3342	-0.165
Mof_O 	O 	0.14289	0.69154	0.3303	-0.467
Mof_C 	C 	0.0921	0.8719	0.1546	-0.151
Mof_O 	O 	0.13448	0.81153	0.2392	-0.464
Mof_O 	O 	0.14566	0.71099	0.2315	-0.467
Mof_O 	O 	0.13898	0.79266	0.34734	-0.469
Mof_H 	H 	0.8865	0.6991	0.0919	0.075
Mof_C 	C 	0.87764	0.74	0.0226	0.026
Mof_H 	H 	0.8869	0.7775	0.9707	0.077
Mof_C 	C 	0.0655	0.6012	0.307	0.099
Mof_C 	C 	0.1485	0.6096	0.3961	0.096
Mof_Zn	Zn	0.15291	0.7532	0.29923	1.216
Mof_C 	C 	0.0487	0.8953	0.1017	0.086
Mof_C 	C 	0.1332	0.8897	0.1747	0.081
Mof_C 	C 	0.8246	0.741	0.9708	0.15
Mof_H 	H 	0.0367	0.6101	0.2646	0.01
Mof_C 	C 	0.0667	0.563	0.3418	-0.179
Mof_C 	C 	0.1501	0.572	0.432	-0.178
Mof_H 	H 	0.1767	0.6243	0.4141	0.012
Mof_N 	N 	0.22547	0.75758	0.3718	-0.291
Mof_H 	H 	0.021	0.8853	0.0899	0.015
Mof_C 	C 	0.0474	0.9329	0.0675	-0.152
Mof_C 	C 	0.1311	0.9297	0.1397	-0.159
Mof_H 	H 	0.1624	0.8755	0.211	0.018
Mof_C 	C 	0.7993	0.7301	0.9828	-0.235
Mof_C 	C 	0.7989	0.7498	0.9052	-0.211
Mof_H 	H 	0.0387	0.547	0.3223	0.093
Mof_C 	C 	0.109	0.5487	0.4049	0.136
Mof_H 	H 	0.1789	0.5628	0.4741	0.116
Mof_H 	H 	0.0182	0.9467	0.0307	0.103
Mof_C 	C 	0.0894	0.9514	0.087	0.116
Mof_H 	H 	0.1591	0.9412	0.1532	0.09
Mof_C 	C 	0.7495	0.7312	0.9315	0.172
Mof_H 	H 	0.8141	0.7213	0.0264	0.12
Mof_H 	H 	0.8146	0.757	0.8917	0.108
Mof_C 	C 	0.7498	0.7485	0.857	0.147
Mof_C 	C 	0.111	0.5078	0.4424	-0.067
Mof_C 	C 	0.086	0.9908	0.0484	-0.04
Mof_H 	H 	0.7331	0.7226	0.9436	-0.033
Mof_H 	H 	0.7338	0.7523	0.8117	-0.022
Mof_C 	C 	0.1312	0.5186	0.5077	0.146
Mof_C 	C 	0.0792	0.4711	0.4045	-0.055
Mof_C 	C 	0.1141	0.0292	0.0818	-0.112
Mof_C 	C 	0.0496	0.9951	0.9775	0.128
Mof_C 	C 	0.14	0.48	0.5455	-0.119
Mof_O 	O 	0.1699	0.5496	0.5413	-0.197
Mof_C 	C 	0.0851	0.4341	0.454	0.083
Mof_H 	H 	0.0578	0.4683	0.3576	0.053
Mof_C 	C 	0.1046	0.0713	0.0315	0.296
Mof_H 	H 	0.1368	0.0318	0.1288	0.089
Mof_C 	C 	0.0529	0.0265	0.9425	-0.067
Mof_O 	O 	0.0152	0.9615	0.9382	-0.19
Mof_H 	H 	0.1662	0.4818	0.5919	0.077
Mof_C 	C 	0.1116	0.4364	0.5192	-0.038
Mof_C 	C 	0.2083	0.551	0.62	-0.09
Mof_O 	O 	0.0482	0.3905	0.403	-0.187
Mof_C 	C 	0.0891	0.0644	0.9765	-0.172
Mof_O 	O 	0.1374	0.092	0.0731	-0.275
Mof_H 	H 	0.0314	0.0237	0.8957	0.072
Mof_C 	C 	0.1098	0.3989	0.5553	0.121
Mof_H 	H 	0.2	0.5306	0.6394	0.056
Mof_H 	H 	0.2147	0.5839	0.6374	0.069
Mof_C 	C 	0.2492	0.53	0.6309	0.079
Mof_C 	C 	0.0133	0.3884	0.3303	0.042
Mof_C 	C 	0.092	0.1014	0.9412	0.181
Mof_C 	C 	0.068	0.3811	0.5313	-0.165
Mof_C 	C 	0.1517	0.3816	0.6165	-0.164
Mof_H 	H 	0.2723	0.5233	0.6791	0.004
Mof_H 	H 	0.2367	0.4982	0.6097	0.015
Mof_C 	C 	0.2819	0.5414	0.6189	-0.432
Mof_H 	H 	0.0249	0.4004	0.3106	0.021
Mof_H 	H 	0.9835	0.4039	0.3095	0.02
Mof_C 	C 	0.0114	0.3302	0.3315	-0.146
Mof_C 	C 	0.0509	0.1243	0.8818	-0.198
Mof_C 	C 	0.1345	0.1128	0.961	-0.204
Mof_C 	C 	0.0661	0.3497	0.57	0.095
Mof_H 	H 	0.0399	0.3899	0.488	0.103
Mof_H 	H 	0.1807	0.3909	0.6318	0.093
Mof_C 	C 	0.1506	0.3499	0.6557	0.093
Mof_H 	H 	0.2749	0.5172	0.5872	0.157
Mof_H 	H 	0.3143	0.5355	0.6615	0.157
Mof_C 	C 	0.2818	0.5796	0.5992	0.253
Mof_H 	H 	0.9849	0.3229	0.2839	0.076
Mof_H 	H 	0.999	0.3253	0.3519	0.09
Mof_C 	C 	0.0519	0.1567	0.8446	0.106
Mof_H 	H 	0.0217	0.1171	0.8673	0.109
Mof_H 	H 	0.1626	0.0994	0.0005	0.119
Mof_C 	C 	0.1361	0.1443	0.9227	0.119
Mof_H 	H 	0.0369	0.3396	0.5536	0.015
Mof_C 	C 	0.1079	0.3339	0.6326	-0.166
Mof_H 	H 	0.1789	0.3396	0.6977	0.017
Mof_H 	H 	0.3044	0.5793	0.5951	-0.05
Mof_H 	H 	0.2506	0.5861	0.5558	-0.041
Mof_H 	H 	0.2903	0.6045	0.6306	-0.038
Mof_C 	C 	0.09649	0.16576	0.8664	-0.166
Mof_H 	H 	0.0244	0.172	0.8066	0.012
Mof_H 	H 	0.1651	0.1506	0.9363	0.006
Mof_C 	C 	0.1069	0.3013	0.6746	0.431
Mof_C 	C 	0.09864	0.19898	0.8242	0.41
Mof_Zn	Zn	0.54856	0.24687	0.1954	1.216
Mof_N 	N 	0.47671	0.24136	0.1214	-0.248
Mof_O 	O 	0.56415	0.18387	0.24764	-0.47
Mof_O 	O 	0.55517	0.31128	0.1652	-0.464
Mof_O 	O 	0.56745	0.21225	0.15098	-0.475
Mof_O 	O 	0.56005	0.28401	0.2701	-0.469
Mof_C 	C 	0.45121	0.2179	0.1313	0.07
Mof_C 	C 	0.4513	0.2628	0.0617	0.082
Mof_C 	C 	0.604	0.17053	0.3006	0.413
Mof_C 	C 	0.5935	0.32854	0.1884	0.404
Mof_H 	H 	0.4676	0.2023	0.1725	0.009
Mof_C 	C 	0.40259	0.2162	0.0835	-0.108
Mof_C 	C 	0.4026	0.2624	0.0119	-0.118
Mof_H 	H 	0.4676	0.2791	0.053	0.004
Mof_C 	C 	0.6059	0.1256	0.3342	-0.165
Mof_O 	O 	0.64289	0.19154	0.3303	-0.467
Mof_C 	C 	0.5921	0.3719	0.1546	-0.15
Mof_O 	O 	0.63448	0.31153	0.2392	-0.464
Mof_O 	O 	0.64566	0.21099	0.2315	-0.467
Mof_O 	O 	0.63898	0.29266	0.34734	-0.469
Mof_H 	H 	0.3865	0.1991	0.0919	0.075
Mof_C 	C 	0.37764	0.24	0.0226	0.027
Mof_H 	H 	0.3869	0.2775	0.9707	0.078
Mof_C 	C 	0.5655	0.1012	0.307	0.099
Mof_C 	C 	0.6485	0.1096	0.3961	0.096
Mof_Zn	Zn	0.65291	0.2532	0.29923	1.216
Mof_C 	C 	0.5487	0.3953	0.1017	0.085
Mof_C 	C 	0.6332	0.3897	0.1747	0.08
Mof_C 	C 	0.3246	0.241	0.9708	0.15
Mof_H 	H 	0.5367	0.1101	0.2646	0.01
Mof_C 	C 	0.5667	0.063	0.3418	-0.179
Mof_C 	C 	0.6501	0.072	0.432	-0.178
Mof_H 	H 	0.6767	0.1243	0.4141	0.012
Mof_N 	N 	0.72547	0.25758	0.3718	-0.291
Mof_H 	H 	0.521	0.3853	0.0899	0.015
Mof_C 	C 	0.5474	0.4329	0.0675	-0.151
Mof_C 	C 	0.6311	0.4297	0.1397	-0.158
Mof_H 	H 	0.6624	0.3755	0.211	0.018
Mof_C 	C 	0.2993	0.2301	0.9828	-0.234
Mof_C 	C 	0.2989	0.2498	0.9052	-0.211
Mof_H 	H 	0.5387	0.047	0.3223	0.093
Mof_C 	C 	0.609	0.0487	0.4049	0.136
Mof_H 	H 	0.6789	0.0628	0.4741	0.116
Mof_H 	H 	0.5182	0.4467	0.0307	0.103
Mof_C 	C 	0.5894	0.4514	0.087	0.115
Mof_H 	H 	0.6591	0.4412	0.1532	0.09
Mof_C 	C 	0.2495	0.2312	0.9315	0.172
Mof_H 	H 	0.3141	0.2213	0.0264	0.119
Mof_H 	H 	0.3146	0.257	0.8917	0.108
Mof_C 	C 	0.2498	0.2485	0.857	0.147
Mof_C 	C 	0.611	0.0078	0.4424	-0.067
Mof_C 	C 	0.586	0.4908	0.0484	-0.039
Mof_H 	H 	0.2331	0.2226	0.9436	-0.033
Mof_H 	H 	0.2338	0.2523	0.8117	-0.022
Mof_C 	C 	0.6312	0.0186	0.5077	0.146
Mof_C 	C 	0.5792	0.9711	0.4045	-0.055
Mof_C 	C 	0.6141	0.5292	0.0818	-0.113
Mof_C 	C 	0.5496	0.4951	0.9775	0.127
Mof_C 	C 	0.64	0.98	0.5455	-0.119
Mof_O 	O 	0.6699	0.0496	0.5413	-0.197
Mof_C 	C 	0.5851	0.9341	0.454	0.083
Mof_H 	H 	0.5578	0.9683	0.3576	0.053
Mof_C 	C 	0.6046	0.5713	0.0315	0.298
Mof_H 	H 	0.6368	0.5318	0.1288	0.089
Mof_C 	C 	0.5529	0.5265	0.9425	-0.066
Mof_O 	O 	0.5152	0.4615	0.9382	-0.19
Mof_H 	H 	0.6662	0.9818	0.5919	0.077
Mof_C 	C 	0.6116	0.9364	0.5192	-0.038
Mof_C 	C 	0.7083	0.051	0.62	-0.09
Mof_O 	O 	0.5482	0.8905	0.403	-0.187
Mof_C 	C 	0.5891	0.5644	0.9765	-0.174
Mof_O 	O 	0.6374	0.592	0.0731	-0.275
Mof_H 	H 	0.5314	0.5237	0.8957	0.072
Mof_C 	C 	0.6098	0.8989	0.5553	0.121
Mof_H 	H 	0.7	0.0306	0.6394	0.056
Mof_H 	H 	0.7147	0.0839	0.6374	0.069
Mof_C 	C 	0.7492	0.03	0.6309	0.079
Mof_C 	C 	0.5133	0.8884	0.3303	0.042
Mof_C 	C 	0.592	0.6014	0.9412	0.182
Mof_C 	C 	0.568	0.8811	0.5313	-0.165
Mof_C 	C 	0.6517	0.8816	0.6165	-0.164
Mof_H 	H 	0.7723	0.0233	0.6791	0.004
Mof_H 	H 	0.7367	0.9982	0.6097	0.015
Mof_C 	C 	0.7819	0.0414	0.6189	-0.432
Mof_H 	H 	0.5249	0.9004	0.3106	0.021
Mof_H 	H 	0.4835	0.9039	0.3095	0.02
Mof_C 	C 	0.5114	0.8302	0.3315	-0.145
Mof_C 	C 	0.5509	0.6243	0.8818	-0.198
Mof_C 	C 	0.6345	0.6128	0.961	-0.205
Mof_C 	C 	0.5661	0.8497	0.57	0.095
Mof_H 	H 	0.5399	0.8899	0.488	0.103
Mof_H 	H 	0.6807	0.8909	0.6318	0.093
Mof_C 	C 	0.6506	0.8499	0.6557	0.093
Mof_H 	H 	0.7749	0.0172	0.5872	0.157
Mof_H 	H 	0.8143	0.0355	0.6615	0.157
Mof_C 	C 	0.7818	0.0796	0.5992	0.253
Mof_H 	H 	0.4849	0.8229	0.2839	0.076
Mof_H 	H 	0.499	0.8253	0.3519	0.09
Mof_C 	C 	0.5519	0.6567	0.8446	0.107
Mof_H 	H 	0.5217	0.6171	0.8673	0.109
Mof_H 	H 	0.6626	0.5994	0.0005	0.119
Mof_C 	C 	0.6361	0.6443	0.9227	0.12
Mof_H 	H 	0.5369	0.8396	0.5536	0.015
Mof_C 	C 	0.6079	0.8339	0.6326	-0.166
Mof_H 	H 	0.6789	0.8396	0.6977	0.017
Mof_H 	H 	0.8044	0.0793	0.5951	-0.05
Mof_H 	H 	0.7506	0.0861	0.5558	-0.041
Mof_H 	H 	0.7903	0.1045	0.6306	-0.038
Mof_C 	C 	0.59649	0.66576	0.8664	-0.167
Mof_H 	H 	0.5244	0.672	0.8066	0.012
Mof_H 	H 	0.6651	0.6506	0.9363	0.005
Mof_C 	C 	0.6069	0.8013	0.6746	0.431
Mof_C 	C 	0.59864	0.69898	0.8242	0.41
Mof_Zn	Zn	0.95144	0.25313	0.8046	1.216
Mof_N 	N 	0.02329	0.25864	0.8786	-0.248
Mof_O 	O 	0.93585	0.31613	0.75236	-0.47
Mof_O 	O 	0.94483	0.18872	0.8348	-0.464
Mof_O 	O 	0.93255	0.28775	0.84902	-0.476
Mof_O 	O 	0.93995	0.21599	0.7299	-0.469
Mof_C 	C 	0.04879	0.2821	0.8687	0.07
Mof_C 	C 	0.0487	0.2372	0.9383	0.081
Mof_C 	C 	0.896	0.32947	0.6994	0.414
Mof_C 	C 	0.9065	0.17146	0.8116	0.404
Mof_H 	H 	0.0324	0.2977	0.8275	0.009
Mof_C 	C 	0.09741	0.2838	0.9165	-0.108
Mof_C 	C 	0.0974	0.2376	0.9881	-0.117
Mof_H 	H 	0.0324	0.2209	0.947	0.004
Mof_C 	C 	0.8941	0.3744	0.6658	-0.165
Mof_O 	O 	0.85711	0.30846	0.6697	-0.467
Mof_C 	C 	0.9079	0.1281	0.8454	-0.151
Mof_O 	O 	0.86552	0.18847	0.7608	-0.464
Mof_O 	O 	0.85434	0.28901	0.7685	-0.467
Mof_O 	O 	0.86102	0.20734	0.65266	-0.469
Mof_H 	H 	0.1135	0.3009	0.9081	0.075
Mof_C 	C 	0.12236	0.26	0.9774	0.026
Mof_H 	H 	0.1131	0.2225	0.0293	0.077
Mof_C 	C 	0.9345	0.3988	0.693	0.099
Mof_C 	C 	0.8515	0.3904	0.6039	0.096
Mof_Zn	Zn	0.84709	0.2468	0.70077	1.216
Mof_C 	C 	0.9513	0.1047	0.8983	0.086
Mof_C 	C 	0.8668	0.1103	0.8253	0.081
Mof_C 	C 	0.1754	0.259	0.0292	0.15
Mof_H 	H 	0.9633	0.3899	0.7354	0.01
Mof_C 	C 	0.9333	0.437	0.6582	-0.179
Mof_C 	C 	0.8499	0.428	0.568	-0.178
Mof_H 	H 	0.8233	0.3757	0.5859	0.012
Mof_N 	N 	0.77453	0.24242	0.6282	-0.291
Mof_H 	H 	0.979	0.1147	0.9101	0.015
Mof_C 	C 	0.9526	0.0671	0.9325	-0.152
Mof_C 	C 	0.8689	0.0703	0.8603	-0.159
Mof_H 	H 	0.8376	0.1245	0.789	0.018
Mof_C 	C 	0.2007	0.2699	0.0172	-0.235
Mof_C 	C 	0.2011	0.2502	0.0948	-0.211
Mof_H 	H 	0.9613	0.453	0.6777	0.093
Mof_C 	C 	0.891	0.4513	0.5951	0.136
Mof_H 	H 	0.8211	0.4372	0.5259	0.116
Mof_H 	H 	0.9818	0.0533	0.9693	0.103
Mof_C 	C 	0.9106	0.0486	0.913	0.116
Mof_H 	H 	0.8409	0.0588	0.8468	0.09
Mof_C 	C 	0.2505	0.2688	0.0685	0.172
Mof_H 	H 	0.1859	0.2787	0.9736	0.12
Mof_H 	H 	0.1854	0.243	0.1083	0.108
Mof_C 	C 	0.2502	0.2515	0.143	0.147
Mof_C 	C 	0.889	0.4922	0.5576	-0.067
Mof_C 	C 	0.914	0.0092	0.9516	-0.04
Mof_H 	H 	0.2669	0.2774	0.0564	-0.033
Mof_H 	H 	0.2662	0.2477	0.1883	-0.022
Mof_C 	C 	0.8688	0.4814	0.4923	0.146
Mof_C 	C 	0.9208	0.5289	0.5955	-0.055
Mof_C 	C 	0.8859	0.9708	0.9182	-0.112
Mof_C 	C 	0.9504	0.0049	0.0225	0.128
Mof_C 	C 	0.86	0.52	0.4545	-0.119
Mof_O 	O 	0.8301	0.4504	0.4587	-0.197
Mof_C 	C 	0.9149	0.5659	0.546	0.083
Mof_H 	H 	0.9422	0.5317	0.6424	0.053
Mof_C 	C 	0.8954	0.9287	0.9685	0.296
Mof_H 	H 	0.8632	0.9682	0.8712	0.089
Mof_C 	C 	0.9471	0.9735	0.0575	-0.067
Mof_O 	O 	0.9848	0.0385	0.0618	-0.19
Mof_H 	H 	0.8338	0.5182	0.4081	0.077
Mof_C 	C 	0.8884	0.5636	0.4808	-0.038
Mof_C 	C 	0.7917	0.449	0.38	-0.09
Mof_O 	O 	0.9518	0.6095	0.597	-0.187
Mof_C 	C 	0.9109	0.9356	0.0235	-0.172
Mof_O 	O 	0.8626	0.908	0.9269	-0.275
Mof_H 	H 	0.9686	0.9763	0.1043	0.072
Mof_C 	C 	0.8902	0.6011	0.4447	0.121
Mof_H 	H 	0.8	0.4694	0.3606	0.056
Mof_H 	H 	0.7853	0.4161	0.3626	0.069
Mof_C 	C 	0.7508	0.47	0.3691	0.079
Mof_C 	C 	0.9867	0.6116	0.6697	0.042
Mof_C 	C 	0.908	0.8986	0.0588	0.181
Mof_C 	C 	0.932	0.6189	0.4687	-0.165
Mof_C 	C 	0.8483	0.6184	0.3835	-0.164
Mof_H 	H 	0.7277	0.4767	0.3209	0.004
Mof_H 	H 	0.7633	0.5018	0.3903	0.015
Mof_C 	C 	0.7181	0.4586	0.3811	-0.432
Mof_H 	H 	0.9751	0.5996	0.6894	0.021
Mof_H 	H 	0.0165	0.5961	0.6905	0.02
Mof_C 	C 	0.9886	0.6698	0.6685	-0.146
Mof_C 	C 	0.9491	0.8757	0.1182	-0.198
Mof_C 	C 	0.8655	0.8872	0.039	-0.204
Mof_C 	C 	0.9339	0.6503	0.43	0.095
Mof_H 	H 	0.9601	0.6101	0.512	0.103
Mof_H 	H 	0.8193	0.6091	0.3682	0.093
Mof_C 	C 	0.8494	0.6501	0.3443	0.093
Mof_H 	H 	0.7251	0.4828	0.4128	0.157
Mof_H 	H 	0.6857	0.4645	0.3385	0.157
Mof_C 	C 	0.7182	0.4204	0.4008	0.253
Mof_H 	H 	0.0151	0.6771	0.7161	0.076
Mof_H 	H 	0.001	0.6747	0.6481	0.09
Mof_C 	C 	0.9481	0.8433	0.1554	0.106
Mof_H 	H 	0.9783	0.8829	0.1327	0.109
Mof_H 	H 	0.8374	0.9006	0.9995	0.119
Mof_C 	C 	0.8639	0.8557	0.0773	0.119
Mof_H 	H 	0.9631	0.6604	0.4464	0.015
Mof_C 	C 	0.8921	0.6661	0.3674	-0.166
Mof_H 	H 	0.8211	0.6604	0.3023	0.017
Mof_H 	H 	0.6956	0.4207	0.4049	-0.05
Mof_H 	H 	0.7494	0.4139	0.4442	-0.041
Mof_H 	H 	0.7097	0.3955	0.3694	-0.038
Mof_C 	C 	0.90351	0.83424	0.1336	-0.166
Mof_H 	H 	0.9756	0.828	0.1934	0.012
Mof_H 	H 	0.8349	0.8494	0.0637	0.006
Mof_C 	C 	0.8931	0.6987	0.3254	0.431
Mof_C 	C 	0.90136	0.80102	0.1758	0.41
Mof_Zn	Zn	0.45144	0.75313	0.8046	1.216
Mof_N 	N 	0.52329	0.75864	0.8786	-0.248
Mof_O 	O 	0.43585	0.81613	0.75236	-0.47
Mof_O 	O 	0.44483	0.68872	0.8348	-0.464
Mof_O 	O 	0.43255	0.78775	0.84902	-0.475
Mof_O 	O 	0.43995	0.71599	0.7299	-0.469
Mof_C 	C 	0.54879	0.7821	0.8687	0.07
Mof_C 	C 	0.5487	0.7372	0.9383	0.082
Mof_C 	C 	0.396	0.82947	0.6994	0.413
Mof_C 	C 	0.4065	0.67146	0.8116	0.404
Mof_H 	H 	0.5324	0.7977	0.8275	0.009
Mof_C 	C 	0.59741	0.7838	0.9165	-0.108
Mof_C 	C 	0.5974	0.7376	0.9881	-0.118
Mof_H 	H 	0.5324	0.7209	0.947	0.004
Mof_C 	C 	0.3941	0.8744	0.6658	-0.165
Mof_O 	O 	0.35711	0.80846	0.6697	-0.467
Mof_C 	C 	0.4079	0.6281	0.8454	-0.15
Mof_O 	O 	0.36552	0.68847	0.7608	-0.464
Mof_O 	O 	0.35434	0.78901	0.7685	-0.467
Mof_O 	O 	0.36102	0.70734	0.65266	-0.469
Mof_H 	H 	0.6135	0.8009	0.9081	0.075
Mof_C 	C 	0.62236	0.76	0.9774	0.027
Mof_H 	H 	0.6131	0.7225	0.0293	0.078
Mof_C 	C 	0.4345	0.8988	0.693	0.099
Mof_C 	C 	0.3515	0.8904	0.6039	0.096
Mof_Zn	Zn	0.34709	0.7468	0.70077	1.216
Mof_C 	C 	0.4513	0.6047	0.8983	0.085
Mof_C 	C 	0.3668	0.6103	0.8253	0.08
Mof_C 	C 	0.6754	0.759	0.0292	0.15
Mof_H 	H 	0.4633	0.8899	0.7354	0.01
Mof_C 	C 	0.4333	0.937	0.6582	-0.179
Mof_C 	C 	0.3499	0.928	0.568	-0.178
Mof_H 	H 	0.3233	0.8757	0.5859	0.012
Mof_N 	N 	0.27453	0.74242	0.6282	-0.291
Mof_H 	H 	0.479	0.6147	0.9101	0.015
Mof_C 	C 	0.4526	0.5671	0.9325	-0.151
Mof_C 	C 	0.3689	0.5703	0.8603	-0.158
Mof_H 	H 	0.3376	0.6245	0.789	0.018
Mof_C 	C 	0.7007	0.7699	0.0172	-0.234
Mof_C 	C 	0.7011	0.7502	0.0948	-0.211
Mof_H 	H 	0.4613	0.953	0.6777	0.093
Mof_C 	C 	0.391	0.9513	0.5951	0.136
Mof_H 	H 	0.3211	0.9372	0.5259	0.116
Mof_H 	H 	0.4818	0.5533	0.9693	0.103
Mof_C 	C 	0.4106	0.5486	0.913	0.115
Mof_H 	H 	0.3409	0.5588	0.8468	0.09
Mof_C 	C 	0.7505	0.7688	0.0685	0.172
Mof_H 	H 	0.6859	0.7787	0.9736	0.119
Mof_H 	H 	0.6854	0.743	0.1083	0.108
Mof_C 	C 	0.7502	0.7515	0.143	0.147
Mof_C 	C 	0.389	0.9922	0.5576	-0.067
Mof_C 	C 	0.414	0.5092	0.9516	-0.039
Mof_H 	H 	0.7669	0.7774	0.0564	-0.033
Mof_H 	H 	0.7662	0.7477	0.1883	-0.022
Mof_C 	C 	0.3688	0.9814	0.4923	0.146
Mof_C 	C 	0.4208	0.0289	0.5955	-0.055
Mof_C 	C 	0.3859	0.4708	0.9182	-0.113
Mof_C 	C 	0.4504	0.5049	0.0225	0.127
Mof_C 	C 	0.36	0.02	0.4545	-0.119
Mof_O 	O 	0.3301	0.9504	0.4587	-0.197
Mof_C 	C 	0.4149	0.0659	0.546	0.083
Mof_H 	H 	0.4422	0.0317	0.6424	0.053
Mof_C 	C 	0.3954	0.4287	0.9685	0.298
Mof_H 	H 	0.3632	0.4682	0.8712	0.089
Mof_C 	C 	0.4471	0.4735	0.0575	-0.066
Mof_O 	O 	0.4848	0.5385	0.0618	-0.19
Mof_H 	H 	0.3338	0.0182	0.4081	0.077
Mof_C 	C 	0.3884	0.0636	0.4808	-0.038
Mof_C 	C 	0.2917	0.949	0.38	-0.09
Mof_O 	O 	0.4518	0.1095	0.597	-0.187
Mof_C 	C 	0.4109	0.4356	0.0235	-0.174
Mof_O 	O 	0.3626	0.408	0.9269	-0.275
Mof_H 	H 	0.4686	0.4763	0.1043	0.072
Mof_C 	C 	0.3902	0.1011	0.4447	0.121
Mof_H 	H 	0.3	0.9694	0.3606	0.056
Mof_H 	H 	0.2853	0.9161	0.3626	0.069
Mof_C 	C 	0.2508	0.97	0.3691	0.079
Mof_C 	C 	0.4867	0.1116	0.6697	0.042
Mof_C 	C 	0.408	0.3986	0.0588	0.182
Mof_C 	C 	0.432	0.1189	0.4687	-0.165
Mof_C 	C 	0.3483	0.1184	0.3835	-0.164
Mof_H 	H 	0.2277	0.9767	0.3209	0.004
Mof_H 	H 	0.2633	0.0018	0.3903	0.015
Mof_C 	C 	0.2181	0.9586	0.3811	-0.432
Mof_H 	H 	0.4751	0.0996	0.6894	0.021
Mof_H 	H 	0.5165	0.0961	0.6905	0.02
Mof_C 	C 	0.4886	0.1698	0.6685	-0.145
Mof_C 	C 	0.4491	0.3757	0.1182	-0.198
Mof_C 	C 	0.3655	0.3872	0.039	-0.205
Mof_C 	C 	0.4339	0.1503	0.43	0.095
Mof_H 	H 	0.4601	0.1101	0.512	0.103
Mof_H 	H 	0.3193	0.1091	0.3682	0.093
Mof_C 	C 	0.3494	0.1501	0.3443	0.093
Mof_H 	H 	0.2251	0.9828	0.4128	0.157
Mof_H 	H 	0.1857	0.9645	0.3385	0.157
Mof_C 	C 	0.2182	0.9204	0.4008	0.253
Mof_H 	H 	0.5151	0.1771	0.7161	0.076
Mof_H 	H 	0.501	0.1747	0.6481	0.09
Mof_C 	C 	0.4481	0.3433	0.1554	0.107
Mof_H 	H 	0.4783	0.3829	0.1327	0.109
Mof_H 	H 	0.3374	0.4006	0.9995	0.119
Mof_C 	C 	0.3639	0.3557	0.0773	0.12
Mof_H 	H 	0.4631	0.1604	0.4464	0.015
Mof_C 	C 	0.3921	0.1661	0.3674	-0.166
Mof_H 	H 	0.3211	0.1604	0.3023	0.017
Mof_H 	H 	0.1956	0.9207	0.4049	-0.05
Mof_H 	H 	0.2494	0.9139	0.4442	-0.041
Mof_H 	H 	0.2097	0.8955	0.3694	-0.038
Mof_C 	C 	0.40351	0.33424	0.1336	-0.167
Mof_H 	H 	0.4756	0.328	0.1934	0.012
Mof_H 	H 	0.3349	0.3494	0.0637	0.005
Mof_C 	C 	0.3931	0.1987	0.3254	0.431
Mof_C 	C 	0.40136	0.30102	0.1758	0.41
Mof_Zn	Zn	0.95144	0.74687	0.3046	1.216
Mof_N 	N 	0.02329	0.74136	0.3786	-0.249
Mof_O 	O 	0.93585	0.68387	0.25236	-0.47
Mof_O 	O 	0.94483	0.81128	0.3348	-0.464
Mof_O 	O 	0.93255	0.71225	0.34902	-0.476
Mof_O 	O 	0.93995	0.78401	0.2299	-0.468
Mof_C 	C 	0.04879	0.7179	0.3687	0.07
Mof_C 	C 	0.0487	0.7628	0.4383	0.082
Mof_C 	C 	0.896	0.67053	0.1994	0.413
Mof_C 	C 	0.9065	0.82854	0.3116	0.404
Mof_H 	H 	0.0324	0.7023	0.3275	0.009
Mof_C 	C 	0.09741	0.7162	0.4165	-0.108
Mof_C 	C 	0.0974	0.7624	0.4881	-0.118
Mof_H 	H 	0.0324	0.7791	0.447	0.004
Mof_C 	C 	0.8941	0.6256	0.1658	-0.165
Mof_O 	O 	0.85711	0.69154	0.1697	-0.467
Mof_C 	C 	0.9079	0.8719	0.3454	-0.15
Mof_O 	O 	0.86552	0.81153	0.2608	-0.464
Mof_O 	O 	0.85434	0.71099	0.2685	-0.467
Mof_O 	O 	0.86102	0.79266	0.15266	-0.469
Mof_H 	H 	0.1135	0.6991	0.4081	0.075
Mof_C 	C 	0.12236	0.74	0.4774	0.027
Mof_H 	H 	0.1131	0.7775	0.5293	0.078
Mof_C 	C 	0.9345	0.6012	0.193	0.099
Mof_C 	C 	0.8515	0.6096	0.1039	0.095
Mof_Zn	Zn	0.84709	0.7532	0.20077	1.216
Mof_C 	C 	0.9513	0.8953	0.3983	0.085
Mof_C 	C 	0.8668	0.8897	0.3253	0.08
Mof_C 	C 	0.1754	0.741	0.5292	0.15
Mof_H 	H 	0.9633	0.6101	0.2354	0.01
Mof_C 	C 	0.9333	0.563	0.1582	-0.179
Mof_C 	C 	0.8499	0.572	0.068	-0.178
Mof_H 	H 	0.8233	0.6243	0.0859	0.012
Mof_N 	N 	0.77453	0.75758	0.1282	-0.291
Mof_H 	H 	0.979	0.8853	0.4101	0.015
Mof_C 	C 	0.9526	0.9329	0.4325	-0.151
Mof_C 	C 	0.8689	0.9297	0.3603	-0.158
Mof_H 	H 	0.8376	0.8755	0.289	0.018
Mof_C 	C 	0.2007	0.7301	0.5172	-0.235
Mof_C 	C 	0.2011	0.7498	0.5948	-0.211
Mof_H 	H 	0.9613	0.547	0.1777	0.093
Mof_C 	C 	0.891	0.5487	0.0951	0.136
Mof_H 	H 	0.8211	0.5628	0.0259	0.116
Mof_H 	H 	0.9818	0.9467	0.4693	0.103
Mof_C 	C 	0.9106	0.9514	0.413	0.115
Mof_H 	H 	0.8409	0.9412	0.3468	0.09
Mof_C 	C 	0.2505	0.7312	0.5685	0.172
Mof_H 	H 	0.1859	0.7213	0.4736	0.119
Mof_H 	H 	0.1854	0.757	0.6083	0.108
Mof_C 	C 	0.2502	0.7485	0.643	0.147
Mof_C 	C 	0.889	0.5078	0.0576	-0.067
Mof_C 	C 	0.914	0.9908	0.4516	-0.039
Mof_H 	H 	0.2669	0.7226	0.5564	-0.033
Mof_H 	H 	0.2662	0.7523	0.6883	-0.022
Mof_C 	C 	0.8688	0.5186	0.9923	0.146
Mof_C 	C 	0.9208	0.4711	0.0955	-0.055
Mof_C 	C 	0.8859	0.0292	0.4182	-0.113
Mof_C 	C 	0.9504	0.9951	0.5225	0.127
Mof_C 	C 	0.86	0.48	0.9545	-0.118
Mof_O 	O 	0.8301	0.5496	0.9587	-0.196
Mof_C 	C 	0.9149	0.4341	0.046	0.084
Mof_H 	H 	0.9422	0.4683	0.1424	0.054
Mof_C 	C 	0.8954	0.0713	0.4685	0.297
Mof_H 	H 	0.8632	0.0318	0.3712	0.089
Mof_C 	C 	0.9471	0.0265	0.5575	-0.067
Mof_O 	O 	0.9848	0.9615	0.5618	-0.19
Mof_H 	H 	0.8338	0.4818	0.9081	0.077
Mof_C 	C 	0.8884	0.4364	0.9808	-0.039
Mof_C 	C 	0.7917	0.551	0.88	-0.09
Mof_O 	O 	0.9518	0.3905	0.097	-0.187
Mof_C 	C 	0.9109	0.0644	0.5235	-0.173
Mof_O 	O 	0.8626	0.092	0.4269	-0.275
Mof_H 	H 	0.9686	0.0237	0.6043	0.072
Mof_C 	C 	0.8902	0.3989	0.9447	0.122
Mof_H 	H 	0.8	0.5306	0.8606	0.056
Mof_H 	H 	0.7853	0.5839	0.8626	0.069
Mof_C 	C 	0.7508	0.53	0.8691	0.079
Mof_C 	C 	0.9867	0.3884	0.1697	0.043
Mof_C 	C 	0.908	0.1014	0.5588	0.182
Mof_C 	C 	0.932	0.3811	0.9687	-0.167
Mof_C 	C 	0.8483	0.3816	0.8835	-0.165
Mof_H 	H 	0.7277	0.5233	0.8209	0.004
Mof_H 	H 	0.7633	0.4982	0.8903	0.015
Mof_C 	C 	0.7181	0.5414	0.8811	-0.432
Mof_H 	H 	0.9751	0.4004	0.1894	0.021
Mof_H 	H 	0.0165	0.4039	0.1905	0.02
Mof_C 	C 	0.9886	0.3302	0.1685	-0.145
Mof_C 	C 	0.9491	0.1243	0.6182	-0.198
Mof_C 	C 	0.8655	0.1128	0.539	-0.205
Mof_C 	C 	0.9339	0.3497	0.93	0.096
Mof_H 	H 	0.9601	0.3899	0.012	0.104
Mof_H 	H 	0.8193	0.3909	0.8682	0.093
Mof_C 	C 	0.8494	0.3499	0.8443	0.094
Mof_H 	H 	0.7251	0.5172	0.9128	0.157
Mof_H 	H 	0.6857	0.5355	0.8385	0.157
Mof_C 	C 	0.7182	0.5796	0.9008	0.253
Mof_H 	H 	0.0151	0.3229	0.2161	0.075
Mof_H 	H 	0.001	0.3253	0.1481	0.089
Mof_C 	C 	0.9481	0.1567	0.6554	0.107
Mof_H 	H 	0.9783	0.1171	0.6327	0.109
Mof_H 	H 	0.8374	0.0994	0.4995	0.119
Mof_C 	C 	0.8639	0.1443	0.5773	0.12
Mof_H 	H 	0.9631	0.3396	0.9464	0.015
Mof_C 	C 	0.8921	0.3339	0.8674	-0.166
Mof_H 	H 	0.8211	0.3396	0.8023	0.017
Mof_H 	H 	0.6956	0.5793	0.9049	-0.05
Mof_H 	H 	0.7494	0.5861	0.9442	-0.041
Mof_H 	H 	0.7097	0.6045	0.8694	-0.038
Mof_C 	C 	0.90351	0.16576	0.6336	-0.167
Mof_H 	H 	0.9756	0.172	0.6934	0.012
Mof_H 	H 	0.8349	0.1506	0.5637	0.005
Mof_C 	C 	0.8931	0.3013	0.8254	0.431
Mof_C 	C 	0.90136	0.19898	0.6758	0.41
Mof_Zn	Zn	0.45144	0.24687	0.3046	1.216
Mof_N 	N 	0.52329	0.24136	0.3786	-0.248
Mof_O 	O 	0.43585	0.18387	0.25236	-0.47
Mof_O 	O 	0.44483	0.31128	0.3348	-0.464
Mof_O 	O 	0.43255	0.21225	0.34902	-0.475
Mof_O 	O 	0.43995	0.28401	0.2299	-0.469
Mof_C 	C 	0.54879	0.2179	0.3687	0.07
Mof_C 	C 	0.5487	0.2628	0.4383	0.082
Mof_C 	C 	0.396	0.17053	0.1994	0.413
Mof_C 	C 	0.4065	0.32854	0.3116	0.404
Mof_H 	H 	0.5324	0.2023	0.3275	0.009
Mof_C 	C 	0.59741	0.2162	0.4165	-0.108
Mof_C 	C 	0.5974	0.2624	0.4881	-0.118
Mof_H 	H 	0.5324	0.2791	0.447	0.004
Mof_C 	C 	0.3941	0.1256	0.1658	-0.165
Mof_O 	O 	0.35711	0.19154	0.1697	-0.467
Mof_C 	C 	0.4079	0.3719	0.3454	-0.15
Mof_O 	O 	0.36552	0.31153	0.2608	-0.464
Mof_O 	O 	0.35434	0.21099	0.2685	-0.467
Mof_O 	O 	0.36102	0.29266	0.15266	-0.469
Mof_H 	H 	0.6135	0.1991	0.4081	0.075
Mof_C 	C 	0.62236	0.24	0.4774	0.027
Mof_H 	H 	0.6131	0.2775	0.5293	0.078
Mof_C 	C 	0.4345	0.1012	0.193	0.099
Mof_C 	C 	0.3515	0.1096	0.1039	0.096
Mof_Zn	Zn	0.34709	0.2532	0.20077	1.216
Mof_C 	C 	0.4513	0.3953	0.3983	0.085
Mof_C 	C 	0.3668	0.3897	0.3253	0.08
Mof_C 	C 	0.6754	0.241	0.5292	0.15
Mof_H 	H 	0.4633	0.1101	0.2354	0.01
Mof_C 	C 	0.4333	0.063	0.1582	-0.179
Mof_C 	C 	0.3499	0.072	0.068	-0.178
Mof_H 	H 	0.3233	0.1243	0.0859	0.012
Mof_N 	N 	0.27453	0.25758	0.1282	-0.291
Mof_H 	H 	0.479	0.3853	0.4101	0.015
Mof_C 	C 	0.4526	0.4329	0.4325	-0.151
Mof_C 	C 	0.3689	0.4297	0.3603	-0.158
Mof_H 	H 	0.3376	0.3755	0.289	0.018
Mof_C 	C 	0.7007	0.2301	0.5172	-0.235
Mof_C 	C 	0.7011	0.2498	0.5948	-0.211
Mof_H 	H 	0.4613	0.047	0.1777	0.093
Mof_C 	C 	0.391	0.0487	0.0951	0.136
Mof_H 	H 	0.3211	0.0628	0.0259	0.116
Mof_H 	H 	0.4818	0.4467	0.4693	0.103
Mof_C 	C 	0.4106	0.4514	0.413	0.116
Mof_H 	H 	0.3409	0.4412	0.3468	0.09
Mof_C 	C 	0.7505	0.2312	0.5685	0.172
Mof_H 	H 	0.6859	0.2213	0.4736	0.12
Mof_H 	H 	0.6854	0.257	0.6083	0.108
Mof_C 	C 	0.7502	0.2485	0.643	0.147
Mof_C 	C 	0.389	0.0078	0.0576	-0.067
Mof_C 	C 	0.414	0.4908	0.4516	-0.039
Mof_H 	H 	0.7669	0.2226	0.5564	-0.033
Mof_H 	H 	0.7662	0.2523	0.6883	-0.022
Mof_C 	C 	0.3688	0.0186	0.9923	0.146
Mof_C 	C 	0.4208	0.9711	0.0955	-0.055
Mof_C 	C 	0.3859	0.5292	0.4182	-0.113
Mof_C 	C 	0.4504	0.4951	0.5225	0.127
Mof_C 	C 	0.36	0.98	0.9545	-0.119
Mof_O 	O 	0.3301	0.0496	0.9587	-0.196
Mof_C 	C 	0.4149	0.9341	0.046	0.083
Mof_H 	H 	0.4422	0.9683	0.1424	0.053
Mof_C 	C 	0.3954	0.5713	0.4685	0.297
Mof_H 	H 	0.3632	0.5318	0.3712	0.089
Mof_C 	C 	0.4471	0.5265	0.5575	-0.067
Mof_O 	O 	0.4848	0.4615	0.5618	-0.19
Mof_H 	H 	0.3338	0.9818	0.9081	0.077
Mof_C 	C 	0.3884	0.9364	0.9808	-0.038
Mof_C 	C 	0.2917	0.051	0.88	-0.09
Mof_O 	O 	0.4518	0.8905	0.097	-0.187
Mof_C 	C 	0.4109	0.5644	0.5235	-0.173
Mof_O 	O 	0.3626	0.592	0.4269	-0.275
Mof_H 	H 	0.4686	0.5237	0.6043	0.072
Mof_C 	C 	0.3902	0.8989	0.9447	0.121
Mof_H 	H 	0.3	0.0306	0.8606	0.056
Mof_H 	H 	0.2853	0.0839	0.8626	0.069
Mof_C 	C 	0.2508	0.03	0.8691	0.079
Mof_C 	C 	0.4867	0.8884	0.1697	0.042
Mof_C 	C 	0.408	0.6014	0.5588	0.182
Mof_C 	C 	0.432	0.8811	0.9687	-0.165
Mof_C 	C 	0.3483	0.8816	0.8835	-0.164
Mof_H 	H 	0.2277	0.0233	0.8209	0.004
Mof_H 	H 	0.2633	0.9982	0.8903	0.015
Mof_C 	C 	0.2181	0.0414	0.8811	-0.432
Mof_H 	H 	0.4751	0.9004	0.1894	0.021
Mof_H 	H 	0.5165	0.9039	0.1905	0.02
Mof_C 	C 	0.4886	0.8302	0.1685	-0.145
Mof_C 	C 	0.4491	0.6243	0.6182	-0.198
Mof_C 	C 	0.3655	0.6128	0.539	-0.205
Mof_C 	C 	0.4339	0.8497	0.93	0.095
Mof_H 	H 	0.4601	0.8899	0.012	0.103
Mof_H 	H 	0.3193	0.8909	0.8682	0.093
Mof_C 	C 	0.3494	0.8499	0.8443	0.093
Mof_H 	H 	0.2251	0.0172	0.9128	0.157
Mof_H 	H 	0.1857	0.0355	0.8385	0.157
Mof_C 	C 	0.2182	0.0796	0.9008	0.253
Mof_H 	H 	0.5151	0.8229	0.2161	0.076
Mof_H 	H 	0.501	0.8253	0.1481	0.09
Mof_C 	C 	0.4481	0.6567	0.6554	0.107
Mof_H 	H 	0.4783	0.6171	0.6327	0.109
Mof_H 	H 	0.3374	0.5994	0.4995	0.119
Mof_C 	C 	0.3639	0.6443	0.5773	0.12
Mof_H 	H 	0.4631	0.8396	0.9464	0.015
Mof_C 	C 	0.3921	0.8339	0.8674	-0.166
Mof_H 	H 	0.3211	0.8396	0.8023	0.017
Mof_H 	H 	0.1956	0.0793	0.9049	-0.05
Mof_H 	H 	0.2494	0.0861	0.9442	-0.041
Mof_H 	H 	0.2097	0.1045	0.8694	-0.038
Mof_C 	C 	0.40351	0.66576	0.6336	-0.167
Mof_H 	H 	0.4756	0.672	0.6934	0.012
Mof_H 	H 	0.3349	0.6506	0.5637	0.006
Mof_C 	C 	0.3931	0.8013	0.8254	0.431
Mof_C 	C 	0.40136	0.69898	0.6758	0.41
_end
