# CIF file generated by openbabel 3.1.0, see https://openbabel.org
data_I
_chemical_name_common 'image0'
_cell_length_a 10.615
_cell_length_b 9.6419
_cell_length_c 28.48
_cell_angle_alpha 90
_cell_angle_beta 94.819
_cell_angle_gamma 90
_space_group_name_H-M_alt 'P 1'
_space_group_name_Hall 'P 1'
loop_
    _symmetry_equiv_pos_as_xyz
    x,y,z
loop_
    _atom_site_label
    _atom_site_type_symbol
    _atom_site_fract_x
    _atom_site_fract_y
    _atom_site_fract_z
    _atom_site_occupancy
    Mn1      Mn       0.55212    0.19468    0.09425    1.000
    Mn2      Mn       0.76770    0.26041    0.69087    1.000
    O1       O        0.35143    0.14870    0.09054    1.000
    O2       O        0.34380    0.00510    0.02878    1.000
    O3       O        0.90440    0.21530    0.14198    1.000
    O4       O        0.74840    0.23430    0.08571    1.000
    O5       O        0.47280    0.62010    0.86720    1.000
    O6       O        0.29750    0.55570    0.82418    1.000
    O7       O        0.38770    0.89580    0.83569    1.000
    O8       O        0.24140    0.02990    0.80041    1.000
    O9       O        0.91070    0.20990    0.75057    1.000
    O10      O        0.71900    0.25710    0.76477    1.000
    C1       C        0.29510    0.09220    0.05434    1.000
    C2       C        0.16090    0.13440    0.04084    1.000
    C3       C        0.07920    0.16480    0.07546    1.000
    H1       H        0.10890    0.16360    0.10710    1.000
    C4       C        0.95400    0.19670    0.06252    1.000
    C5       C        0.91180    0.20530    0.01461    1.000
    H2       H        0.82810    0.22930    0.00610    1.000
    C6       C        0.99160    0.17900    0.97957    1.000
    C7       C        0.11640    0.13960    0.99386    1.000
    H3       H        0.17060    0.11640    0.97110    1.000
    C8       C        0.86190    0.21710    0.09947    1.000
    C9       C        0.94870    0.18790    0.92823    1.000
    C10      C        0.82120    0.20820    0.91309    1.000
    H4       H        0.76320    0.21690    0.93560    1.000
    C11      C        0.77730    0.21590    0.86545    1.000
    C12      C        0.86420    0.20620    0.83139    1.000
    C13      C        0.99140    0.18300    0.84621    1.000
    H5       H        0.04950    0.17350    0.82370    1.000
    C14      C        0.03260    0.17410    0.89301    1.000
    H6       H        0.11790    0.15850    0.90160    1.000
    C15      C        0.63790    0.23430    0.85398    1.000
    C16      C        0.58460    0.36590    0.85524    1.000
    H7       H        0.63610    0.44170    0.86340    1.000
    C17      C        0.45480    0.38650    0.84440    1.000
    C18      C        0.37790    0.27230    0.83303    1.000
    H8       H        0.29190    0.28480    0.82510    1.000
    C19      C        0.42960    0.13970    0.83356    1.000
    C20      C        0.55940    0.12150    0.84351    1.000
    H9       H        0.59370    0.03280    0.84310    1.000
    C21      C        0.40380    0.53140    0.84537    1.000
    C22      C        0.34690    0.01570    0.82223    1.000
    C23      C        0.82870    0.22470    0.77952    1.000
    Mn3      Mn       0.44788    0.69468    0.40575    1.000
    Mn4      Mn       0.23230    0.76041    0.80913    1.000
    O11      O        0.64857    0.64870    0.40946    1.000
    O12      O        0.65620    0.50510    0.47122    1.000
    O13      O        0.09560    0.71530    0.35802    1.000
    O14      O        0.25160    0.73430    0.41429    1.000
    O15      O        0.52720    0.12010    0.63280    1.000
    O16      O        0.70250    0.05570    0.67582    1.000
    O17      O        0.61230    0.39580    0.66431    1.000
    O18      O        0.75860    0.52990    0.69959    1.000
    O19      O        0.08930    0.70990    0.74943    1.000
    O20      O        0.28100    0.75710    0.73523    1.000
    C24      C        0.70490    0.59220    0.44566    1.000
    C25      C        0.83910    0.63440    0.45916    1.000
    C26      C        0.92080    0.66480    0.42454    1.000
    H10      H        0.89110    0.66360    0.39290    1.000
    C27      C        0.04600    0.69670    0.43748    1.000
    C28      C        0.08820    0.70530    0.48539    1.000
    H11      H        0.17190    0.72930    0.49390    1.000
    C29      C        0.00840    0.67900    0.52043    1.000
    C30      C        0.88360    0.63960    0.50614    1.000
    H12      H        0.82940    0.61640    0.52890    1.000
    C31      C        0.13810    0.71710    0.40053    1.000
    C32      C        0.05130    0.68790    0.57177    1.000
    C33      C        0.17880    0.70820    0.58691    1.000
    H13      H        0.23680    0.71690    0.56440    1.000
    C34      C        0.22270    0.71590    0.63455    1.000
    C35      C        0.13580    0.70620    0.66861    1.000
    C36      C        0.00860    0.68300    0.65379    1.000
    H14      H        0.95050    0.67350    0.67630    1.000
    C37      C        0.96740    0.67410    0.60699    1.000
    H15      H        0.88210    0.65850    0.59840    1.000
    C38      C        0.36210    0.73430    0.64602    1.000
    C39      C        0.41540    0.86590    0.64476    1.000
    H16      H        0.36390    0.94170    0.63660    1.000
    C40      C        0.54520    0.88650    0.65560    1.000
    C41      C        0.62210    0.77230    0.66697    1.000
    H17      H        0.70810    0.78480    0.67490    1.000
    C42      C        0.57040    0.63970    0.66644    1.000
    C43      C        0.44060    0.62150    0.65649    1.000
    H18      H        0.40630    0.53280    0.65690    1.000
    C44      C        0.59620    0.03140    0.65463    1.000
    C45      C        0.65310    0.51570    0.67777    1.000
    C46      C        0.17130    0.72470    0.72048    1.000
    Mn5      Mn       0.44788    0.80532    0.90575    1.000
    Mn6      Mn       0.23230    0.73959    0.30913    1.000
    O21      O        0.64857    0.85130    0.90946    1.000
    O22      O        0.65620    0.99490    0.97122    1.000
    O23      O        0.09560    0.78470    0.85802    1.000
    O24      O        0.25160    0.76570    0.91429    1.000
    O25      O        0.52720    0.37990    0.13280    1.000
    O26      O        0.70250    0.44430    0.17582    1.000
    O27      O        0.61230    0.10420    0.16431    1.000
    O28      O        0.75860    0.97010    0.19959    1.000
    O29      O        0.08930    0.79010    0.24943    1.000
    O30      O        0.28100    0.74290    0.23523    1.000
    C47      C        0.70490    0.90780    0.94566    1.000
    C48      C        0.83910    0.86560    0.95916    1.000
    C49      C        0.92080    0.83520    0.92454    1.000
    H19      H        0.89110    0.83640    0.89290    1.000
    C50      C        0.04600    0.80330    0.93748    1.000
    C51      C        0.08820    0.79470    0.98539    1.000
    H20      H        0.17190    0.77070    0.99390    1.000
    C52      C        0.00840    0.82100    0.02043    1.000
    C53      C        0.88360    0.86040    0.00614    1.000
    H21      H        0.82940    0.88360    0.02890    1.000
    C54      C        0.13810    0.78290    0.90053    1.000
    C55      C        0.05130    0.81210    0.07177    1.000
    C56      C        0.17880    0.79180    0.08691    1.000
    H22      H        0.23680    0.78310    0.06440    1.000
    C57      C        0.22270    0.78410    0.13455    1.000
    C58      C        0.13580    0.79380    0.16861    1.000
    C59      C        0.00860    0.81700    0.15379    1.000
    H23      H        0.95050    0.82650    0.17630    1.000
    C60      C        0.96740    0.82590    0.10699    1.000
    H24      H        0.88210    0.84150    0.09840    1.000
    C61      C        0.36210    0.76570    0.14602    1.000
    C62      C        0.41540    0.63410    0.14476    1.000
    H25      H        0.36390    0.55830    0.13660    1.000
    C63      C        0.54520    0.61350    0.15560    1.000
    C64      C        0.62210    0.72770    0.16697    1.000
    H26      H        0.70810    0.71520    0.17490    1.000
    C65      C        0.57040    0.86030    0.16644    1.000
    C66      C        0.44060    0.87850    0.15649    1.000
    H27      H        0.40630    0.96720    0.15690    1.000
    C67      C        0.59620    0.46860    0.15463    1.000
    C68      C        0.65310    0.98430    0.17777    1.000
    C69      C        0.17130    0.77530    0.22048    1.000
    Mn7      Mn       0.55212    0.30532    0.59425    1.000
    Mn8      Mn       0.76770    0.23959    0.19087    1.000
    O31      O        0.35143    0.35130    0.59054    1.000
    O32      O        0.34380    0.49490    0.52878    1.000
    O33      O        0.90440    0.28470    0.64198    1.000
    O34      O        0.74840    0.26570    0.58571    1.000
    O35      O        0.47280    0.87990    0.36720    1.000
    O36      O        0.29750    0.94430    0.32418    1.000
    O37      O        0.38770    0.60420    0.33569    1.000
    O38      O        0.24140    0.47010    0.30041    1.000
    O39      O        0.91070    0.29010    0.25057    1.000
    O40      O        0.71900    0.24290    0.26477    1.000
    C70      C        0.29510    0.40780    0.55434    1.000
    C71      C        0.16090    0.36560    0.54084    1.000
    C72      C        0.07920    0.33520    0.57546    1.000
    H28      H        0.10890    0.33640    0.60710    1.000
    C73      C        0.95400    0.30330    0.56252    1.000
    C74      C        0.91180    0.29470    0.51461    1.000
    H29      H        0.82810    0.27070    0.50610    1.000
    C75      C        0.99160    0.32100    0.47957    1.000
    C76      C        0.11640    0.36040    0.49386    1.000
    H30      H        0.17060    0.38360    0.47110    1.000
    C77      C        0.86190    0.28290    0.59947    1.000
    C78      C        0.94870    0.31210    0.42823    1.000
    C79      C        0.82120    0.29180    0.41309    1.000
    H31      H        0.76320    0.28310    0.43560    1.000
    C80      C        0.77730    0.28410    0.36545    1.000
    C81      C        0.86420    0.29380    0.33139    1.000
    C82      C        0.99140    0.31700    0.34621    1.000
    H32      H        0.04950    0.32650    0.32370    1.000
    C83      C        0.03260    0.32590    0.39301    1.000
    H33      H        0.11790    0.34150    0.40160    1.000
    C84      C        0.63790    0.26570    0.35398    1.000
    C85      C        0.58460    0.13410    0.35524    1.000
    H34      H        0.63610    0.05830    0.36340    1.000
    C86      C        0.45480    0.11350    0.34440    1.000
    C87      C        0.37790    0.22770    0.33303    1.000
    H35      H        0.29190    0.21520    0.32510    1.000
    C88      C        0.42960    0.36030    0.33356    1.000
    C89      C        0.55940    0.37850    0.34351    1.000
    H36      H        0.59370    0.46720    0.34310    1.000
    C90      C        0.40380    0.96860    0.34537    1.000
    C91      C        0.34690    0.48430    0.32223    1.000
    C92      C        0.82870    0.27530    0.27952    1.000
