# CIF file generated by openbabel 3.1.0, see https://openbabel.org
data_I
_chemical_name_common 'image0'
_cell_length_a 8.4377
_cell_length_b 9.3015
_cell_length_c 12.848
_cell_angle_alpha 90
_cell_angle_beta 105.566
_cell_angle_gamma 90
_space_group_name_H-M_alt 'P 1'
_space_group_name_Hall 'P 1'
loop_
    _symmetry_equiv_pos_as_xyz
    x,y,z
loop_
    _atom_site_label
    _atom_site_type_symbol
    _atom_site_fract_x
    _atom_site_fract_y
    _atom_site_fract_z
    _atom_site_occupancy
    Mn1      Mn       0.25629    0.74864    0.00990    1.000
    N1       N        0.32199    0.79673    0.18720    1.000
    N2       N        0.26717    0.79872    0.26128    1.000
    N3       N        0.21297    0.80513    0.33538    1.000
    N4       N        0.04234    0.61953    0.01655    1.000
    N5       N        0.10512    0.94532    0.97111    1.000
    N6       N        0.47992    0.87601    0.00714    1.000
    N7       N        0.42770    0.55994    0.05307    1.000
    Mn2      Mn       0.74371    0.24864    0.49010    1.000
    N8       N        0.67801    0.29673    0.31280    1.000
    N9       N        0.73283    0.29872    0.23872    1.000
    N10      N        0.78703    0.30513    0.16462    1.000
    N11      N        0.95766    0.11953    0.48345    1.000
    N12      N        0.89488    0.44532    0.52889    1.000
    N13      N        0.52008    0.37601    0.49286    1.000
    N14      N        0.57230    0.05994    0.44693    1.000
    Mn3      Mn       0.74371    0.25136    0.99010    1.000
    N15      N        0.67801    0.20327    0.81280    1.000
    N16      N        0.73283    0.20128    0.73872    1.000
    N17      N        0.78703    0.19487    0.66462    1.000
    N18      N        0.95766    0.38047    0.98345    1.000
    N19      N        0.89488    0.05468    0.02889    1.000
    N20      N        0.52008    0.12399    0.99286    1.000
    N21      N        0.57230    0.44006    0.94693    1.000
    Mn4      Mn       0.25629    0.75136    0.50990    1.000
    N22      N        0.32199    0.70327    0.68720    1.000
    N23      N        0.26717    0.70128    0.76128    1.000
    N24      N        0.21297    0.69487    0.83538    1.000
    N25      N        0.04234    0.88047    0.51655    1.000
    N26      N        0.10512    0.55468    0.47111    1.000
    N27      N        0.47992    0.62399    0.50714    1.000
    N28      N        0.42770    0.94006    0.55307    1.000
    N29      N        0.00000    0.50000    0.00000    1.000
    N30      N        0.00000    0.00000    0.50000    1.000
    N31      N        0.00000    0.00000    0.00000    1.000
    N32      N        0.00000    0.50000    0.50000    1.000
    N33      N        0.50000    0.00000    0.00000    1.000
    N34      N        0.50000    0.50000    0.50000    1.000
    N35      N        0.50000    0.50000    0.00000    1.000
    N36      N        0.50000    0.00000    0.50000    1.000
