data_functionalizedCrystal
_audit_creation_method	'EQeq! by Chris Wilmer'
_symmetry_space_group_name_H-M	'P1'
_symmetry_Int_Tables_number	1
_symmetry_cell_setting	triclinic
loop_
_symmetry_equiv_pos_as_xyz
  x,y,z
_cell_length_a	20.0414
_cell_length_b	16.259
_cell_length_c	23.996
_cell_angle_alpha	90
_cell_angle_beta	114.529
_cell_angle_gamma	90
loop_
_atom_site_label
_atom_site_type_symbol
_atom_site_fract_x
_atom_site_fract_y
_atom_site_fract_z
_atom_site_charge
Mof_Fe	Fe	0.3605	0.60368	0.74549	0.997
Mof_Fe	Fe	0.11507	0.39633	0.25451	0.995
Mof_N 	N 	0.74174	0.87542	0.98327	-0.328
Mof_O 	O 	0.31239	0.33844	0.66273	-0.381
Mof_O 	O 	0.14971	0.33856	0.33762	-0.383
Mof_O 	O 	0.8071	0.6659	0.76302	-0.378
Mof_O 	O 	0.45559	0.6661	0.76293	-0.378
Mof_O 	O 	0.03871	0.7019	0.21956	-0.288
Mof_O 	O 	0.68097	0.7017	0.21947	-0.304
Mof_O 	O 	0.74881	0.5942	0.25657	-0.311
Mof_O 	O 	0.4082	0.5693	0.83512	-0.388
Mof_O 	O 	0.00776	0.5941	0.25641	-0.292
Mof_O 	O 	0.0742	0.4308	0.16497	-0.385
Mof_C 	C 	0.14309	0.0682	0.49997	0.101
Mof_C 	C 	0.05477	0.1752	0.49987	0.084
Mof_C 	C 	0.12097	0.1492	0.50023	-0.145
Mof_C 	C 	0.17212	0.2164	0.49976	0.052
Mof_C 	C 	0.22093	0.25	0.555	-0.044
Mof_H 	H 	0.2247	0.2275	0.5927	0.059
Mof_C 	C 	0.16607	0.2499	0.44513	-0.043
Mof_H 	H 	0.1324	0.2271	0.4075	0.06
Mof_C 	C 	0.662	0.7829	0.82458	0.048
Mof_C 	C 	0.6768	0.9317	0.85349	0.103
Mof_C 	C 	0.8075	0.9322	0.1146	0.102
Mof_C 	C 	0.2647	0.3175	0.5546	-0.089
Mof_C 	C 	0.5923	0.7502	0.80467	-0.04
Mof_H 	H 	0.5581	0.7722	0.8188	0.065
Mof_C 	C 	0.2093	0.3175	0.44464	-0.092
Mof_C 	C 	0.7976	0.8506	0.09471	-0.145
Mof_C 	C 	0.2593	0.3492	0.5001	0.034
Mof_H 	H 	0.2903	0.3935	0.5001	0.052
Mof_C 	C 	0.7166	0.8249	0.93358	0.094
Mof_C 	C 	0.7678	0.8242	0.0348	0.09
Mof_C 	C 	0.822	0.7852	0.14394	0.089
Mof_C 	C 	0.212	0.042	0.4999	-0.17
Mof_H 	H 	0.2501	0.0767	0.4998	0.085
Mof_C 	C 	0.6866	0.8511	0.8733	-0.133
Mof_C 	C 	0.7124	0.7501	0.80485	-0.038
Mof_H 	H 	0.7605	0.7722	0.8189	0.064
Mof_C 	C 	0.5726	0.6841	0.76344	-0.086
Mof_C 	C 	0.6911	0.6836	0.76362	-0.089
Mof_C 	C 	0.7742	0.7559	0.166	-0.095
Mof_H 	H 	0.7261	0.7781	0.1514	0.082
Mof_C 	C 	0.7577	0.7397	0.0159	-0.077
Mof_H 	H 	0.7699	0.6928	0.0418	0.067
Mof_C 	C 	0.8923	0.7559	0.1661	-0.097
Mof_H 	H 	0.9257	0.7783	0.1514	0.08
Mof_C 	C 	0.7271	0.7397	0.9535	-0.072
Mof_H 	H 	0.7149	0.6925	0.9278	0.066
Mof_C 	C 	0.7388	0.661	0.2302	0.292
Mof_C 	C 	0.6218	0.6509	0.74394	0.035
Mof_H 	H 	0.6082	0.6052	0.7168	0.054
Mof_C 	C 	0.9154	0.6941	0.2097	-0.016
Mof_C 	C 	0.0334	0.2588	0.4995	-0.054
Mof_H 	H 	0.0611	0.3058	0.4988	0.063
Mof_C 	C 	0.8393	0.9587	0.17892	0.017
Mof_H 	H 	0.8566	0.924	0.2139	0.034
Mof_C 	C 	0.6447	0.9585	0.79	0.019
Mof_H 	H 	0.627	0.9239	0.7549	0.044
Mof_C 	C 	0.7951	0.6938	0.2098	-0.02
Mof_C 	C 	0.7441	0.6413	0.7442	0.409
Mof_C 	C 	0.9912	0.6617	0.2303	0.26
Mof_C 	C 	0.3149	0.3585	0.614	0.406
Mof_C 	C 	0.4995	0.6408	0.7438	0.411
Mof_C 	C 	0.2006	0.3583	0.3858	0.41
Mof_C 	C 	0.8659	0.6623	0.2304	-0.035
Mof_H 	H 	0.8803	0.6184	0.2591	0.074
Mof_O 	O 	0.5015	0.5672	0.7185	-0.191
Mof_O 	O 	0.3701	0.3986	0.6159	-0.25
Mof_O 	O 	0.7166	0.5663	0.7179	-0.196
Mof_O 	O 	0.2535	0.3984	0.3837	-0.253
Mof_O 	O 	0.4768	0.6004	0.694	-0.25
Mof_O 	O 	0.7166	0.6018	0.6939	-0.241
Mof_O 	O 	0.2404	0.4282	0.4001	-0.171
Mof_O 	O 	0.3388	0.4289	0.5998	-0.177
Mof_Fe	Fe	0.6395	0.60368	0.25451	0.998
Mof_Fe	Fe	0.88493	0.39633	0.74549	0.997
Mof_N 	N 	0.25826	0.87542	0.01673	-0.328
Mof_O 	O 	0.68761	0.33844	0.33727	-0.38
Mof_O 	O 	0.85029	0.33856	0.66238	-0.384
Mof_O 	O 	0.1929	0.6659	0.23698	-0.376
Mof_O 	O 	0.54441	0.6661	0.23707	-0.377
Mof_O 	O 	0.96129	0.7019	0.78044	-0.317
Mof_O 	O 	0.31903	0.7017	0.78053	-0.304
Mof_O 	O 	0.25119	0.5942	0.74343	-0.309
Mof_O 	O 	0.5918	0.5693	0.16488	-0.387
Mof_O 	O 	0.99224	0.5941	0.74359	-0.322
Mof_O 	O 	0.9258	0.4308	0.83503	-0.389
Mof_C 	C 	0.85691	0.0682	0.50003	0.1
Mof_C 	C 	0.94523	0.1752	0.50013	0.085
Mof_C 	C 	0.87903	0.1492	0.49977	-0.148
Mof_C 	C 	0.82788	0.2164	0.50024	0.052
Mof_C 	C 	0.77907	0.25	0.445	-0.044
Mof_H 	H 	0.7753	0.2275	0.4073	0.059
Mof_C 	C 	0.83393	0.2499	0.55487	-0.043
Mof_H 	H 	0.8676	0.2271	0.5925	0.057
Mof_C 	C 	0.338	0.7829	0.17542	0.049
Mof_C 	C 	0.3232	0.9317	0.14651	0.103
Mof_C 	C 	0.1925	0.9322	0.8854	0.103
Mof_C 	C 	0.7353	0.3175	0.4454	-0.089
Mof_C 	C 	0.4077	0.7502	0.19533	-0.04
Mof_H 	H 	0.4419	0.7722	0.1812	0.065
Mof_C 	C 	0.7907	0.3175	0.55536	-0.093
Mof_C 	C 	0.2024	0.8506	0.90529	-0.142
Mof_C 	C 	0.7407	0.3492	0.4999	0.034
Mof_H 	H 	0.7097	0.3935	0.4999	0.051
Mof_C 	C 	0.2834	0.8249	0.06642	0.095
Mof_C 	C 	0.2322	0.8242	0.9652	0.09
Mof_C 	C 	0.178	0.7852	0.85606	0.084
Mof_C 	C 	0.788	0.042	0.5001	-0.17
Mof_H 	H 	0.7499	0.0767	0.5002	0.085
Mof_C 	C 	0.3134	0.8511	0.1267	-0.134
Mof_C 	C 	0.2876	0.7501	0.19515	-0.039
Mof_H 	H 	0.2395	0.7722	0.1811	0.066
Mof_C 	C 	0.4274	0.6841	0.23656	-0.086
Mof_C 	C 	0.3089	0.6836	0.23638	-0.089
Mof_C 	C 	0.2258	0.7559	0.834	-0.089
Mof_H 	H 	0.2739	0.7781	0.8486	0.08
Mof_C 	C 	0.2423	0.7397	0.9841	-0.073
Mof_H 	H 	0.2301	0.6928	0.9582	0.068
Mof_C 	C 	0.1077	0.7559	0.8339	-0.083
Mof_H 	H 	0.0743	0.7783	0.8486	0.081
Mof_C 	C 	0.2729	0.7397	0.0465	-0.074
Mof_H 	H 	0.2851	0.6925	0.0722	0.067
Mof_C 	C 	0.2612	0.661	0.7698	0.294
Mof_C 	C 	0.3782	0.6509	0.25606	0.035
Mof_H 	H 	0.3918	0.6052	0.2832	0.054
Mof_C 	C 	0.0846	0.6941	0.7903	-0.034
Mof_C 	C 	0.9666	0.2588	0.5005	-0.096
Mof_H 	H 	0.9389	0.3058	0.5012	0.073
Mof_C 	C 	0.1607	0.9587	0.82108	0.018
Mof_H 	H 	0.1434	0.924	0.7861	0.036
Mof_C 	C 	0.3553	0.9585	0.21	0.019
Mof_H 	H 	0.373	0.9239	0.2451	0.044
Mof_C 	C 	0.2049	0.6938	0.7902	-0.025
Mof_C 	C 	0.2559	0.6413	0.2558	0.409
Mof_C 	C 	0.0088	0.6617	0.7697	0.319
Mof_C 	C 	0.6851	0.3585	0.386	0.406
Mof_C 	C 	0.5005	0.6408	0.2562	0.411
Mof_C 	C 	0.7994	0.3583	0.6142	0.41
Mof_C 	C 	0.1341	0.6623	0.7696	-0.022
Mof_H 	H 	0.1197	0.6184	0.7409	0.074
Mof_O 	O 	0.4985	0.5672	0.2815	-0.191
Mof_O 	O 	0.6299	0.3986	0.3841	-0.25
Mof_O 	O 	0.2834	0.5663	0.2821	-0.196
Mof_O 	O 	0.7465	0.3984	0.6163	-0.253
Mof_O 	O 	0.5232	0.6004	0.306	-0.25
Mof_O 	O 	0.2834	0.6018	0.3061	-0.241
Mof_O 	O 	0.7596	0.4282	0.5999	-0.172
Mof_O 	O 	0.6612	0.4289	0.4002	-0.177
Mof_Fe	Fe	0.6395	0.39632	0.25451	0.996
Mof_Fe	Fe	0.88493	0.60367	0.74549	0.998
Mof_N 	N 	0.25826	0.12458	0.01673	-0.345
Mof_O 	O 	0.68761	0.66156	0.33727	-0.376
Mof_O 	O 	0.85029	0.66144	0.66238	-0.38
Mof_O 	O 	0.1929	0.3341	0.23698	-0.381
Mof_O 	O 	0.54441	0.3339	0.23707	-0.382
Mof_O 	O 	0.96129	0.2981	0.78044	-0.325
Mof_O 	O 	0.31903	0.2983	0.78053	-0.311
Mof_O 	O 	0.25119	0.4058	0.74343	-0.31
Mof_O 	O 	0.5918	0.4307	0.16488	-0.388
Mof_O 	O 	0.99224	0.4059	0.74359	-0.323
Mof_O 	O 	0.9258	0.5692	0.83503	-0.388
Mof_C 	C 	0.85691	0.9318	0.50003	0.102
Mof_C 	C 	0.94523	0.8248	0.50013	0.091
Mof_C 	C 	0.87903	0.8508	0.49977	-0.135
Mof_C 	C 	0.82788	0.7836	0.50024	0.053
Mof_C 	C 	0.77907	0.75	0.445	-0.043
Mof_H 	H 	0.7753	0.7725	0.4073	0.065
Mof_C 	C 	0.83393	0.7501	0.55487	-0.042
Mof_H 	H 	0.8676	0.7729	0.5925	0.064
Mof_C 	C 	0.338	0.2171	0.17542	0.048
Mof_C 	C 	0.3232	0.0683	0.14651	0.103
Mof_C 	C 	0.1925	0.0678	0.8854	0.101
Mof_C 	C 	0.7353	0.6825	0.4454	-0.085
Mof_C 	C 	0.4077	0.2498	0.19533	-0.04
Mof_H 	H 	0.4419	0.2278	0.1812	0.058
Mof_C 	C 	0.7907	0.6825	0.55536	-0.088
Mof_C 	C 	0.2024	0.1494	0.90529	-0.155
Mof_C 	C 	0.7407	0.6508	0.4999	0.034
Mof_H 	H 	0.7097	0.6065	0.4999	0.053
Mof_C 	C 	0.2834	0.1751	0.06642	0.089
Mof_C 	C 	0.2322	0.1758	0.9652	0.084
Mof_C 	C 	0.178	0.2148	0.85606	0.083
Mof_C 	C 	0.788	0.958	0.5001	0.014
Mof_H 	H 	0.7499	0.9233	0.5002	0.046
Mof_C 	C 	0.3134	0.1489	0.1267	-0.148
Mof_C 	C 	0.2876	0.2499	0.19515	-0.039
Mof_H 	H 	0.2395	0.2278	0.1811	0.059
Mof_C 	C 	0.4274	0.3159	0.23656	-0.091
Mof_C 	C 	0.3089	0.3164	0.23638	-0.094
Mof_C 	C 	0.2258	0.2441	0.834	-0.089
Mof_H 	H 	0.2739	0.2219	0.8486	0.073
Mof_C 	C 	0.2423	0.2603	0.9841	-0.074
Mof_H 	H 	0.2301	0.3072	0.9582	0.067
Mof_C 	C 	0.1077	0.2441	0.8339	-0.083
Mof_H 	H 	0.0743	0.2217	0.8486	0.074
Mof_C 	C 	0.2729	0.2603	0.0465	-0.077
Mof_H 	H 	0.2851	0.3075	0.0722	0.067
Mof_C 	C 	0.2612	0.339	0.7698	0.295
Mof_C 	C 	0.3782	0.3491	0.25606	0.036
Mof_H 	H 	0.3918	0.3948	0.2832	0.052
Mof_C 	C 	0.0846	0.3059	0.7903	-0.039
Mof_C 	C 	0.9666	0.7412	0.5005	-0.095
Mof_H 	H 	0.9389	0.6942	0.5012	0.073
Mof_C 	C 	0.1607	0.0413	0.82108	-0.175
Mof_H 	H 	0.1434	0.076	0.7861	0.08
Mof_C 	C 	0.3553	0.0415	0.21	-0.174
Mof_H 	H 	0.373	0.0761	0.2451	0.087
Mof_C 	C 	0.2049	0.3062	0.7902	-0.03
Mof_C 	C 	0.2559	0.3587	0.2558	0.41
Mof_C 	C 	0.0088	0.3383	0.7697	0.32
Mof_C 	C 	0.6851	0.6415	0.386	0.406
Mof_C 	C 	0.5005	0.3592	0.2562	0.412
Mof_C 	C 	0.7994	0.6417	0.6142	0.41
Mof_C 	C 	0.1341	0.3377	0.7696	-0.02
Mof_H 	H 	0.1197	0.3816	0.7409	0.073
Mof_O 	O 	0.4985	0.4328	0.2815	-0.189
Mof_O 	O 	0.6299	0.6014	0.3841	-0.246
Mof_O 	O 	0.2834	0.4337	0.2821	-0.194
Mof_O 	O 	0.7465	0.6016	0.6163	-0.248
Mof_O 	O 	0.5232	0.3996	0.306	-0.254
Mof_O 	O 	0.2834	0.3982	0.3061	-0.245
Mof_O 	O 	0.7596	0.5718	0.5999	-0.174
Mof_O 	O 	0.6612	0.5711	0.4002	-0.18
Mof_Fe	Fe	0.3605	0.39632	0.74549	0.997
Mof_Fe	Fe	0.11507	0.60367	0.25451	0.997
Mof_N 	N 	0.74174	0.12458	0.98327	-0.345
Mof_O 	O 	0.31239	0.66156	0.66273	-0.376
Mof_O 	O 	0.14971	0.66144	0.33762	-0.378
Mof_O 	O 	0.8071	0.3341	0.76302	-0.382
Mof_O 	O 	0.45559	0.3339	0.76293	-0.382
Mof_O 	O 	0.03871	0.2981	0.21956	-0.295
Mof_O 	O 	0.68097	0.2983	0.21947	-0.311
Mof_O 	O 	0.74881	0.4058	0.25657	-0.311
Mof_O 	O 	0.4082	0.4307	0.83512	-0.388
Mof_O 	O 	0.00776	0.4059	0.25641	-0.292
Mof_O 	O 	0.0742	0.5692	0.16497	-0.384
Mof_C 	C 	0.14309	0.9318	0.49997	0.103
Mof_C 	C 	0.05477	0.8248	0.49987	0.09
Mof_C 	C 	0.12097	0.8508	0.50023	-0.131
Mof_C 	C 	0.17212	0.7836	0.49976	0.053
Mof_C 	C 	0.22093	0.75	0.555	-0.043
Mof_H 	H 	0.2247	0.7725	0.5927	0.066
Mof_C 	C 	0.16607	0.7501	0.44513	-0.042
Mof_H 	H 	0.1324	0.7729	0.4075	0.066
Mof_C 	C 	0.662	0.2171	0.82458	0.047
Mof_C 	C 	0.6768	0.0683	0.85349	0.103
Mof_C 	C 	0.8075	0.0678	0.1146	0.1
Mof_C 	C 	0.2647	0.6825	0.5546	-0.084
Mof_C 	C 	0.5923	0.2498	0.80467	-0.04
Mof_H 	H 	0.5581	0.2278	0.8188	0.058
Mof_C 	C 	0.2093	0.6825	0.44464	-0.087
Mof_C 	C 	0.7976	0.1494	0.09471	-0.158
Mof_C 	C 	0.2593	0.6508	0.5001	0.034
Mof_H 	H 	0.2903	0.6065	0.5001	0.053
Mof_C 	C 	0.7166	0.1751	0.93358	0.088
Mof_C 	C 	0.7678	0.1758	0.0348	0.083
Mof_C 	C 	0.822	0.2148	0.14394	0.088
Mof_C 	C 	0.212	0.958	0.4999	0.015
Mof_H 	H 	0.2501	0.9233	0.4998	0.046
Mof_C 	C 	0.6866	0.1489	0.8733	-0.148
Mof_C 	C 	0.7124	0.2499	0.80485	-0.039
Mof_H 	H 	0.7605	0.2278	0.8189	0.057
Mof_C 	C 	0.5726	0.3159	0.76344	-0.091
Mof_C 	C 	0.6911	0.3164	0.76362	-0.095
Mof_C 	C 	0.7742	0.2441	0.166	-0.095
Mof_H 	H 	0.7261	0.2219	0.1514	0.075
Mof_C 	C 	0.7577	0.2603	0.0159	-0.078
Mof_H 	H 	0.7699	0.3072	0.0418	0.067
Mof_C 	C 	0.8923	0.2441	0.1661	-0.097
Mof_H 	H 	0.9257	0.2217	0.1514	0.073
Mof_C 	C 	0.7271	0.2603	0.9535	-0.075
Mof_H 	H 	0.7149	0.3075	0.9278	0.066
Mof_C 	C 	0.7388	0.339	0.2302	0.293
Mof_C 	C 	0.6218	0.3491	0.74394	0.036
Mof_H 	H 	0.6082	0.3948	0.7168	0.052
Mof_C 	C 	0.9154	0.3059	0.2097	-0.021
Mof_C 	C 	0.0334	0.7412	0.4995	-0.053
Mof_H 	H 	0.0611	0.6942	0.4988	0.063
Mof_C 	C 	0.8393	0.0413	0.17892	-0.176
Mof_H 	H 	0.8566	0.076	0.2139	0.078
Mof_C 	C 	0.6447	0.0415	0.79	-0.174
Mof_H 	H 	0.627	0.0761	0.7549	0.086
Mof_C 	C 	0.7951	0.3062	0.2098	-0.025
Mof_C 	C 	0.7441	0.3587	0.7442	0.41
Mof_C 	C 	0.9912	0.3383	0.2303	0.261
Mof_C 	C 	0.3149	0.6415	0.614	0.406
Mof_C 	C 	0.4995	0.3592	0.7438	0.412
Mof_C 	C 	0.2006	0.6417	0.3858	0.41
Mof_C 	C 	0.8659	0.3377	0.2304	-0.034
Mof_H 	H 	0.8803	0.3816	0.2591	0.073
Mof_O 	O 	0.5015	0.4328	0.7185	-0.189
Mof_O 	O 	0.3701	0.6014	0.6159	-0.246
Mof_O 	O 	0.7166	0.4337	0.7179	-0.194
Mof_O 	O 	0.2535	0.6016	0.3837	-0.248
Mof_O 	O 	0.4768	0.3996	0.694	-0.254
Mof_O 	O 	0.7166	0.3982	0.6939	-0.245
Mof_O 	O 	0.2404	0.5718	0.4001	-0.174
Mof_O 	O 	0.3388	0.5711	0.5998	-0.179
Mof_Zn	Zn	0.99223	0	0.48414	0.759
Mof_N 	N 	0.1023	0	0.5003	-0.364
Mof_Zn	Zn	0.00777	-1.41947e-32	0.51586	0.772
Mof_N 	N 	0.8977	0	0.4997	-0.368
Mof_Zn	Zn	0.72477	0	0.98412	0.769
Mof_N 	N 	0.7883	-1.77434e-33	0.0772	-0.371
Mof_N 	N 	0.6948	-1.41947e-32	0.8903	-0.367
Mof_Zn	Zn	0.75941	0	0.98397	0.768
Mof_Zn	Zn	0.27523	0	0.01588	0.769
Mof_N 	N 	0.2117	0	0.9228	-0.37
Mof_N 	N 	0.3052	0	0.1097	-0.367
Mof_Zn	Zn	0.24059	0	0.01603	0.769
Mof_Fe	Fe	0.41779	0.5	0.6602	1.018
Mof_Fe	Fe	0.2577	0.5	0.33989	1.014
Mof_O 	O 	0.1538	0.5	0.2855	-0.562
Mof_O 	O 	0.3681	0.5	0.71425	-0.564
Mof_C 	C 	0.4229	0.5	0.8605	0.449
Mof_H 	H 	0.4481	0.5	0.9038	-0.086
Mof_C 	C 	0.0639	0.5	0.1393	0.446
Mof_H 	H 	0.0466	0.5	0.096	-0.083
Mof_Fe	Fe	0.58221	0.5	0.3398	1.018
Mof_Fe	Fe	0.7423	0.5	0.66011	1.014
Mof_O 	O 	0.8462	0.5	0.7145	-0.562
Mof_O 	O 	0.6319	0.5	0.28575	-0.564
Mof_C 	C 	0.5771	0.5	0.1395	0.449
Mof_H 	H 	0.5519	0.5	0.0962	-0.086
Mof_C 	C 	0.9361	0.5	0.8607	0.447
Mof_H 	H 	0.9534	0.5	0.904	-0.088
Mof_N 	N 	-3.19637e-17	0.1258	0.5	-0.335
Mof_N 	N 	3.17648e-33	0.8742	0.5	-0.318
_end
