# CIF file generated by openbabel 3.1.0, see https://openbabel.org
data_I
_chemical_name_common 'image0'
_cell_length_a 22.877
_cell_length_b 23.111
_cell_length_c 18.364
_cell_angle_alpha 90
_cell_angle_beta 105.399
_cell_angle_gamma 90
_space_group_name_H-M_alt 'P 1'
_space_group_name_Hall 'P 1'
loop_
    _symmetry_equiv_pos_as_xyz
    x,y,z
loop_
    _atom_site_label
    _atom_site_type_symbol
    _atom_site_fract_x
    _atom_site_fract_y
    _atom_site_fract_z
    _atom_site_occupancy
    Cu1      Cu       0.64907    0.22169    0.55791    1.000
    Cu2      Cu       0.72061    0.30401    0.46079    1.000
    N1       N        0.80909    0.37014    0.81423    1.000
    N2       N        0.90687    0.37745    0.89286    1.000
    N3       N        0.84510    0.45933    0.86592    1.000
    N4       N        0.59607    0.22744    0.62796    1.000
    N5       N        0.64209    0.31474    0.38500    1.000
    O1       O        0.75089    0.44995    0.78887    1.000
    O2       O        0.94174    0.46511    0.94194    1.000
    O3       O        0.87213    0.29255    0.83689    1.000
    O4       O        0.71807    0.25569    0.63610    1.000
    O5       O        0.68619    0.33369    0.56805    1.000
    O6       O        0.07562    0.30110    0.98047    1.000
    O7       O        0.11434    0.33985    0.89259    1.000
    O8       O        0.81934    0.63457    0.90306    1.000
    O9       O        0.74469    0.61597    0.95446    1.000
    O10      O        0.80094    0.27594    0.51526    1.000
    H1       H        0.81870    0.29870    0.56080    1.000
    C1       C        0.79890    0.42750    0.82120    1.000
    C2       C        0.90116    0.43571    0.90310    1.000
    C3       C        0.86319    0.34348    0.84710    1.000
    C4       C        0.76147    0.33643    0.76100    1.000
    H2       H        0.72190    0.34890    0.76460    1.000
    H3       H        0.76600    0.29570    0.77400    1.000
    C5       C        0.76614    0.34507    0.68080    1.000
    H4       H        0.76020    0.38570    0.66760    1.000
    H5       H        0.80650    0.33430    0.67820    1.000
    C6       C        0.72017    0.30976    0.62490    1.000
    C7       C        0.96574    0.35017    0.93100    1.000
    H6       H        0.95910    0.31000    0.94190    1.000
    H7       H        0.98320    0.36970    0.97850    1.000
    C8       C        0.00939    0.35330    0.88210    1.000
    H8       H        0.01320    0.39330    0.86800    1.000
    H9       H        0.99280    0.33150    0.83610    1.000
    C9       C        0.07176    0.32993    0.92080    1.000
    C10      C        0.83681    0.52215    0.87170    1.000
    H10      H        0.81570    0.53730    0.82250    1.000
    H11      H        0.87620    0.54070    0.88730    1.000
    C11      C        0.80093    0.53662    0.92800    1.000
    H12      H        0.82370    0.52470    0.97810    1.000
    H13      H        0.76300    0.51540    0.91500    1.000
    C12      C        0.78793    0.60102    0.92800    1.000
    C13      C        0.58690    0.27480    0.66330    1.000
    H14      H        0.60690    0.30850    0.65630    1.000
    C14      C        0.54890    0.27650    0.71030    1.000
    H15      H        0.54300    0.31140    0.73260    1.000
    C15      C        0.52010    0.22890    0.72470    1.000
    C16      C        0.52780    0.17970    0.68700    1.000
    H16      H        0.50740    0.14600    0.69300    1.000
    C17      C        0.56600    0.17980    0.64000    1.000
    H17      H        0.57110    0.14570    0.61560    1.000
    C18      C        0.59196    0.32950    0.40390    1.000
    H18      H        0.59490    0.33940    0.45390    1.000
    C19      C        0.53567    0.33090    0.35260    1.000
    H19      H        0.50160    0.34040    0.36860    1.000
    C20      C        0.52984    0.31834    0.27750    1.000
    C21      C        0.58189    0.30360    0.25910    1.000
    H20      H        0.58040    0.29480    0.20920    1.000
    C22      C        0.63613    0.30160    0.31280    1.000
    H21      H        0.67050    0.29050    0.29830    1.000
    Cu3      Cu       0.14907    0.72169    0.55791    1.000
    Cu4      Cu       0.22061    0.80401    0.46079    1.000
    N6       N        0.30909    0.87014    0.81423    1.000
    N7       N        0.40687    0.87745    0.89286    1.000
    N8       N        0.34510    0.95933    0.86592    1.000
    N9       N        0.09607    0.72744    0.62796    1.000
    N10      N        0.14209    0.81474    0.38500    1.000
    O11      O        0.25089    0.94995    0.78887    1.000
    O12      O        0.44174    0.96511    0.94194    1.000
    O13      O        0.37213    0.79255    0.83689    1.000
    O14      O        0.21807    0.75569    0.63610    1.000
    O15      O        0.18619    0.83369    0.56805    1.000
    O16      O        0.57562    0.80110    0.98047    1.000
    O17      O        0.61434    0.83985    0.89259    1.000
    O18      O        0.31934    0.13457    0.90306    1.000
    O19      O        0.24469    0.11597    0.95446    1.000
    O20      O        0.30094    0.77594    0.51526    1.000
    H22      H        0.31870    0.79870    0.56080    1.000
    C23      C        0.29890    0.92750    0.82120    1.000
    C24      C        0.40116    0.93571    0.90310    1.000
    C25      C        0.36319    0.84348    0.84710    1.000
    C26      C        0.26147    0.83643    0.76100    1.000
    H23      H        0.22190    0.84890    0.76460    1.000
    H24      H        0.26600    0.79570    0.77400    1.000
    C27      C        0.26614    0.84507    0.68080    1.000
    H25      H        0.26020    0.88570    0.66760    1.000
    H26      H        0.30650    0.83430    0.67820    1.000
    C28      C        0.22017    0.80976    0.62490    1.000
    C29      C        0.46574    0.85017    0.93100    1.000
    H27      H        0.45910    0.81000    0.94190    1.000
    H28      H        0.48320    0.86970    0.97850    1.000
    C30      C        0.50939    0.85330    0.88210    1.000
    H29      H        0.51320    0.89330    0.86800    1.000
    H30      H        0.49280    0.83150    0.83610    1.000
    C31      C        0.57176    0.82993    0.92080    1.000
    C32      C        0.33681    0.02215    0.87170    1.000
    H31      H        0.31570    0.03730    0.82250    1.000
    H32      H        0.37620    0.04070    0.88730    1.000
    C33      C        0.30093    0.03662    0.92800    1.000
    H33      H        0.32370    0.02470    0.97810    1.000
    H34      H        0.26300    0.01540    0.91500    1.000
    C34      C        0.28793    0.10102    0.92800    1.000
    C35      C        0.08690    0.77480    0.66330    1.000
    H35      H        0.10690    0.80850    0.65630    1.000
    C36      C        0.04890    0.77650    0.71030    1.000
    H36      H        0.04300    0.81140    0.73260    1.000
    C37      C        0.02010    0.72890    0.72470    1.000
    C38      C        0.02780    0.67970    0.68700    1.000
    H37      H        0.00740    0.64600    0.69300    1.000
    C39      C        0.06600    0.67980    0.64000    1.000
    H38      H        0.07110    0.64570    0.61560    1.000
    C40      C        0.09196    0.82950    0.40390    1.000
    H39      H        0.09490    0.83940    0.45390    1.000
    C41      C        0.03567    0.83090    0.35260    1.000
    H40      H        0.00160    0.84040    0.36860    1.000
    C42      C        0.02984    0.81834    0.27750    1.000
    C43      C        0.08189    0.80360    0.25910    1.000
    H41      H        0.08040    0.79480    0.20920    1.000
    C44      C        0.13613    0.80160    0.31280    1.000
    H42      H        0.17050    0.79050    0.29830    1.000
    Cu5      Cu       0.35093    0.22169    0.94209    1.000
    Cu6      Cu       0.27939    0.30401    0.03921    1.000
    N11      N        0.19091    0.37014    0.68577    1.000
    N12      N        0.09313    0.37745    0.60714    1.000
    N13      N        0.15490    0.45933    0.63408    1.000
    N14      N        0.40393    0.22744    0.87204    1.000
    N15      N        0.35791    0.31474    0.11500    1.000
    O21      O        0.24911    0.44995    0.71113    1.000
    O22      O        0.05826    0.46511    0.55806    1.000
    O23      O        0.12787    0.29255    0.66311    1.000
    O24      O        0.28193    0.25569    0.86390    1.000
    O25      O        0.31381    0.33369    0.93195    1.000
    O26      O        0.92438    0.30110    0.51953    1.000
    O27      O        0.88566    0.33985    0.60741    1.000
    O28      O        0.18066    0.63457    0.59694    1.000
    O29      O        0.25531    0.61597    0.54554    1.000
    O30      O        0.19906    0.27594    0.98474    1.000
    H43      H        0.18130    0.29870    0.93920    1.000
    C45      C        0.20110    0.42750    0.67880    1.000
    C46      C        0.09884    0.43571    0.59690    1.000
    C47      C        0.13681    0.34348    0.65290    1.000
    C48      C        0.23853    0.33643    0.73900    1.000
    H44      H        0.27810    0.34890    0.73540    1.000
    H45      H        0.23400    0.29570    0.72600    1.000
    C49      C        0.23386    0.34507    0.81920    1.000
    H46      H        0.23980    0.38570    0.83240    1.000
    H47      H        0.19350    0.33430    0.82180    1.000
    C50      C        0.27983    0.30976    0.87510    1.000
    C51      C        0.03426    0.35017    0.56900    1.000
    H48      H        0.04090    0.31000    0.55810    1.000
    H49      H        0.01680    0.36970    0.52150    1.000
    C52      C        0.99061    0.35330    0.61790    1.000
    H50      H        0.98680    0.39330    0.63200    1.000
    H51      H        0.00720    0.33150    0.66390    1.000
    C53      C        0.92824    0.32993    0.57920    1.000
    C54      C        0.16319    0.52215    0.62830    1.000
    H52      H        0.18430    0.53730    0.67750    1.000
    H53      H        0.12380    0.54070    0.61270    1.000
    C55      C        0.19907    0.53662    0.57200    1.000
    H54      H        0.17630    0.52470    0.52190    1.000
    H55      H        0.23700    0.51540    0.58500    1.000
    C56      C        0.21207    0.60102    0.57200    1.000
    C57      C        0.41310    0.27480    0.83670    1.000
    H56      H        0.39310    0.30850    0.84370    1.000
    C58      C        0.45110    0.27650    0.78970    1.000
    H57      H        0.45700    0.31140    0.76740    1.000
    C59      C        0.47990    0.22890    0.77530    1.000
    C60      C        0.47220    0.17970    0.81300    1.000
    H58      H        0.49260    0.14600    0.80700    1.000
    C61      C        0.43400    0.17980    0.86000    1.000
    H59      H        0.42890    0.14570    0.88440    1.000
    C62      C        0.40804    0.32950    0.09610    1.000
    H60      H        0.40510    0.33940    0.04610    1.000
    C63      C        0.46433    0.33090    0.14740    1.000
    H61      H        0.49840    0.34040    0.13140    1.000
    C64      C        0.47016    0.31834    0.22250    1.000
    C65      C        0.41811    0.30360    0.24090    1.000
    H62      H        0.41960    0.29480    0.29080    1.000
    C66      C        0.36387    0.30160    0.18720    1.000
    H63      H        0.32950    0.29050    0.20170    1.000
    Cu7      Cu       0.85093    0.72169    0.94209    1.000
    Cu8      Cu       0.77939    0.80401    0.03921    1.000
    N16      N        0.69091    0.87014    0.68577    1.000
    N17      N        0.59313    0.87745    0.60714    1.000
    N18      N        0.65490    0.95933    0.63408    1.000
    N19      N        0.90393    0.72744    0.87204    1.000
    N20      N        0.85791    0.81474    0.11500    1.000
    O31      O        0.74911    0.94995    0.71113    1.000
    O32      O        0.55826    0.96511    0.55806    1.000
    O33      O        0.62787    0.79255    0.66311    1.000
    O34      O        0.78193    0.75569    0.86390    1.000
    O35      O        0.81381    0.83369    0.93195    1.000
    O36      O        0.42438    0.80110    0.51953    1.000
    O37      O        0.38566    0.83985    0.60741    1.000
    O38      O        0.68066    0.13457    0.59694    1.000
    O39      O        0.75531    0.11597    0.54554    1.000
    O40      O        0.69906    0.77594    0.98474    1.000
    H64      H        0.68130    0.79870    0.93920    1.000
    C67      C        0.70110    0.92750    0.67880    1.000
    C68      C        0.59884    0.93571    0.59690    1.000
    C69      C        0.63681    0.84348    0.65290    1.000
    C70      C        0.73853    0.83643    0.73900    1.000
    H65      H        0.77810    0.84890    0.73540    1.000
    H66      H        0.73400    0.79570    0.72600    1.000
    C71      C        0.73386    0.84507    0.81920    1.000
    H67      H        0.73980    0.88570    0.83240    1.000
    H68      H        0.69350    0.83430    0.82180    1.000
    C72      C        0.77983    0.80976    0.87510    1.000
    C73      C        0.53426    0.85017    0.56900    1.000
    H69      H        0.54090    0.81000    0.55810    1.000
    H70      H        0.51680    0.86970    0.52150    1.000
    C74      C        0.49061    0.85330    0.61790    1.000
    H71      H        0.48680    0.89330    0.63200    1.000
    H72      H        0.50720    0.83150    0.66390    1.000
    C75      C        0.42824    0.82993    0.57920    1.000
    C76      C        0.66319    0.02215    0.62830    1.000
    H73      H        0.68430    0.03730    0.67750    1.000
    H74      H        0.62380    0.04070    0.61270    1.000
    C77      C        0.69907    0.03662    0.57200    1.000
    H75      H        0.67630    0.02470    0.52190    1.000
    H76      H        0.73700    0.01540    0.58500    1.000
    C78      C        0.71207    0.10102    0.57200    1.000
    C79      C        0.91310    0.77480    0.83670    1.000
    H77      H        0.89310    0.80850    0.84370    1.000
    C80      C        0.95110    0.77650    0.78970    1.000
    H78      H        0.95700    0.81140    0.76740    1.000
    C81      C        0.97990    0.72890    0.77530    1.000
    C82      C        0.97220    0.67970    0.81300    1.000
    H79      H        0.99260    0.64600    0.80700    1.000
    C83      C        0.93400    0.67980    0.86000    1.000
    H80      H        0.92890    0.64570    0.88440    1.000
    C84      C        0.90804    0.82950    0.09610    1.000
    H81      H        0.90510    0.83940    0.04610    1.000
    C85      C        0.96433    0.83090    0.14740    1.000
    H82      H        0.99840    0.84040    0.13140    1.000
    C86      C        0.97016    0.81834    0.22250    1.000
    C87      C        0.91811    0.80360    0.24090    1.000
    H83      H        0.91960    0.79480    0.29080    1.000
    C88      C        0.86387    0.80160    0.18720    1.000
    H84      H        0.82950    0.79050    0.20170    1.000
    Cu9      Cu       0.35093    0.77832    0.44209    1.000
    Cu10     Cu       0.27939    0.69599    0.53921    1.000
    N21      N        0.19091    0.62986    0.18577    1.000
    N22      N        0.09313    0.62255    0.10714    1.000
    N23      N        0.15490    0.54067    0.13408    1.000
    N24      N        0.40393    0.77256    0.37204    1.000
    N25      N        0.35791    0.68526    0.61500    1.000
    O41      O        0.24911    0.55005    0.21113    1.000
    O42      O        0.05826    0.53489    0.05806    1.000
    O43      O        0.12787    0.70745    0.16311    1.000
    O44      O        0.28193    0.74431    0.36390    1.000
    O45      O        0.31381    0.66631    0.43195    1.000
    O46      O        0.92438    0.69890    0.01953    1.000
    O47      O        0.88566    0.66015    0.10741    1.000
    O48      O        0.18066    0.36543    0.09694    1.000
    O49      O        0.25531    0.38403    0.04554    1.000
    O50      O        0.19906    0.72406    0.48474    1.000
    H85      H        0.18130    0.70130    0.43920    1.000
    C89      C        0.20110    0.57250    0.17880    1.000
    C90      C        0.09884    0.56429    0.09690    1.000
    C91      C        0.13681    0.65652    0.15290    1.000
    C92      C        0.23853    0.66357    0.23900    1.000
    H86      H        0.27810    0.65110    0.23540    1.000
    H87      H        0.23400    0.70430    0.22600    1.000
    C93      C        0.23386    0.65493    0.31920    1.000
    H88      H        0.23980    0.61430    0.33240    1.000
    H89      H        0.19350    0.66570    0.32180    1.000
    C94      C        0.27983    0.69024    0.37510    1.000
    C95      C        0.03426    0.64983    0.06900    1.000
    H90      H        0.04090    0.69000    0.05810    1.000
    H91      H        0.01680    0.63030    0.02150    1.000
    C96      C        0.99061    0.64670    0.11790    1.000
    H92      H        0.98680    0.60670    0.13200    1.000
    H93      H        0.00720    0.66850    0.16390    1.000
    C97      C        0.92824    0.67007    0.07920    1.000
    C98      C        0.16319    0.47785    0.12830    1.000
    H94      H        0.18430    0.46270    0.17750    1.000
    H95      H        0.12380    0.45930    0.11270    1.000
    C99      C        0.19907    0.46338    0.07200    1.000
    H96      H        0.17630    0.47530    0.02190    1.000
    H97      H        0.23700    0.48460    0.08500    1.000
    C100     C        0.21207    0.39898    0.07200    1.000
    C101     C        0.41310    0.72520    0.33670    1.000
    H98      H        0.39310    0.69150    0.34370    1.000
    C102     C        0.45110    0.72350    0.28970    1.000
    H99      H        0.45700    0.68860    0.26740    1.000
    C103     C        0.47990    0.77110    0.27530    1.000
    C104     C        0.47220    0.82030    0.31300    1.000
    H100     H        0.49260    0.85400    0.30700    1.000
    C105     C        0.43400    0.82020    0.36000    1.000
    H101     H        0.42890    0.85430    0.38440    1.000
    C106     C        0.40804    0.67050    0.59610    1.000
    H102     H        0.40510    0.66060    0.54610    1.000
    C107     C        0.46433    0.66910    0.64740    1.000
    H103     H        0.49840    0.65960    0.63140    1.000
    C108     C        0.47016    0.68166    0.72250    1.000
    C109     C        0.41811    0.69640    0.74090    1.000
    H104     H        0.41960    0.70520    0.79080    1.000
    C110     C        0.36387    0.69840    0.68720    1.000
    H105     H        0.32950    0.70950    0.70170    1.000
    Cu11     Cu       0.85093    0.27831    0.44209    1.000
    Cu12     Cu       0.77939    0.19599    0.53921    1.000
    N26      N        0.69091    0.12986    0.18577    1.000
    N27      N        0.59313    0.12255    0.10714    1.000
    N28      N        0.65490    0.04067    0.13408    1.000
    N29      N        0.90393    0.27256    0.37204    1.000
    N30      N        0.85791    0.18526    0.61500    1.000
    O51      O        0.74911    0.05005    0.21113    1.000
    O52      O        0.55826    0.03489    0.05806    1.000
    O53      O        0.62787    0.20745    0.16311    1.000
    O54      O        0.78193    0.24431    0.36390    1.000
    O55      O        0.81381    0.16631    0.43195    1.000
    O56      O        0.42438    0.19890    0.01953    1.000
    O57      O        0.38566    0.16015    0.10741    1.000
    O58      O        0.68066    0.86543    0.09694    1.000
    O59      O        0.75531    0.88403    0.04554    1.000
    O60      O        0.69906    0.22406    0.48474    1.000
    H106     H        0.68130    0.20130    0.43920    1.000
    C111     C        0.70110    0.07250    0.17880    1.000
    C112     C        0.59884    0.06429    0.09690    1.000
    C113     C        0.63681    0.15652    0.15290    1.000
    C114     C        0.73853    0.16357    0.23900    1.000
    H107     H        0.77810    0.15110    0.23540    1.000
    H108     H        0.73400    0.20430    0.22600    1.000
    C115     C        0.73386    0.15493    0.31920    1.000
    H109     H        0.73980    0.11430    0.33240    1.000
    H110     H        0.69350    0.16570    0.32180    1.000
    C116     C        0.77983    0.19024    0.37510    1.000
    C117     C        0.53426    0.14983    0.06900    1.000
    H111     H        0.54090    0.19000    0.05810    1.000
    H112     H        0.51680    0.13030    0.02150    1.000
    C118     C        0.49061    0.14670    0.11790    1.000
    H113     H        0.48680    0.10670    0.13200    1.000
    H114     H        0.50720    0.16850    0.16390    1.000
    C119     C        0.42824    0.17007    0.07920    1.000
    C120     C        0.66319    0.97785    0.12830    1.000
    H115     H        0.68430    0.96270    0.17750    1.000
    H116     H        0.62380    0.95930    0.11270    1.000
    C121     C        0.69907    0.96338    0.07200    1.000
    H117     H        0.67630    0.97530    0.02190    1.000
    H118     H        0.73700    0.98460    0.08500    1.000
    C122     C        0.71207    0.89898    0.07200    1.000
    C123     C        0.91310    0.22520    0.33670    1.000
    H119     H        0.89310    0.19150    0.34370    1.000
    C124     C        0.95110    0.22350    0.28970    1.000
    H120     H        0.95700    0.18860    0.26740    1.000
    C125     C        0.97990    0.27110    0.27530    1.000
    C126     C        0.97220    0.32030    0.31300    1.000
    H121     H        0.99260    0.35400    0.30700    1.000
    C127     C        0.93400    0.32020    0.36000    1.000
    H122     H        0.92890    0.35430    0.38440    1.000
    C128     C        0.90804    0.17050    0.59610    1.000
    H123     H        0.90510    0.16060    0.54610    1.000
    C129     C        0.96433    0.16910    0.64740    1.000
    H124     H        0.99840    0.15960    0.63140    1.000
    C130     C        0.97016    0.18166    0.72250    1.000
    C131     C        0.91811    0.19640    0.74090    1.000
    H125     H        0.91960    0.20520    0.79080    1.000
    C132     C        0.86387    0.19840    0.68720    1.000
    H126     H        0.82950    0.20950    0.70170    1.000
    Cu13     Cu       0.64907    0.77832    0.05791    1.000
    Cu14     Cu       0.72061    0.69599    0.96079    1.000
    N31      N        0.80909    0.62986    0.31423    1.000
    N32      N        0.90687    0.62255    0.39286    1.000
    N33      N        0.84510    0.54067    0.36592    1.000
    N34      N        0.59607    0.77256    0.12796    1.000
    N35      N        0.64209    0.68526    0.88500    1.000
    O61      O        0.75089    0.55005    0.28887    1.000
    O62      O        0.94174    0.53489    0.44194    1.000
    O63      O        0.87213    0.70745    0.33689    1.000
    O64      O        0.71807    0.74431    0.13610    1.000
    O65      O        0.68619    0.66631    0.06805    1.000
    O66      O        0.07562    0.69890    0.48047    1.000
    O67      O        0.11434    0.66015    0.39259    1.000
    O68      O        0.81934    0.36543    0.40306    1.000
    O69      O        0.74469    0.38403    0.45446    1.000
    O70      O        0.80094    0.72406    0.01526    1.000
    H127     H        0.81870    0.70130    0.06080    1.000
    C133     C        0.79890    0.57250    0.32120    1.000
    C134     C        0.90116    0.56429    0.40310    1.000
    C135     C        0.86319    0.65652    0.34710    1.000
    C136     C        0.76147    0.66357    0.26100    1.000
    H128     H        0.72190    0.65110    0.26460    1.000
    H129     H        0.76600    0.70430    0.27400    1.000
    C137     C        0.76614    0.65493    0.18080    1.000
    H130     H        0.76020    0.61430    0.16760    1.000
    H131     H        0.80650    0.66570    0.17820    1.000
    C138     C        0.72017    0.69024    0.12490    1.000
    C139     C        0.96574    0.64983    0.43100    1.000
    H132     H        0.95910    0.69000    0.44190    1.000
    H133     H        0.98320    0.63030    0.47850    1.000
    C140     C        0.00939    0.64670    0.38210    1.000
    H134     H        0.01320    0.60670    0.36800    1.000
    H135     H        0.99280    0.66850    0.33610    1.000
    C141     C        0.07176    0.67007    0.42080    1.000
    C142     C        0.83681    0.47785    0.37170    1.000
    H136     H        0.81570    0.46270    0.32250    1.000
    H137     H        0.87620    0.45930    0.38730    1.000
    C143     C        0.80093    0.46338    0.42800    1.000
    H138     H        0.82370    0.47530    0.47810    1.000
    H139     H        0.76300    0.48460    0.41500    1.000
    C144     C        0.78793    0.39898    0.42800    1.000
    C145     C        0.58690    0.72520    0.16330    1.000
    H140     H        0.60690    0.69150    0.15630    1.000
    C146     C        0.54890    0.72350    0.21030    1.000
    H141     H        0.54300    0.68860    0.23260    1.000
    C147     C        0.52010    0.77110    0.22470    1.000
    C148     C        0.52780    0.82030    0.18700    1.000
    H142     H        0.50740    0.85400    0.19300    1.000
    C149     C        0.56600    0.82020    0.14000    1.000
    H143     H        0.57110    0.85430    0.11560    1.000
    C150     C        0.59196    0.67050    0.90390    1.000
    H144     H        0.59490    0.66060    0.95390    1.000
    C151     C        0.53567    0.66910    0.85260    1.000
    H145     H        0.50160    0.65960    0.86860    1.000
    C152     C        0.52984    0.68166    0.77750    1.000
    C153     C        0.58189    0.69640    0.75910    1.000
    H146     H        0.58040    0.70520    0.70920    1.000
    C154     C        0.63613    0.69840    0.81280    1.000
    H147     H        0.67050    0.70950    0.79830    1.000
    Cu15     Cu       0.14907    0.27831    0.05791    1.000
    Cu16     Cu       0.22061    0.19599    0.96079    1.000
    N36      N        0.30909    0.12986    0.31423    1.000
    N37      N        0.40687    0.12255    0.39286    1.000
    N38      N        0.34510    0.04067    0.36592    1.000
    N39      N        0.09607    0.27256    0.12796    1.000
    N40      N        0.14209    0.18526    0.88500    1.000
    O71      O        0.25089    0.05005    0.28887    1.000
    O72      O        0.44174    0.03489    0.44194    1.000
    O73      O        0.37213    0.20745    0.33689    1.000
    O74      O        0.21807    0.24431    0.13610    1.000
    O75      O        0.18619    0.16631    0.06805    1.000
    O76      O        0.57562    0.19890    0.48047    1.000
    O77      O        0.61434    0.16015    0.39259    1.000
    O78      O        0.31934    0.86543    0.40306    1.000
    O79      O        0.24469    0.88403    0.45446    1.000
    O80      O        0.30094    0.22406    0.01526    1.000
    H148     H        0.31870    0.20130    0.06080    1.000
    C155     C        0.29890    0.07250    0.32120    1.000
    C156     C        0.40116    0.06429    0.40310    1.000
    C157     C        0.36319    0.15652    0.34710    1.000
    C158     C        0.26147    0.16357    0.26100    1.000
    H149     H        0.22190    0.15110    0.26460    1.000
    H150     H        0.26600    0.20430    0.27400    1.000
    C159     C        0.26614    0.15493    0.18080    1.000
    H151     H        0.26020    0.11430    0.16760    1.000
    H152     H        0.30650    0.16570    0.17820    1.000
    C160     C        0.22017    0.19024    0.12490    1.000
    C161     C        0.46574    0.14983    0.43100    1.000
    H153     H        0.45910    0.19000    0.44190    1.000
    H154     H        0.48320    0.13030    0.47850    1.000
    C162     C        0.50939    0.14670    0.38210    1.000
    H155     H        0.51320    0.10670    0.36800    1.000
    H156     H        0.49280    0.16850    0.33610    1.000
    C163     C        0.57176    0.17007    0.42080    1.000
    C164     C        0.33681    0.97785    0.37170    1.000
    H157     H        0.31570    0.96270    0.32250    1.000
    H158     H        0.37620    0.95930    0.38730    1.000
    C165     C        0.30093    0.96338    0.42800    1.000
    H159     H        0.32370    0.97530    0.47810    1.000
    H160     H        0.26300    0.98460    0.41500    1.000
    C166     C        0.28793    0.89898    0.42800    1.000
    C167     C        0.08690    0.22520    0.16330    1.000
    H161     H        0.10690    0.19150    0.15630    1.000
    C168     C        0.04890    0.22350    0.21030    1.000
    H162     H        0.04300    0.18860    0.23260    1.000
    C169     C        0.02010    0.27110    0.22470    1.000
    C170     C        0.02780    0.32030    0.18700    1.000
    H163     H        0.00740    0.35400    0.19300    1.000
    C171     C        0.06600    0.32020    0.14000    1.000
    H164     H        0.07110    0.35430    0.11560    1.000
    C172     C        0.09196    0.17050    0.90390    1.000
    H165     H        0.09490    0.16060    0.95390    1.000
    C173     C        0.03567    0.16910    0.85260    1.000
    H166     H        0.00160    0.15960    0.86860    1.000
    C174     C        0.02984    0.18166    0.77750    1.000
    C175     C        0.08189    0.19640    0.75910    1.000
    H167     H        0.08040    0.20520    0.70920    1.000
    C176     C        0.13613    0.19840    0.81280    1.000
    H168     H        0.17050    0.20950    0.79830    1.000
