data_functionalizedCrystal
_audit_creation_method	'EQeq! by Chris Wilmer'
_symmetry_space_group_name_H-M	'P1'
_symmetry_Int_Tables_number	1
_symmetry_cell_setting	triclinic
loop_
_symmetry_equiv_pos_as_xyz
  x,y,z
_cell_length_a	12.7447
_cell_length_b	12.7447
_cell_length_c	10.7107
_cell_angle_alpha	90
_cell_angle_beta	90
_cell_angle_gamma	120
loop_
_atom_site_label
_atom_site_type_symbol
_atom_site_fract_x
_atom_site_fract_y
_atom_site_fract_z
_atom_site_charge
Mof_N 	N 	0.4684	0.6648	0.1155	-0.305
Mof_C 	C 	0.4588	0.5664	0.4358	-0.067
Mof_H 	H 	0.4296	0.612	0.393	0.048
Mof_C 	C 	0.5071	0.6143	0.1699	0.092
Mof_N 	N 	0.3352	0.8036	0.1155	-0.303
Mof_C 	C 	0.4336	0.8924	0.4358	-0.075
Mof_H 	H 	0.388	0.8176	0.393	0.05
Mof_C 	C 	0.3857	0.8928	0.1699	0.083
Mof_N 	N 	0.1964	0.5316	0.1155	-0.304
Mof_C 	C 	0.1076	0.5412	0.4358	-0.067
Mof_H 	H 	0.1824	0.5704	0.393	0.049
Mof_C 	C 	0.1072	0.4929	0.1699	0.093
Mof_N 	N 	0.3352	0.5316	0.8845	-0.226
Mof_C 	C 	0.4336	0.5412	0.5642	-0.076
Mof_H 	H 	0.388	0.5704	0.607	0.056
Mof_C 	C 	0.3857	0.4929	0.8301	0.171
Mof_N 	N 	0.1964	0.6648	0.8845	-0.226
Mof_C 	C 	0.1076	0.5664	0.5642	-0.076
Mof_H 	H 	0.1824	0.612	0.607	0.056
Mof_C 	C 	0.1072	0.6143	0.8301	0.169
Mof_N 	N 	0.4684	0.8036	0.8845	-0.225
Mof_C 	C 	0.4588	0.8924	0.5642	-0.083
Mof_H 	H 	0.4296	0.8176	0.607	0.058
Mof_C 	C 	0.5071	0.8928	0.8301	0.159
Mof_N 	N 	0.5316	0.3352	0.8845	-0.226
Mof_C 	C 	0.5412	0.4336	0.5642	-0.076
Mof_H 	H 	0.5704	0.388	0.607	0.056
Mof_C 	C 	0.4929	0.3857	0.8301	0.171
Mof_N 	N 	0.6648	0.1964	0.8845	-0.226
Mof_C 	C 	0.5664	0.1076	0.5642	-0.076
Mof_H 	H 	0.612	0.1824	0.607	0.056
Mof_C 	C 	0.6143	0.1072	0.8301	0.169
Mof_N 	N 	0.8036	0.4684	0.8845	-0.225
Mof_C 	C 	0.8924	0.4588	0.5642	-0.083
Mof_H 	H 	0.8176	0.4296	0.607	0.058
Mof_C 	C 	0.8928	0.5071	0.8301	0.159
Mof_N 	N 	0.6648	0.4684	0.1155	-0.305
Mof_C 	C 	0.5664	0.4588	0.4358	-0.067
Mof_H 	H 	0.612	0.4296	0.393	0.048
Mof_C 	C 	0.6143	0.5071	0.1699	0.092
Mof_N 	N 	0.8036	0.3352	0.1155	-0.303
Mof_C 	C 	0.8924	0.4336	0.4358	-0.075
Mof_H 	H 	0.8176	0.388	0.393	0.05
Mof_C 	C 	0.8928	0.3857	0.1699	0.083
Mof_N 	N 	0.5316	0.1964	0.1155	-0.304
Mof_C 	C 	0.5412	0.1076	0.4358	-0.067
Mof_H 	H 	0.5704	0.1824	0.393	0.049
Mof_C 	C 	0.4929	0.1072	0.1699	0.093
Mof_Zn	Zn	0.33333	0.66667	-0	1.137
Mof_Zn	Zn	0.66667	0.33333	-0	1.137
Mof_C 	C 	0.5526	0.5526	0.2374	-0.145
Mof_C 	C 	0.5255	0.5255	0.3718	0.061
Mof_C 	C 	0.4474	0	0.2374	-0.136
Mof_C 	C 	0.4745	0	0.3718	0.069
Mof_C 	C 	-2.44332e-17	0.4474	0.2374	-0.136
Mof_C 	C 	-5.36841e-19	0.4745	0.3718	0.069
Mof_C 	C 	0.4474	0.4474	0.7626	-0.144
Mof_C 	C 	0.4745	0.4745	0.6282	0.082
Mof_C 	C 	-3.02916e-18	0.5526	0.7626	-0.136
Mof_C 	C 	-2.69255e-17	0.5255	0.6282	0.088
Mof_C 	C 	0.5526	-1.67549e-32	0.7626	-0.136
Mof_C 	C 	0.5255	0	0.6282	0.088
_end
