data_functionalizedCrystal
_audit_creation_method	'EQeq! by Chris Wilmer'
_symmetry_space_group_name_H-M	'P1'
_symmetry_Int_Tables_number	1
_symmetry_cell_setting	triclinic
loop_
_symmetry_equiv_pos_as_xyz
  x,y,z
_cell_length_a	9.4533
_cell_length_b	18.614
_cell_length_c	19.976
_cell_angle_alpha	68.27
_cell_angle_beta	82.61
_cell_angle_gamma	82.18
loop_
_atom_site_label
_atom_site_type_symbol
_atom_site_fract_x
_atom_site_fract_y
_atom_site_fract_z
_atom_site_charge
Mof_C 	C 	0.0265	0.3197	0.3488	0.415
Mof_C 	C 	0.0566	0.2637	0.4237	-0.155
Mof_C 	C 	0.0309	0.286	0.4825	0.201
Mof_H 	H 	0.9946	0.3381	0.476	-0.015
Mof_C 	C 	0.0566	0.2341	0.5515	-0.372
Mof_C 	C 	0.041	0.247	0.619	0.905
Mof_O 	O 	0.049	0.185	0.6852	0.016
Mof_O 	O 	0.01	0.3188	0.614	-0.575
Mof_C 	C 	0.1106	0.1882	0.4321	-0.003
Mof_H 	H 	0.1342	0.1731	0.3912	0.055
Mof_C 	C 	0.1093	0.1589	0.56	0.07
Mof_H 	H 	0.1318	0.1232	0.6064	0.009
Mof_C 	C 	0.1298	0.1348	0.5013	0.041
Mof_C 	C 	0.229	0.034	0.4549	-0.251
Mof_H 	H 	0.2992	0.0678	0.4207	0.107
Mof_H 	H 	0.1447	0.0371	0.429	0.111
Mof_C 	C 	0.295	0.9521	0.4839	0.404
Mof_C 	C 	0.459	0.938	0.493	-0.072
Mof_H 	H 	0.5214	0.9777	0.4824	0.047
Mof_C 	C 	0.234	0.893	0.493	-0.824
Mof_H 	H 	0.152	0.8976	0.4683	0.306
Mof_C 	C 	0.498	0.86	0.518	-0.021
Mof_H 	H 	0.5987	0.8454	0.5164	0.041
Mof_C 	C 	0.4165	0.8022	0.543	-0.241
Mof_C 	C 	0.284	0.8198	0.54	0.783
Mof_H 	H 	0.2186	0.7837	0.5688	-0.104
Mof_C 	C 	0.2586	0.4208	0.1779	0.201
Mof_C 	C 	0.37	0.473	0.168	0.304
Mof_C 	C 	0.5091	0.4435	0.1848	-0.42
Mof_H 	H 	0.5327	0.3889	0.2008	0.202
Mof_C 	C 	0.616	0.4913	0.179	0.612
Mof_C 	C 	0.339	0.5549	0.1426	-0.598
Mof_H 	H 	0.2452	0.5771	0.1298	0.256
Mof_C 	C 	0.76	0.4611	0.1979	0.086
Mof_O 	O 	0.0391	0.2926	0.2996	-0.46
Mof_O 	O 	0.9935	0.3894	0.3421	-0.432
Mof_O 	O 	0.187	0.0587	0.5149	-0.159
Mof_C 	C 	0.4925	0.7192	0.5768	0.108
Mof_H 	H 	0.5783	0.7111	0.5453	0.036
Mof_H 	H 	0.5226	0.7109	0.625	0.073
Mof_O 	O 	0.1229	0.4474	0.1863	-0.503
Mof_O 	O 	0.2883	0.3549	0.1795	-0.271
Mof_O 	O 	0.8065	0.3919	0.1984	-0.37
Mof_O 	O 	0.8303	0.503	0.2154	-0.384
Mof_C 	C 	0.5807	0.5715	0.1528	-1.51
Mof_C 	C 	0.4422	0.6023	0.1362	0.948
Mof_O 	O 	0.653	0.64	0.138	-1.915
Mof_Zn	Zn	0.01452	0.35778	0.19738	1.236
Mof_Zn	Zn	0.00925	0.50161	0.25834	1.237
Mof_C 	C 	0.4127	0.8081	0.1091	-0.029
Mof_C 	C 	0.212	0.907	0.084	0.106
Mof_H 	H 	0.1339	0.9238	0.1113	0.032
Mof_C 	C 	0.467	0.869	0.016	-0.155
Mof_H 	H 	0.5462	0.8532	0.9888	0.097
Mof_C 	C 	0.398	0.931	0.992	0.092
Mof_H 	H 	0.4393	0.967	0.9485	-0.011
Mof_C 	C 	0.265	0.9562	0.0188	-0.103
Mof_C 	C 	0.183	0.0318	0.9878	0.075
Mof_H 	H 	0.2327	0.0623	0.9413	0.015
Mof_H 	H 	0.0875	0.0235	0.9778	0.016
Mof_C 	C 	0.27	0.836	0.108	0.022
Mof_H 	H 	0.2046	0.7971	0.1276	0.018
Mof_C 	C 	0.1142	0.1527	0.0109	0.173
Mof_C 	C 	0.0968	0.1895	0.0631	-0.114
Mof_H 	H 	0.1141	0.1603	0.1121	0.092
Mof_C 	C 	0.0941	0.1928	0.9419	-0.11
Mof_H 	H 	0.1129	0.1678	0.9075	0.094
Mof_C 	C 	0.0545	0.2683	0.0413	-0.001
Mof_C 	C 	0.0454	0.2715	0.9198	-0.011
Mof_C 	C 	0.0337	0.311	0.9694	-0.005
Mof_H 	H 	0.0119	0.3657	0.9535	0.078
Mof_C 	C 	0.0169	0.3139	0.8434	0.383
Mof_C 	C 	0.0379	0.3079	0.0947	0.264
Mof_C 	C 	0.4946	0.7329	0.1185	0.072
Mof_H 	H 	0.5777	0.7394	0.0819	0.163
Mof_H 	H 	0.5307	0.7103	0.1671	0.156
Mof_O 	O 	0.1643	0.074	0.034	-0.241
Mof_O 	O 	0.0265	0.2778	0.801	-0.432
Mof_O 	O 	0.9801	0.3866	0.8242	-0.439
Mof_O 	O 	0.0269	0.3814	0.0738	-0.311
Mof_O 	O 	0.036	0.2665	0.1624	-0.375
Mof_C 	C 	0.3241	0.539	0.6253	-0.147
Mof_H 	H 	0.2298	0.5597	0.6123	0.107
Mof_C 	C 	0.5978	0.4775	0.6649	0.018
Mof_C 	C 	0.3564	0.4608	0.6554	0.003
Mof_C 	C 	0.4933	0.4288	0.6745	-0.042
Mof_H 	H 	0.5148	0.374	0.6939	0.089
Mof_C 	C 	0.2428	0.4063	0.671	0.311
Mof_C 	C 	0.7473	0.4493	0.6864	0.335
Mof_C 	C 	0.433	0.5898	0.6133	0.233
Mof_C 	C 	0.5668	0.5581	0.6364	-0.196
Mof_O 	O 	0.821	0.4979	0.6916	-0.44
Mof_O 	O 	0.7881	0.3773	0.6997	-0.416
Mof_O 	O 	0.1106	0.4356	0.6712	-0.505
Mof_O 	O 	0.2733	0.3363	0.6844	-0.291
Mof_Zn	Zn	0.99978	0.33967	0.70035	1.256
Mof_H 	H 	0.6378	0.5911	0.6328	0.19
Mof_C 	C 	0.208	0.8833	0.1383	-0.264
Mof_H 	H 	0.1125	0.8839	0.16	0.115
Mof_C 	C 	0.473	0.8757	0.085	0.072
Mof_H 	H 	0.5709	0.8744	0.0665	0.026
Mof_C 	C 	0.409	0.9449	0.0848	-0.152
Mof_H 	H 	0.4605	0.9896	0.0666	0.087
Mof_C 	C 	0.27	0.9504	0.1106	0.111
Mof_C 	C 	0.186	0.0277	0.1067	-0.044
Mof_H 	H 	0.0922	0.018	0.1353	0.047
Mof_H 	H 	0.2393	0.0553	0.1277	0.05
Mof_C 	C 	0.2757	0.8153	0.1366	0.026
Mof_H 	H 	0.2246	0.7705	0.1556	0.034
Mof_O 	O 	0.4004	0.6823	0.1101	-0.341
Mof_C 	C 	0.02	0.285	0.6064	-0.092
Mof_O 	O 	0.03	0.2365	0.6698	-0.641
Mof_O 	O 	0.012	0.3552	0.5847	0.18
Mof_C 	C 	0.409	0.926	0.4567	-0.216
Mof_H 	H 	0.4489	0.9621	0.4134	0.098
Mof_C 	C 	0.48	0.857	0.479	0.155
Mof_H 	H 	0.567	0.8445	0.4539	-0.018
Mof_O 	O 	0.3887	0.6669	0.5828	-0.245
Mof_O 	O 	0.641	0.659	0.63	-0.227
Mof_C 	C 	0.219	0.8957	0.5538	0.326
Mof_H 	H 	0.1281	0.9137	0.5714	-0.063
Mof_C 	C 	0.28	0.816	0.594	-0.658
Mof_H 	H 	0.2459	0.7809	0.6403	0.282
Mof_H 	H 	0.6522	0.6053	0.1464	2.078
Mof_C 	C 	0.9735	0.6803	0.6512	0.416
Mof_C 	C 	0.9434	0.7363	0.5763	-0.154
Mof_C 	C 	0.9691	0.714	0.5175	0.202
Mof_H 	H 	0.0054	0.6619	0.524	-0.014
Mof_C 	C 	0.9434	0.7659	0.4485	-0.371
Mof_C 	C 	0.959	0.753	0.381	0.906
Mof_O 	O 	0.951	0.815	0.3148	0.016
Mof_O 	O 	0.99	0.6812	0.386	-0.575
Mof_C 	C 	0.8894	0.8118	0.5679	-0.003
Mof_H 	H 	0.8658	0.8269	0.6088	0.055
Mof_C 	C 	0.8907	0.8411	0.44	0.07
Mof_H 	H 	0.8682	0.8768	0.3936	0.009
Mof_C 	C 	0.8702	0.8652	0.4987	0.041
Mof_C 	C 	0.771	0.966	0.5451	-0.251
Mof_H 	H 	0.7008	0.9322	0.5793	0.107
Mof_H 	H 	0.8553	0.9629	0.571	0.111
Mof_C 	C 	0.705	0.0479	0.5161	0.404
Mof_C 	C 	0.541	0.062	0.507	-0.072
Mof_H 	H 	0.4786	0.0223	0.5176	0.047
Mof_C 	C 	0.766	0.107	0.507	-0.824
Mof_H 	H 	0.848	0.1024	0.5317	0.306
Mof_C 	C 	0.502	0.14	0.482	-0.021
Mof_H 	H 	0.4013	0.1546	0.4836	0.041
Mof_C 	C 	0.5835	0.1978	0.457	-0.241
Mof_C 	C 	0.716	0.1802	0.46	0.783
Mof_H 	H 	0.7814	0.2163	0.4312	-0.104
Mof_C 	C 	0.7414	0.5792	0.8221	0.201
Mof_C 	C 	0.63	0.527	0.832	0.304
Mof_C 	C 	0.4909	0.5565	0.8152	-0.42
Mof_H 	H 	0.4673	0.6111	0.7992	0.202
Mof_C 	C 	0.384	0.5087	0.821	0.612
Mof_C 	C 	0.661	0.4451	0.8574	-0.598
Mof_H 	H 	0.7548	0.4229	0.8702	0.256
Mof_C 	C 	0.24	0.5389	0.8021	0.086
Mof_O 	O 	0.9609	0.7074	0.7004	-0.46
Mof_O 	O 	0.0065	0.6106	0.6579	-0.432
Mof_O 	O 	0.813	0.9413	0.4851	-0.159
Mof_C 	C 	0.5075	0.2808	0.4232	0.108
Mof_H 	H 	0.4217	0.2889	0.4547	0.036
Mof_H 	H 	0.4774	0.2891	0.375	0.073
Mof_O 	O 	0.8771	0.5526	0.8137	-0.503
Mof_O 	O 	0.7117	0.6451	0.8205	-0.271
Mof_O 	O 	0.1935	0.6081	0.8016	-0.37
Mof_O 	O 	0.1697	0.497	0.7846	-0.384
Mof_C 	C 	0.4193	0.4285	0.8472	-1.51
Mof_C 	C 	0.5578	0.3977	0.8638	0.948
Mof_O 	O 	0.347	0.36	0.862	-1.915
Mof_Zn	Zn	0.98548	0.64222	0.80262	1.236
Mof_Zn	Zn	0.99075	0.49839	0.74166	1.237
Mof_C 	C 	0.5873	0.1919	0.8909	-0.029
Mof_C 	C 	0.788	0.093	0.916	0.106
Mof_H 	H 	0.8661	0.0762	0.8887	0.032
Mof_C 	C 	0.533	0.131	0.984	-0.155
Mof_H 	H 	0.4538	0.1468	0.0112	0.097
Mof_C 	C 	0.602	0.069	0.008	0.092
Mof_H 	H 	0.5607	0.033	0.0515	-0.011
Mof_C 	C 	0.735	0.0438	0.9812	-0.103
Mof_C 	C 	0.817	0.9682	0.0122	0.075
Mof_H 	H 	0.7673	0.9377	0.0587	0.015
Mof_H 	H 	0.9125	0.9765	0.0222	0.016
Mof_C 	C 	0.73	0.164	0.892	0.022
Mof_H 	H 	0.7954	0.2029	0.8724	0.018
Mof_C 	C 	0.8858	0.8473	0.9891	0.173
Mof_C 	C 	0.9032	0.8105	0.9369	-0.114
Mof_H 	H 	0.8859	0.8397	0.8879	0.092
Mof_C 	C 	0.9059	0.8072	0.0581	-0.11
Mof_H 	H 	0.8871	0.8322	0.0925	0.094
Mof_C 	C 	0.9455	0.7317	0.9587	-0.001
Mof_C 	C 	0.9546	0.7285	0.0802	-0.011
Mof_C 	C 	0.9663	0.689	0.0306	-0.005
Mof_H 	H 	0.9881	0.6343	0.0465	0.078
Mof_C 	C 	0.9831	0.6861	0.1566	0.383
Mof_C 	C 	0.9621	0.6921	0.9053	0.264
Mof_C 	C 	0.5054	0.2671	0.8815	0.072
Mof_H 	H 	0.4223	0.2606	0.9181	0.163
Mof_H 	H 	0.4693	0.2897	0.8329	0.156
Mof_O 	O 	0.8357	0.926	0.966	-0.241
Mof_O 	O 	0.9735	0.7222	0.199	-0.432
Mof_O 	O 	0.0199	0.6134	0.1758	-0.439
Mof_O 	O 	0.9731	0.6186	0.9262	-0.311
Mof_O 	O 	0.964	0.7335	0.8376	-0.375
Mof_C 	C 	0.6759	0.461	0.3747	-0.147
Mof_H 	H 	0.7702	0.4403	0.3877	0.107
Mof_C 	C 	0.4022	0.5225	0.3351	0.018
Mof_C 	C 	0.6436	0.5392	0.3446	0.003
Mof_C 	C 	0.5067	0.5712	0.3255	-0.042
Mof_H 	H 	0.4852	0.626	0.3061	0.089
Mof_C 	C 	0.7572	0.5937	0.329	0.311
Mof_C 	C 	0.2527	0.5507	0.3136	0.335
Mof_C 	C 	0.567	0.4102	0.3867	0.233
Mof_C 	C 	0.4332	0.4419	0.3636	-0.196
Mof_O 	O 	0.179	0.5021	0.3084	-0.44
Mof_O 	O 	0.2119	0.6227	0.3003	-0.416
Mof_O 	O 	0.8894	0.5644	0.3288	-0.505
Mof_O 	O 	0.7267	0.6637	0.3156	-0.291
Mof_Zn	Zn	0.00022	0.66033	0.29965	1.256
Mof_H 	H 	0.3622	0.4089	0.3672	0.19
Mof_C 	C 	0.792	0.1167	0.8617	-0.264
Mof_H 	H 	0.8875	0.1161	0.84	0.115
Mof_C 	C 	0.527	0.1243	0.915	0.072
Mof_H 	H 	0.4291	0.1256	0.9335	0.026
Mof_C 	C 	0.591	0.0551	0.9152	-0.152
Mof_H 	H 	0.5395	0.0104	0.9334	0.087
Mof_C 	C 	0.73	0.0496	0.8894	0.111
Mof_C 	C 	0.814	0.9723	0.8933	-0.044
Mof_H 	H 	0.9078	0.982	0.8647	0.047
Mof_H 	H 	0.7607	0.9447	0.8723	0.05
Mof_C 	C 	0.7243	0.1847	0.8634	0.026
Mof_H 	H 	0.7754	0.2295	0.8444	0.034
Mof_O 	O 	0.5996	0.3177	0.8899	-0.341
Mof_C 	C 	0.98	0.715	0.3936	-0.092
Mof_O 	O 	0.97	0.7635	0.3302	-0.641
Mof_O 	O 	0.988	0.6448	0.4153	0.18
Mof_C 	C 	0.591	0.074	0.5433	-0.216
Mof_H 	H 	0.5511	0.0379	0.5866	0.098
Mof_C 	C 	0.52	0.143	0.521	0.155
Mof_H 	H 	0.433	0.1555	0.5461	-0.018
Mof_O 	O 	0.6113	0.3331	0.4172	-0.245
Mof_O 	O 	0.359	0.341	0.37	-0.227
Mof_C 	C 	0.781	0.1043	0.4462	0.326
Mof_H 	H 	0.8719	0.0863	0.4286	-0.063
Mof_C 	C 	0.72	0.184	0.406	-0.658
Mof_H 	H 	0.7541	0.2191	0.3597	0.282
Mof_H 	H 	0.3478	0.3947	0.8536	2.078
_end
