data_functionalizedCrystal
_audit_creation_method	'EQeq! by Chris Wilmer'
_symmetry_space_group_name_H-M	'P1'
_symmetry_Int_Tables_number	1
_symmetry_cell_setting	triclinic
loop_
_symmetry_equiv_pos_as_xyz
  x,y,z
_cell_length_a	16.7807
_cell_length_b	6.6125
_cell_length_c	12.7143
_cell_angle_alpha	90
_cell_angle_beta	90
_cell_angle_gamma	90
loop_
_atom_site_label
_atom_site_type_symbol
_atom_site_fract_x
_atom_site_fract_y
_atom_site_fract_z
_atom_site_charge
Mof_C 	C 	0.2953	0.198	0.9865	0.083
Mof_C 	C 	0.2181	0.1982	0.0476	-0.004
Mof_O 	O 	0.4238	0.8486	0.8478	-1.78
Mof_O 	O 	0.5882	0.3377	0.6652	-1.812
Mof_H 	H 	0.32449	0.34723	0.96344	-0.041
Mof_H 	H 	0.18901	0.34758	0.07062	-0.006
Mof_H 	H 	0.5	0.5	0.88655	0.684
Mof_H 	H 	0.5	8.94648e-33	0.61405	0.635
Mof_C 	C 	0.7953	0.698	0.4865	0.007
Mof_C 	C 	0.7181	0.6982	0.5476	0.118
Mof_O 	O 	0.9238	0.3486	0.3478	-0.953
Mof_O 	O 	0.0882	0.8377	0.1652	-1.334
Mof_H 	H 	0.82449	0.84723	0.46344	0.02
Mof_H 	H 	0.68901	0.84758	0.57062	-0.047
Mof_H 	H 	1.09812e-33	0	0.38655	0.41
Mof_H 	H 	-7.94314e-34	0.5	0.11405	0.357
Mof_C 	C 	0.7047	0.802	0.9865	0.049
Mof_C 	C 	0.7819	0.8018	0.0476	-0.024
Mof_O 	O 	0.5762	0.1514	0.8478	-1.738
Mof_O 	O 	0.4118	0.6623	0.6652	-1.818
Mof_H 	H 	0.67551	0.65277	0.96344	-0.027
Mof_H 	H 	0.81099	0.65242	0.07062	0.046
Mof_C 	C 	0.2047	0.302	0.4865	0.004
Mof_C 	C 	0.2819	0.3018	0.5476	0.1
Mof_O 	O 	0.0762	0.6514	0.3478	-1.253
Mof_O 	O 	0.9118	0.1623	0.1652	-1.038
Mof_H 	H 	0.17551	0.15277	0.46344	-0.003
Mof_H 	H 	0.31099	0.15242	0.57062	-0.019
Mof_C 	C 	0.2953	0.802	0.9865	0.035
Mof_C 	C 	0.2181	0.8018	0.0476	-0.053
Mof_O 	O 	0.4238	0.1514	0.8478	-1.743
Mof_O 	O 	0.5882	0.6623	0.6652	-1.811
Mof_H 	H 	0.32449	0.65277	0.96344	-0.036
Mof_H 	H 	0.18901	0.65242	0.07062	-0
Mof_C 	C 	0.7953	0.302	0.4865	0.017
Mof_C 	C 	0.7181	0.3018	0.5476	0.128
Mof_O 	O 	0.9238	0.6514	0.3478	-0.946
Mof_O 	O 	0.0882	0.1623	0.1652	-1.303
Mof_H 	H 	0.82449	0.15277	0.46344	0.056
Mof_H 	H 	0.68901	0.15242	0.57062	-0.01
Mof_C 	C 	0.7047	0.198	0.9865	0.096
Mof_C 	C 	0.7819	0.1982	0.0476	0.023
Mof_O 	O 	0.5762	0.8486	0.8478	-1.774
Mof_O 	O 	0.4118	0.3377	0.6652	-1.818
Mof_H 	H 	0.67551	0.34723	0.96344	-0.032
Mof_H 	H 	0.81099	0.34758	0.07062	0.04
Mof_C 	C 	0.2047	0.698	0.4865	-0.007
Mof_C 	C 	0.2819	0.6982	0.5476	0.09
Mof_O 	O 	0.0762	0.3486	0.3478	-1.258
Mof_O 	O 	0.9118	0.8377	0.1652	-1.064
Mof_H 	H 	0.17551	0.84723	0.46344	-0.041
Mof_H 	H 	0.31099	0.84758	0.57062	-0.056
Mof_Al	Al	0.5	0.75	0.75	7.803
Mof_Al	Al	7.10206e-34	0.25	0.25	5.123
Mof_Al	Al	0.5	0.25	0.75	7.918
Mof_Al	Al	2.94683e-33	0.75	0.25	4.982
Mof_C 	C 	0.1946	1.11831e-33	0.0662	-0.244
Mof_C 	C 	0.3186	0	0.968	-0.428
Mof_C 	C 	0.386	0	0.8918	1.382
Mof_C 	C 	0.6946	0.5	0.5662	-0.467
Mof_C 	C 	0.8186	0.5	0.468	-0.221
Mof_C 	C 	0.886	0.5	0.3918	0.879
Mof_C 	C 	0.8054	1.11831e-33	0.0662	-0.181
Mof_C 	C 	0.6814	0	0.968	-0.425
Mof_C 	C 	0.614	0	0.8918	1.392
Mof_C 	C 	0.3054	0.5	0.5662	-0.471
Mof_C 	C 	0.1814	0.5	0.468	-0.32
Mof_C 	C 	0.114	0.5	0.3918	0.919
Mof_C 	C 	0.6211	0.5	0.6312	1.349
Mof_C 	C 	0.1211	2.23662e-33	0.1312	0.993
Mof_C 	C 	0.3789	0.5	0.6312	1.34
Mof_C 	C 	0.8789	2.23662e-33	0.1312	0.962
Mof_O 	O 	0.5	0.5	0.8079	-3.366
Mof_O 	O 	-1.36193e-33	0	0.3079	-2.374
Mof_O 	O 	0.5	1.7893e-32	0.6927	-3.306
Mof_O 	O 	-1.68919e-33	0.5	0.1927	-2.388
_end
