# CIF file generated by openbabel 3.1.0, see https://openbabel.org
data_I
_chemical_name_common 'GIWCOF_ion_b'
_cell_length_a 17.1679
_cell_length_b 17.1679
_cell_length_c 33.715
_cell_angle_alpha 113.382
_cell_angle_beta 113.382
_cell_angle_gamma 44.0047
_space_group_name_H-M_alt 'P 1'
_space_group_name_Hall 'P 1'
loop_
    _symmetry_equiv_pos_as_xyz
    x,y,z
loop_
    _atom_site_label
    _atom_site_type_symbol
    _atom_site_fract_x
    _atom_site_fract_y
    _atom_site_fract_z
    _atom_site_occupancy
    Ag1      Ag       0.53248    0.01728    0.76951    1.000
    C2       C        0.86433    0.15713    0.64704    1.000
    H3       H        0.79090    0.18090    0.63580    1.000
    C4       C        0.88590    0.22510    0.68033    1.000
    H5       H        0.83180    0.30040    0.69470    1.000
    C6       C        0.00152    0.15892    0.68743    1.000
    H7       H        0.04260    0.18040    0.70840    1.000
    C8       C        0.04922    0.05422    0.65854    1.000
    C9       C        0.16473    0.96193    0.65494    1.000
    C10      C        0.21326    0.85706    0.62665    1.000
    C11      C        0.33034    0.76794    0.62068    1.000
    H12      H        0.39000    0.76820    0.63600    1.000
    C13      C        0.33940    0.68420    0.58942    1.000
    H14      H        0.40650    0.61450    0.57830    1.000
    C15      C        0.23229    0.71869    0.57641    1.000
    H16      H        0.21600    0.67420    0.55460    1.000
    C17      C        0.24325    0.97905    0.68424    1.000
    C18      C        0.32785    0.91285    0.71651    1.000
    H19      H        0.33650    0.85490    0.72030    1.000
    C20      C        0.39949    0.93309    0.74305    1.000
    H21      H        0.45560    0.88840    0.76540    1.000
    C22      C        0.31270    0.07450    0.70803    1.000
    H23      H        0.30760    0.13060    0.70480    1.000
    C24      C        0.23701    0.06301    0.68103    1.000
    H25      H        0.17980    0.11160    0.65990    1.000
    C26      C        0.70520    0.06860    0.56040    1.000
    H27      H        0.70970    0.08510    0.53800    1.000
    C28      C        0.60350    0.10930    0.56640    1.000
    H29      H        0.52920    0.15740    0.55000    1.000
    C30      C        0.63560    0.06360    0.60140    1.000
    H31      H        0.58640    0.07280    0.61280    1.000
    C32      C        0.75167    0.00187    0.61739    1.000
    C33      C        0.81809    0.94129    0.65174    1.000
    C34      C        0.93524    0.87304    0.66660    1.000
    C35      C        0.00120    0.81820    0.70451    1.000
    H36      H        0.97250    0.81970    0.72400    1.000
    C37      C        0.11030    0.76470    0.70764    1.000
    H38      H        0.17290    0.71970    0.72900    1.000
    C39      C        0.11400    0.78800    0.67294    1.000
    H40      H        0.18050    0.76330    0.66830    1.000
    C41      C        0.75568    0.95108    0.67680    1.000
    C42      C        0.67317    0.05677    0.69964    1.000
    H43      H        0.65550    0.12290    0.69880    1.000
    C44      C        0.61760    0.06460    0.72340    1.000
    H45      H        0.56260    0.13700    0.73910    1.000
    C46      C        0.71570    0.87490    0.70330    1.000
    H47      H        0.73050    0.81050    0.70420    1.000
    C48      C        0.77640    0.86040    0.67913    1.000
    H49      H        0.83230    0.78690    0.66430    1.000
    C50      C        0.07067    0.87767    0.02697    1.000
    H51      H        0.12750    0.86670    0.05180    1.000
    C52      C        0.08353    0.85073    0.98342    1.000
    H53      H        0.14830    0.81810    0.97370    1.000
    C54      C        0.98286    0.88146    0.95816    1.000
    H55      H        0.96370    0.87570    0.92720    1.000
    C56      C        0.91178    0.92358    0.98634    1.000
    C57      C        0.80310    0.96090    0.97354    1.000
    C58      C        0.73044    0.99824    0.99995    1.000
    C59      C        0.62170    0.03550    0.98610    1.000
    H60      H        0.58080    0.04080    0.95690    1.000
    C61      C        0.58530    0.06290    0.02260    1.000
    H62      H        0.51400    0.09080    0.02340    1.000
    C63      C        0.67060    0.04320    0.05830    1.000
    H64      H        0.66650    0.05550    0.08770    1.000
    C65      C        0.75205    0.96385    0.92587    1.000
    C66      C        0.70630    0.05010    0.90713    1.000
    H67      H        0.71030    0.10690    0.92390    1.000
    C68      C        0.65316    0.05356    0.86265    1.000
    H69      H        0.62010    0.11450    0.85010    1.000
    C70      C        0.69655    0.88955    0.85585    1.000
    H71      H        0.69540    0.83140    0.83810    1.000
    C72      C        0.74954    0.88074    0.89950    1.000
    H73      H        0.78360    0.81780    0.91090    1.000
    In74     In       0.97326    0.91142    0.59017    1.000
    N75      N        0.96043    0.05483    0.63327    1.000
    N76      N        0.15480    0.82080    0.59781    1.000
    N77      N        0.39509    0.00989    0.73943    1.000
    N78      N        0.79499    0.00379    0.59016    1.000
    N79      N        0.01151    0.84951    0.64754    1.000
    N80      N        0.63721    0.97681    0.72540    1.000
    N81      N        0.97153    0.91973    0.02950    1.000
    N82      N        0.75978    0.00438    0.04551    1.000
    N83      N        0.64760    0.97460    0.83767    1.000
    P84      P        0.68211    0.66585    0.72486    1.000
    F85      F        0.78162    0.56652    0.70661    1.000
    F86      F        0.65881    0.59961    0.72665    1.000
    F87      F        0.66850    0.70790    0.77474    1.000
    F88      F        0.65872    0.76872    0.74994    1.000
    F89      F        0.57613    0.67793    0.70237    1.000
    F90      F        0.60945    0.74825    0.69198    1.000
    Ag91     Ag       0.98272    0.46752    0.73049    1.000
    C92      C        0.84287    0.13567    0.85296    1.000
    H93      H        0.81910    0.20910    0.86420    1.000
    C94      C        0.77490    0.11410    0.81967    1.000
    H95      H        0.69960    0.16820    0.80530    1.000
    C96      C        0.84108    0.99848    0.81257    1.000
    H97      H        0.81960    0.95740    0.79160    1.000
    C98      C        0.94578    0.95078    0.84146    1.000
    C99      C        0.03807    0.83527    0.84506    1.000
    C100     C        0.14294    0.78674    0.87335    1.000
    C101     C        0.23206    0.66966    0.87932    1.000
    H102     H        0.23180    0.61000    0.86400    1.000
    C103     C        0.31580    0.66060    0.91058    1.000
    H104     H        0.38550    0.59350    0.92170    1.000
    C105     C        0.28131    0.76771    0.92359    1.000
    H106     H        0.32580    0.78400    0.94540    1.000
    C107     C        0.02095    0.75675    0.81576    1.000
    C108     C        0.08715    0.67215    0.78349    1.000
    H109     H        0.14510    0.66350    0.77970    1.000
    C110     C        0.06691    0.60051    0.75695    1.000
    H111     H        0.11160    0.54440    0.73460    1.000
    C112     C        0.92550    0.68730    0.79197    1.000
    H113     H        0.86940    0.69240    0.79520    1.000
    C114     C        0.93699    0.76299    0.81897    1.000
    H115     H        0.88840    0.82020    0.84010    1.000
    C116     C        0.93140    0.29480    0.93960    1.000
    H117     H        0.91490    0.29030    0.96200    1.000
    C118     C        0.89070    0.39650    0.93360    1.000
    H119     H        0.84260    0.47080    0.95000    1.000
    C120     C        0.93640    0.36440    0.89860    1.000
    H121     H        0.92720    0.41360    0.88720    1.000
    C122     C        0.99813    0.24833    0.88261    1.000
    C123     C        0.05871    0.18191    0.84826    1.000
    C124     C        0.12696    0.06476    0.83340    1.000
    C125     C        0.18180    0.99880    0.79549    1.000
    H126     H        0.18030    0.02750    0.77600    1.000
    C127     C        0.23530    0.88970    0.79236    1.000
    H128     H        0.28030    0.82710    0.77100    1.000
    C129     C        0.21200    0.88600    0.82706    1.000
    H130     H        0.23670    0.81950    0.83170    1.000
    C131     C        0.04892    0.24432    0.82320    1.000
    C132     C        0.94323    0.32683    0.80036    1.000
    H133     H        0.87710    0.34450    0.80120    1.000
    C134     C        0.93540    0.38240    0.77660    1.000
    H135     H        0.86300    0.43740    0.76090    1.000
    C136     C        0.12510    0.28430    0.79670    1.000
    H137     H        0.18950    0.26950    0.79580    1.000
    C138     C        0.13960    0.22360    0.82087    1.000
    H139     H        0.21310    0.16770    0.83570    1.000
    C140     C        0.12233    0.92933    0.47303    1.000
    H141     H        0.13330    0.87250    0.44820    1.000
    C142     C        0.14927    0.91647    0.51658    1.000
    H143     H        0.18190    0.85170    0.52630    1.000
    C144     C        0.11854    0.01714    0.54184    1.000
    H145     H        0.12430    0.03630    0.57280    1.000
    C146     C        0.07642    0.08822    0.51366    1.000
    C147     C        0.03910    0.19690    0.52646    1.000
    C148     C        0.00176    0.26956    0.50005    1.000
    C149     C        0.96450    0.37830    0.51390    1.000
    H150     H        0.95920    0.41920    0.54310    1.000
    C151     C        0.93710    0.41470    0.47740    1.000
    H152     H        0.90920    0.48600    0.47660    1.000
    C153     C        0.95680    0.32940    0.44170    1.000
    H154     H        0.94450    0.33350    0.41230    1.000
    C155     C        0.03615    0.24795    0.57413    1.000
    C156     C        0.94990    0.29370    0.59287    1.000
    H157     H        0.89310    0.28970    0.57610    1.000
    C158     C        0.94644    0.34684    0.63735    1.000
    H159     H        0.88550    0.37990    0.64990    1.000
    C160     C        0.11045    0.30345    0.64415    1.000
    H161     H        0.16860    0.30460    0.66190    1.000
    C162     C        0.11926    0.25046    0.60050    1.000
    H163     H        0.18220    0.21640    0.58910    1.000
    In164    In       0.08858    0.02674    0.90983    1.000
    N165     N        0.94517    0.03957    0.86673    1.000
    N166     N        0.17920    0.84520    0.90219    1.000
    N167     N        0.99011    0.60491    0.76057    1.000
    N168     N        0.99621    0.20501    0.90984    1.000
    N169     N        0.15049    0.98849    0.85246    1.000
    N170     N        0.02319    0.36279    0.77460    1.000
    N171     N        0.08027    0.02847    0.47050    1.000
    N172     N        0.99562    0.24022    0.45449    1.000
    N173     N        0.02540    0.35240    0.66233    1.000
    P174     P        0.33415    0.31789    0.77514    1.000
    F175     F        0.43348    0.21838    0.79339    1.000
    F176     F        0.40039    0.34119    0.77335    1.000
    F177     F        0.29210    0.33150    0.72526    1.000
    F178     F        0.23128    0.34128    0.75006    1.000
    F179     F        0.32207    0.42387    0.79763    1.000
    F180     F        0.25175    0.39055    0.80802    1.000
    Ag181    Ag       0.46752    0.98272    0.23049    1.000
    C182     C        0.13567    0.84287    0.35296    1.000
    H183     H        0.20910    0.81910    0.36420    1.000
    C184     C        0.11410    0.77490    0.31967    1.000
    H185     H        0.16820    0.69960    0.30530    1.000
    C186     C        0.99848    0.84108    0.31257    1.000
    H187     H        0.95740    0.81960    0.29160    1.000
    C188     C        0.95078    0.94578    0.34146    1.000
    C189     C        0.83527    0.03807    0.34506    1.000
    C190     C        0.78674    0.14294    0.37335    1.000
    C191     C        0.66966    0.23206    0.37932    1.000
    H192     H        0.61000    0.23180    0.36400    1.000
    C193     C        0.66060    0.31580    0.41058    1.000
    H194     H        0.59350    0.38550    0.42170    1.000
    C195     C        0.76771    0.28131    0.42359    1.000
    H196     H        0.78400    0.32580    0.44540    1.000
    C197     C        0.75675    0.02095    0.31576    1.000
    C198     C        0.67215    0.08715    0.28349    1.000
    H199     H        0.66350    0.14510    0.27970    1.000
    C200     C        0.60051    0.06691    0.25695    1.000
    H201     H        0.54440    0.11160    0.23460    1.000
    C202     C        0.68730    0.92550    0.29197    1.000
    H203     H        0.69240    0.86940    0.29520    1.000
    C204     C        0.76299    0.93699    0.31897    1.000
    H205     H        0.82020    0.88840    0.34010    1.000
    C206     C        0.29480    0.93140    0.43960    1.000
    H207     H        0.29030    0.91490    0.46200    1.000
    C208     C        0.39650    0.89070    0.43360    1.000
    H209     H        0.47080    0.84260    0.45000    1.000
    C210     C        0.36440    0.93640    0.39860    1.000
    H211     H        0.41360    0.92720    0.38720    1.000
    C212     C        0.24833    0.99813    0.38261    1.000
    C213     C        0.18191    0.05871    0.34826    1.000
    C214     C        0.06476    0.12696    0.33340    1.000
    C215     C        0.99880    0.18180    0.29549    1.000
    H216     H        0.02750    0.18030    0.27600    1.000
    C217     C        0.88970    0.23530    0.29236    1.000
    H218     H        0.82710    0.28030    0.27100    1.000
    C219     C        0.88600    0.21200    0.32706    1.000
    H220     H        0.81950    0.23670    0.33170    1.000
    C221     C        0.24432    0.04892    0.32320    1.000
    C222     C        0.32683    0.94323    0.30036    1.000
    H223     H        0.34450    0.87710    0.30120    1.000
    C224     C        0.38240    0.93540    0.27660    1.000
    H225     H        0.43740    0.86300    0.26090    1.000
    C226     C        0.28430    0.12510    0.29670    1.000
    H227     H        0.26950    0.18950    0.29580    1.000
    C228     C        0.22360    0.13960    0.32087    1.000
    H229     H        0.16770    0.21310    0.33570    1.000
    C230     C        0.92933    0.12233    0.97303    1.000
    H231     H        0.87250    0.13330    0.94820    1.000
    C232     C        0.91647    0.14927    0.01658    1.000
    H233     H        0.85170    0.18190    0.02630    1.000
    C234     C        0.01714    0.11854    0.04184    1.000
    H235     H        0.03630    0.12430    0.07280    1.000
    C236     C        0.08822    0.07642    0.01366    1.000
    C237     C        0.19690    0.03910    0.02646    1.000
    C238     C        0.26956    0.00176    0.00005    1.000
    C239     C        0.37830    0.96450    0.01390    1.000
    H240     H        0.41920    0.95920    0.04310    1.000
    C241     C        0.41470    0.93710    0.97740    1.000
    H242     H        0.48600    0.90920    0.97660    1.000
    C243     C        0.32940    0.95680    0.94170    1.000
    H244     H        0.33350    0.94450    0.91230    1.000
    C245     C        0.24795    0.03615    0.07413    1.000
    C246     C        0.29370    0.94990    0.09287    1.000
    H247     H        0.28970    0.89310    0.07610    1.000
    C248     C        0.34684    0.94644    0.13735    1.000
    H249     H        0.37990    0.88550    0.14990    1.000
    C250     C        0.30345    0.11045    0.14415    1.000
    H251     H        0.30460    0.16860    0.16190    1.000
    C252     C        0.25046    0.11926    0.10050    1.000
    H253     H        0.21640    0.18220    0.08910    1.000
    In254    In       0.02674    0.08858    0.40983    1.000
    N255     N        0.03957    0.94517    0.36673    1.000
    N256     N        0.84520    0.17920    0.40219    1.000
    N257     N        0.60491    0.99011    0.26057    1.000
    N258     N        0.20501    0.99621    0.40984    1.000
    N259     N        0.98849    0.15049    0.35246    1.000
    N260     N        0.36279    0.02319    0.27460    1.000
    N261     N        0.02847    0.08027    0.97050    1.000
    N262     N        0.24022    0.99562    0.95449    1.000
    N263     N        0.35240    0.02540    0.16233    1.000
    P264     P        0.31789    0.33415    0.27514    1.000
    F265     F        0.21838    0.43348    0.29339    1.000
    F266     F        0.34119    0.40039    0.27335    1.000
    F267     F        0.33150    0.29210    0.22526    1.000
    F268     F        0.34128    0.23128    0.25006    1.000
    F269     F        0.42387    0.32207    0.29763    1.000
    F270     F        0.39055    0.25175    0.30802    1.000
    Ag271    Ag       0.01728    0.53248    0.26951    1.000
    C272     C        0.15713    0.86433    0.14704    1.000
    H273     H        0.18090    0.79090    0.13580    1.000
    C274     C        0.22510    0.88590    0.18033    1.000
    H275     H        0.30040    0.83180    0.19470    1.000
    C276     C        0.15892    0.00152    0.18743    1.000
    H277     H        0.18040    0.04260    0.20840    1.000
    C278     C        0.05422    0.04922    0.15854    1.000
    C279     C        0.96193    0.16473    0.15494    1.000
    C280     C        0.85706    0.21326    0.12665    1.000
    C281     C        0.76794    0.33034    0.12068    1.000
    H282     H        0.76820    0.39000    0.13600    1.000
    C283     C        0.68420    0.33940    0.08942    1.000
    H284     H        0.61450    0.40650    0.07830    1.000
    C285     C        0.71869    0.23229    0.07641    1.000
    H286     H        0.67420    0.21600    0.05460    1.000
    C287     C        0.97905    0.24325    0.18424    1.000
    C288     C        0.91285    0.32785    0.21651    1.000
    H289     H        0.85490    0.33650    0.22030    1.000
    C290     C        0.93309    0.39949    0.24305    1.000
    H291     H        0.88840    0.45560    0.26540    1.000
    C292     C        0.07450    0.31270    0.20803    1.000
    H293     H        0.13060    0.30760    0.20480    1.000
    C294     C        0.06301    0.23701    0.18103    1.000
    H295     H        0.11160    0.17980    0.15990    1.000
    C296     C        0.06860    0.70520    0.06040    1.000
    H297     H        0.08510    0.70970    0.03800    1.000
    C298     C        0.10930    0.60350    0.06640    1.000
    H299     H        0.15740    0.52920    0.05000    1.000
    C300     C        0.06360    0.63560    0.10140    1.000
    H301     H        0.07280    0.58640    0.11280    1.000
    C302     C        0.00187    0.75167    0.11739    1.000
    C303     C        0.94129    0.81809    0.15174    1.000
    C304     C        0.87304    0.93524    0.16660    1.000
    C305     C        0.81820    0.00120    0.20451    1.000
    H306     H        0.81970    0.97250    0.22400    1.000
    C307     C        0.76470    0.11030    0.20764    1.000
    H308     H        0.71970    0.17290    0.22900    1.000
    C309     C        0.78800    0.11400    0.17294    1.000
    H310     H        0.76330    0.18050    0.16830    1.000
    C311     C        0.95108    0.75568    0.17680    1.000
    C312     C        0.05677    0.67317    0.19964    1.000
    H313     H        0.12290    0.65550    0.19880    1.000
    C314     C        0.06460    0.61760    0.22340    1.000
    H315     H        0.13700    0.56260    0.23910    1.000
    C316     C        0.87490    0.71570    0.20330    1.000
    H317     H        0.81050    0.73050    0.20420    1.000
    C318     C        0.86040    0.77640    0.17913    1.000
    H319     H        0.78690    0.83230    0.16430    1.000
    C320     C        0.87767    0.07067    0.52697    1.000
    H321     H        0.86670    0.12750    0.55180    1.000
    C322     C        0.85073    0.08353    0.48342    1.000
    H323     H        0.81810    0.14830    0.47370    1.000
    C324     C        0.88146    0.98286    0.45816    1.000
    H325     H        0.87570    0.96370    0.42720    1.000
    C326     C        0.92358    0.91178    0.48634    1.000
    C327     C        0.96090    0.80310    0.47354    1.000
    C328     C        0.99824    0.73044    0.49995    1.000
    C329     C        0.03550    0.62170    0.48610    1.000
    H330     H        0.04080    0.58080    0.45690    1.000
    C331     C        0.06290    0.58530    0.52260    1.000
    H332     H        0.09080    0.51400    0.52340    1.000
    C333     C        0.04320    0.67060    0.55830    1.000
    H334     H        0.05550    0.66650    0.58770    1.000
    C335     C        0.96385    0.75205    0.42587    1.000
    C336     C        0.05010    0.70630    0.40713    1.000
    H337     H        0.10690    0.71030    0.42390    1.000
    C338     C        0.05356    0.65316    0.36265    1.000
    H339     H        0.11450    0.62010    0.35010    1.000
    C340     C        0.88955    0.69655    0.35585    1.000
    H341     H        0.83140    0.69540    0.33810    1.000
    C342     C        0.88074    0.74954    0.39950    1.000
    H343     H        0.81780    0.78360    0.41090    1.000
    In344    In       0.91142    0.97326    0.09017    1.000
    N345     N        0.05483    0.96043    0.13327    1.000
    N346     N        0.82080    0.15480    0.09781    1.000
    N347     N        0.00989    0.39509    0.23943    1.000
    N348     N        0.00379    0.79499    0.09016    1.000
    N349     N        0.84951    0.01151    0.14754    1.000
    N350     N        0.97681    0.63721    0.22540    1.000
    N351     N        0.91973    0.97153    0.52950    1.000
    N352     N        0.00438    0.75978    0.54551    1.000
    N353     N        0.97460    0.64760    0.33767    1.000
    P354     P        0.66585    0.68211    0.22486    1.000
    F355     F        0.56652    0.78162    0.20661    1.000
    F356     F        0.59961    0.65881    0.22665    1.000
    F357     F        0.70790    0.66850    0.27474    1.000
    F358     F        0.76872    0.65872    0.24994    1.000
    F359     F        0.67793    0.57613    0.20237    1.000
    F360     F        0.74825    0.60945    0.19198    1.000
