data_functionalizedCrystal
_audit_creation_method	'EQeq! by Chris Wilmer'
_symmetry_space_group_name_H-M	'P1'
_symmetry_Int_Tables_number	1
_symmetry_cell_setting	triclinic
loop_
_symmetry_equiv_pos_as_xyz
  x,y,z
_cell_length_a	10.8625
_cell_length_b	14.4803
_cell_length_c	15.3077
_cell_angle_alpha	113.142
_cell_angle_beta	90.457
_cell_angle_gamma	107.818
loop_
_atom_site_label
_atom_site_type_symbol
_atom_site_fract_x
_atom_site_fract_y
_atom_site_fract_z
_atom_site_charge
Mof_Ag	Ag	0.5467	0.97226	0.6109	0.445
Mof_Ag	Ag	0.0843	0.57711	0.29875	0.338
Mof_Ag	Ag	0.9785	0.33827	0.04735	0.278
Mof_Ag	Ag	0.0272	0.12321	0.11188	0.459
Mof_Ag	Ag	0.8024	0.19825	0.77172	0.337
Mof_C 	C 	0.3052	0.7603	0.4715	0.115
Mof_C 	C 	0.3126	0.694	0.5236	-0.079
Mof_C 	C 	0.3029	0.588	0.4725	-0.021
Mof_H 	H 	0.2932	0.5602	0.4058	-0.003
Mof_C 	C 	0.307	0.5222	0.518	-0.108
Mof_H 	H 	0.301	0.4515	0.4831	0.046
Mof_C 	C 	0.321	0.567	0.616	-0.01
Mof_H 	H 	0.3221	0.5242	0.6482	-0.001
Mof_C 	C 	0.333	0.673	0.6691	-0.089
Mof_H 	H 	0.3436	0.7007	0.7358	0.035
Mof_C 	C 	0.3278	0.7344	0.6227	-0.007
Mof_H 	H 	0.3348	0.8052	0.6582	0.004
Mof_C 	C 	0.9729	0.2814	0.3146	0.106
Mof_C 	C 	0.9602	0.2134	0.3655	-0.021
Mof_C 	C 	0.0191	0.2541	0.4583	-0.058
Mof_H 	H 	0.0707	0.3255	0.489	0.006
Mof_C 	C 	0.001	0.188	0.5072	-0.06
Mof_H 	H 	0.0417	0.2154	0.5702	0.012
Mof_C 	C 	0.926	0.0827	0.4628	-0.017
Mof_H 	H 	0.9128	0.0394	0.4958	0.026
Mof_C 	C 	0.87	0.0418	0.37	-0.048
Mof_H 	H 	0.82	0.9698	0.3396	0.016
Mof_C 	C 	0.8845	0.1061	0.3181	-0.047
Mof_H 	H 	0.8452	0.0776	0.2547	0.014
Mof_C 	C 	0.8433	0.0137	0.8192	0.102
Mof_C 	C 	0.778	0.9299	0.724	-0.065
Mof_C 	C 	0.7101	0.8271	0.719	-0.032
Mof_H 	H 	0.7068	0.8152	0.7745	0.002
Mof_C 	C 	0.6486	0.7443	0.631	-0.072
Mof_H 	H 	0.6069	0.676	0.6271	0.042
Mof_C 	C 	0.6493	0.763	0.5494	-0.025
Mof_H 	H 	0.6046	0.7083	0.491	0.021
Mof_C 	C 	0.7173	0.8645	0.5547	-0.092
Mof_H 	H 	0.7196	0.8765	0.4992	0.03
Mof_C 	C 	0.7814	0.9475	0.642	-0.056
Mof_H 	H 	0.8265	0.0149	0.645	0.011
Mof_N 	N 	0.3734	0.864	0.5019	-0.164
Mof_N 	N 	0.342	0.8912	0.4345	-0.119
Mof_N 	N 	0.2564	0.8083	0.3666	-0.134
Mof_N 	N 	0.231	0.7244	0.3887	-0.176
Mof_N 	N 	0.9879	0.386	0.3565	-0.165
Mof_N 	N 	0.988	0.4167	0.2836	-0.128
Mof_N 	N 	0.9732	0.3345	0.2026	-0.118
Mof_N 	N 	0.9643	0.2486	0.2202	-0.163
Mof_N 	N 	0.8943	0.999	0.8902	-0.18
Mof_N 	N 	0.9362	0.095	0.9644	-0.126
Mof_N 	N 	0.913	0.1666	0.9405	-0.126
Mof_N 	N 	0.8551	0.1175	0.8488	-0.175
Mof_Ag	Ag	0.4533	0.02774	0.3891	0.448
Mof_Ag	Ag	0.9157	0.42289	0.70125	0.381
Mof_Ag	Ag	0.0215	0.66173	0.95265	0.236
Mof_Ag	Ag	0.9728	0.87679	0.88812	0.515
Mof_Ag	Ag	0.1976	0.80175	0.22828	0.328
Mof_C 	C 	0.6948	0.2397	0.5285	0.118
Mof_C 	C 	0.6874	0.306	0.4764	-0.079
Mof_C 	C 	0.6971	0.412	0.5275	-0.019
Mof_H 	H 	0.7068	0.4398	0.5942	-0.003
Mof_C 	C 	0.693	0.4778	0.482	-0.106
Mof_H 	H 	0.699	0.5485	0.5169	0.048
Mof_C 	C 	0.679	0.433	0.384	-0.009
Mof_H 	H 	0.6779	0.4758	0.3518	0.001
Mof_C 	C 	0.667	0.327	0.3309	-0.089
Mof_H 	H 	0.6564	0.2993	0.2642	0.036
Mof_C 	C 	0.6722	0.2656	0.3773	-0.006
Mof_H 	H 	0.6652	0.1948	0.3418	0.005
Mof_C 	C 	0.0271	0.7186	0.6854	0.108
Mof_C 	C 	0.0398	0.7866	0.6345	-0.055
Mof_C 	C 	0.9809	0.7459	0.5417	-0.03
Mof_H 	H 	0.9293	0.6745	0.511	0.005
Mof_C 	C 	0.999	0.812	0.4928	-0.013
Mof_H 	H 	0.9583	0.7846	0.4298	0.006
Mof_C 	C 	0.074	0.9173	0.5372	-0.074
Mof_H 	H 	0.0872	0.9606	0.5042	0.038
Mof_C 	C 	0.13	0.9582	0.63	-0.033
Mof_H 	H 	0.18	0.0302	0.6604	0.008
Mof_C 	C 	0.1155	0.8939	0.6819	-0.05
Mof_H 	H 	0.1548	0.9224	0.7453	0.008
Mof_C 	C 	0.1567	0.9863	0.1808	0.097
Mof_C 	C 	0.222	0.0701	0.276	-0.066
Mof_C 	C 	0.2899	0.1729	0.281	-0.034
Mof_H 	H 	0.2932	0.1848	0.2255	0.002
Mof_C 	C 	0.3514	0.2557	0.369	-0.074
Mof_H 	H 	0.3931	0.324	0.3729	0.042
Mof_C 	C 	0.3507	0.237	0.4506	-0.024
Mof_H 	H 	0.3954	0.2917	0.509	0.019
Mof_C 	C 	0.2827	0.1355	0.4453	-0.095
Mof_H 	H 	0.2804	0.1235	0.5008	0.029
Mof_C 	C 	0.2186	0.0525	0.358	-0.055
Mof_H 	H 	0.1735	0.9851	0.355	0.006
Mof_N 	N 	0.6266	0.136	0.4981	-0.164
Mof_N 	N 	0.658	0.1088	0.5655	-0.118
Mof_N 	N 	0.7436	0.1917	0.6334	-0.133
Mof_N 	N 	0.769	0.2756	0.6113	-0.177
Mof_N 	N 	0.0121	0.614	0.6435	-0.174
Mof_N 	N 	0.012	0.5833	0.7164	-0.14
Mof_N 	N 	0.0268	0.6655	0.7974	-0.122
Mof_N 	N 	0.0357	0.7514	0.7798	-0.175
Mof_N 	N 	0.1057	0.001	0.1098	-0.178
Mof_N 	N 	0.0638	0.905	0.0356	-0.136
Mof_N 	N 	0.087	0.8334	0.0595	-0.126
Mof_N 	N 	0.1449	0.8825	0.1512	-0.175
Mof_Ag	Ag	1.36309e-17	0.5	0.5	0.488
_end
