data_functionalizedCrystal
_audit_creation_method	'EQeq! by Chris Wilmer'
_symmetry_space_group_name_H-M	'P1'
_symmetry_Int_Tables_number	1
_symmetry_cell_setting	triclinic
loop_
_symmetry_equiv_pos_as_xyz
  x,y,z
_cell_length_a	24.274
_cell_length_b	25.634
_cell_length_c	11.0898
_cell_angle_alpha	90
_cell_angle_beta	114.924
_cell_angle_gamma	90
loop_
_atom_site_label
_atom_site_type_symbol
_atom_site_fract_x
_atom_site_fract_y
_atom_site_fract_z
_atom_site_charge
Mof_Ni	Ni	0.74394	0.42056	0.02015	1.074
Mof_Ni	Ni	0.75579	0.46172	0.48234	1.079
Mof_Ni	Ni	0.74908	0.43908	0.7498	1.132
Mof_O 	O 	0.6992	0.3773	0.7137	-0.388
Mof_C 	C 	0.5278	0.0869	0.6589	-0.184
Mof_H 	H 	0.4869	0.0936	0.6353	0.097
Mof_C 	C 	0.9769	0.7123	0.9489	-0.048
Mof_C 	C 	0.5251	0.174	0.5498	-0.058
Mof_C 	C 	0.5543	0.1225	0.6173	0.099
Mof_O 	O 	0.8176	0.4963	0.7983	-0.455
Mof_C 	C 	0.9433	0.7573	0.8741	0.08
Mof_C 	C 	0.5709	0.2571	0.5316	-0.142
Mof_H 	H 	0.5511	0.2529	0.4399	0.086
Mof_C 	C 	0.9256	0.6221	0.9684	-0.153
Mof_H 	H 	0.9422	0.6257	0.0604	0.087
Mof_C 	C 	0.5631	0.2224	0.6105	0.103
Mof_C 	C 	0.9789	0.7933	0.835	-0.112
Mof_H 	H 	0.0195	0.7891	0.8516	0.074
Mof_O 	O 	0.6885	0.3606	0.9109	-0.417
Mof_C 	C 	0.9114	0.6541	0.7482	-0.136
Mof_H 	H 	0.9144	0.6797	0.6916	0.078
Mof_C 	C 	0.6346	0.3056	0.7268	-0.124
Mof_C 	C 	0.885	0.8458	0.7313	-0.064
Mof_C 	C 	0.9396	0.6616	0.8944	0.075
Mof_C 	C 	0.8645	0.5704	0.7787	-0.15
Mof_C 	C 	0.5873	0.2315	0.7439	-0.156
Mof_H 	H 	0.5772	0.2093	0.7978	0.084
Mof_C 	C 	0.6273	0.2738	0.8036	0.073
Mof_H 	H 	0.647	0.2776	0.8955	0.013
Mof_C 	C 	0.8808	0.6086	0.6991	0.056
Mof_H 	H 	0.8694	0.6012	0.6097	0.015
Mof_C 	C 	0.612	0.0294	0.7607	-0.281
Mof_C 	C 	0.8917	0.5821	0.9179	0.083
Mof_H 	H 	0.8845	0.5594	0.9752	0.019
Mof_O 	O 	0.8091	0.5148	0.5974	-0.477
Mof_C 	C 	0.6108	0.3027	0.5874	0.046
Mof_H 	H 	0.6192	0.3271	0.5355	0.035
Mof_O 	O 	0.71	0.4701	0.8712	-0.689
Mof_H 	H 	0.7233	0.5055	0.8987	0.187
Mof_H 	H 	0.666	0.4688	0.8284	0.18
Mof_C 	C 	0.9398	0.8381	0.7643	0.004
Mof_H 	H 	0.9597	0.8646	0.741	0.045
Mof_C 	C 	0.5482	0.0406	0.7314	0.128
Mof_H 	H 	0.5241	0.0195	0.7581	-0.006
Mof_C 	C 	0.6735	0.3515	0.7845	0.301
Mof_C 	C 	0.8555	0.8087	0.771	0.041
Mof_H 	H 	0.8146	0.8127	0.7521	0.018
Mof_O 	O 	0.6935	0.4701	0.5684	-0.685
Mof_H 	H 	0.6832	0.5063	0.5745	0.182
Mof_H 	H 	0.6568	0.4498	0.5227	0.24
Mof_O 	O 	0.8021	0.3991	0.9305	-0.657
Mof_H 	H 	0.8037	0.3617	0.9189	0.217
Mof_H 	H 	0.8428	0.4132	0.9763	0.255
Mof_C 	C 	0.6483	0.0643	0.724	0.1
Mof_H 	H 	0.6887	0.056	0.7465	-0.019
Mof_C 	C 	0.6224	0.1146	0.6492	-0.149
Mof_H 	H 	0.6451	0.1382	0.625	0.081
Mof_N 	N 	0.8174	0.4286	0.4322	-0.195
Mof_O 	O 	0.8275	0.3314	0.6713	-0.329
Mof_C 	C 	0.8174	0.3666	0.6111	0.444
Mof_O 	O 	0.7845	0.3998	0.6389	-0.48
Mof_C 	C 	0.8784	0.4541	0.4831	-0.032
Mof_H 	H 	0.8772	0.4833	0.4265	0.043
Mof_H 	H 	0.8894	0.4672	0.5724	0.042
Mof_C 	C 	0.8851	0.7681	0.835	-0.143
Mof_H 	H 	0.8625	0.7433	0.8562	0.079
Mof_C 	C 	0.9243	0.4151	0.4841	-0.139
Mof_H 	H 	0.9653	0.4251	0.5439	0.067
Mof_H 	H 	0.9221	0.409	0.3958	0.074
Mof_C 	C 	0.8336	0.3764	0.4943	-0.176
Mof_H 	H 	0.8118	0.3505	0.4257	0.088
Mof_C 	C 	0.9021	0.3681	0.536	-0.012
Mof_H 	H 	0.9235	0.3659	0.632	0.039
Mof_H 	H 	0.9089	0.3361	0.4977	0.029
Mof_C 	C 	0.8246	0.5239	0.7232	0.427
Mof_O 	O 	0.6214	0.96	0.9037	-0.36
Mof_C 	C 	0.6461	0.987	0.8402	0.664
Mof_O 	O 	0.6853	0.9705	0.8484	-0.621
Mof_O 	O 	0.8958	0.9255	0.6238	-0.311
Mof_C 	C 	0.8643	0.9009	0.6502	0.231
Mof_O 	O 	0.7944	0.9007	0.6357	-0.353
Mof_Ni	Ni	0.24394	0.92056	0.02015	1.076
Mof_Ni	Ni	0.25579	0.96172	0.48234	1.081
Mof_Ni	Ni	0.24908	0.93908	0.7498	1.133
Mof_O 	O 	0.1992	0.8773	0.7137	-0.387
Mof_C 	C 	0.0278	0.5869	0.6589	-0.181
Mof_H 	H 	0.9869	0.5936	0.6353	0.097
Mof_C 	C 	0.4769	0.2123	0.9489	-0.048
Mof_C 	C 	0.0251	0.674	0.5498	-0.058
Mof_C 	C 	0.0543	0.6225	0.6173	0.098
Mof_O 	O 	0.3176	0.9963	0.7983	-0.45
Mof_C 	C 	0.4433	0.2573	0.8741	0.08
Mof_C 	C 	0.0709	0.7571	0.5316	-0.142
Mof_H 	H 	0.0511	0.7529	0.4399	0.085
Mof_C 	C 	0.4256	0.1221	0.9684	-0.153
Mof_H 	H 	0.4422	0.1257	0.0604	0.088
Mof_C 	C 	0.0631	0.7224	0.6105	0.103
Mof_C 	C 	0.4789	0.2933	0.835	-0.113
Mof_H 	H 	0.5195	0.2891	0.8516	0.074
Mof_O 	O 	0.1885	0.8606	0.9109	-0.417
Mof_C 	C 	0.4114	0.1541	0.7482	-0.135
Mof_H 	H 	0.4144	0.1797	0.6916	0.078
Mof_C 	C 	0.1346	0.8056	0.7268	-0.124
Mof_C 	C 	0.385	0.3458	0.7313	-0.064
Mof_C 	C 	0.4396	0.1616	0.8944	0.074
Mof_C 	C 	0.3645	0.0704	0.7787	-0.149
Mof_C 	C 	0.0873	0.7315	0.7439	-0.156
Mof_H 	H 	0.0772	0.7093	0.7978	0.084
Mof_C 	C 	0.1273	0.7738	0.8036	0.073
Mof_H 	H 	0.147	0.7776	0.8955	0.013
Mof_C 	C 	0.3808	0.1086	0.6991	0.055
Mof_H 	H 	0.3694	0.1012	0.6097	0.015
Mof_C 	C 	0.112	0.5294	0.7607	-0.274
Mof_C 	C 	0.3917	0.0821	0.9179	0.083
Mof_H 	H 	0.3845	0.0594	0.9752	0.018
Mof_O 	O 	0.3091	0.0148	0.5974	-0.478
Mof_C 	C 	0.1108	0.8027	0.5874	0.046
Mof_H 	H 	0.1192	0.8271	0.5355	0.035
Mof_O 	O 	0.21	0.9701	0.8712	-0.685
Mof_H 	H 	0.2233	0.0055	0.8987	0.183
Mof_H 	H 	0.166	0.9688	0.8284	0.18
Mof_C 	C 	0.4398	0.3381	0.7643	0.005
Mof_H 	H 	0.4597	0.3646	0.741	0.045
Mof_C 	C 	0.0482	0.5406	0.7314	0.125
Mof_H 	H 	0.0241	0.5195	0.7581	-0.004
Mof_C 	C 	0.1735	0.8515	0.7845	0.301
Mof_C 	C 	0.3555	0.3087	0.771	0.041
Mof_H 	H 	0.3146	0.3127	0.7521	0.018
Mof_O 	O 	0.1935	0.9701	0.5684	-0.681
Mof_H 	H 	0.1832	0.0063	0.5745	0.178
Mof_H 	H 	0.1568	0.9498	0.5227	0.239
Mof_O 	O 	0.3021	0.8991	0.9305	-0.657
Mof_H 	H 	0.3037	0.8617	0.9189	0.217
Mof_H 	H 	0.3428	0.9132	0.9763	0.256
Mof_C 	C 	0.1483	0.5643	0.724	0.098
Mof_H 	H 	0.1887	0.556	0.7465	-0.017
Mof_C 	C 	0.1224	0.6146	0.6492	-0.147
Mof_H 	H 	0.1451	0.6382	0.625	0.081
Mof_N 	N 	0.3174	0.9286	0.4322	-0.195
Mof_O 	O 	0.3275	0.8314	0.6713	-0.329
Mof_C 	C 	0.3174	0.8666	0.6111	0.444
Mof_O 	O 	0.2845	0.8998	0.6389	-0.479
Mof_C 	C 	0.3784	0.9541	0.4831	-0.034
Mof_H 	H 	0.3772	0.9833	0.4265	0.045
Mof_H 	H 	0.3894	0.9672	0.5724	0.044
Mof_C 	C 	0.3851	0.2681	0.835	-0.143
Mof_H 	H 	0.3625	0.2433	0.8562	0.079
Mof_C 	C 	0.4243	0.9151	0.4841	-0.138
Mof_H 	H 	0.4653	0.9251	0.5439	0.068
Mof_H 	H 	0.4221	0.909	0.3958	0.074
Mof_C 	C 	0.3336	0.8764	0.4943	-0.176
Mof_H 	H 	0.3118	0.8505	0.4257	0.088
Mof_C 	C 	0.4021	0.8681	0.536	-0.013
Mof_H 	H 	0.4235	0.8659	0.632	0.04
Mof_H 	H 	0.4089	0.8361	0.4977	0.029
Mof_C 	C 	0.3246	0.0239	0.7232	0.421
Mof_O 	O 	0.1214	0.46	0.9037	-0.36
Mof_C 	C 	0.1461	0.487	0.8402	0.657
Mof_O 	O 	0.1853	0.4705	0.8484	-0.619
Mof_O 	O 	0.3958	0.4255	0.6238	-0.312
Mof_C 	C 	0.3643	0.4009	0.6502	0.231
Mof_O 	O 	0.2944	0.4007	0.6357	-0.353
Mof_Ni	Ni	0.25606	0.42056	0.97985	1.075
Mof_Ni	Ni	0.24421	0.46172	0.51766	1.08
Mof_Ni	Ni	0.25092	0.43908	0.2502	1.133
Mof_O 	O 	0.3008	0.3773	0.2863	-0.387
Mof_C 	C 	0.4722	0.0869	0.3411	-0.184
Mof_H 	H 	0.5131	0.0936	0.3647	0.097
Mof_C 	C 	0.0231	0.7123	0.0511	-0.048
Mof_C 	C 	0.4749	0.174	0.4502	-0.058
Mof_C 	C 	0.4457	0.1225	0.3827	0.099
Mof_O 	O 	0.1824	0.4963	0.2017	-0.455
Mof_C 	C 	0.0567	0.7573	0.1259	0.08
Mof_C 	C 	0.4291	0.2571	0.4684	-0.142
Mof_H 	H 	0.4489	0.2529	0.5601	0.086
Mof_C 	C 	0.0744	0.6221	0.0316	-0.153
Mof_H 	H 	0.0578	0.6257	0.9396	0.087
Mof_C 	C 	0.4369	0.2224	0.3895	0.103
Mof_C 	C 	0.0211	0.7933	0.165	-0.112
Mof_H 	H 	0.9805	0.7891	0.1484	0.074
Mof_O 	O 	0.3115	0.3606	0.0891	-0.417
Mof_C 	C 	0.0886	0.6541	0.2518	-0.136
Mof_H 	H 	0.0856	0.6797	0.3084	0.078
Mof_C 	C 	0.3654	0.3056	0.2732	-0.124
Mof_C 	C 	0.115	0.8458	0.2687	-0.064
Mof_C 	C 	0.0604	0.6616	0.1056	0.075
Mof_C 	C 	0.1355	0.5704	0.2213	-0.15
Mof_C 	C 	0.4127	0.2315	0.2561	-0.156
Mof_H 	H 	0.4228	0.2093	0.2022	0.084
Mof_C 	C 	0.3727	0.2738	0.1964	0.073
Mof_H 	H 	0.353	0.2776	0.1045	0.013
Mof_C 	C 	0.1192	0.6086	0.3009	0.056
Mof_H 	H 	0.1306	0.6012	0.3903	0.015
Mof_C 	C 	0.388	0.0294	0.2393	-0.281
Mof_C 	C 	0.1083	0.5821	0.0821	0.083
Mof_H 	H 	0.1155	0.5594	0.0248	0.019
Mof_O 	O 	0.1909	0.5148	0.4026	-0.477
Mof_C 	C 	0.3892	0.3027	0.4126	0.046
Mof_H 	H 	0.3808	0.3271	0.4645	0.035
Mof_O 	O 	0.29	0.4701	0.1288	-0.689
Mof_H 	H 	0.2767	0.5055	0.1013	0.187
Mof_H 	H 	0.334	0.4688	0.1716	0.18
Mof_C 	C 	0.0602	0.8381	0.2357	0.004
Mof_H 	H 	0.0403	0.8646	0.259	0.045
Mof_C 	C 	0.4518	0.0406	0.2686	0.128
Mof_H 	H 	0.4759	0.0195	0.2419	-0.006
Mof_C 	C 	0.3265	0.3515	0.2155	0.301
Mof_C 	C 	0.1445	0.8087	0.229	0.041
Mof_H 	H 	0.1854	0.8127	0.2479	0.018
Mof_O 	O 	0.3065	0.4701	0.4316	-0.685
Mof_H 	H 	0.3168	0.5063	0.4255	0.182
Mof_H 	H 	0.3432	0.4498	0.4773	0.24
Mof_O 	O 	0.1979	0.3991	0.0695	-0.657
Mof_H 	H 	0.1963	0.3617	0.0811	0.217
Mof_H 	H 	0.1572	0.4132	0.0237	0.255
Mof_C 	C 	0.3517	0.0643	0.276	0.1
Mof_H 	H 	0.3113	0.056	0.2535	-0.019
Mof_C 	C 	0.3776	0.1146	0.3508	-0.149
Mof_H 	H 	0.3549	0.1382	0.375	0.081
Mof_N 	N 	0.1826	0.4286	0.5678	-0.195
Mof_O 	O 	0.1725	0.3314	0.3287	-0.329
Mof_C 	C 	0.1826	0.3666	0.3889	0.444
Mof_O 	O 	0.2155	0.3998	0.3611	-0.48
Mof_C 	C 	0.1216	0.4541	0.5169	-0.032
Mof_H 	H 	0.1228	0.4833	0.5735	0.043
Mof_H 	H 	0.1106	0.4672	0.4276	0.042
Mof_C 	C 	0.1149	0.7681	0.165	-0.143
Mof_H 	H 	0.1375	0.7433	0.1438	0.079
Mof_C 	C 	0.0757	0.4151	0.5159	-0.139
Mof_H 	H 	0.0347	0.4251	0.4561	0.067
Mof_H 	H 	0.0779	0.409	0.6042	0.074
Mof_C 	C 	0.1664	0.3764	0.5057	-0.176
Mof_H 	H 	0.1882	0.3505	0.5743	0.088
Mof_C 	C 	0.0979	0.3681	0.464	-0.012
Mof_H 	H 	0.0765	0.3659	0.368	0.039
Mof_H 	H 	0.0911	0.3361	0.5023	0.029
Mof_C 	C 	0.1754	0.5239	0.2768	0.427
Mof_O 	O 	0.3786	0.96	0.0963	-0.36
Mof_C 	C 	0.3539	0.987	0.1598	0.664
Mof_O 	O 	0.3147	0.9705	0.1516	-0.621
Mof_O 	O 	0.1042	0.9255	0.3762	-0.311
Mof_C 	C 	0.1357	0.9009	0.3498	0.231
Mof_O 	O 	0.2056	0.9007	0.3643	-0.353
Mof_Ni	Ni	0.75606	0.92056	0.97985	1.076
Mof_Ni	Ni	0.74421	0.96172	0.51766	1.081
Mof_Ni	Ni	0.75092	0.93908	0.2502	1.133
Mof_O 	O 	0.8008	0.8773	0.2863	-0.387
Mof_C 	C 	0.9722	0.5869	0.3411	-0.181
Mof_H 	H 	0.0131	0.5936	0.3647	0.097
Mof_C 	C 	0.5231	0.2123	0.0511	-0.048
Mof_C 	C 	0.9749	0.674	0.4502	-0.058
Mof_C 	C 	0.9457	0.6225	0.3827	0.098
Mof_O 	O 	0.6824	0.9963	0.2017	-0.45
Mof_C 	C 	0.5567	0.2573	0.1259	0.08
Mof_C 	C 	0.9291	0.7571	0.4684	-0.142
Mof_H 	H 	0.9489	0.7529	0.5601	0.085
Mof_C 	C 	0.5744	0.1221	0.0316	-0.153
Mof_H 	H 	0.5578	0.1257	0.9396	0.088
Mof_C 	C 	0.9369	0.7224	0.3895	0.103
Mof_C 	C 	0.5211	0.2933	0.165	-0.113
Mof_H 	H 	0.4805	0.2891	0.1484	0.074
Mof_O 	O 	0.8115	0.8606	0.0891	-0.417
Mof_C 	C 	0.5886	0.1541	0.2518	-0.135
Mof_H 	H 	0.5856	0.1797	0.3084	0.078
Mof_C 	C 	0.8654	0.8056	0.2732	-0.124
Mof_C 	C 	0.615	0.3458	0.2687	-0.064
Mof_C 	C 	0.5604	0.1616	0.1056	0.074
Mof_C 	C 	0.6355	0.0704	0.2213	-0.149
Mof_C 	C 	0.9127	0.7315	0.2561	-0.156
Mof_H 	H 	0.9228	0.7093	0.2022	0.084
Mof_C 	C 	0.8727	0.7738	0.1964	0.073
Mof_H 	H 	0.853	0.7776	0.1045	0.013
Mof_C 	C 	0.6192	0.1086	0.3009	0.055
Mof_H 	H 	0.6306	0.1012	0.3903	0.015
Mof_C 	C 	0.888	0.5294	0.2393	-0.274
Mof_C 	C 	0.6083	0.0821	0.0821	0.083
Mof_H 	H 	0.6155	0.0594	0.0248	0.018
Mof_O 	O 	0.6909	0.0148	0.4026	-0.478
Mof_C 	C 	0.8892	0.8027	0.4126	0.046
Mof_H 	H 	0.8808	0.8271	0.4645	0.035
Mof_O 	O 	0.79	0.9701	0.1288	-0.685
Mof_H 	H 	0.7767	0.0055	0.1013	0.183
Mof_H 	H 	0.834	0.9688	0.1716	0.18
Mof_C 	C 	0.5602	0.3381	0.2357	0.005
Mof_H 	H 	0.5403	0.3646	0.259	0.045
Mof_C 	C 	0.9518	0.5406	0.2686	0.125
Mof_H 	H 	0.9759	0.5195	0.2419	-0.004
Mof_C 	C 	0.8265	0.8515	0.2155	0.301
Mof_C 	C 	0.6445	0.3087	0.229	0.041
Mof_H 	H 	0.6854	0.3127	0.2479	0.018
Mof_O 	O 	0.8065	0.9701	0.4316	-0.681
Mof_H 	H 	0.8168	0.0063	0.4255	0.178
Mof_H 	H 	0.8432	0.9498	0.4773	0.239
Mof_O 	O 	0.6979	0.8991	0.0695	-0.657
Mof_H 	H 	0.6963	0.8617	0.0811	0.217
Mof_H 	H 	0.6572	0.9132	0.0237	0.256
Mof_C 	C 	0.8517	0.5643	0.276	0.098
Mof_H 	H 	0.8113	0.556	0.2535	-0.017
Mof_C 	C 	0.8776	0.6146	0.3508	-0.147
Mof_H 	H 	0.8549	0.6382	0.375	0.081
Mof_N 	N 	0.6826	0.9286	0.5678	-0.195
Mof_O 	O 	0.6725	0.8314	0.3287	-0.329
Mof_C 	C 	0.6826	0.8666	0.3889	0.444
Mof_O 	O 	0.7155	0.8998	0.3611	-0.479
Mof_C 	C 	0.6216	0.9541	0.5169	-0.034
Mof_H 	H 	0.6228	0.9833	0.5735	0.045
Mof_H 	H 	0.6106	0.9672	0.4276	0.044
Mof_C 	C 	0.6149	0.2681	0.165	-0.143
Mof_H 	H 	0.6375	0.2433	0.1438	0.079
Mof_C 	C 	0.5757	0.9151	0.5159	-0.138
Mof_H 	H 	0.5347	0.9251	0.4561	0.068
Mof_H 	H 	0.5779	0.909	0.6042	0.074
Mof_C 	C 	0.6664	0.8764	0.5057	-0.176
Mof_H 	H 	0.6882	0.8505	0.5743	0.088
Mof_C 	C 	0.5979	0.8681	0.464	-0.013
Mof_H 	H 	0.5765	0.8659	0.368	0.04
Mof_H 	H 	0.5911	0.8361	0.5023	0.029
Mof_C 	C 	0.6754	0.0239	0.2768	0.421
Mof_O 	O 	0.8786	0.46	0.0963	-0.36
Mof_C 	C 	0.8539	0.487	0.1598	0.657
Mof_O 	O 	0.8147	0.4705	0.1516	-0.619
Mof_O 	O 	0.6042	0.4255	0.3762	-0.312
Mof_C 	C 	0.6357	0.4009	0.3498	0.231
Mof_O 	O 	0.7056	0.4007	0.3643	-0.353
_end
