# CIF file generated by openbabel 3.1.0, see https://openbabel.org
data_I
_chemical_name_common 'image0'
_cell_length_a 13.849
_cell_length_b 14.724
_cell_length_c 22.987
_cell_angle_alpha 88.25
_cell_angle_beta 74.38
_cell_angle_gamma 87.86
_space_group_name_H-M_alt 'P 1'
_space_group_name_Hall 'P 1'
loop_
    _symmetry_equiv_pos_as_xyz
    x,y,z
loop_
    _atom_site_label
    _atom_site_type_symbol
    _atom_site_fract_x
    _atom_site_fract_y
    _atom_site_fract_z
    _atom_site_occupancy
    C1       C        0.94840    0.58190    0.20200    1.000
    H1       H        0.95470    0.52880    0.18020    1.000
    Cd1      Cd       0.31679    0.06089    0.09852    1.000
    Cd2      Cd       0.20572    0.95482    0.44761    1.000
    O1       O        0.25850    0.08800    0.01450    1.000
    O2       O        0.36130    0.97020    0.00076    1.000
    O3       O        0.15950    0.02470    0.54400    1.000
    O4       O        0.25310    0.90050    0.53210    1.000
    O5       O        0.24570    0.19950    0.12860    1.000
    O6       O        0.28430    0.13200    0.20450    1.000
    O7       O        0.14280    0.82540    0.42420    1.000
    N1       N        0.09480    0.05430    0.41630    1.000
    N2       N        0.32920    0.05820    0.40850    1.000
    N3       N        0.18810    0.95780    0.14000    1.000
    N4       N        0.41340    0.95310    0.13610    1.000
    C2       C        0.20300    0.36610    0.18840    1.000
    H2       H        0.18030    0.36110    0.15410    1.000
    C3       C        0.19740    0.44910    0.21660    1.000
    H3       H        0.17060    0.49930    0.20010    1.000
    C4       C        0.25240    0.38330    0.29400    1.000
    H4       H        0.26280    0.38770    0.33210    1.000
    C5       C        0.22740    0.46100    0.26510    1.000
    C6       C        0.22090    0.55030    0.29490    1.000
    C7       C        0.24320    0.29130    0.21250    1.000
    C8       C        0.26250    0.29810    0.26710    1.000
    H5       H        0.28210    0.24690    0.28630    1.000
    C9       C        0.21280    0.71840    0.34910    1.000
    C10      C        0.09500    0.06120    0.36020    1.000
    H6       H        0.12820    0.01540    0.33470    1.000
    C11      C        0.05040    0.13020    0.33530    1.000
    H7       H        0.05400    0.13040    0.29430    1.000
    C12      C        0.99980    0.20030    0.37100    1.000
    C13      C        0.99410    0.18900    0.43220    1.000
    H8       H        0.95810    0.23160    0.45940    1.000
    C14      C        0.04040    0.11630    0.45290    1.000
    H9       H        0.03370    0.11000    0.49420    1.000
    C15      C        0.95070    0.27980    0.34660    1.000
    C16      C        0.45320    0.20610    0.36580    1.000
    C17      C        0.16600    0.89620    0.10500    1.000
    H10      H        0.19570    0.89980    0.06360    1.000
    C18      C        0.10070    0.82680    0.12740    1.000
    H11      H        0.08370    0.78840    0.10050    1.000
    C19      C        0.06090    0.81330    0.18750    1.000
    C20      C        0.08460    0.87820    0.22320    1.000
    H12      H        0.05770    0.87550    0.26490    1.000
    C21      C        0.14740    0.94590    0.19740    1.000
    H13      H        0.16230    0.98740    0.22320    1.000
    C22      C        0.99660    0.73490    0.21070    1.000
    C23      C        0.01480    0.65270    0.17840    1.000
    H14      H        0.06750    0.64580    0.14370    1.000
    C24      C        0.30390    0.02610    0.98310    1.000
    C25      C        0.23280    0.07970    0.89690    1.000
    H15      H        0.20380    0.12910    0.92030    1.000
    C26      C        0.21790    0.07390    0.83960    1.000
    H16      H        0.18240    0.11950    0.82460    1.000
    C27      C        0.28790    0.01690    0.92060    1.000
    C28      C        0.32680    0.94360    0.88630    1.000
    H17      H        0.36540    0.90030    0.90100    1.000
    C29      C        0.31080    0.93150    0.83010    1.000
    H18      H        0.33530    0.87930    0.80850    1.000
    C30      C        0.25680    0.99920    0.80590    1.000
    C31      C        0.24390    0.98990    0.74470    1.000
    C32      C        0.51700    0.28490    0.34230    1.000
    C33      C        0.63000    0.39660    0.35700    1.000
    H19      H        0.66400    0.42080    0.38240    1.000
    C34      C        0.64350    0.43120    0.30130    1.000
    C35      C        0.56590    0.32440    0.37800    1.000
    H20      H        0.55660    0.30310    0.41760    1.000
    C36      C        0.60230    0.38160    0.26150    1.000
    H21      H        0.61810    0.39860    0.22080    1.000
    C37      C        0.53940    0.30890    0.28130    1.000
    H22      H        0.51340    0.27750    0.25470    1.000
    C38      C        0.71000    0.51050    0.27910    1.000
    C39      C        0.80670    0.50770    0.27970    1.000
    C40      C        0.85760    0.42840    0.30400    1.000
    C41      C        0.87200    0.58810    0.25770    1.000
    C42      C        0.70330    0.61790    0.19240    1.000
    H23      H        0.76170    0.58950    0.16950    1.000
    C43      C        0.65920    0.58880    0.25520    1.000
    C44      C        0.20920    0.96740    0.56320    1.000
    C45      C        0.22180    0.97350    0.62640    1.000
    C46      C        0.21270    0.80640    0.38040    1.000
    C47      C        0.46310    0.88710    0.10220    1.000
    H24      H        0.46250    0.88720    0.06180    1.000
    C48      C        0.41910    0.95260    0.19240    1.000
    H25      H        0.38800    0.00060    0.21650    1.000
    C49      C        0.46790    0.88580    0.21830    1.000
    H26      H        0.46920    0.88890    0.25850    1.000
    C50      C        0.51500    0.81910    0.12260    1.000
    H27      H        0.55080    0.77590    0.09590    1.000
    C51      C        0.51540    0.81330    0.18250    1.000
    C52      C        0.56730    0.73590    0.20980    1.000
    C53      C        0.65920    0.68500    0.16860    1.000
    H28      H        0.68290    0.70130    0.12790    1.000
    C54      C        0.53800    0.70430    0.26530    1.000
    H29      H        0.48400    0.73300    0.29220    1.000
    C55      C        0.25820    0.19900    0.18010    1.000
    C56      C        0.58460    0.62960    0.28510    1.000
    H30      H        0.55700    0.60870    0.32440    1.000
    C57      C        0.92190    0.74140    0.26490    1.000
    H31      H        0.91310    0.79400    0.28740    1.000
    C58      C        0.85900    0.66540    0.28520    1.000
    H32      H        0.80600    0.67160    0.31990    1.000
    C59      C        0.91150    0.43280    0.34170    1.000
    H33      H        0.91980    0.49060    0.35450    1.000
    C60      C        0.95730    0.36350    0.36490    1.000
    H34      H        0.99260    0.37410    0.39310    1.000
    C61      C        0.86950    0.33890    0.27140    1.000
    H35      H        0.84610    0.33220    0.23740    1.000
    C62      C        0.91570    0.26920    0.29410    1.000
    H36      H        0.92480    0.21330    0.27520    1.000
    C63      C        0.37000    0.21190    0.41560    1.000
    H37      H        0.35950    0.26660    0.43590    1.000
    C64      C        0.30200    0.14450    0.43810    1.000
    H38      H        0.24450    0.15390    0.46950    1.000
    C65      C        0.39400    0.05500    0.35900    1.000
    H39      H        0.39710    0.00410    0.33570    1.000
    C66      C        0.46500    0.12800    0.33630    1.000
    H40      H        0.51710    0.11990    0.30160    1.000
    C67      C        0.15320    0.64880    0.37620    1.000
    H41      H        0.11020    0.65800    0.41440    1.000
    C68      C        0.25800    0.71180    0.28740    1.000
    H42      H        0.28620    0.76280    0.26540    1.000
    C69      C        0.26140    0.62830    0.25770    1.000
    H43      H        0.28850    0.62380    0.21620    1.000
    C70      C        0.15300    0.56830    0.35090    1.000
    H44      H        0.10830    0.52450    0.37040    1.000
    C71      C        0.16700    0.04200    0.72470    1.000
    H45      H        0.12530    0.08430    0.74970    1.000
    C72      C        0.15800    0.02800    0.67170    1.000
    H46      H        0.10320    0.05690    0.66180    1.000
    C73      C        0.27600    0.92230    0.70860    1.000
    H47      H        0.29700    0.87110    0.72690    1.000
    C74      C        0.28300    0.91400    0.64950    1.000
    H48      H        0.32640    0.87090    0.62580    1.000
    O8       O        0.25100    0.87470    0.34950    1.000
    O9       O        0.29600    0.84500    0.38000    1.000
    C75      C        0.30600    0.57660    0.30950    1.000
    H49      H        0.36180    0.53740    0.30260    1.000
    C76      C        0.14400    0.59100    0.31760    1.000
    H50      H        0.08390    0.56290    0.32090    1.000
    C77      C        0.30900    0.66890    0.33680    1.000
    H51      H        0.36630    0.69130    0.34460    1.000
    C78      C        0.13900    0.68380    0.34060    1.000
    H52      H        0.07870    0.71690    0.34880    1.000
    C79      C        0.35800    0.07500    0.35120    1.000
    H53      H        0.33360    0.04030    0.32550    1.000
    C80      C        0.42100    0.14150    0.32750    1.000
    H54      H        0.44450    0.14710    0.28570    1.000
    C81      C        0.43300    0.17900    0.42320    1.000
    H55      H        0.46530    0.20540    0.44890    1.000
    C82      C        0.36100    0.11000    0.44590    1.000
    H56      H        0.33570    0.10140    0.48740    1.000
    C83      C        0.23600    0.06720    0.70930    1.000
    H57      H        0.24120    0.12410    0.72460    1.000
    C84      C        0.25800    0.89800    0.71740    1.000
    H58      H        0.27940    0.84650    0.73540    1.000
    C85      C        0.22100    0.06190    0.64990    1.000
    H59      H        0.21190    0.11400    0.62790    1.000
    C86      C        0.23400    0.89800    0.65970    1.000
    H60      H        0.22570    0.84170    0.64430    1.000
    C87      C        0.85100    0.32780    0.38890    1.000
    H61      H        0.82420    0.30470    0.42780    1.000
    C88      C        0.98420    0.32390    0.29630    1.000
    H62      H        0.04780    0.30620    0.27310    1.000
    C89      C        0.93640    0.39450    0.27280    1.000
    H63      H        0.96380    0.41620    0.23360    1.000
    C90      C        0.80700    0.39810    0.37010    1.000
    H64      H        0.75020    0.42750    0.39420    1.000
    C91      C        0.60120    0.75420    0.25950    1.000
    H65      H        0.59160    0.81100    0.27710    1.000
    C92      C        0.65160    0.68090    0.28200    1.000
    H66      H        0.67990    0.69030    0.31360    1.000
    C93      C        0.56700    0.65370    0.19100    1.000
    H67      H        0.53730    0.64300    0.16000    1.000
    C94      C        0.60920    0.58170    0.21650    1.000
    H68      H        0.60070    0.52350    0.20440    1.000
    C95      C        0.56000    0.44120    0.35330    1.000
    H69      H        0.54750    0.49650    0.37280    1.000
    C96      C        0.49740    0.37000    0.37490    1.000
    H70      H        0.44400    0.37600    0.40930    1.000
    C97      C        0.59640    0.28320    0.29550    1.000
    H71      H        0.61210    0.22980    0.27380    1.000
    C98      C        0.65750    0.35610    0.27670    1.000
    H72      H        0.71270    0.34860    0.24350    1.000
    C99      C        0.98000    0.70620    0.27070    1.000
    H73      H        0.01520    0.73190    0.29500    1.000
    C100     C        0.91000    0.63820    0.29500    1.000
    H74      H        0.88920    0.62760    0.33660    1.000
    C101     C        0.94600    0.69300    0.17600    1.000
    H75      H        0.95920    0.70970    0.13530    1.000
    C102     C        0.87100    0.62190    0.20020    1.000
    H76      H        0.82710    0.60190    0.17920    1.000
    C103     C        0.05160    0.41810    0.79800    1.000
    H77      H        0.04530    0.47120    0.81980    1.000
    Cd3      Cd       0.68321    0.93911    0.90148    1.000
    Cd4      Cd       0.79428    0.04518    0.55239    1.000
    O10      O        0.74150    0.91200    0.98550    1.000
    O11      O        0.63870    0.02980    0.99924    1.000
    O12      O        0.84050    0.97530    0.45600    1.000
    O13      O        0.74690    0.09950    0.46790    1.000
    O14      O        0.75430    0.80050    0.87140    1.000
    O15      O        0.71570    0.86800    0.79550    1.000
    O16      O        0.85720    0.17460    0.57580    1.000
    N5       N        0.90520    0.94570    0.58370    1.000
    N6       N        0.67080    0.94180    0.59150    1.000
    N7       N        0.81190    0.04220    0.86000    1.000
    N8       N        0.58660    0.04690    0.86390    1.000
    C104     C        0.79700    0.63390    0.81160    1.000
    H78      H        0.81970    0.63890    0.84590    1.000
    C105     C        0.80260    0.55090    0.78340    1.000
    H79      H        0.82940    0.50070    0.79990    1.000
    C106     C        0.74760    0.61670    0.70600    1.000
    H80      H        0.73720    0.61230    0.66790    1.000
    C107     C        0.77260    0.53900    0.73490    1.000
    C108     C        0.77910    0.44970    0.70510    1.000
    C109     C        0.75680    0.70870    0.78750    1.000
    C110     C        0.73750    0.70190    0.73290    1.000
    H81      H        0.71790    0.75310    0.71370    1.000
    C111     C        0.78720    0.28160    0.65090    1.000
    C112     C        0.90500    0.93880    0.63980    1.000
    H82      H        0.87180    0.98460    0.66530    1.000
    C113     C        0.94960    0.86980    0.66470    1.000
    H83      H        0.94600    0.86960    0.70570    1.000
    C114     C        0.00020    0.79970    0.62900    1.000
    C115     C        0.00590    0.81100    0.56780    1.000
    H84      H        0.04190    0.76840    0.54060    1.000
    C116     C        0.95960    0.88370    0.54710    1.000
    H85      H        0.96630    0.89000    0.50580    1.000
    C117     C        0.04930    0.72020    0.65340    1.000
    C118     C        0.54680    0.79390    0.63420    1.000
    C119     C        0.83400    0.10380    0.89500    1.000
    H86      H        0.80430    0.10020    0.93640    1.000
    C120     C        0.89930    0.17320    0.87260    1.000
    H87      H        0.91630    0.21160    0.89950    1.000
    C121     C        0.93910    0.18670    0.81250    1.000
    C122     C        0.91540    0.12180    0.77680    1.000
    H88      H        0.94230    0.12450    0.73510    1.000
    C123     C        0.85260    0.05410    0.80260    1.000
    H89      H        0.83770    0.01260    0.77680    1.000
    C124     C        0.00340    0.26510    0.78930    1.000
    C125     C        0.98520    0.34730    0.82160    1.000
    H90      H        0.93250    0.35420    0.85630    1.000
    C126     C        0.69610    0.97390    0.01690    1.000
    C127     C        0.76720    0.92030    0.10310    1.000
    H91      H        0.79620    0.87090    0.07970    1.000
    C128     C        0.78210    0.92610    0.16040    1.000
    H92      H        0.81760    0.88050    0.17540    1.000
    C129     C        0.71210    0.98310    0.07940    1.000
    C130     C        0.67320    0.05640    0.11370    1.000
    H93      H        0.63460    0.09970    0.09900    1.000
    C131     C        0.68920    0.06850    0.16990    1.000
    H94      H        0.66470    0.12070    0.19150    1.000
    C132     C        0.74320    0.00080    0.19410    1.000
    C133     C        0.75610    0.01010    0.25530    1.000
    C134     C        0.48300    0.71510    0.65770    1.000
    C135     C        0.37000    0.60340    0.64300    1.000
    H95      H        0.33600    0.57920    0.61760    1.000
    C136     C        0.35650    0.56880    0.69870    1.000
    C137     C        0.43410    0.67560    0.62200    1.000
    H96      H        0.44340    0.69690    0.58240    1.000
    C138     C        0.39770    0.61840    0.73850    1.000
    H97      H        0.38190    0.60140    0.77920    1.000
    C139     C        0.46060    0.69110    0.71870    1.000
    H98      H        0.48660    0.72250    0.74530    1.000
    C140     C        0.29000    0.48950    0.72090    1.000
    C141     C        0.19330    0.49230    0.72030    1.000
    C142     C        0.14240    0.57160    0.69600    1.000
    C143     C        0.12800    0.41190    0.74230    1.000
    C144     C        0.29670    0.38210    0.80760    1.000
    H99      H        0.23830    0.41050    0.83050    1.000
    C145     C        0.34080    0.41120    0.74480    1.000
    C146     C        0.79080    0.03260    0.43680    1.000
    C147     C        0.77820    0.02650    0.37360    1.000
    C148     C        0.78730    0.19360    0.61960    1.000
    C149     C        0.53690    0.11290    0.89780    1.000
    H100     H        0.53750    0.11280    0.93820    1.000
    C150     C        0.58090    0.04740    0.80760    1.000
    H101     H        0.61200    0.99940    0.78350    1.000
    C151     C        0.53210    0.11420    0.78170    1.000
    H102     H        0.53080    0.11110    0.74150    1.000
    C152     C        0.48500    0.18090    0.87740    1.000
    H103     H        0.44920    0.22410    0.90410    1.000
    C153     C        0.48460    0.18670    0.81750    1.000
    C154     C        0.43270    0.26410    0.79020    1.000
    C155     C        0.34080    0.31500    0.83140    1.000
    H104     H        0.31710    0.29870    0.87210    1.000
    C156     C        0.46200    0.29570    0.73470    1.000
    H105     H        0.51600    0.26700    0.70780    1.000
    C157     C        0.74180    0.80100    0.81990    1.000
    C158     C        0.41540    0.37040    0.71490    1.000
    H106     H        0.44300    0.39130    0.67560    1.000
    C159     C        0.07810    0.25860    0.73510    1.000
    H107     H        0.08690    0.20600    0.71260    1.000
    C160     C        0.14100    0.33460    0.71480    1.000
    H108     H        0.19400    0.32840    0.68010    1.000
    C161     C        0.08850    0.56720    0.65830    1.000
    H109     H        0.08020    0.50940    0.64550    1.000
    C162     C        0.04270    0.63650    0.63510    1.000
    H110     H        0.00740    0.62590    0.60690    1.000
    C163     C        0.13050    0.66110    0.72860    1.000
    H111     H        0.15390    0.66780    0.76260    1.000
    C164     C        0.08430    0.73080    0.70590    1.000
    H112     H        0.07520    0.78670    0.72480    1.000
    C165     C        0.63000    0.78810    0.58440    1.000
    H113     H        0.64050    0.73340    0.56410    1.000
    C166     C        0.69800    0.85550    0.56190    1.000
    H114     H        0.75550    0.84610    0.53050    1.000
    C167     C        0.60600    0.94500    0.64100    1.000
    H115     H        0.60290    0.99590    0.66430    1.000
    C168     C        0.53500    0.87200    0.66370    1.000
    H116     H        0.48290    0.88010    0.69840    1.000
    C169     C        0.84680    0.35120    0.62380    1.000
    H117     H        0.88980    0.34200    0.58560    1.000
    C170     C        0.74200    0.28820    0.71260    1.000
    H118     H        0.71380    0.23720    0.73460    1.000
    C171     C        0.73860    0.37170    0.74230    1.000
    H119     H        0.71150    0.37620    0.78380    1.000
    C172     C        0.84700    0.43170    0.64910    1.000
    H120     H        0.89170    0.47550    0.62960    1.000
    C173     C        0.83300    0.95800    0.27530    1.000
    H121     H        0.87470    0.91570    0.25030    1.000
    C174     C        0.84200    0.97200    0.32830    1.000
    H122     H        0.89680    0.94310    0.33820    1.000
    C175     C        0.72400    0.07770    0.29140    1.000
    H123     H        0.70300    0.12890    0.27310    1.000
    C176     C        0.71700    0.08600    0.35050    1.000
    H124     H        0.67360    0.12910    0.37420    1.000
    O17      O        0.74900    0.12530    0.65050    1.000
    O18      O        0.70400    0.15500    0.62000    1.000
    C177     C        0.69400    0.42340    0.69050    1.000
    H125     H        0.63820    0.46260    0.69740    1.000
    C178     C        0.85600    0.40900    0.68240    1.000
    H126     H        0.91610    0.43710    0.67910    1.000
    C179     C        0.69100    0.33110    0.66320    1.000
    H127     H        0.63370    0.30870    0.65540    1.000
    C180     C        0.86100    0.31620    0.65940    1.000
    H128     H        0.92130    0.28310    0.65120    1.000
    C181     C        0.64200    0.92500    0.64880    1.000
    H129     H        0.66640    0.95970    0.67450    1.000
    C182     C        0.57900    0.85850    0.67250    1.000
    H130     H        0.55550    0.85290    0.71430    1.000
    C183     C        0.56700    0.82100    0.57680    1.000
    H131     H        0.53470    0.79460    0.55110    1.000
    C184     C        0.63900    0.89000    0.55410    1.000
    H132     H        0.66430    0.89860    0.51260    1.000
    C185     C        0.76400    0.93280    0.29070    1.000
    H133     H        0.75880    0.87590    0.27540    1.000
    C186     C        0.74200    0.10200    0.28260    1.000
    H134     H        0.72060    0.15350    0.26460    1.000
    C187     C        0.77900    0.93810    0.35010    1.000
    H135     H        0.78810    0.88600    0.37210    1.000
    C188     C        0.76600    0.10200    0.34030    1.000
    H136     H        0.77430    0.15830    0.35570    1.000
    C189     C        0.14900    0.67220    0.61110    1.000
    H137     H        0.17580    0.69530    0.57220    1.000
    C190     C        0.01580    0.67610    0.70370    1.000
    H138     H        0.95220    0.69380    0.72690    1.000
    C191     C        0.06360    0.60550    0.72720    1.000
    H139     H        0.03620    0.58380    0.76640    1.000
    C192     C        0.19300    0.60190    0.62990    1.000
    H140     H        0.24980    0.57250    0.60580    1.000
    C193     C        0.39880    0.24580    0.74050    1.000
    H141     H        0.40840    0.18900    0.72290    1.000
    C194     C        0.34840    0.31910    0.71800    1.000
    H142     H        0.32010    0.30970    0.68640    1.000
    C195     C        0.43300    0.34630    0.80900    1.000
    H143     H        0.46270    0.35700    0.84000    1.000
    C196     C        0.39080    0.41830    0.78350    1.000
    H144     H        0.39930    0.47650    0.79560    1.000
    C197     C        0.44000    0.55880    0.64670    1.000
    H145     H        0.45250    0.50350    0.62720    1.000
    C198     C        0.50260    0.63000    0.62510    1.000
    H146     H        0.55600    0.62400    0.59070    1.000
    C199     C        0.40360    0.71680    0.70450    1.000
    H147     H        0.38790    0.77020    0.72620    1.000
    C200     C        0.34250    0.64390    0.72330    1.000
    H148     H        0.28730    0.65140    0.75650    1.000
    C201     C        0.02000    0.29380    0.72930    1.000
    H149     H        0.98480    0.26810    0.70500    1.000
    C202     C        0.09000    0.36180    0.70500    1.000
    H150     H        0.11080    0.37240    0.66340    1.000
    C203     C        0.05400    0.30700    0.82400    1.000
    H151     H        0.04080    0.29030    0.86470    1.000
    C204     C        0.12900    0.37810    0.79980    1.000
    H152     H        0.17290    0.39810    0.82080    1.000
