data_functionalizedCrystal
_audit_creation_method	'EQeq! by Chris Wilmer'
_symmetry_space_group_name_H-M	'P1'
_symmetry_Int_Tables_number	1
_symmetry_cell_setting	triclinic
loop_
_symmetry_equiv_pos_as_xyz
  x,y,z
_cell_length_a	8.486
_cell_length_b	9.737
_cell_length_c	17.271
_cell_angle_alpha	90
_cell_angle_beta	90
_cell_angle_gamma	112.25
loop_
_atom_site_label
_atom_site_type_symbol
_atom_site_fract_x
_atom_site_fract_y
_atom_site_fract_z
_atom_site_charge
Mof_Y 	Y 	0.844	0.0245	0.2575	1.446
Mof_Y 	Y 	0.156	0.4755	0.7575	1.46
Mof_Y 	Y 	0.156	0.9755	0.7425	1.447
Mof_Y 	Y 	0.844	0.5245	0.2425	1.462
Mof_C 	C 	0.9037	0.025	0.0978	0.303
Mof_C 	C 	0.9465	0.0287	0.0146	-0.098
Mof_C 	C 	0.5608	0.6982	0.2106	0.416
Mof_C 	C 	0.3794	0.6061	0.199	-0.12
Mof_C 	C 	0.3132	0.9602	0.2825	-0.121
Mof_C 	C 	0.1273	0.8667	0.2866	0.448
Mof_C 	C 	0.0963	0.475	0.5978	0.315
Mof_C 	C 	0.0535	0.4713	0.5146	-0.09
Mof_C 	C 	0.4392	0.8018	0.7106	0.417
Mof_C 	C 	0.6206	0.8939	0.699	-0.12
Mof_C 	C 	0.6868	0.5398	0.7825	-0.122
Mof_C 	C 	0.8727	0.6333	0.7866	0.449
Mof_C 	C 	0.0963	0.975	0.9022	0.303
Mof_C 	C 	0.0535	0.9713	0.9854	-0.098
Mof_C 	C 	0.4392	0.3018	0.7894	0.416
Mof_C 	C 	0.6206	0.3939	0.801	-0.12
Mof_C 	C 	0.6868	0.0398	0.7175	-0.121
Mof_C 	C 	0.8727	0.1333	0.7134	0.447
Mof_C 	C 	0.9037	0.525	0.4022	0.314
Mof_C 	C 	0.9465	0.5287	0.4854	-0.09
Mof_C 	C 	0.5608	0.1982	0.2894	0.416
Mof_C 	C 	0.3794	0.1061	0.301	-0.121
Mof_C 	C 	0.3132	0.4602	0.2175	-0.122
Mof_C 	C 	0.1273	0.3667	0.2134	0.448
Mof_O 	O 	0.964	0.9539	0.1446	-0.348
Mof_O 	O 	0.8136	0.0907	0.1215	-0.343
Mof_O 	O 	0.6637	0.6398	0.229	-0.483
Mof_O 	O 	0.6031	0.8378	0.2032	-0.413
Mof_O 	O 	0.0246	0.9247	0.3048	-0.474
Mof_O 	O 	0.0887	0.733	0.2688	-0.434
Mof_O 	O 	0.036	0.5461	0.6446	-0.361
Mof_O 	O 	0.1864	0.4093	0.6215	-0.343
Mof_O 	O 	0.3363	0.8602	0.729	-0.484
Mof_O 	O 	0.3969	0.6622	0.7032	-0.418
Mof_O 	O 	0.9754	0.5753	0.8048	-0.472
Mof_O 	O 	0.9113	0.767	0.7688	-0.43
Mof_O 	O 	0.036	0.0461	0.8554	-0.348
Mof_O 	O 	0.1864	0.9093	0.8785	-0.343
Mof_O 	O 	0.3363	0.3602	0.771	-0.483
Mof_O 	O 	0.3969	0.1622	0.7968	-0.413
Mof_O 	O 	0.9754	0.0753	0.6952	-0.474
Mof_O 	O 	0.9113	0.267	0.7312	-0.434
Mof_O 	O 	0.964	0.4539	0.3554	-0.361
Mof_O 	O 	0.8136	0.5907	0.3785	-0.344
Mof_O 	O 	0.6637	0.1398	0.271	-0.484
Mof_O 	O 	0.6031	0.3378	0.2968	-0.418
Mof_O 	O 	0.0246	0.4247	0.1952	-0.473
Mof_O 	O 	0.0887	0.233	0.2312	-0.43
Mof_H 	H 	0.88668	0.08301	0.97131	0.073
Mof_H 	H 	0.29015	0.65738	0.17374	0.069
Mof_H 	H 	0.40727	0.90908	0.26298	0.073
Mof_H 	H 	0.11332	0.41699	0.47131	0.068
Mof_H 	H 	0.70985	0.84262	0.67374	0.069
Mof_H 	H 	0.59273	0.59092	0.76298	0.072
Mof_H 	H 	0.11332	0.91699	0.02869	0.073
Mof_H 	H 	0.70594	0.33876	0.82639	0.068
Mof_H 	H 	0.59945	0.09753	0.73745	0.072
Mof_H 	H 	0.8819	0.58479	0.52527	0.067
Mof_H 	H 	0.29406	0.16124	0.32639	0.069
Mof_H 	H 	0.40055	0.40247	0.23745	0.071
_end
