# CIF file generated by openbabel 3.1.0, see https://openbabel.org
data_I
_chemical_name_common 'image0'
_cell_length_a 6.7862
_cell_length_b 11.095
_cell_length_c 18.351
_cell_angle_alpha 90
_cell_angle_beta 95.688
_cell_angle_gamma 90
_space_group_name_H-M_alt 'P 1'
_space_group_name_Hall 'P 1'
loop_
    _symmetry_equiv_pos_as_xyz
    x,y,z
loop_
    _atom_site_label
    _atom_site_type_symbol
    _atom_site_fract_x
    _atom_site_fract_y
    _atom_site_fract_z
    _atom_site_occupancy
    C1       C        0.81000    0.27280    0.79610    1.000
    C2       C        0.99300    0.31300    0.78370    1.000
    H1       H        0.10310    0.30810    0.81790    1.000
    C3       C        0.99600    0.36260    0.71370    1.000
    H2       H        0.10930    0.39530    0.69670    1.000
    C4       C        0.81500    0.35820    0.67230    1.000
    C5       C        0.76600    0.39910    0.59580    1.000
    C6       C        0.75300    0.21710    0.86570    1.000
    O1       O        0.89540    0.19120    0.91290    1.000
    O2       O        0.57640    0.20270    0.87460    1.000
    O3       O        0.59040    0.39980    0.56940    1.000
    O4       O        0.90860    0.43320    0.56160    1.000
    S1       S        0.63940    0.29480    0.72134    1.000
    Sr1      Sr       0.74280    0.10484    0.02063    1.000
    C7       C        0.69000    0.77280    0.70390    1.000
    C8       C        0.50700    0.81300    0.71630    1.000
    H3       H        0.39690    0.80810    0.68210    1.000
    C9       C        0.50400    0.86260    0.78630    1.000
    H4       H        0.39070    0.89530    0.80330    1.000
    C10      C        0.68500    0.85820    0.82770    1.000
    C11      C        0.73400    0.89910    0.90420    1.000
    C12      C        0.74700    0.71710    0.63430    1.000
    O5       O        0.60460    0.69120    0.58710    1.000
    O6       O        0.92360    0.70270    0.62540    1.000
    O7       O        0.90960    0.89980    0.93060    1.000
    O8       O        0.59140    0.93320    0.93840    1.000
    S2       S        0.86060    0.79480    0.77866    1.000
    Sr2      Sr       0.75720    0.60484    0.47937    1.000
    C13      C        0.19000    0.72720    0.20390    1.000
    C14      C        0.00700    0.68700    0.21630    1.000
    H5       H        0.89690    0.69190    0.18210    1.000
    C15      C        0.00400    0.63740    0.28630    1.000
    H6       H        0.89070    0.60470    0.30330    1.000
    C16      C        0.18500    0.64180    0.32770    1.000
    C17      C        0.23400    0.60090    0.40420    1.000
    C18      C        0.24700    0.78290    0.13430    1.000
    O9       O        0.10460    0.80880    0.08710    1.000
    O10      O        0.42360    0.79730    0.12540    1.000
    O11      O        0.40960    0.60020    0.43060    1.000
    O12      O        0.09140    0.56680    0.43840    1.000
    S3       S        0.36060    0.70520    0.27866    1.000
    Sr3      Sr       0.25720    0.89516    0.97937    1.000
    C19      C        0.31000    0.22720    0.29610    1.000
    C20      C        0.49300    0.18700    0.28370    1.000
    H7       H        0.60310    0.19190    0.31790    1.000
    C21      C        0.49600    0.13740    0.21370    1.000
    H8       H        0.60930    0.10470    0.19670    1.000
    C22      C        0.31500    0.14180    0.17230    1.000
    C23      C        0.26600    0.10090    0.09580    1.000
    C24      C        0.25300    0.28290    0.36570    1.000
    O13      O        0.39540    0.30880    0.41290    1.000
    O14      O        0.07640    0.29730    0.37460    1.000
    O15      O        0.09040    0.10020    0.06940    1.000
    O16      O        0.40860    0.06680    0.06160    1.000
    S4       S        0.13940    0.20520    0.22134    1.000
    Sr4      Sr       0.24280    0.39516    0.52063    1.000
