data_functionalizedCrystal
_audit_creation_method	'EQeq! by Chris Wilmer'
_symmetry_space_group_name_H-M	'P1'
_symmetry_Int_Tables_number	1
_symmetry_cell_setting	triclinic
loop_
_symmetry_equiv_pos_as_xyz
  x,y,z
_cell_length_a	17.755
_cell_length_b	19.838
_cell_length_c	13.311
_cell_angle_alpha	90
_cell_angle_beta	131.834
_cell_angle_gamma	90
loop_
_atom_site_label
_atom_site_type_symbol
_atom_site_fract_x
_atom_site_fract_y
_atom_site_fract_z
_atom_site_charge
Mof_La	La	0.89195	0.26696	0.28394	1.602
Mof_La	La	0.60805	0.51695	0.21615	1.803
Mof_O 	O 	0.584	0.3888	0.1443	-0.69
Mof_H 	H 	0.5578	0.3861	0.1803	0.227
Mof_H 	H 	0.6103	0.35	0.1469	0.277
Mof_O 	O 	0.4388	0.7125	0.1653	-0.507
Mof_O 	O 	0.5276	0.6162	0.24	-0.494
Mof_O 	O 	0.5562	0.5425	0.825	-0.514
Mof_O 	O 	0.6004	0.50535	0.0174	-0.471
Mof_O 	O 	0.7885	0.3666	0.2603	-0.471
Mof_O 	O 	0.7728	0.4624	0.3345	-0.501
Mof_O 	O 	0.0837	0.2551	0.4828	-0.45
Mof_O 	O 	0.2316	0.2921	0.6751	-0.499
Mof_N 	N 	0.5142	0.6112	0.0278	-0.195
Mof_N 	N 	0.9856	0.3611	0.4713	-0.235
Mof_C 	C 	0.4794	0.6638	0.1565	0.389
Mof_C 	C 	0.4695	0.663	0.0347	-0.102
Mof_C 	C 	0.4167	0.713	0.9354	0.016
Mof_H 	H 	0.3839	0.7475	0.9404	-0.005
Mof_C 	C 	0.4145	0.7096	0.8294	-0.109
Mof_H 	H 	0.3809	0.7425	0.7625	0.042
Mof_C 	C 	0.4628	0.6569	0.8239	0.015
Mof_H 	H 	0.4638	0.6544	0.7551	-0.004
Mof_C 	C 	0.5096	0.6078	0.9235	-0.098
Mof_C 	C 	0.5596	0.5468	0.9216	0.39
Mof_C 	C 	0.8232	0.414	0.3437	0.375
Mof_C 	C 	0.9348	0.4129	0.4656	-0.061
Mof_C 	C 	0.9812	0.4631	0.5639	-0.126
Mof_H 	H 	0.9432	0.4976	0.5586	0.031
Mof_C 	C 	0.0847	0.4606	0.6694	0.046
Mof_H 	H 	0.1178	0.494	0.7351	-0.001
Mof_C 	C 	0.139	0.407	0.6758	-0.076
Mof_H 	H 	0.2088	0.4043	0.7453	0.034
Mof_C 	C 	0.0863	0.3579	0.576	-0.017
Mof_C 	C 	0.1378	0.2968	0.578	0.361
Mof_La	La	0.39195	0.76696	0.28394	1.678
Mof_La	La	0.10805	0.01695	0.21615	1.827
Mof_O 	O 	0.084	0.8888	0.1443	-0.69
Mof_H 	H 	0.0578	0.8861	0.1803	0.237
Mof_H 	H 	0.1103	0.85	0.1469	0.284
Mof_O 	O 	0.9388	0.2125	0.1653	-0.5
Mof_O 	O 	0.0276	0.1162	0.24	-0.446
Mof_O 	O 	0.0562	0.0425	0.825	-0.499
Mof_O 	O 	0.1004	0.00535	0.0174	-0.467
Mof_O 	O 	0.2885	0.8666	0.2603	-0.478
Mof_O 	O 	0.2728	0.9624	0.3345	-0.505
Mof_O 	O 	0.5837	0.7551	0.4828	-0.483
Mof_O 	O 	0.7316	0.7921	0.6751	-0.505
Mof_N 	N 	0.0142	0.1112	0.0278	-0.186
Mof_N 	N 	0.4856	0.8611	0.4713	-0.19
Mof_C 	C 	0.9794	0.1638	0.1565	0.327
Mof_C 	C 	0.9695	0.163	0.0347	-0.123
Mof_C 	C 	0.9167	0.213	0.9354	-0.012
Mof_H 	H 	0.8839	0.2475	0.9404	-0
Mof_C 	C 	0.9145	0.2096	0.8294	-0.068
Mof_H 	H 	0.8809	0.2425	0.7625	0.019
Mof_C 	C 	0.9628	0.1569	0.8239	-0.086
Mof_H 	H 	0.9638	0.1544	0.7551	0.011
Mof_C 	C 	0.0096	0.1078	0.9235	-0.02
Mof_C 	C 	0.0596	0.0468	0.9216	0.377
Mof_C 	C 	0.3232	0.914	0.3437	0.396
Mof_C 	C 	0.4348	0.9129	0.4656	-0.104
Mof_C 	C 	0.4812	0.9631	0.5639	0.017
Mof_H 	H 	0.4432	0.9976	0.5586	-0.008
Mof_C 	C 	0.5847	0.9606	0.6694	-0.112
Mof_H 	H 	0.6178	0.994	0.7351	0.038
Mof_C 	C 	0.639	0.907	0.6758	0.014
Mof_H 	H 	0.7088	0.9043	0.7453	-0.007
Mof_C 	C 	0.5863	0.8579	0.576	-0.102
Mof_C 	C 	0.6378	0.7968	0.578	0.382
Mof_La	La	0.89195	0.73304	0.78394	1.606
Mof_La	La	0.60805	0.48305	0.71615	1.804
Mof_O 	O 	0.584	0.6112	0.6443	-0.69
Mof_H 	H 	0.5578	0.6139	0.6803	0.228
Mof_H 	H 	0.6103	0.65	0.6469	0.277
Mof_O 	O 	0.4388	0.2875	0.6653	-0.507
Mof_O 	O 	0.5276	0.3838	0.74	-0.493
Mof_O 	O 	0.5562	0.4575	0.325	-0.514
Mof_O 	O 	0.6004	0.49465	0.5174	-0.471
Mof_O 	O 	0.7885	0.6334	0.7603	-0.471
Mof_O 	O 	0.7728	0.5376	0.8345	-0.501
Mof_O 	O 	0.0837	0.7449	0.9828	-0.45
Mof_O 	O 	0.2316	0.7079	0.1751	-0.499
Mof_N 	N 	0.5142	0.3888	0.5278	-0.195
Mof_N 	N 	0.9856	0.6389	0.9713	-0.233
Mof_C 	C 	0.4794	0.3362	0.6565	0.389
Mof_C 	C 	0.4695	0.337	0.5347	-0.102
Mof_C 	C 	0.4167	0.287	0.4354	0.016
Mof_H 	H 	0.3839	0.2525	0.4404	-0.005
Mof_C 	C 	0.4145	0.2904	0.3294	-0.109
Mof_H 	H 	0.3809	0.2575	0.2625	0.041
Mof_C 	C 	0.4628	0.3431	0.3239	0.015
Mof_H 	H 	0.4638	0.3456	0.2551	-0.004
Mof_C 	C 	0.5096	0.3922	0.4235	-0.098
Mof_C 	C 	0.5596	0.4532	0.4216	0.389
Mof_C 	C 	0.8232	0.586	0.8437	0.376
Mof_C 	C 	0.9348	0.5871	0.9656	-0.063
Mof_C 	C 	0.9812	0.5369	0.0639	-0.121
Mof_H 	H 	0.9432	0.5024	0.0586	0.03
Mof_C 	C 	0.0847	0.5394	0.1694	0.04
Mof_H 	H 	0.1178	0.506	0.2351	0
Mof_C 	C 	0.139	0.593	0.1758	-0.073
Mof_H 	H 	0.2088	0.5957	0.2453	0.032
Mof_C 	C 	0.0863	0.6421	0.076	-0.02
Mof_C 	C 	0.1378	0.7032	0.078	0.361
Mof_La	La	0.39195	0.23304	0.78394	1.679
Mof_La	La	0.10805	0.98305	0.71615	1.827
Mof_O 	O 	0.084	0.1112	0.6443	-0.69
Mof_H 	H 	0.0578	0.1139	0.6803	0.238
Mof_H 	H 	0.1103	0.15	0.6469	0.284
Mof_O 	O 	0.9388	0.7875	0.6653	-0.5
Mof_O 	O 	0.0276	0.8838	0.74	-0.446
Mof_O 	O 	0.0562	0.9575	0.325	-0.5
Mof_O 	O 	0.1004	0.99465	0.5174	-0.463
Mof_O 	O 	0.2885	0.1334	0.7603	-0.478
Mof_O 	O 	0.2728	0.0376	0.8345	-0.504
Mof_O 	O 	0.5837	0.2449	0.9828	-0.482
Mof_O 	O 	0.7316	0.2079	0.1751	-0.505
Mof_N 	N 	0.0142	0.8888	0.5278	-0.184
Mof_N 	N 	0.4856	0.1389	0.9713	-0.19
Mof_C 	C 	0.9794	0.8362	0.6565	0.328
Mof_C 	C 	0.9695	0.837	0.5347	-0.122
Mof_C 	C 	0.9167	0.787	0.4354	-0.013
Mof_H 	H 	0.8839	0.7525	0.4404	-0
Mof_C 	C 	0.9145	0.7904	0.3294	-0.069
Mof_H 	H 	0.8809	0.7575	0.2625	0.019
Mof_C 	C 	0.9628	0.8431	0.3239	-0.082
Mof_H 	H 	0.9638	0.8456	0.2551	0.011
Mof_C 	C 	0.0096	0.8922	0.4235	-0.025
Mof_C 	C 	0.0596	0.9532	0.4216	0.374
Mof_C 	C 	0.3232	0.086	0.8437	0.395
Mof_C 	C 	0.4348	0.0871	0.9656	-0.1
Mof_C 	C 	0.4812	0.0369	0.0639	0.012
Mof_H 	H 	0.4432	0.0024	0.0586	-0.007
Mof_C 	C 	0.5847	0.0394	0.1694	-0.11
Mof_H 	H 	0.6178	0.006	0.2351	0.037
Mof_C 	C 	0.639	0.093	0.1758	0.012
Mof_H 	H 	0.7088	0.0957	0.2453	-0.007
Mof_C 	C 	0.5863	0.1421	0.076	-0.103
Mof_C 	C 	0.6378	0.2032	0.078	0.381
_end
