data_functionalizedCrystal
_audit_creation_method	'EQeq! by Chris Wilmer'
_symmetry_space_group_name_H-M	'P1'
_symmetry_Int_Tables_number	1
_symmetry_cell_setting	triclinic
loop_
_symmetry_equiv_pos_as_xyz
  x,y,z
_cell_length_a	9.2133
_cell_length_b	14.5187
_cell_length_c	20.6486
_cell_angle_alpha	110.583
_cell_angle_beta	97.6742
_cell_angle_gamma	90
loop_
_atom_site_label
_atom_site_type_symbol
_atom_site_fract_x
_atom_site_fract_y
_atom_site_fract_z
_atom_site_charge
Mof_Cd	Cd	0.60119	0.16238	0.79254	0.431
Mof_Cd	Cd	0.89881	0.36984	0.20746	0.431
Mof_Cd	Cd	0.39881	0.83762	0.20746	0.431
Mof_Cd	Cd	0.10119	0.63016	0.79254	0.431
Mof_H 	H 	0.5356	0.1677	0.5568	0.054
Mof_H 	H 	0.5081	0.8977	0.5648	0.052
Mof_H 	H 	0.1435	0.2574	0.8846	0.053
Mof_H 	H 	0.5019	0.3282	0.0282	0.056
Mof_H 	H 	0.8878	0.1603	0.713	0.015
Mof_H 	H 	0.816	0.3784	0.88	0.041
Mof_H 	H 	0.015	0.432	0.8328	0.052
Mof_H 	H 	0.1363	0.3575	0.7194	0.101
Mof_H 	H 	0.1928	0.2623	0.7316	0.1
Mof_H 	H 	0.8629	0.2831	0.6262	0.085
Mof_H 	H 	0.8111	0.2041	0.5072	0.037
Mof_H 	H 	0.1976	0.0791	0.5066	0.041
Mof_H 	H 	0.2504	0.1591	0.625	0.087
Mof_H 	H 	0.7529	0.0689	0.4048	0.04
Mof_H 	H 	0.7112	0.0041	0.2848	0.087
Mof_H 	H 	0.1385	0.0289	0.2782	0.084
Mof_H 	H 	0.1817	0.0944	0.3978	0.042
Mof_H 	H 	0.8063	0.9265	0.1734	0.096
Mof_H 	H 	0.9745	0.9388	0.1704	0.085
Mof_H 	H 	0.9242	0.1754	0.2466	0.022
Mof_H 	H 	0.7158	0.1564	0.0632	0.037
Mof_H 	H 	0.7125	0.989	0.072	0.041
Mof_H 	H 	0.9644	0.6109	0.4432	0.053
Mof_H 	H 	0.9919	0.3329	0.4352	0.051
Mof_H 	H 	0.3565	0.3728	0.1154	0.053
Mof_H 	H 	0.9981	0.3	0.9718	0.055
Mof_H 	H 	0.6122	0.4473	0.287	0.015
Mof_H 	H 	0.684	0.4984	0.12	0.041
Mof_H 	H 	0.485	0.5992	0.1672	0.052
Mof_H 	H 	0.3637	0.6381	0.2806	0.101
Mof_H 	H 	0.3072	0.5307	0.2684	0.1
Mof_H 	H 	0.6371	0.6569	0.3738	0.085
Mof_H 	H 	0.6889	0.6969	0.4928	0.037
Mof_H 	H 	0.3024	0.5725	0.4934	0.041
Mof_H 	H 	0.2496	0.5341	0.375	0.087
Mof_H 	H 	0.7471	0.6641	0.5952	0.039
Mof_H 	H 	0.7888	0.7193	0.7152	0.087
Mof_H 	H 	0.3615	0.7507	0.7218	0.084
Mof_H 	H 	0.3183	0.6966	0.6022	0.041
Mof_H 	H 	0.6937	0.7531	0.8266	0.096
Mof_H 	H 	0.5255	0.7684	0.8296	0.085
Mof_H 	H 	0.5758	0.9288	0.7534	0.022
Mof_H 	H 	0.7842	0.0932	0.9368	0.036
Mof_H 	H 	0.7875	0.917	0.928	0.041
Mof_H 	H 	0.4644	0.8323	0.4432	0.053
Mof_H 	H 	0.4919	0.1023	0.4352	0.051
Mof_H 	H 	0.8565	0.7426	0.1154	0.053
Mof_H 	H 	0.4981	0.6718	0.9718	0.056
Mof_H 	H 	0.1122	0.8397	0.287	0.015
Mof_H 	H 	0.184	0.6216	0.12	0.041
Mof_H 	H 	0.985	0.568	0.1672	0.052
Mof_H 	H 	0.8637	0.6425	0.2806	0.101
Mof_H 	H 	0.8072	0.7377	0.2684	0.1
Mof_H 	H 	0.1371	0.7169	0.3738	0.085
Mof_H 	H 	0.1889	0.7959	0.4928	0.037
Mof_H 	H 	0.8024	0.9209	0.4934	0.041
Mof_H 	H 	0.7496	0.8409	0.375	0.087
Mof_H 	H 	0.2471	0.9311	0.5952	0.04
Mof_H 	H 	0.2888	0.9959	0.7152	0.087
Mof_H 	H 	0.8615	0.9711	0.7218	0.084
Mof_H 	H 	0.8183	0.9056	0.6022	0.042
Mof_H 	H 	0.1937	0.0735	0.8266	0.096
Mof_H 	H 	0.0255	0.0612	0.8296	0.085
Mof_H 	H 	0.0758	0.8246	0.7534	0.022
Mof_H 	H 	0.2842	0.8436	0.9368	0.037
Mof_H 	H 	0.2875	0.011	0.928	0.041
Mof_H 	H 	0.0356	0.3891	0.5568	0.053
Mof_H 	H 	0.0081	0.6671	0.5648	0.051
Mof_H 	H 	0.6435	0.6272	0.8846	0.053
Mof_H 	H 	0.0019	0.7	0.0282	0.055
Mof_H 	H 	0.3878	0.5527	0.713	0.015
Mof_H 	H 	0.316	0.5016	0.88	0.041
Mof_H 	H 	0.515	0.4008	0.8328	0.052
Mof_H 	H 	0.6363	0.3619	0.7194	0.101
Mof_H 	H 	0.6928	0.4693	0.7316	0.1
Mof_H 	H 	0.3629	0.3431	0.6262	0.085
Mof_H 	H 	0.3111	0.3031	0.5072	0.037
Mof_H 	H 	0.6976	0.4275	0.5066	0.041
Mof_H 	H 	0.7504	0.4659	0.625	0.087
Mof_H 	H 	0.2529	0.3359	0.4048	0.039
Mof_H 	H 	0.2112	0.2807	0.2848	0.087
Mof_H 	H 	0.6385	0.2493	0.2782	0.084
Mof_H 	H 	0.6817	0.3034	0.3978	0.041
Mof_H 	H 	0.3063	0.2469	0.1734	0.096
Mof_H 	H 	0.4745	0.2316	0.1704	0.085
Mof_H 	H 	0.4242	0.0712	0.2466	0.022
Mof_H 	H 	0.2158	0.9068	0.0632	0.036
Mof_H 	H 	0.2125	0.083	0.072	0.041
Mof_C 	C 	0.5467	0.08372	0.65124	0.292
Mof_C 	C 	0.5235	0.03953	0.57226	-0.057
Mof_C 	C 	0.5207	0.1	0.534	-0.031
Mof_C 	C 	0.5044	0.93907	0.53894	-0.031
Mof_C 	C 	0.4322	0.25393	0.89066	0.287
Mof_C 	C 	0.3371	0.28771	0.94682	-0.055
Mof_C 	C 	0.1868	0.28011	0.93102	-0.028
Mof_C 	C 	0.4003	0.32268	0.01676	-0.028
Mof_C 	C 	0.8954	0.22114	0.74928	0.081
Mof_C 	C 	0.8557	0.34073	0.84046	0.013
Mof_C 	C 	0.9659	0.37045	0.8147	-0.015
Mof_C 	C 	0.1077	0.29074	0.71428	-0.172
Mof_C 	C 	0.0638	0.23267	0.63854	0.116
Mof_C 	C 	0.9318	0.24332	0.60224	-0.122
Mof_C 	C 	0.9007	0.19574	0.53068	-0.012
Mof_C 	C 	0.0017	0.13499	0.49278	-0.008
Mof_C 	C 	0.1306	0.12146	0.53012	-0.009
Mof_C 	C 	0.1622	0.16927	0.60134	-0.129
Mof_C 	C 	0.973	0.09052	0.41604	-0.005
Mof_C 	C 	0.8317	0.06159	0.37978	-0.01
Mof_C 	C 	0.8065	0.02234	0.30768	-0.119
Mof_C 	C 	0.9207	0.00984	0.26908	0.109
Mof_C 	C 	0.0602	0.0371	0.3036	-0.121
Mof_C 	C 	0.0859	0.07658	0.37556	-0.009
Mof_C 	C 	0.8907	0.97282	0.18964	-0.157
Mof_C 	C 	0.8866	0.14957	0.19934	0.093
Mof_C 	C 	0.7624	0.1389	0.1014	0.001
Mof_C 	C 	0.7674	0.0472	0.1036	-0.01
Mof_C 	C 	0.9533	0.43248	0.34876	0.292
Mof_C 	C 	0.9765	0.46727	0.42774	-0.057
Mof_C 	C 	0.9793	0.566	0.466	-0.031
Mof_C 	C 	0.9956	0.40013	0.46106	-0.031
Mof_C 	C 	0.0678	0.36327	0.10934	0.287
Mof_C 	C 	0.1629	0.34089	0.05318	-0.057
Mof_C 	C 	0.3132	0.34909	0.06898	-0.026
Mof_C 	C 	0.0997	0.30592	0.98324	-0.025
Mof_C 	C 	0.6046	0.47186	0.25072	0.081
Mof_C 	C 	0.6443	0.50027	0.15954	0.013
Mof_C 	C 	0.5341	0.55575	0.1853	-0.015
Mof_C 	C 	0.3923	0.57646	0.28572	-0.172
Mof_C 	C 	0.4362	0.59413	0.36146	0.116
Mof_C 	C 	0.5682	0.64108	0.39776	-0.121
Mof_C 	C 	0.5993	0.66506	0.46932	-0.013
Mof_C 	C 	0.4983	0.64221	0.50722	-0.008
Mof_C 	C 	0.3694	0.59134	0.46988	-0.009
Mof_C 	C 	0.3378	0.56793	0.39866	-0.128
Mof_C 	C 	0.527	0.67448	0.58396	-0.006
Mof_C 	C 	0.6683	0.68181	0.62022	-0.01
Mof_C 	C 	0.6935	0.71466	0.69232	-0.119
Mof_C 	C 	0.5793	0.74076	0.73092	0.109
Mof_C 	C 	0.4398	0.7335	0.6964	-0.121
Mof_C 	C 	0.4141	0.70102	0.62444	-0.009
Mof_C 	C 	0.6093	0.78318	0.81036	-0.157
Mof_C 	C 	0.6134	0.95023	0.80066	0.093
Mof_C 	C 	0.7376	0.0375	0.8986	0.001
Mof_C 	C 	0.7326	0.9436	0.8964	-0.01
Mof_C 	C 	0.4533	0.91628	0.34876	0.292
Mof_C 	C 	0.4765	0.96047	0.42774	-0.057
Mof_C 	C 	0.4793	0.9	0.466	-0.031
Mof_C 	C 	0.4956	0.06093	0.46106	-0.031
Mof_C 	C 	0.5678	0.74607	0.10934	0.287
Mof_C 	C 	0.6629	0.71229	0.05318	-0.055
Mof_C 	C 	0.8132	0.71989	0.06898	-0.028
Mof_C 	C 	0.5997	0.67732	0.98324	-0.028
Mof_C 	C 	0.1046	0.77886	0.25072	0.081
Mof_C 	C 	0.1443	0.65927	0.15954	0.013
Mof_C 	C 	0.0341	0.62955	0.1853	-0.015
Mof_C 	C 	0.8923	0.70926	0.28572	-0.172
Mof_C 	C 	0.9362	0.76733	0.36146	0.116
Mof_C 	C 	0.0682	0.75668	0.39776	-0.122
Mof_C 	C 	0.0993	0.80426	0.46932	-0.012
Mof_C 	C 	0.9983	0.86501	0.50722	-0.008
Mof_C 	C 	0.8694	0.87854	0.46988	-0.009
Mof_C 	C 	0.8378	0.83073	0.39866	-0.129
Mof_C 	C 	0.027	0.90948	0.58396	-0.005
Mof_C 	C 	0.1683	0.93841	0.62022	-0.01
Mof_C 	C 	0.1935	0.97766	0.69232	-0.119
Mof_C 	C 	0.0793	0.99016	0.73092	0.109
Mof_C 	C 	0.9398	0.9629	0.6964	-0.121
Mof_C 	C 	0.9141	0.92342	0.62444	-0.009
Mof_C 	C 	0.1093	0.02718	0.81036	-0.157
Mof_C 	C 	0.1134	0.85043	0.80066	0.093
Mof_C 	C 	0.2376	0.8611	0.8986	0.001
Mof_C 	C 	0.2326	0.9528	0.8964	-0.01
Mof_C 	C 	0.0467	0.56752	0.65124	0.292
Mof_C 	C 	0.0235	0.53273	0.57226	-0.057
Mof_C 	C 	0.0207	0.434	0.534	-0.031
Mof_C 	C 	0.0044	0.59987	0.53894	-0.031
Mof_C 	C 	0.9322	0.63673	0.89066	0.287
Mof_C 	C 	0.8371	0.65911	0.94682	-0.057
Mof_C 	C 	0.6868	0.65091	0.93102	-0.026
Mof_C 	C 	0.9003	0.69408	0.01676	-0.025
Mof_C 	C 	0.3954	0.52814	0.74928	0.081
Mof_C 	C 	0.3557	0.49973	0.84046	0.013
Mof_C 	C 	0.4659	0.44425	0.8147	-0.015
Mof_C 	C 	0.6077	0.42354	0.71428	-0.172
Mof_C 	C 	0.5638	0.40587	0.63854	0.116
Mof_C 	C 	0.4318	0.35892	0.60224	-0.121
Mof_C 	C 	0.4007	0.33494	0.53068	-0.013
Mof_C 	C 	0.5017	0.35779	0.49278	-0.008
Mof_C 	C 	0.6306	0.40866	0.53012	-0.009
Mof_C 	C 	0.6622	0.43207	0.60134	-0.128
Mof_C 	C 	0.473	0.32552	0.41604	-0.006
Mof_C 	C 	0.3317	0.31819	0.37978	-0.01
Mof_C 	C 	0.3065	0.28534	0.30768	-0.119
Mof_C 	C 	0.4207	0.25924	0.26908	0.109
Mof_C 	C 	0.5602	0.2665	0.3036	-0.121
Mof_C 	C 	0.5859	0.29898	0.37556	-0.009
Mof_C 	C 	0.3907	0.21682	0.18964	-0.157
Mof_C 	C 	0.3866	0.04977	0.19934	0.093
Mof_C 	C 	0.2624	0.9625	0.1014	0.001
Mof_C 	C 	0.2674	0.0564	0.1036	-0.01
Mof_N 	N 	0.8117	0.24631	0.79922	-0.144
Mof_N 	N 	0.9926	0.29409	0.75718	-0.095
Mof_N 	N 	0.855	0.20516	0.16312	-0.142
Mof_N 	N 	0.8628	0.05482	0.16584	-0.101
Mof_N 	N 	0.6883	0.44709	0.20078	-0.144
Mof_N 	N 	0.5074	0.53691	0.24282	-0.095
Mof_N 	N 	0.645	0.04204	0.83688	-0.142
Mof_N 	N 	0.6372	0.88898	0.83416	-0.101
Mof_N 	N 	0.1883	0.75369	0.20078	-0.144
Mof_N 	N 	0.0074	0.70591	0.24282	-0.095
Mof_N 	N 	0.145	0.79484	0.83688	-0.142
Mof_N 	N 	0.1372	0.94518	0.83416	-0.101
Mof_N 	N 	0.3117	0.55291	0.79922	-0.144
Mof_N 	N 	0.4926	0.46309	0.75718	-0.095
Mof_N 	N 	0.355	0.95796	0.16312	-0.142
Mof_N 	N 	0.3628	0.11102	0.16584	-0.101
Mof_O 	O 	0.5772	0.0284	0.685	-0.285
Mof_O 	O 	0.5339	0.17423	0.68046	-0.281
Mof_O 	O 	0.5654	0.27746	0.90352	-0.274
Mof_O 	O 	0.374	0.20092	0.82944	-0.279
Mof_O 	O 	0.9228	0.3434	0.315	-0.285
Mof_O 	O 	0.9661	0.49377	0.31954	-0.281
Mof_O 	O 	0.9346	0.37394	0.09648	-0.274
Mof_O 	O 	0.126	0.37148	0.17056	-0.279
Mof_O 	O 	0.4228	0.9716	0.315	-0.285
Mof_O 	O 	0.4661	0.82577	0.31954	-0.281
Mof_O 	O 	0.4346	0.72254	0.09648	-0.274
Mof_O 	O 	0.626	0.79908	0.17056	-0.279
Mof_O 	O 	0.0772	0.6566	0.685	-0.285
Mof_O 	O 	0.0339	0.50623	0.68046	-0.281
Mof_O 	O 	0.0654	0.62606	0.90352	-0.274
Mof_O 	O 	0.874	0.62852	0.82944	-0.279
_end
