data_functionalizedCrystal
_audit_creation_method	'EQeq! by Chris Wilmer'
_symmetry_space_group_name_H-M	'P1'
_symmetry_Int_Tables_number	1
_symmetry_cell_setting	triclinic
loop_
_symmetry_equiv_pos_as_xyz
  x,y,z
_cell_length_a	6.6694
_cell_length_b	15.3228
_cell_length_c	15.3228
_cell_angle_alpha	62.0679
_cell_angle_beta	81.6577
_cell_angle_gamma	98.3423
loop_
_atom_site_label
_atom_site_type_symbol
_atom_site_fract_x
_atom_site_fract_y
_atom_site_fract_z
_atom_site_charge
Mof_Zn	Zn	0.38338	0.42634	0.311	1.21
Mof_Zn	Zn	0.69438	0.311	0.26266	1.21
Mof_Zn	Zn	0.95704	0.26266	0.42634	1.209
Mof_Zn	Zn	0.61662	0.57366	0.689	1.21
Mof_Zn	Zn	0.30562	0.689	0.73734	1.21
Mof_Zn	Zn	0.04296	0.73734	0.57366	1.209
Mof_H 	H 	0.6829	0.5499	0.4692	0.065
Mof_H 	H 	0.1521	0.4692	0.9809	0.065
Mof_H 	H 	0.133	0.9809	0.5499	0.065
Mof_H 	H 	0.3171	0.4501	0.5308	0.065
Mof_H 	H 	0.8479	0.5308	0.0191	0.065
Mof_H 	H 	0.867	0.0191	0.4501	0.065
Mof_C 	C 	0.75591	0.43847	0.38624	0.418
Mof_C 	C 	0.88539	0.46611	0.44634	-0.192
Mof_C 	C 	0.82019	0.53018	0.48071	-0.075
Mof_C 	C 	0.07109	0.43437	0.4677	0.174
Mof_C 	C 	0.14215	0.38624	0.17529	0.419
Mof_C 	C 	0.33173	0.44634	0.08755	-0.192
Mof_C 	C 	0.3009	0.48071	0.98911	-0.075
Mof_C 	C 	0.53879	0.4677	0.09793	0.173
Mof_C 	C 	0.31744	0.17529	0.43847	0.418
Mof_C 	C 	0.41928	0.08755	0.46611	-0.19
Mof_C 	C 	0.29001	0.98911	0.53018	-0.075
Mof_C 	C 	0.63672	0.09793	0.43437	0.173
Mof_C 	C 	0.24409	0.56153	0.61376	0.418
Mof_C 	C 	0.11461	0.53389	0.55366	-0.192
Mof_C 	C 	0.17981	0.46982	0.51929	-0.075
Mof_C 	C 	0.92891	0.56563	0.5323	0.174
Mof_C 	C 	0.85785	0.61376	0.82471	0.419
Mof_C 	C 	0.66827	0.55366	0.91245	-0.192
Mof_C 	C 	0.6991	0.51929	0.01089	-0.075
Mof_C 	C 	0.46121	0.5323	0.90207	0.173
Mof_C 	C 	0.68256	0.82471	0.56153	0.418
Mof_C 	C 	0.58072	0.91245	0.53389	-0.19
Mof_C 	C 	0.70999	0.01089	0.46982	-0.075
Mof_C 	C 	0.36328	0.90207	0.56563	0.173
Mof_O 	O 	0.60356	0.47753	0.36635	-0.478
Mof_O 	O 	0.8049	0.37884	0.35634	-0.582
Mof_O 	O 	0.14764	0.37009	0.44017	-0.54
Mof_O 	O 	0.96991	0.36635	0.15612	-0.478
Mof_O 	O 	0.16124	0.35634	0.26482	-0.582
Mof_O 	O 	0.58781	0.44017	0.18974	-0.54
Mof_O 	O 	0.12603	0.15612	0.47753	-0.477
Mof_O 	O 	0.42606	0.26482	0.37884	-0.582
Mof_O 	O 	0.77755	0.18974	0.37009	-0.541
Mof_O 	O 	0.39644	0.52247	0.63365	-0.478
Mof_O 	O 	0.1951	0.62116	0.64366	-0.582
Mof_O 	O 	0.85236	0.62991	0.55983	-0.54
Mof_O 	O 	0.03009	0.63365	0.84388	-0.478
Mof_O 	O 	0.83876	0.64366	0.73518	-0.582
Mof_O 	O 	0.41219	0.55983	0.81026	-0.54
Mof_O 	O 	0.87397	0.84388	0.52247	-0.477
Mof_O 	O 	0.57394	0.73518	0.62116	-0.582
Mof_O 	O 	0.22245	0.81026	0.62991	-0.541
_end
