# CIF file generated by openbabel 3.1.0, see https://openbabel.org
data_I
_chemical_name_common 'image0'
_cell_length_a 15.444
_cell_length_b 17.895
_cell_length_c 8.979
_cell_angle_alpha 90
_cell_angle_beta 90
_cell_angle_gamma 90
_space_group_name_H-M_alt 'P 1'
_space_group_name_Hall 'P 1'
loop_
    _symmetry_equiv_pos_as_xyz
    x,y,z
loop_
    _atom_site_label
    _atom_site_type_symbol
    _atom_site_fract_x
    _atom_site_fract_y
    _atom_site_fract_z
    _atom_site_occupancy
    Zn1      Zn       0.08578    0.39508    0.05717    1.000
    P1       P        0.98674    0.51468    0.23076    1.000
    O1       O        0.07380    0.48000    0.19540    1.000
    O2       O        0.96450    0.58070    0.13510    1.000
    O3       O        0.98090    0.53750    0.39340    1.000
    O4       O        0.70870    0.39210    0.49700    1.000
    O5       O        0.72820    0.35950    0.26270    1.000
    N1       N        0.90810    0.37810    0.29010    1.000
    N2       N        0.00410    0.31630    0.13680    1.000
    C1       C        0.90510    0.44400    0.19320    1.000
    H1       H        0.84850    0.46690    0.20240    1.000
    H2       H        0.91150    0.42760    0.09080    1.000
    C2       C        0.85210    0.38010    0.41890    1.000
    H3       H        0.86350    0.42590    0.47330    1.000
    H4       H        0.86720    0.33870    0.48360    1.000
    C3       C        0.75660    0.37600    0.38600    1.000
    C4       C        0.94370    0.31290    0.24470    1.000
    Zn2      Zn       0.41422    0.60492    0.55717    1.000
    P2       P        0.51326    0.48532    0.73076    1.000
    O6       O        0.42620    0.52000    0.69540    1.000
    O7       O        0.53550    0.41930    0.63510    1.000
    O8       O        0.51910    0.46250    0.89340    1.000
    O9       O        0.79130    0.60790    0.99700    1.000
    O10      O        0.77180    0.64050    0.76270    1.000
    N3       N        0.59190    0.62190    0.79010    1.000
    N4       N        0.49590    0.68370    0.63680    1.000
    C5       C        0.59490    0.55600    0.69320    1.000
    H5       H        0.65150    0.53310    0.70240    1.000
    H6       H        0.58850    0.57240    0.59080    1.000
    C6       C        0.64790    0.61990    0.91890    1.000
    H7       H        0.63650    0.57410    0.97330    1.000
    H8       H        0.63280    0.66130    0.98360    1.000
    C7       C        0.74340    0.62400    0.88600    1.000
    C8       C        0.55630    0.68710    0.74470    1.000
    Zn3      Zn       0.91422    0.89508    0.94283    1.000
    P3       P        0.01326    0.01468    0.76924    1.000
    O11      O        0.92620    0.98000    0.80460    1.000
    O12      O        0.03550    0.08070    0.86490    1.000
    O13      O        0.01910    0.03750    0.60660    1.000
    O14      O        0.29130    0.89210    0.50300    1.000
    O15      O        0.27180    0.85950    0.73730    1.000
    N5       N        0.09190    0.87810    0.70990    1.000
    N6       N        0.99590    0.81630    0.86320    1.000
    C9       C        0.09490    0.94400    0.80680    1.000
    H9       H        0.15150    0.96690    0.79760    1.000
    H10      H        0.08850    0.92760    0.90920    1.000
    C10      C        0.14790    0.88010    0.58110    1.000
    H11      H        0.13650    0.92590    0.52670    1.000
    H12      H        0.13280    0.83870    0.51640    1.000
    C11      C        0.24340    0.87600    0.61400    1.000
    C12      C        0.05630    0.81290    0.75530    1.000
    Zn4      Zn       0.58578    0.10492    0.44283    1.000
    P4       P        0.48674    0.98532    0.26924    1.000
    O16      O        0.57380    0.02000    0.30460    1.000
    O17      O        0.46450    0.91930    0.36490    1.000
    O18      O        0.48090    0.96250    0.10660    1.000
    O19      O        0.20870    0.10790    0.00300    1.000
    O20      O        0.22820    0.14050    0.23730    1.000
    N7       N        0.40810    0.12190    0.20990    1.000
    N8       N        0.50410    0.18370    0.36320    1.000
    C13      C        0.40510    0.05600    0.30680    1.000
    H13      H        0.34850    0.03310    0.29760    1.000
    H14      H        0.41150    0.07240    0.40920    1.000
    C14      C        0.35210    0.11990    0.08110    1.000
    H15      H        0.36350    0.07410    0.02670    1.000
    H16      H        0.36720    0.16130    0.01640    1.000
    C15      C        0.25660    0.12400    0.11400    1.000
    C16      C        0.44370    0.18710    0.25530    1.000
    Zn5      Zn       0.91422    0.60492    0.94283    1.000
    P5       P        0.01326    0.48532    0.76924    1.000
    O21      O        0.92620    0.52000    0.80460    1.000
    O22      O        0.03550    0.41930    0.86490    1.000
    O23      O        0.01910    0.46250    0.60660    1.000
    O24      O        0.29130    0.60790    0.50300    1.000
    O25      O        0.27180    0.64050    0.73730    1.000
    N9       N        0.09190    0.62190    0.70990    1.000
    N10      N        0.99590    0.68370    0.86320    1.000
    C17      C        0.09490    0.55600    0.80680    1.000
    H17      H        0.15150    0.53310    0.79760    1.000
    H18      H        0.08850    0.57240    0.90920    1.000
    C18      C        0.14790    0.61990    0.58110    1.000
    H19      H        0.13650    0.57410    0.52670    1.000
    H20      H        0.13280    0.66130    0.51640    1.000
    C19      C        0.24340    0.62400    0.61400    1.000
    C20      C        0.05630    0.68710    0.75530    1.000
    Zn6      Zn       0.58578    0.39508    0.44283    1.000
    P6       P        0.48674    0.51468    0.26924    1.000
    O26      O        0.57380    0.48000    0.30460    1.000
    O27      O        0.46450    0.58070    0.36490    1.000
    O28      O        0.48090    0.53750    0.10660    1.000
    O29      O        0.20870    0.39210    0.00300    1.000
    O30      O        0.22820    0.35950    0.23730    1.000
    N11      N        0.40810    0.37810    0.20990    1.000
    N12      N        0.50410    0.31630    0.36320    1.000
    C21      C        0.40510    0.44400    0.30680    1.000
    H21      H        0.34850    0.46690    0.29760    1.000
    H22      H        0.41150    0.42760    0.40920    1.000
    C22      C        0.35210    0.38010    0.08110    1.000
    H23      H        0.36350    0.42590    0.02670    1.000
    H24      H        0.36720    0.33870    0.01640    1.000
    C23      C        0.25660    0.37600    0.11400    1.000
    C24      C        0.44370    0.31290    0.25530    1.000
    Zn7      Zn       0.08578    0.10492    0.05717    1.000
    P7       P        0.98674    0.98532    0.23076    1.000
    O31      O        0.07380    0.02000    0.19540    1.000
    O32      O        0.96450    0.91930    0.13510    1.000
    O33      O        0.98090    0.96250    0.39340    1.000
    O34      O        0.70870    0.10790    0.49700    1.000
    O35      O        0.72820    0.14050    0.26270    1.000
    N13      N        0.90810    0.12190    0.29010    1.000
    N14      N        0.00410    0.18370    0.13680    1.000
    C25      C        0.90510    0.05600    0.19320    1.000
    H25      H        0.84850    0.03310    0.20240    1.000
    H26      H        0.91150    0.07240    0.09080    1.000
    C26      C        0.85210    0.11990    0.41890    1.000
    H27      H        0.86350    0.07410    0.47330    1.000
    H28      H        0.86720    0.16130    0.48360    1.000
    C27      C        0.75660    0.12400    0.38600    1.000
    C28      C        0.94370    0.18710    0.24470    1.000
    Zn8      Zn       0.41422    0.89508    0.55717    1.000
    P8       P        0.51326    0.01468    0.73076    1.000
    O36      O        0.42620    0.98000    0.69540    1.000
    O37      O        0.53550    0.08070    0.63510    1.000
    O38      O        0.51910    0.03750    0.89340    1.000
    O39      O        0.79130    0.89210    0.99700    1.000
    O40      O        0.77180    0.85950    0.76270    1.000
    N15      N        0.59190    0.87810    0.79010    1.000
    N16      N        0.49590    0.81630    0.63680    1.000
    C29      C        0.59490    0.94400    0.69320    1.000
    H29      H        0.65150    0.96690    0.70240    1.000
    H30      H        0.58850    0.92760    0.59080    1.000
    C30      C        0.64790    0.88010    0.91890    1.000
    H31      H        0.63650    0.92590    0.97330    1.000
    H32      H        0.63280    0.83870    0.98360    1.000
    C31      C        0.74340    0.87600    0.88600    1.000
    C32      C        0.55630    0.81290    0.74470    1.000
    O41      O        0.09540    0.25000    0.99510    1.000
    N17      N        0.91520    0.25000    0.30500    1.000
    C33      C        0.03660    0.25000    0.08710    1.000
    O42      O        0.40460    0.75000    0.49510    1.000
    N18      N        0.58480    0.75000    0.80500    1.000
    C34      C        0.46340    0.75000    0.58710    1.000
    O43      O        0.90460    0.75000    0.00490    1.000
    N19      N        0.08480    0.75000    0.69500    1.000
    C35      C        0.96340    0.75000    0.91290    1.000
    O44      O        0.59540    0.25000    0.50490    1.000
    N20      N        0.41520    0.25000    0.19500    1.000
    C36      C        0.53660    0.25000    0.41290    1.000
