data_functionalizedCrystal
_audit_creation_method	'EQeq! by Chris Wilmer'
_symmetry_space_group_name_H-M	'P1'
_symmetry_Int_Tables_number	1
_symmetry_cell_setting	triclinic
loop_
_symmetry_equiv_pos_as_xyz
  x,y,z
_cell_length_a	21.148
_cell_length_b	9.2771
_cell_length_c	17.264
_cell_angle_alpha	90
_cell_angle_beta	106.404
_cell_angle_gamma	90
loop_
_atom_site_label
_atom_site_type_symbol
_atom_site_fract_x
_atom_site_fract_y
_atom_site_fract_z
_atom_site_charge
Mof_Nd	Nd	0.98629	0.68394	0.42683	2.639
Mof_N 	N 	0.72266	0.4538	0.56876	-0.248
Mof_N 	N 	0.86587	0.8453	0.78122	-0.247
Mof_C 	C 	0.9187	0.867	0.6769	-0.005
Mof_H 	H 	0.934	0.9268	0.6429	0.033
Mof_C 	C 	0.92481	0.72	0.67308	-0.129
Mof_C 	C 	0.89921	0.6362	0.7226	-0.009
Mof_H 	H 	0.9019	0.5363	0.721	0.036
Mof_C 	C 	0.86946	0.7026	0.7746	0.013
Mof_H 	H 	0.851	0.6451	0.8067	-0.019
Mof_C 	C 	0.8896	0.9243	0.7319	0.005
Mof_H 	H 	0.8865	0.0241	0.7347	0.015
Mof_C 	C 	0.77606	0.371	0.5836	0.007
Mof_H 	H 	0.7819	0.3003	0.6231	-0.006
Mof_C 	C 	0.714	0.5486	0.5093	0.029
Mof_H 	H 	0.6754	0.6028	0.4954	0.005
Mof_C 	C 	0.75993	0.5703	0.467	-0.036
Mof_H 	H 	0.7525	0.6394	0.4264	0.042
Mof_C 	C 	0.82301	0.3852	0.543	-0.009
Mof_H 	H 	0.8593	0.3238	0.5548	0.011
Mof_C 	C 	0.03775	0.7438	0.26829	0.271
Mof_C 	C 	0.9637	0.016	0.47647	0.282
Mof_Cu	Cu	0.66642	0.446	0.6403	0.433
Mof_Cu	Cu	0.8395	0.1004	0.3762	0.468
Mof_O 	O 	0.05847	0.7652	0.34269	-0.472
Mof_O 	O 	0.93545	0.9283	0.42293	-0.549
Mof_O 	O 	0.0714	0.7264	0.21968	-0.474
Mof_O 	O 	0.93876	0.1281	0.49559	-0.537
Mof_C 	C 	0.81652	0.4891	0.48538	-0.117
Mof_C 	C 	0.87218	0.5217	0.44922	0.413
Mof_O 	O 	0.86559	0.6237	0.40065	-0.516
Mof_O 	O 	0.92493	0.4502	0.47276	-0.663
Mof_C 	C 	0.95934	0.6511	0.61714	0.515
Mof_O 	O 	0.96137	0.7227	0.55645	-0.576
Mof_O 	O 	0.98236	0.5274	0.63561	-0.596
Mof_Nd	Nd	0.48629	0.18394	0.42683	2.628
Mof_N 	N 	0.22266	0.9538	0.56876	-0.251
Mof_N 	N 	0.36587	0.3453	0.78122	-0.249
Mof_C 	C 	0.4187	0.367	0.6769	-0.011
Mof_H 	H 	0.434	0.4268	0.6429	0.035
Mof_C 	C 	0.42481	0.22	0.67308	-0.127
Mof_C 	C 	0.39921	0.1362	0.7226	-0.012
Mof_H 	H 	0.4019	0.0363	0.721	0.037
Mof_C 	C 	0.36946	0.2026	0.7746	0.014
Mof_H 	H 	0.351	0.1451	0.8067	-0.019
Mof_C 	C 	0.3896	0.4243	0.7319	0.014
Mof_H 	H 	0.3865	0.5241	0.7347	0.01
Mof_C 	C 	0.27606	0.871	0.5836	0.007
Mof_H 	H 	0.2819	0.8003	0.6231	-0.007
Mof_C 	C 	0.214	0.0486	0.5093	0.031
Mof_H 	H 	0.1754	0.1028	0.4954	0.004
Mof_C 	C 	0.25993	0.0703	0.467	-0.038
Mof_H 	H 	0.2525	0.1394	0.4264	0.043
Mof_C 	C 	0.32301	0.8852	0.543	-0.011
Mof_H 	H 	0.3593	0.8238	0.5548	0.012
Mof_C 	C 	0.53775	0.2438	0.26829	0.273
Mof_C 	C 	0.4637	0.516	0.47647	0.282
Mof_Cu	Cu	0.16642	0.946	0.6403	0.432
Mof_Cu	Cu	0.3395	0.6004	0.3762	0.468
Mof_O 	O 	0.55847	0.2652	0.34269	-0.472
Mof_O 	O 	0.43545	0.4283	0.42293	-0.55
Mof_O 	O 	0.5714	0.2264	0.21968	-0.473
Mof_O 	O 	0.43876	0.6281	0.49559	-0.536
Mof_C 	C 	0.31652	0.9891	0.48538	-0.114
Mof_C 	C 	0.37218	0.0217	0.44922	0.411
Mof_O 	O 	0.36559	0.1237	0.40065	-0.516
Mof_O 	O 	0.42493	0.9502	0.47276	-0.661
Mof_C 	C 	0.45934	0.1511	0.61714	0.513
Mof_O 	O 	0.46137	0.2227	0.55645	-0.575
Mof_O 	O 	0.48236	0.0274	0.63561	-0.593
Mof_Nd	Nd	0.01371	0.68394	0.07317	2.628
Mof_N 	N 	0.27734	0.4538	0.93124	-0.249
Mof_N 	N 	0.13413	0.8453	0.71878	-0.247
Mof_C 	C 	0.0813	0.867	0.8231	-0.005
Mof_H 	H 	0.066	0.9268	0.8571	0.033
Mof_C 	C 	0.07519	0.72	0.82692	-0.129
Mof_C 	C 	0.10079	0.6362	0.7774	-0.01
Mof_H 	H 	0.0981	0.5363	0.779	0.036
Mof_C 	C 	0.13054	0.7026	0.7254	0.013
Mof_H 	H 	0.149	0.6451	0.6933	-0.02
Mof_C 	C 	0.1104	0.9243	0.7681	0.003
Mof_H 	H 	0.1135	0.0241	0.7653	0.017
Mof_C 	C 	0.22394	0.371	0.9164	0.004
Mof_H 	H 	0.2181	0.3003	0.8769	-0.004
Mof_C 	C 	0.286	0.5486	0.9907	0.032
Mof_H 	H 	0.3246	0.6028	0.0046	0.003
Mof_C 	C 	0.24007	0.5703	0.033	-0.037
Mof_H 	H 	0.2475	0.6394	0.0736	0.043
Mof_C 	C 	0.17699	0.3852	0.957	-0.001
Mof_H 	H 	0.1407	0.3238	0.9452	0.011
Mof_C 	C 	0.96225	0.7438	0.23171	0.277
Mof_C 	C 	0.0363	0.016	0.02353	0.275
Mof_Cu	Cu	0.33358	0.446	0.8597	0.433
Mof_Cu	Cu	0.1605	0.1004	0.1238	0.468
Mof_O 	O 	0.94153	0.7652	0.15731	-0.469
Mof_O 	O 	0.06455	0.9283	0.07707	-0.544
Mof_O 	O 	0.9286	0.7264	0.28032	-0.475
Mof_O 	O 	0.06124	0.1281	0.00441	-0.539
Mof_C 	C 	0.18348	0.4891	0.01462	-0.124
Mof_C 	C 	0.12782	0.5217	0.05078	0.414
Mof_O 	O 	0.13441	0.6237	0.09935	-0.516
Mof_O 	O 	0.07507	0.4502	0.02724	-0.665
Mof_C 	C 	0.04066	0.6511	0.88286	0.514
Mof_O 	O 	0.03863	0.7227	0.94355	-0.572
Mof_O 	O 	0.01764	0.5274	0.86439	-0.59
Mof_Nd	Nd	0.51371	0.18394	0.07317	2.608
Mof_N 	N 	0.77734	0.9538	0.93124	-0.264
Mof_N 	N 	0.63413	0.3453	0.71878	-0.249
Mof_C 	C 	0.5813	0.367	0.8231	-0.012
Mof_H 	H 	0.566	0.4268	0.8571	0.035
Mof_C 	C 	0.57519	0.22	0.82692	-0.125
Mof_C 	C 	0.60079	0.1362	0.7774	-0.013
Mof_H 	H 	0.5981	0.0363	0.779	0.038
Mof_C 	C 	0.63054	0.2026	0.7254	0.015
Mof_H 	H 	0.649	0.1451	0.6933	-0.021
Mof_C 	C 	0.6104	0.4243	0.7681	0.015
Mof_H 	H 	0.6135	0.5241	0.7653	0.01
Mof_C 	C 	0.72394	0.871	0.9164	0.029
Mof_H 	H 	0.7181	0.8003	0.8769	-0.014
Mof_C 	C 	0.786	0.0486	0.9907	0.067
Mof_H 	H 	0.8246	0.1028	0.0046	-0.009
Mof_C 	C 	0.74007	0.0703	0.033	-0.087
Mof_H 	H 	0.7475	0.1394	0.0736	0.059
Mof_C 	C 	0.67699	0.8852	0.957	-0.055
Mof_H 	H 	0.6407	0.8238	0.9452	0.025
Mof_C 	C 	0.46225	0.2438	0.23171	0.273
Mof_C 	C 	0.5363	0.516	0.02353	0.281
Mof_Cu	Cu	0.83358	0.946	0.8597	0.431
Mof_Cu	Cu	0.6605	0.6004	0.1238	0.468
Mof_O 	O 	0.44153	0.2652	0.15731	-0.472
Mof_O 	O 	0.56455	0.4283	0.07707	-0.549
Mof_O 	O 	0.4286	0.2264	0.28032	-0.475
Mof_O 	O 	0.56124	0.6281	0.00441	-0.533
Mof_C 	C 	0.68348	0.9891	0.01462	-0.064
Mof_C 	C 	0.62782	0.0217	0.05078	0.381
Mof_O 	O 	0.63441	0.1237	0.09935	-0.508
Mof_O 	O 	0.57507	0.9502	0.02724	-0.646
Mof_C 	C 	0.54066	0.1511	0.88286	0.511
Mof_O 	O 	0.53863	0.2227	0.94355	-0.572
Mof_O 	O 	0.51764	0.0274	0.86439	-0.589
Mof_Nd	Nd	0.01371	0.31606	0.57317	2.638
Mof_N 	N 	0.27734	0.5462	0.43124	-0.249
Mof_N 	N 	0.13413	0.1547	0.21878	-0.248
Mof_C 	C 	0.0813	0.133	0.3231	-0.006
Mof_H 	H 	0.066	0.0732	0.3571	0.032
Mof_C 	C 	0.07519	0.28	0.32692	-0.13
Mof_C 	C 	0.10079	0.3638	0.2774	-0.01
Mof_H 	H 	0.0981	0.4637	0.279	0.035
Mof_C 	C 	0.13054	0.2974	0.2254	0.012
Mof_H 	H 	0.149	0.3549	0.1933	-0.02
Mof_C 	C 	0.1104	0.0757	0.2681	0.005
Mof_H 	H 	0.1135	0.9759	0.2653	0.015
Mof_C 	C 	0.22394	0.629	0.4164	0.007
Mof_H 	H 	0.2181	0.6997	0.3769	-0.006
Mof_C 	C 	0.286	0.4514	0.4907	0.029
Mof_H 	H 	0.3246	0.3972	0.5046	0.005
Mof_C 	C 	0.24007	0.4297	0.533	-0.036
Mof_H 	H 	0.2475	0.3606	0.5736	0.042
Mof_C 	C 	0.17699	0.6148	0.457	-0.009
Mof_H 	H 	0.1407	0.6762	0.4452	0.011
Mof_C 	C 	0.96225	0.2562	0.73171	0.271
Mof_C 	C 	0.0363	0.984	0.52353	0.282
Mof_Cu	Cu	0.33358	0.554	0.3597	0.433
Mof_Cu	Cu	0.1605	0.8996	0.6238	0.468
Mof_O 	O 	0.94153	0.2348	0.65731	-0.472
Mof_O 	O 	0.06455	0.0717	0.57707	-0.549
Mof_O 	O 	0.9286	0.2736	0.78032	-0.474
Mof_O 	O 	0.06124	0.8719	0.50441	-0.537
Mof_C 	C 	0.18348	0.5109	0.51462	-0.117
Mof_C 	C 	0.12782	0.4783	0.55078	0.413
Mof_O 	O 	0.13441	0.3763	0.59935	-0.516
Mof_O 	O 	0.07507	0.5498	0.52724	-0.663
Mof_C 	C 	0.04066	0.3489	0.38286	0.515
Mof_O 	O 	0.03863	0.2773	0.44355	-0.576
Mof_O 	O 	0.01764	0.4726	0.36439	-0.596
Mof_Nd	Nd	0.51371	0.81606	0.57317	2.628
Mof_N 	N 	0.77734	0.0462	0.43124	-0.251
Mof_N 	N 	0.63413	0.6547	0.21878	-0.249
Mof_C 	C 	0.5813	0.633	0.3231	-0.011
Mof_H 	H 	0.566	0.5732	0.3571	0.035
Mof_C 	C 	0.57519	0.78	0.32692	-0.127
Mof_C 	C 	0.60079	0.8638	0.2774	-0.012
Mof_H 	H 	0.5981	0.9637	0.279	0.037
Mof_C 	C 	0.63054	0.7974	0.2254	0.014
Mof_H 	H 	0.649	0.8549	0.1933	-0.019
Mof_C 	C 	0.6104	0.5757	0.2681	0.014
Mof_H 	H 	0.6135	0.4759	0.2653	0.01
Mof_C 	C 	0.72394	0.129	0.4164	0.007
Mof_H 	H 	0.7181	0.1997	0.3769	-0.007
Mof_C 	C 	0.786	0.9514	0.4907	0.031
Mof_H 	H 	0.8246	0.8972	0.5046	0.004
Mof_C 	C 	0.74007	0.9297	0.533	-0.038
Mof_H 	H 	0.7475	0.8606	0.5736	0.043
Mof_C 	C 	0.67699	0.1148	0.457	-0.011
Mof_H 	H 	0.6407	0.1762	0.4452	0.012
Mof_C 	C 	0.46225	0.7562	0.73171	0.273
Mof_C 	C 	0.5363	0.484	0.52353	0.282
Mof_Cu	Cu	0.83358	0.054	0.3597	0.432
Mof_Cu	Cu	0.6605	0.3996	0.6238	0.468
Mof_O 	O 	0.44153	0.7348	0.65731	-0.472
Mof_O 	O 	0.56455	0.5717	0.57707	-0.55
Mof_O 	O 	0.4286	0.7736	0.78032	-0.473
Mof_O 	O 	0.56124	0.3719	0.50441	-0.536
Mof_C 	C 	0.68348	0.0109	0.51462	-0.114
Mof_C 	C 	0.62782	0.9783	0.55078	0.411
Mof_O 	O 	0.63441	0.8763	0.59935	-0.516
Mof_O 	O 	0.57507	0.0498	0.52724	-0.661
Mof_C 	C 	0.54066	0.8489	0.38286	0.513
Mof_O 	O 	0.53863	0.7773	0.44355	-0.575
Mof_O 	O 	0.51764	0.9726	0.36439	-0.593
Mof_Nd	Nd	0.98629	0.31606	0.92683	2.628
Mof_N 	N 	0.72266	0.5462	0.06876	-0.249
Mof_N 	N 	0.86587	0.1547	0.28122	-0.247
Mof_C 	C 	0.9187	0.133	0.1769	-0.005
Mof_H 	H 	0.934	0.0732	0.1429	0.033
Mof_C 	C 	0.92481	0.28	0.17308	-0.129
Mof_C 	C 	0.89921	0.3638	0.2226	-0.01
Mof_H 	H 	0.9019	0.4637	0.221	0.036
Mof_C 	C 	0.86946	0.2974	0.2746	0.013
Mof_H 	H 	0.851	0.3549	0.3067	-0.02
Mof_C 	C 	0.8896	0.0757	0.2319	0.003
Mof_H 	H 	0.8865	0.9759	0.2347	0.017
Mof_C 	C 	0.77606	0.629	0.0836	0.004
Mof_H 	H 	0.7819	0.6997	0.1231	-0.004
Mof_C 	C 	0.714	0.4514	0.0093	0.032
Mof_H 	H 	0.6754	0.3972	0.9954	0.003
Mof_C 	C 	0.75993	0.4297	0.967	-0.037
Mof_H 	H 	0.7525	0.3606	0.9264	0.043
Mof_C 	C 	0.82301	0.6148	0.043	-0.001
Mof_H 	H 	0.8593	0.6762	0.0548	0.011
Mof_C 	C 	0.03775	0.2562	0.76829	0.277
Mof_C 	C 	0.9637	0.984	0.97647	0.275
Mof_Cu	Cu	0.66642	0.554	0.1403	0.433
Mof_Cu	Cu	0.8395	0.8996	0.8762	0.468
Mof_O 	O 	0.05847	0.2348	0.84269	-0.469
Mof_O 	O 	0.93545	0.0717	0.92293	-0.544
Mof_O 	O 	0.0714	0.2736	0.71968	-0.475
Mof_O 	O 	0.93876	0.8719	0.99559	-0.539
Mof_C 	C 	0.81652	0.5109	0.98538	-0.124
Mof_C 	C 	0.87218	0.4783	0.94922	0.414
Mof_O 	O 	0.86559	0.3763	0.90065	-0.516
Mof_O 	O 	0.92493	0.5498	0.97276	-0.665
Mof_C 	C 	0.95934	0.3489	0.11714	0.514
Mof_O 	O 	0.96137	0.2773	0.05645	-0.572
Mof_O 	O 	0.98236	0.4726	0.13561	-0.59
Mof_Nd	Nd	0.48629	0.81606	0.92683	2.608
Mof_N 	N 	0.22266	0.0462	0.06876	-0.264
Mof_N 	N 	0.36587	0.6547	0.28122	-0.249
Mof_C 	C 	0.4187	0.633	0.1769	-0.012
Mof_H 	H 	0.434	0.5732	0.1429	0.035
Mof_C 	C 	0.42481	0.78	0.17308	-0.125
Mof_C 	C 	0.39921	0.8638	0.2226	-0.013
Mof_H 	H 	0.4019	0.9637	0.221	0.038
Mof_C 	C 	0.36946	0.7974	0.2746	0.015
Mof_H 	H 	0.351	0.8549	0.3067	-0.021
Mof_C 	C 	0.3896	0.5757	0.2319	0.015
Mof_H 	H 	0.3865	0.4759	0.2347	0.01
Mof_C 	C 	0.27606	0.129	0.0836	0.029
Mof_H 	H 	0.2819	0.1997	0.1231	-0.014
Mof_C 	C 	0.214	0.9514	0.0093	0.067
Mof_H 	H 	0.1754	0.8972	0.9954	-0.009
Mof_C 	C 	0.25993	0.9297	0.967	-0.087
Mof_H 	H 	0.2525	0.8606	0.9264	0.059
Mof_C 	C 	0.32301	0.1148	0.043	-0.055
Mof_H 	H 	0.3593	0.1762	0.0548	0.025
Mof_C 	C 	0.53775	0.7562	0.76829	0.273
Mof_C 	C 	0.4637	0.484	0.97647	0.281
Mof_Cu	Cu	0.16642	0.054	0.1403	0.431
Mof_Cu	Cu	0.3395	0.3996	0.8762	0.468
Mof_O 	O 	0.55847	0.7348	0.84269	-0.472
Mof_O 	O 	0.43545	0.5717	0.92293	-0.549
Mof_O 	O 	0.5714	0.7736	0.71968	-0.475
Mof_O 	O 	0.43876	0.3719	0.99559	-0.533
Mof_C 	C 	0.31652	0.0109	0.98538	-0.064
Mof_C 	C 	0.37218	0.9783	0.94922	0.381
Mof_O 	O 	0.36559	0.8763	0.90065	-0.508
Mof_O 	O 	0.42493	0.0498	0.97276	-0.646
Mof_C 	C 	0.45934	0.8489	0.11714	0.511
Mof_O 	O 	0.46137	0.7773	0.05645	-0.572
Mof_O 	O 	0.48236	0.9726	0.13561	-0.589
_end
