# CIF file generated by openbabel 3.1.0, see https://openbabel.org
data_I
_chemical_name_common 'VIDXOX_clean'
_cell_length_a 10.4135
_cell_length_b 10.5541
_cell_length_c 14.0372
_cell_angle_alpha 99.595
_cell_angle_beta 99.62
_cell_angle_gamma 108.843
_space_group_name_H-M_alt 'P 1'
_space_group_name_Hall 'P 1'
loop_
    _symmetry_equiv_pos_as_xyz
    x,y,z
loop_
    _atom_site_label
    _atom_site_type_symbol
    _atom_site_fract_x
    _atom_site_fract_y
    _atom_site_fract_z
    _atom_site_occupancy
    Er1      Er       0.96416    0.46417    0.82145    1.000
    Er2      Er       0.54178    0.06538    0.18199    1.000
    Er3      Er       0.03584    0.53583    0.17855    1.000
    Er4      Er       0.45822    0.93462    0.81801    1.000
    H1       H        0.79210    0.81830    0.92170    1.000
    H2       H        0.30150    0.33450    0.89150    1.000
    H3       H        0.08570    0.73730    0.55130    1.000
    H4       H        0.20790    0.18170    0.07830    1.000
    H5       H        0.69850    0.66550    0.10850    1.000
    H6       H        0.91430    0.26270    0.44870    1.000
    C1       C        0.00170    0.87920    0.94430    1.000
    C2       C        0.12770    0.98800    0.99050    1.000
    C3       C        0.87520    0.89110    0.95320    1.000
    C4       C        0.00090    0.74140    0.89440    1.000
    C5       C        0.26500    0.98230    0.97300    1.000
    C6       C        0.48810    0.60180    0.07190    1.000
    C7       C        0.36840    0.50160    0.00680    1.000
    C8       C        0.38120    0.40070    0.93510    1.000
    C9       C        0.48490    0.72050    0.14700    1.000
    C10      C        0.22520    0.49860    0.01180    1.000
    C11      C        0.03020    0.41990    0.56510    1.000
    C12      C        0.08290    0.56480    0.59610    1.000
    C13      C        0.05110    0.64170    0.53030    1.000
    C14      C        0.05620    0.32600    0.63030    1.000
    C15      C        0.17690    0.64230    0.69670    1.000
    C16      C        0.99830    0.12080    0.05570    1.000
    C17      C        0.87230    0.01200    0.00950    1.000
    C18      C        0.12480    0.10890    0.04680    1.000
    C19      C        0.99910    0.25860    0.10560    1.000
    C20      C        0.73500    0.01770    0.02700    1.000
    C21      C        0.51190    0.39820    0.92810    1.000
    C22      C        0.63160    0.49840    0.99320    1.000
    C23      C        0.61880    0.59930    0.06490    1.000
    C24      C        0.51510    0.27950    0.85300    1.000
    C25      C        0.77480    0.50140    0.98820    1.000
    C26      C        0.96980    0.58010    0.43490    1.000
    C27      C        0.91710    0.43520    0.40390    1.000
    C28      C        0.94890    0.35830    0.46970    1.000
    C29      C        0.94380    0.67400    0.36970    1.000
    C30      C        0.82310    0.35770    0.30330    1.000
    O1       O        0.36240    0.00690    0.04690    1.000
    O2       O        0.27300    0.95800    0.88360    1.000
    O3       O        0.07620    0.68990    0.94260    1.000
    O4       O        0.91980    0.67510    0.81100    1.000
    O5       O        0.13120    0.44250    0.93230    1.000
    O6       O        0.20680    0.54940    0.09320    1.000
    O7       O        0.47440    0.82170    0.11440    1.000
    O8       O        0.50270    0.71510    0.23630    1.000
    O9       O        0.15430    0.59300    0.77060    1.000
    O10      O        0.27380    0.75230    0.70090    1.000
    O11      O        0.00020    0.31580    0.70110    1.000
    O12      O        0.12470    0.25490    0.60580    1.000
    O13      O        0.63760    0.99310    0.95310    1.000
    O14      O        0.72700    0.04200    0.11640    1.000
    O15      O        0.92380    0.31010    0.05740    1.000
    O16      O        0.08020    0.32490    0.18900    1.000
    O17      O        0.86880    0.55750    0.06770    1.000
    O18      O        0.79320    0.45060    0.90680    1.000
    O19      O        0.52560    0.17830    0.88560    1.000
    O20      O        0.49730    0.28490    0.76370    1.000
    O21      O        0.84570    0.40700    0.22940    1.000
    O22      O        0.72620    0.24770    0.29910    1.000
    O23      O        0.99980    0.68420    0.29890    1.000
    O24      O        0.87530    0.74510    0.39420    1.000
