data_functionalizedCrystal
_audit_creation_method	'EQeq! by Chris Wilmer'
_symmetry_space_group_name_H-M	'P1'
_symmetry_Int_Tables_number	1
_symmetry_cell_setting	triclinic
loop_
_symmetry_equiv_pos_as_xyz
  x,y,z
_cell_length_a	4.789
_cell_length_b	11.771
_cell_length_c	26.329
_cell_angle_alpha	96.822
_cell_angle_beta	90
_cell_angle_gamma	90
loop_
_atom_site_label
_atom_site_type_symbol
_atom_site_fract_x
_atom_site_fract_y
_atom_site_fract_z
_atom_site_charge
Mof_Zn	Zn	0.29553	0.09541	0.55064	1.225
Mof_Zn	Zn	0.27738	0.82415	0.97052	1.226
Mof_Zn	Zn	0.79553	0.90459	0.44936	1.219
Mof_Zn	Zn	0.77738	0.17585	0.02948	1.227
Mof_H 	H 	0.7898	0.2567	0.4205	0.032
Mof_H 	H 	0.9002	0.2871	0.3375	0.064
Mof_H 	H 	0.3611	0.0423	0.2834	0.063
Mof_H 	H 	0.7712	0.9581	0.2321	0.06
Mof_H 	H 	0.6304	0.8338	0.1637	0.038
Mof_H 	H 	0.4654	0.2182	0.1637	0.044
Mof_H 	H 	0.3319	0.2395	0.6567	0.012
Mof_H 	H 	0.8186	0.2902	0.5465	0.013
Mof_H 	H 	0.7642	0.4497	0.6138	0.045
Mof_H 	H 	0.1204	0.5234	0.694	0.086
Mof_H 	H 	0.3019	0.4268	0.7136	0.083
Mof_H 	H 	0.8882	0.258	0.7343	0.067
Mof_H 	H 	0.5907	0.2421	0.8012	0.065
Mof_H 	H 	0.5383	0.5821	0.8277	0.072
Mof_H 	H 	0.8406	0.5978	0.7605	0.07
Mof_H 	H 	0.1441	0.4016	0.8537	0.089
Mof_H 	H 	0.3629	0.3247	0.8779	0.091
Mof_H 	H 	0.0873	0.6095	0.897	-0.005
Mof_H 	H 	0.6902	0.6203	0.9984	0.02
Mof_H 	H 	0.7133	0.4332	0.9472	0.056
Mof_H 	H 	0.2898	0.7433	0.5795	0.055
Mof_H 	H 	0.4002	0.7129	0.6625	0.061
Mof_H 	H 	0.8611	0.9577	0.7166	0.058
Mof_H 	H 	0.2712	0.0419	0.7679	0.065
Mof_H 	H 	0.1304	0.1662	0.8363	0.041
Mof_H 	H 	0.9654	0.7818	0.8363	0.045
Mof_H 	H 	0.8319	0.7605	0.3433	0.004
Mof_H 	H 	0.3186	0.7098	0.4535	0.015
Mof_H 	H 	0.2642	0.5503	0.3862	0.05
Mof_H 	H 	0.6204	0.4766	0.306	0.086
Mof_H 	H 	0.8019	0.5732	0.2864	0.082
Mof_H 	H 	0.3882	0.742	0.2657	0.074
Mof_H 	H 	0.0907	0.7579	0.1988	0.064
Mof_H 	H 	0.0383	0.4179	0.1723	0.07
Mof_H 	H 	0.3406	0.4022	0.2395	0.078
Mof_H 	H 	0.6441	0.5984	0.1463	0.089
Mof_H 	H 	0.8629	0.6753	0.1221	0.092
Mof_H 	H 	0.5873	0.3905	0.103	-0.004
Mof_H 	H 	0.1902	0.3797	0.0016	0.02
Mof_H 	H 	0.2133	0.5668	0.0528	0.055
Mof_C 	C 	0.445	0.1163	0.45674	0.377
Mof_C 	C 	0.5059	0.1311	0.40192	-0.099
Mof_C 	C 	0.7032	0.2135	0.39305	0.013
Mof_C 	C 	0.7708	0.2311	0.34332	-0.071
Mof_C 	C 	0.6454	0.1653	0.30199	0.004
Mof_C 	C 	0.4477	0.085	0.31101	-0.042
Mof_C 	C 	0.3744	0.0663	0.36086	-0.044
Mof_C 	C 	0.1573	0.979	0.36766	0.335
Mof_C 	C 	0.7145	0.1884	0.24894	0.121
Mof_C 	C 	0.6298	0.102	0.20527	-0.003
Mof_C 	C 	0.6809	0.9854	0.20476	-0.063
Mof_C 	C 	0.5968	0.9116	0.16358	-0.002
Mof_C 	C 	0.464	0.948	0.12182	-0.048
Mof_C 	C 	0.4101	0.0657	0.12245	-0.076
Mof_C 	C 	0.4968	0.1402	0.16372	-0.014
Mof_C 	C 	0.2547	0.1139	0.08033	0.381
Mof_C 	C 	0.3869	0.8636	0.07667	0.344
Mof_C 	C 	0.1983	0.2723	0.63738	0.084
Mof_C 	C 	0.9165	0.2998	0.5772	-0.007
Mof_C 	C 	0.8865	0.3885	0.6142	-0.027
Mof_C 	C 	0.1191	0.4441	0.70059	-0.125
Mof_C 	C 	0.904	0.4297	0.74101	0.057
Mof_C 	C 	0.821	0.3239	0.75337	-0.066
Mof_C 	C 	0.641	0.3143	0.79333	-0.079
Mof_C 	C 	0.5337	0.4106	0.82195	0.075
Mof_C 	C 	0.6098	0.5163	0.80919	-0.072
Mof_C 	C 	0.7927	0.5257	0.76885	-0.07
Mof_C 	C 	0.3348	0.3986	0.86582	-0.141
Mof_C 	C 	0.24	0.5898	0.91589	0.082
Mof_C 	C 	0.5718	0.5947	0.97148	0.017
Mof_C 	C 	0.5859	0.4912	0.94336	-0.019
Mof_C 	C 	0.945	0.8837	0.54326	0.299
Mof_C 	C 	0.0059	0.8689	0.59808	-0.018
Mof_C 	C 	0.2032	0.7865	0.60695	-0.026
Mof_C 	C 	0.2708	0.7689	0.65668	-0.045
Mof_C 	C 	0.1454	0.8347	0.69801	0.006
Mof_C 	C 	0.9477	0.915	0.68899	-0.039
Mof_C 	C 	0.8744	0.9337	0.63914	-0.095
Mof_C 	C 	0.6573	0.021	0.63234	0.351
Mof_C 	C 	0.2145	0.8116	0.75106	0.123
Mof_C 	C 	0.1298	0.898	0.79473	-0
Mof_C 	C 	0.1809	0.0146	0.79524	-0.061
Mof_C 	C 	0.0968	0.0884	0.83642	-0.01
Mof_C 	C 	0.964	0.052	0.87818	-0.042
Mof_C 	C 	0.9101	0.9343	0.87755	-0.078
Mof_C 	C 	0.9968	0.8598	0.83628	-0.017
Mof_C 	C 	0.7547	0.8861	0.91967	0.386
Mof_C 	C 	0.8869	0.1364	0.92333	0.342
Mof_C 	C 	0.6983	0.7277	0.36262	0.077
Mof_C 	C 	0.4165	0.7002	0.4228	0.016
Mof_C 	C 	0.3865	0.6115	0.3858	-0.016
Mof_C 	C 	0.6191	0.5559	0.29941	-0.141
Mof_C 	C 	0.404	0.5703	0.25899	0.078
Mof_C 	C 	0.321	0.6761	0.24663	-0.077
Mof_C 	C 	0.141	0.6857	0.20667	-0.07
Mof_C 	C 	0.0337	0.5894	0.17805	0.072
Mof_C 	C 	0.1098	0.4837	0.19081	-0.063
Mof_C 	C 	0.2927	0.4743	0.23115	-0.081
Mof_C 	C 	0.8348	0.6014	0.13418	-0.145
Mof_C 	C 	0.74	0.4102	0.08411	0.083
Mof_C 	C 	0.0718	0.4053	0.02852	0.011
Mof_C 	C 	0.0859	0.5088	0.05664	-0.02
Mof_N 	N 	0.113	0.2261	0.59188	-0.251
Mof_N 	N 	0.0708	0.3713	0.65241	-0.091
Mof_N 	N 	0.3767	0.4886	0.90814	-0.097
Mof_N 	N 	0.3542	0.6564	0.95407	-0.257
Mof_N 	N 	0.613	0.7739	0.40812	-0.268
Mof_N 	N 	0.5708	0.6287	0.34759	-0.099
Mof_N 	N 	0.8767	0.5114	0.09186	-0.095
Mof_N 	N 	0.8542	0.3436	0.04593	-0.254
Mof_O 	O 	0.3049	0.1869	0.48452	-0.408
Mof_O 	O 	0.5567	0.0354	0.47638	-0.546
Mof_O 	O 	0.0846	0.9748	0.41411	-0.46
Mof_O 	O 	0.064	0.9175	0.33056	-0.279
Mof_O 	O 	0.83	0.2767	0.24151	-0.217
Mof_O 	O 	0.9919	0.104	0.08094	-0.443
Mof_O 	O 	0.3807	0.17	0.04997	-0.506
Mof_O 	O 	0.3816	0.7614	0.08066	-0.313
Mof_O 	O 	0.3388	0.9084	0.03598	-0.476
Mof_O 	O 	0.8049	0.8131	0.51548	-0.403
Mof_O 	O 	0.0567	0.9646	0.52362	-0.498
Mof_O 	O 	0.5846	0.0252	0.58589	-0.481
Mof_O 	O 	0.564	0.0825	0.66944	-0.293
Mof_O 	O 	0.33	0.7233	0.75849	-0.213
Mof_O 	O 	0.4919	0.896	0.91906	-0.449
Mof_O 	O 	0.8807	0.83	0.95003	-0.504
Mof_O 	O 	0.8816	0.2386	0.91934	-0.311
Mof_O 	O 	0.8388	0.0916	0.96402	-0.472
_end
