# CIF file generated by openbabel 3.1.0, see https://openbabel.org
data_I
_chemical_name_common 'image0'
_cell_length_a 31.609
_cell_length_b 9.8716
_cell_length_c 24.738
_cell_angle_alpha 90
_cell_angle_beta 104.669
_cell_angle_gamma 90
_space_group_name_H-M_alt 'P 1'
_space_group_name_Hall 'P 1'
loop_
    _symmetry_equiv_pos_as_xyz
    x,y,z
loop_
    _atom_site_label
    _atom_site_type_symbol
    _atom_site_fract_x
    _atom_site_fract_y
    _atom_site_fract_z
    _atom_site_occupancy
    O1       O        0.90154    0.61550    0.18492    1.000
    O2       O        0.85002    0.52020    0.22045    1.000
    O3       O        0.36216    0.09830    0.60421    1.000
    O4       O        0.29482    0.14480    0.60964    1.000
    Mn1      Mn       0.12003    0.60878    0.40290    1.000
    Mn2      Mn       0.21126    0.52708    0.34083    1.000
    Cl1      Cl       0.19351    0.71309    0.40111    1.000
    N1       N        0.14964    0.57350    0.49917    1.000
    N2       N        0.18427    0.46380    0.60588    1.000
    N3       N        0.06407    0.51060    0.43894    1.000
    N4       N        0.05513    0.38090    0.51059    1.000
    N5       N        0.01857    0.38160    0.46806    1.000
    H1       H        0.99510    0.33760    0.46810    1.000
    N6       N        0.23109    0.67790    0.27730    1.000
    N7       N        0.26108    0.86800    0.21180    1.000
    N8       N        0.28431    0.58940    0.37888    1.000
    N9       N        0.34059    0.71630    0.36539    1.000
    N10      N        0.35286    0.64480    0.41359    1.000
    H2       H        0.37860    0.64690    0.43600    1.000
    C1       C        0.19045    0.60160    0.52924    1.000
    H3       H        0.20770    0.65980    0.51440    1.000
    C2       C        0.20738    0.54640    0.58148    1.000
    H4       H        0.23600    0.56750    0.60040    1.000
    C3       C        0.14374    0.43640    0.57677    1.000
    H5       H        0.12650    0.37930    0.59220    1.000
    C4       C        0.12615    0.49120    0.52335    1.000
    C5       C        0.08135    0.46070    0.49125    1.000
    C6       C        0.02360    0.46010    0.42548    1.000
    C7       C        0.98881    0.48660    0.37486    1.000
    C8       C        0.94849    0.42130    0.36569    1.000
    H6       H        0.94350    0.35990    0.39190    1.000
    C9       C        0.91577    0.44750    0.31770    1.000
    H7       H        0.88900    0.40370    0.31230    1.000
    C10      C        0.92239    0.53790    0.27766    1.000
    C11      C        0.96200    0.60560    0.28829    1.000
    H8       H        0.96660    0.66940    0.26270    1.000
    C12      C        0.99499    0.58070    0.33616    1.000
    H9       H        0.02130    0.62740    0.34220    1.000
    C13      C        0.88859    0.55980    0.22352    1.000
    C14      C        0.20654    0.71610    0.22734    1.000
    H10      H        0.17880    0.67920    0.21410    1.000
    C15      C        0.22172    0.80990    0.19484    1.000
    H11      H        0.20390    0.83320    0.16010    1.000
    C16      C        0.28569    0.82850    0.26157    1.000
    H12      H        0.31320    0.86660    0.27510    1.000
    C17      C        0.27116    0.73200    0.29348    1.000
    C18      C        0.29923    0.68090    0.34609    1.000
    C19      C        0.31939    0.56990    0.42166    1.000
    C20      C        0.32282    0.47860    0.46969    1.000
    C21      C        0.36212    0.41620    0.49442    1.000
    H13      H        0.38720    0.43860    0.48320    1.000
    C22      C        0.36416    0.32070    0.53586    1.000
    H14      H        0.39060    0.27840    0.55200    1.000
    C23      C        0.32698    0.28680    0.55376    1.000
    C24      C        0.28842    0.35730    0.53164    1.000
    H15      H        0.26390    0.34080    0.54500    1.000
    C25      C        0.28629    0.45250    0.48941    1.000
    H16      H        0.26030    0.49870    0.47440    1.000
    C26      C        0.32834    0.16480    0.59347    1.000
    O5       O        0.40154    0.11550    0.18492    1.000
    O6       O        0.35002    0.02020    0.22045    1.000
    O7       O        0.86216    0.59830    0.60421    1.000
    O8       O        0.79482    0.64480    0.60964    1.000
    Mn3      Mn       0.62003    0.10878    0.40290    1.000
    Mn4      Mn       0.71126    0.02708    0.34083    1.000
    Cl2      Cl       0.69351    0.21309    0.40111    1.000
    N11      N        0.64964    0.07350    0.49917    1.000
    N12      N        0.68427    0.96380    0.60588    1.000
    N13      N        0.56407    0.01060    0.43894    1.000
    N14      N        0.55513    0.88090    0.51059    1.000
    N15      N        0.51857    0.88160    0.46806    1.000
    H17      H        0.49510    0.83760    0.46810    1.000
    N16      N        0.73109    0.17790    0.27730    1.000
    N17      N        0.76108    0.36800    0.21180    1.000
    N18      N        0.78431    0.08940    0.37888    1.000
    N19      N        0.84059    0.21630    0.36539    1.000
    N20      N        0.85286    0.14480    0.41359    1.000
    H18      H        0.87860    0.14690    0.43600    1.000
    C27      C        0.69045    0.10160    0.52924    1.000
    H19      H        0.70770    0.15980    0.51440    1.000
    C28      C        0.70738    0.04640    0.58148    1.000
    H20      H        0.73600    0.06750    0.60040    1.000
    C29      C        0.64374    0.93640    0.57677    1.000
    H21      H        0.62650    0.87930    0.59220    1.000
    C30      C        0.62615    0.99120    0.52335    1.000
    C31      C        0.58135    0.96070    0.49125    1.000
    C32      C        0.52360    0.96010    0.42548    1.000
    C33      C        0.48881    0.98660    0.37486    1.000
    C34      C        0.44849    0.92130    0.36569    1.000
    H22      H        0.44350    0.85990    0.39190    1.000
    C35      C        0.41577    0.94750    0.31770    1.000
    H23      H        0.38900    0.90370    0.31230    1.000
    C36      C        0.42239    0.03790    0.27766    1.000
    C37      C        0.46200    0.10560    0.28829    1.000
    H24      H        0.46660    0.16940    0.26270    1.000
    C38      C        0.49499    0.08070    0.33616    1.000
    H25      H        0.52130    0.12740    0.34220    1.000
    C39      C        0.38859    0.05980    0.22352    1.000
    C40      C        0.70654    0.21610    0.22734    1.000
    H26      H        0.67880    0.17920    0.21410    1.000
    C41      C        0.72172    0.30990    0.19484    1.000
    H27      H        0.70390    0.33320    0.16010    1.000
    C42      C        0.78569    0.32850    0.26157    1.000
    H28      H        0.81320    0.36660    0.27510    1.000
    C43      C        0.77116    0.23200    0.29348    1.000
    C44      C        0.79923    0.18090    0.34609    1.000
    C45      C        0.81939    0.06990    0.42166    1.000
    C46      C        0.82282    0.97860    0.46969    1.000
    C47      C        0.86212    0.91620    0.49442    1.000
    H29      H        0.88720    0.93860    0.48320    1.000
    C48      C        0.86416    0.82070    0.53586    1.000
    H30      H        0.89060    0.77840    0.55200    1.000
    C49      C        0.82698    0.78680    0.55376    1.000
    C50      C        0.78842    0.85730    0.53164    1.000
    H31      H        0.76390    0.84080    0.54500    1.000
    C51      C        0.78629    0.95250    0.48941    1.000
    H32      H        0.76030    0.99870    0.47440    1.000
    C52      C        0.82834    0.66480    0.59347    1.000
    O9       O        0.09846    0.61550    0.31508    1.000
    O10      O        0.14998    0.52020    0.27955    1.000
    O11      O        0.63784    0.09830    0.89579    1.000
    O12      O        0.70518    0.14480    0.89036    1.000
    Mn5      Mn       0.87997    0.60878    0.09710    1.000
    Mn6      Mn       0.78874    0.52708    0.15917    1.000
    Cl3      Cl       0.80649    0.71309    0.09889    1.000
    N21      N        0.85036    0.57350    0.00083    1.000
    N22      N        0.81573    0.46380    0.89412    1.000
    N23      N        0.93593    0.51060    0.06106    1.000
    N24      N        0.94487    0.38090    0.98941    1.000
    N25      N        0.98143    0.38160    0.03194    1.000
    H33      H        0.00490    0.33760    0.03190    1.000
    N26      N        0.76891    0.67790    0.22270    1.000
    N27      N        0.73892    0.86800    0.28820    1.000
    N28      N        0.71569    0.58940    0.12112    1.000
    N29      N        0.65941    0.71630    0.13461    1.000
    N30      N        0.64714    0.64480    0.08641    1.000
    H34      H        0.62140    0.64690    0.06400    1.000
    C53      C        0.80955    0.60160    0.97076    1.000
    H35      H        0.79230    0.65980    0.98560    1.000
    C54      C        0.79262    0.54640    0.91852    1.000
    H36      H        0.76400    0.56750    0.89960    1.000
    C55      C        0.85626    0.43640    0.92323    1.000
    H37      H        0.87350    0.37930    0.90780    1.000
    C56      C        0.87385    0.49120    0.97665    1.000
    C57      C        0.91865    0.46070    0.00875    1.000
    C58      C        0.97640    0.46010    0.07452    1.000
    C59      C        0.01119    0.48660    0.12514    1.000
    C60      C        0.05151    0.42130    0.13431    1.000
    H38      H        0.05650    0.35990    0.10810    1.000
    C61      C        0.08423    0.44750    0.18230    1.000
    H39      H        0.11100    0.40370    0.18770    1.000
    C62      C        0.07761    0.53790    0.22234    1.000
    C63      C        0.03800    0.60560    0.21171    1.000
    H40      H        0.03340    0.66940    0.23730    1.000
    C64      C        0.00501    0.58070    0.16384    1.000
    H41      H        0.97870    0.62740    0.15780    1.000
    C65      C        0.11141    0.55980    0.27648    1.000
    C66      C        0.79346    0.71610    0.27266    1.000
    H42      H        0.82120    0.67920    0.28590    1.000
    C67      C        0.77828    0.80990    0.30516    1.000
    H43      H        0.79610    0.83320    0.33990    1.000
    C68      C        0.71431    0.82850    0.23843    1.000
    H44      H        0.68680    0.86660    0.22490    1.000
    C69      C        0.72884    0.73200    0.20652    1.000
    C70      C        0.70077    0.68090    0.15391    1.000
    C71      C        0.68061    0.56990    0.07834    1.000
    C72      C        0.67718    0.47860    0.03031    1.000
    C73      C        0.63788    0.41620    0.00558    1.000
    H45      H        0.61280    0.43860    0.01680    1.000
    C74      C        0.63584    0.32070    0.96414    1.000
    H46      H        0.60940    0.27840    0.94800    1.000
    C75      C        0.67302    0.28680    0.94624    1.000
    C76      C        0.71158    0.35730    0.96836    1.000
    H47      H        0.73610    0.34080    0.95500    1.000
    C77      C        0.71371    0.45250    0.01059    1.000
    H48      H        0.73970    0.49870    0.02560    1.000
    C78      C        0.67166    0.16480    0.90653    1.000
    O13      O        0.59846    0.11550    0.31508    1.000
    O14      O        0.64998    0.02020    0.27955    1.000
    O15      O        0.13784    0.59830    0.89579    1.000
    O16      O        0.20518    0.64480    0.89036    1.000
    Mn7      Mn       0.37997    0.10878    0.09710    1.000
    Mn8      Mn       0.28874    0.02708    0.15917    1.000
    Cl4      Cl       0.30649    0.21309    0.09889    1.000
    N31      N        0.35036    0.07350    0.00083    1.000
    N32      N        0.31573    0.96380    0.89412    1.000
    N33      N        0.43593    0.01060    0.06106    1.000
    N34      N        0.44487    0.88090    0.98941    1.000
    N35      N        0.48143    0.88160    0.03194    1.000
    H49      H        0.50490    0.83760    0.03190    1.000
    N36      N        0.26891    0.17790    0.22270    1.000
    N37      N        0.23892    0.36800    0.28820    1.000
    N38      N        0.21569    0.08940    0.12112    1.000
    N39      N        0.15941    0.21630    0.13461    1.000
    N40      N        0.14714    0.14480    0.08641    1.000
    H50      H        0.12140    0.14690    0.06400    1.000
    C79      C        0.30955    0.10160    0.97076    1.000
    H51      H        0.29230    0.15980    0.98560    1.000
    C80      C        0.29262    0.04640    0.91852    1.000
    H52      H        0.26400    0.06750    0.89960    1.000
    C81      C        0.35626    0.93640    0.92323    1.000
    H53      H        0.37350    0.87930    0.90780    1.000
    C82      C        0.37385    0.99120    0.97665    1.000
    C83      C        0.41865    0.96070    0.00875    1.000
    C84      C        0.47640    0.96010    0.07452    1.000
    C85      C        0.51119    0.98660    0.12514    1.000
    C86      C        0.55151    0.92130    0.13431    1.000
    H54      H        0.55650    0.85990    0.10810    1.000
    C87      C        0.58423    0.94750    0.18230    1.000
    H55      H        0.61100    0.90370    0.18770    1.000
    C88      C        0.57761    0.03790    0.22234    1.000
    C89      C        0.53800    0.10560    0.21171    1.000
    H56      H        0.53340    0.16940    0.23730    1.000
    C90      C        0.50501    0.08070    0.16384    1.000
    H57      H        0.47870    0.12740    0.15780    1.000
    C91      C        0.61141    0.05980    0.27648    1.000
    C92      C        0.29346    0.21610    0.27266    1.000
    H58      H        0.32120    0.17920    0.28590    1.000
    C93      C        0.27828    0.30990    0.30516    1.000
    H59      H        0.29610    0.33320    0.33990    1.000
    C94      C        0.21431    0.32850    0.23843    1.000
    H60      H        0.18680    0.36660    0.22490    1.000
    C95      C        0.22884    0.23200    0.20652    1.000
    C96      C        0.20077    0.18090    0.15391    1.000
    C97      C        0.18061    0.06990    0.07834    1.000
    C98      C        0.17718    0.97860    0.03031    1.000
    C99      C        0.13788    0.91620    0.00558    1.000
    H61      H        0.11280    0.93860    0.01680    1.000
    C100     C        0.13584    0.82070    0.96414    1.000
    H62      H        0.10940    0.77840    0.94800    1.000
    C101     C        0.17302    0.78680    0.94624    1.000
    C102     C        0.21158    0.85730    0.96836    1.000
    H63      H        0.23610    0.84080    0.95500    1.000
    C103     C        0.21371    0.95250    0.01059    1.000
    H64      H        0.23970    0.99870    0.02560    1.000
    C104     C        0.17166    0.66480    0.90653    1.000
    O17      O        0.09846    0.38450    0.81508    1.000
    O18      O        0.14998    0.47980    0.77955    1.000
    O19      O        0.63784    0.90170    0.39579    1.000
    O20      O        0.70518    0.85520    0.39036    1.000
    Mn9      Mn       0.87997    0.39122    0.59710    1.000
    Mn10     Mn       0.78874    0.47292    0.65917    1.000
    Cl5      Cl       0.80649    0.28691    0.59889    1.000
    N41      N        0.85036    0.42650    0.50083    1.000
    N42      N        0.81573    0.53620    0.39412    1.000
    N43      N        0.93593    0.48940    0.56106    1.000
    N44      N        0.94487    0.61910    0.48941    1.000
    N45      N        0.98143    0.61840    0.53194    1.000
    H65      H        0.00490    0.66240    0.53190    1.000
    N46      N        0.76891    0.32210    0.72270    1.000
    N47      N        0.73892    0.13200    0.78820    1.000
    N48      N        0.71569    0.41060    0.62112    1.000
    N49      N        0.65941    0.28370    0.63461    1.000
    N50      N        0.64714    0.35520    0.58641    1.000
    H66      H        0.62140    0.35310    0.56400    1.000
    C105     C        0.80955    0.39840    0.47076    1.000
    H67      H        0.79230    0.34020    0.48560    1.000
    C106     C        0.79262    0.45360    0.41852    1.000
    H68      H        0.76400    0.43250    0.39960    1.000
    C107     C        0.85626    0.56360    0.42323    1.000
    H69      H        0.87350    0.62070    0.40780    1.000
    C108     C        0.87385    0.50880    0.47665    1.000
    C109     C        0.91865    0.53930    0.50875    1.000
    C110     C        0.97640    0.53990    0.57452    1.000
    C111     C        0.01119    0.51340    0.62514    1.000
    C112     C        0.05151    0.57870    0.63431    1.000
    H70      H        0.05650    0.64010    0.60810    1.000
    C113     C        0.08423    0.55250    0.68230    1.000
    H71      H        0.11100    0.59630    0.68770    1.000
    C114     C        0.07761    0.46210    0.72234    1.000
    C115     C        0.03800    0.39440    0.71171    1.000
    H72      H        0.03340    0.33060    0.73730    1.000
    C116     C        0.00501    0.41930    0.66384    1.000
    H73      H        0.97870    0.37260    0.65780    1.000
    C117     C        0.11141    0.44020    0.77648    1.000
    C118     C        0.79346    0.28390    0.77266    1.000
    H74      H        0.82120    0.32080    0.78590    1.000
    C119     C        0.77828    0.19010    0.80516    1.000
    H75      H        0.79610    0.16680    0.83990    1.000
    C120     C        0.71431    0.17150    0.73843    1.000
    H76      H        0.68680    0.13340    0.72490    1.000
    C121     C        0.72884    0.26800    0.70652    1.000
    C122     C        0.70077    0.31910    0.65391    1.000
    C123     C        0.68061    0.43010    0.57834    1.000
    C124     C        0.67718    0.52140    0.53031    1.000
    C125     C        0.63788    0.58380    0.50558    1.000
    H77      H        0.61280    0.56140    0.51680    1.000
    C126     C        0.63584    0.67930    0.46414    1.000
    H78      H        0.60940    0.72160    0.44800    1.000
    C127     C        0.67302    0.71320    0.44624    1.000
    C128     C        0.71158    0.64270    0.46836    1.000
    H79      H        0.73610    0.65920    0.45500    1.000
    C129     C        0.71371    0.54750    0.51059    1.000
    H80      H        0.73970    0.50130    0.52560    1.000
    C130     C        0.67166    0.83520    0.40653    1.000
    O21      O        0.59846    0.88450    0.81508    1.000
    O22      O        0.64998    0.97980    0.77955    1.000
    O23      O        0.13784    0.40170    0.39579    1.000
    O24      O        0.20518    0.35520    0.39036    1.000
    Mn11     Mn       0.37997    0.89122    0.59710    1.000
    Mn12     Mn       0.28874    0.97292    0.65917    1.000
    Cl6      Cl       0.30649    0.78691    0.59889    1.000
    N51      N        0.35036    0.92650    0.50083    1.000
    N52      N        0.31573    0.03620    0.39412    1.000
    N53      N        0.43593    0.98940    0.56106    1.000
    N54      N        0.44487    0.11910    0.48941    1.000
    N55      N        0.48143    0.11840    0.53194    1.000
    H81      H        0.50490    0.16240    0.53190    1.000
    N56      N        0.26891    0.82210    0.72270    1.000
    N57      N        0.23892    0.63200    0.78820    1.000
    N58      N        0.21569    0.91060    0.62112    1.000
    N59      N        0.15941    0.78370    0.63461    1.000
    N60      N        0.14714    0.85520    0.58641    1.000
    H82      H        0.12140    0.85310    0.56400    1.000
    C131     C        0.30955    0.89840    0.47076    1.000
    H83      H        0.29230    0.84020    0.48560    1.000
    C132     C        0.29262    0.95360    0.41852    1.000
    H84      H        0.26400    0.93250    0.39960    1.000
    C133     C        0.35626    0.06360    0.42323    1.000
    H85      H        0.37350    0.12070    0.40780    1.000
    C134     C        0.37385    0.00880    0.47665    1.000
    C135     C        0.41865    0.03930    0.50875    1.000
    C136     C        0.47640    0.03990    0.57452    1.000
    C137     C        0.51119    0.01340    0.62514    1.000
    C138     C        0.55151    0.07870    0.63431    1.000
    H86      H        0.55650    0.14010    0.60810    1.000
    C139     C        0.58423    0.05250    0.68230    1.000
    H87      H        0.61100    0.09630    0.68770    1.000
    C140     C        0.57761    0.96210    0.72234    1.000
    C141     C        0.53800    0.89440    0.71171    1.000
    H88      H        0.53340    0.83060    0.73730    1.000
    C142     C        0.50501    0.91930    0.66384    1.000
    H89      H        0.47870    0.87260    0.65780    1.000
    C143     C        0.61141    0.94020    0.77648    1.000
    C144     C        0.29346    0.78390    0.77266    1.000
    H90      H        0.32120    0.82080    0.78590    1.000
    C145     C        0.27828    0.69010    0.80516    1.000
    H91      H        0.29610    0.66680    0.83990    1.000
    C146     C        0.21431    0.67150    0.73843    1.000
    H92      H        0.18680    0.63340    0.72490    1.000
    C147     C        0.22884    0.76800    0.70652    1.000
    C148     C        0.20077    0.81910    0.65391    1.000
    C149     C        0.18061    0.93010    0.57834    1.000
    C150     C        0.17718    0.02140    0.53031    1.000
    C151     C        0.13788    0.08380    0.50558    1.000
    H93      H        0.11280    0.06140    0.51680    1.000
    C152     C        0.13584    0.17930    0.46414    1.000
    H94      H        0.10940    0.22160    0.44800    1.000
    C153     C        0.17302    0.21320    0.44624    1.000
    C154     C        0.21158    0.14270    0.46836    1.000
    H95      H        0.23610    0.15920    0.45500    1.000
    C155     C        0.21371    0.04750    0.51059    1.000
    H96      H        0.23970    0.00130    0.52560    1.000
    C156     C        0.17166    0.33520    0.40653    1.000
    O25      O        0.90154    0.38450    0.68492    1.000
    O26      O        0.85002    0.47980    0.72045    1.000
    O27      O        0.36216    0.90170    0.10421    1.000
    O28      O        0.29482    0.85520    0.10964    1.000
    Mn13     Mn       0.12003    0.39122    0.90290    1.000
    Mn14     Mn       0.21126    0.47292    0.84083    1.000
    Cl7      Cl       0.19351    0.28691    0.90111    1.000
    N61      N        0.14964    0.42650    0.99917    1.000
    N62      N        0.18427    0.53620    0.10588    1.000
    N63      N        0.06407    0.48940    0.93894    1.000
    N64      N        0.05513    0.61910    0.01059    1.000
    N65      N        0.01857    0.61840    0.96806    1.000
    H97      H        0.99510    0.66240    0.96810    1.000
    N66      N        0.23109    0.32210    0.77730    1.000
    N67      N        0.26108    0.13200    0.71180    1.000
    N68      N        0.28431    0.41060    0.87888    1.000
    N69      N        0.34059    0.28370    0.86539    1.000
    N70      N        0.35286    0.35520    0.91359    1.000
    H98      H        0.37860    0.35310    0.93600    1.000
    C157     C        0.19045    0.39840    0.02924    1.000
    H99      H        0.20770    0.34020    0.01440    1.000
    C158     C        0.20738    0.45360    0.08148    1.000
    H100     H        0.23600    0.43250    0.10040    1.000
    C159     C        0.14374    0.56360    0.07677    1.000
    H101     H        0.12650    0.62070    0.09220    1.000
    C160     C        0.12615    0.50880    0.02335    1.000
    C161     C        0.08135    0.53930    0.99125    1.000
    C162     C        0.02360    0.53990    0.92548    1.000
    C163     C        0.98881    0.51340    0.87486    1.000
    C164     C        0.94849    0.57870    0.86569    1.000
    H102     H        0.94350    0.64010    0.89190    1.000
    C165     C        0.91577    0.55250    0.81770    1.000
    H103     H        0.88900    0.59630    0.81230    1.000
    C166     C        0.92239    0.46210    0.77766    1.000
    C167     C        0.96200    0.39440    0.78829    1.000
    H104     H        0.96660    0.33060    0.76270    1.000
    C168     C        0.99499    0.41930    0.83616    1.000
    H105     H        0.02130    0.37260    0.84220    1.000
    C169     C        0.88859    0.44020    0.72352    1.000
    C170     C        0.20654    0.28390    0.72734    1.000
    H106     H        0.17880    0.32080    0.71410    1.000
    C171     C        0.22172    0.19010    0.69484    1.000
    H107     H        0.20390    0.16680    0.66010    1.000
    C172     C        0.28569    0.17150    0.76157    1.000
    H108     H        0.31320    0.13340    0.77510    1.000
    C173     C        0.27116    0.26800    0.79348    1.000
    C174     C        0.29923    0.31910    0.84609    1.000
    C175     C        0.31939    0.43010    0.92166    1.000
    C176     C        0.32282    0.52140    0.96969    1.000
    C177     C        0.36212    0.58380    0.99442    1.000
    H109     H        0.38720    0.56140    0.98320    1.000
    C178     C        0.36416    0.67930    0.03586    1.000
    H110     H        0.39060    0.72160    0.05200    1.000
    C179     C        0.32698    0.71320    0.05376    1.000
    C180     C        0.28842    0.64270    0.03164    1.000
    H111     H        0.26390    0.65920    0.04500    1.000
    C181     C        0.28629    0.54750    0.98941    1.000
    H112     H        0.26030    0.50130    0.97440    1.000
    C182     C        0.32834    0.83520    0.09347    1.000
    O29      O        0.40154    0.88450    0.68492    1.000
    O30      O        0.35002    0.97980    0.72045    1.000
    O31      O        0.86216    0.40170    0.10421    1.000
    O32      O        0.79482    0.35520    0.10964    1.000
    Mn15     Mn       0.62003    0.89122    0.90290    1.000
    Mn16     Mn       0.71126    0.97292    0.84083    1.000
    Cl8      Cl       0.69351    0.78691    0.90111    1.000
    N71      N        0.64964    0.92650    0.99917    1.000
    N72      N        0.68427    0.03620    0.10588    1.000
    N73      N        0.56407    0.98940    0.93894    1.000
    N74      N        0.55513    0.11910    0.01059    1.000
    N75      N        0.51857    0.11840    0.96806    1.000
    H113     H        0.49510    0.16240    0.96810    1.000
    N76      N        0.73109    0.82210    0.77730    1.000
    N77      N        0.76108    0.63200    0.71180    1.000
    N78      N        0.78431    0.91060    0.87888    1.000
    N79      N        0.84059    0.78370    0.86539    1.000
    N80      N        0.85286    0.85520    0.91359    1.000
    H114     H        0.87860    0.85310    0.93600    1.000
    C183     C        0.69045    0.89840    0.02924    1.000
    H115     H        0.70770    0.84020    0.01440    1.000
    C184     C        0.70738    0.95360    0.08148    1.000
    H116     H        0.73600    0.93250    0.10040    1.000
    C185     C        0.64374    0.06360    0.07677    1.000
    H117     H        0.62650    0.12070    0.09220    1.000
    C186     C        0.62615    0.00880    0.02335    1.000
    C187     C        0.58135    0.03930    0.99125    1.000
    C188     C        0.52360    0.03990    0.92548    1.000
    C189     C        0.48881    0.01340    0.87486    1.000
    C190     C        0.44849    0.07870    0.86569    1.000
    H118     H        0.44350    0.14010    0.89190    1.000
    C191     C        0.41577    0.05250    0.81770    1.000
    H119     H        0.38900    0.09630    0.81230    1.000
    C192     C        0.42239    0.96210    0.77766    1.000
    C193     C        0.46200    0.89440    0.78829    1.000
    H120     H        0.46660    0.83060    0.76270    1.000
    C194     C        0.49499    0.91930    0.83616    1.000
    H121     H        0.52130    0.87260    0.84220    1.000
    C195     C        0.38859    0.94020    0.72352    1.000
    C196     C        0.70654    0.78390    0.72734    1.000
    H122     H        0.67880    0.82080    0.71410    1.000
    C197     C        0.72172    0.69010    0.69484    1.000
    H123     H        0.70390    0.66680    0.66010    1.000
    C198     C        0.78569    0.67150    0.76157    1.000
    H124     H        0.81320    0.63340    0.77510    1.000
    C199     C        0.77116    0.76800    0.79348    1.000
    C200     C        0.79923    0.81910    0.84609    1.000
    C201     C        0.81939    0.93010    0.92166    1.000
    C202     C        0.82282    0.02140    0.96969    1.000
    C203     C        0.86212    0.08380    0.99442    1.000
    H125     H        0.88720    0.06140    0.98320    1.000
    C204     C        0.86416    0.17930    0.03586    1.000
    H126     H        0.89060    0.22160    0.05200    1.000
    C205     C        0.82698    0.21320    0.05376    1.000
    C206     C        0.78842    0.14270    0.03164    1.000
    H127     H        0.76390    0.15920    0.04500    1.000
    C207     C        0.78629    0.04750    0.98941    1.000
    H128     H        0.76030    0.00130    0.97440    1.000
    C208     C        0.82834    0.33520    0.09347    1.000
