data_functionalizedCrystal
_audit_creation_method	'EQeq! by Chris Wilmer'
_symmetry_space_group_name_H-M	'P1'
_symmetry_Int_Tables_number	1
_symmetry_cell_setting	triclinic
loop_
_symmetry_equiv_pos_as_xyz
  x,y,z
_cell_length_a	10.098
_cell_length_b	12.156
_cell_length_c	17.119
_cell_angle_alpha	90
_cell_angle_beta	96.32
_cell_angle_gamma	90
loop_
_atom_site_label
_atom_site_type_symbol
_atom_site_fract_x
_atom_site_fract_y
_atom_site_fract_z
_atom_site_charge
Mof_Mn	Mn	0.7311	0.77455	0.2123	0.785
Mof_C 	C 	0.6526	0.0373	0.19286	0.176
Mof_C 	C 	0.8226	0.5131	0.25089	0.179
Mof_C 	C 	0.9625	0.3696	0.2791	0.183
Mof_C 	C 	0.7586	0.8386	0.40331	0.185
Mof_N 	N 	0.6736	0.9464	0.18471	-0.218
Mof_N 	N 	0.7915	0.6019	0.23928	-0.22
Mof_C 	C 	0.55	0.1858	0.23658	0.174
Mof_N 	N 	0.6373	0.1433	0.1952	-0.179
Mof_N 	N 	0.8434	0.4091	0.2642	-0.182
Mof_N 	N 	0.7571	0.8161	0.33947	-0.223
Mof_N 	N 	0.767	0.8757	0.47431	-0.185
Mof_N 	N 	0.0592	0.3241	0.2939	-0.221
Mof_N 	N 	0.4786	0.2311	0.2726	-0.214
Mof_C 	C 	0.7318	0.8166	0.53167	0.181
Mof_N 	N 	0.7053	0.7747	0.5867	-0.219
Mof_Mn	Mn	0.2689	0.27455	0.2877	0.784
Mof_C 	C 	0.3474	0.5373	0.30714	0.176
Mof_C 	C 	0.1774	0.0131	0.24911	0.179
Mof_C 	C 	0.0375	0.8696	0.2209	0.183
Mof_C 	C 	0.2414	0.3386	0.09669	0.184
Mof_N 	N 	0.3264	0.4464	0.31529	-0.219
Mof_N 	N 	0.2085	0.1019	0.26072	-0.22
Mof_C 	C 	0.45	0.6858	0.26342	0.175
Mof_N 	N 	0.3627	0.6433	0.3048	-0.18
Mof_N 	N 	0.1566	0.9091	0.2358	-0.182
Mof_N 	N 	0.2429	0.3161	0.16053	-0.223
Mof_N 	N 	0.233	0.3757	0.02569	-0.185
Mof_N 	N 	0.9408	0.8241	0.2061	-0.221
Mof_N 	N 	0.5214	0.7311	0.2274	-0.214
Mof_C 	C 	0.2682	0.3166	0.96833	0.181
Mof_N 	N 	0.2947	0.2747	0.9133	-0.219
Mof_Mn	Mn	0.2689	0.22545	0.7877	0.784
Mof_C 	C 	0.3474	0.9627	0.80714	0.175
Mof_C 	C 	0.1774	0.4869	0.74911	0.179
Mof_C 	C 	0.0375	0.6304	0.7209	0.183
Mof_C 	C 	0.2414	0.1614	0.59669	0.185
Mof_N 	N 	0.3264	0.0536	0.81529	-0.218
Mof_N 	N 	0.2085	0.3981	0.76072	-0.22
Mof_C 	C 	0.45	0.8142	0.76342	0.174
Mof_N 	N 	0.3627	0.8567	0.8048	-0.179
Mof_N 	N 	0.1566	0.5909	0.7358	-0.182
Mof_N 	N 	0.2429	0.1839	0.66053	-0.223
Mof_N 	N 	0.233	0.1243	0.52569	-0.185
Mof_N 	N 	0.9408	0.6759	0.7061	-0.221
Mof_N 	N 	0.5214	0.7689	0.7274	-0.214
Mof_C 	C 	0.2682	0.1834	0.46833	0.181
Mof_N 	N 	0.2947	0.2253	0.4133	-0.219
Mof_Mn	Mn	0.7311	0.72545	0.7123	0.784
Mof_C 	C 	0.6526	0.4627	0.69286	0.176
Mof_C 	C 	0.8226	0.9869	0.75089	0.179
Mof_C 	C 	0.9625	0.1304	0.7791	0.183
Mof_C 	C 	0.7586	0.6614	0.90331	0.184
Mof_N 	N 	0.6736	0.5536	0.68471	-0.219
Mof_N 	N 	0.7915	0.8981	0.73928	-0.22
Mof_C 	C 	0.55	0.3142	0.73658	0.175
Mof_N 	N 	0.6373	0.3567	0.6952	-0.18
Mof_N 	N 	0.8434	0.0909	0.7642	-0.182
Mof_N 	N 	0.7571	0.6839	0.83947	-0.223
Mof_N 	N 	0.767	0.6243	0.97431	-0.185
Mof_N 	N 	0.0592	0.1759	0.7939	-0.221
Mof_N 	N 	0.4786	0.2689	0.7726	-0.214
Mof_C 	C 	0.7318	0.6834	0.03167	0.181
Mof_N 	N 	0.7053	0.7253	0.0867	-0.219
_end
