data_functionalizedCrystal
_audit_creation_method	'EQeq! by Chris Wilmer'
_symmetry_space_group_name_H-M	'P1'
_symmetry_Int_Tables_number	1
_symmetry_cell_setting	triclinic
loop_
_symmetry_equiv_pos_as_xyz
  x,y,z
_cell_length_a	29.8727
_cell_length_b	7.6518
_cell_length_c	22.1924
_cell_angle_alpha	90
_cell_angle_beta	122.867
_cell_angle_gamma	90
loop_
_atom_site_label
_atom_site_type_symbol
_atom_site_fract_x
_atom_site_fract_y
_atom_site_fract_z
_atom_site_charge
Mof_U 	U 	0.5901	0.61287	0.23915	0.024
Mof_S 	S 	0.54982	0.51545	0.48184	0.119
Mof_S 	S 	0.76617	0.65947	0.53279	-0.494
Mof_O 	O 	0.57913	0.6428	0.33643	-0.176
Mof_O 	O 	0.50236	0.6416	0.32883	-0.168
Mof_O 	O 	0.64822	0.4492	0.68882	-0.176
Mof_O 	O 	0.56379	0.3892	0.61455	-0.185
Mof_C 	C 	0.55171	0.6284	0.36326	0.297
Mof_C 	C 	0.58104	0.5973	0.44192	-0.056
Mof_C 	C 	0.63396	0.6242	0.49113	-0.017
Mof_H 	H 	0.6577	0.6714	0.4793	0.07
Mof_C 	C 	0.64985	0.5751	0.56108	0
Mof_H 	H 	0.6853	0.5857	0.6016	0.062
Mof_C 	C 	0.60862	0.5105	0.564	-0.068
Mof_C 	C 	0.60759	0.4453	0.62605	0.292
Mof_O 	O 	0.67337	0.5287	0.33028	-0.045
Mof_O 	O 	0.7329	0.3677	0.42232	-0.126
Mof_O 	O 	0.82297	0.8734	0.66413	-0.111
Mof_O 	O 	0.78276	0.1269	0.61294	-0.047
Mof_C 	C 	0.7112	0.5059	0.3948	0.056
Mof_C 	C 	0.72878	0.6697	0.4398	0.096
Mof_C 	C 	0.71777	0.8409	0.41636	0.248
Mof_H 	H 	0.6981	0.8735	0.3672	-0.008
Mof_C 	C 	0.73881	0.9616	0.4731	0.293
Mof_H 	H 	0.7357	0.0848	0.4668	-0.025
Mof_C 	C 	0.76435	0.8807	0.5386	0.043
Mof_C 	C 	0.792	0.969	0.6094	0.107
Mof_U 	U 	0.0901	0.11287	0.23915	0.023
Mof_S 	S 	0.04982	0.01545	0.48184	0.118
Mof_S 	S 	0.26617	0.15947	0.53279	-0.496
Mof_O 	O 	0.07913	0.1428	0.33643	-0.177
Mof_O 	O 	0.00236	0.1416	0.32883	-0.168
Mof_O 	O 	0.14822	0.9492	0.68882	-0.176
Mof_O 	O 	0.06379	0.8892	0.61455	-0.185
Mof_C 	C 	0.05171	0.1284	0.36326	0.297
Mof_C 	C 	0.08104	0.0973	0.44192	-0.056
Mof_C 	C 	0.13396	0.1242	0.49113	-0.017
Mof_H 	H 	0.1577	0.1714	0.4793	0.07
Mof_C 	C 	0.14985	0.0751	0.56108	0
Mof_H 	H 	0.1853	0.0857	0.6016	0.062
Mof_C 	C 	0.10862	0.0105	0.564	-0.068
Mof_C 	C 	0.10759	0.9453	0.62605	0.292
Mof_O 	O 	0.17337	0.0287	0.33028	-0.045
Mof_O 	O 	0.2329	0.8677	0.42232	-0.127
Mof_O 	O 	0.32297	0.3734	0.66413	-0.111
Mof_O 	O 	0.28276	0.6269	0.61294	-0.049
Mof_C 	C 	0.2112	0.0059	0.3948	0.056
Mof_C 	C 	0.22878	0.1697	0.4398	0.096
Mof_C 	C 	0.21777	0.3409	0.41636	0.246
Mof_H 	H 	0.1981	0.3735	0.3672	-0.007
Mof_C 	C 	0.23881	0.4616	0.4731	0.294
Mof_H 	H 	0.2357	0.5848	0.4668	-0.026
Mof_C 	C 	0.26435	0.3807	0.5386	0.043
Mof_C 	C 	0.292	0.469	0.6094	0.107
Mof_U 	U 	0.4099	0.61287	0.26085	0.023
Mof_S 	S 	0.45018	0.51545	0.01816	0.118
Mof_S 	S 	0.23383	0.65947	0.96721	-0.495
Mof_O 	O 	0.42087	0.6428	0.16357	-0.177
Mof_O 	O 	0.49764	0.6416	0.17117	-0.168
Mof_O 	O 	0.35178	0.4492	0.81118	-0.176
Mof_O 	O 	0.43621	0.3892	0.88545	-0.185
Mof_C 	C 	0.44829	0.6284	0.13674	0.297
Mof_C 	C 	0.41896	0.5973	0.05808	-0.056
Mof_C 	C 	0.36604	0.6242	0.00887	-0.016
Mof_H 	H 	0.3423	0.6714	0.0207	0.07
Mof_C 	C 	0.35015	0.5751	0.93892	-0
Mof_H 	H 	0.3147	0.5857	0.8984	0.062
Mof_C 	C 	0.39138	0.5105	0.936	-0.068
Mof_C 	C 	0.39241	0.4453	0.87395	0.292
Mof_O 	O 	0.32663	0.5287	0.16972	-0.045
Mof_O 	O 	0.2671	0.3677	0.07768	-0.126
Mof_O 	O 	0.17703	0.8734	0.83587	-0.111
Mof_O 	O 	0.21724	0.1269	0.88706	-0.047
Mof_C 	C 	0.2888	0.5059	0.1052	0.056
Mof_C 	C 	0.27122	0.6697	0.0602	0.096
Mof_C 	C 	0.28223	0.8409	0.08364	0.248
Mof_H 	H 	0.3019	0.8735	0.1328	-0.008
Mof_C 	C 	0.26119	0.9616	0.0269	0.294
Mof_H 	H 	0.2643	0.0848	0.0332	-0.025
Mof_C 	C 	0.23565	0.8807	0.9614	0.043
Mof_C 	C 	0.208	0.969	0.8906	0.107
Mof_U 	U 	0.9099	0.11287	0.26085	0.023
Mof_S 	S 	0.95018	0.01545	0.01816	0.117
Mof_S 	S 	0.73383	0.15947	0.96721	-0.496
Mof_O 	O 	0.92087	0.1428	0.16357	-0.177
Mof_O 	O 	0.99764	0.1416	0.17117	-0.168
Mof_O 	O 	0.85178	0.9492	0.81118	-0.176
Mof_O 	O 	0.93621	0.8892	0.88545	-0.185
Mof_C 	C 	0.94829	0.1284	0.13674	0.297
Mof_C 	C 	0.91896	0.0973	0.05808	-0.055
Mof_C 	C 	0.86604	0.1242	0.00887	-0.017
Mof_H 	H 	0.8423	0.1714	0.0207	0.07
Mof_C 	C 	0.85015	0.0751	0.93892	0.001
Mof_H 	H 	0.8147	0.0857	0.8984	0.062
Mof_C 	C 	0.89138	0.0105	0.936	-0.067
Mof_C 	C 	0.89241	0.9453	0.87395	0.292
Mof_O 	O 	0.82663	0.0287	0.16972	-0.045
Mof_O 	O 	0.7671	0.8677	0.07768	-0.127
Mof_O 	O 	0.67703	0.3734	0.83587	-0.111
Mof_O 	O 	0.71724	0.6269	0.88706	-0.049
Mof_C 	C 	0.7888	0.0059	0.1052	0.056
Mof_C 	C 	0.77122	0.1697	0.0602	0.095
Mof_C 	C 	0.78223	0.3409	0.08364	0.247
Mof_H 	H 	0.8019	0.3735	0.1328	-0.007
Mof_C 	C 	0.76119	0.4616	0.0269	0.294
Mof_H 	H 	0.7643	0.5848	0.0332	-0.026
Mof_C 	C 	0.73565	0.3807	0.9614	0.043
Mof_C 	C 	0.708	0.469	0.8906	0.107
Mof_U 	U 	0.4099	0.38713	0.76085	0.023
Mof_S 	S 	0.45018	0.48455	0.51816	0.118
Mof_S 	S 	0.23383	0.34053	0.46721	-0.495
Mof_O 	O 	0.42087	0.3572	0.66357	-0.177
Mof_O 	O 	0.49764	0.3584	0.67117	-0.168
Mof_O 	O 	0.35178	0.5508	0.31118	-0.176
Mof_O 	O 	0.43621	0.6108	0.38545	-0.185
Mof_C 	C 	0.44829	0.3716	0.63674	0.297
Mof_C 	C 	0.41896	0.4027	0.55808	-0.056
Mof_C 	C 	0.36604	0.3758	0.50887	-0.017
Mof_H 	H 	0.3423	0.3286	0.5207	0.07
Mof_C 	C 	0.35015	0.4249	0.43892	0
Mof_H 	H 	0.3147	0.4143	0.3984	0.062
Mof_C 	C 	0.39138	0.4895	0.436	-0.068
Mof_C 	C 	0.39241	0.5547	0.37395	0.292
Mof_O 	O 	0.32663	0.4713	0.66972	-0.045
Mof_O 	O 	0.2671	0.6323	0.57768	-0.126
Mof_O 	O 	0.17703	0.1266	0.33587	-0.111
Mof_O 	O 	0.21724	0.8731	0.38706	-0.047
Mof_C 	C 	0.2888	0.4941	0.6052	0.056
Mof_C 	C 	0.27122	0.3303	0.5602	0.096
Mof_C 	C 	0.28223	0.1591	0.58364	0.248
Mof_H 	H 	0.3019	0.1265	0.6328	-0.008
Mof_C 	C 	0.26119	0.0384	0.5269	0.293
Mof_H 	H 	0.2643	0.9152	0.5332	-0.025
Mof_C 	C 	0.23565	0.1193	0.4614	0.043
Mof_C 	C 	0.208	0.031	0.3906	0.107
Mof_U 	U 	0.9099	0.88713	0.76085	0.023
Mof_S 	S 	0.95018	0.98455	0.51816	0.118
Mof_S 	S 	0.73383	0.84053	0.46721	-0.496
Mof_O 	O 	0.92087	0.8572	0.66357	-0.177
Mof_O 	O 	0.99764	0.8584	0.67117	-0.168
Mof_O 	O 	0.85178	0.0508	0.31118	-0.176
Mof_O 	O 	0.93621	0.1108	0.38545	-0.185
Mof_C 	C 	0.94829	0.8716	0.63674	0.297
Mof_C 	C 	0.91896	0.9027	0.55808	-0.056
Mof_C 	C 	0.86604	0.8758	0.50887	-0.017
Mof_H 	H 	0.8423	0.8286	0.5207	0.07
Mof_C 	C 	0.85015	0.9249	0.43892	0
Mof_H 	H 	0.8147	0.9143	0.3984	0.062
Mof_C 	C 	0.89138	0.9895	0.436	-0.068
Mof_C 	C 	0.89241	0.0547	0.37395	0.292
Mof_O 	O 	0.82663	0.9713	0.66972	-0.045
Mof_O 	O 	0.7671	0.1323	0.57768	-0.127
Mof_O 	O 	0.67703	0.6266	0.33587	-0.111
Mof_O 	O 	0.71724	0.3731	0.38706	-0.049
Mof_C 	C 	0.7888	0.9941	0.6052	0.056
Mof_C 	C 	0.77122	0.8303	0.5602	0.096
Mof_C 	C 	0.78223	0.6591	0.58364	0.246
Mof_H 	H 	0.8019	0.6265	0.6328	-0.007
Mof_C 	C 	0.76119	0.5384	0.5269	0.294
Mof_H 	H 	0.7643	0.4152	0.5332	-0.026
Mof_C 	C 	0.73565	0.6193	0.4614	0.043
Mof_C 	C 	0.708	0.531	0.3906	0.107
Mof_U 	U 	0.5901	0.38713	0.73915	0.023
Mof_S 	S 	0.54982	0.48455	0.98184	0.118
Mof_S 	S 	0.76617	0.34053	0.03279	-0.495
Mof_O 	O 	0.57913	0.3572	0.83643	-0.177
Mof_O 	O 	0.50236	0.3584	0.82883	-0.168
Mof_O 	O 	0.64822	0.5508	0.18882	-0.176
Mof_O 	O 	0.56379	0.6108	0.11455	-0.185
Mof_C 	C 	0.55171	0.3716	0.86326	0.297
Mof_C 	C 	0.58104	0.4027	0.94192	-0.056
Mof_C 	C 	0.63396	0.3758	0.99113	-0.016
Mof_H 	H 	0.6577	0.3286	0.9793	0.07
Mof_C 	C 	0.64985	0.4249	0.06108	-0
Mof_H 	H 	0.6853	0.4143	0.1016	0.062
Mof_C 	C 	0.60862	0.4895	0.064	-0.068
Mof_C 	C 	0.60759	0.5547	0.12605	0.292
Mof_O 	O 	0.67337	0.4713	0.83028	-0.045
Mof_O 	O 	0.7329	0.6323	0.92232	-0.126
Mof_O 	O 	0.82297	0.1266	0.16413	-0.111
Mof_O 	O 	0.78276	0.8731	0.11294	-0.047
Mof_C 	C 	0.7112	0.4941	0.8948	0.056
Mof_C 	C 	0.72878	0.3303	0.9398	0.096
Mof_C 	C 	0.71777	0.1591	0.91636	0.248
Mof_H 	H 	0.6981	0.1265	0.8672	-0.008
Mof_C 	C 	0.73881	0.0384	0.9731	0.294
Mof_H 	H 	0.7357	0.9152	0.9668	-0.025
Mof_C 	C 	0.76435	0.1193	0.0386	0.043
Mof_C 	C 	0.792	0.031	0.1094	0.107
Mof_U 	U 	0.0901	0.88713	0.73915	0.023
Mof_S 	S 	0.04982	0.98455	0.98184	0.117
Mof_S 	S 	0.26617	0.84053	0.03279	-0.496
Mof_O 	O 	0.07913	0.8572	0.83643	-0.177
Mof_O 	O 	0.00236	0.8584	0.82883	-0.168
Mof_O 	O 	0.14822	0.0508	0.18882	-0.176
Mof_O 	O 	0.06379	0.1108	0.11455	-0.185
Mof_C 	C 	0.05171	0.8716	0.86326	0.297
Mof_C 	C 	0.08104	0.9027	0.94192	-0.055
Mof_C 	C 	0.13396	0.8758	0.99113	-0.017
Mof_H 	H 	0.1577	0.8286	0.9793	0.07
Mof_C 	C 	0.14985	0.9249	0.06108	0.001
Mof_H 	H 	0.1853	0.9143	0.1016	0.062
Mof_C 	C 	0.10862	0.9895	0.064	-0.067
Mof_C 	C 	0.10759	0.0547	0.12605	0.292
Mof_O 	O 	0.17337	0.9713	0.83028	-0.045
Mof_O 	O 	0.2329	0.1323	0.92232	-0.127
Mof_O 	O 	0.32297	0.6266	0.16413	-0.111
Mof_O 	O 	0.28276	0.3731	0.11294	-0.049
Mof_C 	C 	0.2112	0.9941	0.8948	0.056
Mof_C 	C 	0.22878	0.8303	0.9398	0.095
Mof_C 	C 	0.21777	0.6591	0.91636	0.247
Mof_H 	H 	0.1981	0.6265	0.8672	-0.007
Mof_C 	C 	0.23881	0.5384	0.9731	0.294
Mof_H 	H 	0.2357	0.4152	0.9668	-0.026
Mof_C 	C 	0.26435	0.6193	0.0386	0.043
Mof_C 	C 	0.292	0.531	0.1094	0.107
_end
