data_functionalizedCrystal
_audit_creation_method	'EQeq! by Chris Wilmer'
_symmetry_space_group_name_H-M	'P1'
_symmetry_Int_Tables_number	1
_symmetry_cell_setting	triclinic
loop_
_symmetry_equiv_pos_as_xyz
  x,y,z
_cell_length_a	18.5085
_cell_length_b	18.5085
_cell_length_c	22.9306
_cell_angle_alpha	90
_cell_angle_beta	90
_cell_angle_gamma	120
loop_
_atom_site_label
_atom_site_type_symbol
_atom_site_fract_x
_atom_site_fract_y
_atom_site_fract_z
_atom_site_charge
Mof_O 	O 	0.4816	0.1097	0.993	-0.407
Mof_O 	O 	0.4395	0.0297	0.07368	-0.401
Mof_C 	C 	0.4494	0.0914	0.0432	0.372
Mof_C 	C 	0.4192	0.1443	0.0697	-0.129
Mof_C 	C 	0.3694	0.1216	0.1184	0.089
Mof_H 	H 	0.3532	0.0701	0.1354	0.025
Mof_H 	H 	0.0524	0.0211	0.1123	0.088
Mof_H 	H 	0.0683	0.9946	0.1738	0.073
Mof_H 	H 	0.0665	0.0779	0.1667	0.08
Mof_O 	O 	0.8903	0.3719	0.993	-0.409
Mof_O 	O 	0.9703	0.4098	0.07368	-0.402
Mof_C 	C 	0.9086	0.358	0.0432	0.373
Mof_C 	C 	0.8557	0.2749	0.0697	-0.129
Mof_C 	C 	0.8784	0.2478	0.1184	0.089
Mof_H 	H 	0.9299	0.2831	0.1354	0.025
Mof_H 	H 	0.9789	0.0313	0.1123	0.089
Mof_H 	H 	0.0054	0.0737	0.1738	0.073
Mof_H 	H 	0.9221	0.9886	0.1667	0.079
Mof_O 	O 	0.6281	0.5184	0.993	-0.407
Mof_O 	O 	0.5902	0.5605	0.07368	-0.403
Mof_C 	C 	0.642	0.5506	0.0432	0.371
Mof_C 	C 	0.7251	0.5808	0.0697	-0.129
Mof_C 	C 	0.7522	0.6306	0.1184	0.089
Mof_H 	H 	0.7169	0.6468	0.1354	0.025
Mof_H 	H 	0.9687	0.9476	0.1123	0.088
Mof_H 	H 	0.9263	0.9317	0.1738	0.073
Mof_H 	H 	0.0114	0.9335	0.1667	0.079
Mof_O 	O 	0.5184	0.8903	0.493	-0.406
Mof_O 	O 	0.5605	0.9703	0.57368	-0.402
Mof_C 	C 	0.5506	0.9086	0.5432	0.37
Mof_C 	C 	0.5808	0.8557	0.5697	-0.128
Mof_C 	C 	0.6306	0.8784	0.6184	0.088
Mof_H 	H 	0.6468	0.9299	0.6354	0.025
Mof_H 	H 	0.9476	0.9789	0.6123	0.088
Mof_H 	H 	0.9317	0.0054	0.6738	0.073
Mof_H 	H 	0.9335	0.9221	0.6667	0.08
Mof_O 	O 	0.1097	0.6281	0.493	-0.406
Mof_O 	O 	0.0297	0.5902	0.57368	-0.402
Mof_C 	C 	0.0914	0.642	0.5432	0.37
Mof_C 	C 	0.1443	0.7251	0.5697	-0.128
Mof_C 	C 	0.1216	0.7522	0.6184	0.088
Mof_H 	H 	0.0701	0.7169	0.6354	0.025
Mof_H 	H 	0.0211	0.9687	0.6123	0.088
Mof_H 	H 	0.9946	0.9263	0.6738	0.073
Mof_H 	H 	0.0779	0.0114	0.6667	0.08
Mof_O 	O 	0.3719	0.4816	0.493	-0.406
Mof_O 	O 	0.4098	0.4395	0.57368	-0.402
Mof_C 	C 	0.358	0.4494	0.5432	0.37
Mof_C 	C 	0.2749	0.4192	0.5697	-0.128
Mof_C 	C 	0.2478	0.3694	0.6184	0.088
Mof_H 	H 	0.2831	0.3532	0.6354	0.025
Mof_H 	H 	0.0313	0.0524	0.6123	0.088
Mof_H 	H 	0.0737	0.0683	0.6738	0.073
Mof_H 	H 	0.9886	0.0665	0.6667	0.08
Mof_O 	O 	0.1097	0.4816	0.007	-0.408
Mof_O 	O 	0.0297	0.4395	0.92632	-0.402
Mof_C 	C 	0.0914	0.4494	0.9568	0.372
Mof_C 	C 	0.1443	0.4192	0.9303	-0.129
Mof_C 	C 	0.1216	0.3694	0.8816	0.089
Mof_H 	H 	0.0701	0.3532	0.8646	0.025
Mof_H 	H 	0.0211	0.0524	0.8877	0.088
Mof_H 	H 	0.9946	0.0683	0.8262	0.073
Mof_H 	H 	0.0779	0.0665	0.8333	0.08
Mof_O 	O 	0.3719	0.8903	0.007	-0.409
Mof_O 	O 	0.4098	0.9703	0.92632	-0.402
Mof_C 	C 	0.358	0.9086	0.9568	0.373
Mof_C 	C 	0.2749	0.8557	0.9303	-0.129
Mof_C 	C 	0.2478	0.8784	0.8816	0.089
Mof_H 	H 	0.2831	0.9299	0.8646	0.025
Mof_H 	H 	0.0313	0.9789	0.8877	0.089
Mof_H 	H 	0.0737	0.0054	0.8262	0.073
Mof_H 	H 	0.9886	0.9221	0.8333	0.079
Mof_O 	O 	0.5184	0.6281	0.007	-0.407
Mof_O 	O 	0.5605	0.5902	0.92632	-0.403
Mof_C 	C 	0.5506	0.642	0.9568	0.371
Mof_C 	C 	0.5808	0.7251	0.9303	-0.129
Mof_C 	C 	0.6306	0.7522	0.8816	0.089
Mof_H 	H 	0.6468	0.7169	0.8646	0.025
Mof_H 	H 	0.9476	0.9687	0.8877	0.088
Mof_H 	H 	0.9317	0.9263	0.8262	0.073
Mof_H 	H 	0.9335	0.0114	0.8333	0.079
Mof_O 	O 	0.8903	0.5184	0.507	-0.406
Mof_O 	O 	0.9703	0.5605	0.42632	-0.402
Mof_C 	C 	0.9086	0.5506	0.4568	0.37
Mof_C 	C 	0.8557	0.5808	0.4303	-0.128
Mof_C 	C 	0.8784	0.6306	0.3816	0.088
Mof_H 	H 	0.9299	0.6468	0.3646	0.025
Mof_H 	H 	0.9789	0.9476	0.3877	0.088
Mof_H 	H 	0.0054	0.9317	0.3262	0.073
Mof_H 	H 	0.9221	0.9335	0.3333	0.08
Mof_O 	O 	0.6281	0.1097	0.507	-0.406
Mof_O 	O 	0.5902	0.0297	0.42632	-0.402
Mof_C 	C 	0.642	0.0914	0.4568	0.37
Mof_C 	C 	0.7251	0.1443	0.4303	-0.128
Mof_C 	C 	0.7522	0.1216	0.3816	0.088
Mof_H 	H 	0.7169	0.0701	0.3646	0.025
Mof_H 	H 	0.9687	0.0211	0.3877	0.088
Mof_H 	H 	0.9263	0.9946	0.3262	0.073
Mof_H 	H 	0.0114	0.0779	0.3333	0.08
Mof_O 	O 	0.4816	0.3719	0.507	-0.406
Mof_O 	O 	0.4395	0.4098	0.42632	-0.402
Mof_C 	C 	0.4494	0.358	0.4568	0.37
Mof_C 	C 	0.4192	0.2749	0.4303	-0.128
Mof_C 	C 	0.3694	0.2478	0.3816	0.088
Mof_H 	H 	0.3532	0.2831	0.3646	0.025
Mof_H 	H 	0.0524	0.0313	0.3877	0.088
Mof_H 	H 	0.0683	0.0737	0.3262	0.073
Mof_H 	H 	0.0665	0.9886	0.3333	0.08
Mof_O 	O 	0.5184	0.8903	0.007	-0.408
Mof_O 	O 	0.5605	0.9703	0.92632	-0.402
Mof_C 	C 	0.5506	0.9086	0.9568	0.372
Mof_C 	C 	0.5808	0.8557	0.9303	-0.129
Mof_C 	C 	0.6306	0.8784	0.8816	0.089
Mof_H 	H 	0.6468	0.9299	0.8646	0.025
Mof_H 	H 	0.9476	0.9789	0.8877	0.088
Mof_H 	H 	0.9317	0.0054	0.8262	0.073
Mof_H 	H 	0.9335	0.9221	0.8333	0.08
Mof_O 	O 	0.1097	0.6281	0.007	-0.409
Mof_O 	O 	0.0297	0.5902	0.92632	-0.402
Mof_C 	C 	0.0914	0.642	0.9568	0.373
Mof_C 	C 	0.1443	0.7251	0.9303	-0.129
Mof_C 	C 	0.1216	0.7522	0.8816	0.089
Mof_H 	H 	0.0701	0.7169	0.8646	0.025
Mof_H 	H 	0.0211	0.9687	0.8877	0.089
Mof_H 	H 	0.9946	0.9263	0.8262	0.073
Mof_H 	H 	0.0779	0.0114	0.8333	0.079
Mof_O 	O 	0.3719	0.4816	0.007	-0.407
Mof_O 	O 	0.4098	0.4395	0.92632	-0.403
Mof_C 	C 	0.358	0.4494	0.9568	0.371
Mof_C 	C 	0.2749	0.4192	0.9303	-0.129
Mof_C 	C 	0.2478	0.3694	0.8816	0.089
Mof_H 	H 	0.2831	0.3532	0.8646	0.025
Mof_H 	H 	0.0313	0.0524	0.8877	0.088
Mof_H 	H 	0.0737	0.0683	0.8262	0.073
Mof_H 	H 	0.9886	0.0665	0.8333	0.079
Mof_O 	O 	0.4816	0.1097	0.507	-0.406
Mof_O 	O 	0.4395	0.0297	0.42632	-0.402
Mof_C 	C 	0.4494	0.0914	0.4568	0.37
Mof_C 	C 	0.4192	0.1443	0.4303	-0.128
Mof_C 	C 	0.3694	0.1216	0.3816	0.088
Mof_H 	H 	0.3532	0.0701	0.3646	0.025
Mof_H 	H 	0.0524	0.0211	0.3877	0.088
Mof_H 	H 	0.0683	0.9946	0.3262	0.073
Mof_H 	H 	0.0665	0.0779	0.3333	0.08
Mof_O 	O 	0.8903	0.3719	0.507	-0.406
Mof_O 	O 	0.9703	0.4098	0.42632	-0.402
Mof_C 	C 	0.9086	0.358	0.4568	0.37
Mof_C 	C 	0.8557	0.2749	0.4303	-0.128
Mof_C 	C 	0.8784	0.2478	0.3816	0.088
Mof_H 	H 	0.9299	0.2831	0.3646	0.025
Mof_H 	H 	0.9789	0.0313	0.3877	0.088
Mof_H 	H 	0.0054	0.0737	0.3262	0.073
Mof_H 	H 	0.9221	0.9886	0.3333	0.08
Mof_O 	O 	0.6281	0.5184	0.507	-0.406
Mof_O 	O 	0.5902	0.5605	0.42632	-0.402
Mof_C 	C 	0.642	0.5506	0.4568	0.37
Mof_C 	C 	0.7251	0.5808	0.4303	-0.128
Mof_C 	C 	0.7522	0.6306	0.3816	0.088
Mof_H 	H 	0.7169	0.6468	0.3646	0.025
Mof_H 	H 	0.9687	0.9476	0.3877	0.088
Mof_H 	H 	0.9263	0.9317	0.3262	0.073
Mof_H 	H 	0.0114	0.9335	0.3333	0.08
Mof_O 	O 	0.8903	0.5184	0.993	-0.408
Mof_O 	O 	0.9703	0.5605	0.07368	-0.402
Mof_C 	C 	0.9086	0.5506	0.0432	0.372
Mof_C 	C 	0.8557	0.5808	0.0697	-0.129
Mof_C 	C 	0.8784	0.6306	0.1184	0.089
Mof_H 	H 	0.9299	0.6468	0.1354	0.025
Mof_H 	H 	0.9789	0.9476	0.1123	0.088
Mof_H 	H 	0.0054	0.9317	0.1738	0.073
Mof_H 	H 	0.9221	0.9335	0.1667	0.08
Mof_O 	O 	0.6281	0.1097	0.993	-0.409
Mof_O 	O 	0.5902	0.0297	0.07368	-0.402
Mof_C 	C 	0.642	0.0914	0.0432	0.373
Mof_C 	C 	0.7251	0.1443	0.0697	-0.129
Mof_C 	C 	0.7522	0.1216	0.1184	0.089
Mof_H 	H 	0.7169	0.0701	0.1354	0.025
Mof_H 	H 	0.9687	0.0211	0.1123	0.089
Mof_H 	H 	0.9263	0.9946	0.1738	0.073
Mof_H 	H 	0.0114	0.0779	0.1667	0.079
Mof_O 	O 	0.4816	0.3719	0.993	-0.407
Mof_O 	O 	0.4395	0.4098	0.07368	-0.403
Mof_C 	C 	0.4494	0.358	0.0432	0.371
Mof_C 	C 	0.4192	0.2749	0.0697	-0.129
Mof_C 	C 	0.3694	0.2478	0.1184	0.089
Mof_H 	H 	0.3532	0.2831	0.1354	0.025
Mof_H 	H 	0.0524	0.0313	0.1123	0.088
Mof_H 	H 	0.0683	0.0737	0.1738	0.073
Mof_H 	H 	0.0665	0.9886	0.1667	0.079
Mof_O 	O 	0.1097	0.4816	0.493	-0.406
Mof_O 	O 	0.0297	0.4395	0.57368	-0.402
Mof_C 	C 	0.0914	0.4494	0.5432	0.37
Mof_C 	C 	0.1443	0.4192	0.5697	-0.128
Mof_C 	C 	0.1216	0.3694	0.6184	0.088
Mof_H 	H 	0.0701	0.3532	0.6354	0.025
Mof_H 	H 	0.0211	0.0524	0.6123	0.088
Mof_H 	H 	0.9946	0.0683	0.6738	0.073
Mof_H 	H 	0.0779	0.0665	0.6667	0.08
Mof_O 	O 	0.3719	0.8903	0.493	-0.406
Mof_O 	O 	0.4098	0.9703	0.57368	-0.402
Mof_C 	C 	0.358	0.9086	0.5432	0.37
Mof_C 	C 	0.2749	0.8557	0.5697	-0.128
Mof_C 	C 	0.2478	0.8784	0.6184	0.088
Mof_H 	H 	0.2831	0.9299	0.6354	0.025
Mof_H 	H 	0.0313	0.9789	0.6123	0.088
Mof_H 	H 	0.0737	0.0054	0.6738	0.073
Mof_H 	H 	0.9886	0.9221	0.6667	0.08
Mof_O 	O 	0.5184	0.6281	0.493	-0.406
Mof_O 	O 	0.5605	0.5902	0.57368	-0.402
Mof_C 	C 	0.5506	0.642	0.5432	0.37
Mof_C 	C 	0.5808	0.7251	0.5697	-0.128
Mof_C 	C 	0.6306	0.7522	0.6184	0.088
Mof_H 	H 	0.6468	0.7169	0.6354	0.025
Mof_H 	H 	0.9476	0.9687	0.6123	0.088
Mof_H 	H 	0.9317	0.9263	0.6738	0.073
Mof_H 	H 	0.9335	0.0114	0.6667	0.08
Mof_Cu	Cu	0.5235	0.047	0.95179	0.911
Mof_Cu	Cu	0.953	0.4765	0.95179	0.911
Mof_Cu	Cu	0.5235	0.4765	0.95179	0.911
Mof_Cu	Cu	0.4765	0.953	0.45179	0.911
Mof_Cu	Cu	0.047	0.5235	0.45179	0.911
Mof_Cu	Cu	0.4765	0.5235	0.45179	0.911
Mof_Cu	Cu	0.047	0.5235	0.04821	0.911
Mof_Cu	Cu	0.4765	0.953	0.04821	0.911
Mof_Cu	Cu	0.4765	0.5235	0.04821	0.911
Mof_Cu	Cu	0.953	0.4765	0.54821	0.911
Mof_Cu	Cu	0.5235	0.047	0.54821	0.911
Mof_Cu	Cu	0.5235	0.4765	0.54821	0.911
Mof_C 	C 	0.4432	0.2216	0.0428	0.07
Mof_H 	H 	0.4739	0.23695	0.0084	0.041
Mof_C 	C 	0.3425	0.17125	0.143	-0.151
Mof_C 	C 	0.294	0.147	0.1987	0.348
Mof_C 	C 	0.2057	0.10285	0.1965	-0.507
Mof_O 	O 	0.1857	0.09285	0.0869	-0.111
Mof_O 	O 	0.082	0.041	0.1484	-0.473
Mof_C 	C 	0.1593	0.07965	0.1386	-0.105
Mof_H 	H 	0.1766	0.0883	0.1614	0.369
Mof_C 	C 	0.7784	0.2216	0.0428	0.07
Mof_H 	H 	0.76305	0.23695	0.0084	0.042
Mof_C 	C 	0.82875	0.17125	0.143	-0.151
Mof_C 	C 	0.853	0.147	0.1987	0.347
Mof_C 	C 	0.89715	0.10285	0.1965	-0.506
Mof_O 	O 	0.90715	0.09285	0.0869	-0.11
Mof_O 	O 	0.959	0.041	0.1484	-0.472
Mof_C 	C 	0.92035	0.07965	0.1386	-0.105
Mof_H 	H 	0.9117	0.0883	0.1614	0.369
Mof_C 	C 	0.7784	0.5568	0.0428	0.07
Mof_H 	H 	0.76305	0.5261	0.0084	0.041
Mof_C 	C 	0.82875	0.6575	0.143	-0.151
Mof_C 	C 	0.853	0.706	0.1987	0.348
Mof_C 	C 	0.89715	0.7943	0.1965	-0.507
Mof_O 	O 	0.90715	0.8143	0.0869	-0.111
Mof_O 	O 	0.959	0.918	0.1484	-0.473
Mof_C 	C 	0.92035	0.8407	0.1386	-0.105
Mof_H 	H 	0.9117	0.8234	0.1614	0.369
Mof_C 	C 	0.5568	0.7784	0.5428	0.069
Mof_H 	H 	0.5261	0.76305	0.5084	0.041
Mof_C 	C 	0.6575	0.82875	0.643	-0.15
Mof_C 	C 	0.706	0.853	0.6987	0.348
Mof_C 	C 	0.7943	0.89715	0.6965	-0.508
Mof_O 	O 	0.8143	0.90715	0.5869	-0.111
Mof_O 	O 	0.918	0.959	0.6484	-0.474
Mof_C 	C 	0.8407	0.92035	0.6386	-0.105
Mof_H 	H 	0.8234	0.9117	0.6614	0.37
Mof_C 	C 	0.2216	0.7784	0.5428	0.069
Mof_H 	H 	0.23695	0.76305	0.5084	0.041
Mof_C 	C 	0.17125	0.82875	0.643	-0.15
Mof_C 	C 	0.147	0.853	0.6987	0.347
Mof_C 	C 	0.10285	0.89715	0.6965	-0.507
Mof_O 	O 	0.09285	0.90715	0.5869	-0.111
Mof_O 	O 	0.041	0.959	0.6484	-0.473
Mof_C 	C 	0.07965	0.92035	0.6386	-0.105
Mof_H 	H 	0.0883	0.9117	0.6614	0.37
Mof_C 	C 	0.2216	0.4432	0.5428	0.069
Mof_H 	H 	0.23695	0.4739	0.5084	0.041
Mof_C 	C 	0.17125	0.3425	0.643	-0.15
Mof_C 	C 	0.147	0.294	0.6987	0.348
Mof_C 	C 	0.10285	0.2057	0.6965	-0.508
Mof_O 	O 	0.09285	0.1857	0.5869	-0.111
Mof_O 	O 	0.041	0.082	0.6484	-0.474
Mof_C 	C 	0.07965	0.1593	0.6386	-0.105
Mof_H 	H 	0.0883	0.1766	0.6614	0.37
Mof_C 	C 	0.2216	0.4432	0.9572	0.07
Mof_H 	H 	0.23695	0.4739	0.9916	0.041
Mof_C 	C 	0.17125	0.3425	0.857	-0.151
Mof_C 	C 	0.147	0.294	0.8013	0.348
Mof_C 	C 	0.10285	0.2057	0.8035	-0.507
Mof_O 	O 	0.09285	0.1857	0.9131	-0.111
Mof_O 	O 	0.041	0.082	0.8516	-0.473
Mof_C 	C 	0.07965	0.1593	0.8614	-0.105
Mof_H 	H 	0.0883	0.1766	0.8386	0.369
Mof_C 	C 	0.2216	0.7784	0.9572	0.07
Mof_H 	H 	0.23695	0.76305	0.9916	0.042
Mof_C 	C 	0.17125	0.82875	0.857	-0.151
Mof_C 	C 	0.147	0.853	0.8013	0.347
Mof_C 	C 	0.10285	0.89715	0.8035	-0.506
Mof_O 	O 	0.09285	0.90715	0.9131	-0.11
Mof_O 	O 	0.041	0.959	0.8516	-0.472
Mof_C 	C 	0.07965	0.92035	0.8614	-0.105
Mof_H 	H 	0.0883	0.9117	0.8386	0.369
Mof_C 	C 	0.5568	0.7784	0.9572	0.07
Mof_H 	H 	0.5261	0.76305	0.9916	0.041
Mof_C 	C 	0.6575	0.82875	0.857	-0.151
Mof_C 	C 	0.706	0.853	0.8013	0.348
Mof_C 	C 	0.7943	0.89715	0.8035	-0.507
Mof_O 	O 	0.8143	0.90715	0.9131	-0.111
Mof_O 	O 	0.918	0.959	0.8516	-0.473
Mof_C 	C 	0.8407	0.92035	0.8614	-0.105
Mof_H 	H 	0.8234	0.9117	0.8386	0.369
Mof_C 	C 	0.7784	0.5568	0.4572	0.069
Mof_H 	H 	0.76305	0.5261	0.4916	0.041
Mof_C 	C 	0.82875	0.6575	0.357	-0.15
Mof_C 	C 	0.853	0.706	0.3013	0.348
Mof_C 	C 	0.89715	0.7943	0.3035	-0.508
Mof_O 	O 	0.90715	0.8143	0.4131	-0.111
Mof_O 	O 	0.959	0.918	0.3516	-0.474
Mof_C 	C 	0.92035	0.8407	0.3614	-0.105
Mof_H 	H 	0.9117	0.8234	0.3386	0.37
Mof_C 	C 	0.7784	0.2216	0.4572	0.069
Mof_H 	H 	0.76305	0.23695	0.4916	0.041
Mof_C 	C 	0.82875	0.17125	0.357	-0.15
Mof_C 	C 	0.853	0.147	0.3013	0.347
Mof_C 	C 	0.89715	0.10285	0.3035	-0.507
Mof_O 	O 	0.90715	0.09285	0.4131	-0.111
Mof_O 	O 	0.959	0.041	0.3516	-0.473
Mof_C 	C 	0.92035	0.07965	0.3614	-0.105
Mof_H 	H 	0.9117	0.0883	0.3386	0.37
Mof_C 	C 	0.4432	0.2216	0.4572	0.069
Mof_H 	H 	0.4739	0.23695	0.4916	0.041
Mof_C 	C 	0.3425	0.17125	0.357	-0.15
Mof_C 	C 	0.294	0.147	0.3013	0.348
Mof_C 	C 	0.2057	0.10285	0.3035	-0.508
Mof_O 	O 	0.1857	0.09285	0.4131	-0.111
Mof_O 	O 	0.082	0.041	0.3516	-0.474
Mof_C 	C 	0.1593	0.07965	0.3614	-0.105
Mof_H 	H 	0.1766	0.0883	0.3386	0.37
Mof_C 	C 	0.3348	0.1674	0.25	-0.423
Mof_H 	H 	0.3928	0.1964	0.25	0.185
Mof_C 	C 	0.1656	0.0828	0.25	0.424
Mof_H 	H 	0.1075	0.05375	0.25	-0.122
Mof_C 	C 	0.8326	0.1674	0.25	-0.422
Mof_H 	H 	0.8036	0.1964	0.25	0.185
Mof_C 	C 	0.9172	0.0828	0.25	0.424
Mof_H 	H 	0.94625	0.05375	0.25	-0.121
Mof_C 	C 	0.8326	0.6652	0.25	-0.423
Mof_H 	H 	0.8036	0.6072	0.25	0.185
Mof_C 	C 	0.9172	0.8344	0.25	0.424
Mof_H 	H 	0.94625	0.8925	0.25	-0.122
Mof_C 	C 	0.6652	0.8326	0.75	-0.423
Mof_H 	H 	0.6072	0.8036	0.75	0.185
Mof_C 	C 	0.8344	0.9172	0.75	0.424
Mof_H 	H 	0.8925	0.94625	0.75	-0.122
Mof_C 	C 	0.1674	0.8326	0.75	-0.422
Mof_H 	H 	0.1964	0.8036	0.75	0.185
Mof_C 	C 	0.0828	0.9172	0.75	0.424
Mof_H 	H 	0.05375	0.94625	0.75	-0.121
Mof_C 	C 	0.1674	0.3348	0.75	-0.423
Mof_H 	H 	0.1964	0.3928	0.75	0.185
Mof_C 	C 	0.0828	0.1656	0.75	0.424
Mof_H 	H 	0.05375	0.1075	0.75	-0.122
_end
