data_functionalizedCrystal
_audit_creation_method	'EQeq! by Chris Wilmer'
_symmetry_space_group_name_H-M	'P1'
_symmetry_Int_Tables_number	1
_symmetry_cell_setting	triclinic
loop_
_symmetry_equiv_pos_as_xyz
  x,y,z
_cell_length_a	14.829
_cell_length_b	16.1465
_cell_length_c	19.282
_cell_angle_alpha	90
_cell_angle_beta	91.27
_cell_angle_gamma	90
loop_
_atom_site_label
_atom_site_type_symbol
_atom_site_fract_x
_atom_site_fract_y
_atom_site_fract_z
_atom_site_charge
Mof_Cd	Cd	0.77057	0.37456	0.43507	0.352
Mof_Cd	Cd	0.72907	0.63149	0.93937	0.354
Mof_Cd	Cd	0.22943	0.87456	0.06493	0.352
Mof_Cd	Cd	0.27093	0.13149	0.56063	0.354
Mof_Cd	Cd	0.22943	0.62544	0.56493	0.351
Mof_Cd	Cd	0.27093	0.36851	0.06063	0.353
Mof_Cd	Cd	0.77057	0.12544	0.93507	0.351
Mof_Cd	Cd	0.72907	0.86851	0.43937	0.353
Mof_Hg	Hg	0.63073	0.62228	0.65365	0.138
Mof_Hg	Hg	0.87973	0.37879	0.15394	0.137
Mof_Hg	Hg	0.36927	0.12228	0.84635	0.138
Mof_Hg	Hg	0.12027	0.87879	0.34606	0.137
Mof_Hg	Hg	0.36927	0.37772	0.34635	0.138
Mof_Hg	Hg	0.12027	0.62121	0.84606	0.137
Mof_Hg	Hg	0.63073	0.87772	0.15365	0.138
Mof_Hg	Hg	0.87973	0.12121	0.65394	0.137
Mof_C 	C 	0.7627	0.2737	0.5907	0.087
Mof_C 	C 	0.6403	0.5282	0.509	0.091
Mof_C 	C 	0.4227	0.675	0.6595	0.09
Mof_C 	C 	0.7989	0.4721	0.2789	0.085
Mof_C 	C 	0.6896	0.5239	0.79	0.086
Mof_C 	C 	0.9094	0.657	0.8317	0.086
Mof_C 	C 	0.8635	0.4791	0.0116	0.086
Mof_C 	C 	0.7625	0.7547	0.585	0.09
Mof_C 	C 	0.2373	0.7737	0.9093	0.087
Mof_C 	C 	0.3597	0.0282	0.991	0.091
Mof_C 	C 	0.5773	0.175	0.8405	0.09
Mof_C 	C 	0.2011	0.9721	0.2211	0.085
Mof_C 	C 	0.3104	0.0239	0.71	0.086
Mof_C 	C 	0.0906	0.157	0.6683	0.086
Mof_C 	C 	0.1365	0.9791	0.4884	0.086
Mof_C 	C 	0.2375	0.2547	0.915	0.09
Mof_C 	C 	0.2373	0.7263	0.4093	0.087
Mof_C 	C 	0.3597	0.4718	0.491	0.091
Mof_C 	C 	0.5773	0.325	0.3405	0.09
Mof_C 	C 	0.2011	0.5279	0.7211	0.085
Mof_C 	C 	0.3104	0.4761	0.21	0.086
Mof_C 	C 	0.0906	0.343	0.1683	0.086
Mof_C 	C 	0.1365	0.5209	0.9884	0.086
Mof_C 	C 	0.2375	0.2453	0.415	0.09
Mof_C 	C 	0.7627	0.2263	0.0907	0.087
Mof_C 	C 	0.6403	0.9718	0.009	0.091
Mof_C 	C 	0.4227	0.825	0.1595	0.09
Mof_C 	C 	0.7989	0.0279	0.7789	0.085
Mof_C 	C 	0.6896	0.9761	0.29	0.086
Mof_C 	C 	0.9094	0.843	0.3317	0.086
Mof_C 	C 	0.8635	0.0209	0.5116	0.086
Mof_C 	C 	0.7625	0.7453	0.085	0.09
Mof_S 	S 	0.7645	0.7175	0.6638	-0.06
Mof_S 	S 	0.6851	0.4877	0.71045	-0.055
Mof_S 	S 	0.5006	0.6856	0.71987	-0.061
Mof_S 	S 	0.5663	0.5935	0.53592	-0.058
Mof_S 	S 	0.9327	0.4031	0.03357	-0.056
Mof_S 	S 	0.9827	0.6497	0.76905	-0.059
Mof_S 	S 	0.8043	0.5099	0.2002	-0.056
Mof_S 	S 	0.7707	0.2394	0.6705	-0.06
Mof_S 	S 	0.2355	0.2175	0.8362	-0.06
Mof_S 	S 	0.3149	0.9877	0.78955	-0.055
Mof_S 	S 	0.4994	0.1856	0.78013	-0.061
Mof_S 	S 	0.4337	0.0935	0.96408	-0.058
Mof_S 	S 	0.0673	0.9031	0.46643	-0.056
Mof_S 	S 	0.0173	0.1497	0.73095	-0.058
Mof_S 	S 	0.1957	0.0099	0.2998	-0.055
Mof_S 	S 	0.2293	0.7394	0.8295	-0.06
Mof_S 	S 	0.2355	0.2825	0.3362	-0.06
Mof_S 	S 	0.3149	0.5123	0.28955	-0.055
Mof_S 	S 	0.4994	0.3144	0.28013	-0.061
Mof_S 	S 	0.4337	0.4065	0.46408	-0.058
Mof_S 	S 	0.0673	0.5969	0.96643	-0.056
Mof_S 	S 	0.0173	0.3503	0.23095	-0.059
Mof_S 	S 	0.1957	0.4901	0.7998	-0.056
Mof_S 	S 	0.2293	0.7606	0.3295	-0.06
Mof_S 	S 	0.7645	0.7825	0.1638	-0.06
Mof_S 	S 	0.6851	0.0123	0.21045	-0.055
Mof_S 	S 	0.5006	0.8144	0.21987	-0.061
Mof_S 	S 	0.5663	0.9065	0.03592	-0.058
Mof_S 	S 	0.9327	0.0969	0.53357	-0.056
Mof_S 	S 	0.9827	0.8503	0.26905	-0.058
Mof_S 	S 	0.8043	0.9901	0.7002	-0.055
Mof_S 	S 	0.7707	0.2606	0.1705	-0.06
Mof_N 	N 	0.7542	0.295	0.5347	-0.155
Mof_N 	N 	0.6883	0.4803	0.4873	-0.15
Mof_N 	N 	0.3675	0.6649	0.6186	-0.148
Mof_N 	N 	0.7934	0.4481	0.3344	-0.155
Mof_N 	N 	0.6902	0.5496	0.8453	-0.155
Mof_N 	N 	0.8539	0.6619	0.8726	-0.147
Mof_N 	N 	0.8183	0.5327	0.9929	-0.149
Mof_N 	N 	0.7613	0.7801	0.5307	-0.158
Mof_N 	N 	0.2458	0.795	0.9653	-0.155
Mof_N 	N 	0.3117	0.9803	0.0127	-0.15
Mof_N 	N 	0.6325	0.1649	0.8814	-0.148
Mof_N 	N 	0.2066	0.9481	0.1656	-0.155
Mof_N 	N 	0.3098	0.0496	0.6547	-0.155
Mof_N 	N 	0.1461	0.1619	0.6274	-0.147
Mof_N 	N 	0.1817	0.0327	0.5071	-0.149
Mof_N 	N 	0.2387	0.2801	0.9693	-0.158
Mof_N 	N 	0.2458	0.705	0.4653	-0.155
Mof_N 	N 	0.3117	0.5197	0.5127	-0.15
Mof_N 	N 	0.6325	0.3351	0.3814	-0.148
Mof_N 	N 	0.2066	0.5519	0.6656	-0.155
Mof_N 	N 	0.3098	0.4504	0.1547	-0.155
Mof_N 	N 	0.1461	0.3381	0.1274	-0.147
Mof_N 	N 	0.1817	0.4673	0.0071	-0.149
Mof_N 	N 	0.2387	0.2199	0.4693	-0.158
Mof_N 	N 	0.7542	0.205	0.0347	-0.155
Mof_N 	N 	0.6883	0.0197	0.9873	-0.15
Mof_N 	N 	0.3675	0.8351	0.1186	-0.148
Mof_N 	N 	0.7934	0.0519	0.8344	-0.155
Mof_N 	N 	0.6902	0.9504	0.3453	-0.155
Mof_N 	N 	0.8539	0.8381	0.3726	-0.147
Mof_N 	N 	0.8183	0.9673	0.4929	-0.149
Mof_N 	N 	0.7613	0.7199	0.0307	-0.158
_end
