# CIF file generated by openbabel 3.1.0, see https://openbabel.org
data_I
_chemical_name_common 'image0'
_cell_length_a 22.52
_cell_length_b 11.7787
_cell_length_c 11.6128
_cell_angle_alpha 90
_cell_angle_beta 95.56
_cell_angle_gamma 90
_space_group_name_H-M_alt 'P 1'
_space_group_name_Hall 'P 1'
loop_
    _symmetry_equiv_pos_as_xyz
    x,y,z
loop_
    _atom_site_label
    _atom_site_type_symbol
    _atom_site_fract_x
    _atom_site_fract_y
    _atom_site_fract_z
    _atom_site_occupancy
    N1       N        0.22350    0.42670    0.50640    1.000
    N2       N        0.27290    0.26230    0.76020    1.000
    O1       O        0.44710    0.42630    0.57330    1.000
    O2       O        0.42970    0.44240    0.38330    1.000
    O3       O        0.05270    0.32180    0.72900    1.000
    O4       O        0.06220    0.16240    0.83410    1.000
    C1       C        0.41330    0.43430    0.48280    1.000
    C2       C        0.26180    0.37570    0.58790    1.000
    C3       C        0.32360    0.37870    0.58300    1.000
    H1       H        0.34900    0.34530    0.64130    1.000
    C4       C        0.34670    0.43190    0.49070    1.000
    C5       C        0.30720    0.48280    0.40590    1.000
    H2       H        0.32110    0.51780    0.34190    1.000
    C6       C        0.24660    0.47980    0.41960    1.000
    H3       H        0.22060    0.51720    0.36510    1.000
    C7       C        0.08370    0.24120    0.78110    1.000
    C8       C        0.23430    0.31360    0.67870    1.000
    C9       C        0.17260    0.30880    0.68510    1.000
    H4       H        0.14720    0.34760    0.63070    1.000
    C10      C        0.14930    0.24820    0.76970    1.000
    C11      C        0.18910    0.19420    0.85460    1.000
    H5       H        0.17490    0.15250    0.91420    1.000
    C12      C        0.25000    0.20560    0.84600    1.000
    H6       H        0.27630    0.17210    0.90270    1.000
    H7       H        0.01730    0.31270    0.73780    1.000
    N3       N        0.72350    0.92670    0.50640    1.000
    N4       N        0.77290    0.76230    0.76020    1.000
    O5       O        0.94710    0.92630    0.57330    1.000
    O6       O        0.92970    0.94240    0.38330    1.000
    O7       O        0.55270    0.82180    0.72900    1.000
    O8       O        0.56220    0.66240    0.83410    1.000
    C13      C        0.91330    0.93430    0.48280    1.000
    C14      C        0.76180    0.87570    0.58790    1.000
    C15      C        0.82360    0.87870    0.58300    1.000
    H8       H        0.84900    0.84530    0.64130    1.000
    C16      C        0.84670    0.93190    0.49070    1.000
    C17      C        0.80720    0.98280    0.40590    1.000
    H9       H        0.82110    0.01780    0.34190    1.000
    C18      C        0.74660    0.97980    0.41960    1.000
    H10      H        0.72060    0.01720    0.36510    1.000
    C19      C        0.58370    0.74120    0.78110    1.000
    C20      C        0.73430    0.81360    0.67870    1.000
    C21      C        0.67260    0.80880    0.68510    1.000
    H11      H        0.64720    0.84760    0.63070    1.000
    C22      C        0.64930    0.74820    0.76970    1.000
    C23      C        0.68910    0.69420    0.85460    1.000
    H12      H        0.67490    0.65250    0.91420    1.000
    C24      C        0.75000    0.70560    0.84600    1.000
    H13      H        0.77630    0.67210    0.90270    1.000
    H14      H        0.51730    0.81270    0.73780    1.000
    N5       N        0.77650    0.42670    0.99360    1.000
    N6       N        0.72710    0.26230    0.73980    1.000
    O9       O        0.55290    0.42630    0.92670    1.000
    O10      O        0.57030    0.44240    0.11670    1.000
    O11      O        0.94730    0.32180    0.77100    1.000
    O12      O        0.93780    0.16240    0.66590    1.000
    C25      C        0.58670    0.43430    0.01720    1.000
    C26      C        0.73820    0.37570    0.91210    1.000
    C27      C        0.67640    0.37870    0.91700    1.000
    H15      H        0.65100    0.34530    0.85870    1.000
    C28      C        0.65330    0.43190    0.00930    1.000
    C29      C        0.69280    0.48280    0.09410    1.000
    H16      H        0.67890    0.51780    0.15810    1.000
    C30      C        0.75340    0.47980    0.08040    1.000
    H17      H        0.77940    0.51720    0.13490    1.000
    C31      C        0.91630    0.24120    0.71890    1.000
    C32      C        0.76570    0.31360    0.82130    1.000
    C33      C        0.82740    0.30880    0.81490    1.000
    H18      H        0.85280    0.34760    0.86930    1.000
    C34      C        0.85070    0.24820    0.73030    1.000
    C35      C        0.81090    0.19420    0.64540    1.000
    H19      H        0.82510    0.15250    0.58580    1.000
    C36      C        0.75000    0.20560    0.65400    1.000
    H20      H        0.72370    0.17210    0.59730    1.000
    H21      H        0.98270    0.31270    0.76220    1.000
    N7       N        0.27650    0.92670    0.99360    1.000
    N8       N        0.22710    0.76230    0.73980    1.000
    O13      O        0.05290    0.92630    0.92670    1.000
    O14      O        0.07030    0.94240    0.11670    1.000
    O15      O        0.44730    0.82180    0.77100    1.000
    O16      O        0.43780    0.66240    0.66590    1.000
    C37      C        0.08670    0.93430    0.01720    1.000
    C38      C        0.23820    0.87570    0.91210    1.000
    C39      C        0.17640    0.87870    0.91700    1.000
    H22      H        0.15100    0.84530    0.85870    1.000
    C40      C        0.15330    0.93190    0.00930    1.000
    C41      C        0.19280    0.98280    0.09410    1.000
    H23      H        0.17890    0.01780    0.15810    1.000
    C42      C        0.25340    0.97980    0.08040    1.000
    H24      H        0.27940    0.01720    0.13490    1.000
    C43      C        0.41630    0.74120    0.71890    1.000
    C44      C        0.26570    0.81360    0.82130    1.000
    C45      C        0.32740    0.80880    0.81490    1.000
    H25      H        0.35280    0.84760    0.86930    1.000
    C46      C        0.35070    0.74820    0.73030    1.000
    C47      C        0.31090    0.69420    0.64540    1.000
    H26      H        0.32510    0.65250    0.58580    1.000
    C48      C        0.25000    0.70560    0.65400    1.000
    H27      H        0.22370    0.67210    0.59730    1.000
    H28      H        0.48270    0.81270    0.76220    1.000
    N9       N        0.77650    0.57330    0.49360    1.000
    N10      N        0.72710    0.73770    0.23980    1.000
    O17      O        0.55290    0.57370    0.42670    1.000
    O18      O        0.57030    0.55760    0.61670    1.000
    O19      O        0.94730    0.67820    0.27100    1.000
    O20      O        0.93780    0.83760    0.16590    1.000
    C49      C        0.58670    0.56570    0.51720    1.000
    C50      C        0.73820    0.62430    0.41210    1.000
    C51      C        0.67640    0.62130    0.41700    1.000
    H29      H        0.65100    0.65470    0.35870    1.000
    C52      C        0.65330    0.56810    0.50930    1.000
    C53      C        0.69280    0.51720    0.59410    1.000
    H30      H        0.67890    0.48220    0.65810    1.000
    C54      C        0.75340    0.52020    0.58040    1.000
    H31      H        0.77940    0.48280    0.63490    1.000
    C55      C        0.91630    0.75880    0.21890    1.000
    C56      C        0.76570    0.68640    0.32130    1.000
    C57      C        0.82740    0.69120    0.31490    1.000
    H32      H        0.85280    0.65240    0.36930    1.000
    C58      C        0.85070    0.75180    0.23030    1.000
    C59      C        0.81090    0.80580    0.14540    1.000
    H33      H        0.82510    0.84750    0.08580    1.000
    C60      C        0.75000    0.79440    0.15400    1.000
    H34      H        0.72370    0.82790    0.09730    1.000
    H35      H        0.98270    0.68730    0.26220    1.000
    N11      N        0.27650    0.07330    0.49360    1.000
    N12      N        0.22710    0.23770    0.23980    1.000
    O21      O        0.05290    0.07370    0.42670    1.000
    O22      O        0.07030    0.05760    0.61670    1.000
    O23      O        0.44730    0.17820    0.27100    1.000
    O24      O        0.43780    0.33760    0.16590    1.000
    C61      C        0.08670    0.06570    0.51720    1.000
    C62      C        0.23820    0.12430    0.41210    1.000
    C63      C        0.17640    0.12130    0.41700    1.000
    H36      H        0.15100    0.15470    0.35870    1.000
    C64      C        0.15330    0.06810    0.50930    1.000
    C65      C        0.19280    0.01720    0.59410    1.000
    H37      H        0.17890    0.98220    0.65810    1.000
    C66      C        0.25340    0.02020    0.58040    1.000
    H38      H        0.27940    0.98280    0.63490    1.000
    C67      C        0.41630    0.25880    0.21890    1.000
    C68      C        0.26570    0.18640    0.32130    1.000
    C69      C        0.32740    0.19120    0.31490    1.000
    H39      H        0.35280    0.15240    0.36930    1.000
    C70      C        0.35070    0.25180    0.23030    1.000
    C71      C        0.31090    0.30580    0.14540    1.000
    H40      H        0.32510    0.34750    0.08580    1.000
    C72      C        0.25000    0.29440    0.15400    1.000
    H41      H        0.22370    0.32790    0.09730    1.000
    H42      H        0.48270    0.18730    0.26220    1.000
    N13      N        0.22350    0.57330    0.00640    1.000
    N14      N        0.27290    0.73770    0.26020    1.000
    O25      O        0.44710    0.57370    0.07330    1.000
    O26      O        0.42970    0.55760    0.88330    1.000
    O27      O        0.05270    0.67820    0.22900    1.000
    O28      O        0.06220    0.83760    0.33410    1.000
    C73      C        0.41330    0.56570    0.98280    1.000
    C74      C        0.26180    0.62430    0.08790    1.000
    C75      C        0.32360    0.62130    0.08300    1.000
    H43      H        0.34900    0.65470    0.14130    1.000
    C76      C        0.34670    0.56810    0.99070    1.000
    C77      C        0.30720    0.51720    0.90590    1.000
    H44      H        0.32110    0.48220    0.84190    1.000
    C78      C        0.24660    0.52020    0.91960    1.000
    H45      H        0.22060    0.48280    0.86510    1.000
    C79      C        0.08370    0.75880    0.28110    1.000
    C80      C        0.23430    0.68640    0.17870    1.000
    C81      C        0.17260    0.69120    0.18510    1.000
    H46      H        0.14720    0.65240    0.13070    1.000
    C82      C        0.14930    0.75180    0.26970    1.000
    C83      C        0.18910    0.80580    0.35460    1.000
    H47      H        0.17490    0.84750    0.41420    1.000
    C84      C        0.25000    0.79440    0.34600    1.000
    H48      H        0.27630    0.82790    0.40270    1.000
    H49      H        0.01730    0.68730    0.23780    1.000
    N15      N        0.72350    0.07330    0.00640    1.000
    N16      N        0.77290    0.23770    0.26020    1.000
    O29      O        0.94710    0.07370    0.07330    1.000
    O30      O        0.92970    0.05760    0.88330    1.000
    O31      O        0.55270    0.17820    0.22900    1.000
    O32      O        0.56220    0.33760    0.33410    1.000
    C85      C        0.91330    0.06570    0.98280    1.000
    C86      C        0.76180    0.12430    0.08790    1.000
    C87      C        0.82360    0.12130    0.08300    1.000
    H50      H        0.84900    0.15470    0.14130    1.000
    C88      C        0.84670    0.06810    0.99070    1.000
    C89      C        0.80720    0.01720    0.90590    1.000
    H51      H        0.82110    0.98220    0.84190    1.000
    C90      C        0.74660    0.02020    0.91960    1.000
    H52      H        0.72060    0.98280    0.86510    1.000
    C91      C        0.58370    0.25880    0.28110    1.000
    C92      C        0.73430    0.18640    0.17870    1.000
    C93      C        0.67260    0.19120    0.18510    1.000
    H53      H        0.64720    0.15240    0.13070    1.000
    C94      C        0.64930    0.25180    0.26970    1.000
    C95      C        0.68910    0.30580    0.35460    1.000
    H54      H        0.67490    0.34750    0.41420    1.000
    C96      C        0.75000    0.29440    0.34600    1.000
    H55      H        0.77630    0.32790    0.40270    1.000
    H56      H        0.51730    0.18730    0.23780    1.000
    Ce1      Ce       0.50000    0.49408    0.75000    1.000
    Ce2      Ce       0.00000    0.99408    0.75000    1.000
    Ce3      Ce       0.50000    0.50592    0.25000    1.000
    Ce4      Ce       0.00000    0.00592    0.25000    1.000
