data_functionalizedCrystal
_audit_creation_method	'EQeq! by Chris Wilmer'
_symmetry_space_group_name_H-M	'P1'
_symmetry_Int_Tables_number	1
_symmetry_cell_setting	triclinic
loop_
_symmetry_equiv_pos_as_xyz
  x,y,z
_cell_length_a	7.83
_cell_length_b	10.912
_cell_length_c	12.498
_cell_angle_alpha	106.544
_cell_angle_beta	96.596
_cell_angle_gamma	99.562
loop_
_atom_site_label
_atom_site_type_symbol
_atom_site_fract_x
_atom_site_fract_y
_atom_site_fract_z
_atom_site_charge
Mof_Co	Co	0.86215	0.5185	0.40173	1.176
Mof_Co	Co	0.51596	0.36557	0.52034	1.131
Mof_O 	O 	0.9387	0.3636	0.4607	-0.534
Mof_O 	O 	0.7021	0.2529	0.5028	-0.445
Mof_O 	O 	0.6531	0.779	0.4501	-0.44
Mof_O 	O 	0.8344	0.6743	0.349	-0.438
Mof_O 	O 	0.5316	0.0536	0.2028	-0.111
Mof_O 	O 	0.615	0.8885	0.1113	-0.126
Mof_O 	O 	0.2774	0.6226	0.7509	-0.391
Mof_O 	O 	0.9905	0.5625	0.7342	-0.381
Mof_O 	O 	0.1926	0.0122	0.2182	-0.244
Mof_O 	O 	0.6753	0.527	0.4994	-0.716
Mof_H 	H 	0.741	0.5742	0.5758	0.139
Mof_N 	N 	0.5001	0.9461	0.1348	0.013
Mof_C 	C 	0.886	0.1306	0.4032	-0.048
Mof_C 	C 	0.8023	0.0147	0.4183	-0.009
Mof_H 	H 	0.7137	0.016	0.4619	0.072
Mof_C 	C 	0.8509	0.8979	0.3687	-0.024
Mof_C 	C 	0.9811	0.8948	0.3008	-0.127
Mof_H 	H 	0.0166	0.8172	0.2687	0.103
Mof_C 	C 	0.0557	0.0088	0.2821	0.186
Mof_C 	C 	0.013	0.1273	0.3337	-0.108
Mof_H 	H 	0.0684	0.2035	0.322	0.077
Mof_C 	C 	0.8369	0.2571	0.4601	0.369
Mof_C 	C 	0.772	0.773	0.3911	0.356
Mof_C 	C 	0.1714	0.9209	0.1145	0.188
Mof_C 	C 	0.3219	0.8875	0.0719	0.002
Mof_C 	C 	0.307	0.7945	0.9674	0.005
Mof_H 	H 	0.4079	0.7728	0.9412	0.072
Mof_C 	C 	0.1451	0.734	0.9018	-0.099
Mof_C 	C 	0.9961	0.7688	0.9424	0.083
Mof_H 	H 	0.8859	0.7297	0.8983	0.019
Mof_C 	C 	0.0085	0.8609	0.0475	-0.193
Mof_H 	H 	0.9071	0.8824	0.073	0.128
Mof_C 	C 	0.1352	0.6343	0.7894	0.316
Mof_Co	Co	0.13785	0.4815	0.59827	1.175
Mof_Co	Co	0.48404	0.63443	0.47966	1.13
Mof_O 	O 	0.0613	0.6364	0.5393	-0.534
Mof_O 	O 	0.2979	0.7471	0.4972	-0.445
Mof_O 	O 	0.3469	0.221	0.5499	-0.44
Mof_O 	O 	0.1656	0.3257	0.651	-0.438
Mof_O 	O 	0.4684	0.9464	0.7972	-0.111
Mof_O 	O 	0.385	0.1115	0.8887	-0.126
Mof_O 	O 	0.7226	0.3774	0.2491	-0.391
Mof_O 	O 	0.0095	0.4375	0.2658	-0.381
Mof_O 	O 	0.8074	0.9878	0.7818	-0.244
Mof_O 	O 	0.3247	0.473	0.5006	-0.716
Mof_H 	H 	0.259	0.4258	0.4242	0.139
Mof_N 	N 	0.4999	0.0539	0.8652	0.013
Mof_C 	C 	0.114	0.8694	0.5968	-0.048
Mof_C 	C 	0.1977	0.9853	0.5817	-0.009
Mof_H 	H 	0.2863	0.984	0.5381	0.072
Mof_C 	C 	0.1491	0.1021	0.6313	-0.024
Mof_C 	C 	0.0189	0.1052	0.6992	-0.127
Mof_H 	H 	0.9834	0.1828	0.7313	0.103
Mof_C 	C 	0.9443	0.9912	0.7179	0.186
Mof_C 	C 	0.987	0.8727	0.6663	-0.108
Mof_H 	H 	0.9316	0.7965	0.678	0.077
Mof_C 	C 	0.1631	0.7429	0.5399	0.369
Mof_C 	C 	0.228	0.227	0.6089	0.356
Mof_C 	C 	0.8286	0.0791	0.8855	0.188
Mof_C 	C 	0.6781	0.1125	0.9281	0.002
Mof_C 	C 	0.693	0.2055	0.0326	0.005
Mof_H 	H 	0.5921	0.2272	0.0588	0.072
Mof_C 	C 	0.8549	0.266	0.0982	-0.099
Mof_C 	C 	0.0039	0.2312	0.0576	0.083
Mof_H 	H 	0.1141	0.2703	0.1017	0.019
Mof_C 	C 	0.9915	0.1391	0.9525	-0.193
Mof_H 	H 	0.0929	0.1176	0.927	0.128
Mof_C 	C 	0.8648	0.3657	0.2106	0.316
_end
