data_functionalizedCrystal
_audit_creation_method	'EQeq! by Chris Wilmer'
_symmetry_space_group_name_H-M	'P1'
_symmetry_Int_Tables_number	1
_symmetry_cell_setting	triclinic
loop_
_symmetry_equiv_pos_as_xyz
  x,y,z
_cell_length_a	9.159
_cell_length_b	9.159
_cell_length_c	24.445
_cell_angle_alpha	90
_cell_angle_beta	90
_cell_angle_gamma	90
loop_
_atom_site_label
_atom_site_type_symbol
_atom_site_fract_x
_atom_site_fract_y
_atom_site_fract_z
_atom_site_charge
Mof_N 	N 	0.0147	0.0932	0.54413	-0.315
Mof_C 	C 	0.1321	0.0431	0.51775	0.126
Mof_H 	H 	0.2249	0.0709	0.5292	0.01
Mof_C 	C 	0.8831	0.0502	0.5267	0.106
Mof_C 	C 	0.7508	0.1078	0.55761	0.312
Mof_O 	O 	0.7793	0.1935	0.59799	-0.426
Mof_O 	O 	0.6292	0.0677	0.54293	-0.204
Mof_N 	N 	0.5147	0.5932	0.04413	-0.228
Mof_C 	C 	0.6321	0.5431	0.01775	0.086
Mof_H 	H 	0.7249	0.5709	0.0292	0.039
Mof_C 	C 	0.3831	0.5502	0.0267	-0.082
Mof_C 	C 	0.2508	0.6078	0.05761	0.373
Mof_O 	O 	0.2793	0.6935	0.09799	-0.56
Mof_O 	O 	0.1292	0.5677	0.04293	-0.285
Mof_N 	N 	0.4853	0.9068	0.04413	-0.238
Mof_C 	C 	0.3679	0.9569	0.01775	0.1
Mof_H 	H 	0.2751	0.9291	0.0292	-0.002
Mof_C 	C 	0.6169	0.9498	0.0267	-0.054
Mof_C 	C 	0.7492	0.8922	0.05761	0.354
Mof_O 	O 	0.7207	0.8065	0.09799	-0.512
Mof_O 	O 	0.8708	0.9323	0.04293	-0.162
Mof_N 	N 	0.9853	0.4068	0.54413	-0.081
Mof_C 	C 	0.8679	0.4569	0.51775	0.036
Mof_H 	H 	0.7751	0.4291	0.5292	0.051
Mof_C 	C 	0.1169	0.4498	0.5267	-0.21
Mof_C 	C 	0.2492	0.3922	0.55761	0.381
Mof_O 	O 	0.2207	0.3065	0.59799	-0.499
Mof_O 	O 	0.3708	0.4323	0.54293	-0.228
Mof_N 	N 	0.6568	0.2647	0.79413	-0.23
Mof_C 	C 	0.7069	0.3821	0.76775	0.093
Mof_H 	H 	0.6791	0.4749	0.7792	0.028
Mof_C 	C 	0.6998	0.1331	0.7767	-0.051
Mof_C 	C 	0.6422	0.0008	0.80761	0.361
Mof_O 	O 	0.5565	0.0293	0.84799	-0.533
Mof_O 	O 	0.6823	0.8792	0.79293	-0.201
Mof_N 	N 	0.1568	0.7647	0.29413	-0.225
Mof_C 	C 	0.2069	0.8821	0.26775	0.074
Mof_H 	H 	0.1791	0.9749	0.2792	-0.001
Mof_C 	C 	0.1998	0.6331	0.2767	-0.075
Mof_C 	C 	0.1422	0.5008	0.30761	0.344
Mof_O 	O 	0.0565	0.5293	0.34799	-0.528
Mof_O 	O 	0.1823	0.3792	0.29293	-0.249
Mof_N 	N 	0.8432	0.7353	0.29413	-0.175
Mof_C 	C 	0.7931	0.6179	0.26775	0.097
Mof_H 	H 	0.8209	0.5251	0.2792	0.057
Mof_C 	C 	0.8002	0.8669	0.2767	-0.032
Mof_C 	C 	0.8578	0.9992	0.30761	0.346
Mof_O 	O 	0.9435	0.9707	0.34799	-0.395
Mof_O 	O 	0.8177	0.1208	0.29293	-0.181
Mof_N 	N 	0.3432	0.2353	0.79413	-0.235
Mof_C 	C 	0.2931	0.1179	0.76775	0.083
Mof_H 	H 	0.3209	0.0251	0.7792	0.015
Mof_C 	C 	0.3002	0.3669	0.7767	-0.076
Mof_C 	C 	0.3578	0.4992	0.80761	0.36
Mof_O 	O 	0.4435	0.4707	0.84799	-0.539
Mof_O 	O 	0.3177	0.6208	0.79293	-0.241
Mof_N 	N 	0.9853	0.9068	0.45587	-0.082
Mof_C 	C 	0.8679	0.9569	0.48225	0.039
Mof_H 	H 	0.7751	0.9291	0.4708	0.05
Mof_C 	C 	0.1169	0.9498	0.4733	-0.21
Mof_C 	C 	0.2492	0.8922	0.44239	0.381
Mof_O 	O 	0.2207	0.8065	0.40201	-0.499
Mof_O 	O 	0.3708	0.9323	0.45707	-0.228
Mof_N 	N 	0.4853	0.4068	0.95587	-0.238
Mof_C 	C 	0.3679	0.4569	0.98225	0.101
Mof_H 	H 	0.2751	0.4291	0.9708	-0.002
Mof_C 	C 	0.6169	0.4498	0.9733	-0.053
Mof_C 	C 	0.7492	0.3922	0.94239	0.354
Mof_O 	O 	0.7207	0.3065	0.90201	-0.513
Mof_O 	O 	0.8708	0.4323	0.95707	-0.161
Mof_N 	N 	0.5147	0.0932	0.95587	-0.229
Mof_C 	C 	0.6321	0.0431	0.98225	0.085
Mof_H 	H 	0.7249	0.0709	0.9708	0.038
Mof_C 	C 	0.3831	0.0502	0.9733	-0.082
Mof_C 	C 	0.2508	0.1078	0.94239	0.373
Mof_O 	O 	0.2793	0.1935	0.90201	-0.56
Mof_O 	O 	0.1292	0.0677	0.95707	-0.284
Mof_N 	N 	0.0147	0.5932	0.45587	-0.318
Mof_C 	C 	0.1321	0.5431	0.48225	0.125
Mof_H 	H 	0.2249	0.5709	0.4708	0.011
Mof_C 	C 	0.8831	0.5502	0.4733	0.111
Mof_C 	C 	0.7508	0.6078	0.44239	0.311
Mof_O 	O 	0.7793	0.6935	0.40201	-0.425
Mof_O 	O 	0.6292	0.5677	0.45707	-0.203
Mof_N 	N 	0.3432	0.7353	0.20587	-0.235
Mof_C 	C 	0.2931	0.6179	0.23225	0.083
Mof_H 	H 	0.3209	0.5251	0.2208	0.015
Mof_C 	C 	0.3002	0.8669	0.2233	-0.076
Mof_C 	C 	0.3578	0.9992	0.19239	0.356
Mof_O 	O 	0.4435	0.9707	0.15201	-0.539
Mof_O 	O 	0.3177	0.1208	0.20707	-0.237
Mof_N 	N 	0.8432	0.2353	0.70587	-0.176
Mof_C 	C 	0.7931	0.1179	0.73225	0.096
Mof_H 	H 	0.8209	0.0251	0.7208	0.055
Mof_C 	C 	0.8002	0.3669	0.7233	-0.032
Mof_C 	C 	0.8578	0.4992	0.69239	0.349
Mof_O 	O 	0.9435	0.4707	0.65201	-0.395
Mof_O 	O 	0.8177	0.6208	0.70707	-0.182
Mof_N 	N 	0.1568	0.2647	0.70587	-0.226
Mof_C 	C 	0.2069	0.3821	0.73225	0.075
Mof_H 	H 	0.1791	0.4749	0.7208	-0.001
Mof_C 	C 	0.1998	0.1331	0.7233	-0.075
Mof_C 	C 	0.1422	0.0008	0.69239	0.342
Mof_O 	O 	0.0565	0.0293	0.65201	-0.528
Mof_O 	O 	0.1823	0.8792	0.70707	-0.248
Mof_N 	N 	0.6568	0.7647	0.20587	-0.23
Mof_C 	C 	0.7069	0.8821	0.23225	0.092
Mof_H 	H 	0.6791	0.9749	0.2208	0.027
Mof_C 	C 	0.6998	0.6331	0.2233	-0.051
Mof_C 	C 	0.6422	0.5008	0.19239	0.366
Mof_O 	O 	0.5565	0.5293	0.15201	-0.533
Mof_O 	O 	0.6823	0.3792	0.20707	-0.204
Mof_In	In	1.85645e-32	0.25	0.625	1.879
Mof_In	In	0.5	0.75	0.125	2.343
Mof_In	In	0.5	0.25	0.875	2.343
Mof_In	In	-2.08677e-32	0.75	0.375	1.876
_end
