data_functionalizedCrystal
_audit_creation_method	'EQeq! by Chris Wilmer'
_symmetry_space_group_name_H-M	'P1'
_symmetry_Int_Tables_number	1
_symmetry_cell_setting	triclinic
loop_
_symmetry_equiv_pos_as_xyz
  x,y,z
_cell_length_a	8.0654
_cell_length_b	15.3504
_cell_length_c	19.3388
_cell_angle_alpha	90
_cell_angle_beta	90
_cell_angle_gamma	90
loop_
_atom_site_label
_atom_site_type_symbol
_atom_site_fract_x
_atom_site_fract_y
_atom_site_fract_z
_atom_site_charge
Mof_Fe	Fe	0.20726	0.16979	0.34343	0.607
Mof_N 	N 	0.3998	0.1672	0.27458	-0.222
Mof_N 	N 	0.0662	0.2667	0.30182	-0.224
Mof_N 	N 	0.2883	0.1826	0.4421	-0.253
Mof_N 	N 	0.1285	0.0435	0.3439	-0.177
Mof_N 	N 	0.0186	0.0832	0.3411	-0.157
Mof_C 	C 	0.4911	0.2381	0.2609	0.23
Mof_C 	C 	0.0226	0.3467	0.3273	-0.008
Mof_C 	C 	0.4203	0.1127	0.2185	-0.008
Mof_C 	C 	0.5029	0.3139	0.308	-0.578
Mof_C 	C 	0.4476	0.166	0.4649	-0.012
Mof_C 	C 	0.975	0.0062	0.3454	0.156
Mof_C 	C 	0.2344	0.9723	0.337	-0.039
Mof_C 	C 	0.8529	0.1051	0.3393	-0.085
Mof_C 	C 	0.1864	0.9438	0.3525	-0.304
Mof_H 	H 	0.0594	0.3709	0.3716	-0.005
Mof_H 	H 	0.37	0.0551	0.2126	0.014
Mof_H 	H 	0.5522	0.2954	0.3519	0.17
Mof_H 	H 	0.5725	0.3589	0.2868	0.174
Mof_H 	H 	0.3918	0.3374	0.3164	0.17
Mof_H 	H 	0.5444	0.156	0.4354	0.001
Mof_H 	H 	0.9768	0.2117	0.5478	0.169
Mof_H 	H 	0.9924	0.2616	0.4754	0.171
Mof_H 	H 	0.9603	0.1587	0.4768	0.173
Mof_H 	H 	0.3549	0.9766	0.3314	-0.061
Mof_H 	H 	0.8061	0.164	0.3395	-0.002
Mof_H 	H 	0.8141	0.0889	0.3961	0.104
Mof_H 	H 	0.1978	0.9032	0.3137	0.17
Mof_H 	H 	0.2796	0.9847	0.3524	0.179
Mof_Fe	Fe	0.79274	0.83021	0.34343	0.608
Mof_N 	N 	0.6002	0.8328	0.27458	-0.221
Mof_N 	N 	0.9338	0.7333	0.30182	-0.223
Mof_N 	N 	0.7117	0.8174	0.4421	-0.252
Mof_N 	N 	0.8715	0.9565	0.3439	-0.176
Mof_N 	N 	0.9814	0.9168	0.3411	-0.156
Mof_C 	C 	0.5089	0.7619	0.2609	0.231
Mof_C 	C 	0.9774	0.6533	0.3273	-0.007
Mof_C 	C 	0.5797	0.8873	0.2185	-0.008
Mof_C 	C 	0.4971	0.6861	0.308	-0.578
Mof_C 	C 	0.5524	0.834	0.4649	-0.012
Mof_C 	C 	0.025	0.9938	0.3454	0.156
Mof_C 	C 	0.7656	0.0277	0.337	-0.039
Mof_C 	C 	0.1471	0.8949	0.3393	-0.085
Mof_C 	C 	0.8136	0.0562	0.3525	-0.304
Mof_H 	H 	0.9406	0.6291	0.3716	-0.005
Mof_H 	H 	0.63	0.9449	0.2126	0.014
Mof_H 	H 	0.4478	0.7046	0.3519	0.17
Mof_H 	H 	0.4275	0.6411	0.2868	0.174
Mof_H 	H 	0.6082	0.6626	0.3164	0.17
Mof_H 	H 	0.4556	0.844	0.4354	0.001
Mof_H 	H 	0.0232	0.7883	0.5478	0.169
Mof_H 	H 	0.0076	0.7384	0.4754	0.171
Mof_H 	H 	0.0397	0.8413	0.4768	0.173
Mof_H 	H 	0.6451	0.0234	0.3314	-0.061
Mof_H 	H 	0.1939	0.836	0.3395	-0.002
Mof_H 	H 	0.1859	0.9111	0.3961	0.104
Mof_H 	H 	0.8022	0.0968	0.3137	0.17
Mof_H 	H 	0.7204	0.0153	0.3524	0.179
Mof_Fe	Fe	0.29274	0.66979	0.15657	0.611
Mof_N 	N 	0.1002	0.6672	0.22542	-0.22
Mof_N 	N 	0.4338	0.7667	0.19818	-0.226
Mof_N 	N 	0.2117	0.6826	0.0579	-0.251
Mof_N 	N 	0.3715	0.5435	0.1561	-0.182
Mof_N 	N 	0.4814	0.5832	0.1589	-0.158
Mof_C 	C 	0.0089	0.7381	0.2391	0.218
Mof_C 	C 	0.4774	0.8467	0.1727	-0.009
Mof_C 	C 	0.0797	0.6127	0.2815	-0.013
Mof_C 	C 	0.9971	0.8139	0.192	-0.553
Mof_C 	C 	0.0524	0.666	0.0351	0.045
Mof_C 	C 	0.525	0.5062	0.1546	0.165
Mof_C 	C 	0.2656	0.4723	0.163	-0.037
Mof_C 	C 	0.6471	0.6051	0.1607	-0.099
Mof_C 	C 	0.3136	0.4438	0.1475	-0.302
Mof_H 	H 	0.4406	0.8709	0.1284	0.002
Mof_H 	H 	0.13	0.5551	0.2874	0.013
Mof_H 	H 	0.9478	0.7954	0.1481	0.169
Mof_H 	H 	0.9275	0.8589	0.2132	0.17
Mof_H 	H 	0.1082	0.8374	0.1836	0.162
Mof_H 	H 	0.9556	0.656	0.0646	-0.009
Mof_H 	H 	0.5232	0.7117	0.9522	0.138
Mof_H 	H 	0.5076	0.7616	0.0246	0.16
Mof_H 	H 	0.5397	0.6587	0.0232	0.163
Mof_H 	H 	0.1451	0.4766	0.1686	-0.061
Mof_H 	H 	0.6939	0.664	0.1605	0.006
Mof_H 	H 	0.6859	0.5889	0.1039	0.115
Mof_H 	H 	0.3022	0.4032	0.1863	0.176
Mof_H 	H 	0.2204	0.4847	0.1476	0.18
Mof_Fe	Fe	0.70726	0.33021	0.15657	0.611
Mof_N 	N 	0.8998	0.3328	0.22542	-0.22
Mof_N 	N 	0.5662	0.2333	0.19818	-0.226
Mof_N 	N 	0.7883	0.3174	0.0579	-0.251
Mof_N 	N 	0.6285	0.4565	0.1561	-0.182
Mof_N 	N 	0.5186	0.4168	0.1589	-0.158
Mof_C 	C 	0.9911	0.2619	0.2391	0.218
Mof_C 	C 	0.5226	0.1533	0.1727	-0.009
Mof_C 	C 	0.9203	0.3873	0.2815	-0.013
Mof_C 	C 	0.0029	0.1861	0.192	-0.553
Mof_C 	C 	0.9476	0.334	0.0351	0.045
Mof_C 	C 	0.475	0.4938	0.1546	0.165
Mof_C 	C 	0.7344	0.5277	0.163	-0.037
Mof_C 	C 	0.3529	0.3949	0.1607	-0.099
Mof_C 	C 	0.6864	0.5562	0.1475	-0.302
Mof_H 	H 	0.5594	0.1291	0.1284	0.002
Mof_H 	H 	0.87	0.4449	0.2874	0.013
Mof_H 	H 	0.0522	0.2046	0.1481	0.169
Mof_H 	H 	0.0725	0.1411	0.2132	0.17
Mof_H 	H 	0.8918	0.1626	0.1836	0.162
Mof_H 	H 	0.0444	0.344	0.0646	-0.009
Mof_H 	H 	0.4768	0.2883	0.9522	0.138
Mof_H 	H 	0.4924	0.2384	0.0246	0.16
Mof_H 	H 	0.4603	0.3413	0.0232	0.163
Mof_H 	H 	0.8549	0.5234	0.1686	-0.061
Mof_H 	H 	0.3061	0.336	0.1605	0.006
Mof_H 	H 	0.3141	0.4111	0.1039	0.115
Mof_H 	H 	0.6978	0.5968	0.1863	0.176
Mof_H 	H 	0.7796	0.5153	0.1476	0.18
Mof_Fe	Fe	0.79274	0.83021	0.65657	0.608
Mof_N 	N 	0.6002	0.8328	0.72542	-0.221
Mof_N 	N 	0.9338	0.7333	0.69818	-0.223
Mof_N 	N 	0.7117	0.8174	0.5579	-0.252
Mof_N 	N 	0.8715	0.9565	0.6561	-0.176
Mof_N 	N 	0.9814	0.9168	0.6589	-0.156
Mof_C 	C 	0.5089	0.7619	0.7391	0.231
Mof_C 	C 	0.9774	0.6533	0.6727	-0.007
Mof_C 	C 	0.5797	0.8873	0.7815	-0.01
Mof_C 	C 	0.4971	0.6861	0.692	-0.578
Mof_C 	C 	0.5524	0.834	0.5351	-0.012
Mof_C 	C 	0.025	0.9938	0.6546	0.156
Mof_C 	C 	0.7656	0.0277	0.663	-0.038
Mof_C 	C 	0.1471	0.8949	0.6607	-0.086
Mof_C 	C 	0.8136	0.0562	0.6475	-0.304
Mof_H 	H 	0.9406	0.6291	0.6284	-0.005
Mof_H 	H 	0.63	0.9449	0.7874	0.012
Mof_H 	H 	0.4478	0.7046	0.6481	0.17
Mof_H 	H 	0.4275	0.6411	0.7132	0.174
Mof_H 	H 	0.6082	0.6626	0.6836	0.17
Mof_H 	H 	0.4556	0.844	0.5646	0.001
Mof_H 	H 	0.0232	0.7883	0.4522	0.169
Mof_H 	H 	0.0076	0.7384	0.5246	0.171
Mof_H 	H 	0.0397	0.8413	0.5232	0.173
Mof_H 	H 	0.6451	0.0234	0.6686	-0.061
Mof_H 	H 	0.1939	0.836	0.6605	-0.001
Mof_H 	H 	0.1859	0.9111	0.6039	0.104
Mof_H 	H 	0.8022	0.0968	0.6863	0.17
Mof_H 	H 	0.7204	0.0153	0.6476	0.179
Mof_Fe	Fe	0.20726	0.16979	0.65657	0.608
Mof_N 	N 	0.3998	0.1672	0.72542	-0.221
Mof_N 	N 	0.0662	0.2667	0.69818	-0.223
Mof_N 	N 	0.2883	0.1826	0.5579	-0.252
Mof_N 	N 	0.1285	0.0435	0.6561	-0.176
Mof_N 	N 	0.0186	0.0832	0.6589	-0.156
Mof_C 	C 	0.4911	0.2381	0.7391	0.231
Mof_C 	C 	0.0226	0.3467	0.6727	-0.007
Mof_C 	C 	0.4203	0.1127	0.7815	-0.01
Mof_C 	C 	0.5029	0.3139	0.692	-0.578
Mof_C 	C 	0.4476	0.166	0.5351	-0.012
Mof_C 	C 	0.975	0.0062	0.6546	0.156
Mof_C 	C 	0.2344	0.9723	0.663	-0.038
Mof_C 	C 	0.8529	0.1051	0.6607	-0.086
Mof_C 	C 	0.1864	0.9438	0.6475	-0.304
Mof_H 	H 	0.0594	0.3709	0.6284	-0.005
Mof_H 	H 	0.37	0.0551	0.7874	0.012
Mof_H 	H 	0.5522	0.2954	0.6481	0.17
Mof_H 	H 	0.5725	0.3589	0.7132	0.174
Mof_H 	H 	0.3918	0.3374	0.6836	0.17
Mof_H 	H 	0.5444	0.156	0.5646	0.001
Mof_H 	H 	0.9768	0.2117	0.4522	0.169
Mof_H 	H 	0.9924	0.2616	0.5246	0.171
Mof_H 	H 	0.9603	0.1587	0.5232	0.173
Mof_H 	H 	0.3549	0.9766	0.6686	-0.061
Mof_H 	H 	0.8061	0.164	0.6605	-0.001
Mof_H 	H 	0.8141	0.0889	0.6039	0.104
Mof_H 	H 	0.1978	0.9032	0.6863	0.17
Mof_H 	H 	0.2796	0.9847	0.6476	0.179
Mof_Fe	Fe	0.70726	0.33021	0.84343	0.605
Mof_N 	N 	0.8998	0.3328	0.77458	-0.219
Mof_N 	N 	0.5662	0.2333	0.80182	-0.226
Mof_N 	N 	0.7883	0.3174	0.9421	-0.25
Mof_N 	N 	0.6285	0.4565	0.8439	-0.183
Mof_N 	N 	0.5186	0.4168	0.8411	-0.159
Mof_C 	C 	0.9911	0.2619	0.7609	0.215
Mof_C 	C 	0.5226	0.1533	0.8273	-0.01
Mof_C 	C 	0.9203	0.3873	0.7185	-0.013
Mof_C 	C 	0.0029	0.1861	0.808	-0.541
Mof_C 	C 	0.9476	0.334	0.9649	-0.074
Mof_C 	C 	0.475	0.4938	0.8454	0.162
Mof_C 	C 	0.7344	0.5277	0.837	-0.036
Mof_C 	C 	0.3529	0.3949	0.8393	-0.098
Mof_C 	C 	0.6864	0.5562	0.8525	-0.295
Mof_H 	H 	0.5594	0.1291	0.8716	-0.006
Mof_H 	H 	0.87	0.4449	0.7126	0.013
Mof_H 	H 	0.0522	0.2046	0.8519	0.16
Mof_H 	H 	0.0725	0.1411	0.7868	0.164
Mof_H 	H 	0.8918	0.1626	0.8164	0.155
Mof_H 	H 	0.0444	0.344	0.9354	0.018
Mof_H 	H 	0.4768	0.2883	0.0478	0.119
Mof_H 	H 	0.4924	0.2384	0.9754	0.102
Mof_H 	H 	0.4603	0.3413	0.9768	0.101
Mof_H 	H 	0.8549	0.5234	0.8314	-0.06
Mof_H 	H 	0.3061	0.336	0.8395	0.004
Mof_H 	H 	0.3141	0.4111	0.8961	0.105
Mof_H 	H 	0.6978	0.5968	0.8137	0.173
Mof_H 	H 	0.7796	0.5153	0.8524	0.174
Mof_Fe	Fe	0.29274	0.66979	0.84343	0.605
Mof_N 	N 	0.1002	0.6672	0.77458	-0.219
Mof_N 	N 	0.4338	0.7667	0.80182	-0.226
Mof_N 	N 	0.2117	0.6826	0.9421	-0.25
Mof_N 	N 	0.3715	0.5435	0.8439	-0.183
Mof_N 	N 	0.4814	0.5832	0.8411	-0.159
Mof_C 	C 	0.0089	0.7381	0.7609	0.215
Mof_C 	C 	0.4774	0.8467	0.8273	-0.01
Mof_C 	C 	0.0797	0.6127	0.7185	-0.013
Mof_C 	C 	0.9971	0.8139	0.808	-0.541
Mof_C 	C 	0.0524	0.666	0.9649	-0.074
Mof_C 	C 	0.525	0.5062	0.8454	0.162
Mof_C 	C 	0.2656	0.4723	0.837	-0.036
Mof_C 	C 	0.6471	0.6051	0.8393	-0.098
Mof_C 	C 	0.3136	0.4438	0.8525	-0.295
Mof_H 	H 	0.4406	0.8709	0.8716	-0.006
Mof_H 	H 	0.13	0.5551	0.7126	0.013
Mof_H 	H 	0.9478	0.7954	0.8519	0.16
Mof_H 	H 	0.9275	0.8589	0.7868	0.164
Mof_H 	H 	0.1082	0.8374	0.8164	0.155
Mof_H 	H 	0.9556	0.656	0.9354	0.018
Mof_H 	H 	0.5232	0.7117	0.0478	0.119
Mof_H 	H 	0.5076	0.7616	0.9754	0.102
Mof_H 	H 	0.5397	0.6587	0.9768	0.101
Mof_H 	H 	0.1451	0.4766	0.8314	-0.06
Mof_H 	H 	0.6939	0.664	0.8395	0.004
Mof_H 	H 	0.6859	0.5889	0.8961	0.105
Mof_H 	H 	0.3022	0.4032	0.8137	0.173
Mof_H 	H 	0.2204	0.4847	0.8524	0.174
Mof_C 	C 	0.1982	0.1916	0.5	0.352
Mof_C 	C 	0.0165	0.2072	0.5	-1.052
Mof_C 	C 	0.8018	0.8084	0.5	0.352
Mof_C 	C 	0.9835	0.7928	0.5	-1.052
Mof_C 	C 	0.3018	0.6916	-0	0.326
Mof_C 	C 	0.4835	0.7072	-0	-0.814
Mof_C 	C 	0.6982	0.3084	-0	0.326
Mof_C 	C 	0.5165	0.2928	-0	-0.814
_end
