# CIF file generated by openbabel 3.1.0, see https://openbabel.org
data_I
_chemical_name_common 'image0'
_cell_length_a 9.3619
_cell_length_b 10.1158
_cell_length_c 12.6456
_cell_angle_alpha 98.485
_cell_angle_beta 107.018
_cell_angle_gamma 105.424
_space_group_name_H-M_alt 'P 1'
_space_group_name_Hall 'P 1'
loop_
    _symmetry_equiv_pos_as_xyz
    x,y,z
loop_
    _atom_site_label
    _atom_site_type_symbol
    _atom_site_fract_x
    _atom_site_fract_y
    _atom_site_fract_z
    _atom_site_occupancy
    Ga1      Ga       0.77725    0.09779    0.51184    1.000
    Ga2      Ga       0.78445    0.60168    0.51664    1.000
    Ga3      Ga       0.49811    0.20143    0.22769    1.000
    Ga4      Ga       0.51244    0.69117    0.21973    1.000
    P1       P        0.41700    0.95460    0.32450    1.000
    P2       P        0.42290    0.46470    0.33500    1.000
    P3       P        0.84080    0.33940    0.39230    1.000
    P4       P        0.15500    0.16130    0.60440    1.000
    P5       P        0.49570    0.18960    0.98290    1.000
    O1       O        0.56080    0.05590    0.41980    1.000
    O2       O        0.26830    0.92610    0.35720    1.000
    O3       O        0.83040    0.28490    0.49800    1.000
    O4       O        0.99550    0.14160    0.61910    1.000
    O5       O        0.19090    0.02220    0.59840    1.000
    O6       O        0.56780    0.57030    0.42740    1.000
    O7       O        0.27280    0.45660    0.36410    1.000
    O8       O        0.82170    0.48640    0.40570    1.000
    O9       O        0.99660    0.34780    0.37330    1.000
    O10      O        0.16230    0.21200    0.49750    1.000
    O11      O        0.38440    0.02170    0.22120    1.000
    O12      O        0.43300    0.31530    0.31370    1.000
    O13      O        0.71070    0.23840    0.28360    1.000
    O14      O        0.44580    0.23150    0.08380    1.000
    O15      O        0.43050    0.80870    0.28610    1.000
    O16      O        0.40030    0.51560    0.22340    1.000
    O17      O        0.27580    0.26990    0.71340    1.000
    O18      O        0.53020    0.31840    0.93210    1.000
    O19      O        0.65900    0.16620    0.02840    1.000
    O20      O        0.37200    0.06060    0.89710    1.000
    H1       H        0.63600    0.07600    0.05500    1.000
    Ga5      Ga       0.22275    0.90221    0.48816    1.000
    Ga6      Ga       0.21555    0.39832    0.48336    1.000
    Ga7      Ga       0.50189    0.79857    0.77231    1.000
    Ga8      Ga       0.48756    0.30883    0.78027    1.000
    P6       P        0.58300    0.04540    0.67550    1.000
    P7       P        0.57710    0.53530    0.66500    1.000
    P8       P        0.15920    0.66060    0.60770    1.000
    P9       P        0.84500    0.83870    0.39560    1.000
    P10      P        0.50430    0.81040    0.01710    1.000
    O21      O        0.43920    0.94410    0.58020    1.000
    O22      O        0.73170    0.07390    0.64280    1.000
    O23      O        0.16960    0.71510    0.50200    1.000
    O24      O        0.00450    0.85840    0.38090    1.000
    O25      O        0.80910    0.97780    0.40160    1.000
    O26      O        0.43220    0.42970    0.57260    1.000
    O27      O        0.72720    0.54340    0.63590    1.000
    O28      O        0.17830    0.51360    0.59430    1.000
    O29      O        0.00340    0.65220    0.62670    1.000
    O30      O        0.83770    0.78800    0.50250    1.000
    O31      O        0.61560    0.97830    0.77880    1.000
    O32      O        0.56700    0.68470    0.68630    1.000
    O33      O        0.28930    0.76160    0.71640    1.000
    O34      O        0.55420    0.76850    0.91620    1.000
    O35      O        0.56950    0.19130    0.71390    1.000
    O36      O        0.59970    0.48440    0.77660    1.000
    O37      O        0.72420    0.73010    0.28660    1.000
    O38      O        0.46980    0.68160    0.06790    1.000
    O39      O        0.34100    0.83380    0.97160    1.000
    O40      O        0.62800    0.93940    0.10290    1.000
    H2       H        0.36400    0.92400    0.94500    1.000
