data_functionalizedCrystal
_audit_creation_method	'EQeq! by Chris Wilmer'
_symmetry_space_group_name_H-M	'P1'
_symmetry_Int_Tables_number	1
_symmetry_cell_setting	triclinic
loop_
_symmetry_equiv_pos_as_xyz
  x,y,z
_cell_length_a	29.1925
_cell_length_b	10.4327
_cell_length_c	26.0659
_cell_angle_alpha	90
_cell_angle_beta	114.234
_cell_angle_gamma	90
loop_
_atom_site_label
_atom_site_type_symbol
_atom_site_fract_x
_atom_site_fract_y
_atom_site_fract_z
_atom_site_charge
Mof_Zn	Zn	0.82105	0.62583	0.25321	1.172
Mof_K 	K 	0.77328	0.3641	0.31356	3.549
Mof_O 	O 	0.1066	0.7877	0.2751	-0.249
Mof_O 	O 	0.18547	0.7301	0.31273	-0.757
Mof_O 	O 	0.06676	0.0328	0.2862	-0.43
Mof_O 	O 	0.0324	0.9079	0.3293	-0.28
Mof_O 	O 	0.2035	0.3896	0.67	-0.903
Mof_O 	O 	0.19605	0.2107	0.7086	-0.813
Mof_O 	O 	0.2787	0.0219	0.70913	-0.711
Mof_O 	O 	0.21275	0.8923	0.67946	-0.789
Mof_O 	O 	0.00487	0.1978	0.31907	-0.462
Mof_O 	O 	0.94497	0.3343	0.27007	-0.288
Mof_O 	O 	0.88815	0.5666	0.30267	-0.489
Mof_O 	O 	0.86424	0.3681	0.31123	-0.718
Mof_C 	C 	0.1763	0.9977	0.4673	0.043
Mof_C 	C 	0.1305	0.0071	0.4211	-0.116
Mof_H 	H 	0.1058	0.0609	0.4231	0.071
Mof_C 	C 	0.12034	0.9384	0.3719	0.016
Mof_C 	C 	0.15782	0.8595	0.3683	-0.212
Mof_C 	C 	0.2034	0.8515	0.4142	0.065
Mof_H 	H 	0.2283	0.7992	0.4121	-0.121
Mof_C 	C 	0.2132	0.9189	0.4635	-0.173
Mof_H 	H 	0.2442	0.9115	0.4938	0.049
Mof_C 	C 	0.0689	0.9568	0.3251	0.303
Mof_C 	C 	0.1479	0.7787	0.317	0.421
Mof_C 	C 	0.1853	0.0687	0.5197	-0
Mof_C 	C 	0.20495	0.0054	0.57159	-0.026
Mof_H 	H 	0.2135	0.9193	0.5728	-0.028
Mof_C 	C 	0.21204	0.0676	0.62124	-0.075
Mof_C 	C 	0.1994	0.1973	0.6196	-0.212
Mof_C 	C 	0.1814	0.2621	0.5688	0.099
Mof_H 	H 	0.1742	0.3491	0.568	-0.073
Mof_C 	C 	0.1738	0.1988	0.5192	-0.145
Mof_H 	H 	0.161	0.2434	0.4853	0.063
Mof_C 	C 	0.23448	0.9884	0.67411	0.433
Mof_C 	C 	0.2008	0.2697	0.6701	0.582
Mof_C 	C 	0.9964	0.4701	0.4726	0.1
Mof_C 	C 	0.95333	0.4913	0.4241	-0.07
Mof_H 	H 	0.9287	0.5454	0.4258	0.021
Mof_C 	C 	0.94567	0.4342	0.3728	-0.08
Mof_C 	C 	0.982	0.3535	0.3693	-0.028
Mof_C 	C 	0.0248	0.3318	0.4176	-0.02
Mof_H 	H 	0.0493	0.2768	0.416	0.041
Mof_C 	C 	0.0323	0.3892	0.4682	-0.144
Mof_H 	H 	0.0619	0.3733	0.4997	0.062
Mof_C 	C 	0.89525	0.4554	0.3242	0.442
Mof_C 	C 	0.976	0.2919	0.3151	0.354
Mof_O 	O 	0.1034	0.7404	0.2901	-0.075
Mof_Zn	Zn	0.32105	0.12583	0.25321	1.173
Mof_K 	K 	0.27328	0.8641	0.31356	3.543
Mof_O 	O 	0.6066	0.2877	0.2751	-0.246
Mof_O 	O 	0.68547	0.2301	0.31273	-0.755
Mof_O 	O 	0.56676	0.5328	0.2862	-0.425
Mof_O 	O 	0.5324	0.4079	0.3293	-0.268
Mof_O 	O 	0.7035	0.8896	0.67	-0.901
Mof_O 	O 	0.69605	0.7107	0.7086	-0.813
Mof_O 	O 	0.7787	0.5219	0.70913	-0.71
Mof_O 	O 	0.71275	0.3923	0.67946	-0.788
Mof_O 	O 	0.50487	0.6978	0.31907	-0.434
Mof_O 	O 	0.44497	0.8343	0.27007	-0.285
Mof_O 	O 	0.38815	0.0666	0.30267	-0.492
Mof_O 	O 	0.36424	0.8681	0.31123	-0.721
Mof_C 	C 	0.6763	0.4977	0.4673	0.049
Mof_C 	C 	0.6305	0.5071	0.4211	-0.123
Mof_H 	H 	0.6058	0.5609	0.4231	0.075
Mof_C 	C 	0.62034	0.4384	0.3719	0.022
Mof_C 	C 	0.65782	0.3595	0.3683	-0.214
Mof_C 	C 	0.7034	0.3515	0.4142	0.068
Mof_H 	H 	0.7283	0.2992	0.4121	-0.122
Mof_C 	C 	0.7132	0.4189	0.4635	-0.177
Mof_H 	H 	0.7442	0.4115	0.4938	0.051
Mof_C 	C 	0.5689	0.4568	0.3251	0.301
Mof_C 	C 	0.6479	0.2787	0.317	0.421
Mof_C 	C 	0.6853	0.5687	0.5197	-0.003
Mof_C 	C 	0.70495	0.5054	0.57159	-0.025
Mof_H 	H 	0.7135	0.4193	0.5728	-0.028
Mof_C 	C 	0.71204	0.5676	0.62124	-0.074
Mof_C 	C 	0.6994	0.6973	0.6196	-0.211
Mof_C 	C 	0.6814	0.7621	0.5688	0.099
Mof_H 	H 	0.6742	0.8491	0.568	-0.072
Mof_C 	C 	0.6738	0.6988	0.5192	-0.142
Mof_H 	H 	0.661	0.7434	0.4853	0.063
Mof_C 	C 	0.73448	0.4884	0.67411	0.432
Mof_C 	C 	0.7008	0.7697	0.6701	0.582
Mof_C 	C 	0.4964	0.9701	0.4726	-0.006
Mof_C 	C 	0.45333	0.9913	0.4241	-0.021
Mof_H 	H 	0.4287	0.0454	0.4258	0.001
Mof_C 	C 	0.44567	0.9342	0.3728	-0.104
Mof_C 	C 	0.482	0.8535	0.3693	-0.03
Mof_C 	C 	0.5248	0.8318	0.4176	-0.029
Mof_H 	H 	0.5493	0.7768	0.416	0.048
Mof_C 	C 	0.5323	0.8892	0.4682	-0.062
Mof_H 	H 	0.5619	0.8733	0.4997	0.035
Mof_C 	C 	0.39525	0.9554	0.3242	0.449
Mof_C 	C 	0.476	0.7919	0.3151	0.319
Mof_O 	O 	0.6034	0.2404	0.2901	-0.071
Mof_Zn	Zn	0.17895	0.62583	0.24679	1.172
Mof_K 	K 	0.22672	0.3641	0.18644	3.546
Mof_O 	O 	0.8934	0.7877	0.2249	-0.245
Mof_O 	O 	0.81453	0.7301	0.18727	-0.754
Mof_O 	O 	0.93324	0.0328	0.2138	-0.414
Mof_O 	O 	0.9676	0.9079	0.1707	-0.257
Mof_O 	O 	0.7965	0.3896	0.83	-0.902
Mof_O 	O 	0.80395	0.2107	0.7914	-0.812
Mof_O 	O 	0.7213	0.0219	0.79087	-0.712
Mof_O 	O 	0.78725	0.8923	0.82054	-0.787
Mof_O 	O 	0.99513	0.1978	0.18093	-0.402
Mof_O 	O 	0.05503	0.3343	0.22993	-0.281
Mof_O 	O 	0.11185	0.5666	0.19733	-0.498
Mof_O 	O 	0.13576	0.3681	0.18877	-0.724
Mof_C 	C 	0.8237	0.9977	0.0327	0.044
Mof_C 	C 	0.8695	0.0071	0.0789	-0.115
Mof_H 	H 	0.8942	0.0609	0.0769	0.075
Mof_C 	C 	0.87966	0.9384	0.1281	0.019
Mof_C 	C 	0.84218	0.8595	0.1317	-0.211
Mof_C 	C 	0.7966	0.8515	0.0858	0.065
Mof_H 	H 	0.7717	0.7992	0.0879	-0.12
Mof_C 	C 	0.7868	0.9189	0.0365	-0.172
Mof_H 	H 	0.7558	0.9115	0.0062	0.05
Mof_C 	C 	0.9311	0.9568	0.1749	0.297
Mof_C 	C 	0.8521	0.7787	0.183	0.42
Mof_C 	C 	0.8147	0.0687	0.9803	0.002
Mof_C 	C 	0.79505	0.0054	0.92841	-0.028
Mof_H 	H 	0.7865	0.9193	0.9272	-0.027
Mof_C 	C 	0.78796	0.0676	0.87876	-0.072
Mof_C 	C 	0.8006	0.1973	0.8804	-0.214
Mof_C 	C 	0.8186	0.2621	0.9312	0.105
Mof_H 	H 	0.8258	0.3491	0.932	-0.075
Mof_C 	C 	0.8262	0.1988	0.9808	-0.152
Mof_H 	H 	0.839	0.2434	0.0147	0.069
Mof_C 	C 	0.76552	0.9884	0.82589	0.433
Mof_C 	C 	0.7992	0.2697	0.8299	0.583
Mof_C 	C 	0.0036	0.4701	0.0274	-0.106
Mof_C 	C 	0.04667	0.4913	0.0759	0.028
Mof_H 	H 	0.0713	0.5454	0.0742	-0.019
Mof_C 	C 	0.05433	0.4342	0.1272	-0.128
Mof_C 	C 	0.018	0.3535	0.1307	-0.032
Mof_C 	C 	0.9752	0.3318	0.0824	-0.037
Mof_H 	H 	0.9507	0.2768	0.084	0.056
Mof_C 	C 	0.9677	0.3892	0.0318	0.015
Mof_H 	H 	0.9381	0.3733	0.0003	0.011
Mof_C 	C 	0.10475	0.4554	0.1758	0.458
Mof_C 	C 	0.024	0.2919	0.1849	0.284
Mof_O 	O 	0.8966	0.7404	0.2099	-0.067
Mof_Zn	Zn	0.67895	0.12583	0.24679	1.173
Mof_K 	K 	0.72672	0.8641	0.18644	3.544
Mof_O 	O 	0.3934	0.2877	0.2249	-0.246
Mof_O 	O 	0.31453	0.2301	0.18727	-0.755
Mof_O 	O 	0.43324	0.5328	0.2138	-0.425
Mof_O 	O 	0.4676	0.4079	0.1707	-0.268
Mof_O 	O 	0.2965	0.8896	0.83	-0.901
Mof_O 	O 	0.30395	0.7107	0.7914	-0.812
Mof_O 	O 	0.2213	0.5219	0.79087	-0.711
Mof_O 	O 	0.28725	0.3923	0.82054	-0.788
Mof_O 	O 	0.49513	0.6978	0.18093	-0.434
Mof_O 	O 	0.55503	0.8343	0.22993	-0.285
Mof_O 	O 	0.61185	0.0666	0.19733	-0.492
Mof_O 	O 	0.63576	0.8681	0.18877	-0.721
Mof_C 	C 	0.3237	0.4977	0.0327	0.052
Mof_C 	C 	0.3695	0.5071	0.0789	-0.125
Mof_H 	H 	0.3942	0.5609	0.0769	0.076
Mof_C 	C 	0.37966	0.4384	0.1281	0.023
Mof_C 	C 	0.34218	0.3595	0.1317	-0.214
Mof_C 	C 	0.2966	0.3515	0.0858	0.07
Mof_H 	H 	0.2717	0.2992	0.0879	-0.122
Mof_C 	C 	0.2868	0.4189	0.0365	-0.178
Mof_H 	H 	0.2558	0.4115	0.0062	0.052
Mof_C 	C 	0.4311	0.4568	0.1749	0.301
Mof_C 	C 	0.3521	0.2787	0.183	0.422
Mof_C 	C 	0.3147	0.5687	0.9803	-0.005
Mof_C 	C 	0.29505	0.5054	0.92841	-0.024
Mof_H 	H 	0.2865	0.4193	0.9272	-0.029
Mof_C 	C 	0.28796	0.5676	0.87876	-0.074
Mof_C 	C 	0.3006	0.6973	0.8804	-0.212
Mof_C 	C 	0.3186	0.7621	0.9312	0.1
Mof_H 	H 	0.3258	0.8491	0.932	-0.073
Mof_C 	C 	0.3262	0.6988	0.9808	-0.145
Mof_H 	H 	0.339	0.7434	0.0147	0.065
Mof_C 	C 	0.26552	0.4884	0.82589	0.432
Mof_C 	C 	0.2992	0.7697	0.8299	0.582
Mof_C 	C 	0.5036	0.9701	0.0274	-0.001
Mof_C 	C 	0.54667	0.9913	0.0759	-0.025
Mof_H 	H 	0.5713	0.0454	0.0742	0.004
Mof_C 	C 	0.55433	0.9342	0.1272	-0.102
Mof_C 	C 	0.518	0.8535	0.1307	-0.032
Mof_C 	C 	0.4752	0.8318	0.0824	-0.027
Mof_H 	H 	0.4507	0.7768	0.084	0.048
Mof_C 	C 	0.4677	0.8892	0.0318	-0.066
Mof_H 	H 	0.4381	0.8733	0.0003	0.037
Mof_C 	C 	0.60475	0.9554	0.1758	0.447
Mof_C 	C 	0.524	0.7919	0.1849	0.32
Mof_O 	O 	0.3966	0.2404	0.2099	-0.071
Mof_Zn	Zn	0.17895	0.37417	0.74679	1.173
Mof_K 	K 	0.22672	0.6359	0.68644	3.545
Mof_O 	O 	0.8934	0.2123	0.7249	-0.245
Mof_O 	O 	0.81453	0.2699	0.68727	-0.754
Mof_O 	O 	0.93324	0.9672	0.7138	-0.415
Mof_O 	O 	0.9676	0.0921	0.6707	-0.256
Mof_O 	O 	0.7965	0.6104	0.33	-0.902
Mof_O 	O 	0.80395	0.7893	0.2914	-0.812
Mof_O 	O 	0.7213	0.9781	0.29087	-0.712
Mof_O 	O 	0.78725	0.1077	0.32054	-0.788
Mof_O 	O 	0.99513	0.8022	0.68093	-0.402
Mof_O 	O 	0.05503	0.6657	0.72993	-0.281
Mof_O 	O 	0.11185	0.4334	0.69733	-0.498
Mof_O 	O 	0.13576	0.6319	0.68877	-0.724
Mof_C 	C 	0.8237	0.0023	0.5327	0.046
Mof_C 	C 	0.8695	0.9929	0.5789	-0.119
Mof_H 	H 	0.8942	0.9391	0.5769	0.075
Mof_C 	C 	0.87966	0.0616	0.6281	0.022
Mof_C 	C 	0.84218	0.1405	0.6317	-0.212
Mof_C 	C 	0.7966	0.1485	0.5858	0.067
Mof_H 	H 	0.7717	0.2008	0.5879	-0.121
Mof_C 	C 	0.7868	0.0811	0.5365	-0.174
Mof_H 	H 	0.7558	0.0885	0.5062	0.05
Mof_C 	C 	0.9311	0.0432	0.6749	0.297
Mof_C 	C 	0.8521	0.2213	0.683	0.42
Mof_C 	C 	0.8147	0.9313	0.4803	-0
Mof_C 	C 	0.79505	0.9946	0.42841	-0.025
Mof_H 	H 	0.7865	0.0807	0.4272	-0.028
Mof_C 	C 	0.78796	0.9324	0.37876	-0.074
Mof_C 	C 	0.8006	0.8027	0.3804	-0.211
Mof_C 	C 	0.8186	0.7379	0.4312	0.1
Mof_H 	H 	0.8258	0.6509	0.432	-0.072
Mof_C 	C 	0.8262	0.8012	0.4808	-0.143
Mof_H 	H 	0.839	0.7566	0.5147	0.064
Mof_C 	C 	0.76552	0.0116	0.32589	0.433
Mof_C 	C 	0.7992	0.7303	0.3299	0.583
Mof_C 	C 	0.0036	0.5299	0.5274	-0.114
Mof_C 	C 	0.04667	0.5087	0.5759	0.032
Mof_H 	H 	0.0713	0.4546	0.5742	-0.022
Mof_C 	C 	0.05433	0.5658	0.6272	-0.131
Mof_C 	C 	0.018	0.6465	0.6307	-0.03
Mof_C 	C 	0.9752	0.6682	0.5824	-0.04
Mof_H 	H 	0.9507	0.7232	0.584	0.056
Mof_C 	C 	0.9677	0.6108	0.5318	0.02
Mof_H 	H 	0.9381	0.6267	0.5003	0.009
Mof_C 	C 	0.10475	0.5446	0.6758	0.458
Mof_C 	C 	0.024	0.7081	0.6849	0.283
Mof_O 	O 	0.8966	0.2596	0.7099	-0.067
Mof_Zn	Zn	0.67895	0.87417	0.74679	1.173
Mof_K 	K 	0.72672	0.1359	0.68644	3.545
Mof_O 	O 	0.3934	0.7123	0.7249	-0.246
Mof_O 	O 	0.31453	0.7699	0.68727	-0.755
Mof_O 	O 	0.43324	0.4672	0.7138	-0.425
Mof_O 	O 	0.4676	0.5921	0.6707	-0.268
Mof_O 	O 	0.2965	0.1104	0.33	-0.901
Mof_O 	O 	0.30395	0.2893	0.2914	-0.812
Mof_O 	O 	0.2213	0.4781	0.29087	-0.711
Mof_O 	O 	0.28725	0.6077	0.32054	-0.788
Mof_O 	O 	0.49513	0.3022	0.68093	-0.434
Mof_O 	O 	0.55503	0.1657	0.72993	-0.285
Mof_O 	O 	0.61185	0.9334	0.69733	-0.493
Mof_O 	O 	0.63576	0.1319	0.68877	-0.721
Mof_C 	C 	0.3237	0.5023	0.5327	0.049
Mof_C 	C 	0.3695	0.4929	0.5789	-0.123
Mof_H 	H 	0.3942	0.4391	0.5769	0.075
Mof_C 	C 	0.37966	0.5616	0.6281	0.022
Mof_C 	C 	0.34218	0.6405	0.6317	-0.214
Mof_C 	C 	0.2966	0.6485	0.5858	0.068
Mof_H 	H 	0.2717	0.7008	0.5879	-0.122
Mof_C 	C 	0.2868	0.5811	0.5365	-0.176
Mof_H 	H 	0.2558	0.5885	0.5062	0.05
Mof_C 	C 	0.4311	0.5432	0.6749	0.301
Mof_C 	C 	0.3521	0.7213	0.683	0.421
Mof_C 	C 	0.3147	0.4313	0.4803	-0.003
Mof_C 	C 	0.29505	0.4946	0.42841	-0.025
Mof_H 	H 	0.2865	0.5807	0.4272	-0.028
Mof_C 	C 	0.28796	0.4324	0.37876	-0.074
Mof_C 	C 	0.3006	0.3027	0.3804	-0.211
Mof_C 	C 	0.3186	0.2379	0.4312	0.099
Mof_H 	H 	0.3258	0.1509	0.432	-0.072
Mof_C 	C 	0.3262	0.3012	0.4808	-0.142
Mof_H 	H 	0.339	0.2566	0.5147	0.063
Mof_C 	C 	0.26552	0.5116	0.32589	0.432
Mof_C 	C 	0.2992	0.2303	0.3299	0.582
Mof_C 	C 	0.5036	0.0299	0.5274	-0.006
Mof_C 	C 	0.54667	0.0087	0.5759	-0.02
Mof_H 	H 	0.5713	0.9546	0.5742	0.001
Mof_C 	C 	0.55433	0.0658	0.6272	-0.104
Mof_C 	C 	0.518	0.1465	0.6307	-0.03
Mof_C 	C 	0.4752	0.1682	0.5824	-0.029
Mof_H 	H 	0.4507	0.2232	0.584	0.049
Mof_C 	C 	0.4677	0.1108	0.5318	-0.062
Mof_H 	H 	0.4381	0.1267	0.5003	0.035
Mof_C 	C 	0.60475	0.0446	0.6758	0.449
Mof_C 	C 	0.524	0.2081	0.6849	0.319
Mof_O 	O 	0.3966	0.7596	0.7099	-0.071
Mof_Zn	Zn	0.82105	0.37417	0.75321	1.173
Mof_K 	K 	0.77328	0.6359	0.81356	3.549
Mof_O 	O 	0.1066	0.2123	0.7751	-0.247
Mof_O 	O 	0.18547	0.2699	0.81273	-0.755
Mof_O 	O 	0.06676	0.9672	0.7862	-0.429
Mof_O 	O 	0.0324	0.0921	0.8293	-0.28
Mof_O 	O 	0.2035	0.6104	0.17	-0.902
Mof_O 	O 	0.19605	0.7893	0.2086	-0.813
Mof_O 	O 	0.2787	0.9781	0.20913	-0.712
Mof_O 	O 	0.21275	0.1077	0.17946	-0.789
Mof_O 	O 	0.00487	0.8022	0.81907	-0.462
Mof_O 	O 	0.94497	0.6657	0.77007	-0.288
Mof_O 	O 	0.88815	0.4334	0.80267	-0.489
Mof_O 	O 	0.86424	0.6319	0.81123	-0.718
Mof_C 	C 	0.1763	0.0023	0.9673	0.037
Mof_C 	C 	0.1305	0.9929	0.9211	-0.111
Mof_H 	H 	0.1058	0.9391	0.9231	0.07
Mof_C 	C 	0.12034	0.0616	0.8719	0.013
Mof_C 	C 	0.15782	0.1405	0.8683	-0.21
Mof_C 	C 	0.2034	0.1485	0.9142	0.062
Mof_H 	H 	0.2283	0.2008	0.9121	-0.12
Mof_C 	C 	0.2132	0.0811	0.9635	-0.169
Mof_H 	H 	0.2442	0.0885	0.9938	0.047
Mof_C 	C 	0.0689	0.0432	0.8251	0.303
Mof_C 	C 	0.1479	0.2213	0.817	0.42
Mof_C 	C 	0.1853	0.9313	0.0197	0.003
Mof_C 	C 	0.20495	0.9946	0.07159	-0.029
Mof_H 	H 	0.2135	0.0807	0.0728	-0.026
Mof_C 	C 	0.21204	0.9324	0.12124	-0.074
Mof_C 	C 	0.1994	0.8027	0.1196	-0.212
Mof_C 	C 	0.1814	0.7379	0.0688	0.099
Mof_H 	H 	0.1742	0.6509	0.068	-0.073
Mof_C 	C 	0.1738	0.8012	0.0192	-0.143
Mof_H 	H 	0.161	0.7566	0.9853	0.062
Mof_C 	C 	0.23448	0.0116	0.17411	0.434
Mof_C 	C 	0.2008	0.7303	0.1701	0.582
Mof_C 	C 	0.9964	0.5299	0.9726	0.092
Mof_C 	C 	0.95333	0.5087	0.9241	-0.066
Mof_H 	H 	0.9287	0.4546	0.9258	0.019
Mof_C 	C 	0.94567	0.5658	0.8728	-0.082
Mof_C 	C 	0.982	0.6465	0.8693	-0.026
Mof_C 	C 	0.0248	0.6682	0.9176	-0.024
Mof_H 	H 	0.0493	0.7232	0.916	0.042
Mof_C 	C 	0.0323	0.6108	0.9682	-0.139
Mof_H 	H 	0.0619	0.6267	0.9997	0.059
Mof_C 	C 	0.89525	0.5446	0.8242	0.443
Mof_C 	C 	0.976	0.7081	0.8151	0.353
Mof_O 	O 	0.1034	0.2596	0.7901	-0.075
Mof_Zn	Zn	0.32105	0.87417	0.75321	1.173
Mof_K 	K 	0.27328	0.1359	0.81356	3.542
Mof_O 	O 	0.6066	0.7123	0.7751	-0.246
Mof_O 	O 	0.68547	0.7699	0.81273	-0.755
Mof_O 	O 	0.56676	0.4672	0.7862	-0.425
Mof_O 	O 	0.5324	0.5921	0.8293	-0.268
Mof_O 	O 	0.7035	0.1104	0.17	-0.901
Mof_O 	O 	0.69605	0.2893	0.2086	-0.812
Mof_O 	O 	0.7787	0.4781	0.20913	-0.711
Mof_O 	O 	0.71275	0.6077	0.17946	-0.788
Mof_O 	O 	0.50487	0.3022	0.81907	-0.434
Mof_O 	O 	0.44497	0.1657	0.77007	-0.285
Mof_O 	O 	0.38815	0.9334	0.80267	-0.492
Mof_O 	O 	0.36424	0.1319	0.81123	-0.721
Mof_C 	C 	0.6763	0.5023	0.9673	0.047
Mof_C 	C 	0.6305	0.4929	0.9211	-0.122
Mof_H 	H 	0.6058	0.4391	0.9231	0.074
Mof_C 	C 	0.62034	0.5616	0.8719	0.021
Mof_C 	C 	0.65782	0.6405	0.8683	-0.213
Mof_C 	C 	0.7034	0.6485	0.9142	0.067
Mof_H 	H 	0.7283	0.7008	0.9121	-0.121
Mof_C 	C 	0.7132	0.5811	0.9635	-0.175
Mof_H 	H 	0.7442	0.5885	0.9938	0.049
Mof_C 	C 	0.5689	0.5432	0.8251	0.301
Mof_C 	C 	0.6479	0.7213	0.817	0.421
Mof_C 	C 	0.6853	0.4313	0.0197	-0.003
Mof_C 	C 	0.70495	0.4946	0.07159	-0.024
Mof_H 	H 	0.7135	0.5807	0.0728	-0.028
Mof_C 	C 	0.71204	0.4324	0.12124	-0.074
Mof_C 	C 	0.6994	0.3027	0.1196	-0.209
Mof_C 	C 	0.6814	0.2379	0.0688	0.095
Mof_H 	H 	0.6742	0.1509	0.068	-0.07
Mof_C 	C 	0.6738	0.3012	0.0192	-0.136
Mof_H 	H 	0.661	0.2566	0.9853	0.059
Mof_C 	C 	0.73448	0.5116	0.17411	0.432
Mof_C 	C 	0.7008	0.2303	0.1701	0.582
Mof_C 	C 	0.4964	0.0299	0.9726	-0.011
Mof_C 	C 	0.45333	0.0087	0.9241	-0.02
Mof_H 	H 	0.4287	0.9546	0.9258	0
Mof_C 	C 	0.44567	0.0658	0.8728	-0.105
Mof_C 	C 	0.482	0.1465	0.8693	-0.029
Mof_C 	C 	0.5248	0.1682	0.9176	-0.032
Mof_H 	H 	0.5493	0.2232	0.916	0.049
Mof_C 	C 	0.5323	0.1108	0.9682	-0.06
Mof_H 	H 	0.5619	0.1267	0.9997	0.033
Mof_C 	C 	0.39525	0.0446	0.8242	0.449
Mof_C 	C 	0.476	0.2081	0.8151	0.319
Mof_O 	O 	0.6034	0.7596	0.7901	-0.071
Mof_Zn	Zn	1.1805e-33	0.11405	0.25	1.234
Mof_Zn	Zn	0.5	0.61405	0.25	1.243
Mof_Zn	Zn	-6.28193e-17	0.88595	0.75	1.234
Mof_Zn	Zn	0.5	0.38595	0.75	1.243
_end
