data_functionalizedCrystal
_audit_creation_method	'EQeq! by Chris Wilmer'
_symmetry_space_group_name_H-M	'P1'
_symmetry_Int_Tables_number	1
_symmetry_cell_setting	triclinic
loop_
_symmetry_equiv_pos_as_xyz
  x,y,z
_cell_length_a	34.681
_cell_length_b	15.3678
_cell_length_c	13.7141
_cell_angle_alpha	90
_cell_angle_beta	112.169
_cell_angle_gamma	90
loop_
_atom_site_label
_atom_site_type_symbol
_atom_site_fract_x
_atom_site_fract_y
_atom_site_fract_z
_atom_site_charge
Mof_Zn	Zn	0.11197	0.22069	0.06584	1.219
Mof_Zn	Zn	0.20146	0.27979	0.14487	1.22
Mof_S 	S 	0.16737	0.51249	0.34555	0.084
Mof_S 	S 	0.1457	0.01795	0.37187	0.065
Mof_O 	O 	0.17743	0.3691	0.2149	-0.465
Mof_O 	O 	0.11071	0.3303	0.1469	-0.47
Mof_O 	O 	0.18168	0.6441	0.513	-0.454
Mof_O 	O 	0.11673	0.6958	0.4526	-0.47
Mof_O 	O 	0.19776	0.189	0.2502	-0.463
Mof_O 	O 	0.13068	0.1525	0.2026	-0.453
Mof_O 	O 	0.20189	0.8241	0.5537	-0.463
Mof_O 	O 	0.13676	0.8747	0.5052	-0.462
Mof_N 	N 	0.26289	0.3085	0.2106	-0.267
Mof_N 	N 	0.55049	0.3022	0.4898	-0.286
Mof_C 	C 	0.1399	0.3782	0.2013	0.412
Mof_C 	C 	0.12954	0.4522	0.2544	-0.113
Mof_C 	C 	0.0902	0.4812	0.2422	-0.002
Mof_H 	H 	0.0656	0.4561	0.1963	0.042
Mof_C 	C 	0.0916	0.5532	0.3073	-0.008
Mof_H 	H 	0.0681	0.5814	0.3084	0.042
Mof_C 	C 	0.1315	0.5769	0.3687	-0.112
Mof_C 	C 	0.1442	0.6447	0.4516	0.397
Mof_C 	C 	0.2902	0.2638	0.1826	0.12
Mof_H 	H 	0.2801	0.2218	0.1303	-0.007
Mof_C 	C 	0.3326	0.2771	0.2276	-0.203
Mof_H 	H 	0.3503	0.2441	0.2056	0.108
Mof_C 	C 	0.3487	0.3382	0.3042	0.164
Mof_C 	C 	0.3207	0.3857	0.3311	-0.211
Mof_H 	H 	0.3302	0.4294	0.3815	0.111
Mof_C 	C 	0.2787	0.3693	0.2841	0.129
Mof_H 	H 	0.2605	0.4021	0.3045	-0.013
Mof_C 	C 	0.3948	0.3518	0.3587	-0.161
Mof_H 	H 	0.3997	0.413	0.3766	0.079
Mof_H 	H 	0.4042	0.3193	0.4241	0.08
Mof_C 	C 	0.4201	0.3266	0.2996	-0.205
Mof_H 	H 	0.4159	0.3686	0.2437	0.094
Mof_H 	H 	0.4106	0.2705	0.267	0.093
Mof_C 	C 	0.169	0.1446	0.258	0.391
Mof_C 	C 	0.1814	0.0746	0.3383	-0.101
Mof_C 	C 	0.1737	0.8772	0.508	0.392
Mof_C 	C 	0.18403	0.9506	0.4523	-0.105
Mof_C 	C 	0.2206	0.0416	0.3872	-0.005
Mof_H 	H 	0.244	0.064	0.3783	0.048
Mof_C 	C 	0.2219	0.9711	0.4514	-0.005
Mof_H 	H 	0.2462	0.941	0.4898	0.051
Mof_C 	C 	0.5351	0.3734	0.4444	0.177
Mof_H 	H 	0.5529	0.4205	0.453	-0.042
Mof_C 	C 	0.4936	0.3844	0.3831	-0.272
Mof_H 	H 	0.4844	0.4383	0.3522	0.123
Mof_C 	C 	0.4666	0.3209	0.367	0.204
Mof_C 	C 	0.4835	0.2421	0.4112	-0.234
Mof_H 	H 	0.4661	0.1941	0.4008	0.112
Mof_C 	C 	0.5249	0.2327	0.4697	0.131
Mof_H 	H 	0.5356	0.1782	0.4957	-0.02
Mof_Zn	Zn	0.61197	0.72069	0.06584	1.218
Mof_Zn	Zn	0.70146	0.77979	0.14487	1.219
Mof_S 	S 	0.66737	0.01249	0.34555	0.083
Mof_S 	S 	0.6457	0.51795	0.37187	0.064
Mof_O 	O 	0.67743	0.8691	0.2149	-0.465
Mof_O 	O 	0.61071	0.8303	0.1469	-0.47
Mof_O 	O 	0.68168	0.1441	0.513	-0.455
Mof_O 	O 	0.61673	0.1958	0.4526	-0.471
Mof_O 	O 	0.69776	0.689	0.2502	-0.464
Mof_O 	O 	0.63068	0.6525	0.2026	-0.454
Mof_O 	O 	0.70189	0.3241	0.5537	-0.464
Mof_O 	O 	0.63676	0.3747	0.5052	-0.463
Mof_N 	N 	0.76289	0.8085	0.2106	-0.268
Mof_N 	N 	0.05049	0.8022	0.4898	-0.287
Mof_C 	C 	0.6399	0.8782	0.2013	0.411
Mof_C 	C 	0.62954	0.9522	0.2544	-0.114
Mof_C 	C 	0.5902	0.9812	0.2422	-0.002
Mof_H 	H 	0.5656	0.9561	0.1963	0.041
Mof_C 	C 	0.5916	0.0532	0.3073	-0.01
Mof_H 	H 	0.5681	0.0814	0.3084	0.041
Mof_C 	C 	0.6315	0.0769	0.3687	-0.112
Mof_C 	C 	0.6442	0.1447	0.4516	0.397
Mof_C 	C 	0.7902	0.7638	0.1826	0.12
Mof_H 	H 	0.7801	0.7218	0.1303	-0.007
Mof_C 	C 	0.8326	0.7771	0.2276	-0.203
Mof_H 	H 	0.8503	0.7441	0.2056	0.108
Mof_C 	C 	0.8487	0.8382	0.3042	0.164
Mof_C 	C 	0.8207	0.8857	0.3311	-0.211
Mof_H 	H 	0.8302	0.9294	0.3815	0.111
Mof_C 	C 	0.7787	0.8693	0.2841	0.129
Mof_H 	H 	0.7605	0.9021	0.3045	-0.013
Mof_C 	C 	0.8948	0.8518	0.3587	-0.16
Mof_H 	H 	0.8997	0.913	0.3766	0.079
Mof_H 	H 	0.9042	0.8193	0.4241	0.08
Mof_C 	C 	0.9201	0.8266	0.2996	-0.205
Mof_H 	H 	0.9159	0.8686	0.2437	0.095
Mof_H 	H 	0.9106	0.7705	0.267	0.093
Mof_C 	C 	0.669	0.6446	0.258	0.391
Mof_C 	C 	0.6814	0.5746	0.3383	-0.101
Mof_C 	C 	0.6737	0.3772	0.508	0.392
Mof_C 	C 	0.68403	0.4506	0.4523	-0.105
Mof_C 	C 	0.7206	0.5416	0.3872	-0.005
Mof_H 	H 	0.744	0.564	0.3783	0.048
Mof_C 	C 	0.7219	0.4711	0.4514	-0.005
Mof_H 	H 	0.7462	0.441	0.4898	0.051
Mof_C 	C 	0.0351	0.8734	0.4444	0.177
Mof_H 	H 	0.0529	0.9205	0.453	-0.042
Mof_C 	C 	0.9936	0.8844	0.3831	-0.272
Mof_H 	H 	0.9844	0.9383	0.3522	0.123
Mof_C 	C 	0.9666	0.8209	0.367	0.204
Mof_C 	C 	0.9835	0.7421	0.4112	-0.234
Mof_H 	H 	0.9661	0.6941	0.4008	0.112
Mof_C 	C 	0.0249	0.7327	0.4697	0.131
Mof_H 	H 	0.0356	0.6782	0.4957	-0.02
Mof_Zn	Zn	0.11197	0.77931	0.56584	1.218
Mof_Zn	Zn	0.20146	0.72021	0.64487	1.219
Mof_S 	S 	0.16737	0.48751	0.84555	0.084
Mof_S 	S 	0.1457	0.98205	0.87187	0.063
Mof_O 	O 	0.17743	0.6309	0.7149	-0.466
Mof_O 	O 	0.11071	0.6697	0.6469	-0.47
Mof_O 	O 	0.18168	0.3559	0.013	-0.455
Mof_O 	O 	0.11673	0.3042	0.9526	-0.471
Mof_O 	O 	0.19776	0.811	0.7502	-0.464
Mof_O 	O 	0.13068	0.8475	0.7026	-0.454
Mof_O 	O 	0.20189	0.1759	0.0537	-0.464
Mof_O 	O 	0.13676	0.1253	0.0052	-0.463
Mof_N 	N 	0.26289	0.6915	0.7106	-0.268
Mof_N 	N 	0.55049	0.6978	0.9898	-0.287
Mof_C 	C 	0.1399	0.6218	0.7013	0.411
Mof_C 	C 	0.12954	0.5478	0.7544	-0.114
Mof_C 	C 	0.0902	0.5188	0.7422	-0.003
Mof_H 	H 	0.0656	0.5439	0.6963	0.041
Mof_C 	C 	0.0916	0.4468	0.8073	-0.009
Mof_H 	H 	0.0681	0.4186	0.8084	0.041
Mof_C 	C 	0.1315	0.4231	0.8687	-0.112
Mof_C 	C 	0.1442	0.3553	0.9516	0.397
Mof_C 	C 	0.2902	0.7362	0.6826	0.12
Mof_H 	H 	0.2801	0.7782	0.6303	-0.007
Mof_C 	C 	0.3326	0.7229	0.7276	-0.203
Mof_H 	H 	0.3503	0.7559	0.7056	0.108
Mof_C 	C 	0.3487	0.6618	0.8042	0.164
Mof_C 	C 	0.3207	0.6143	0.8311	-0.211
Mof_H 	H 	0.3302	0.5706	0.8815	0.111
Mof_C 	C 	0.2787	0.6307	0.7841	0.129
Mof_H 	H 	0.2605	0.5979	0.8045	-0.013
Mof_C 	C 	0.3948	0.6482	0.8587	-0.16
Mof_H 	H 	0.3997	0.587	0.8766	0.079
Mof_H 	H 	0.4042	0.6807	0.9241	0.08
Mof_C 	C 	0.4201	0.6734	0.7996	-0.205
Mof_H 	H 	0.4159	0.6314	0.7437	0.094
Mof_H 	H 	0.4106	0.7295	0.767	0.093
Mof_C 	C 	0.169	0.8554	0.758	0.391
Mof_C 	C 	0.1814	0.9254	0.8383	-0.101
Mof_C 	C 	0.1737	0.1228	0.008	0.391
Mof_C 	C 	0.18403	0.0494	0.9523	-0.104
Mof_C 	C 	0.2206	0.9584	0.8872	-0.006
Mof_H 	H 	0.244	0.936	0.8783	0.049
Mof_C 	C 	0.2219	0.0289	0.9514	-0.005
Mof_H 	H 	0.2462	0.059	0.9898	0.051
Mof_C 	C 	0.5351	0.6266	0.9444	0.177
Mof_H 	H 	0.5529	0.5795	0.953	-0.042
Mof_C 	C 	0.4936	0.6156	0.8831	-0.272
Mof_H 	H 	0.4844	0.5617	0.8522	0.123
Mof_C 	C 	0.4666	0.6791	0.867	0.204
Mof_C 	C 	0.4835	0.7579	0.9112	-0.234
Mof_H 	H 	0.4661	0.8059	0.9008	0.112
Mof_C 	C 	0.5249	0.7673	0.9697	0.131
Mof_H 	H 	0.5356	0.8218	0.9957	-0.02
Mof_Zn	Zn	0.61197	0.27931	0.56584	1.218
Mof_Zn	Zn	0.70146	0.22021	0.64487	1.219
Mof_S 	S 	0.66737	0.98751	0.84555	0.083
Mof_S 	S 	0.6457	0.48205	0.87187	0.064
Mof_O 	O 	0.67743	0.1309	0.7149	-0.465
Mof_O 	O 	0.61071	0.1697	0.6469	-0.47
Mof_O 	O 	0.68168	0.8559	0.013	-0.454
Mof_O 	O 	0.61673	0.8042	0.9526	-0.471
Mof_O 	O 	0.69776	0.311	0.7502	-0.464
Mof_O 	O 	0.63068	0.3475	0.7026	-0.454
Mof_O 	O 	0.70189	0.6759	0.0537	-0.464
Mof_O 	O 	0.63676	0.6253	0.0052	-0.463
Mof_N 	N 	0.76289	0.1915	0.7106	-0.268
Mof_N 	N 	0.05049	0.1978	0.9898	-0.287
Mof_C 	C 	0.6399	0.1218	0.7013	0.411
Mof_C 	C 	0.62954	0.0478	0.7544	-0.114
Mof_C 	C 	0.5902	0.0188	0.7422	-0.002
Mof_H 	H 	0.5656	0.0439	0.6963	0.041
Mof_C 	C 	0.5916	0.9468	0.8073	-0.01
Mof_H 	H 	0.5681	0.9186	0.8084	0.041
Mof_C 	C 	0.6315	0.9231	0.8687	-0.112
Mof_C 	C 	0.6442	0.8553	0.9516	0.396
Mof_C 	C 	0.7902	0.2362	0.6826	0.12
Mof_H 	H 	0.7801	0.2782	0.6303	-0.007
Mof_C 	C 	0.8326	0.2229	0.7276	-0.203
Mof_H 	H 	0.8503	0.2559	0.7056	0.108
Mof_C 	C 	0.8487	0.1618	0.8042	0.164
Mof_C 	C 	0.8207	0.1143	0.8311	-0.211
Mof_H 	H 	0.8302	0.0706	0.8815	0.111
Mof_C 	C 	0.7787	0.1307	0.7841	0.129
Mof_H 	H 	0.7605	0.0979	0.8045	-0.013
Mof_C 	C 	0.8948	0.1482	0.8587	-0.161
Mof_H 	H 	0.8997	0.087	0.8766	0.079
Mof_H 	H 	0.9042	0.1807	0.9241	0.08
Mof_C 	C 	0.9201	0.1734	0.7996	-0.205
Mof_H 	H 	0.9159	0.1314	0.7437	0.094
Mof_H 	H 	0.9106	0.2295	0.767	0.093
Mof_C 	C 	0.669	0.3554	0.758	0.391
Mof_C 	C 	0.6814	0.4254	0.8383	-0.101
Mof_C 	C 	0.6737	0.6228	0.008	0.392
Mof_C 	C 	0.68403	0.5494	0.9523	-0.106
Mof_C 	C 	0.7206	0.4584	0.8872	-0.005
Mof_H 	H 	0.744	0.436	0.8783	0.048
Mof_C 	C 	0.7219	0.5289	0.9514	-0.005
Mof_H 	H 	0.7462	0.559	0.9898	0.051
Mof_C 	C 	0.0351	0.1266	0.9444	0.177
Mof_H 	H 	0.0529	0.0795	0.953	-0.042
Mof_C 	C 	0.9936	0.1156	0.8831	-0.273
Mof_H 	H 	0.9844	0.0617	0.8522	0.123
Mof_C 	C 	0.9666	0.1791	0.867	0.204
Mof_C 	C 	0.9835	0.2579	0.9112	-0.234
Mof_H 	H 	0.9661	0.3059	0.9008	0.112
Mof_C 	C 	0.0249	0.2673	0.9697	0.131
Mof_H 	H 	0.0356	0.3218	0.9957	-0.02
Mof_Zn	Zn	0.88803	0.22069	0.43416	1.218
Mof_Zn	Zn	0.79854	0.27979	0.35513	1.219
Mof_S 	S 	0.83263	0.51249	0.15445	0.084
Mof_S 	S 	0.8543	0.01795	0.12813	0.063
Mof_O 	O 	0.82257	0.3691	0.2851	-0.466
Mof_O 	O 	0.88929	0.3303	0.3531	-0.47
Mof_O 	O 	0.81832	0.6441	0.987	-0.455
Mof_O 	O 	0.88327	0.6958	0.0474	-0.471
Mof_O 	O 	0.80224	0.189	0.2498	-0.464
Mof_O 	O 	0.86932	0.1525	0.2974	-0.454
Mof_O 	O 	0.79811	0.8241	0.9463	-0.464
Mof_O 	O 	0.86324	0.8747	0.9948	-0.463
Mof_N 	N 	0.73711	0.3085	0.2894	-0.268
Mof_N 	N 	0.44951	0.3022	0.0102	-0.287
Mof_C 	C 	0.8601	0.3782	0.2987	0.411
Mof_C 	C 	0.87046	0.4522	0.2456	-0.114
Mof_C 	C 	0.9098	0.4812	0.2578	-0.003
Mof_H 	H 	0.9344	0.4561	0.3037	0.041
Mof_C 	C 	0.9084	0.5532	0.1927	-0.009
Mof_H 	H 	0.9319	0.5814	0.1916	0.041
Mof_C 	C 	0.8685	0.5769	0.1313	-0.112
Mof_C 	C 	0.8558	0.6447	0.0484	0.397
Mof_C 	C 	0.7098	0.2638	0.3174	0.12
Mof_H 	H 	0.7199	0.2218	0.3697	-0.007
Mof_C 	C 	0.6674	0.2771	0.2724	-0.203
Mof_H 	H 	0.6497	0.2441	0.2944	0.108
Mof_C 	C 	0.6513	0.3382	0.1958	0.164
Mof_C 	C 	0.6793	0.3857	0.1689	-0.211
Mof_H 	H 	0.6698	0.4294	0.1185	0.111
Mof_C 	C 	0.7213	0.3693	0.2159	0.129
Mof_H 	H 	0.7395	0.4021	0.1955	-0.013
Mof_C 	C 	0.6052	0.3518	0.1413	-0.16
Mof_H 	H 	0.6003	0.413	0.1234	0.079
Mof_H 	H 	0.5958	0.3193	0.0759	0.08
Mof_C 	C 	0.5799	0.3266	0.2004	-0.205
Mof_H 	H 	0.5841	0.3686	0.2563	0.094
Mof_H 	H 	0.5894	0.2705	0.233	0.093
Mof_C 	C 	0.831	0.1446	0.242	0.391
Mof_C 	C 	0.8186	0.0746	0.1617	-0.101
Mof_C 	C 	0.8263	0.8772	0.992	0.391
Mof_C 	C 	0.81597	0.9506	0.0477	-0.104
Mof_C 	C 	0.7794	0.0416	0.1128	-0.006
Mof_H 	H 	0.756	0.064	0.1217	0.049
Mof_C 	C 	0.7781	0.9711	0.0486	-0.005
Mof_H 	H 	0.7538	0.941	0.0102	0.051
Mof_C 	C 	0.4649	0.3734	0.0556	0.177
Mof_H 	H 	0.4471	0.4205	0.047	-0.042
Mof_C 	C 	0.5064	0.3844	0.1169	-0.272
Mof_H 	H 	0.5156	0.4383	0.1478	0.123
Mof_C 	C 	0.5334	0.3209	0.133	0.204
Mof_C 	C 	0.5165	0.2421	0.0888	-0.234
Mof_H 	H 	0.5339	0.1941	0.0992	0.112
Mof_C 	C 	0.4751	0.2327	0.0303	0.131
Mof_H 	H 	0.4644	0.1782	0.0043	-0.02
Mof_Zn	Zn	0.38803	0.72069	0.43416	1.218
Mof_Zn	Zn	0.29854	0.77979	0.35513	1.219
Mof_S 	S 	0.33263	0.01249	0.15445	0.083
Mof_S 	S 	0.3543	0.51795	0.12813	0.064
Mof_O 	O 	0.32257	0.8691	0.2851	-0.465
Mof_O 	O 	0.38929	0.8303	0.3531	-0.47
Mof_O 	O 	0.31832	0.1441	0.987	-0.454
Mof_O 	O 	0.38327	0.1958	0.0474	-0.471
Mof_O 	O 	0.30224	0.689	0.2498	-0.464
Mof_O 	O 	0.36932	0.6525	0.2974	-0.454
Mof_O 	O 	0.29811	0.3241	0.9463	-0.464
Mof_O 	O 	0.36324	0.3747	0.9948	-0.463
Mof_N 	N 	0.23711	0.8085	0.2894	-0.268
Mof_N 	N 	0.94951	0.8022	0.0102	-0.287
Mof_C 	C 	0.3601	0.8782	0.2987	0.411
Mof_C 	C 	0.37046	0.9522	0.2456	-0.114
Mof_C 	C 	0.4098	0.9812	0.2578	-0.002
Mof_H 	H 	0.4344	0.9561	0.3037	0.041
Mof_C 	C 	0.4084	0.0532	0.1927	-0.01
Mof_H 	H 	0.4319	0.0814	0.1916	0.041
Mof_C 	C 	0.3685	0.0769	0.1313	-0.112
Mof_C 	C 	0.3558	0.1447	0.0484	0.396
Mof_C 	C 	0.2098	0.7638	0.3174	0.12
Mof_H 	H 	0.2199	0.7218	0.3697	-0.007
Mof_C 	C 	0.1674	0.7771	0.2724	-0.203
Mof_H 	H 	0.1497	0.7441	0.2944	0.108
Mof_C 	C 	0.1513	0.8382	0.1958	0.164
Mof_C 	C 	0.1793	0.8857	0.1689	-0.211
Mof_H 	H 	0.1698	0.9294	0.1185	0.111
Mof_C 	C 	0.2213	0.8693	0.2159	0.129
Mof_H 	H 	0.2395	0.9021	0.1955	-0.013
Mof_C 	C 	0.1052	0.8518	0.1413	-0.161
Mof_H 	H 	0.1003	0.913	0.1234	0.079
Mof_H 	H 	0.0958	0.8193	0.0759	0.08
Mof_C 	C 	0.0799	0.8266	0.2004	-0.205
Mof_H 	H 	0.0841	0.8686	0.2563	0.094
Mof_H 	H 	0.0894	0.7705	0.233	0.093
Mof_C 	C 	0.331	0.6446	0.242	0.391
Mof_C 	C 	0.3186	0.5746	0.1617	-0.101
Mof_C 	C 	0.3263	0.3772	0.992	0.392
Mof_C 	C 	0.31597	0.4506	0.0477	-0.106
Mof_C 	C 	0.2794	0.5416	0.1128	-0.005
Mof_H 	H 	0.256	0.564	0.1217	0.048
Mof_C 	C 	0.2781	0.4711	0.0486	-0.005
Mof_H 	H 	0.2538	0.441	0.0102	0.051
Mof_C 	C 	0.9649	0.8734	0.0556	0.177
Mof_H 	H 	0.9471	0.9205	0.047	-0.042
Mof_C 	C 	0.0064	0.8844	0.1169	-0.273
Mof_H 	H 	0.0156	0.9383	0.1478	0.123
Mof_C 	C 	0.0334	0.8209	0.133	0.204
Mof_C 	C 	0.0165	0.7421	0.0888	-0.234
Mof_H 	H 	0.0339	0.6941	0.0992	0.112
Mof_C 	C 	0.9751	0.7327	0.0303	0.131
Mof_H 	H 	0.9644	0.6782	0.0043	-0.02
Mof_Zn	Zn	0.88803	0.77931	0.93416	1.218
Mof_Zn	Zn	0.79854	0.72021	0.85513	1.219
Mof_S 	S 	0.83263	0.48751	0.65445	0.083
Mof_S 	S 	0.8543	0.98205	0.62813	0.064
Mof_O 	O 	0.82257	0.6309	0.7851	-0.466
Mof_O 	O 	0.88929	0.6697	0.8531	-0.471
Mof_O 	O 	0.81832	0.3559	0.487	-0.455
Mof_O 	O 	0.88327	0.3042	0.5474	-0.471
Mof_O 	O 	0.80224	0.811	0.7498	-0.464
Mof_O 	O 	0.86932	0.8475	0.7974	-0.454
Mof_O 	O 	0.79811	0.1759	0.4463	-0.464
Mof_O 	O 	0.86324	0.1253	0.4948	-0.463
Mof_N 	N 	0.73711	0.6915	0.7894	-0.268
Mof_N 	N 	0.44951	0.6978	0.5102	-0.287
Mof_C 	C 	0.8601	0.6218	0.7987	0.411
Mof_C 	C 	0.87046	0.5478	0.7456	-0.114
Mof_C 	C 	0.9098	0.5188	0.7578	-0.003
Mof_H 	H 	0.9344	0.5439	0.8037	0.041
Mof_C 	C 	0.9084	0.4468	0.6927	-0.009
Mof_H 	H 	0.9319	0.4186	0.6916	0.041
Mof_C 	C 	0.8685	0.4231	0.6313	-0.112
Mof_C 	C 	0.8558	0.3553	0.5484	0.397
Mof_C 	C 	0.7098	0.7362	0.8174	0.12
Mof_H 	H 	0.7199	0.7782	0.8697	-0.007
Mof_C 	C 	0.6674	0.7229	0.7724	-0.203
Mof_H 	H 	0.6497	0.7559	0.7944	0.108
Mof_C 	C 	0.6513	0.6618	0.6958	0.164
Mof_C 	C 	0.6793	0.6143	0.6689	-0.211
Mof_H 	H 	0.6698	0.5706	0.6185	0.111
Mof_C 	C 	0.7213	0.6307	0.7159	0.129
Mof_H 	H 	0.7395	0.5979	0.6955	-0.013
Mof_C 	C 	0.6052	0.6482	0.6413	-0.161
Mof_H 	H 	0.6003	0.587	0.6234	0.079
Mof_H 	H 	0.5958	0.6807	0.5759	0.08
Mof_C 	C 	0.5799	0.6734	0.7004	-0.205
Mof_H 	H 	0.5841	0.6314	0.7563	0.094
Mof_H 	H 	0.5894	0.7295	0.733	0.093
Mof_C 	C 	0.831	0.8554	0.742	0.391
Mof_C 	C 	0.8186	0.9254	0.6617	-0.101
Mof_C 	C 	0.8263	0.1228	0.492	0.392
Mof_C 	C 	0.81597	0.0494	0.5477	-0.105
Mof_C 	C 	0.7794	0.9584	0.6128	-0.005
Mof_H 	H 	0.756	0.936	0.6217	0.048
Mof_C 	C 	0.7781	0.0289	0.5486	-0.005
Mof_H 	H 	0.7538	0.059	0.5102	0.051
Mof_C 	C 	0.4649	0.6266	0.5556	0.177
Mof_H 	H 	0.4471	0.5795	0.547	-0.042
Mof_C 	C 	0.5064	0.6156	0.6169	-0.272
Mof_H 	H 	0.5156	0.5617	0.6478	0.123
Mof_C 	C 	0.5334	0.6791	0.633	0.204
Mof_C 	C 	0.5165	0.7579	0.5888	-0.234
Mof_H 	H 	0.5339	0.8059	0.5992	0.112
Mof_C 	C 	0.4751	0.7673	0.5303	0.131
Mof_H 	H 	0.4644	0.8218	0.5043	-0.02
Mof_Zn	Zn	0.38803	0.27931	0.93416	1.218
Mof_Zn	Zn	0.29854	0.22021	0.85513	1.219
Mof_S 	S 	0.33263	0.98751	0.65445	0.083
Mof_S 	S 	0.3543	0.48205	0.62813	0.064
Mof_O 	O 	0.32257	0.1309	0.7851	-0.465
Mof_O 	O 	0.38929	0.1697	0.8531	-0.47
Mof_O 	O 	0.31832	0.8559	0.487	-0.455
Mof_O 	O 	0.38327	0.8042	0.5474	-0.471
Mof_O 	O 	0.30224	0.311	0.7498	-0.464
Mof_O 	O 	0.36932	0.3475	0.7974	-0.454
Mof_O 	O 	0.29811	0.6759	0.4463	-0.464
Mof_O 	O 	0.36324	0.6253	0.4948	-0.463
Mof_N 	N 	0.23711	0.1915	0.7894	-0.268
Mof_N 	N 	0.94951	0.1978	0.5102	-0.287
Mof_C 	C 	0.3601	0.1218	0.7987	0.411
Mof_C 	C 	0.37046	0.0478	0.7456	-0.114
Mof_C 	C 	0.4098	0.0188	0.7578	-0.002
Mof_H 	H 	0.4344	0.0439	0.8037	0.041
Mof_C 	C 	0.4084	0.9468	0.6927	-0.01
Mof_H 	H 	0.4319	0.9186	0.6916	0.041
Mof_C 	C 	0.3685	0.9231	0.6313	-0.112
Mof_C 	C 	0.3558	0.8553	0.5484	0.397
Mof_C 	C 	0.2098	0.2362	0.8174	0.12
Mof_H 	H 	0.2199	0.2782	0.8697	-0.007
Mof_C 	C 	0.1674	0.2229	0.7724	-0.203
Mof_H 	H 	0.1497	0.2559	0.7944	0.108
Mof_C 	C 	0.1513	0.1618	0.6958	0.164
Mof_C 	C 	0.1793	0.1143	0.6689	-0.211
Mof_H 	H 	0.1698	0.0706	0.6185	0.111
Mof_C 	C 	0.2213	0.1307	0.7159	0.129
Mof_H 	H 	0.2395	0.0979	0.6955	-0.013
Mof_C 	C 	0.1052	0.1482	0.6413	-0.16
Mof_H 	H 	0.1003	0.087	0.6234	0.079
Mof_H 	H 	0.0958	0.1807	0.5759	0.08
Mof_C 	C 	0.0799	0.1734	0.7004	-0.205
Mof_H 	H 	0.0841	0.1314	0.7563	0.095
Mof_H 	H 	0.0894	0.2295	0.733	0.093
Mof_C 	C 	0.331	0.3554	0.742	0.391
Mof_C 	C 	0.3186	0.4254	0.6617	-0.101
Mof_C 	C 	0.3263	0.6228	0.492	0.392
Mof_C 	C 	0.31597	0.5494	0.5477	-0.105
Mof_C 	C 	0.2794	0.4584	0.6128	-0.005
Mof_H 	H 	0.256	0.436	0.6217	0.048
Mof_C 	C 	0.2781	0.5289	0.5486	-0.005
Mof_H 	H 	0.2538	0.559	0.5102	0.051
Mof_C 	C 	0.9649	0.1266	0.5556	0.177
Mof_H 	H 	0.9471	0.0795	0.547	-0.042
Mof_C 	C 	0.0064	0.1156	0.6169	-0.272
Mof_H 	H 	0.0156	0.0617	0.6478	0.123
Mof_C 	C 	0.0334	0.1791	0.633	0.204
Mof_C 	C 	0.0165	0.2579	0.5888	-0.234
Mof_H 	H 	0.0339	0.3059	0.5992	0.112
Mof_C 	C 	0.9751	0.2673	0.5303	0.131
Mof_H 	H 	0.9644	0.3218	0.5043	-0.02
_end
