# CIF file generated by openbabel 3.1.0, see https://openbabel.org
data_I
_chemical_name_common 'image0'
_cell_length_a 21.224
_cell_length_b 21.224
_cell_length_c 7.71
_cell_angle_alpha 90
_cell_angle_beta 90
_cell_angle_gamma 120
_space_group_name_H-M_alt 'P 1'
_space_group_name_Hall 'P 1'
loop_
    _symmetry_equiv_pos_as_xyz
    x,y,z
loop_
    _atom_site_label
    _atom_site_type_symbol
    _atom_site_fract_x
    _atom_site_fract_y
    _atom_site_fract_z
    _atom_site_occupancy
    O1       O        0.09170    0.13150    0.29840    1.000
    O2       O        0.62680    0.42430    0.96380    1.000
    Zn1      Zn       0.63313    0.36689    0.14908    1.000
    Zn2      Zn       0.03350    0.06697    0.48212    1.000
    C1       C        0.65680    0.44730    0.82100    1.000
    C2       C        0.87550    0.88480    0.14350    1.000
    C3       C        0.55240    0.34300    0.47860    1.000
    O3       O        0.93420    0.90650    0.22740    1.000
    C4       C        0.11460    0.12500    0.15270    1.000
    O4       O        0.57490    0.37240    0.33490    1.000
    O5       O        0.57280    0.30550    0.56090    1.000
    O6       O        0.09280    0.06530    0.07130    1.000
    O7       O        0.69440    0.42640    0.73790    1.000
    O8       O        0.86850    0.90850    0.00130    1.000
    C5       C        0.49590    0.35650    0.56600    1.000
    C6       C        0.80670    0.82960    0.23290    1.000
    C7       C        0.64360    0.50350    0.72920    1.000
    C8       C        0.17070    0.19370    0.06340    1.000
    C9       C        0.41930    0.34290    0.81200    1.000
    H1       H        0.40370    0.32640    0.92420    1.000
    C10      C        0.66940    0.52880    0.56600    1.000
    H2       H        0.69520    0.51070    0.50690    1.000
    C11      C        0.19500    0.19340    0.89540    1.000
    H3       H        0.17600    0.14990    0.83400    1.000
    F1       F        0.33540    0.48320    0.01220    1.000
    C12      C        0.74090    0.80170    0.14690    1.000
    H4       H        0.74010    0.81840    0.03580    1.000
    C13      C        0.80740    0.80520    0.40130    1.000
    H5       H        0.85100    0.82400    0.46220    1.000
    C14      C        0.60630    0.53070    0.81850    1.000
    H6       H        0.58970    0.51440    0.93010    1.000
    F2       F        0.26150    0.36650    0.55710    1.000
    C15      C        0.19950    0.25970    0.15150    1.000
    H7       H        0.18390    0.26060    0.26370    1.000
    C16      C        0.47210    0.33100    0.73160    1.000
    H8       H        0.49100    0.30590    0.79030    1.000
    F3       F        0.33130    0.48080    0.61980    1.000
    C17      C        0.67660    0.72350    0.38680    1.000
    C18      C        0.24730    0.25760    0.81960    1.000
    H9       H        0.26360    0.25700    0.70800    1.000
    C19      C        0.65790    0.58120    0.48660    1.000
    H10      H        0.67520    0.59720    0.37510    1.000
    F4       F        0.63340    0.73860    0.74080    1.000
    C20      C        0.27570    0.32320    0.90990    1.000
    C21      C        0.59360    0.58300    0.74210    1.000
    H11      H        0.56720    0.60010    0.80240    1.000
    F5       F        0.40570    0.43910    0.07490    1.000
    C22      C        0.60710    0.66660    0.48380    1.000
    C23      C        0.74200    0.75220    0.47790    1.000
    H12      H        0.74240    0.73620    0.59000    1.000
    C24      C        0.33290    0.39420    0.81370    1.000
    F6       F        0.51710    0.66420    0.28510    1.000
    F7       F        0.51960    0.66920    0.67810    1.000
    C25      C        0.46820    0.39420    0.48020    1.000
    H13      H        0.48500    0.41190    0.36930    1.000
    F8       F        0.56140    0.59480    0.22380    1.000
    C26      C        0.41690    0.40600    0.55380    1.000
    H14      H        0.39910    0.43160    0.49290    1.000
    F9       F        0.43220    0.51360    0.86230    1.000
    C27      C        0.67570    0.74940    0.22140    1.000
    H15      H        0.63210    0.73200    0.16140    1.000
    C28      C        0.54250    0.62360    0.35200    1.000
    F10      F        0.48640    0.56780    0.43630    1.000
    C29      C        0.25040    0.32310    0.07480    1.000
    H16      H        0.26810    0.36670    0.13470    1.000
    F11      F        0.23390    0.41420    0.76770    1.000
    C30      C        0.58570    0.70930    0.61000    1.000
    C31      C        0.39060    0.38010    0.72000    1.000
    C32      C        0.62000    0.61000    0.57640    1.000
    C33      C        0.28890    0.41260    0.68400    1.000
    F12      F        0.58550    0.76620    0.53030    1.000
    C34      C        0.37720    0.45760    0.94600    1.000
    O9       O        0.86850    0.96020    0.63173    1.000
    O10      O        0.57570    0.20250    0.29713    1.000
    Zn3      Zn       0.63311    0.26624    0.48241    1.000
    Zn4      Zn       0.93303    0.96653    0.81545    1.000
    C35      C        0.55270    0.20950    0.15433    1.000
    C36      C        0.11520    0.99070    0.47683    1.000
    C37      C        0.65700    0.20940    0.81193    1.000
    O11      O        0.09350    0.02770    0.56073    1.000
    C38      C        0.87500    0.98960    0.48603    1.000
    O12      O        0.62760    0.20250    0.66823    1.000
    O13      O        0.69450    0.26730    0.89423    1.000
    O14      O        0.93470    0.02750    0.40463    1.000
    O15      O        0.57360    0.26800    0.07123    1.000
    O16      O        0.09150    0.96000    0.33463    1.000
    C39      C        0.64350    0.13940    0.89933    1.000
    C40      C        0.17040    0.97710    0.56623    1.000
    C41      C        0.49650    0.14010    0.06253    1.000
    C42      C        0.80630    0.97700    0.39673    1.000
    C43      C        0.65710    0.07640    0.14533    1.000
    H17      H        0.67360    0.07730    0.25753    1.000
    C44      C        0.47120    0.14060    0.89933    1.000
    H18      H        0.48930    0.18450    0.84023    1.000
    C45      C        0.80660    0.00160    0.22873    1.000
    H19      H        0.85010    0.02610    0.16733    1.000
    F13      F        0.51680    0.85220    0.34553    1.000
    C46      C        0.19830    0.93920    0.48023    1.000
    H20      H        0.18160    0.92170    0.36913    1.000
    C47      C        0.19480    0.00220    0.73463    1.000
    H21      H        0.17600    0.02700    0.79553    1.000
    C48      C        0.46930    0.07560    0.15183    1.000
    H22      H        0.48560    0.07530    0.26343    1.000
    F14      F        0.63350    0.89500    0.89043    1.000
    C49      C        0.74030    0.93980    0.48483    1.000
    H23      H        0.73940    0.92330    0.59703    1.000
    C50      C        0.66900    0.14110    0.06493    1.000
    H24      H        0.69410    0.18510    0.12363    1.000
    F15      F        0.51920    0.85050    0.95313    1.000
    C51      C        0.27650    0.95310    0.72013    1.000
    C52      C        0.74240    0.98970    0.15293    1.000
    H25      H        0.74300    0.00660    0.04133    1.000
    C53      C        0.41880    0.07670    0.81993    1.000
    H26      H        0.40280    0.07800    0.70843    1.000
    F16      F        0.26140    0.89480    0.07413    1.000
    C54      C        0.67680    0.95250    0.24323    1.000
    C55      C        0.41700    0.01060    0.07543    1.000
    H27      H        0.39990    0.96710    0.13573    1.000
    F17      F        0.56090    0.96660    0.40823    1.000
    C56      C        0.33340    0.94050    0.81713    1.000
    C57      C        0.24780    0.98980    0.81123    1.000
    H28      H        0.26380    0.00620    0.92333    1.000
    C58      C        0.60580    0.93870    0.14703    1.000
    F18      F        0.33580    0.85290    0.61843    1.000
    F19      F        0.33080    0.85040    0.01143    1.000
    C59      C        0.60580    0.07400    0.81353    1.000
    H29      H        0.58810    0.07310    0.70263    1.000
    F20      F        0.40520    0.96660    0.55713    1.000
    C60      C        0.59400    0.01090    0.88713    1.000
    H30      H        0.56840    0.96750    0.82623    1.000
    F21      F        0.48640    0.91860    0.19563    1.000
    C61      C        0.25060    0.92630    0.55473    1.000
    H31      H        0.26800    0.90010    0.49473    1.000
    C62      C        0.37640    0.91890    0.68533    1.000
    F22      F        0.43220    0.91860    0.76963    1.000
    C63      C        0.67690    0.92730    0.40813    1.000
    H32      H        0.63330    0.90140    0.46803    1.000
    F23      F        0.58580    0.81970    0.10103    1.000
    C64      C        0.29070    0.87640    0.94333    1.000
    C65      C        0.61990    0.01050    0.05333    1.000
    C66      C        0.39000    0.01000    0.90973    1.000
    C67      C        0.58740    0.87630    0.01733    1.000
    F24      F        0.23380    0.81930    0.86363    1.000
    C68      C        0.54240    0.91960    0.27933    1.000
    O17      O        0.03980    0.90830    0.96507    1.000
    O18      O        0.79750    0.37320    0.63047    1.000
    Zn5      Zn       0.73376    0.36687    0.81575    1.000
    Zn6      Zn       0.03347    0.96650    0.14879    1.000
    C69      C        0.79050    0.34320    0.48767    1.000
    C70      C        0.00930    0.12450    0.81017    1.000
    C71      C        0.79060    0.44760    0.14527    1.000
    O19      O        0.97230    0.06580    0.89407    1.000
    C72      C        0.01040    0.88540    0.81937    1.000
    O20      O        0.79750    0.42510    0.00157    1.000
    O21      O        0.73270    0.42720    0.22757    1.000
    O22      O        0.97250    0.90720    0.73797    1.000
    O23      O        0.73200    0.30560    0.40457    1.000
    O24      O        0.04000    0.13150    0.66797    1.000
    C73      C        0.86060    0.50410    0.23267    1.000
    C74      C        0.02290    0.19330    0.89957    1.000
    C75      C        0.85990    0.35640    0.39587    1.000
    C76      C        0.02300    0.82930    0.73007    1.000
    C77      C        0.92360    0.58070    0.47867    1.000
    H33      H        0.92270    0.59630    0.59087    1.000
    C78      C        0.85940    0.33060    0.23267    1.000
    H34      H        0.81550    0.30480    0.17357    1.000
    C79      C        0.99840    0.80500    0.56207    1.000
    H35      H        0.97390    0.82400    0.50067    1.000
    F25      F        0.14780    0.66460    0.67887    1.000
    C80      C        0.06080    0.25910    0.81357    1.000
    H36      H        0.07830    0.25990    0.70247    1.000
    C81      C        0.99780    0.19260    0.06797    1.000
    H37      H        0.97300    0.14900    0.12887    1.000
    C82      C        0.92440    0.39370    0.48517    1.000
    H38      H        0.92470    0.41030    0.59677    1.000
    F26      F        0.10500    0.73850    0.22377    1.000
    C83      C        0.06020    0.80050    0.81817    1.000
    H39      H        0.07670    0.81610    0.93037    1.000
    C84      C        0.85890    0.52790    0.39827    1.000
    H40      H        0.81490    0.50900    0.45697    1.000
    F27      F        0.14950    0.66870    0.28647    1.000
    C85      C        0.04690    0.32340    0.05347    1.000
    C86      C        0.01030    0.75270    0.48627    1.000
    H41      H        0.99340    0.73640    0.37467    1.000
    C87      C        0.92330    0.34210    0.15327    1.000
    H42      H        0.92200    0.32480    0.04177    1.000
    F28      F        0.10520    0.36660    0.40747    1.000
    C88      C        0.04750    0.72430    0.57657    1.000
    C89      C        0.98940    0.40640    0.40877    1.000
    H43      H        0.03290    0.43280    0.46907    1.000
    F29      F        0.03340    0.59430    0.74157    1.000
    C90      C        0.05950    0.39290    0.15047    1.000
    C91      C        0.01020    0.25800    0.14457    1.000
    H44      H        0.99380    0.25760    0.25667    1.000
    C92      C        0.06130    0.66710    0.48037    1.000
    F30      F        0.14710    0.48290    0.95177    1.000
    F31      F        0.14960    0.48040    0.34477    1.000
    C93      C        0.92600    0.53180    0.14687    1.000
    H45      H        0.92690    0.51500    0.03597    1.000
    F32      F        0.03340    0.43860    0.89047    1.000
    C94      C        0.98910    0.58310    0.22047    1.000
    H46      H        0.03250    0.60090    0.15957    1.000
    F33      F        0.08140    0.56780    0.52897    1.000
    C95      C        0.07370    0.32430    0.88807    1.000
    H47      H        0.09990    0.36790    0.82807    1.000
    C96      C        0.08110    0.45750    0.01867    1.000
    F34      F        0.08140    0.51360    0.10297    1.000
    C97      C        0.07270    0.74960    0.74147    1.000
    H48      H        0.09860    0.73190    0.80137    1.000
    F35      F        0.18030    0.76610    0.43437    1.000
    C98      C        0.12360    0.41430    0.27667    1.000
    C99      C        0.98950    0.60940    0.38667    1.000
    C100     C        0.99000    0.38000    0.24307    1.000
    C101     C        0.12370    0.71110    0.35067    1.000
    F36      F        0.18070    0.41450    0.19697    1.000
    C102     C        0.08040    0.62280    0.61267    1.000
