# CIF file generated by openbabel 3.1.0, see https://openbabel.org
data_I
_chemical_name_common 'image0'
_cell_length_a 56.792
_cell_length_b 14.331
_cell_length_c 32.17
_cell_angle_alpha 90
_cell_angle_beta 90
_cell_angle_gamma 90
_space_group_name_H-M_alt 'P 1'
_space_group_name_Hall 'P 1'
loop_
    _symmetry_equiv_pos_as_xyz
    x,y,z
loop_
    _atom_site_label
    _atom_site_type_symbol
    _atom_site_fract_x
    _atom_site_fract_y
    _atom_site_fract_z
    _atom_site_occupancy
    Cu1      Cu       0.40614    0.88210    0.48232    1.000
    O1       O        0.32916    0.60730    0.60610    1.000
    O2       O        0.26777    0.41220    0.67570    1.000
    O3       O        0.30319    0.15350    0.52460    1.000
    N1       N        0.38277    0.78890    0.50510    1.000
    N2       N        0.18439    0.28010    0.71239    1.000
    N3       N        0.38476    0.98420    0.49850    1.000
    N4       N        0.33815    0.56810    0.54100    1.000
    H1       H        0.33560    0.52180    0.52360    1.000
    N5       N        0.24391    0.31840    0.62860    1.000
    H2       H        0.24310    0.28340    0.60620    1.000
    N6       N        0.34089    0.20490    0.54010    1.000
    H3       H        0.34890    0.25050    0.55180    1.000
    C1       C        0.37283    0.78590    0.54500    1.000
    H4       H        0.37630    0.83410    0.56430    1.000
    C2       C        0.35779    0.71260    0.55680    1.000
    H5       H        0.35150    0.70760    0.58410    1.000
    C3       C        0.35254    0.64520    0.52450    1.000
    C4       C        0.36114    0.64120    0.47910    1.000
    H6       H        0.35710    0.59750    0.45810    1.000
    C5       C        0.37726    0.72220    0.47610    1.000
    H7       H        0.38500    0.72900    0.45010    1.000
    C6       C        0.32843    0.55850    0.57880    1.000
    C7       C        0.18794    0.24880    0.67800    1.000
    H8       H        0.17480    0.21300    0.66910    1.000
    C8       C        0.20719    0.24940    0.64440    1.000
    H9       H        0.20730    0.21510    0.61920    1.000
    C9       C        0.22499    0.31260    0.65910    1.000
    C10      C        0.22248    0.35990    0.69500    1.000
    H10      H        0.23410    0.40480    0.70230    1.000
    C11      C        0.20456    0.34640    0.72070    1.000
    H11      H        0.20440    0.38060    0.74600    1.000
    C12      C        0.26240    0.37500    0.63350    1.000
    C13      C        0.39234    0.05750    0.52690    1.000
    H12      H        0.40810    0.05470    0.53680    1.000
    C14      C        0.37870    0.12980    0.54040    1.000
    H13      H        0.38420    0.17740    0.55840    1.000
    C15      C        0.35440    0.12610    0.52380    1.000
    C16      C        0.34517    0.05630    0.49600    1.000
    H14      H        0.32950    0.05780    0.48590    1.000
    C17      C        0.36077    0.98800    0.48550    1.000
    H15      H        0.35520    0.93900    0.46810    1.000
    C18      C        0.31751    0.21360    0.53880    1.000
    C19      C        0.31441    0.46260    0.57910    1.000
    C20      C        0.29600    0.46190    0.60740    1.000
    H16      H        0.29260    0.51200    0.62580    1.000
    C21      C        0.28302    0.37900    0.60590    1.000
    C22      C        0.28994    0.29710    0.58800    1.000
    H17      H        0.28240    0.23990    0.59480    1.000
    C23      C        0.30882    0.29990    0.55900    1.000
    C24      C        0.32192    0.38510    0.55440    1.000
    H18      H        0.33490    0.38980    0.53590    1.000
    O4       O        0.07793    0.45780    0.61830    1.000
    O5       O        0.00294    0.62160    0.59320    1.000
    O6       O        0.01226    0.14580    0.53680    1.000
    N7       N        0.13618    0.26680    0.70681    1.000
    N8       N        0.93002    0.77990    0.52340    1.000
    N9       N        0.93086    0.97780    0.53360    1.000
    N10      N        0.07633    0.30530    0.62950    1.000
    H19      H        0.06850    0.25370    0.62410    1.000
    N11      N        0.97714    0.55690    0.54630    1.000
    H20      H        0.97470    0.50870    0.52990    1.000
    N12      N        0.97747    0.20000    0.56080    1.000
    H21      H        0.97100    0.24840    0.57310    1.000
    C25      C        0.13318    0.34170    0.68320    1.000
    H22      H        0.14460    0.38960    0.68600    1.000
    C26      C        0.11578    0.35790    0.65550    1.000
    H23      H        0.11590    0.41190    0.63840    1.000
    C27      C        0.09745    0.29250    0.65280    1.000
    C28      C        0.09988    0.21430    0.67570    1.000
    H24      H        0.08830    0.16690    0.67230    1.000
    C29      C        0.11754    0.19770    0.70340    1.000
    H25      H        0.11770    0.14280    0.71990    1.000
    C30      C        0.06709    0.37850    0.61550    1.000
    C31      C        0.93214    0.70940    0.50000    1.000
    H26      H        0.92330    0.70760    0.47500    1.000
    C32      C        0.94654    0.63600    0.50900    1.000
    H27      H        0.94640    0.58340    0.49090    1.000
    C33      C        0.96145    0.63470    0.54360    1.000
    C34      C        0.96007    0.71170    0.57100    1.000
    H28      H        0.96960    0.71660    0.59520    1.000
    C35      C        0.94328    0.78180    0.55940    1.000
    H29      H        0.94110    0.83300    0.57780    1.000
    C36      C        0.99552    0.55390    0.57290    1.000
    C37      C        0.92493    0.04630    0.55850    1.000
    H30      H        0.90940    0.04580    0.56950    1.000
    C38      C        0.93931    0.11850    0.56970    1.000
    H31      H        0.93470    0.16310    0.59000    1.000
    C39      C        0.96162    0.12320    0.54930    1.000
    C40      C        0.96900    0.05450    0.52290    1.000
    H32      H        0.98450    0.05380    0.51170    1.000
    C41      C        0.95126    0.98030    0.51280    1.000
    H33      H        0.95450    0.93550    0.49180    1.000
    C42      C        0.00092    0.20360    0.55430    1.000
    C43      C        0.04291    0.37910    0.59740    1.000
    C44      C        0.03049    0.46160    0.59480    1.000
    H34      H        0.03680    0.51690    0.60680    1.000
    C45      C        0.00873    0.46450    0.57440    1.000
    C46      C        0.99825    0.37930    0.56420    1.000
    H35      H        0.98220    0.37840    0.55620    1.000
    C47      C        0.01084    0.29480    0.56540    1.000
    C48      C        0.03180    0.29170    0.58520    1.000
    H36      H        0.03920    0.23370    0.59090    1.000
    Cu2      Cu       0.40614    0.61790    0.01768    1.000
    O7       O        0.32916    0.89270    0.89390    1.000
    O8       O        0.26777    0.08780    0.82430    1.000
    O9       O        0.30319    0.34650    0.97540    1.000
    N13      N        0.38277    0.71110    0.99490    1.000
    N14      N        0.18439    0.21990    0.78761    1.000
    N15      N        0.38476    0.51580    0.00150    1.000
    N16      N        0.33815    0.93190    0.95900    1.000
    H37      H        0.33560    0.97820    0.97640    1.000
    N17      N        0.24391    0.18160    0.87140    1.000
    H38      H        0.24310    0.21660    0.89380    1.000
    N18      N        0.34089    0.29510    0.95990    1.000
    H39      H        0.34890    0.24950    0.94820    1.000
    C49      C        0.37283    0.71410    0.95500    1.000
    H40      H        0.37630    0.66590    0.93570    1.000
    C50      C        0.35779    0.78740    0.94320    1.000
    H41      H        0.35150    0.79240    0.91590    1.000
    C51      C        0.35254    0.85480    0.97550    1.000
    C52      C        0.36114    0.85880    0.02090    1.000
    H42      H        0.35710    0.90250    0.04190    1.000
    C53      C        0.37726    0.77780    0.02390    1.000
    H43      H        0.38500    0.77100    0.04990    1.000
    C54      C        0.32843    0.94150    0.92120    1.000
    C55      C        0.18794    0.25120    0.82200    1.000
    H44      H        0.17480    0.28700    0.83090    1.000
    C56      C        0.20719    0.25060    0.85560    1.000
    H45      H        0.20730    0.28490    0.88080    1.000
    C57      C        0.22499    0.18740    0.84090    1.000
    C58      C        0.22248    0.14010    0.80500    1.000
    H46      H        0.23410    0.09520    0.79770    1.000
    C59      C        0.20456    0.15360    0.77930    1.000
    H47      H        0.20440    0.11940    0.75400    1.000
    C60      C        0.26240    0.12500    0.86650    1.000
    C61      C        0.39234    0.44250    0.97310    1.000
    H48      H        0.40810    0.44530    0.96320    1.000
    C62      C        0.37870    0.37020    0.95960    1.000
    H49      H        0.38420    0.32260    0.94160    1.000
    C63      C        0.35440    0.37390    0.97620    1.000
    C64      C        0.34517    0.44370    0.00400    1.000
    H50      H        0.32950    0.44220    0.01410    1.000
    C65      C        0.36077    0.51200    0.01450    1.000
    H51      H        0.35520    0.56100    0.03190    1.000
    C66      C        0.31751    0.28640    0.96120    1.000
    C67      C        0.31441    0.03740    0.92090    1.000
    C68      C        0.29600    0.03810    0.89260    1.000
    H52      H        0.29260    0.98800    0.87420    1.000
    C69      C        0.28302    0.12100    0.89410    1.000
    C70      C        0.28994    0.20290    0.91200    1.000
    H53      H        0.28240    0.26010    0.90520    1.000
    C71      C        0.30882    0.20010    0.94100    1.000
    C72      C        0.32192    0.11490    0.94560    1.000
    H54      H        0.33490    0.11020    0.96410    1.000
    O10      O        0.07793    0.04220    0.88170    1.000
    O11      O        0.00294    0.87840    0.90680    1.000
    O12      O        0.01226    0.35420    0.96320    1.000
    N19      N        0.13618    0.23320    0.79319    1.000
    N20      N        0.93002    0.72010    0.97660    1.000
    N21      N        0.93086    0.52220    0.96640    1.000
    N22      N        0.07633    0.19470    0.87050    1.000
    H55      H        0.06850    0.24630    0.87590    1.000
    N23      N        0.97714    0.94310    0.95370    1.000
    H56      H        0.97470    0.99130    0.97010    1.000
    N24      N        0.97747    0.30000    0.93920    1.000
    H57      H        0.97100    0.25160    0.92690    1.000
    C73      C        0.13318    0.15830    0.81680    1.000
    H58      H        0.14460    0.11040    0.81400    1.000
    C74      C        0.11578    0.14210    0.84450    1.000
    H59      H        0.11590    0.08810    0.86160    1.000
    C75      C        0.09745    0.20750    0.84720    1.000
    C76      C        0.09988    0.28570    0.82430    1.000
    H60      H        0.08830    0.33310    0.82770    1.000
    C77      C        0.11754    0.30230    0.79660    1.000
    H61      H        0.11770    0.35720    0.78010    1.000
    C78      C        0.06709    0.12150    0.88450    1.000
    C79      C        0.93214    0.79060    0.00000    1.000
    H62      H        0.92330    0.79240    0.02500    1.000
    C80      C        0.94654    0.86400    0.99100    1.000
    H63      H        0.94640    0.91660    0.00910    1.000
    C81      C        0.96145    0.86530    0.95640    1.000
    C82      C        0.96007    0.78830    0.92900    1.000
    H64      H        0.96960    0.78340    0.90480    1.000
    C83      C        0.94328    0.71820    0.94060    1.000
    H65      H        0.94110    0.66700    0.92220    1.000
    C84      C        0.99552    0.94610    0.92710    1.000
    C85      C        0.92493    0.45370    0.94150    1.000
    H66      H        0.90940    0.45420    0.93050    1.000
    C86      C        0.93931    0.38150    0.93030    1.000
    H67      H        0.93470    0.33690    0.91000    1.000
    C87      C        0.96162    0.37680    0.95070    1.000
    C88      C        0.96900    0.44550    0.97710    1.000
    H68      H        0.98450    0.44620    0.98830    1.000
    C89      C        0.95126    0.51970    0.98720    1.000
    H69      H        0.95450    0.56450    0.00820    1.000
    C90      C        0.00092    0.29640    0.94570    1.000
    C91      C        0.04291    0.12090    0.90260    1.000
    C92      C        0.03049    0.03840    0.90520    1.000
    H70      H        0.03680    0.98310    0.89320    1.000
    C93      C        0.00873    0.03550    0.92560    1.000
    C94      C        0.99825    0.12070    0.93580    1.000
    H71      H        0.98220    0.12160    0.94380    1.000
    C95      C        0.01084    0.20520    0.93460    1.000
    C96      C        0.03180    0.20830    0.91480    1.000
    H72      H        0.03920    0.26630    0.90910    1.000
    Cu3      Cu       0.90614    0.88210    0.51768    1.000
    O13      O        0.82916    0.60730    0.39390    1.000
    O14      O        0.76777    0.41220    0.32430    1.000
    O15      O        0.80319    0.15350    0.47540    1.000
    N25      N        0.88277    0.78890    0.49490    1.000
    N26      N        0.68439    0.28010    0.28761    1.000
    N27      N        0.88476    0.98420    0.50150    1.000
    N28      N        0.83815    0.56810    0.45900    1.000
    H73      H        0.83560    0.52180    0.47640    1.000
    N29      N        0.74391    0.31840    0.37140    1.000
    H74      H        0.74310    0.28340    0.39380    1.000
    N30      N        0.84089    0.20490    0.45990    1.000
    H75      H        0.84890    0.25050    0.44820    1.000
    C97      C        0.87283    0.78590    0.45500    1.000
    H76      H        0.87630    0.83410    0.43570    1.000
    C98      C        0.85779    0.71260    0.44320    1.000
    H77      H        0.85150    0.70760    0.41590    1.000
    C99      C        0.85254    0.64520    0.47550    1.000
    C100     C        0.86114    0.64120    0.52090    1.000
    H78      H        0.85710    0.59750    0.54190    1.000
    C101     C        0.87726    0.72220    0.52390    1.000
    H79      H        0.88500    0.72900    0.54990    1.000
    C102     C        0.82843    0.55850    0.42120    1.000
    C103     C        0.68794    0.24880    0.32200    1.000
    H80      H        0.67480    0.21300    0.33090    1.000
    C104     C        0.70719    0.24940    0.35560    1.000
    H81      H        0.70730    0.21510    0.38080    1.000
    C105     C        0.72499    0.31260    0.34090    1.000
    C106     C        0.72248    0.35990    0.30500    1.000
    H82      H        0.73410    0.40480    0.29770    1.000
    C107     C        0.70456    0.34640    0.27930    1.000
    H83      H        0.70440    0.38060    0.25400    1.000
    C108     C        0.76240    0.37500    0.36650    1.000
    C109     C        0.89234    0.05750    0.47310    1.000
    H84      H        0.90810    0.05470    0.46320    1.000
    C110     C        0.87870    0.12980    0.45960    1.000
    H85      H        0.88420    0.17740    0.44160    1.000
    C111     C        0.85440    0.12610    0.47620    1.000
    C112     C        0.84517    0.05630    0.50400    1.000
    H86      H        0.82950    0.05780    0.51410    1.000
    C113     C        0.86077    0.98800    0.51450    1.000
    H87      H        0.85520    0.93900    0.53190    1.000
    C114     C        0.81751    0.21360    0.46120    1.000
    C115     C        0.81441    0.46260    0.42090    1.000
    C116     C        0.79600    0.46190    0.39260    1.000
    H88      H        0.79260    0.51200    0.37420    1.000
    C117     C        0.78302    0.37900    0.39410    1.000
    C118     C        0.78994    0.29710    0.41200    1.000
    H89      H        0.78240    0.23990    0.40520    1.000
    C119     C        0.80882    0.29990    0.44100    1.000
    C120     C        0.82192    0.38510    0.44560    1.000
    H90      H        0.83490    0.38980    0.46410    1.000
    O16      O        0.57793    0.45780    0.38170    1.000
    O17      O        0.50294    0.62160    0.40680    1.000
    O18      O        0.51226    0.14580    0.46320    1.000
    N31      N        0.63618    0.26680    0.29319    1.000
    N32      N        0.43002    0.77990    0.47660    1.000
    N33      N        0.43086    0.97780    0.46640    1.000
    N34      N        0.57633    0.30530    0.37050    1.000
    H91      H        0.56850    0.25370    0.37590    1.000
    N35      N        0.47714    0.55690    0.45370    1.000
    H92      H        0.47470    0.50870    0.47010    1.000
    N36      N        0.47747    0.20000    0.43920    1.000
    H93      H        0.47100    0.24840    0.42690    1.000
    C121     C        0.63318    0.34170    0.31680    1.000
    H94      H        0.64460    0.38960    0.31400    1.000
    C122     C        0.61578    0.35790    0.34450    1.000
    H95      H        0.61590    0.41190    0.36160    1.000
    C123     C        0.59745    0.29250    0.34720    1.000
    C124     C        0.59988    0.21430    0.32430    1.000
    H96      H        0.58830    0.16690    0.32770    1.000
    C125     C        0.61754    0.19770    0.29660    1.000
    H97      H        0.61770    0.14280    0.28010    1.000
    C126     C        0.56709    0.37850    0.38450    1.000
    C127     C        0.43214    0.70940    0.50000    1.000
    H98      H        0.42330    0.70760    0.52500    1.000
    C128     C        0.44654    0.63600    0.49100    1.000
    H99      H        0.44640    0.58340    0.50910    1.000
    C129     C        0.46145    0.63470    0.45640    1.000
    C130     C        0.46007    0.71170    0.42900    1.000
    H100     H        0.46960    0.71660    0.40480    1.000
    C131     C        0.44328    0.78180    0.44060    1.000
    H101     H        0.44110    0.83300    0.42220    1.000
    C132     C        0.49552    0.55390    0.42710    1.000
    C133     C        0.42493    0.04630    0.44150    1.000
    H102     H        0.40940    0.04580    0.43050    1.000
    C134     C        0.43931    0.11850    0.43030    1.000
    H103     H        0.43470    0.16310    0.41000    1.000
    C135     C        0.46162    0.12320    0.45070    1.000
    C136     C        0.46900    0.05450    0.47710    1.000
    H104     H        0.48450    0.05380    0.48830    1.000
    C137     C        0.45126    0.98030    0.48720    1.000
    H105     H        0.45450    0.93550    0.50820    1.000
    C138     C        0.50092    0.20360    0.44570    1.000
    C139     C        0.54291    0.37910    0.40260    1.000
    C140     C        0.53049    0.46160    0.40520    1.000
    H106     H        0.53680    0.51690    0.39320    1.000
    C141     C        0.50873    0.46450    0.42560    1.000
    C142     C        0.49825    0.37930    0.43580    1.000
    H107     H        0.48220    0.37840    0.44380    1.000
    C143     C        0.51084    0.29480    0.43460    1.000
    C144     C        0.53180    0.29170    0.41480    1.000
    H108     H        0.53920    0.23370    0.40910    1.000
    Cu4      Cu       0.90614    0.61790    0.98232    1.000
    O19      O        0.82916    0.89270    0.10610    1.000
    O20      O        0.76777    0.08780    0.17570    1.000
    O21      O        0.80319    0.34650    0.02460    1.000
    N37      N        0.88277    0.71110    0.00510    1.000
    N38      N        0.68439    0.21990    0.21239    1.000
    N39      N        0.88476    0.51580    0.99850    1.000
    N40      N        0.83815    0.93190    0.04100    1.000
    H109     H        0.83560    0.97820    0.02360    1.000
    N41      N        0.74391    0.18160    0.12860    1.000
    H110     H        0.74310    0.21660    0.10620    1.000
    N42      N        0.84089    0.29510    0.04010    1.000
    H111     H        0.84890    0.24950    0.05180    1.000
    C145     C        0.87283    0.71410    0.04500    1.000
    H112     H        0.87630    0.66590    0.06430    1.000
    C146     C        0.85779    0.78740    0.05680    1.000
    H113     H        0.85150    0.79240    0.08410    1.000
    C147     C        0.85254    0.85480    0.02450    1.000
    C148     C        0.86114    0.85880    0.97910    1.000
    H114     H        0.85710    0.90250    0.95810    1.000
    C149     C        0.87726    0.77780    0.97610    1.000
    H115     H        0.88500    0.77100    0.95010    1.000
    C150     C        0.82843    0.94150    0.07880    1.000
    C151     C        0.68794    0.25120    0.17800    1.000
    H116     H        0.67480    0.28700    0.16910    1.000
    C152     C        0.70719    0.25060    0.14440    1.000
    H117     H        0.70730    0.28490    0.11920    1.000
    C153     C        0.72499    0.18740    0.15910    1.000
    C154     C        0.72248    0.14010    0.19500    1.000
    H118     H        0.73410    0.09520    0.20230    1.000
    C155     C        0.70456    0.15360    0.22070    1.000
    H119     H        0.70440    0.11940    0.24600    1.000
    C156     C        0.76240    0.12500    0.13350    1.000
    C157     C        0.89234    0.44250    0.02690    1.000
    H120     H        0.90810    0.44530    0.03680    1.000
    C158     C        0.87870    0.37020    0.04040    1.000
    H121     H        0.88420    0.32260    0.05840    1.000
    C159     C        0.85440    0.37390    0.02380    1.000
    C160     C        0.84517    0.44370    0.99600    1.000
    H122     H        0.82950    0.44220    0.98590    1.000
    C161     C        0.86077    0.51200    0.98550    1.000
    H123     H        0.85520    0.56100    0.96810    1.000
    C162     C        0.81751    0.28640    0.03880    1.000
    C163     C        0.81441    0.03740    0.07910    1.000
    C164     C        0.79600    0.03810    0.10740    1.000
    H124     H        0.79260    0.98800    0.12580    1.000
    C165     C        0.78302    0.12100    0.10590    1.000
    C166     C        0.78994    0.20290    0.08800    1.000
    H125     H        0.78240    0.26010    0.09480    1.000
    C167     C        0.80882    0.20010    0.05900    1.000
    C168     C        0.82192    0.11490    0.05440    1.000
    H126     H        0.83490    0.11020    0.03590    1.000
    O22      O        0.57793    0.04220    0.11830    1.000
    O23      O        0.50294    0.87840    0.09320    1.000
    O24      O        0.51226    0.35420    0.03680    1.000
    N43      N        0.63618    0.23320    0.20681    1.000
    N44      N        0.43002    0.72010    0.02340    1.000
    N45      N        0.43086    0.52220    0.03360    1.000
    N46      N        0.57633    0.19470    0.12950    1.000
    H127     H        0.56850    0.24630    0.12410    1.000
    N47      N        0.47714    0.94310    0.04630    1.000
    H128     H        0.47470    0.99130    0.02990    1.000
    N48      N        0.47747    0.30000    0.06080    1.000
    H129     H        0.47100    0.25160    0.07310    1.000
    C169     C        0.63318    0.15830    0.18320    1.000
    H130     H        0.64460    0.11040    0.18600    1.000
    C170     C        0.61578    0.14210    0.15550    1.000
    H131     H        0.61590    0.08810    0.13840    1.000
    C171     C        0.59745    0.20750    0.15280    1.000
    C172     C        0.59988    0.28570    0.17570    1.000
    H132     H        0.58830    0.33310    0.17230    1.000
    C173     C        0.61754    0.30230    0.20340    1.000
    H133     H        0.61770    0.35720    0.21990    1.000
    C174     C        0.56709    0.12150    0.11550    1.000
    C175     C        0.43214    0.79060    0.00000    1.000
    H134     H        0.42330    0.79240    0.97500    1.000
    C176     C        0.44654    0.86400    0.00900    1.000
    H135     H        0.44640    0.91660    0.99090    1.000
    C177     C        0.46145    0.86530    0.04360    1.000
    C178     C        0.46007    0.78830    0.07100    1.000
    H136     H        0.46960    0.78340    0.09520    1.000
    C179     C        0.44328    0.71820    0.05940    1.000
    H137     H        0.44110    0.66700    0.07780    1.000
    C180     C        0.49552    0.94610    0.07290    1.000
    C181     C        0.42493    0.45370    0.05850    1.000
    H138     H        0.40940    0.45420    0.06950    1.000
    C182     C        0.43931    0.38150    0.06970    1.000
    H139     H        0.43470    0.33690    0.09000    1.000
    C183     C        0.46162    0.37680    0.04930    1.000
    C184     C        0.46900    0.44550    0.02290    1.000
    H140     H        0.48450    0.44620    0.01170    1.000
    C185     C        0.45126    0.51970    0.01280    1.000
    H141     H        0.45450    0.56450    0.99180    1.000
    C186     C        0.50092    0.29640    0.05430    1.000
    C187     C        0.54291    0.12090    0.09740    1.000
    C188     C        0.53049    0.03840    0.09480    1.000
    H142     H        0.53680    0.98310    0.10680    1.000
    C189     C        0.50873    0.03550    0.07440    1.000
    C190     C        0.49825    0.12070    0.06420    1.000
    H143     H        0.48220    0.12160    0.05620    1.000
    C191     C        0.51084    0.20520    0.06540    1.000
    C192     C        0.53180    0.20830    0.08520    1.000
    H144     H        0.53920    0.26630    0.09090    1.000
    Cu5      Cu       0.16032    0.25000    0.75000    1.000
    Cu6      Cu       0.66032    0.25000    0.25000    1.000
    Cu7      Cu       0.09386    0.11790    0.48232    1.000
    O25      O        0.17084    0.39270    0.60610    1.000
    O26      O        0.23223    0.58780    0.67570    1.000
    O27      O        0.19681    0.84650    0.52460    1.000
    N49      N        0.11723    0.21110    0.50510    1.000
    N50      N        0.31561    0.71990    0.71239    1.000
    N51      N        0.11524    0.01580    0.49850    1.000
    N52      N        0.16185    0.43190    0.54100    1.000
    H145     H        0.16440    0.47820    0.52360    1.000
    N53      N        0.25609    0.68160    0.62860    1.000
    H146     H        0.25690    0.71660    0.60620    1.000
    N54      N        0.15911    0.79510    0.54010    1.000
    H147     H        0.15110    0.74950    0.55180    1.000
    C193     C        0.12717    0.21410    0.54500    1.000
    H148     H        0.12370    0.16590    0.56430    1.000
    C194     C        0.14221    0.28740    0.55680    1.000
    H149     H        0.14850    0.29240    0.58410    1.000
    C195     C        0.14746    0.35480    0.52450    1.000
    C196     C        0.13886    0.35880    0.47910    1.000
    H150     H        0.14290    0.40250    0.45810    1.000
    C197     C        0.12274    0.27780    0.47610    1.000
    H151     H        0.11500    0.27100    0.45010    1.000
    C198     C        0.17157    0.44150    0.57880    1.000
    C199     C        0.31206    0.75120    0.67800    1.000
    H152     H        0.32520    0.78700    0.66910    1.000
    C200     C        0.29281    0.75060    0.64440    1.000
    H153     H        0.29270    0.78490    0.61920    1.000
    C201     C        0.27501    0.68740    0.65910    1.000
    C202     C        0.27752    0.64010    0.69500    1.000
    H154     H        0.26590    0.59520    0.70230    1.000
    C203     C        0.29544    0.65360    0.72070    1.000
    H155     H        0.29560    0.61940    0.74600    1.000
    C204     C        0.23760    0.62500    0.63350    1.000
    C205     C        0.10766    0.94250    0.52690    1.000
    H156     H        0.09190    0.94530    0.53680    1.000
    C206     C        0.12130    0.87020    0.54040    1.000
    H157     H        0.11580    0.82260    0.55840    1.000
    C207     C        0.14560    0.87390    0.52380    1.000
    C208     C        0.15483    0.94370    0.49600    1.000
    H158     H        0.17050    0.94220    0.48590    1.000
    C209     C        0.13923    0.01200    0.48550    1.000
    H159     H        0.14480    0.06100    0.46810    1.000
    C210     C        0.18249    0.78640    0.53880    1.000
    C211     C        0.18559    0.53740    0.57910    1.000
    C212     C        0.20400    0.53810    0.60740    1.000
    H160     H        0.20740    0.48800    0.62580    1.000
    C213     C        0.21698    0.62100    0.60590    1.000
    C214     C        0.21006    0.70290    0.58800    1.000
    H161     H        0.21760    0.76010    0.59480    1.000
    C215     C        0.19118    0.70010    0.55900    1.000
    C216     C        0.17808    0.61490    0.55440    1.000
    H162     H        0.16510    0.61020    0.53590    1.000
    O28      O        0.42207    0.54220    0.61830    1.000
    O29      O        0.49706    0.37840    0.59320    1.000
    O30      O        0.48774    0.85420    0.53680    1.000
    N55      N        0.36382    0.73320    0.70681    1.000
    N56      N        0.56998    0.22010    0.52340    1.000
    N57      N        0.56914    0.02220    0.53360    1.000
    N58      N        0.42367    0.69470    0.62950    1.000
    H163     H        0.43150    0.74630    0.62410    1.000
    N59      N        0.52286    0.44310    0.54630    1.000
    H164     H        0.52530    0.49130    0.52990    1.000
    N60      N        0.52253    0.80000    0.56080    1.000
    H165     H        0.52900    0.75160    0.57310    1.000
    C217     C        0.36682    0.65830    0.68320    1.000
    H166     H        0.35540    0.61040    0.68600    1.000
    C218     C        0.38422    0.64210    0.65550    1.000
    H167     H        0.38410    0.58810    0.63840    1.000
    C219     C        0.40255    0.70750    0.65280    1.000
    C220     C        0.40012    0.78570    0.67570    1.000
    H168     H        0.41170    0.83310    0.67230    1.000
    C221     C        0.38246    0.80230    0.70340    1.000
    H169     H        0.38230    0.85720    0.71990    1.000
    C222     C        0.43291    0.62150    0.61550    1.000
    C223     C        0.56786    0.29060    0.50000    1.000
    H170     H        0.57670    0.29240    0.47500    1.000
    C224     C        0.55346    0.36400    0.50900    1.000
    H171     H        0.55360    0.41660    0.49090    1.000
    C225     C        0.53855    0.36530    0.54360    1.000
    C226     C        0.53993    0.28830    0.57100    1.000
    H172     H        0.53040    0.28340    0.59520    1.000
    C227     C        0.55672    0.21820    0.55940    1.000
    H173     H        0.55890    0.16700    0.57780    1.000
    C228     C        0.50448    0.44610    0.57290    1.000
    C229     C        0.57507    0.95370    0.55850    1.000
    H174     H        0.59060    0.95420    0.56950    1.000
    C230     C        0.56069    0.88150    0.56970    1.000
    H175     H        0.56530    0.83690    0.59000    1.000
    C231     C        0.53838    0.87680    0.54930    1.000
    C232     C        0.53100    0.94550    0.52290    1.000
    H176     H        0.51550    0.94620    0.51170    1.000
    C233     C        0.54874    0.01970    0.51280    1.000
    H177     H        0.54550    0.06450    0.49180    1.000
    C234     C        0.49908    0.79640    0.55430    1.000
    C235     C        0.45709    0.62090    0.59740    1.000
    C236     C        0.46951    0.53840    0.59480    1.000
    H178     H        0.46320    0.48310    0.60680    1.000
    C237     C        0.49127    0.53550    0.57440    1.000
    C238     C        0.50175    0.62070    0.56420    1.000
    H179     H        0.51780    0.62160    0.55620    1.000
    C239     C        0.48916    0.70520    0.56540    1.000
    C240     C        0.46820    0.70830    0.58520    1.000
    H180     H        0.46080    0.76630    0.59090    1.000
    Cu8      Cu       0.09386    0.38210    0.01768    1.000
    O31      O        0.17084    0.10730    0.89390    1.000
    O32      O        0.23223    0.91220    0.82430    1.000
    O33      O        0.19681    0.65350    0.97540    1.000
    N61      N        0.11723    0.28890    0.99490    1.000
    N62      N        0.31561    0.78010    0.78761    1.000
    N63      N        0.11524    0.48420    0.00150    1.000
    N64      N        0.16185    0.06810    0.95900    1.000
    H181     H        0.16440    0.02180    0.97640    1.000
    N65      N        0.25609    0.81840    0.87140    1.000
    H182     H        0.25690    0.78340    0.89380    1.000
    N66      N        0.15911    0.70490    0.95990    1.000
    H183     H        0.15110    0.75050    0.94820    1.000
    C241     C        0.12717    0.28590    0.95500    1.000
    H184     H        0.12370    0.33410    0.93570    1.000
    C242     C        0.14221    0.21260    0.94320    1.000
    H185     H        0.14850    0.20760    0.91590    1.000
    C243     C        0.14746    0.14520    0.97550    1.000
    C244     C        0.13886    0.14120    0.02090    1.000
    H186     H        0.14290    0.09750    0.04190    1.000
    C245     C        0.12274    0.22220    0.02390    1.000
    H187     H        0.11500    0.22900    0.04990    1.000
    C246     C        0.17157    0.05850    0.92120    1.000
    C247     C        0.31206    0.74880    0.82200    1.000
    H188     H        0.32520    0.71300    0.83090    1.000
    C248     C        0.29281    0.74940    0.85560    1.000
    H189     H        0.29270    0.71510    0.88080    1.000
    C249     C        0.27501    0.81260    0.84090    1.000
    C250     C        0.27752    0.85990    0.80500    1.000
    H190     H        0.26590    0.90480    0.79770    1.000
    C251     C        0.29544    0.84640    0.77930    1.000
    H191     H        0.29560    0.88060    0.75400    1.000
    C252     C        0.23760    0.87500    0.86650    1.000
    C253     C        0.10766    0.55750    0.97310    1.000
    H192     H        0.09190    0.55470    0.96320    1.000
    C254     C        0.12130    0.62980    0.95960    1.000
    H193     H        0.11580    0.67740    0.94160    1.000
    C255     C        0.14560    0.62610    0.97620    1.000
    C256     C        0.15483    0.55630    0.00400    1.000
    H194     H        0.17050    0.55780    0.01410    1.000
    C257     C        0.13923    0.48800    0.01450    1.000
    H195     H        0.14480    0.43900    0.03190    1.000
    C258     C        0.18249    0.71360    0.96120    1.000
    C259     C        0.18559    0.96260    0.92090    1.000
    C260     C        0.20400    0.96190    0.89260    1.000
    H196     H        0.20740    0.01200    0.87420    1.000
    C261     C        0.21698    0.87900    0.89410    1.000
    C262     C        0.21006    0.79710    0.91200    1.000
    H197     H        0.21760    0.73990    0.90520    1.000
    C263     C        0.19118    0.79990    0.94100    1.000
    C264     C        0.17808    0.88510    0.94560    1.000
    H198     H        0.16510    0.88980    0.96410    1.000
    O34      O        0.42207    0.95780    0.88170    1.000
    O35      O        0.49706    0.12160    0.90680    1.000
    O36      O        0.48774    0.64580    0.96320    1.000
    N67      N        0.36382    0.76680    0.79319    1.000
    N68      N        0.56998    0.27990    0.97660    1.000
    N69      N        0.56914    0.47780    0.96640    1.000
    N70      N        0.42367    0.80530    0.87050    1.000
    H199     H        0.43150    0.75370    0.87590    1.000
    N71      N        0.52286    0.05690    0.95370    1.000
    H200     H        0.52530    0.00870    0.97010    1.000
    N72      N        0.52253    0.70000    0.93920    1.000
    H201     H        0.52900    0.74840    0.92690    1.000
    C265     C        0.36682    0.84170    0.81680    1.000
    H202     H        0.35540    0.88960    0.81400    1.000
    C266     C        0.38422    0.85790    0.84450    1.000
    H203     H        0.38410    0.91190    0.86160    1.000
    C267     C        0.40255    0.79250    0.84720    1.000
    C268     C        0.40012    0.71430    0.82430    1.000
    H204     H        0.41170    0.66690    0.82770    1.000
    C269     C        0.38246    0.69770    0.79660    1.000
    H205     H        0.38230    0.64280    0.78010    1.000
    C270     C        0.43291    0.87850    0.88450    1.000
    C271     C        0.56786    0.20940    0.00000    1.000
    H206     H        0.57670    0.20760    0.02500    1.000
    C272     C        0.55346    0.13600    0.99100    1.000
    H207     H        0.55360    0.08340    0.00910    1.000
    C273     C        0.53855    0.13470    0.95640    1.000
    C274     C        0.53993    0.21170    0.92900    1.000
    H208     H        0.53040    0.21660    0.90480    1.000
    C275     C        0.55672    0.28180    0.94060    1.000
    H209     H        0.55890    0.33300    0.92220    1.000
    C276     C        0.50448    0.05390    0.92710    1.000
    C277     C        0.57507    0.54630    0.94150    1.000
    H210     H        0.59060    0.54580    0.93050    1.000
    C278     C        0.56069    0.61850    0.93030    1.000
    H211     H        0.56530    0.66310    0.91000    1.000
    C279     C        0.53838    0.62320    0.95070    1.000
    C280     C        0.53100    0.55450    0.97710    1.000
    H212     H        0.51550    0.55380    0.98830    1.000
    C281     C        0.54874    0.48030    0.98720    1.000
    H213     H        0.54550    0.43550    0.00820    1.000
    C282     C        0.49908    0.70360    0.94570    1.000
    C283     C        0.45709    0.87910    0.90260    1.000
    C284     C        0.46951    0.96160    0.90520    1.000
    H214     H        0.46320    0.01690    0.89320    1.000
    C285     C        0.49127    0.96450    0.92560    1.000
    C286     C        0.50175    0.87930    0.93580    1.000
    H215     H        0.51780    0.87840    0.94380    1.000
    C287     C        0.48916    0.79480    0.93460    1.000
    C288     C        0.46820    0.79170    0.91480    1.000
    H216     H        0.46080    0.73370    0.90910    1.000
    Cu9      Cu       0.59386    0.11790    0.51768    1.000
    O37      O        0.67084    0.39270    0.39390    1.000
    O38      O        0.73223    0.58780    0.32430    1.000
    O39      O        0.69681    0.84650    0.47540    1.000
    N73      N        0.61723    0.21110    0.49490    1.000
    N74      N        0.81561    0.71990    0.28761    1.000
    N75      N        0.61524    0.01580    0.50150    1.000
    N76      N        0.66185    0.43190    0.45900    1.000
    H217     H        0.66440    0.47820    0.47640    1.000
    N77      N        0.75609    0.68160    0.37140    1.000
    H218     H        0.75690    0.71660    0.39380    1.000
    N78      N        0.65911    0.79510    0.45990    1.000
    H219     H        0.65110    0.74950    0.44820    1.000
    C289     C        0.62717    0.21410    0.45500    1.000
    H220     H        0.62370    0.16590    0.43570    1.000
    C290     C        0.64221    0.28740    0.44320    1.000
    H221     H        0.64850    0.29240    0.41590    1.000
    C291     C        0.64746    0.35480    0.47550    1.000
    C292     C        0.63886    0.35880    0.52090    1.000
    H222     H        0.64290    0.40250    0.54190    1.000
    C293     C        0.62274    0.27780    0.52390    1.000
    H223     H        0.61500    0.27100    0.54990    1.000
    C294     C        0.67157    0.44150    0.42120    1.000
    C295     C        0.81206    0.75120    0.32200    1.000
    H224     H        0.82520    0.78700    0.33090    1.000
    C296     C        0.79281    0.75060    0.35560    1.000
    H225     H        0.79270    0.78490    0.38080    1.000
    C297     C        0.77501    0.68740    0.34090    1.000
    C298     C        0.77752    0.64010    0.30500    1.000
    H226     H        0.76590    0.59520    0.29770    1.000
    C299     C        0.79544    0.65360    0.27930    1.000
    H227     H        0.79560    0.61940    0.25400    1.000
    C300     C        0.73760    0.62500    0.36650    1.000
    C301     C        0.60766    0.94250    0.47310    1.000
    H228     H        0.59190    0.94530    0.46320    1.000
    C302     C        0.62130    0.87020    0.45960    1.000
    H229     H        0.61580    0.82260    0.44160    1.000
    C303     C        0.64560    0.87390    0.47620    1.000
    C304     C        0.65483    0.94370    0.50400    1.000
    H230     H        0.67050    0.94220    0.51410    1.000
    C305     C        0.63923    0.01200    0.51450    1.000
    H231     H        0.64480    0.06100    0.53190    1.000
    C306     C        0.68249    0.78640    0.46120    1.000
    C307     C        0.68559    0.53740    0.42090    1.000
    C308     C        0.70400    0.53810    0.39260    1.000
    H232     H        0.70740    0.48800    0.37420    1.000
    C309     C        0.71698    0.62100    0.39410    1.000
    C310     C        0.71006    0.70290    0.41200    1.000
    H233     H        0.71760    0.76010    0.40520    1.000
    C311     C        0.69118    0.70010    0.44100    1.000
    C312     C        0.67808    0.61490    0.44560    1.000
    H234     H        0.66510    0.61020    0.46410    1.000
    O40      O        0.92207    0.54220    0.38170    1.000
    O41      O        0.99706    0.37840    0.40680    1.000
    O42      O        0.98774    0.85420    0.46320    1.000
    N79      N        0.86382    0.73320    0.29319    1.000
    N80      N        0.06998    0.22010    0.47660    1.000
    N81      N        0.06914    0.02220    0.46640    1.000
    N82      N        0.92367    0.69470    0.37050    1.000
    H235     H        0.93150    0.74630    0.37590    1.000
    N83      N        0.02286    0.44310    0.45370    1.000
    H236     H        0.02530    0.49130    0.47010    1.000
    N84      N        0.02253    0.80000    0.43920    1.000
    H237     H        0.02900    0.75160    0.42690    1.000
    C313     C        0.86682    0.65830    0.31680    1.000
    H238     H        0.85540    0.61040    0.31400    1.000
    C314     C        0.88422    0.64210    0.34450    1.000
    H239     H        0.88410    0.58810    0.36160    1.000
    C315     C        0.90255    0.70750    0.34720    1.000
    C316     C        0.90012    0.78570    0.32430    1.000
    H240     H        0.91170    0.83310    0.32770    1.000
    C317     C        0.88246    0.80230    0.29660    1.000
    H241     H        0.88230    0.85720    0.28010    1.000
    C318     C        0.93291    0.62150    0.38450    1.000
    C319     C        0.06786    0.29060    0.50000    1.000
    H242     H        0.07670    0.29240    0.52500    1.000
    C320     C        0.05346    0.36400    0.49100    1.000
    H243     H        0.05360    0.41660    0.50910    1.000
    C321     C        0.03855    0.36530    0.45640    1.000
    C322     C        0.03993    0.28830    0.42900    1.000
    H244     H        0.03040    0.28340    0.40480    1.000
    C323     C        0.05672    0.21820    0.44060    1.000
    H245     H        0.05890    0.16700    0.42220    1.000
    C324     C        0.00448    0.44610    0.42710    1.000
    C325     C        0.07507    0.95370    0.44150    1.000
    H246     H        0.09060    0.95420    0.43050    1.000
    C326     C        0.06069    0.88150    0.43030    1.000
    H247     H        0.06530    0.83690    0.41000    1.000
    C327     C        0.03838    0.87680    0.45070    1.000
    C328     C        0.03100    0.94550    0.47710    1.000
    H248     H        0.01550    0.94620    0.48830    1.000
    C329     C        0.04874    0.01970    0.48720    1.000
    H249     H        0.04550    0.06450    0.50820    1.000
    C330     C        0.99908    0.79640    0.44570    1.000
    C331     C        0.95709    0.62090    0.40260    1.000
    C332     C        0.96951    0.53840    0.40520    1.000
    H250     H        0.96320    0.48310    0.39320    1.000
    C333     C        0.99127    0.53550    0.42560    1.000
    C334     C        0.00175    0.62070    0.43580    1.000
    H251     H        0.01780    0.62160    0.44380    1.000
    C335     C        0.98916    0.70520    0.43460    1.000
    C336     C        0.96820    0.70830    0.41480    1.000
    H252     H        0.96080    0.76630    0.40910    1.000
    Cu10     Cu       0.59386    0.38210    0.98232    1.000
    O43      O        0.67084    0.10730    0.10610    1.000
    O44      O        0.73223    0.91220    0.17570    1.000
    O45      O        0.69681    0.65350    0.02460    1.000
    N85      N        0.61723    0.28890    0.00510    1.000
    N86      N        0.81561    0.78010    0.21239    1.000
    N87      N        0.61524    0.48420    0.99850    1.000
    N88      N        0.66185    0.06810    0.04100    1.000
    H253     H        0.66440    0.02180    0.02360    1.000
    N89      N        0.75609    0.81840    0.12860    1.000
    H254     H        0.75690    0.78340    0.10620    1.000
    N90      N        0.65911    0.70490    0.04010    1.000
    H255     H        0.65110    0.75050    0.05180    1.000
    C337     C        0.62717    0.28590    0.04500    1.000
    H256     H        0.62370    0.33410    0.06430    1.000
    C338     C        0.64221    0.21260    0.05680    1.000
    H257     H        0.64850    0.20760    0.08410    1.000
    C339     C        0.64746    0.14520    0.02450    1.000
    C340     C        0.63886    0.14120    0.97910    1.000
    H258     H        0.64290    0.09750    0.95810    1.000
    C341     C        0.62274    0.22220    0.97610    1.000
    H259     H        0.61500    0.22900    0.95010    1.000
    C342     C        0.67157    0.05850    0.07880    1.000
    C343     C        0.81206    0.74880    0.17800    1.000
    H260     H        0.82520    0.71300    0.16910    1.000
    C344     C        0.79281    0.74940    0.14440    1.000
    H261     H        0.79270    0.71510    0.11920    1.000
    C345     C        0.77501    0.81260    0.15910    1.000
    C346     C        0.77752    0.85990    0.19500    1.000
    H262     H        0.76590    0.90480    0.20230    1.000
    C347     C        0.79544    0.84640    0.22070    1.000
    H263     H        0.79560    0.88060    0.24600    1.000
    C348     C        0.73760    0.87500    0.13350    1.000
    C349     C        0.60766    0.55750    0.02690    1.000
    H264     H        0.59190    0.55470    0.03680    1.000
    C350     C        0.62130    0.62980    0.04040    1.000
    H265     H        0.61580    0.67740    0.05840    1.000
    C351     C        0.64560    0.62610    0.02380    1.000
    C352     C        0.65483    0.55630    0.99600    1.000
    H266     H        0.67050    0.55780    0.98590    1.000
    C353     C        0.63923    0.48800    0.98550    1.000
    H267     H        0.64480    0.43900    0.96810    1.000
    C354     C        0.68249    0.71360    0.03880    1.000
    C355     C        0.68559    0.96260    0.07910    1.000
    C356     C        0.70400    0.96190    0.10740    1.000
    H268     H        0.70740    0.01200    0.12580    1.000
    C357     C        0.71698    0.87900    0.10590    1.000
    C358     C        0.71006    0.79710    0.08800    1.000
    H269     H        0.71760    0.73990    0.09480    1.000
    C359     C        0.69118    0.79990    0.05900    1.000
    C360     C        0.67808    0.88510    0.05440    1.000
    H270     H        0.66510    0.88980    0.03590    1.000
    O46      O        0.92207    0.95780    0.11830    1.000
    O47      O        0.99706    0.12160    0.09320    1.000
    O48      O        0.98774    0.64580    0.03680    1.000
    N91      N        0.86382    0.76680    0.20681    1.000
    N92      N        0.06998    0.27990    0.02340    1.000
    N93      N        0.06914    0.47780    0.03360    1.000
    N94      N        0.92367    0.80530    0.12950    1.000
    H271     H        0.93150    0.75370    0.12410    1.000
    N95      N        0.02286    0.05690    0.04630    1.000
    H272     H        0.02530    0.00870    0.02990    1.000
    N96      N        0.02253    0.70000    0.06080    1.000
    H273     H        0.02900    0.74840    0.07310    1.000
    C361     C        0.86682    0.84170    0.18320    1.000
    H274     H        0.85540    0.88960    0.18600    1.000
    C362     C        0.88422    0.85790    0.15550    1.000
    H275     H        0.88410    0.91190    0.13840    1.000
    C363     C        0.90255    0.79250    0.15280    1.000
    C364     C        0.90012    0.71430    0.17570    1.000
    H276     H        0.91170    0.66690    0.17230    1.000
    C365     C        0.88246    0.69770    0.20340    1.000
    H277     H        0.88230    0.64280    0.21990    1.000
    C366     C        0.93291    0.87850    0.11550    1.000
    C367     C        0.06786    0.20940    0.00000    1.000
    H278     H        0.07670    0.20760    0.97500    1.000
    C368     C        0.05346    0.13600    0.00900    1.000
    H279     H        0.05360    0.08340    0.99090    1.000
    C369     C        0.03855    0.13470    0.04360    1.000
    C370     C        0.03993    0.21170    0.07100    1.000
    H280     H        0.03040    0.21660    0.09520    1.000
    C371     C        0.05672    0.28180    0.05940    1.000
    H281     H        0.05890    0.33300    0.07780    1.000
    C372     C        0.00448    0.05390    0.07290    1.000
    C373     C        0.07507    0.54630    0.05850    1.000
    H282     H        0.09060    0.54580    0.06950    1.000
    C374     C        0.06069    0.61850    0.06970    1.000
    H283     H        0.06530    0.66310    0.09000    1.000
    C375     C        0.03838    0.62320    0.04930    1.000
    C376     C        0.03100    0.55450    0.02290    1.000
    H284     H        0.01550    0.55380    0.01170    1.000
    C377     C        0.04874    0.48030    0.01280    1.000
    H285     H        0.04550    0.43550    0.99180    1.000
    C378     C        0.99908    0.70360    0.05430    1.000
    C379     C        0.95709    0.87910    0.09740    1.000
    C380     C        0.96951    0.96160    0.09480    1.000
    H286     H        0.96320    0.01690    0.10680    1.000
    C381     C        0.99127    0.96450    0.07440    1.000
    C382     C        0.00175    0.87930    0.06420    1.000
    H287     H        0.01780    0.87840    0.05620    1.000
    C383     C        0.98916    0.79480    0.06540    1.000
    C384     C        0.96820    0.79170    0.08520    1.000
    H288     H        0.96080    0.73370    0.09090    1.000
    Cu11     Cu       0.33968    0.75000    0.75000    1.000
    Cu12     Cu       0.83968    0.75000    0.25000    1.000
