# CIF file generated by openbabel 3.1.0, see https://openbabel.org
data_I
_chemical_name_common 'NUHPAI_clean'
_cell_length_a 12.335
_cell_length_b 12.4965
_cell_length_c 18.1858
_cell_angle_alpha 80.3646
_cell_angle_beta 70.1758
_cell_angle_gamma 60.4266
_space_group_name_H-M_alt 'P 1'
_space_group_name_Hall 'P 1'
loop_
    _symmetry_equiv_pos_as_xyz
    x,y,z
loop_
    _atom_site_label
    _atom_site_type_symbol
    _atom_site_fract_x
    _atom_site_fract_y
    _atom_site_fract_z
    _atom_site_occupancy
    Zn1      Zn       0.62500    0.25000    0.75000    1.000
    Zn2      Zn       0.37500    0.75000    0.25000    1.000
    H1       H        0.40660    0.30920    0.90300    1.000
    H2       H        0.31770    0.62000    0.00120    1.000
    H3       H        0.47640    0.64120    0.89240    1.000
    H4       H        0.59550    0.49540    0.79560    1.000
    H5       H        0.27920    0.36060    0.04900    1.000
    H6       H        0.19750    0.50520    0.06680    1.000
    H7       H        0.09290    0.33220    0.07620    1.000
    H8       H        0.00290    0.47320    0.10340    1.000
    H9       H        0.01900    0.63220    0.01540    1.000
    H10      H        0.11900    0.60040    0.92860    1.000
    H11      H        0.69040    0.19080    0.90300    1.000
    H12      H        0.68110    0.88000    0.00120    1.000
    H13      H        0.63120    0.85880    0.89240    1.000
    H14      H        0.60890    0.00460    0.79560    1.000
    H15      H        0.67180    0.13940    0.04900    1.000
    H16      H        0.73570    0.99480    0.06680    1.000
    H17      H        0.83090    0.16780    0.07620    1.000
    H18      H        0.89370    0.02680    0.10340    1.000
    H19      H        0.96560    0.86780    0.01540    1.000
    H20      H        0.95240    0.89960    0.92860    1.000
    H21      H        0.78420    0.30920    0.59700    1.000
    H22      H        0.56230    0.62000    0.49880    1.000
    H23      H        0.38240    0.64120    0.60760    1.000
    H24      H        0.40910    0.49540    0.70440    1.000
    H25      H        0.86020    0.36060    0.45100    1.000
    H26      H        0.79730    0.50520    0.43320    1.000
    H27      H        0.07490    0.33220    0.42380    1.000
    H28      H        0.02390    0.47320    0.39660    1.000
    H29      H        0.84880    0.63220    0.48460    1.000
    H30      H        0.78060    0.60040    0.57140    1.000
    H31      H        0.61880    0.19080    0.59700    1.000
    H32      H        0.93890    0.88000    0.49880    1.000
    H33      H        0.01000    0.85880    0.60760    1.000
    H34      H        0.88650    0.00460    0.70440    1.000
    H35      H        0.68880    0.13940    0.45100    1.000
    H36      H        0.76950    0.99480    0.43320    1.000
    H37      H        0.50130    0.16780    0.42380    1.000
    H38      H        0.57950    0.02680    0.39660    1.000
    H39      H        0.66660    0.86780    0.48460    1.000
    H40      H        0.64800    0.89960    0.57140    1.000
    H41      H        0.59340    0.69080    0.09700    1.000
    H42      H        0.68230    0.38000    0.99880    1.000
    H43      H        0.52360    0.35880    0.10760    1.000
    H44      H        0.40450    0.50460    0.20440    1.000
    H45      H        0.72080    0.63940    0.95100    1.000
    H46      H        0.80250    0.49480    0.93320    1.000
    H47      H        0.90710    0.66780    0.92380    1.000
    H48      H        0.99710    0.52680    0.89660    1.000
    H49      H        0.98100    0.36780    0.98460    1.000
    H50      H        0.88100    0.39960    0.07140    1.000
    H51      H        0.30960    0.80920    0.09700    1.000
    H52      H        0.31890    0.12000    0.99880    1.000
    H53      H        0.36880    0.14120    0.10760    1.000
    H54      H        0.39110    0.99540    0.20440    1.000
    H55      H        0.32820    0.86060    0.95100    1.000
    H56      H        0.26430    0.00520    0.93320    1.000
    H57      H        0.16910    0.83220    0.92380    1.000
    H58      H        0.10630    0.97320    0.89660    1.000
    H59      H        0.03440    0.13220    0.98460    1.000
    H60      H        0.04760    0.10040    0.07140    1.000
    H61      H        0.21580    0.69080    0.40300    1.000
    H62      H        0.43770    0.38000    0.50120    1.000
    H63      H        0.61760    0.35880    0.39240    1.000
    H64      H        0.59090    0.50460    0.29560    1.000
    H65      H        0.13980    0.63940    0.54900    1.000
    H66      H        0.20270    0.49480    0.56680    1.000
    H67      H        0.92510    0.66780    0.57620    1.000
    H68      H        0.97610    0.52680    0.60340    1.000
    H69      H        0.15120    0.36780    0.51540    1.000
    H70      H        0.21940    0.39960    0.42860    1.000
    H71      H        0.38120    0.80920    0.40300    1.000
    H72      H        0.06110    0.12000    0.50120    1.000
    H73      H        0.99000    0.14120    0.39240    1.000
    H74      H        0.11350    0.99540    0.29560    1.000
    H75      H        0.31120    0.86060    0.54900    1.000
    H76      H        0.23050    0.00520    0.56680    1.000
    H77      H        0.49870    0.83220    0.57620    1.000
    H78      H        0.42050    0.97320    0.60340    1.000
    H79      H        0.33340    0.13220    0.51540    1.000
    H80      H        0.35200    0.10040    0.42860    1.000
    C1       C        0.41952    0.37860    0.90116    1.000
    C2       C        0.34141    0.46260    0.96118    1.000
    C3       C        0.36534    0.56200    0.95972    1.000
    C4       C        0.46037    0.57320    0.89606    1.000
    C5       C        0.53055    0.48640    0.83870    1.000
    C6       C        0.23839    0.44260    0.02542    1.000
    C7       C        0.04392    0.41700    0.05836    1.000
    C8       C        0.06003    0.57520    0.97074    1.000
    C9       C        0.67932    0.12140    0.90116    1.000
    C10      C        0.69741    0.03740    0.96118    1.000
    C11      C        0.67494    0.93800    0.95972    1.000
    C12      C        0.64357    0.92680    0.89606    1.000
    C13      C        0.63075    0.01360    0.83870    1.000
    C14      C        0.73619    0.05740    0.02542    1.000
    C15      C        0.89772    0.08300    0.05836    1.000
    C16      C        0.96923    0.92480    0.97074    1.000
    C17      C        0.70188    0.37860    0.59884    1.000
    C18      C        0.69599    0.46260    0.53882    1.000
    C19      C        0.57266    0.56200    0.54028    1.000
    C20      C        0.46643    0.57320    0.60394    1.000
    C21      C        0.48305    0.48640    0.66130    1.000
    C22      C        0.81901    0.44260    0.47458    1.000
    C23      C        0.03908    0.41700    0.44164    1.000
    C24      C        0.86477    0.57520    0.52926    1.000
    C25      C        0.69928    0.12140    0.59884    1.000
    C26      C        0.76519    0.03740    0.53882    1.000
    C27      C        0.88706    0.93800    0.54028    1.000
    C28      C        0.92963    0.92680    0.60394    1.000
    C29      C        0.85565    0.01360    0.66130    1.000
    C30      C        0.70641    0.05740    0.47458    1.000
    C31      C        0.51928    0.08300    0.44164    1.000
    C32      C        0.60597    0.92480    0.52926    1.000
    C33      C        0.58048    0.62140    0.09884    1.000
    C34      C        0.65859    0.53740    0.03882    1.000
    C35      C        0.63466    0.43800    0.04028    1.000
    C36      C        0.53963    0.42680    0.10394    1.000
    C37      C        0.46945    0.51360    0.16130    1.000
    C38      C        0.76161    0.55740    0.97458    1.000
    C39      C        0.95608    0.58300    0.94164    1.000
    C40      C        0.93997    0.42480    0.02926    1.000
    C41      C        0.32068    0.87860    0.09884    1.000
    C42      C        0.30259    0.96260    0.03882    1.000
    C43      C        0.32506    0.06200    0.04028    1.000
    C44      C        0.35643    0.07320    0.10394    1.000
    C45      C        0.36925    0.98640    0.16130    1.000
    C46      C        0.26381    0.94260    0.97458    1.000
    C47      C        0.10228    0.91700    0.94164    1.000
    C48      C        0.03077    0.07520    0.02926    1.000
    C49      C        0.29812    0.62140    0.40116    1.000
    C50      C        0.30401    0.53740    0.46118    1.000
    C51      C        0.42734    0.43800    0.45972    1.000
    C52      C        0.53357    0.42680    0.39606    1.000
    C53      C        0.51695    0.51360    0.33870    1.000
    C54      C        0.18099    0.55740    0.52542    1.000
    C55      C        0.96092    0.58300    0.55836    1.000
    C56      C        0.13523    0.42480    0.47074    1.000
    C57      C        0.30072    0.87860    0.40116    1.000
    C58      C        0.23481    0.96260    0.46118    1.000
    C59      C        0.11294    0.06200    0.45972    1.000
    C60      C        0.07037    0.07320    0.39606    1.000
    C61      C        0.14435    0.98640    0.33870    1.000
    C62      C        0.29359    0.94260    0.52542    1.000
    C63      C        0.48072    0.91700    0.55836    1.000
    C64      C        0.39403    0.07520    0.47074    1.000
    N1       N        0.51243    0.38900    0.84034    1.000
    N2       N        0.13452    0.45140    0.99516    1.000
    N3       N        0.64723    0.11100    0.84034    1.000
    N4       N        0.87032    0.04860    0.99516    1.000
    N5       N        0.59857    0.38900    0.65966    1.000
    N6       N        0.91408    0.45140    0.50484    1.000
    N7       N        0.74177    0.11100    0.65966    1.000
    N8       N        0.58108    0.04860    0.50484    1.000
    N9       N        0.48757    0.61100    0.15966    1.000
    N10      N        0.86548    0.54860    0.00484    1.000
    N11      N        0.35277    0.88900    0.15966    1.000
    N12      N        0.12968    0.95140    0.00484    1.000
    N13      N        0.40143    0.61100    0.34034    1.000
    N14      N        0.08592    0.54860    0.49516    1.000
    N15      N        0.25823    0.88900    0.34034    1.000
    N16      N        0.41892    0.95140    0.49516    1.000
