data_functionalizedCrystal
_audit_creation_method	'EQeq! by Chris Wilmer'
_symmetry_space_group_name_H-M	'P1'
_symmetry_Int_Tables_number	1
_symmetry_cell_setting	triclinic
loop_
_symmetry_equiv_pos_as_xyz
  x,y,z
_cell_length_a	8.4603
_cell_length_b	16.8439
_cell_length_c	22.1605
_cell_angle_alpha	78.795
_cell_angle_beta	89.894
_cell_angle_gamma	82.174
loop_
_atom_site_label
_atom_site_type_symbol
_atom_site_fract_x
_atom_site_fract_y
_atom_site_fract_z
_atom_site_charge
Mof_U 	U 	0.96327	0.09226	0.25492	0.02
Mof_U 	U 	0.46248	0.09602	0.2426	0.02
Mof_U 	U 	0.26052	0.90929	0.2322	0.024
Mof_U 	U 	0.76415	0.90134	0.26562	0.025
Mof_O 	O 	0.1023	0.5589	0.0837	-0.231
Mof_O 	O 	0.266	0.4634	0.0516	-0.226
Mof_O 	O 	0.1029	0.2078	0.2572	-0.191
Mof_O 	O 	0.2919	0.2207	0.1895	-0.202
Mof_O 	O 	0.1465	0.808	0.1865	-0.208
Mof_O 	O 	0.9516	0.7883	0.2511	-0.194
Mof_O 	O 	0.6845	0.3865	0.1528	-0.208
Mof_O 	O 	0.0564	0.5114	0.2352	-0.243
Mof_O 	O 	0.6197	0.6626	0.1316	-0.208
Mof_O 	O 	0.6341	0.4414	0.4169	-0.235
Mof_O 	O 	0.7473	0.536	0.4482	-0.229
Mof_O 	O 	0.598	0.2112	0.2451	-0.196
Mof_O 	O 	0.804	0.1902	0.3071	-0.21
Mof_O 	O 	0.6475	0.7782	0.3108	-0.201
Mof_O 	O 	0.4511	0.7914	0.2438	-0.192
Mof_O 	O 	0.2065	0.3379	0.3669	-0.209
Mof_O 	O 	0.5609	0.4947	0.2627	-0.242
Mof_O 	O 	0.1243	0.6136	0.3475	-0.209
Mof_O 	O 	0.724	0.0405	0.2659	-0.214
Mof_H 	H 	0.7192	0.0364	0.3043	0.226
Mof_O 	O 	0.217	0.0526	0.2359	-0.216
Mof_H 	H 	0.207	0.0685	0.1976	0.229
Mof_O 	O 	0.985	0.9613	0.2202	-0.216
Mof_H 	H 	0.9656	0.9729	0.1821	0.223
Mof_O 	O 	0.4877	0.9487	0.2773	-0.216
Mof_H 	H 	0.4729	0.9408	0.3154	0.223
Mof_N 	N 	0.6461	0.5255	0.1407	-0.18
Mof_C 	C 	0.7337	0.4493	0.1626	0.272
Mof_N 	N 	0.8761	0.4433	0.1954	-0.188
Mof_C 	C 	0.9309	0.5134	0.2064	0.276
Mof_N 	N 	0.8433	0.5896	0.1845	-0.185
Mof_C 	C 	0.7009	0.5957	0.1517	0.274
Mof_N 	N 	0.1595	0.476	0.3586	-0.181
Mof_C 	C 	0.2504	0.4054	0.3473	0.273
Mof_N 	N 	0.3896	0.4107	0.3142	-0.186
Mof_C 	C 	0.4379	0.4865	0.2924	0.273
Mof_N 	N 	0.3469	0.557	0.3037	-0.188
Mof_C 	C 	0.2077	0.5518	0.3368	0.275
Mof_C 	C 	0.2374	0.5172	0.0836	0.374
Mof_C 	C 	0.3662	0.5325	0.1244	-0.354
Mof_H 	H 	0.3792	0.4892	0.162	0.161
Mof_H 	H 	0.3359	0.5856	0.137	0.161
Mof_C 	C 	0.5213	0.5331	0.091	0.096
Mof_H 	H 	0.5405	0.4866	0.0694	0.049
Mof_H 	H 	0.521	0.5847	0.0607	0.046
Mof_C 	C 	0.1663	0.249	0.2124	0.363
Mof_C 	C 	0.084	0.3321	0.182	-0.35
Mof_H 	H 	0.1618	0.3713	0.1738	0.162
Mof_H 	H 	0.0335	0.3291	0.1423	0.173
Mof_C 	C 	0.958	0.3602	0.2244	0.095
Mof_H 	H 	0.8789	0.3213	0.2321	0.046
Mof_H 	H 	0.0078	0.3622	0.2643	0.034
Mof_C 	C 	0.034	0.7712	0.2072	0.375
Mof_C 	C 	0.998	0.7025	0.1777	-0.352
Mof_H 	H 	0.0963	0.6633	0.1772	0.162
Mof_H 	H 	0.96	0.7241	0.1347	0.174
Mof_C 	C 	0.872	0.6599	0.2135	0.099
Mof_H 	H 	0.9084	0.6398	0.2569	0.038
Mof_H 	H 	0.7723	0.6984	0.2127	0.045
Mof_C 	C 	0.7457	0.4834	0.4155	0.38
Mof_C 	C 	0.8833	0.4697	0.3748	-0.358
Mof_H 	H 	0.872	0.5133	0.3373	0.161
Mof_H 	H 	0.8836	0.4166	0.3619	0.161
Mof_C 	C 	0.0383	0.47	0.408	0.099
Mof_H 	H 	0.032	0.5173	0.4287	0.05
Mof_H 	H 	0.0653	0.4191	0.4391	0.045
Mof_C 	C 	0.671	0.2283	0.2889	0.374
Mof_C 	C 	0.601	0.295	0.3211	-0.356
Mof_H 	H 	0.68	0.3323	0.3242	0.163
Mof_H 	H 	0.5701	0.2713	0.3632	0.174
Mof_C 	C 	0.456	0.3413	0.2844	0.099
Mof_H 	H 	0.4859	0.3625	0.2417	0.036
Mof_H 	H 	0.3747	0.3046	0.2831	0.043
Mof_C 	C 	0.536	0.7501	0.2885	0.365
Mof_C 	C 	0.501	0.666	0.3181	-0.352
Mof_H 	H 	0.601	0.627	0.3241	0.161
Mof_H 	H 	0.4535	0.6673	0.3588	0.174
Mof_C 	C 	0.387	0.6397	0.2767	0.1
Mof_H 	H 	0.2878	0.6795	0.2705	0.045
Mof_H 	H 	0.435	0.6389	0.236	0.034
Mof_U 	U 	0.03673	0.90774	0.74508	0.019
Mof_U 	U 	0.53752	0.90398	0.7574	0.019
Mof_U 	U 	0.73948	0.09071	0.7678	0.023
Mof_U 	U 	0.23585	0.09866	0.73438	0.024
Mof_O 	O 	0.8977	0.4411	0.9163	-0.233
Mof_O 	O 	0.734	0.5366	0.9484	-0.228
Mof_O 	O 	0.8971	0.7922	0.7428	-0.193
Mof_O 	O 	0.7081	0.7793	0.8105	-0.204
Mof_O 	O 	0.8535	0.192	0.8135	-0.209
Mof_O 	O 	0.0484	0.2117	0.7489	-0.193
Mof_O 	O 	0.3155	0.6135	0.8472	-0.208
Mof_O 	O 	0.9436	0.4886	0.7648	-0.244
Mof_O 	O 	0.3803	0.3374	0.8684	-0.209
Mof_O 	O 	0.3659	0.5586	0.5831	-0.235
Mof_O 	O 	0.2527	0.464	0.5518	-0.229
Mof_O 	O 	0.402	0.7888	0.7549	-0.196
Mof_O 	O 	0.196	0.8098	0.6929	-0.21
Mof_O 	O 	0.3525	0.2218	0.6892	-0.201
Mof_O 	O 	0.5489	0.2086	0.7562	-0.192
Mof_O 	O 	0.7935	0.6621	0.6331	-0.209
Mof_O 	O 	0.4391	0.5053	0.7373	-0.242
Mof_O 	O 	0.8757	0.3864	0.6525	-0.209
Mof_O 	O 	0.276	0.9595	0.7341	-0.214
Mof_H 	H 	0.2808	0.9636	0.6957	0.226
Mof_O 	O 	0.783	0.9474	0.7641	-0.217
Mof_H 	H 	0.793	0.9315	0.8024	0.229
Mof_O 	O 	0.015	0.0387	0.7798	-0.216
Mof_H 	H 	0.0344	0.0271	0.8179	0.223
Mof_O 	O 	0.5123	0.0513	0.7227	-0.216
Mof_H 	H 	0.5271	0.0592	0.6846	0.223
Mof_N 	N 	0.3539	0.4745	0.8593	-0.18
Mof_C 	C 	0.2663	0.5507	0.8374	0.272
Mof_N 	N 	0.1239	0.5567	0.8046	-0.189
Mof_C 	C 	0.0691	0.4866	0.7936	0.277
Mof_N 	N 	0.1567	0.4104	0.8155	-0.185
Mof_C 	C 	0.2991	0.4043	0.8483	0.274
Mof_N 	N 	0.8405	0.524	0.6414	-0.181
Mof_C 	C 	0.7496	0.5946	0.6527	0.273
Mof_N 	N 	0.6104	0.5893	0.6858	-0.186
Mof_C 	C 	0.5621	0.5135	0.7076	0.273
Mof_N 	N 	0.6531	0.443	0.6963	-0.188
Mof_C 	C 	0.7923	0.4482	0.6632	0.275
Mof_C 	C 	0.7626	0.4828	0.9164	0.374
Mof_C 	C 	0.6338	0.4675	0.8756	-0.354
Mof_H 	H 	0.6208	0.5108	0.838	0.161
Mof_H 	H 	0.6641	0.4144	0.863	0.161
Mof_C 	C 	0.4787	0.4669	0.909	0.096
Mof_H 	H 	0.4595	0.5134	0.9306	0.049
Mof_H 	H 	0.479	0.4153	0.9393	0.045
Mof_C 	C 	0.8337	0.751	0.7876	0.364
Mof_C 	C 	0.916	0.6679	0.818	-0.351
Mof_H 	H 	0.8382	0.6287	0.8262	0.162
Mof_H 	H 	0.9665	0.6709	0.8577	0.173
Mof_C 	C 	0.042	0.6398	0.7756	0.097
Mof_H 	H 	0.1211	0.6787	0.7679	0.045
Mof_H 	H 	0.9922	0.6378	0.7357	0.033
Mof_C 	C 	0.966	0.2288	0.7928	0.373
Mof_C 	C 	0.002	0.2975	0.8223	-0.35
Mof_H 	H 	0.9037	0.3367	0.8228	0.161
Mof_H 	H 	0.04	0.2759	0.8653	0.173
Mof_C 	C 	0.128	0.3401	0.7865	0.098
Mof_H 	H 	0.0916	0.3602	0.7431	0.038
Mof_H 	H 	0.2277	0.3016	0.7873	0.045
Mof_C 	C 	0.2543	0.5166	0.5845	0.38
Mof_C 	C 	0.1167	0.5303	0.6252	-0.357
Mof_H 	H 	0.128	0.4867	0.6627	0.161
Mof_H 	H 	0.1164	0.5834	0.6381	0.161
Mof_C 	C 	0.9617	0.53	0.592	0.098
Mof_H 	H 	0.968	0.4827	0.5713	0.05
Mof_H 	H 	0.9347	0.5809	0.5609	0.045
Mof_C 	C 	0.329	0.7717	0.7111	0.374
Mof_C 	C 	0.399	0.705	0.6789	-0.356
Mof_H 	H 	0.32	0.6677	0.6758	0.163
Mof_H 	H 	0.4299	0.7287	0.6368	0.174
Mof_C 	C 	0.544	0.6587	0.7156	0.099
Mof_H 	H 	0.5141	0.6375	0.7583	0.036
Mof_H 	H 	0.6253	0.6954	0.7169	0.043
Mof_C 	C 	0.464	0.2499	0.7115	0.365
Mof_C 	C 	0.499	0.334	0.6819	-0.352
Mof_H 	H 	0.399	0.373	0.6759	0.161
Mof_H 	H 	0.5465	0.3327	0.6412	0.174
Mof_C 	C 	0.613	0.3603	0.7233	0.1
Mof_H 	H 	0.7122	0.3205	0.7295	0.045
Mof_H 	H 	0.565	0.3611	0.764	0.034
Mof_U 	U 	-0	0.5	-0	-0.015
Mof_U 	U 	0.5	0.5	0.5	-0.014
_end
