# CIF file generated by openbabel 3.1.0, see https://openbabel.org
data_I
_chemical_name_common 'image0'
_cell_length_a 18.986
_cell_length_b 19.683
_cell_length_c 12.081
_cell_angle_alpha 90
_cell_angle_beta 90
_cell_angle_gamma 90
_space_group_name_H-M_alt 'P 1'
_space_group_name_Hall 'P 1'
loop_
    _symmetry_equiv_pos_as_xyz
    x,y,z
loop_
    _atom_site_label
    _atom_site_type_symbol
    _atom_site_fract_x
    _atom_site_fract_y
    _atom_site_fract_z
    _atom_site_occupancy
    Co1      Co       0.30923    0.16208    0.67025    1.000
    C1       C        0.21350    0.03820    0.61180    1.000
    H1       H        0.18700    0.05580    0.67200    1.000
    C2       C        0.18910    0.98180    0.55830    1.000
    H2       H        0.14700    0.96020    0.58220    1.000
    C3       C        0.22680    0.95600    0.46750    1.000
    C4       C        0.28840    0.98890    0.43810    1.000
    H3       H        0.31620    0.97290    0.37810    1.000
    C5       C        0.30870    0.04520    0.49760    1.000
    H4       H        0.35070    0.06750    0.47540    1.000
    C6       C        0.20180    0.89560    0.40320    1.000
    C7       C        0.00790    0.69210    0.42100    1.000
    H5       H        0.03250    0.65040    0.42900    1.000
    C8       C        0.93530    0.69020    0.40060    1.000
    H6       H        0.91130    0.64800    0.39400    1.000
    C9       C        0.19120    0.79830    0.67290    1.000
    H7       H        0.21720    0.83210    0.63440    1.000
    C10      C        0.18900    0.80110    0.78570    1.000
    H8       H        0.20960    0.83840    0.82360    1.000
    N1       N        0.27480    0.07050    0.58240    1.000
    O1       O        0.15990    0.85490    0.45040    1.000
    O2       O        0.22480    0.89010    0.30700    1.000
    O3       O        0.79280    0.69480    0.34780    1.000
    O4       O        0.15910    0.80540    0.01560    1.000
    C11      C        0.12530    0.70120    0.67030    1.000
    C12      C        0.12370    0.69840    0.78510    1.000
    H9       H        0.10180    0.66660    0.62990    1.000
    H10      H        0.10050    0.66220    0.82230    1.000
    Co2      Co       0.19077    0.83792    0.17025    1.000
    C13      C        0.28650    0.96180    0.11180    1.000
    H11      H        0.31300    0.94420    0.17200    1.000
    C14      C        0.31090    0.01820    0.05830    1.000
    H12      H        0.35300    0.03980    0.08220    1.000
    C15      C        0.27320    0.04400    0.96750    1.000
    C16      C        0.21160    0.01110    0.93810    1.000
    H13      H        0.18380    0.02710    0.87810    1.000
    C17      C        0.19130    0.95480    0.99760    1.000
    H14      H        0.14930    0.93250    0.97540    1.000
    C18      C        0.29820    0.10440    0.90320    1.000
    C19      C        0.49210    0.30790    0.92100    1.000
    H15      H        0.46750    0.34960    0.92900    1.000
    C20      C        0.56470    0.30980    0.90060    1.000
    H16      H        0.58870    0.35200    0.89400    1.000
    C21      C        0.30880    0.20170    0.17290    1.000
    H17      H        0.28280    0.16790    0.13440    1.000
    C22      C        0.31100    0.19890    0.28570    1.000
    H18      H        0.29040    0.16160    0.32360    1.000
    N2       N        0.22520    0.92950    0.08240    1.000
    O5       O        0.34010    0.14510    0.95040    1.000
    O6       O        0.27520    0.10990    0.80700    1.000
    O7       O        0.70720    0.30520    0.84780    1.000
    O8       O        0.34090    0.19460    0.51560    1.000
    C23      C        0.37470    0.29880    0.17030    1.000
    C24      C        0.37630    0.30160    0.28510    1.000
    H19      H        0.39820    0.33340    0.12990    1.000
    H20      H        0.39950    0.33780    0.32230    1.000
    Co3      Co       0.69077    0.66208    0.32975    1.000
    C25      C        0.78650    0.53820    0.38820    1.000
    H21      H        0.81300    0.55580    0.32800    1.000
    C26      C        0.81090    0.48180    0.44170    1.000
    H22      H        0.85300    0.46020    0.41780    1.000
    C27      C        0.77320    0.45600    0.53250    1.000
    C28      C        0.71160    0.48890    0.56190    1.000
    H23      H        0.68380    0.47290    0.62190    1.000
    C29      C        0.69130    0.54520    0.50240    1.000
    H24      H        0.64930    0.56750    0.52460    1.000
    C30      C        0.79820    0.39560    0.59680    1.000
    C31      C        0.99210    0.19210    0.57900    1.000
    H25      H        0.96750    0.15040    0.57100    1.000
    C32      C        0.06470    0.19020    0.59940    1.000
    H26      H        0.08870    0.14800    0.60600    1.000
    C33      C        0.80880    0.29830    0.32710    1.000
    H27      H        0.78280    0.33210    0.36560    1.000
    C34      C        0.81100    0.30110    0.21430    1.000
    H28      H        0.79040    0.33840    0.17640    1.000
    N3       N        0.72520    0.57050    0.41760    1.000
    O9       O        0.84010    0.35490    0.54960    1.000
    O10      O        0.77520    0.39010    0.69300    1.000
    O11      O        0.20720    0.19480    0.65220    1.000
    O12      O        0.84090    0.30540    0.98440    1.000
    C35      C        0.87470    0.20120    0.32970    1.000
    C36      C        0.87630    0.19840    0.21490    1.000
    H29      H        0.89820    0.16660    0.37010    1.000
    H30      H        0.89950    0.16220    0.17770    1.000
    Co4      Co       0.80923    0.33792    0.82975    1.000
    C37      C        0.71350    0.46180    0.88820    1.000
    H31      H        0.68700    0.44420    0.82800    1.000
    C38      C        0.68910    0.51820    0.94170    1.000
    H32      H        0.64700    0.53980    0.91780    1.000
    C39      C        0.72680    0.54400    0.03250    1.000
    C40      C        0.78840    0.51110    0.06190    1.000
    H33      H        0.81620    0.52710    0.12190    1.000
    C41      C        0.80870    0.45480    0.00240    1.000
    H34      H        0.85070    0.43250    0.02460    1.000
    C42      C        0.70180    0.60440    0.09680    1.000
    C43      C        0.50790    0.80790    0.07900    1.000
    H35      H        0.53250    0.84960    0.07100    1.000
    C44      C        0.43530    0.80980    0.09940    1.000
    H36      H        0.41130    0.85200    0.10600    1.000
    C45      C        0.69120    0.70170    0.82710    1.000
    H37      H        0.71720    0.66790    0.86560    1.000
    C46      C        0.68900    0.69890    0.71430    1.000
    H38      H        0.70960    0.66160    0.67640    1.000
    N4       N        0.77480    0.42950    0.91760    1.000
    O13      O        0.65990    0.64510    0.04960    1.000
    O14      O        0.72480    0.60990    0.19300    1.000
    O15      O        0.29280    0.80520    0.15220    1.000
    O16      O        0.65910    0.69460    0.48440    1.000
    C47      C        0.62530    0.79880    0.82970    1.000
    C48      C        0.62370    0.80160    0.71490    1.000
    H39      H        0.60180    0.83340    0.87010    1.000
    H40      H        0.60050    0.83780    0.67770    1.000
    Co5      Co       0.69077    0.83792    0.32975    1.000
    C49      C        0.78650    0.96180    0.38820    1.000
    H41      H        0.81300    0.94420    0.32800    1.000
    C50      C        0.81090    0.01820    0.44170    1.000
    H42      H        0.85300    0.03980    0.41780    1.000
    C51      C        0.77320    0.04400    0.53250    1.000
    C52      C        0.71160    0.01110    0.56190    1.000
    H43      H        0.68380    0.02710    0.62190    1.000
    C53      C        0.69130    0.95480    0.50240    1.000
    H44      H        0.64930    0.93250    0.52460    1.000
    C54      C        0.79820    0.10440    0.59680    1.000
    C55      C        0.99210    0.30790    0.57900    1.000
    H45      H        0.96750    0.34960    0.57100    1.000
    C56      C        0.06470    0.30980    0.59940    1.000
    H46      H        0.08870    0.35200    0.60600    1.000
    C57      C        0.80880    0.20170    0.32710    1.000
    H47      H        0.78280    0.16790    0.36560    1.000
    C58      C        0.81100    0.19890    0.21430    1.000
    H48      H        0.79040    0.16160    0.17640    1.000
    N5       N        0.72520    0.92950    0.41760    1.000
    O17      O        0.84010    0.14510    0.54960    1.000
    O18      O        0.77520    0.10990    0.69300    1.000
    O19      O        0.20720    0.30520    0.65220    1.000
    O20      O        0.84090    0.19460    0.98440    1.000
    C59      C        0.87470    0.29880    0.32970    1.000
    C60      C        0.87630    0.30160    0.21490    1.000
    H49      H        0.89820    0.33340    0.37010    1.000
    H50      H        0.89950    0.33780    0.17770    1.000
    Co6      Co       0.80923    0.16208    0.82975    1.000
    C61      C        0.71350    0.03820    0.88820    1.000
    H51      H        0.68700    0.05580    0.82800    1.000
    C62      C        0.68910    0.98180    0.94170    1.000
    H52      H        0.64700    0.96020    0.91780    1.000
    C63      C        0.72680    0.95600    0.03250    1.000
    C64      C        0.78840    0.98890    0.06190    1.000
    H53      H        0.81620    0.97290    0.12190    1.000
    C65      C        0.80870    0.04520    0.00240    1.000
    H54      H        0.85070    0.06750    0.02460    1.000
    C66      C        0.70180    0.89560    0.09680    1.000
    C67      C        0.50790    0.69210    0.07900    1.000
    H55      H        0.53250    0.65040    0.07100    1.000
    C68      C        0.43530    0.69020    0.09940    1.000
    H56      H        0.41130    0.64800    0.10600    1.000
    C69      C        0.69120    0.79830    0.82710    1.000
    H57      H        0.71720    0.83210    0.86560    1.000
    C70      C        0.68900    0.80110    0.71430    1.000
    H58      H        0.70960    0.83840    0.67640    1.000
    N6       N        0.77480    0.07050    0.91760    1.000
    O21      O        0.65990    0.85490    0.04960    1.000
    O22      O        0.72480    0.89010    0.19300    1.000
    O23      O        0.29280    0.69480    0.15220    1.000
    O24      O        0.65910    0.80540    0.48440    1.000
    C71      C        0.62530    0.70120    0.82970    1.000
    C72      C        0.62370    0.69840    0.71490    1.000
    H59      H        0.60180    0.66660    0.87010    1.000
    H60      H        0.60050    0.66220    0.67770    1.000
    Co7      Co       0.30923    0.33792    0.67025    1.000
    C73      C        0.21350    0.46180    0.61180    1.000
    H61      H        0.18700    0.44420    0.67200    1.000
    C74      C        0.18910    0.51820    0.55830    1.000
    H62      H        0.14700    0.53980    0.58220    1.000
    C75      C        0.22680    0.54400    0.46750    1.000
    C76      C        0.28840    0.51110    0.43810    1.000
    H63      H        0.31620    0.52710    0.37810    1.000
    C77      C        0.30870    0.45480    0.49760    1.000
    H64      H        0.35070    0.43250    0.47540    1.000
    C78      C        0.20180    0.60440    0.40320    1.000
    C79      C        0.00790    0.80790    0.42100    1.000
    H65      H        0.03250    0.84960    0.42900    1.000
    C80      C        0.93530    0.80980    0.40060    1.000
    H66      H        0.91130    0.85200    0.39400    1.000
    C81      C        0.19120    0.70170    0.67290    1.000
    H67      H        0.21720    0.66790    0.63440    1.000
    C82      C        0.18900    0.69890    0.78570    1.000
    H68      H        0.20960    0.66160    0.82360    1.000
    N7       N        0.27480    0.42950    0.58240    1.000
    O25      O        0.15990    0.64510    0.45040    1.000
    O26      O        0.22480    0.60990    0.30700    1.000
    O27      O        0.79280    0.80520    0.34780    1.000
    O28      O        0.15910    0.69460    0.01560    1.000
    C83      C        0.12530    0.79880    0.67030    1.000
    C84      C        0.12370    0.80160    0.78510    1.000
    H69      H        0.10180    0.83340    0.62990    1.000
    H70      H        0.10050    0.83780    0.82230    1.000
    Co8      Co       0.19077    0.66208    0.17025    1.000
    C85      C        0.28650    0.53820    0.11180    1.000
    H71      H        0.31300    0.55580    0.17200    1.000
    C86      C        0.31090    0.48180    0.05830    1.000
    H72      H        0.35300    0.46020    0.08220    1.000
    C87      C        0.27320    0.45600    0.96750    1.000
    C88      C        0.21160    0.48890    0.93810    1.000
    H73      H        0.18380    0.47290    0.87810    1.000
    C89      C        0.19130    0.54520    0.99760    1.000
    H74      H        0.14930    0.56750    0.97540    1.000
    C90      C        0.29820    0.39560    0.90320    1.000
    C91      C        0.49210    0.19210    0.92100    1.000
    H75      H        0.46750    0.15040    0.92900    1.000
    C92      C        0.56470    0.19020    0.90060    1.000
    H76      H        0.58870    0.14800    0.89400    1.000
    C93      C        0.30880    0.29830    0.17290    1.000
    H77      H        0.28280    0.33210    0.13440    1.000
    C94      C        0.31100    0.30110    0.28570    1.000
    H78      H        0.29040    0.33840    0.32360    1.000
    N8       N        0.22520    0.57050    0.08240    1.000
    O29      O        0.34010    0.35490    0.95040    1.000
    O30      O        0.27520    0.39010    0.80700    1.000
    O31      O        0.70720    0.19480    0.84780    1.000
    O32      O        0.34090    0.30540    0.51560    1.000
    C95      C        0.37470    0.20120    0.17030    1.000
    C96      C        0.37630    0.19840    0.28510    1.000
    H79      H        0.39820    0.16660    0.12990    1.000
    H80      H        0.39950    0.16220    0.32230    1.000
    Co9      Co       0.15669    0.75000    0.42999    1.000
    C97      C        0.89960    0.75000    0.39050    1.000
    C98      C        0.82200    0.75000    0.35910    1.000
    C99      C        0.15690    0.75000    0.84440    1.000
    C100     C        0.15930    0.75000    0.97130    1.000
    N9       N        0.04410    0.75000    0.42960    1.000
    N10      N        0.15840    0.75000    0.61350    1.000
    O33      O        0.15630    0.75000    0.25500    1.000
    H81      H        0.11500    0.75000    0.24000    1.000
    Co10     Co       0.34331    0.25000    0.92999    1.000
    C101     C        0.60040    0.25000    0.89050    1.000
    C102     C        0.67800    0.25000    0.85910    1.000
    C103     C        0.34310    0.25000    0.34440    1.000
    C104     C        0.34070    0.25000    0.47130    1.000
    N11      N        0.45590    0.25000    0.92960    1.000
    N12      N        0.34160    0.25000    0.11350    1.000
    O34      O        0.34370    0.25000    0.75500    1.000
    H82      H        0.38500    0.25000    0.74000    1.000
    Co11     Co       0.84331    0.25000    0.57001    1.000
    C105     C        0.10040    0.25000    0.60950    1.000
    C106     C        0.17800    0.25000    0.64090    1.000
    C107     C        0.84310    0.25000    0.15560    1.000
    C108     C        0.84070    0.25000    0.02870    1.000
    N13      N        0.95590    0.25000    0.57040    1.000
    N14      N        0.84160    0.25000    0.38650    1.000
    O35      O        0.84370    0.25000    0.74500    1.000
    H83      H        0.88500    0.25000    0.76000    1.000
    Co12     Co       0.65669    0.75000    0.07001    1.000
    C109     C        0.39960    0.75000    0.10950    1.000
    C110     C        0.32200    0.75000    0.14090    1.000
    C111     C        0.65690    0.75000    0.65560    1.000
    C112     C        0.65930    0.75000    0.52870    1.000
    N15      N        0.54410    0.75000    0.07040    1.000
    N16      N        0.65840    0.75000    0.88650    1.000
    O36      O        0.65630    0.75000    0.24500    1.000
    H84      H        0.61500    0.75000    0.26000    1.000
