data_functionalizedCrystal
_audit_creation_method	'EQeq! by Chris Wilmer'
_symmetry_space_group_name_H-M	'P1'
_symmetry_Int_Tables_number	1
_symmetry_cell_setting	triclinic
loop_
_symmetry_equiv_pos_as_xyz
  x,y,z
_cell_length_a	13.0737
_cell_length_b	20.2192
_cell_length_c	19.6196
_cell_angle_alpha	90
_cell_angle_beta	115.529
_cell_angle_gamma	90
loop_
_atom_site_label
_atom_site_type_symbol
_atom_site_fract_x
_atom_site_fract_y
_atom_site_fract_z
_atom_site_charge
Mof_Zn	Zn	0.14444	0.62658	0.82507	1.198
Mof_Zn	Zn	0.89755	0.46495	0.75113	1.204
Mof_V 	V 	0.16455	0.55212	0.99149	1.753
Mof_V 	V 	0.03656	0.41448	0.95075	1.753
Mof_V 	V 	0.78478	0.52927	0.55939	1.838
Mof_V 	V 	0.02341	0.61231	0.63993	1.719
Mof_V 	V 	0.17942	0.58792	0.54875	1.615
Mof_C 	C 	0.7538	0.7917	0.8522	-0.012
Mof_C 	C 	0.6893	0.7339	0.8349	0.009
Mof_C 	C 	0.5739	0.7358	0.7853	0.01
Mof_C 	C 	0.5223	0.7961	0.7557	-0.013
Mof_C 	C 	0.5866	0.8539	0.774	0.008
Mof_C 	C 	0.703	0.8516	0.8221	0.009
Mof_C 	C 	0.8789	0.7886	0.9024	-0.015
Mof_H 	H 	0.9069	0.8328	0.9198	-0.029
Mof_H 	H 	0.892	0.7617	0.9464	-0.03
Mof_C 	C 	0.9966	0.7498	0.7779	0.086
Mof_H 	H 	0.0063	0.7554	0.734	-0.102
Mof_C 	C 	0.0136	0.7117	0.8832	0.065
Mof_H 	H 	0.0353	0.6871	0.9272	-0.068
Mof_C 	C 	0.7428	0.6686	0.8699	-0.053
Mof_H 	H 	0.8097	0.6768	0.9166	-0.003
Mof_H 	H 	0.6897	0.6434	0.882	0.038
Mof_C 	C 	0.8097	0.6085	0.7274	0.089
Mof_H 	H 	0.8165	0.6121	0.6823	-0.064
Mof_C 	C 	0.8166	0.5696	0.828	0.091
Mof_H 	H 	0.8284	0.5422	0.8688	-0.052
Mof_C 	C 	0.5076	0.6719	0.763	-0.064
Mof_H 	H 	0.4613	0.6715	0.7089	0.004
Mof_H 	H 	0.5598	0.6349	0.7756	0.058
Mof_C 	C 	0.3902	0.659	0.8909	0.093
Mof_H 	H 	0.3934	0.6602	0.9392	-0.055
Mof_C 	C 	0.3271	0.6489	0.7737	0.118
Mof_H 	H 	0.2802	0.6418	0.7228	-0.139
Mof_C 	C 	0.3968	0.7985	0.7035	-0.027
Mof_H 	H 	0.3853	0.8229	0.6582	-0.018
Mof_H 	H 	0.3689	0.7539	0.6886	-0.012
Mof_C 	C 	0.2704	0.8489	0.8187	0.084
Mof_H 	H 	0.2591	0.8477	0.8624	-0.064
Mof_C 	C 	0.2581	0.8778	0.7129	0.083
Mof_H 	H 	0.2379	0.8987	0.6667	-0.09
Mof_C 	C 	0.5313	0.9191	0.7405	-0.08
Mof_H 	H 	0.5817	0.9446	0.7261	0.058
Mof_H 	H 	0.4619	0.911	0.6954	0.037
Mof_C 	C 	0.5195	0.9414	0.8637	0.081
Mof_H 	H 	0.5483	0.9015	0.8879	-0.007
Mof_C 	C 	0.4524	0.0363	0.8382	0.023
Mof_H 	H 	0.4246	0.0774	0.8431	-0.012
Mof_C 	C 	0.7704	0.9158	0.8412	-0.071
Mof_H 	H 	0.7195	0.9526	0.8348	0.051
Mof_H 	H 	0.8257	0.9148	0.8936	0.024
Mof_C 	C 	0.8489	0.9396	0.6942	0.091
Mof_H 	H 	0.834	0.9439	0.6436	-0.07
Mof_C 	C 	0.9377	0.9322	0.8119	0.111
Mof_H 	H 	0.9945	0.9304	0.861	-0.091
Mof_N 	N 	0.9408	0.76063	0.8626	-0.111
Mof_N 	N 	0.9284	0.7865	0.7954	-0.11
Mof_N 	N 	0.0516	0.7028	0.8306	-0.313
Mof_N 	N 	0.7744	0.63005	0.8187	-0.097
Mof_N 	N 	0.7703	0.65601	0.7542	-0.1
Mof_N 	N 	0.8396	0.55374	0.7706	-0.279
Mof_N 	N 	0.4353	0.66425	0.8016	-0.104
Mof_N 	N 	0.4777	0.6707	0.877	-0.106
Mof_N 	N 	0.295	0.6451	0.8286	-0.323
Mof_N 	N 	0.3323	0.82993	0.7396	-0.113
Mof_N 	N 	0.3401	0.8093	0.8071	-0.113
Mof_N 	N 	0.2162	0.89178	0.7619	-0.285
Mof_N 	N 	0.5055	0.9567	0.7946	-0.082
Mof_N 	N 	0.4611	0.0182	0.7766	-0.125
Mof_N 	N 	0.4865	0.99114	0.8932	-0.269
Mof_N 	N 	0.8289	0.92595	0.7929	-0.097
Mof_N 	N 	0.7698	0.9312	0.7171	-0.111
Mof_N 	N 	0.9543	0.94162	0.7509	-0.291
Mof_O 	O 	0.1669	0.57331	0.911	-0.821
Mof_O 	O 	0.0419	0.58775	0.9943	-0.9
Mof_O 	O 	0.1598	0.4642	0.0006	-0.898
Mof_O 	O 	0.963	0.4485	0.86873	-0.811
Mof_O 	O 	0.8314	0.4822	0.63437	-0.794
Mof_O 	O 	0.6561	0.55297	0.5406	-0.748
Mof_O 	O 	0.8753	0.60067	0.5798	-0.863
Mof_O 	O 	0.0541	0.58798	0.7278	-0.82
Mof_O 	O 	0.1104	0.5682	0.6085	-0.948
Mof_O 	O 	0.2184	0.5117	0.5199	-0.927
Mof_Zn	Zn	0.85556	0.12658	0.67493	1.198
Mof_Zn	Zn	0.10245	0.96495	0.74887	1.21
Mof_V 	V 	0.83545	0.05212	0.50851	1.735
Mof_V 	V 	0.96344	0.91448	0.54925	1.74
Mof_V 	V 	0.21522	0.02927	0.94061	1.833
Mof_V 	V 	0.97659	0.11231	0.86007	1.721
Mof_V 	V 	0.82058	0.08792	0.95125	1.62
Mof_C 	C 	0.2462	0.2917	0.6478	-0.015
Mof_C 	C 	0.3107	0.2339	0.6651	0.006
Mof_C 	C 	0.4261	0.2358	0.7147	0.01
Mof_C 	C 	0.4777	0.2961	0.7443	-0.011
Mof_C 	C 	0.4134	0.3539	0.726	0.009
Mof_C 	C 	0.297	0.3516	0.6779	0.005
Mof_C 	C 	0.1211	0.2886	0.5976	-0.007
Mof_H 	H 	0.0931	0.3328	0.5802	-0.038
Mof_H 	H 	0.108	0.2617	0.5536	-0.04
Mof_C 	C 	0.0034	0.2498	0.7221	0.076
Mof_H 	H 	0.9937	0.2554	0.766	-0.093
Mof_C 	C 	0.9864	0.2117	0.6168	0.068
Mof_H 	H 	0.9647	0.1871	0.5728	-0.073
Mof_C 	C 	0.2572	0.1686	0.6301	-0.047
Mof_H 	H 	0.1903	0.1768	0.5834	-0.01
Mof_H 	H 	0.3103	0.1434	0.618	0.031
Mof_C 	C 	0.1903	0.1085	0.7726	0.087
Mof_H 	H 	0.1835	0.1121	0.8177	-0.066
Mof_C 	C 	0.1834	0.0696	0.672	0.089
Mof_H 	H 	0.1716	0.0422	0.6312	-0.063
Mof_C 	C 	0.4924	0.1719	0.737	-0.066
Mof_H 	H 	0.5387	0.1715	0.7911	0.006
Mof_H 	H 	0.4402	0.1349	0.7244	0.057
Mof_C 	C 	0.6098	0.159	0.6091	0.089
Mof_H 	H 	0.6066	0.1602	0.5608	-0.065
Mof_C 	C 	0.6729	0.1489	0.7263	0.114
Mof_H 	H 	0.7198	0.1418	0.7772	-0.139
Mof_C 	C 	0.6032	0.2985	0.7965	-0.031
Mof_H 	H 	0.6147	0.3229	0.8418	-0.012
Mof_H 	H 	0.6311	0.2539	0.8114	-0.008
Mof_C 	C 	0.7296	0.3489	0.6813	0.083
Mof_H 	H 	0.7409	0.3477	0.6376	-0.07
Mof_C 	C 	0.7419	0.3778	0.7871	0.082
Mof_H 	H 	0.7621	0.3987	0.8333	-0.088
Mof_C 	C 	0.4687	0.4191	0.7595	-0.079
Mof_H 	H 	0.4183	0.4446	0.7739	0.054
Mof_H 	H 	0.5381	0.411	0.8046	0.036
Mof_C 	C 	0.4805	0.4414	0.6363	0.075
Mof_H 	H 	0.4517	0.4015	0.6121	-0.014
Mof_C 	C 	0.5476	0.5363	0.6618	0.059
Mof_H 	H 	0.5754	0.5774	0.6569	-0.024
Mof_C 	C 	0.2296	0.4158	0.6588	-0.063
Mof_H 	H 	0.2805	0.4526	0.6652	0.04
Mof_H 	H 	0.1743	0.4148	0.6064	0.011
Mof_C 	C 	0.1511	0.4396	0.8058	0.086
Mof_H 	H 	0.166	0.4439	0.8564	-0.068
Mof_C 	C 	0.0623	0.4322	0.6881	0.108
Mof_H 	H 	0.0055	0.4304	0.639	-0.099
Mof_N 	N 	0.0592	0.26063	0.6374	-0.115
Mof_N 	N 	0.0716	0.2865	0.7046	-0.107
Mof_N 	N 	0.9484	0.2028	0.6694	-0.312
Mof_N 	N 	0.2256	0.13005	0.6813	-0.099
Mof_N 	N 	0.2297	0.15601	0.7458	-0.099
Mof_N 	N 	0.1604	0.05374	0.7294	-0.288
Mof_N 	N 	0.5647	0.16425	0.6984	-0.105
Mof_N 	N 	0.5223	0.1707	0.623	-0.111
Mof_N 	N 	0.705	0.1451	0.6714	-0.326
Mof_N 	N 	0.6677	0.32993	0.7604	-0.112
Mof_N 	N 	0.6599	0.3093	0.6929	-0.115
Mof_N 	N 	0.7838	0.39178	0.7381	-0.287
Mof_N 	N 	0.4945	0.4567	0.7054	-0.093
Mof_N 	N 	0.5389	0.5182	0.7234	-0.115
Mof_N 	N 	0.5135	0.49114	0.6068	-0.301
Mof_N 	N 	0.1711	0.42595	0.7071	-0.1
Mof_N 	N 	0.2302	0.4312	0.7829	-0.111
Mof_N 	N 	0.0457	0.44162	0.7491	-0.294
Mof_O 	O 	0.8331	0.07331	0.589	-0.836
Mof_O 	O 	0.9581	0.08775	0.5057	-0.922
Mof_O 	O 	0.8402	0.9642	0.4994	-0.864
Mof_O 	O 	0.037	0.9485	0.63127	-0.81
Mof_O 	O 	0.1686	0.9822	0.86563	-0.772
Mof_O 	O 	0.3439	0.05297	0.9594	-0.741
Mof_O 	O 	0.1247	0.10067	0.9202	-0.86
Mof_O 	O 	0.9459	0.08798	0.7722	-0.827
Mof_O 	O 	0.8896	0.0682	0.8915	-0.951
Mof_O 	O 	0.7816	0.0117	0.9801	-0.926
Mof_Zn	Zn	0.85556	0.37342	0.17493	1.198
Mof_Zn	Zn	0.10245	0.53505	0.24887	1.205
Mof_V 	V 	0.83545	0.44788	0.00851	1.731
Mof_V 	V 	0.96344	0.58552	0.04925	1.722
Mof_V 	V 	0.21522	0.47073	0.44061	1.838
Mof_V 	V 	0.97659	0.38769	0.36007	1.718
Mof_V 	V 	0.82058	0.41208	0.45125	1.615
Mof_C 	C 	0.2462	0.2083	0.1478	-0.017
Mof_C 	C 	0.3107	0.2661	0.1651	0.005
Mof_C 	C 	0.4261	0.2642	0.2147	0.009
Mof_C 	C 	0.4777	0.2039	0.2443	-0.014
Mof_C 	C 	0.4134	0.1461	0.226	0.006
Mof_C 	C 	0.297	0.1484	0.1779	0.002
Mof_C 	C 	0.1211	0.2114	0.0976	-0.003
Mof_H 	H 	0.0931	0.1672	0.0802	-0.044
Mof_H 	H 	0.108	0.2383	0.0536	-0.046
Mof_C 	C 	0.0034	0.2502	0.2221	0.093
Mof_H 	H 	0.9937	0.2446	0.266	-0.106
Mof_C 	C 	0.9864	0.2883	0.1168	0.059
Mof_H 	H 	0.9647	0.3129	0.0728	-0.075
Mof_C 	C 	0.2572	0.3314	0.1301	-0.045
Mof_H 	H 	0.1903	0.3232	0.0834	-0.013
Mof_H 	H 	0.3103	0.3566	0.118	0.029
Mof_C 	C 	0.1903	0.3915	0.2726	0.089
Mof_H 	H 	0.1835	0.3879	0.3177	-0.064
Mof_C 	C 	0.1834	0.4304	0.172	0.092
Mof_H 	H 	0.1716	0.4578	0.1312	-0.057
Mof_C 	C 	0.4924	0.3281	0.237	-0.065
Mof_H 	H 	0.5387	0.3285	0.2911	0.004
Mof_H 	H 	0.4402	0.3651	0.2244	0.058
Mof_C 	C 	0.6098	0.341	0.1091	0.09
Mof_H 	H 	0.6066	0.3398	0.0608	-0.07
Mof_C 	C 	0.6729	0.3511	0.2263	0.116
Mof_H 	H 	0.7198	0.3582	0.2772	-0.139
Mof_C 	C 	0.6032	0.2015	0.2965	-0.026
Mof_H 	H 	0.6147	0.1771	0.3418	-0.02
Mof_H 	H 	0.6311	0.2461	0.3114	-0.012
Mof_C 	C 	0.7296	0.1511	0.1813	0.082
Mof_H 	H 	0.7409	0.1523	0.1376	-0.075
Mof_C 	C 	0.7419	0.1222	0.2871	0.08
Mof_H 	H 	0.7621	0.1013	0.3333	-0.097
Mof_C 	C 	0.4687	0.0809	0.2595	-0.072
Mof_H 	H 	0.4183	0.0554	0.2739	0.044
Mof_H 	H 	0.5381	0.089	0.3046	0.026
Mof_C 	C 	0.4805	0.0586	0.1363	0.071
Mof_H 	H 	0.4517	0.0985	0.1121	-0.018
Mof_C 	C 	0.5476	0.9637	0.1618	0.09
Mof_H 	H 	0.5754	0.9226	0.1569	-0.034
Mof_C 	C 	0.2296	0.0842	0.1588	-0.057
Mof_H 	H 	0.2805	0.0474	0.1652	0.03
Mof_H 	H 	0.1743	0.0852	0.1064	0.002
Mof_C 	C 	0.1511	0.0604	0.3058	0.082
Mof_H 	H 	0.166	0.0561	0.3564	-0.077
Mof_C 	C 	0.0623	0.0678	0.1881	0.105
Mof_H 	H 	0.0055	0.0696	0.139	-0.103
Mof_N 	N 	0.0592	0.23937	0.1374	-0.113
Mof_N 	N 	0.0716	0.2135	0.2046	-0.111
Mof_N 	N 	0.9484	0.2972	0.1694	-0.317
Mof_N 	N 	0.2256	0.36995	0.1813	-0.099
Mof_N 	N 	0.2297	0.34399	0.2458	-0.1
Mof_N 	N 	0.1604	0.44626	0.2294	-0.279
Mof_N 	N 	0.5647	0.33575	0.1984	-0.105
Mof_N 	N 	0.5223	0.3293	0.123	-0.113
Mof_N 	N 	0.705	0.3549	0.1714	-0.326
Mof_N 	N 	0.6677	0.17007	0.2604	-0.114
Mof_N 	N 	0.6599	0.1907	0.1929	-0.117
Mof_N 	N 	0.7838	0.10822	0.2381	-0.291
Mof_N 	N 	0.4945	0.0433	0.2054	-0.105
Mof_N 	N 	0.5389	0.9818	0.2234	-0.107
Mof_N 	N 	0.5135	0.00886	0.1068	-0.323
Mof_N 	N 	0.1711	0.07405	0.2071	-0.103
Mof_N 	N 	0.2302	0.0688	0.2829	-0.117
Mof_N 	N 	0.0457	0.05838	0.2491	-0.296
Mof_O 	O 	0.8331	0.42669	0.089	-0.834
Mof_O 	O 	0.9581	0.41225	0.0057	-0.937
Mof_O 	O 	0.8402	0.5358	0.9994	-0.847
Mof_O 	O 	0.037	0.5515	0.13127	-0.823
Mof_O 	O 	0.1686	0.5178	0.36563	-0.793
Mof_O 	O 	0.3439	0.44703	0.4594	-0.748
Mof_O 	O 	0.1247	0.39933	0.4202	-0.862
Mof_O 	O 	0.9459	0.41202	0.2722	-0.821
Mof_O 	O 	0.8896	0.4318	0.3915	-0.949
Mof_O 	O 	0.7816	0.4883	0.4801	-0.928
Mof_Zn	Zn	0.14444	0.87342	0.32507	1.2
Mof_Zn	Zn	0.89755	0.03505	0.25113	1.2
Mof_V 	V 	0.16455	0.94788	0.49149	1.75
Mof_V 	V 	0.03656	0.08552	0.45075	1.739
Mof_V 	V 	0.78478	0.97073	0.05939	1.841
Mof_V 	V 	0.02341	0.88769	0.13993	1.719
Mof_V 	V 	0.17942	0.91208	0.04875	1.611
Mof_C 	C 	0.7538	0.7083	0.3522	-0.016
Mof_C 	C 	0.6893	0.7661	0.3349	0.007
Mof_C 	C 	0.5739	0.7642	0.2853	0.009
Mof_C 	C 	0.5223	0.7039	0.2557	-0.015
Mof_C 	C 	0.5866	0.6461	0.274	0.006
Mof_C 	C 	0.703	0.6484	0.3221	0.005
Mof_C 	C 	0.8789	0.7114	0.4024	-0.006
Mof_H 	H 	0.9069	0.6672	0.4198	-0.039
Mof_H 	H 	0.892	0.7383	0.4464	-0.041
Mof_C 	C 	0.9966	0.7502	0.2779	0.068
Mof_H 	H 	0.0063	0.7446	0.234	-0.094
Mof_C 	C 	0.0136	0.7883	0.3832	0.072
Mof_H 	H 	0.0353	0.8129	0.4272	-0.073
Mof_C 	C 	0.7428	0.8314	0.3699	-0.049
Mof_H 	H 	0.8097	0.8232	0.4166	-0.009
Mof_H 	H 	0.6897	0.8566	0.382	0.035
Mof_C 	C 	0.8097	0.8915	0.2274	0.089
Mof_H 	H 	0.8165	0.8879	0.1823	-0.064
Mof_C 	C 	0.8166	0.9304	0.328	0.091
Mof_H 	H 	0.8284	0.9578	0.3688	-0.048
Mof_C 	C 	0.5076	0.8281	0.263	-0.064
Mof_H 	H 	0.4613	0.8285	0.2089	0.003
Mof_H 	H 	0.5598	0.8651	0.2756	0.059
Mof_C 	C 	0.3902	0.841	0.3909	0.093
Mof_H 	H 	0.3934	0.8398	0.4392	-0.062
Mof_C 	C 	0.3271	0.8511	0.2737	0.119
Mof_H 	H 	0.2802	0.8582	0.2228	-0.139
Mof_C 	C 	0.3968	0.7015	0.2035	-0.023
Mof_H 	H 	0.3853	0.6771	0.1582	-0.024
Mof_H 	H 	0.3689	0.7461	0.1886	-0.016
Mof_C 	C 	0.2704	0.6511	0.3187	0.082
Mof_H 	H 	0.2591	0.6523	0.3624	-0.07
Mof_C 	C 	0.2581	0.6222	0.2129	0.082
Mof_H 	H 	0.2379	0.6013	0.1667	-0.097
Mof_C 	C 	0.5313	0.5809	0.2405	-0.074
Mof_H 	H 	0.5817	0.5554	0.2261	0.049
Mof_H 	H 	0.4619	0.589	0.1954	0.028
Mof_C 	C 	0.5195	0.5586	0.3637	0.076
Mof_H 	H 	0.5483	0.5985	0.3879	-0.014
Mof_C 	C 	0.4524	0.4637	0.3382	0.059
Mof_H 	H 	0.4246	0.4226	0.3431	-0.025
Mof_C 	C 	0.7704	0.5842	0.3412	-0.064
Mof_H 	H 	0.7195	0.5474	0.3348	0.04
Mof_H 	H 	0.8257	0.5852	0.3936	0.012
Mof_C 	C 	0.8489	0.5604	0.1942	0.086
Mof_H 	H 	0.834	0.5561	0.1436	-0.08
Mof_C 	C 	0.9377	0.5678	0.3119	0.108
Mof_H 	H 	0.9945	0.5696	0.361	-0.099
Mof_N 	N 	0.9408	0.73937	0.3626	-0.117
Mof_N 	N 	0.9284	0.7135	0.2954	-0.108
Mof_N 	N 	0.0516	0.7972	0.3306	-0.31
Mof_N 	N 	0.7744	0.86995	0.3187	-0.098
Mof_N 	N 	0.7703	0.84399	0.2542	-0.101
Mof_N 	N 	0.8396	0.94626	0.2706	-0.272
Mof_N 	N 	0.4353	0.83575	0.3016	-0.104
Mof_N 	N 	0.4777	0.8293	0.377	-0.109
Mof_N 	N 	0.295	0.8549	0.3286	-0.323
Mof_N 	N 	0.3323	0.67007	0.2396	-0.115
Mof_N 	N 	0.3401	0.6907	0.3071	-0.115
Mof_N 	N 	0.2162	0.60822	0.2619	-0.288
Mof_N 	N 	0.5055	0.5433	0.2946	-0.094
Mof_N 	N 	0.4611	0.4818	0.2766	-0.116
Mof_N 	N 	0.4865	0.50886	0.3932	-0.301
Mof_N 	N 	0.8289	0.57405	0.2929	-0.1
Mof_N 	N 	0.7698	0.5688	0.2171	-0.116
Mof_N 	N 	0.9543	0.55838	0.2509	-0.296
Mof_O 	O 	0.1669	0.92669	0.411	-0.817
Mof_O 	O 	0.0419	0.91225	0.4943	-0.91
Mof_O 	O 	0.1598	0.0358	0.5006	-0.891
Mof_O 	O 	0.963	0.0515	0.36873	-0.831
Mof_O 	O 	0.8314	0.0178	0.13437	-0.815
Mof_O 	O 	0.6561	0.94703	0.0406	-0.751
Mof_O 	O 	0.8753	0.89933	0.0798	-0.873
Mof_O 	O 	0.0541	0.91202	0.2278	-0.81
Mof_O 	O 	0.1104	0.9318	0.1085	-0.944
Mof_O 	O 	0.2184	0.9883	0.0199	-0.927
Mof_Zn	Zn	0.5	0.5	0.5	1.161
Mof_Zn	Zn	0.5	0	-0	1.143
_end
