# CIF file generated by openbabel 3.1.0, see https://openbabel.org
data_I
_chemical_name_common 'PEVQOY_clean_h'
_cell_length_a 25.543
_cell_length_b 25.543
_cell_length_c 25.543
_cell_angle_alpha 90
_cell_angle_beta 90
_cell_angle_gamma 90
_space_group_name_H-M_alt 'P 1'
_space_group_name_Hall 'P 1'
loop_
    _symmetry_equiv_pos_as_xyz
    x,y,z
loop_
    _atom_site_label
    _atom_site_type_symbol
    _atom_site_fract_x
    _atom_site_fract_y
    _atom_site_fract_z
    _atom_site_occupancy
    Zn1      Zn       0.79368    0.70632    0.29368    1.000
    Zn2      Zn       0.79368    0.20632    0.79368    1.000
    Zn3      Zn       0.20632    0.29368    0.29368    1.000
    Zn4      Zn       0.20632    0.79368    0.79368    1.000
    Zn5      Zn       0.20632    0.70632    0.70632    1.000
    Zn6      Zn       0.20632    0.20632    0.20632    1.000
    Zn7      Zn       0.79368    0.29368    0.70632    1.000
    Zn8      Zn       0.79368    0.79368    0.20632    1.000
    Zn9      Zn       0.29368    0.79368    0.70632    1.000
    Zn10     Zn       0.29368    0.20632    0.29368    1.000
    Zn11     Zn       0.70632    0.20632    0.70632    1.000
    Zn12     Zn       0.70632    0.79368    0.29368    1.000
    Zn13     Zn       0.70632    0.29368    0.79368    1.000
    Zn14     Zn       0.29368    0.29368    0.20632    1.000
    Zn15     Zn       0.70632    0.70632    0.20632    1.000
    Zn16     Zn       0.29368    0.70632    0.79368    1.000
    Zn17     Zn       0.70632    0.79368    0.70632    1.000
    Zn18     Zn       0.29368    0.20632    0.70632    1.000
    Zn19     Zn       0.70632    0.20632    0.29368    1.000
    Zn20     Zn       0.29368    0.79368    0.29368    1.000
    Zn21     Zn       0.79368    0.29368    0.29368    1.000
    Zn22     Zn       0.79368    0.79368    0.79368    1.000
    Zn23     Zn       0.20632    0.29368    0.70632    1.000
    Zn24     Zn       0.20632    0.79368    0.20632    1.000
    Zn25     Zn       0.20632    0.70632    0.29368    1.000
    Zn26     Zn       0.20632    0.20632    0.79368    1.000
    Zn27     Zn       0.79368    0.70632    0.70632    1.000
    Zn28     Zn       0.79368    0.20632    0.20632    1.000
    Zn29     Zn       0.29368    0.70632    0.20632    1.000
    Zn30     Zn       0.29368    0.29368    0.79368    1.000
    Zn31     Zn       0.70632    0.70632    0.79368    1.000
    Zn32     Zn       0.70632    0.29368    0.20632    1.000
    O33      O        0.78240    0.63430    0.28240    1.000
    C34      C        0.72230    0.52380    0.22230    1.000
    O35      O        0.78240    0.13430    0.78240    1.000
    C36      C        0.72230    0.02380    0.72230    1.000
    O37      O        0.21760    0.36570    0.28240    1.000
    C38      C        0.27770    0.47620    0.22230    1.000
    O39      O        0.21760    0.86570    0.78240    1.000
    C40      C        0.27770    0.97620    0.72230    1.000
    O41      O        0.71760    0.36570    0.78240    1.000
    C42      C        0.77770    0.47620    0.72230    1.000
    O43      O        0.21760    0.63430    0.71760    1.000
    C44      C        0.27770    0.52380    0.77770    1.000
    O45      O        0.21760    0.13430    0.21760    1.000
    C46      C        0.27770    0.02380    0.27770    1.000
    O47      O        0.71760    0.13430    0.71760    1.000
    C48      C        0.77770    0.02380    0.77770    1.000
    O49      O        0.78240    0.36570    0.71760    1.000
    C50      C        0.72230    0.47620    0.77770    1.000
    O51      O        0.78240    0.86570    0.21760    1.000
    C52      C        0.72230    0.97620    0.27770    1.000
    O53      O        0.28240    0.78240    0.63430    1.000
    C54      C        0.22230    0.72230    0.52380    1.000
    O55      O        0.28240    0.28240    0.13430    1.000
    C56      C        0.22230    0.22230    0.02380    1.000
    O57      O        0.78240    0.78240    0.13430    1.000
    C58      C        0.72230    0.72230    0.02380    1.000
    O59      O        0.28240    0.21760    0.36570    1.000
    C60      C        0.22230    0.27770    0.47620    1.000
    O61      O        0.28240    0.71760    0.86570    1.000
    C62      C        0.22230    0.77770    0.97620    1.000
    O63      O        0.78240    0.71760    0.36570    1.000
    C64      C        0.72230    0.77770    0.47620    1.000
    O65      O        0.71760    0.21760    0.63430    1.000
    C66      C        0.77770    0.27770    0.52380    1.000
    O67      O        0.71760    0.71760    0.13430    1.000
    C68      C        0.77770    0.77770    0.02380    1.000
    O69      O        0.71760    0.78240    0.36570    1.000
    C70      C        0.77770    0.72230    0.47620    1.000
    O71      O        0.71760    0.28240    0.86570    1.000
    C72      C        0.77770    0.22230    0.97620    1.000
    O73      O        0.63430    0.28240    0.78240    1.000
    C74      C        0.52380    0.22230    0.72230    1.000
    O75      O        0.13430    0.28240    0.28240    1.000
    C76      C        0.02380    0.22230    0.22230    1.000
    O77      O        0.13430    0.78240    0.78240    1.000
    C78      C        0.02380    0.72230    0.72230    1.000
    O79      O        0.36570    0.28240    0.21760    1.000
    C80      C        0.47620    0.22230    0.27770    1.000
    O81      O        0.36570    0.78240    0.71760    1.000
    C82      C        0.47620    0.72230    0.77770    1.000
    O83      O        0.86570    0.28240    0.71760    1.000
    C84      C        0.97620    0.22230    0.77770    1.000
    O85      O        0.63430    0.71760    0.21760    1.000
    C86      C        0.52380    0.77770    0.27770    1.000
    O87      O        0.13430    0.71760    0.71760    1.000
    C88      C        0.02380    0.77770    0.77770    1.000
    O89      O        0.36570    0.71760    0.78240    1.000
    C90      C        0.47620    0.77770    0.72230    1.000
    O91      O        0.86570    0.71760    0.28240    1.000
    C92      C        0.97620    0.77770    0.22230    1.000
    O93      O        0.63430    0.78240    0.71760    1.000
    C94      C        0.52380    0.72230    0.77770    1.000
    O95      O        0.13430    0.78240    0.21760    1.000
    C96      C        0.02380    0.72230    0.27770    1.000
    O97      O        0.36570    0.21760    0.71760    1.000
    C98      C        0.47620    0.27770    0.77770    1.000
    O99      O        0.86570    0.21760    0.21760    1.000
    C100     C        0.97620    0.27770    0.27770    1.000
    O101     O        0.86570    0.71760    0.71760    1.000
    C102     C        0.97620    0.77770    0.77770    1.000
    O103     O        0.63430    0.21760    0.28240    1.000
    C104     C        0.52380    0.27770    0.22230    1.000
    O105     O        0.63430    0.71760    0.78240    1.000
    C106     C        0.52380    0.77770    0.72230    1.000
    O107     O        0.13430    0.21760    0.78240    1.000
    C108     C        0.02380    0.27770    0.72230    1.000
    O109     O        0.36570    0.78240    0.28240    1.000
    C110     C        0.47620    0.72230    0.22230    1.000
    O111     O        0.86570    0.78240    0.78240    1.000
    C112     C        0.97620    0.72230    0.72230    1.000
    O113     O        0.78240    0.28240    0.36570    1.000
    C114     C        0.72230    0.22230    0.47620    1.000
    O115     O        0.78240    0.78240    0.86570    1.000
    C116     C        0.72230    0.72230    0.97620    1.000
    O117     O        0.21760    0.28240    0.63430    1.000
    C118     C        0.27770    0.22230    0.52380    1.000
    O119     O        0.21760    0.78240    0.13430    1.000
    C120     C        0.27770    0.72230    0.02380    1.000
    O121     O        0.71760    0.78240    0.63430    1.000
    C122     C        0.77770    0.72230    0.52380    1.000
    O123     O        0.21760    0.71760    0.36570    1.000
    C124     C        0.27770    0.77770    0.47620    1.000
    O125     O        0.21760    0.21760    0.86570    1.000
    C126     C        0.27770    0.27770    0.97620    1.000
    O127     O        0.71760    0.71760    0.86570    1.000
    C128     C        0.77770    0.77770    0.97620    1.000
    O129     O        0.78240    0.71760    0.63430    1.000
    C130     C        0.72230    0.77770    0.52380    1.000
    O131     O        0.78240    0.21760    0.13430    1.000
    C132     C        0.72230    0.27770    0.02380    1.000
    O133     O        0.28240    0.63430    0.21760    1.000
    C134     C        0.22230    0.52380    0.27770    1.000
    O135     O        0.28240    0.13430    0.71760    1.000
    C136     C        0.22230    0.02380    0.77770    1.000
    O137     O        0.78240    0.63430    0.71760    1.000
    C138     C        0.72230    0.52380    0.77770    1.000
    O139     O        0.28240    0.36570    0.78240    1.000
    C140     C        0.22230    0.47620    0.72230    1.000
    O141     O        0.28240    0.86570    0.28240    1.000
    C142     C        0.22230    0.97620    0.22230    1.000
    O143     O        0.78240    0.86570    0.78240    1.000
    C144     C        0.72230    0.97620    0.72230    1.000
    O145     O        0.71760    0.63430    0.78240    1.000
    C146     C        0.77770    0.52380    0.72230    1.000
    O147     O        0.71760    0.13430    0.28240    1.000
    C148     C        0.77770    0.02380    0.22230    1.000
    O149     O        0.71760    0.36570    0.21760    1.000
    C150     C        0.77770    0.47620    0.27770    1.000
    O151     O        0.71760    0.86570    0.71760    1.000
    C152     C        0.77770    0.97620    0.77770    1.000
    O153     O        0.21760    0.36570    0.71760    1.000
    C154     C        0.27770    0.47620    0.77770    1.000
    O155     O        0.21760    0.86570    0.21760    1.000
    C156     C        0.27770    0.97620    0.27770    1.000
    O157     O        0.78240    0.13430    0.21760    1.000
    C158     C        0.72230    0.02380    0.27770    1.000
    O159     O        0.78240    0.36570    0.28240    1.000
    C160     C        0.72230    0.47620    0.22230    1.000
    O161     O        0.21760    0.63430    0.28240    1.000
    C162     C        0.27770    0.52380    0.22230    1.000
    O163     O        0.21760    0.13430    0.78240    1.000
    C164     C        0.27770    0.02380    0.72230    1.000
    O165     O        0.71760    0.21760    0.36570    1.000
    C166     C        0.77770    0.27770    0.47620    1.000
    O167     O        0.71760    0.28240    0.13430    1.000
    C168     C        0.77770    0.22230    0.02380    1.000
    O169     O        0.28240    0.78240    0.36570    1.000
    C170     C        0.22230    0.72230    0.47620    1.000
    O171     O        0.28240    0.28240    0.86570    1.000
    C172     C        0.22230    0.22230    0.97620    1.000
    O173     O        0.28240    0.21760    0.63430    1.000
    C174     C        0.22230    0.27770    0.52380    1.000
    O175     O        0.28240    0.71760    0.13430    1.000
    C176     C        0.22230    0.77770    0.02380    1.000
    O177     O        0.36570    0.71760    0.21760    1.000
    C178     C        0.47620    0.77770    0.27770    1.000
    O179     O        0.13430    0.71760    0.28240    1.000
    C180     C        0.02380    0.77770    0.22230    1.000
    O181     O        0.36570    0.28240    0.78240    1.000
    C182     C        0.47620    0.22230    0.72230    1.000
    O183     O        0.86570    0.28240    0.28240    1.000
    C184     C        0.97620    0.22230    0.22230    1.000
    O185     O        0.63430    0.28240    0.21760    1.000
    C186     C        0.52380    0.22230    0.27770    1.000
    O187     O        0.13430    0.28240    0.71760    1.000
    C188     C        0.02380    0.22230    0.77770    1.000
    O189     O        0.36570    0.21760    0.28240    1.000
    C190     C        0.47620    0.27770    0.22230    1.000
    O191     O        0.86570    0.21760    0.78240    1.000
    C192     C        0.97620    0.27770    0.72230    1.000
    O193     O        0.63430    0.78240    0.28240    1.000
    C194     C        0.52380    0.72230    0.22230    1.000
    O195     O        0.86570    0.78240    0.21760    1.000
    C196     C        0.97620    0.72230    0.27770    1.000
    O197     O        0.63430    0.21760    0.71760    1.000
    C198     C        0.52380    0.27770    0.77770    1.000
    O199     O        0.13430    0.21760    0.21760    1.000
    C200     C        0.02380    0.27770    0.27770    1.000
    O201     O        0.21760    0.71760    0.63430    1.000
    C202     C        0.27770    0.77770    0.52380    1.000
    O203     O        0.21760    0.21760    0.13430    1.000
    C204     C        0.27770    0.27770    0.02380    1.000
    O205     O        0.78240    0.21760    0.86570    1.000
    C206     C        0.72230    0.27770    0.97620    1.000
    O207     O        0.78240    0.28240    0.63430    1.000
    C208     C        0.72230    0.22230    0.52380    1.000
    O209     O        0.21760    0.28240    0.36570    1.000
    C210     C        0.27770    0.22230    0.47620    1.000
    O211     O        0.21760    0.78240    0.86570    1.000
    C212     C        0.27770    0.72230    0.97620    1.000
    O213     O        0.71760    0.86570    0.28240    1.000
    C214     C        0.77770    0.97620    0.22230    1.000
    O215     O        0.71760    0.63430    0.21760    1.000
    C216     C        0.77770    0.52380    0.27770    1.000
    O217     O        0.28240    0.36570    0.21760    1.000
    C218     C        0.22230    0.47620    0.27770    1.000
    O219     O        0.28240    0.86570    0.71760    1.000
    C220     C        0.22230    0.97620    0.77770    1.000
    O221     O        0.28240    0.63430    0.78240    1.000
    C222     C        0.22230    0.52380    0.72230    1.000
    O223     O        0.28240    0.13430    0.28240    1.000
    C224     C        0.22230    0.02380    0.22230    1.000
    O225     O        0.75000    0.75000    0.25000    1.000
    O226     O        0.25000    0.25000    0.25000    1.000
    O227     O        0.25000    0.75000    0.75000    1.000
    O228     O        0.75000    0.25000    0.75000    1.000
    O229     O        0.75000    0.75000    0.75000    1.000
    O230     O        0.25000    0.25000    0.75000    1.000
    O231     O        0.75000    0.25000    0.25000    1.000
    O232     O        0.25000    0.75000    0.25000    1.000
    C233     C        0.75000    0.61260    0.25000    1.000
    C234     C        0.75000    0.55520    0.25000    1.000
    C235     C        0.75000    0.11260    0.75000    1.000
    C236     C        0.75000    0.05520    0.75000    1.000
    C237     C        0.25000    0.38740    0.25000    1.000
    C238     C        0.25000    0.44480    0.25000    1.000
    C239     C        0.25000    0.88740    0.75000    1.000
    C240     C        0.25000    0.94480    0.75000    1.000
    C241     C        0.25000    0.61260    0.75000    1.000
    C242     C        0.25000    0.55520    0.75000    1.000
    C243     C        0.25000    0.11260    0.25000    1.000
    C244     C        0.25000    0.05520    0.25000    1.000
    C245     C        0.75000    0.38740    0.75000    1.000
    C246     C        0.75000    0.44480    0.75000    1.000
    C247     C        0.75000    0.88740    0.25000    1.000
    C248     C        0.75000    0.94480    0.25000    1.000
    C249     C        0.25000    0.75000    0.61260    1.000
    C250     C        0.25000    0.75000    0.55520    1.000
    C251     C        0.25000    0.25000    0.11260    1.000
    C252     C        0.25000    0.25000    0.05520    1.000
    C253     C        0.25000    0.25000    0.38740    1.000
    C254     C        0.25000    0.25000    0.44480    1.000
    C255     C        0.25000    0.75000    0.88740    1.000
    C256     C        0.25000    0.75000    0.94480    1.000
    C257     C        0.75000    0.25000    0.61260    1.000
    C258     C        0.75000    0.25000    0.55520    1.000
    C259     C        0.75000    0.75000    0.11260    1.000
    C260     C        0.75000    0.75000    0.05520    1.000
    C261     C        0.75000    0.75000    0.38740    1.000
    C262     C        0.75000    0.75000    0.44480    1.000
    C263     C        0.75000    0.25000    0.88740    1.000
    C264     C        0.75000    0.25000    0.94480    1.000
    C265     C        0.61260    0.25000    0.75000    1.000
    C266     C        0.55520    0.25000    0.75000    1.000
    C267     C        0.11260    0.25000    0.25000    1.000
    C268     C        0.05520    0.25000    0.25000    1.000
    C269     C        0.38740    0.25000    0.25000    1.000
    C270     C        0.44480    0.25000    0.25000    1.000
    C271     C        0.88740    0.25000    0.75000    1.000
    C272     C        0.94480    0.25000    0.75000    1.000
    C273     C        0.61260    0.75000    0.25000    1.000
    C274     C        0.55520    0.75000    0.25000    1.000
    C275     C        0.11260    0.75000    0.75000    1.000
    C276     C        0.05520    0.75000    0.75000    1.000
    C277     C        0.38740    0.75000    0.75000    1.000
    C278     C        0.44480    0.75000    0.75000    1.000
    C279     C        0.88740    0.75000    0.25000    1.000
    C280     C        0.94480    0.75000    0.25000    1.000
    C281     C        0.61260    0.75000    0.75000    1.000
    C282     C        0.55520    0.75000    0.75000    1.000
    C283     C        0.11260    0.75000    0.25000    1.000
    C284     C        0.05520    0.75000    0.25000    1.000
    C285     C        0.38740    0.25000    0.75000    1.000
    C286     C        0.44480    0.25000    0.75000    1.000
    C287     C        0.88740    0.25000    0.25000    1.000
    C288     C        0.94480    0.25000    0.25000    1.000
    C289     C        0.61260    0.25000    0.25000    1.000
    C290     C        0.55520    0.25000    0.25000    1.000
    C291     C        0.11260    0.25000    0.75000    1.000
    C292     C        0.05520    0.25000    0.75000    1.000
    C293     C        0.38740    0.75000    0.25000    1.000
    C294     C        0.44480    0.75000    0.25000    1.000
    C295     C        0.88740    0.75000    0.75000    1.000
    C296     C        0.94480    0.75000    0.75000    1.000
    C297     C        0.75000    0.25000    0.38740    1.000
    C298     C        0.75000    0.25000    0.44480    1.000
    C299     C        0.75000    0.75000    0.88740    1.000
    C300     C        0.75000    0.75000    0.94480    1.000
    C301     C        0.25000    0.25000    0.61260    1.000
    C302     C        0.25000    0.25000    0.55520    1.000
    C303     C        0.25000    0.75000    0.11260    1.000
    C304     C        0.25000    0.75000    0.05520    1.000
    C305     C        0.25000    0.75000    0.38740    1.000
    C306     C        0.25000    0.75000    0.44480    1.000
    C307     C        0.25000    0.25000    0.88740    1.000
    C308     C        0.25000    0.25000    0.94480    1.000
    C309     C        0.75000    0.75000    0.61260    1.000
    C310     C        0.75000    0.75000    0.55520    1.000
    C311     C        0.75000    0.25000    0.11260    1.000
    C312     C        0.75000    0.25000    0.05520    1.000
    C313     C        0.25000    0.61260    0.25000    1.000
    C314     C        0.25000    0.55520    0.25000    1.000
    C315     C        0.25000    0.11260    0.75000    1.000
    C316     C        0.25000    0.05520    0.75000    1.000
    C317     C        0.25000    0.38740    0.75000    1.000
    C318     C        0.25000    0.44480    0.75000    1.000
    C319     C        0.25000    0.88740    0.25000    1.000
    C320     C        0.25000    0.94480    0.25000    1.000
    C321     C        0.75000    0.61260    0.75000    1.000
    C322     C        0.75000    0.55520    0.75000    1.000
    C323     C        0.75000    0.11260    0.25000    1.000
    C324     C        0.75000    0.05520    0.25000    1.000
    C325     C        0.75000    0.38740    0.25000    1.000
    C326     C        0.75000    0.44480    0.25000    1.000
    C327     C        0.75000    0.88740    0.75000    1.000
    C328     C        0.75000    0.94480    0.75000    1.000
    H329     H        0.69289    0.54000    0.19289    1.000
    H330     H        0.69289    0.04000    0.69289    1.000
    H331     H        0.30711    0.46000    0.19289    1.000
    H332     H        0.30711    0.96000    0.69289    1.000
    H333     H        0.80711    0.46000    0.69289    1.000
    H334     H        0.30711    0.54000    0.80711    1.000
    H335     H        0.30711    0.04000    0.30711    1.000
    H336     H        0.80711    0.04000    0.80711    1.000
    H337     H        0.69289    0.46000    0.80711    1.000
    H338     H        0.69289    0.96000    0.30711    1.000
    H339     H        0.19289    0.69289    0.54000    1.000
    H340     H        0.19289    0.19289    0.04000    1.000
    H341     H        0.69289    0.69289    0.04000    1.000
    H342     H        0.19289    0.30711    0.46000    1.000
    H343     H        0.19289    0.80711    0.96000    1.000
    H344     H        0.69289    0.80711    0.46000    1.000
    H345     H        0.80711    0.30711    0.54000    1.000
    H346     H        0.80711    0.80711    0.04000    1.000
    H347     H        0.80711    0.69289    0.46000    1.000
    H348     H        0.80711    0.19289    0.96000    1.000
    H349     H        0.54000    0.19289    0.69289    1.000
    H350     H        0.04000    0.19289    0.19289    1.000
    H351     H        0.04000    0.69289    0.69289    1.000
    H352     H        0.46000    0.19289    0.30711    1.000
    H353     H        0.46000    0.69289    0.80711    1.000
    H354     H        0.96000    0.19289    0.80711    1.000
    H355     H        0.54000    0.80711    0.30711    1.000
    H356     H        0.04000    0.80711    0.80711    1.000
    H357     H        0.46000    0.80711    0.69289    1.000
    H358     H        0.96000    0.80711    0.19289    1.000
    H359     H        0.54000    0.69289    0.80711    1.000
    H360     H        0.04000    0.69289    0.30711    1.000
    H361     H        0.46000    0.30711    0.80711    1.000
    H362     H        0.96000    0.30711    0.30711    1.000
    H363     H        0.96000    0.80711    0.80711    1.000
    H364     H        0.54000    0.30711    0.19289    1.000
    H365     H        0.54000    0.80711    0.69289    1.000
    H366     H        0.04000    0.30711    0.69289    1.000
    H367     H        0.46000    0.69289    0.19289    1.000
    H368     H        0.96000    0.69289    0.69289    1.000
    H369     H        0.69289    0.19289    0.46000    1.000
    H370     H        0.69289    0.69289    0.96000    1.000
    H371     H        0.30711    0.19289    0.54000    1.000
    H372     H        0.30711    0.69289    0.04000    1.000
    H373     H        0.80711    0.69289    0.54000    1.000
    H374     H        0.30711    0.80711    0.46000    1.000
    H375     H        0.30711    0.30711    0.96000    1.000
    H376     H        0.80711    0.80711    0.96000    1.000
    H377     H        0.69289    0.80711    0.54000    1.000
    H378     H        0.69289    0.30711    0.04000    1.000
    H379     H        0.19289    0.54000    0.30711    1.000
    H380     H        0.19289    0.04000    0.80711    1.000
    H381     H        0.69289    0.54000    0.80711    1.000
    H382     H        0.19289    0.46000    0.69289    1.000
    H383     H        0.19289    0.96000    0.19289    1.000
    H384     H        0.69289    0.96000    0.69289    1.000
    H385     H        0.80711    0.54000    0.69289    1.000
    H386     H        0.80711    0.04000    0.19289    1.000
    H387     H        0.80711    0.46000    0.30711    1.000
    H388     H        0.80711    0.96000    0.80711    1.000
    H389     H        0.30711    0.46000    0.80711    1.000
    H390     H        0.30711    0.96000    0.30711    1.000
    H391     H        0.69289    0.04000    0.30711    1.000
    H392     H        0.69289    0.46000    0.19289    1.000
    H393     H        0.30711    0.54000    0.19289    1.000
    H394     H        0.30711    0.04000    0.69289    1.000
    H395     H        0.80711    0.30711    0.46000    1.000
    H396     H        0.80711    0.19289    0.04000    1.000
    H397     H        0.19289    0.69289    0.46000    1.000
    H398     H        0.19289    0.19289    0.96000    1.000
    H399     H        0.19289    0.30711    0.54000    1.000
    H400     H        0.19289    0.80711    0.04000    1.000
    H401     H        0.46000    0.80711    0.30711    1.000
    H402     H        0.04000    0.80711    0.19289    1.000
    H403     H        0.46000    0.19289    0.69289    1.000
    H404     H        0.96000    0.19289    0.19289    1.000
    H405     H        0.54000    0.19289    0.30711    1.000
    H406     H        0.04000    0.19289    0.80711    1.000
    H407     H        0.46000    0.30711    0.19289    1.000
    H408     H        0.96000    0.30711    0.69289    1.000
    H409     H        0.54000    0.69289    0.19289    1.000
    H410     H        0.96000    0.69289    0.30711    1.000
    H411     H        0.54000    0.30711    0.80711    1.000
    H412     H        0.04000    0.30711    0.30711    1.000
    H413     H        0.30711    0.80711    0.54000    1.000
    H414     H        0.30711    0.30711    0.04000    1.000
    H415     H        0.69289    0.30711    0.96000    1.000
    H416     H        0.69289    0.19289    0.54000    1.000
    H417     H        0.30711    0.19289    0.46000    1.000
    H418     H        0.30711    0.69289    0.96000    1.000
    H419     H        0.80711    0.96000    0.19289    1.000
    H420     H        0.80711    0.54000    0.30711    1.000
    H421     H        0.19289    0.46000    0.30711    1.000
    H422     H        0.19289    0.96000    0.80711    1.000
    H423     H        0.19289    0.54000    0.69289    1.000
    H424     H        0.19289    0.04000    0.19289    1.000
