# CIF file generated by openbabel 3.1.0, see https://openbabel.org
data_I
_chemical_name_common 'EBEWIT_clean'
_cell_length_a 10.3604
_cell_length_b 10.3604
_cell_length_c 14.5059
_cell_angle_alpha 90
_cell_angle_beta 90
_cell_angle_gamma 90
_space_group_name_H-M_alt 'P 1'
_space_group_name_Hall 'P 1'
loop_
    _symmetry_equiv_pos_as_xyz
    x,y,z
loop_
    _atom_site_label
    _atom_site_type_symbol
    _atom_site_fract_x
    _atom_site_fract_y
    _atom_site_fract_z
    _atom_site_occupancy
    Gd1      Gd       0.14567    0.14567    0.37500    1.000
    Gd2      Gd       0.85433    0.85433    0.87500    1.000
    Gd3      Gd       0.85433    0.14567    0.62500    1.000
    Gd4      Gd       0.14567    0.85433    0.12500    1.000
    H1       H        0.06980    0.55660    0.37170    1.000
    H2       H        0.93020    0.44340    0.87170    1.000
    H3       H        0.44340    0.06980    0.62170    1.000
    H4       H        0.55660    0.93020    0.12170    1.000
    H5       H        0.93020    0.55660    0.62830    1.000
    H6       H        0.06980    0.44340    0.12830    1.000
    H7       H        0.55660    0.06980    0.37830    1.000
    H8       H        0.44340    0.93020    0.87830    1.000
    H9       H        0.00000    0.89040    0.50000    1.000
    H10      H        0.00000    0.10960    0.00000    1.000
    H11      H        0.10960    0.00000    0.75000    1.000
    H12      H        0.89040    0.00000    0.25000    1.000
    C1       C        0.08280    0.81100    0.33940    1.000
    C2       C        0.04120    0.60220    0.42300    1.000
    C3       C        0.03990    0.73750    0.42200    1.000
    C4       C        0.91720    0.18900    0.83940    1.000
    C5       C        0.95880    0.39780    0.92300    1.000
    C6       C        0.96010    0.26250    0.92200    1.000
    C7       C        0.18900    0.08280    0.58940    1.000
    C8       C        0.39780    0.04120    0.67300    1.000
    C9       C        0.26250    0.03990    0.67200    1.000
    C10      C        0.81100    0.91720    0.08940    1.000
    C11      C        0.60220    0.95880    0.17300    1.000
    C12      C        0.73750    0.96010    0.17200    1.000
    C13      C        0.91720    0.81100    0.66060    1.000
    C14      C        0.95880    0.60220    0.57700    1.000
    C15      C        0.96010    0.73750    0.57800    1.000
    C16      C        0.08280    0.18900    0.16060    1.000
    C17      C        0.04120    0.39780    0.07700    1.000
    C18      C        0.03990    0.26250    0.07800    1.000
    C19      C        0.81100    0.08280    0.41060    1.000
    C20      C        0.60220    0.04120    0.32700    1.000
    C21      C        0.73750    0.03990    0.32800    1.000
    C22      C        0.18900    0.91720    0.91060    1.000
    C23      C        0.39780    0.95880    0.82700    1.000
    C24      C        0.26250    0.96010    0.82800    1.000
    C25      C        0.00000    0.38930    0.50000    1.000
    C26      C        0.00000    0.53710    0.50000    1.000
    C27      C        0.00000    0.80060    0.50000    1.000
    C28      C        0.00000    0.61070    0.00000    1.000
    C29      C        0.00000    0.46290    0.00000    1.000
    C30      C        0.00000    0.19940    0.00000    1.000
    C31      C        0.61070    0.00000    0.75000    1.000
    C32      C        0.46290    0.00000    0.75000    1.000
    C33      C        0.19940    0.00000    0.75000    1.000
    C34      C        0.38930    0.00000    0.25000    1.000
    C35      C        0.53710    0.00000    0.25000    1.000
    C36      C        0.80060    0.00000    0.25000    1.000
    O1       O        0.06920    0.33550    0.44140    1.000
    O2       O        0.08950    0.75250    0.26380    1.000
    O3       O        0.10690    0.92760    0.34550    1.000
    O4       O        0.93080    0.66450    0.94140    1.000
    O5       O        0.91050    0.24750    0.76380    1.000
    O6       O        0.89310    0.07240    0.84550    1.000
    O7       O        0.66450    0.06920    0.69140    1.000
    O8       O        0.24750    0.08950    0.51380    1.000
    O9       O        0.07240    0.10690    0.59550    1.000
    O10      O        0.33550    0.93080    0.19140    1.000
    O11      O        0.75250    0.91050    0.01380    1.000
    O12      O        0.92760    0.89310    0.09550    1.000
    O13      O        0.93080    0.33550    0.55860    1.000
    O14      O        0.91050    0.75250    0.73620    1.000
    O15      O        0.89310    0.92760    0.65450    1.000
    O16      O        0.06920    0.66450    0.05860    1.000
    O17      O        0.08950    0.24750    0.23620    1.000
    O18      O        0.10690    0.07240    0.15450    1.000
    O19      O        0.33550    0.06920    0.30860    1.000
    O20      O        0.75250    0.08950    0.48620    1.000
    O21      O        0.92760    0.10690    0.40450    1.000
    O22      O        0.66450    0.93080    0.80860    1.000
    O23      O        0.24750    0.91050    0.98620    1.000
    O24      O        0.07240    0.89310    0.90450    1.000
