data_functionalizedCrystal
_audit_creation_method	'EQeq! by Chris Wilmer'
_symmetry_space_group_name_H-M	'P1'
_symmetry_Int_Tables_number	1
_symmetry_cell_setting	triclinic
loop_
_symmetry_equiv_pos_as_xyz
  x,y,z
_cell_length_a	13.006
_cell_length_b	14.279
_cell_length_c	17.515
_cell_angle_alpha	96.872
_cell_angle_beta	90
_cell_angle_gamma	90
loop_
_atom_site_label
_atom_site_type_symbol
_atom_site_fract_x
_atom_site_fract_y
_atom_site_fract_z
_atom_site_charge
Mof_Co	Co	0.06702	0.99855	0.77396	1.187
Mof_Co	Co	0.27162	0.43054	0.13121	1.084
Mof_Co	Co	0.56702	0.50145	0.72604	1.189
Mof_Co	Co	0.77162	0.06946	0.36879	1.084
Mof_Co	Co	0.93298	0.00145	0.22604	1.186
Mof_Co	Co	0.72838	0.56946	0.86879	1.083
Mof_Co	Co	0.43298	0.49855	0.27396	1.188
Mof_Co	Co	0.22838	0.93054	0.63121	1.083
Mof_H 	H 	0.6018	0.2273	0.2254	0.024
Mof_H 	H 	0.5555	0.3085	0.0146	0.031
Mof_H 	H 	0.7916	0.1353	0.0501	0.042
Mof_H 	H 	0.8179	0.1182	0.9358	0.061
Mof_H 	H 	0.8046	0.2331	0.7359	0.044
Mof_H 	H 	0.6404	0.3472	0.9199	0.032
Mof_H 	H 	0.1018	0.2727	0.2746	0.025
Mof_H 	H 	0.0555	0.1915	0.4854	0.034
Mof_H 	H 	0.2916	0.3647	0.4499	0.045
Mof_H 	H 	0.3179	0.3818	0.5642	0.059
Mof_H 	H 	0.3046	0.2669	0.7641	0.044
Mof_H 	H 	0.1404	0.1528	0.5801	0.031
Mof_H 	H 	0.3982	0.7727	0.7746	0.024
Mof_H 	H 	0.4445	0.6915	0.9854	0.031
Mof_H 	H 	0.2084	0.8647	0.9499	0.042
Mof_H 	H 	0.1821	0.8818	0.0642	0.061
Mof_H 	H 	0.1954	0.7669	0.2641	0.044
Mof_H 	H 	0.3596	0.6528	0.0801	0.032
Mof_H 	H 	0.8982	0.7273	0.7254	0.025
Mof_H 	H 	0.9445	0.8085	0.5146	0.034
Mof_H 	H 	0.7084	0.6353	0.5501	0.045
Mof_H 	H 	0.6821	0.6182	0.4358	0.059
Mof_H 	H 	0.6954	0.7331	0.2359	0.044
Mof_H 	H 	0.8596	0.8472	0.4199	0.031
Mof_C 	C 	0.621	0.2254	0.17286	0.06
Mof_C 	C 	0.4819	0.342	0.1566	0.39
Mof_C 	C 	0.5665	0.2775	0.1247	-0.121
Mof_C 	C 	0.5953	0.2753	0.0482	0.004
Mof_C 	C 	0.7196	0.229	0.9399	0.012
Mof_C 	C 	0.703	0.1705	0.1447	-0.124
Mof_C 	C 	0.6818	0.2252	0.02	-0.028
Mof_C 	C 	0.7338	0.1717	0.0689	0.005
Mof_C 	C 	0.7913	0.1647	0.9066	-0.041
Mof_C 	C 	0.9077	0.0996	0.8	0.298
Mof_C 	C 	0.7166	0.3005	0.822	-0.102
Mof_C 	C 	0.675	0.3736	0.7766	0.316
Mof_C 	C 	0.7852	0.2334	0.7882	0.009
Mof_C 	C 	0.6855	0.2995	0.897	-0.036
Mof_C 	C 	0.825	0.1666	0.8319	-0.066
Mof_C 	C 	0.7623	0.1117	0.1952	0.401
Mof_C 	C 	0.121	0.2746	0.32714	0.056
Mof_C 	C 	0.9819	0.158	0.3434	0.386
Mof_C 	C 	0.0665	0.2225	0.3753	-0.115
Mof_C 	C 	0.0953	0.2247	0.4518	-0.001
Mof_C 	C 	0.2196	0.271	0.5601	0.006
Mof_C 	C 	0.203	0.3295	0.3553	-0.121
Mof_C 	C 	0.1818	0.2748	0.48	-0.021
Mof_C 	C 	0.2338	0.3283	0.4311	0.001
Mof_C 	C 	0.2913	0.3353	0.5934	-0.038
Mof_C 	C 	0.4077	0.4004	0.7	0.298
Mof_C 	C 	0.2166	0.1995	0.678	-0.102
Mof_C 	C 	0.175	0.1264	0.7234	0.316
Mof_C 	C 	0.2852	0.2666	0.7118	0.01
Mof_C 	C 	0.1855	0.2005	0.603	-0.034
Mof_C 	C 	0.325	0.3334	0.6681	-0.067
Mof_C 	C 	0.2623	0.3883	0.3048	0.4
Mof_C 	C 	0.379	0.7746	0.82714	0.06
Mof_C 	C 	0.5181	0.658	0.8434	0.39
Mof_C 	C 	0.4335	0.7225	0.8753	-0.121
Mof_C 	C 	0.4047	0.7247	0.9518	0.004
Mof_C 	C 	0.2804	0.771	0.0601	0.012
Mof_C 	C 	0.297	0.8295	0.8553	-0.124
Mof_C 	C 	0.3182	0.7748	0.98	-0.028
Mof_C 	C 	0.2662	0.8283	0.9311	0.005
Mof_C 	C 	0.2087	0.8353	0.0934	-0.041
Mof_C 	C 	0.0923	0.9004	0.2	0.298
Mof_C 	C 	0.2834	0.6995	0.178	-0.102
Mof_C 	C 	0.325	0.6264	0.2234	0.316
Mof_C 	C 	0.2148	0.7666	0.2118	0.009
Mof_C 	C 	0.3145	0.7005	0.103	-0.036
Mof_C 	C 	0.175	0.8334	0.1681	-0.066
Mof_C 	C 	0.2377	0.8883	0.8048	0.401
Mof_C 	C 	0.879	0.7254	0.67286	0.056
Mof_C 	C 	0.0181	0.842	0.6566	0.386
Mof_C 	C 	0.9335	0.7775	0.6247	-0.115
Mof_C 	C 	0.9047	0.7753	0.5482	-0.001
Mof_C 	C 	0.7804	0.729	0.4399	0.006
Mof_C 	C 	0.797	0.6705	0.6447	-0.121
Mof_C 	C 	0.8182	0.7252	0.52	-0.021
Mof_C 	C 	0.7662	0.6717	0.5689	0.001
Mof_C 	C 	0.7087	0.6647	0.4066	-0.038
Mof_C 	C 	0.5923	0.5996	0.3	0.298
Mof_C 	C 	0.7834	0.8005	0.322	-0.102
Mof_C 	C 	0.825	0.8736	0.2766	0.316
Mof_C 	C 	0.7148	0.7334	0.2882	0.01
Mof_C 	C 	0.8145	0.7995	0.397	-0.034
Mof_C 	C 	0.675	0.6666	0.3319	-0.067
Mof_C 	C 	0.7377	0.6117	0.6952	0.4
Mof_O 	O 	0.9271	0.0892	0.72976	-0.332
Mof_O 	O 	0.9584	0.05748	0.8472	-0.391
Mof_O 	O 	0.4954	0.37869	0.2253	-0.448
Mof_O 	O 	0.4078	0.35551	0.11409	-0.474
Mof_O 	O 	0.8329	0.06098	0.16287	-0.451
Mof_O 	O 	0.7381	0.11754	0.26415	-0.493
Mof_O 	O 	0.64416	0.45242	0.81414	-0.552
Mof_O 	O 	0.6641	0.35775	0.70637	-0.345
Mof_O 	O 	0.4271	0.4108	0.77024	-0.331
Mof_O 	O 	0.4584	0.44252	0.6528	-0.392
Mof_O 	O 	0.9954	0.12131	0.2747	-0.449
Mof_O 	O 	0.9078	0.14449	0.38591	-0.474
Mof_O 	O 	0.3329	0.43902	0.33713	-0.449
Mof_O 	O 	0.2381	0.38246	0.23585	-0.492
Mof_O 	O 	0.14416	0.04758	0.68586	-0.549
Mof_O 	O 	0.1641	0.14225	0.79363	-0.343
Mof_O 	O 	0.0729	0.9108	0.27024	-0.332
Mof_O 	O 	0.0416	0.94252	0.1528	-0.391
Mof_O 	O 	0.5046	0.62131	0.7747	-0.448
Mof_O 	O 	0.5922	0.64449	0.88591	-0.474
Mof_O 	O 	0.1671	0.93902	0.83713	-0.451
Mof_O 	O 	0.2619	0.88246	0.73585	-0.493
Mof_O 	O 	0.35584	0.54758	0.18586	-0.552
Mof_O 	O 	0.3359	0.64225	0.29363	-0.345
Mof_O 	O 	0.5729	0.5892	0.22976	-0.331
Mof_O 	O 	0.5416	0.55748	0.3472	-0.392
Mof_O 	O 	0.0046	0.87869	0.7253	-0.449
Mof_O 	O 	0.0922	0.85551	0.61409	-0.474
Mof_O 	O 	0.6671	0.56098	0.66287	-0.449
Mof_O 	O 	0.7619	0.61754	0.76415	-0.492
Mof_O 	O 	0.85584	0.95242	0.31414	-0.549
Mof_O 	O 	0.8359	0.85775	0.20637	-0.343
_end
