# CIF file generated by openbabel 3.1.0, see https://openbabel.org
data_I
_chemical_name_common 'image0'
_cell_length_a 13.3427
_cell_length_b 13.4047
_cell_length_c 13.562
_cell_angle_alpha 102.339
_cell_angle_beta 104.369
_cell_angle_gamma 90.477
_space_group_name_H-M_alt 'P 1'
_space_group_name_Hall 'P 1'
loop_
    _symmetry_equiv_pos_as_xyz
    x,y,z
loop_
    _atom_site_label
    _atom_site_type_symbol
    _atom_site_fract_x
    _atom_site_fract_y
    _atom_site_fract_z
    _atom_site_occupancy
    Cu1      Cu       0.74129    0.57282    0.52392    1.000
    O1       O        0.64540    0.47750    0.54560    1.000
    H1       H        0.66270    0.46410    0.60650    1.000
    N1       N        0.53790    0.52580    0.37330    1.000
    N2       N        0.63890    0.55960    0.38240    1.000
    N3       N        0.55370    0.53080    0.21860    1.000
    N4       N        0.56440    0.68360    0.58840    1.000
    N5       N        0.67050    0.70250    0.60940    1.000
    N6       N        0.61130    0.82440    0.71020    1.000
    N7       N        0.49940    0.27580    0.11900    1.000
    N8       N        0.59830    0.26890    0.17630    1.000
    N9       N        0.57200    0.15740    0.02610    1.000
    N10      N        0.84460    0.66320    0.49030    1.000
    N11      N        0.94380    0.63620    0.49040    1.000
    N12      N        0.93550    0.79800    0.48820    1.000
    N13      N        0.94480    0.49880    0.62690    1.000
    N14      N        0.85430    0.54210    0.64170    1.000
    N15      N        0.93990    0.51050    0.78880    1.000
    C1       C        0.48950    0.50830    0.27370    1.000
    H2       H        0.41990    0.48350    0.24530    1.000
    C2       C        0.64610    0.56180    0.28880    1.000
    H3       H        0.70650    0.58190    0.27230    1.000
    C3       C        0.43110    0.54370    0.05640    1.000
    H4       H        0.38530    0.57330    0.09520    1.000
    C4       C        0.52760    0.51680    0.10660    1.000
    C5       C        0.59690    0.47370    0.05140    1.000
    H5       H        0.66210    0.45640    0.08670    1.000
    C6       C        0.53170    0.75650    0.64910    1.000
    H6       H        0.46200    0.76220    0.65100    1.000
    C7       C        0.69660    0.78630    0.68260    1.000
    H7       H        0.76460    0.81560    0.71180    1.000
    C8       C        0.48660    0.21100    0.03100    1.000
    H8       H        0.42560    0.20190    0.97670    1.000
    C9       C        0.63930    0.19810    0.11950    1.000
    H9       H        0.70710    0.17780    0.14060    1.000
    C10      C        0.60450    0.91320    0.78830    1.000
    C11      C        0.68050    0.93710    0.88150    1.000
    H10      H        0.73870    0.89780    0.89200    1.000
    C12      C        0.67060    0.01890    0.95870    1.000
    H11      H        0.72280    0.03630    0.02150    1.000
    C13      C        0.58420    0.07520    0.94430    1.000
    C14      C        0.50900    0.05080    0.85200    1.000
    H12      H        0.45010    0.08910    0.84210    1.000
    C15      C        0.51950    0.97010    0.77330    1.000
    H13      H        0.46830    0.95430    0.70960    1.000
    C16      C        0.84090    0.75960    0.48900    1.000
    H14      H        0.78180    0.79730    0.48860    1.000
    C17      C        0.99730    0.71780    0.48950    1.000
    H15      H        0.06770    0.72070    0.48960    1.000
    C18      C        0.92630    0.98010    0.55170    1.000
    H16      H        0.87680    0.96620    0.58650    1.000
    C19      C        0.96770    0.90140    0.49350    1.000
    C20      C        0.04050    0.91940    0.44240    1.000
    H17      H        0.06780    0.86440    0.40380    1.000
    C21      C        0.99420    0.47950    0.71620    1.000
    H18      H        0.05790    0.44870    0.72850    1.000
    C22      C        0.85350    0.54910    0.73870    1.000
    H19      H        0.80090    0.57660    0.76920    1.000
    C23      C        0.07050    0.53420    0.95330    1.000
    H20      H        0.11840    0.55760    0.92150    1.000
    C24      C        0.97110    0.50520    0.89800    1.000
    C25      C        0.89960    0.47130    0.94210    1.000
    H21      H        0.83110    0.45190    0.90230    1.000
    Cu2      Cu       0.25871    0.42718    0.47608    1.000
    O2       O        0.35460    0.52250    0.45440    1.000
    H22      H        0.33730    0.53590    0.39350    1.000
    N16      N        0.46210    0.47420    0.62670    1.000
    N17      N        0.36110    0.44040    0.61760    1.000
    N18      N        0.44630    0.46920    0.78140    1.000
    N19      N        0.43560    0.31640    0.41160    1.000
    N20      N        0.32950    0.29750    0.39060    1.000
    N21      N        0.38870    0.17560    0.28980    1.000
    N22      N        0.50060    0.72420    0.88100    1.000
    N23      N        0.40170    0.73110    0.82370    1.000
    N24      N        0.42800    0.84260    0.97390    1.000
    N25      N        0.15540    0.33680    0.50970    1.000
    N26      N        0.05620    0.36380    0.50960    1.000
    N27      N        0.06450    0.20200    0.51180    1.000
    N28      N        0.05520    0.50120    0.37310    1.000
    N29      N        0.14570    0.45790    0.35830    1.000
    N30      N        0.06010    0.48950    0.21120    1.000
    C26      C        0.51050    0.49170    0.72630    1.000
    H23      H        0.58010    0.51650    0.75470    1.000
    C27      C        0.35390    0.43820    0.71120    1.000
    H24      H        0.29350    0.41810    0.72770    1.000
    C28      C        0.56890    0.45630    0.94360    1.000
    H25      H        0.61470    0.42670    0.90480    1.000
    C29      C        0.47240    0.48320    0.89340    1.000
    C30      C        0.40310    0.52630    0.94860    1.000
    H26      H        0.33790    0.54360    0.91330    1.000
    C31      C        0.46830    0.24350    0.35090    1.000
    H27      H        0.53800    0.23780    0.34900    1.000
    C32      C        0.30340    0.21370    0.31740    1.000
    H28      H        0.23540    0.18440    0.28820    1.000
    C33      C        0.51340    0.78900    0.96900    1.000
    H29      H        0.57440    0.79810    0.02330    1.000
    C34      C        0.36070    0.80190    0.88050    1.000
    H30      H        0.29290    0.82220    0.85940    1.000
    C35      C        0.39550    0.08680    0.21170    1.000
    C36      C        0.31950    0.06290    0.11850    1.000
    H31      H        0.26130    0.10220    0.10800    1.000
    C37      C        0.32940    0.98110    0.04130    1.000
    H32      H        0.27720    0.96370    0.97850    1.000
    C38      C        0.41580    0.92480    0.05570    1.000
    C39      C        0.49100    0.94920    0.14800    1.000
    H33      H        0.54990    0.91090    0.15790    1.000
    C40      C        0.48050    0.02990    0.22670    1.000
    H34      H        0.53170    0.04570    0.29040    1.000
    C41      C        0.15910    0.24040    0.51100    1.000
    H35      H        0.21820    0.20270    0.51140    1.000
    C42      C        0.00270    0.28220    0.51050    1.000
    H36      H        0.93230    0.27930    0.51040    1.000
    C43      C        0.07370    0.01990    0.44830    1.000
    H37      H        0.12320    0.03380    0.41350    1.000
    C44      C        0.03230    0.09860    0.50650    1.000
    C45      C        0.95950    0.08060    0.55760    1.000
    H38      H        0.93220    0.13560    0.59620    1.000
    C46      C        0.00580    0.52050    0.28380    1.000
    H39      H        0.94210    0.55130    0.27150    1.000
    C47      C        0.14650    0.45090    0.26130    1.000
    H40      H        0.19910    0.42340    0.23080    1.000
    C48      C        0.92950    0.46580    0.04670    1.000
    H41      H        0.88160    0.44240    0.07850    1.000
    C49      C        0.02890    0.49480    0.10200    1.000
    C50      C        0.10040    0.52870    0.05790    1.000
    H42      H        0.16890    0.54810    0.09770    1.000
    Cu3      Cu       0.50000    0.50000    0.50000    1.000
    Cu4      Cu       0.00000    0.50000    0.50000    1.000
