data_functionalizedCrystal
_audit_creation_method	'EQeq! by Chris Wilmer'
_symmetry_space_group_name_H-M	'P1'
_symmetry_Int_Tables_number	1
_symmetry_cell_setting	triclinic
loop_
_symmetry_equiv_pos_as_xyz
  x,y,z
_cell_length_a	17.0713
_cell_length_b	17.0713
_cell_length_c	17.0713
_cell_angle_alpha	105.83
_cell_angle_beta	105.83
_cell_angle_gamma	117.029
loop_
_atom_site_label
_atom_site_type_symbol
_atom_site_fract_x
_atom_site_fract_y
_atom_site_fract_z
_atom_site_charge
Mof_Zn	Zn	0.1614	0.29871	0.62295	1.231
Mof_Zn	Zn	0.67576	0.53845	0.37705	1.232
Mof_Zn	Zn	0.53845	0.1614	0.86269	1.232
Mof_Zn	Zn	0.29871	0.67576	0.13731	1.233
Mof_Zn	Zn	0.17576	0.79871	0.13731	1.233
Mof_Zn	Zn	0.6614	0.03845	0.86269	1.232
Mof_Zn	Zn	0.79871	0.6614	0.62295	1.233
Mof_Zn	Zn	0.03845	0.17576	0.37705	1.232
Mof_Zn	Zn	0.92966	0.11582	0.5	1.214
Mof_Zn	Zn	0.61582	0.42966	0.5	1.214
Mof_Zn	Zn	0.42966	0.92966	0.81384	1.214
Mof_Zn	Zn	0.11582	0.61582	0.18616	1.214
Mof_H 	H 	0.9406	0.3329	0.9651	0.039
Mof_H 	H 	0.8573	0.1715	0.6998	0.04
Mof_H 	H 	0.1229	0.4358	0.8571	0.043
Mof_H 	H 	0.3678	0.9755	0.0349	0.042
Mof_H 	H 	0.4717	0.1575	0.3002	0.039
Mof_H 	H 	0.5787	0.2658	0.1429	0.043
Mof_H 	H 	0.9755	0.9406	0.6077	0.044
Mof_H 	H 	0.1575	0.8573	0.6858	0.04
Mof_H 	H 	0.2658	0.1229	0.6871	0.044
Mof_H 	H 	0.3329	0.3678	0.3923	0.039
Mof_H 	H 	0.1715	0.4717	0.3142	0.039
Mof_H 	H 	0.4358	0.5787	0.3129	0.043
Mof_H 	H 	0.8678	0.8329	0.3923	0.039
Mof_H 	H 	0.9717	0.6715	0.3142	0.039
Mof_H 	H 	0.0787	0.9358	0.3129	0.043
Mof_H 	H 	0.4406	0.4755	0.6077	0.039
Mof_H 	H 	0.3573	0.6575	0.6858	0.04
Mof_H 	H 	0.6229	0.7658	0.6871	0.043
Mof_H 	H 	0.8329	0.4406	0.9651	0.039
Mof_H 	H 	0.6715	0.3573	0.6998	0.039
Mof_H 	H 	0.9358	0.6229	0.8571	0.043
Mof_H 	H 	0.4755	0.8678	0.0349	0.04
Mof_H 	H 	0.6575	0.9717	0.3002	0.039
Mof_H 	H 	0.7658	0.0787	0.1429	0.044
Mof_C 	C 	0.0421	0.3999	0.9242	-0.128
Mof_C 	C 	0.9539	0.3255	0.9152	0.06
Mof_C 	C 	0.8847	0.239	0.8307	-0.105
Mof_C 	C 	0.9039	0.228	0.7561	0.055
Mof_C 	C 	0.9935	0.3021	0.7656	-0.111
Mof_C 	C 	0.0628	0.3873	0.8503	0.063
Mof_C 	C 	0.9788	0.9931	0.3781	0.403
Mof_C 	C 	0.7908	0.1551	0.8201	0.34
Mof_C 	C 	0.0175	0.2845	0.686	0.379
Mof_C 	C 	0.4757	0.1179	0.0758	-0.127
Mof_C 	C 	0.4103	0.0387	0.0848	0.055
Mof_C 	C 	0.4083	0.054	0.1693	-0.105
Mof_C 	C 	0.4719	0.1478	0.2439	0.055
Mof_C 	C 	0.5365	0.2279	0.2344	-0.113
Mof_C 	C 	0.537	0.2125	0.1497	0.065
Mof_C 	C 	0.615	0.6007	0.6219	0.398
Mof_C 	C 	0.335	0.9707	0.1799	0.341
Mof_C 	C 	0.5985	0.3315	0.314	0.381
Mof_C 	C 	0.1179	0.0421	0.6422	-0.125
Mof_C 	C 	0.0387	0.9539	0.6284	0.053
Mof_C 	C 	0.054	0.8847	0.6457	-0.104
Mof_C 	C 	0.1478	0.9039	0.6759	0.054
Mof_C 	C 	0.2279	0.9935	0.6914	-0.111
Mof_C 	C 	0.2125	0.0628	0.6755	0.062
Mof_C 	C 	0.6007	0.9788	0.9857	0.398
Mof_C 	C 	0.9707	0.7908	0.6357	0.341
Mof_C 	C 	0.3315	0.0175	0.733	0.379
Mof_C 	C 	0.3999	0.4757	0.3578	-0.128
Mof_C 	C 	0.3255	0.4103	0.3716	0.059
Mof_C 	C 	0.239	0.4083	0.3543	-0.105
Mof_C 	C 	0.228	0.4719	0.3241	0.055
Mof_C 	C 	0.3021	0.5365	0.3086	-0.113
Mof_C 	C 	0.3873	0.537	0.3245	0.065
Mof_C 	C 	0.9931	0.615	0.0143	0.402
Mof_C 	C 	0.1551	0.335	0.3643	0.34
Mof_C 	C 	0.2845	0.5985	0.267	0.381
Mof_C 	C 	0.9757	0.8999	0.3578	-0.125
Mof_C 	C 	0.9103	0.8255	0.3716	0.059
Mof_C 	C 	0.9083	0.739	0.3543	-0.105
Mof_C 	C 	0.9719	0.728	0.3241	0.059
Mof_C 	C 	0.0365	0.8021	0.3086	-0.116
Mof_C 	C 	0.037	0.8873	0.3245	0.062
Mof_C 	C 	0.115	0.4931	0.0143	0.398
Mof_C 	C 	0.835	0.6551	0.3643	0.34
Mof_C 	C 	0.0985	0.7845	0.267	0.381
Mof_C 	C 	0.5421	0.6179	0.6422	-0.127
Mof_C 	C 	0.4539	0.5387	0.6284	0.059
Mof_C 	C 	0.3847	0.554	0.6457	-0.105
Mof_C 	C 	0.4039	0.6478	0.6759	0.055
Mof_C 	C 	0.4935	0.7279	0.6914	-0.113
Mof_C 	C 	0.5628	0.7125	0.6755	0.065
Mof_C 	C 	0.4788	0.1007	0.9857	0.398
Mof_C 	C 	0.2908	0.4707	0.6357	0.34
Mof_C 	C 	0.5175	0.8315	0.733	0.381
Mof_C 	C 	0.8999	0.5421	0.9242	-0.129
Mof_C 	C 	0.8255	0.4539	0.9152	0.06
Mof_C 	C 	0.739	0.3847	0.8307	-0.105
Mof_C 	C 	0.728	0.4039	0.7561	0.056
Mof_C 	C 	0.8021	0.4935	0.7656	-0.114
Mof_C 	C 	0.8873	0.5628	0.8503	0.066
Mof_C 	C 	0.4931	0.4788	0.3781	0.399
Mof_C 	C 	0.6551	0.2908	0.8201	0.34
Mof_C 	C 	0.7845	0.5175	0.686	0.381
Mof_C 	C 	0.6179	0.9757	0.0758	-0.123
Mof_C 	C 	0.5387	0.9103	0.0848	0.058
Mof_C 	C 	0.554	0.9083	0.1693	-0.105
Mof_C 	C 	0.6478	0.9719	0.2439	0.059
Mof_C 	C 	0.7279	0.0365	0.2344	-0.115
Mof_C 	C 	0.7125	0.037	0.1497	0.061
Mof_C 	C 	0.1007	0.115	0.6219	0.397
Mof_C 	C 	0.4707	0.835	0.1799	0.34
Mof_C 	C 	0.8315	0.0985	0.314	0.381
Mof_O 	O 	0.0404	0.0583	0.3657	-0.475
Mof_O 	O 	0.9189	0.9986	0.4037	-0.467
Mof_O 	O 	0.7881	0.1534	0.8939	-0.444
Mof_O 	O 	0.7239	0.0933	0.7438	-0.306
Mof_O 	O 	0.9443	0.2252	0.6079	-0.434
Mof_O 	O 	0.1095	0.3304	0.7061	-0.459
Mof_O 	O 	0.6926	0.6747	0.6343	-0.472
Mof_O 	O 	0.5949	0.5152	0.5963	-0.468
Mof_O 	O 	0.2595	0.8942	0.1061	-0.444
Mof_O 	O 	0.3495	0.9801	0.2562	-0.306
Mof_O 	O 	0.6173	0.3364	0.3921	-0.435
Mof_O 	O 	0.6243	0.4034	0.2939	-0.459
Mof_O 	O 	0.6747	0.0404	0.9821	-0.473
Mof_O 	O 	0.5152	0.9189	0.9203	-0.468
Mof_O 	O 	0.8942	0.7881	0.6347	-0.444
Mof_O 	O 	0.9801	0.7239	0.6306	-0.305
Mof_O 	O 	0.3364	0.9443	0.7191	-0.434
Mof_O 	O 	0.4034	0.1095	0.7791	-0.459
Mof_O 	O 	0.0583	0.6926	0.0179	-0.474
Mof_O 	O 	0.9986	0.5949	0.0797	-0.468
Mof_O 	O 	0.1534	0.2595	0.3653	-0.444
Mof_O 	O 	0.0933	0.3495	0.3694	-0.306
Mof_O 	O 	0.2252	0.6173	0.2809	-0.435
Mof_O 	O 	0.3304	0.6243	0.2209	-0.459
Mof_O 	O 	0.1926	0.5583	0.0179	-0.472
Mof_O 	O 	0.0949	0.4986	0.0797	-0.469
Mof_O 	O 	0.7595	0.6534	0.3653	-0.444
Mof_O 	O 	0.8495	0.5933	0.3694	-0.306
Mof_O 	O 	0.1173	0.7252	0.2809	-0.436
Mof_O 	O 	0.1243	0.8304	0.2209	-0.459
Mof_O 	O 	0.5404	0.1747	0.9821	-0.472
Mof_O 	O 	0.4189	0.0152	0.9203	-0.469
Mof_O 	O 	0.2881	0.3942	0.6347	-0.444
Mof_O 	O 	0.2239	0.4801	0.6306	-0.306
Mof_O 	O 	0.4443	0.8364	0.7191	-0.435
Mof_O 	O 	0.6095	0.9034	0.7791	-0.458
Mof_O 	O 	0.5583	0.5404	0.3657	-0.472
Mof_O 	O 	0.4986	0.4189	0.4037	-0.468
Mof_O 	O 	0.6534	0.2881	0.8939	-0.444
Mof_O 	O 	0.5933	0.2239	0.7438	-0.306
Mof_O 	O 	0.7252	0.4443	0.6079	-0.435
Mof_O 	O 	0.8304	0.6095	0.7061	-0.459
Mof_O 	O 	0.1747	0.1926	0.6343	-0.472
Mof_O 	O 	0.0152	0.0949	0.5963	-0.469
Mof_O 	O 	0.3942	0.7595	0.1061	-0.444
Mof_O 	O 	0.4801	0.8495	0.2562	-0.306
Mof_O 	O 	0.8364	0.1173	0.3921	-0.436
Mof_O 	O 	0.9034	0.1243	0.2939	-0.459
Mof_O 	O 	0.05109	0.23111	0.5	-0.66
Mof_O 	O 	0.73111	0.55109	0.5	-0.66
Mof_O 	O 	0.55109	0.05109	0.81998	-0.66
Mof_O 	O 	0.23111	0.73111	0.18002	-0.66
_end
