data_functionalizedCrystal
_audit_creation_method	'EQeq! by Chris Wilmer'
_symmetry_space_group_name_H-M	'P1'
_symmetry_Int_Tables_number	1
_symmetry_cell_setting	triclinic
loop_
_symmetry_equiv_pos_as_xyz
  x,y,z
_cell_length_a	10.944
_cell_length_b	11.129
_cell_length_c	15.998
_cell_angle_alpha	75.57
_cell_angle_beta	82.96
_cell_angle_gamma	75.56
loop_
_atom_site_label
_atom_site_type_symbol
_atom_site_fract_x
_atom_site_fract_y
_atom_site_fract_z
_atom_site_charge
Mof_O 	O 	0.3596	0.2866	0.727	-0.584
Mof_O 	O 	0.5739	0.996	0.2435	-0.617
Mof_O 	O 	0.9795	0.0737	0.0845	-0.62
Mof_O 	O 	0.1475	0.0697	0.9923	-0.598
Mof_C 	C 	0.0935	0.0746	0.0652	0.574
Mof_O 	O 	0.2264	0.202	0.8262	-0.614
Mof_O 	O 	0.5714	0.02	0.1037	-0.525
Mof_C 	C 	0.5144	0.0233	0.1748	0.435
Mof_C 	C 	0.374	0.0625	0.1831	-0.186
Mof_C 	C 	0.3026	0.0598	0.1192	0.129
Mof_H 	H 	0.3408	0.0426	0.067	-0.013
Mof_C 	C 	0.2772	0.2909	0.7874	0.569
Mof_C 	C 	0.2351	0.4141	0.8165	-0.214
Mof_C 	C 	0.2777	0.5219	0.7724	0.141
Mof_H 	H 	0.3327	0.5184	0.7234	-0.016
Mof_O 	O 	0.6108	0.1174	0.5418	-0.516
Mof_O 	O 	0.6202	0.1832	0.6582	-0.447
Mof_C 	C 	0.6707	0.1571	0.5896	0.329
Mof_C 	C 	0.8041	0.1629	0.5637	-0.104
Mof_C 	C 	0.8507	0.1639	0.4798	-0.033
Mof_H 	H 	0.7971	0.1669	0.4381	0.057
Mof_Eu	Eu	0.41255	0.16	0.62672	1.995
Mof_Eu	Eu	0.20768	0.99481	0.86643	2.451
Mof_O 	O 	0.0683	0.0952	0.7493	-0.542
Mof_O 	O 	0.2448	0.8472	0.7843	-0.61
Mof_N 	N 	0.0198	0.1544	0.3698	-0.08
Mof_O 	O 	0.3579	0.746	0.6899	-0.347
Mof_C 	C 	0.2853	0.7476	0.7553	0.482
Mof_N 	N 	0.1364	0.139	0.3558	-0.087
Mof_C 	C 	0.1563	0.6378	0.8734	0.036
Mof_H 	H 	0.1302	0.7123	0.8936	0
Mof_C 	C 	0.2404	0.632	0.7998	-0.212
Mof_C 	C 	0.0103	0.1553	0.6038	-0.179
Mof_O 	O 	0.2034	0.1661	0.6468	-0.646
Mof_C 	C 	0.1828	0.1219	0.2713	0.005
Mof_N 	N 	0.0268	0.5454	0.9855	-0.084
Mof_C 	C 	0.1135	0.1107	0.2084	0.062
Mof_H 	H 	0.0262	0.1222	0.2176	0.024
Mof_C 	C 	0.0596	0.158	0.5211	0.031
Mof_H 	H 	0.1445	0.1583	0.5064	-0.004
Mof_C 	C 	0.1002	0.1389	0.6727	0.547
Mof_C 	C 	0.8825	0.1594	0.6248	0.069
Mof_H 	H 	0.8499	0.1597	0.6813	0.024
Mof_C 	C 	0.1537	0.4168	0.8879	0.039
Mof_H 	H 	0.1259	0.3444	0.9177	0.037
Mof_C 	C 	0.9776	0.1603	0.4576	0.03
Mof_C 	C 	0.1704	0.0836	0.1344	-0.225
Mof_C 	C 	0.3145	0.096	0.2599	0.036
Mof_H 	H 	0.3625	0.1007	0.3026	-0.013
Mof_C 	C 	0.1135	0.5293	0.9151	0.012
Mof_O 	O 	0.6404	0.7134	0.273	-0.583
Mof_O 	O 	0.4261	0.004	0.7565	-0.616
Mof_O 	O 	0.0205	0.9263	0.9155	-0.619
Mof_O 	O 	0.8525	0.9303	0.0077	-0.597
Mof_C 	C 	0.9065	0.9254	0.9348	0.574
Mof_O 	O 	0.7736	0.798	0.1738	-0.614
Mof_O 	O 	0.4286	0.98	0.8963	-0.525
Mof_C 	C 	0.4856	0.9767	0.8252	0.435
Mof_C 	C 	0.626	0.9375	0.8169	-0.186
Mof_C 	C 	0.6974	0.9402	0.8808	0.129
Mof_H 	H 	0.6592	0.9574	0.933	-0.013
Mof_C 	C 	0.7228	0.7091	0.2126	0.569
Mof_C 	C 	0.7649	0.5859	0.1835	-0.214
Mof_C 	C 	0.7223	0.4781	0.2276	0.141
Mof_H 	H 	0.6673	0.4816	0.2766	-0.016
Mof_O 	O 	0.3892	0.8826	0.4582	-0.516
Mof_O 	O 	0.3798	0.8168	0.3418	-0.447
Mof_C 	C 	0.3293	0.8429	0.4104	0.329
Mof_C 	C 	0.1959	0.8371	0.4363	-0.104
Mof_C 	C 	0.1493	0.8361	0.5202	-0.033
Mof_H 	H 	0.2029	0.8331	0.5619	0.057
Mof_Eu	Eu	0.58745	0.84	0.37328	1.995
Mof_Eu	Eu	0.79232	0.00519	0.13357	2.451
Mof_O 	O 	0.9317	0.9048	0.2507	-0.542
Mof_O 	O 	0.7552	0.1528	0.2157	-0.61
Mof_N 	N 	0.9802	0.8456	0.6302	-0.08
Mof_O 	O 	0.6421	0.254	0.3101	-0.347
Mof_C 	C 	0.7147	0.2524	0.2447	0.482
Mof_N 	N 	0.8636	0.861	0.6442	-0.087
Mof_C 	C 	0.8437	0.3622	0.1266	0.036
Mof_H 	H 	0.8698	0.2877	0.1064	0
Mof_C 	C 	0.7596	0.368	0.2002	-0.212
Mof_C 	C 	0.9897	0.8447	0.3962	-0.179
Mof_O 	O 	0.7966	0.8339	0.3532	-0.646
Mof_C 	C 	0.8172	0.8781	0.7287	0.005
Mof_N 	N 	0.9732	0.4546	0.0145	-0.084
Mof_C 	C 	0.8865	0.8893	0.7916	0.062
Mof_H 	H 	0.9738	0.8778	0.7824	0.024
Mof_C 	C 	0.9404	0.842	0.4789	0.031
Mof_H 	H 	0.8555	0.8417	0.4936	-0.004
Mof_C 	C 	0.8998	0.8611	0.3273	0.547
Mof_C 	C 	0.1175	0.8406	0.3752	0.069
Mof_H 	H 	0.1501	0.8403	0.3187	0.024
Mof_C 	C 	0.8463	0.5832	0.1121	0.039
Mof_H 	H 	0.8741	0.6556	0.0823	0.037
Mof_C 	C 	0.0224	0.8397	0.5424	0.03
Mof_C 	C 	0.8296	0.9164	0.8656	-0.225
Mof_C 	C 	0.6855	0.904	0.7401	0.036
Mof_H 	H 	0.6375	0.8993	0.6974	-0.013
Mof_C 	C 	0.8865	0.4707	0.0849	0.012
_end
