# CIF file generated by openbabel 3.1.0, see https://openbabel.org
data_I
_chemical_name_common 'image0'
_cell_length_a 9.4378
_cell_length_b 10.192
_cell_length_c 11.234
_cell_angle_alpha 64.11
_cell_angle_beta 73.1
_cell_angle_gamma 83.18
_space_group_name_H-M_alt 'P 1'
_space_group_name_Hall 'P 1'
loop_
    _symmetry_equiv_pos_as_xyz
    x,y,z
loop_
    _atom_site_label
    _atom_site_type_symbol
    _atom_site_fract_x
    _atom_site_fract_y
    _atom_site_fract_z
    _atom_site_occupancy
    Cd1      Cd       0.05325    0.16732    0.29976    1.000
    Cd2      Cd       0.04773    0.82151    0.60892    1.000
    Cd3      Cd       0.07674    0.50318    0.98253    1.000
    O1       O        0.27600    0.91110    0.48530    1.000
    O2       O        0.27990    0.07320    0.26740    1.000
    O3       O        0.56690    0.93010    0.43160    1.000
    O4       O        0.75780    0.79670    0.58850    1.000
    O5       O        0.94220    0.93690    0.42290    1.000
    C1       C        0.33360    0.98780    0.36690    1.000
    C2       C        0.50040    0.99490    0.32750    1.000
    C3       C        0.60770    0.06510    0.20430    1.000
    H1       H        0.59080    0.12110    0.11870    1.000
    C4       C        0.74580    0.03570    0.23380    1.000
    H2       H        0.83800    0.06550    0.17110    1.000
    C5       C        0.71780    0.95230    0.37670    1.000
    C6       C        0.81430    0.89720    0.46650    1.000
    C7       C        0.29540    0.44430    0.13150    1.000
    C8       C        0.39670    0.39400    0.22310    1.000
    C9       C        0.37580    0.32970    0.35780    1.000
    H3       H        0.28490    0.30660    0.42350    1.000
    C10      C        0.51350    0.30280    0.38340    1.000
    H4       H        0.53200    0.25850    0.46930    1.000
    C11      C        0.61450    0.35190    0.26280    1.000
    C12      C        0.77700    0.35640    0.22230    1.000
    O6       O        0.15690    0.40280    0.19290    1.000
    O7       O        0.34230    0.52320    0.00900    1.000
    O8       O        0.54420    0.41930    0.15890    1.000
    O9       O        0.84250    0.28670    0.31430    1.000
    O10      O        0.84230    0.42720    0.09810    1.000
    C13      C        0.97760    0.09920    0.63620    1.000
    C14      C        0.93890    0.19120    0.71500    1.000
    C15      C        0.86080    0.15490    0.84710    1.000
    H5       H        0.81520    0.06580    0.90990    1.000
    C16      C        0.86290    0.28080    0.87000    1.000
    H6       H        0.81610    0.29290    0.94960    1.000
    C17      C        0.94750    0.37940    0.75120    1.000
    C18      C        0.99890    0.53490    0.70480    1.000
    O11      O        0.94070    0.96750    0.70390    1.000
    O12      O        0.04390    0.16910    0.50640    1.000
    O13      O        0.99710    0.32600    0.65630    1.000
    O14      O        0.96300    0.58700    0.79400    1.000
    O15      O        0.06890    0.60330    0.58820    1.000
    C19      C        0.15100    0.79290    0.87610    1.000
    C20      C        0.19740    0.93600    0.85070    1.000
    C21      C        0.28560    0.03760    0.73420    1.000
    H7       H        0.33360    0.02730    0.65380    1.000
    C22      C        0.29010    0.16060    0.75890    1.000
    H8       H        0.34140    0.24700    0.69680    1.000
    C23      C        0.20570    0.13200    0.89040    1.000
    C24      C        0.15820    0.21100    0.97580    1.000
    O16      O        0.06580    0.72140    0.99540    1.000
    O17      O        0.20440    0.74830    0.78620    1.000
    O18      O        0.14830    0.98860    0.94840    1.000
    O19      O        0.20170    0.34550    0.90710    1.000
    O20      O        0.07790    0.16190    0.08790    1.000
