data_functionalizedCrystal
_audit_creation_method	'EQeq! by Chris Wilmer'
_symmetry_space_group_name_H-M	'P1'
_symmetry_Int_Tables_number	1
_symmetry_cell_setting	triclinic
loop_
_symmetry_equiv_pos_as_xyz
  x,y,z
_cell_length_a	13.2052
_cell_length_b	14.1208
_cell_length_c	14.5661
_cell_angle_alpha	90
_cell_angle_beta	114.031
_cell_angle_gamma	90
loop_
_atom_site_label
_atom_site_type_symbol
_atom_site_fract_x
_atom_site_fract_y
_atom_site_fract_z
_atom_site_charge
Mof_Co	Co	0.4822	0.60208	0.73893	1.184
Mof_Co	Co	0.66239	0.73307	0.92467	1.092
Mof_Co	Co	0.0178	0.10208	0.76107	1.183
Mof_Co	Co	0.83761	0.23307	0.57533	1.091
Mof_H 	H 	0.8053	0.4526	0.06	0.085
Mof_H 	H 	0.9714	0.1858	0.1503	0.042
Mof_H 	H 	0.0743	0.2538	0.1778	0.046
Mof_H 	H 	0.2455	0.4197	0.4567	0.095
Mof_H 	H 	0.7612	0.3974	0.7763	0.042
Mof_H 	H 	0.0453	0.2157	0.4767	0.071
Mof_H 	H 	0.9629	0.2353	0.0019	0.071
Mof_H 	H 	0.0641	0.1728	0.3207	0.039
Mof_H 	H 	0.9611	0.2373	0.3049	0.038
Mof_H 	H 	0.2459	0.3553	0.7242	0.052
Mof_H 	H 	0.6947	0.9526	0.44	0.086
Mof_H 	H 	0.5286	0.6858	0.3497	0.045
Mof_H 	H 	0.4257	0.7538	0.3222	0.048
Mof_H 	H 	0.2545	0.9197	0.0433	0.096
Mof_H 	H 	0.7388	0.8974	0.7237	0.043
Mof_H 	H 	0.4547	0.7157	0.0233	0.076
Mof_H 	H 	0.5371	0.7353	0.4981	0.081
Mof_H 	H 	0.4359	0.6728	0.1793	0.038
Mof_H 	H 	0.5389	0.7373	0.1951	0.038
Mof_H 	H 	0.2541	0.8553	0.7758	0.052
Mof_C 	C 	0.8196	0.416	0.0136	-0.095
Mof_C 	C 	0.006	0.243	0.1863	0.001
Mof_C 	C 	0.6957	0.5231	0.8763	0.365
Mof_C 	C 	0.2185	0.3838	0.4954	-0.131
Mof_C 	C 	0.7944	0.3838	0.8447	0.016
Mof_C 	C 	0.0991	0.2616	0.5071	-0.133
Mof_C 	C 	0.7709	0.4401	0.912	-0.063
Mof_C 	C 	0.8662	0.3084	0.8779	-0.078
Mof_C 	C 	0.1387	0.3159	0.4498	0.183
Mof_C 	C 	0.8889	0.3384	0.0463	0.153
Mof_C 	C 	0.9139	0.2859	0.9794	-0.083
Mof_C 	C 	0.0296	0.2335	0.2954	0.017
Mof_C 	C 	0.2593	0.3994	0.5982	-0.036
Mof_C 	C 	0.14	0.2758	0.6099	-0.056
Mof_C 	C 	0.2195	0.3453	0.6553	-0.02
Mof_C 	C 	0.3434	0.4736	0.6459	0.301
Mof_C 	C 	0.097	0.2187	0.6711	0.308
Mof_C 	C 	0.8968	0.2521	0.8066	0.399
Mof_C 	C 	0.6804	0.916	0.4864	-0.097
Mof_C 	C 	0.494	0.743	0.3137	-0.005
Mof_C 	C 	0.8043	0.0231	0.6237	0.365
Mof_C 	C 	0.2815	0.8838	0.0046	-0.128
Mof_C 	C 	0.7056	0.8838	0.6553	0.011
Mof_C 	C 	0.4009	0.7616	0.9929	-0.143
Mof_C 	C 	0.7291	0.9401	0.588	-0.063
Mof_C 	C 	0.6338	0.8084	0.6221	-0.071
Mof_C 	C 	0.3613	0.8159	0.0502	0.188
Mof_C 	C 	0.6111	0.8384	0.4537	0.163
Mof_C 	C 	0.5861	0.7859	0.5206	-0.102
Mof_C 	C 	0.4704	0.7335	0.2046	0.018
Mof_C 	C 	0.2407	0.8994	0.9018	-0.038
Mof_C 	C 	0.36	0.7758	0.8901	-0.052
Mof_C 	C 	0.2805	0.8453	0.8447	-0.022
Mof_C 	C 	0.1566	0.9736	0.8541	0.294
Mof_C 	C 	0.403	0.7187	0.8289	0.307
Mof_C 	C 	0.6032	0.7521	0.6934	0.396
Mof_O 	O 	0.1025	0.309	0.3482	-0.216
Mof_O 	O 	0.7178	0.5947	0.9324	-0.458
Mof_O 	O 	0.9323	0.3227	0.1489	-0.201
Mof_O 	O 	0.6144	0.5166	0.7914	-0.434
Mof_O 	O 	0.3638	0.5012	0.7318	-0.389
Mof_O 	O 	0.398	0.5085	0.6017	-0.356
Mof_O 	O 	0.1517	0.2091	0.7643	-0.372
Mof_O 	O 	0.0049	0.1746	0.6311	-0.531
Mof_O 	O 	0.8458	0.2663	0.7156	-0.492
Mof_O 	O 	0.9741	0.1923	0.8425	-0.456
Mof_O 	O 	0.3975	0.809	0.1518	-0.217
Mof_O 	O 	0.7822	0.0947	0.5676	-0.458
Mof_O 	O 	0.5677	0.8227	0.3511	-0.201
Mof_O 	O 	0.8856	0.0166	0.7086	-0.433
Mof_O 	O 	0.1362	0.0012	0.7682	-0.386
Mof_O 	O 	0.102	0.0085	0.8983	-0.352
Mof_O 	O 	0.3483	0.7091	0.7357	-0.371
Mof_O 	O 	0.4951	0.6746	0.8689	-0.531
Mof_O 	O 	0.6542	0.7663	0.7844	-0.491
Mof_O 	O 	0.5259	0.6923	0.6575	-0.457
Mof_Co	Co	0.5178	0.39792	0.26107	1.183
Mof_Co	Co	0.33761	0.26693	0.07533	1.091
Mof_Co	Co	0.9822	0.89792	0.23893	1.183
Mof_Co	Co	0.16239	0.76693	0.42467	1.091
Mof_H 	H 	0.1947	0.5474	0.94	0.085
Mof_H 	H 	0.0286	0.8142	0.8497	0.042
Mof_H 	H 	0.9257	0.7462	0.8222	0.046
Mof_H 	H 	0.7545	0.5803	0.5433	0.095
Mof_H 	H 	0.2388	0.6026	0.2237	0.042
Mof_H 	H 	0.9547	0.7843	0.5233	0.071
Mof_H 	H 	0.0371	0.7647	0.9981	0.071
Mof_H 	H 	0.9359	0.8272	0.6793	0.039
Mof_H 	H 	0.0389	0.7627	0.6951	0.038
Mof_H 	H 	0.7541	0.6447	0.2758	0.052
Mof_H 	H 	0.3053	0.0474	0.56	0.086
Mof_H 	H 	0.4714	0.3142	0.6503	0.045
Mof_H 	H 	0.5743	0.2462	0.6778	0.048
Mof_H 	H 	0.7455	0.0803	0.9567	0.096
Mof_H 	H 	0.2612	0.1026	0.2763	0.043
Mof_H 	H 	0.5453	0.2843	0.9767	0.076
Mof_H 	H 	0.4629	0.2647	0.5019	0.081
Mof_H 	H 	0.5641	0.3272	0.8207	0.038
Mof_H 	H 	0.4611	0.2627	0.8049	0.038
Mof_H 	H 	0.7459	0.1447	0.2242	0.052
Mof_C 	C 	0.1804	0.584	0.9864	-0.095
Mof_C 	C 	0.994	0.757	0.8137	0.001
Mof_C 	C 	0.3043	0.4769	0.1237	0.365
Mof_C 	C 	0.7815	0.6162	0.5046	-0.131
Mof_C 	C 	0.2056	0.6162	0.1553	0.016
Mof_C 	C 	0.9009	0.7384	0.4929	-0.133
Mof_C 	C 	0.2291	0.5599	0.088	-0.063
Mof_C 	C 	0.1338	0.6916	0.1221	-0.078
Mof_C 	C 	0.8613	0.6841	0.5502	0.183
Mof_C 	C 	0.1111	0.6616	0.9537	0.153
Mof_C 	C 	0.0861	0.7141	0.0206	-0.083
Mof_C 	C 	0.9704	0.7665	0.7046	0.017
Mof_C 	C 	0.7407	0.6006	0.4018	-0.036
Mof_C 	C 	0.86	0.7242	0.3901	-0.056
Mof_C 	C 	0.7805	0.6547	0.3447	-0.02
Mof_C 	C 	0.6566	0.5264	0.3541	0.301
Mof_C 	C 	0.903	0.7813	0.3289	0.308
Mof_C 	C 	0.1032	0.7479	0.1934	0.399
Mof_C 	C 	0.3196	0.084	0.5136	-0.097
Mof_C 	C 	0.506	0.257	0.6863	-0.005
Mof_C 	C 	0.1957	0.9769	0.3763	0.365
Mof_C 	C 	0.7185	0.1162	0.9954	-0.128
Mof_C 	C 	0.2944	0.1162	0.3447	0.011
Mof_C 	C 	0.5991	0.2384	0.0071	-0.143
Mof_C 	C 	0.2709	0.0599	0.412	-0.063
Mof_C 	C 	0.3662	0.1916	0.3779	-0.071
Mof_C 	C 	0.6387	0.1841	0.9498	0.188
Mof_C 	C 	0.3889	0.1616	0.5463	0.163
Mof_C 	C 	0.4139	0.2141	0.4794	-0.102
Mof_C 	C 	0.5296	0.2665	0.7954	0.018
Mof_C 	C 	0.7593	0.1006	0.0982	-0.038
Mof_C 	C 	0.64	0.2242	0.1099	-0.052
Mof_C 	C 	0.7195	0.1547	0.1553	-0.022
Mof_C 	C 	0.8434	0.0264	0.1459	0.294
Mof_C 	C 	0.597	0.2813	0.1711	0.307
Mof_C 	C 	0.3968	0.2479	0.3066	0.396
Mof_O 	O 	0.8975	0.691	0.6518	-0.216
Mof_O 	O 	0.2822	0.4053	0.0676	-0.458
Mof_O 	O 	0.0677	0.6773	0.8511	-0.201
Mof_O 	O 	0.3856	0.4834	0.2086	-0.434
Mof_O 	O 	0.6362	0.4988	0.2682	-0.389
Mof_O 	O 	0.602	0.4915	0.3983	-0.356
Mof_O 	O 	0.8483	0.7909	0.2357	-0.372
Mof_O 	O 	0.9951	0.8254	0.3689	-0.531
Mof_O 	O 	0.1542	0.7337	0.2844	-0.492
Mof_O 	O 	0.0259	0.8077	0.1575	-0.456
Mof_O 	O 	0.6025	0.191	0.8482	-0.217
Mof_O 	O 	0.2178	0.9053	0.4324	-0.458
Mof_O 	O 	0.4323	0.1773	0.6489	-0.201
Mof_O 	O 	0.1144	0.9834	0.2914	-0.433
Mof_O 	O 	0.8638	0.9988	0.2318	-0.386
Mof_O 	O 	0.898	0.9915	0.1017	-0.352
Mof_O 	O 	0.6517	0.2909	0.2643	-0.371
Mof_O 	O 	0.5049	0.3254	0.1311	-0.531
Mof_O 	O 	0.3458	0.2337	0.2156	-0.491
Mof_O 	O 	0.4741	0.3077	0.3425	-0.457
_end
