data_functionalizedCrystal
_audit_creation_method	'EQeq! by Chris Wilmer'
_symmetry_space_group_name_H-M	'P1'
_symmetry_Int_Tables_number	1
_symmetry_cell_setting	triclinic
loop_
_symmetry_equiv_pos_as_xyz
  x,y,z
_cell_length_a	11.5955
_cell_length_b	5.5581
_cell_length_c	22.9548
_cell_angle_alpha	90
_cell_angle_beta	101.062
_cell_angle_gamma	90
loop_
_atom_site_label
_atom_site_type_symbol
_atom_site_fract_x
_atom_site_fract_y
_atom_site_fract_z
_atom_site_charge
Mof_O 	O 	0.73729	0.4786	0.67232	-0.515
Mof_C 	C 	0.72776	0.2633	0.65555	0.449
Mof_Ca	Ca	0.36319	0.2422	0.27917	1.566
Mof_S 	S 	0.60426	0.03343	0.39467	0.311
Mof_O 	O 	0.01164	0.4744	0.25206	-0.48
Mof_O 	O 	0.74104	0.0866	0.69107	-0.583
Mof_O 	O 	0.50603	0.1911	0.37164	-0.357
Mof_O 	O 	0.04045	0.0793	0.24321	-0.491
Mof_O 	O 	0.58752	0.77672	0.39113	-0.248
Mof_C 	C 	0.70469	0.2102	0.59021	-0.167
Mof_C 	C 	0.7374	0.9895	0.56944	0.063
Mof_H 	H 	0.7768	0.8766	0.5959	0.006
Mof_C 	C 	0.72159	0.1073	0.35948	-0.006
Mof_C 	C 	0.6503	0.1088	0.47036	0.011
Mof_C 	C 	0.90071	0.2069	0.29904	-0.167
Mof_C 	C 	0.9006	0.9896	0.32949	0.063
Mof_H 	H 	0.9601	0.8779	0.329	0.005
Mof_C 	C 	0.81169	0.9401	0.36058	-0.095
Mof_H 	H 	0.8122	0.7975	0.3818	0.071
Mof_C 	C 	0.62029	0.3323	0.49026	-0.107
Mof_H 	H 	0.5821	0.4461	0.4637	0.09
Mof_C 	C 	0.81221	0.375	0.30039	0.051
Mof_H 	H 	0.8142	0.5219	0.2812	0.025
Mof_C 	C 	0.71094	0.9388	0.50899	-0.1
Mof_H 	H 	0.7335	0.7932	0.4946	0.073
Mof_C 	C 	0.9929	0.2577	0.26199	0.472
Mof_C 	C 	0.72097	0.3264	0.32993	-0.092
Mof_H 	H 	0.6609	0.4372	0.33	0.076
Mof_C 	C 	0.64849	0.3821	0.55056	0.067
Mof_H 	H 	0.6297	0.5313	0.5646	0.014
Mof_O 	O 	0.76271	0.9786	0.82768	-0.516
Mof_C 	C 	0.77224	0.7633	0.84445	0.449
Mof_Ca	Ca	0.13681	0.7422	0.22083	1.564
Mof_S 	S 	0.89574	0.53343	0.10533	0.31
Mof_O 	O 	0.48836	0.9744	0.24794	-0.481
Mof_O 	O 	0.75896	0.5866	0.80893	-0.584
Mof_O 	O 	0.99397	0.6911	0.12836	-0.357
Mof_O 	O 	0.45955	0.5793	0.25679	-0.494
Mof_O 	O 	0.91248	0.27672	0.10887	-0.25
Mof_C 	C 	0.79531	0.7102	0.90979	-0.169
Mof_C 	C 	0.7626	0.4895	0.93056	0.066
Mof_H 	H 	0.7232	0.3766	0.9041	0.005
Mof_C 	C 	0.77841	0.6073	0.14052	-0.001
Mof_C 	C 	0.8497	0.6088	0.02964	0.015
Mof_C 	C 	0.59929	0.7069	0.20096	-0.167
Mof_C 	C 	0.5994	0.4896	0.17051	0.062
Mof_H 	H 	0.5399	0.3779	0.171	0.004
Mof_C 	C 	0.68831	0.4401	0.13942	-0.1
Mof_H 	H 	0.6878	0.2975	0.1182	0.072
Mof_C 	C 	0.87971	0.8323	0.00974	-0.112
Mof_H 	H 	0.9179	0.9461	0.0363	0.092
Mof_C 	C 	0.68779	0.875	0.19961	0.059
Mof_H 	H 	0.6858	0.0219	0.2188	0.02
Mof_C 	C 	0.78906	0.4388	0.99101	-0.104
Mof_H 	H 	0.7665	0.2932	0.0054	0.073
Mof_C 	C 	0.5071	0.7577	0.23801	0.476
Mof_C 	C 	0.77903	0.8264	0.17007	-0.097
Mof_H 	H 	0.8391	0.9372	0.17	0.078
Mof_C 	C 	0.85151	0.8821	0.94944	0.074
Mof_H 	H 	0.8703	0.0313	0.9354	0.011
Mof_O 	O 	0.26271	0.5214	0.32768	-0.516
Mof_C 	C 	0.27224	0.7367	0.34445	0.448
Mof_Ca	Ca	0.63681	0.7578	0.72083	1.565
Mof_S 	S 	0.39574	0.96657	0.60533	0.31
Mof_O 	O 	0.98836	0.5256	0.74794	-0.481
Mof_O 	O 	0.25896	0.9134	0.30893	-0.584
Mof_O 	O 	0.49397	0.8089	0.62836	-0.357
Mof_O 	O 	0.95955	0.9207	0.75679	-0.491
Mof_O 	O 	0.41248	0.22328	0.60887	-0.248
Mof_C 	C 	0.29531	0.7898	0.40979	-0.167
Mof_C 	C 	0.2626	0.0105	0.43056	0.063
Mof_H 	H 	0.2232	0.1234	0.4041	0.006
Mof_C 	C 	0.27841	0.8927	0.64052	-0.006
Mof_C 	C 	0.3497	0.8912	0.52964	0.011
Mof_C 	C 	0.09929	0.7931	0.70096	-0.167
Mof_C 	C 	0.0994	0.0104	0.67051	0.063
Mof_H 	H 	0.0399	0.1221	0.671	0.005
Mof_C 	C 	0.18831	0.0599	0.63942	-0.095
Mof_H 	H 	0.1878	0.2025	0.6182	0.071
Mof_C 	C 	0.37971	0.6677	0.50974	-0.107
Mof_H 	H 	0.4179	0.5539	0.5363	0.09
Mof_C 	C 	0.18779	0.625	0.69961	0.051
Mof_H 	H 	0.1858	0.4781	0.7188	0.025
Mof_C 	C 	0.28906	0.0612	0.49101	-0.1
Mof_H 	H 	0.2665	0.2068	0.5054	0.073
Mof_C 	C 	0.0071	0.7423	0.73801	0.472
Mof_C 	C 	0.27903	0.6736	0.67007	-0.092
Mof_H 	H 	0.3391	0.5628	0.67	0.076
Mof_C 	C 	0.35151	0.6179	0.44944	0.067
Mof_H 	H 	0.3703	0.4687	0.4354	0.014
Mof_O 	O 	0.23729	0.0214	0.17232	-0.516
Mof_C 	C 	0.22776	0.2367	0.15555	0.449
Mof_Ca	Ca	0.86319	0.2578	0.77917	1.564
Mof_S 	S 	0.10426	0.46657	0.89467	0.31
Mof_O 	O 	0.51164	0.0256	0.75206	-0.481
Mof_O 	O 	0.24104	0.4134	0.19107	-0.584
Mof_O 	O 	0.00603	0.3089	0.87164	-0.357
Mof_O 	O 	0.54045	0.4207	0.74321	-0.494
Mof_O 	O 	0.08752	0.72328	0.89113	-0.25
Mof_C 	C 	0.20469	0.2898	0.09021	-0.169
Mof_C 	C 	0.2374	0.5105	0.06944	0.066
Mof_H 	H 	0.2768	0.6234	0.0959	0.005
Mof_C 	C 	0.22159	0.3927	0.85948	-0.001
Mof_C 	C 	0.1503	0.3912	0.97036	0.015
Mof_C 	C 	0.40071	0.2931	0.79904	-0.167
Mof_C 	C 	0.4006	0.5104	0.82949	0.062
Mof_H 	H 	0.4601	0.6221	0.829	0.004
Mof_C 	C 	0.31169	0.5599	0.86058	-0.1
Mof_H 	H 	0.3122	0.7025	0.8818	0.072
Mof_C 	C 	0.12029	0.1677	0.99026	-0.112
Mof_H 	H 	0.0821	0.0539	0.9637	0.092
Mof_C 	C 	0.31221	0.125	0.80039	0.059
Mof_H 	H 	0.3142	0.9781	0.7812	0.02
Mof_C 	C 	0.21094	0.5612	0.00899	-0.104
Mof_H 	H 	0.2335	0.7068	0.9946	0.073
Mof_C 	C 	0.4929	0.2423	0.76199	0.476
Mof_C 	C 	0.22097	0.1736	0.82993	-0.097
Mof_H 	H 	0.1609	0.0628	0.83	0.078
Mof_C 	C 	0.14849	0.1179	0.05056	0.074
Mof_H 	H 	0.1297	0.9687	0.0646	0.011
_end
