# CIF file generated by openbabel 3.1.0, see https://openbabel.org
data_I
_chemical_name_common 'image0'
_cell_length_a 10.8511
_cell_length_b 28.8803
_cell_length_c 19.155
_cell_angle_alpha 90
_cell_angle_beta 123.902
_cell_angle_gamma 90
_space_group_name_H-M_alt 'P 1'
_space_group_name_Hall 'P 1'
loop_
    _symmetry_equiv_pos_as_xyz
    x,y,z
loop_
    _atom_site_label
    _atom_site_type_symbol
    _atom_site_fract_x
    _atom_site_fract_y
    _atom_site_fract_z
    _atom_site_occupancy
    Eu1      Eu       0.21901    0.23008    0.28564    1.000
    O1       O        0.10570    0.16910    0.18240    1.000
    O2       O        0.92010    0.21180    0.16180    1.000
    O3       O        0.41520    0.78660    0.76220    1.000
    O4       O        0.29080    0.27630    0.11310    1.000
    O5       O        0.16240    0.26810    0.16770    1.000
    O6       O        0.37590    0.63530    0.70580    1.000
    O7       O        0.39870    0.25550    0.42630    1.000
    O8       O        0.41770    0.29530    0.33900    1.000
    O9       O        0.87730    0.70110    0.70510    1.000
    C1       C        0.68470    0.10680    0.90510    1.000
    C2       C        0.83030    0.08930    0.96660    1.000
    H1       H        0.86320    0.06170    0.95740    1.000
    C3       C        0.92100    0.11440    0.03990    1.000
    H2       H        0.01790    0.10460    0.07840    1.000
    C4       C        0.86910    0.15410    0.05640    1.000
    C5       C        0.72720    0.17060    0.99770    1.000
    H3       H        0.69340    0.19730    0.00910    1.000
    C6       C        0.63690    0.14770    0.92330    1.000
    H4       H        0.54280    0.15930    0.88400    1.000
    C7       C        0.59120    0.08170    0.82430    1.000
    C8       C        0.96800    0.18030    0.13860    1.000
    C9       C        0.63110    0.93180    0.79900    1.000
    H5       H        0.72000    0.94760    0.83360    1.000
    C10      C        0.59160    0.03290    0.82410    1.000
    H6       H        0.65380    0.01680    0.87400    1.000
    C11      C        0.63230    0.88460    0.79730    1.000
    H7       H        0.72120    0.86830    0.82760    1.000
    C12      C        0.76420    0.31890    0.87940    1.000
    C13      C        0.90100    0.32400    0.89100    1.000
    H8       H        0.90380    0.33800    0.84810    1.000
    C14      C        0.03110    0.31020    0.96040    1.000
    H9       H        0.12020    0.31590    0.96560    1.000
    C15      C        0.03040    0.28750    0.02330    1.000
    C16      C        0.89570    0.28040    0.01490    1.000
    H10      H        0.89200    0.26710    0.05790    1.000
    C17      C        0.76650    0.29400    0.93930    1.000
    H11      H        0.67590    0.28530    0.92990    1.000
    C18      C        0.62590    0.34180    0.80960    1.000
    C19      C        0.16900    0.27720    0.10480    1.000
    C20      C        0.36540    0.49080    0.71390    1.000
    H12      H        0.27580    0.47490    0.68890    1.000
    C21      C        0.62640    0.38870    0.80610    1.000
    H13      H        0.71450    0.40450    0.84260    1.000
    C22      C        0.36670    0.53810    0.71570    1.000
    H14      H        0.27800    0.55410    0.69380    1.000
    C23      C        0.75800    0.38000    0.61240    1.000
    C24      C        0.69900    0.39130    0.52990    1.000
    H15      H        0.72830    0.41860    0.51730    1.000
    C25      C        0.59490    0.36220    0.46370    1.000
    H16      H        0.55440    0.37110    0.40830    1.000
    C26      C        0.55340    0.32210    0.47920    1.000
    C27      C        0.61100    0.31070    0.56310    1.000
    H17      H        0.57930    0.28360    0.57470    1.000
    C28      C        0.71160    0.33790    0.62780    1.000
    H18      H        0.75040    0.32870    0.68290    1.000
    C29      C        0.88200    0.40660    0.68270    1.000
    C30      C        0.44660    0.28830    0.41130    1.000
    C31      C        0.13310    0.55640    0.78310    1.000
    H19      H        0.22230    0.54070    0.80530    1.000
    C32      C        0.88200    0.45520    0.68400    1.000
    H20      H        0.80230    0.47150    0.64010    1.000
    C33      C        0.13240    0.60230    0.78290    1.000
    H21      H        0.22200    0.61780    0.80510    1.000
    Eu2      Eu       0.78099    0.23008    0.21436    1.000
    O10      O        0.89430    0.16910    0.31760    1.000
    O11      O        0.07990    0.21180    0.33820    1.000
    O12      O        0.58480    0.78660    0.73780    1.000
    O13      O        0.70920    0.27630    0.38690    1.000
    O14      O        0.83760    0.26810    0.33230    1.000
    O15      O        0.62410    0.63530    0.79420    1.000
    O16      O        0.60130    0.25550    0.07370    1.000
    O17      O        0.58230    0.29530    0.16100    1.000
    O18      O        0.12270    0.70110    0.79490    1.000
    C34      C        0.31530    0.10680    0.59490    1.000
    C35      C        0.16970    0.08930    0.53340    1.000
    H22      H        0.13680    0.06170    0.54260    1.000
    C36      C        0.07900    0.11440    0.46010    1.000
    H23      H        0.98210    0.10460    0.42160    1.000
    C37      C        0.13090    0.15410    0.44360    1.000
    C38      C        0.27280    0.17060    0.50230    1.000
    H24      H        0.30660    0.19730    0.49090    1.000
    C39      C        0.36310    0.14770    0.57670    1.000
    H25      H        0.45720    0.15930    0.61600    1.000
    C40      C        0.40880    0.08170    0.67570    1.000
    C41      C        0.03200    0.18030    0.36140    1.000
    C42      C        0.36890    0.93180    0.70100    1.000
    H26      H        0.28000    0.94760    0.66640    1.000
    C43      C        0.40840    0.03290    0.67590    1.000
    H27      H        0.34620    0.01680    0.62600    1.000
    C44      C        0.36770    0.88460    0.70270    1.000
    H28      H        0.27880    0.86830    0.67240    1.000
    C45      C        0.23580    0.31890    0.62060    1.000
    C46      C        0.09900    0.32400    0.60900    1.000
    H29      H        0.09620    0.33800    0.65190    1.000
    C47      C        0.96890    0.31020    0.53960    1.000
    H30      H        0.87980    0.31590    0.53440    1.000
    C48      C        0.96960    0.28750    0.47670    1.000
    C49      C        0.10430    0.28040    0.48510    1.000
    H31      H        0.10800    0.26710    0.44210    1.000
    C50      C        0.23350    0.29400    0.56070    1.000
    H32      H        0.32410    0.28530    0.57010    1.000
    C51      C        0.37410    0.34180    0.69040    1.000
    C52      C        0.83100    0.27720    0.39520    1.000
    C53      C        0.63460    0.49080    0.78610    1.000
    H33      H        0.72420    0.47490    0.81110    1.000
    C54      C        0.37360    0.38870    0.69390    1.000
    H34      H        0.28550    0.40450    0.65740    1.000
    C55      C        0.63330    0.53810    0.78430    1.000
    H35      H        0.72200    0.55410    0.80620    1.000
    C56      C        0.24200    0.38000    0.88760    1.000
    C57      C        0.30100    0.39130    0.97010    1.000
    H36      H        0.27170    0.41860    0.98270    1.000
    C58      C        0.40510    0.36220    0.03630    1.000
    H37      H        0.44560    0.37110    0.09170    1.000
    C59      C        0.44660    0.32210    0.02080    1.000
    C60      C        0.38900    0.31070    0.93690    1.000
    H38      H        0.42070    0.28360    0.92530    1.000
    C61      C        0.28840    0.33790    0.87220    1.000
    H39      H        0.24960    0.32870    0.81710    1.000
    C62      C        0.11800    0.40660    0.81730    1.000
    C63      C        0.55340    0.28830    0.08870    1.000
    C64      C        0.86690    0.55640    0.71690    1.000
    H40      H        0.77770    0.54070    0.69470    1.000
    C65      C        0.11800    0.45520    0.81600    1.000
    H41      H        0.19770    0.47150    0.85990    1.000
    C66      C        0.86760    0.60230    0.71710    1.000
    H42      H        0.77800    0.61780    0.69490    1.000
    Eu3      Eu       0.78099    0.76992    0.71436    1.000
    O19      O        0.89430    0.83090    0.81760    1.000
    O20      O        0.07990    0.78820    0.83820    1.000
    O21      O        0.58480    0.21340    0.23780    1.000
    O22      O        0.70920    0.72370    0.88690    1.000
    O23      O        0.83760    0.73190    0.83230    1.000
    O24      O        0.62410    0.36470    0.29420    1.000
    O25      O        0.60130    0.74450    0.57370    1.000
    O26      O        0.58230    0.70470    0.66100    1.000
    O27      O        0.12270    0.29890    0.29490    1.000
    C67      C        0.31530    0.89320    0.09490    1.000
    C68      C        0.16970    0.91070    0.03340    1.000
    H43      H        0.13680    0.93830    0.04260    1.000
    C69      C        0.07900    0.88560    0.96010    1.000
    H44      H        0.98210    0.89540    0.92160    1.000
    C70      C        0.13090    0.84590    0.94360    1.000
    C71      C        0.27280    0.82940    0.00230    1.000
    H45      H        0.30660    0.80270    0.99090    1.000
    C72      C        0.36310    0.85230    0.07670    1.000
    H46      H        0.45720    0.84070    0.11600    1.000
    C73      C        0.40880    0.91830    0.17570    1.000
    C74      C        0.03200    0.81970    0.86140    1.000
    C75      C        0.36890    0.06820    0.20100    1.000
    H47      H        0.28000    0.05240    0.16640    1.000
    C76      C        0.40840    0.96710    0.17590    1.000
    H48      H        0.34620    0.98320    0.12600    1.000
    C77      C        0.36770    0.11540    0.20270    1.000
    H49      H        0.27880    0.13170    0.17240    1.000
    C78      C        0.23580    0.68110    0.12060    1.000
    C79      C        0.09900    0.67600    0.10900    1.000
    H50      H        0.09620    0.66200    0.15190    1.000
    C80      C        0.96890    0.68980    0.03960    1.000
    H51      H        0.87980    0.68410    0.03440    1.000
    C81      C        0.96960    0.71250    0.97670    1.000
    C82      C        0.10430    0.71960    0.98510    1.000
    H52      H        0.10800    0.73290    0.94210    1.000
    C83      C        0.23350    0.70600    0.06070    1.000
    H53      H        0.32410    0.71470    0.07010    1.000
    C84      C        0.37410    0.65820    0.19040    1.000
    C85      C        0.83100    0.72280    0.89520    1.000
    C86      C        0.63460    0.50920    0.28610    1.000
    H54      H        0.72420    0.52510    0.31110    1.000
    C87      C        0.37360    0.61130    0.19390    1.000
    H55      H        0.28550    0.59550    0.15740    1.000
    C88      C        0.63330    0.46190    0.28430    1.000
    H56      H        0.72200    0.44590    0.30620    1.000
    C89      C        0.24200    0.62000    0.38760    1.000
    C90      C        0.30100    0.60870    0.47010    1.000
    H57      H        0.27170    0.58140    0.48270    1.000
    C91      C        0.40510    0.63780    0.53630    1.000
    H58      H        0.44560    0.62890    0.59170    1.000
    C92      C        0.44660    0.67790    0.52080    1.000
    C93      C        0.38900    0.68930    0.43690    1.000
    H59      H        0.42070    0.71640    0.42530    1.000
    C94      C        0.28840    0.66210    0.37220    1.000
    H60      H        0.24960    0.67130    0.31710    1.000
    C95      C        0.11800    0.59340    0.31730    1.000
    C96      C        0.55340    0.71170    0.58870    1.000
    C97      C        0.86690    0.44360    0.21690    1.000
    H61      H        0.77770    0.45930    0.19470    1.000
    C98      C        0.11800    0.54480    0.31600    1.000
    H62      H        0.19770    0.52850    0.35990    1.000
    C99      C        0.86760    0.39770    0.21710    1.000
    H63      H        0.77800    0.38220    0.19490    1.000
    Eu4      Eu       0.21901    0.76992    0.78564    1.000
    O28      O        0.10570    0.83090    0.68240    1.000
    O29      O        0.92010    0.78820    0.66180    1.000
    O30      O        0.41520    0.21340    0.26220    1.000
    O31      O        0.29080    0.72370    0.61310    1.000
    O32      O        0.16240    0.73190    0.66770    1.000
    O33      O        0.37590    0.36470    0.20580    1.000
    O34      O        0.39870    0.74450    0.92630    1.000
    O35      O        0.41770    0.70470    0.83900    1.000
    O36      O        0.87730    0.29890    0.20510    1.000
    C100     C        0.68470    0.89320    0.40510    1.000
    C101     C        0.83030    0.91070    0.46660    1.000
    H64      H        0.86320    0.93830    0.45740    1.000
    C102     C        0.92100    0.88560    0.53990    1.000
    H65      H        0.01790    0.89540    0.57840    1.000
    C103     C        0.86910    0.84590    0.55640    1.000
    C104     C        0.72720    0.82940    0.49770    1.000
    H66      H        0.69340    0.80270    0.50910    1.000
    C105     C        0.63690    0.85230    0.42330    1.000
    H67      H        0.54280    0.84070    0.38400    1.000
    C106     C        0.59120    0.91830    0.32430    1.000
    C107     C        0.96800    0.81970    0.63860    1.000
    C108     C        0.63110    0.06820    0.29900    1.000
    H68      H        0.72000    0.05240    0.33360    1.000
    C109     C        0.59160    0.96710    0.32410    1.000
    H69      H        0.65380    0.98320    0.37400    1.000
    C110     C        0.63230    0.11540    0.29730    1.000
    H70      H        0.72120    0.13170    0.32760    1.000
    C111     C        0.76420    0.68110    0.37940    1.000
    C112     C        0.90100    0.67600    0.39100    1.000
    H71      H        0.90380    0.66200    0.34810    1.000
    C113     C        0.03110    0.68980    0.46040    1.000
    H72      H        0.12020    0.68410    0.46560    1.000
    C114     C        0.03040    0.71250    0.52330    1.000
    C115     C        0.89570    0.71960    0.51490    1.000
    H73      H        0.89200    0.73290    0.55790    1.000
    C116     C        0.76650    0.70600    0.43930    1.000
    H74      H        0.67590    0.71470    0.42990    1.000
    C117     C        0.62590    0.65820    0.30960    1.000
    C118     C        0.16900    0.72280    0.60480    1.000
    C119     C        0.36540    0.50920    0.21390    1.000
    H75      H        0.27580    0.52510    0.18890    1.000
    C120     C        0.62640    0.61130    0.30610    1.000
    H76      H        0.71450    0.59550    0.34260    1.000
    C121     C        0.36670    0.46190    0.21570    1.000
    H77      H        0.27800    0.44590    0.19380    1.000
    C122     C        0.75800    0.62000    0.11240    1.000
    C123     C        0.69900    0.60870    0.02990    1.000
    H78      H        0.72830    0.58140    0.01730    1.000
    C124     C        0.59490    0.63780    0.96370    1.000
    H79      H        0.55440    0.62890    0.90830    1.000
    C125     C        0.55340    0.67790    0.97920    1.000
    C126     C        0.61100    0.68930    0.06310    1.000
    H80      H        0.57930    0.71640    0.07470    1.000
    C127     C        0.71160    0.66210    0.12780    1.000
    H81      H        0.75040    0.67130    0.18290    1.000
    C128     C        0.88200    0.59340    0.18270    1.000
    C129     C        0.44660    0.71170    0.91130    1.000
    C130     C        0.13310    0.44360    0.28310    1.000
    H82      H        0.22230    0.45930    0.30530    1.000
    C131     C        0.88200    0.54480    0.18400    1.000
    H83      H        0.80230    0.52850    0.14010    1.000
    C132     C        0.13240    0.39770    0.28290    1.000
    H84      H        0.22200    0.38220    0.30510    1.000
    Eu5      Eu       0.50000    0.70868    0.75000    1.000
    C133     C        0.50000    0.10510    0.75000    1.000
    H85      H        0.50000    0.13730    0.75000    1.000
    C134     C        0.50000    0.00870    0.75000    1.000
    C135     C        0.50000    0.95700    0.75000    1.000
    C136     C        0.50000    0.86190    0.75000    1.000
    C137     C        0.50000    0.81000    0.75000    1.000
    C138     C        0.50000    0.31620    0.75000    1.000
    H86      H        0.50000    0.28400    0.75000    1.000
    C139     C        0.50000    0.41400    0.75000    1.000
    C140     C        0.50000    0.46590    0.75000    1.000
    C141     C        0.50000    0.56320    0.75000    1.000
    C142     C        0.50000    0.61340    0.75000    1.000
    Eu6      Eu       0.50000    0.29132    0.25000    1.000
    C143     C        0.50000    0.89490    0.25000    1.000
    H87      H        0.50000    0.86270    0.25000    1.000
    C144     C        0.50000    0.99130    0.25000    1.000
    C145     C        0.50000    0.04300    0.25000    1.000
    C146     C        0.50000    0.13810    0.25000    1.000
    C147     C        0.50000    0.19000    0.25000    1.000
    C148     C        0.50000    0.68380    0.25000    1.000
    H88      H        0.50000    0.71600    0.25000    1.000
    C149     C        0.50000    0.58600    0.25000    1.000
    C150     C        0.50000    0.53410    0.25000    1.000
    C151     C        0.50000    0.43680    0.25000    1.000
    C152     C        0.50000    0.38660    0.25000    1.000
    C153     C        0.00000    0.38350    0.75000    1.000
    H89      H        0.00000    0.35130    0.75000    1.000
    C154     C        0.00000    0.47890    0.75000    1.000
    C155     C        0.00000    0.53090    0.75000    1.000
    C156     C        0.00000    0.62910    0.75000    1.000
    C157     C        0.00000    0.68000    0.75000    1.000
    C158     C        0.00000    0.61650    0.25000    1.000
    H90      H        0.00000    0.64870    0.25000    1.000
    C159     C        0.00000    0.52110    0.25000    1.000
    C160     C        0.00000    0.46910    0.25000    1.000
    C161     C        0.00000    0.37090    0.25000    1.000
    C162     C        0.00000    0.32000    0.25000    1.000
