data_functionalizedCrystal
_audit_creation_method	'EQeq! by Chris Wilmer'
_symmetry_space_group_name_H-M	'P1'
_symmetry_Int_Tables_number	1
_symmetry_cell_setting	triclinic
loop_
_symmetry_equiv_pos_as_xyz
  x,y,z
_cell_length_a	20.3949
_cell_length_b	20.3949
_cell_length_c	20.3949
_cell_angle_alpha	109.471
_cell_angle_beta	109.471
_cell_angle_gamma	109.471
loop_
_atom_site_label
_atom_site_type_symbol
_atom_site_fract_x
_atom_site_fract_y
_atom_site_fract_z
_atom_site_charge
Mof_Zn	Zn	0.47669	0.05619	0.94272	1.144
Mof_Zn	Zn	0.93663	0.5	0.43663	1.201
Mof_Zn	Zn	0.46603	0.5795	0.52331	1.144
Mof_Zn	Zn	0.94272	0.47669	0.05619	1.144
Mof_Zn	Zn	0.53397	0.05728	0.11347	1.144
Mof_Zn	Zn	0.05619	0.94272	0.47669	1.144
Mof_Zn	Zn	0.52331	0.46603	0.5795	1.143
Mof_Zn	Zn	0.5795	0.52331	0.46603	1.143
Mof_Zn	Zn	0.06337	0.5	0.56337	1.2
Mof_Zn	Zn	0.05728	0.11347	0.53397	1.143
Mof_Zn	Zn	0.94381	0.4205	0.88653	1.143
Mof_Zn	Zn	0.56337	0.06337	0.5	1.2
Mof_Zn	Zn	0.88653	0.94381	0.4205	1.143
Mof_Zn	Zn	0.5	0.43663	0.93663	1.2
Mof_Zn	Zn	0.11347	0.53397	0.05728	1.143
Mof_Zn	Zn	0.5	0.56337	0.06337	1.2
Mof_Zn	Zn	0.43663	0.93663	0.5	1.2
Mof_Zn	Zn	0.4205	0.88653	0.94381	1.143
Mof_H 	H 	0.3126	0.7725	0.2379	0.041
Mof_H 	H 	0.7692	0.0341	0.2935	0.04
Mof_H 	H 	0.2308	0.5243	0.2649	0.039
Mof_H 	H 	0.6874	0.9253	0.4599	0.041
Mof_H 	H 	0.5195	0.5474	0.7931	0.036
Mof_H 	H 	0.2649	0.2308	0.5243	0.039
Mof_H 	H 	0.0341	0.2935	0.7692	0.04
Mof_H 	H 	0.2935	0.7692	0.0341	0.04
Mof_H 	H 	0.7621	0.5346	0.0747	0.041
Mof_H 	H 	0.4654	0.2275	0.5401	0.041
Mof_H 	H 	0.7065	0.7406	0.4757	0.04
Mof_H 	H 	0.2275	0.5401	0.4654	0.041
Mof_H 	H 	0.5474	0.7931	0.5195	0.036
Mof_H 	H 	0.2736	0.0279	0.4805	0.036
Mof_H 	H 	0.7351	0.2594	0.9659	0.04
Mof_H 	H 	0.4805	0.2736	0.0279	0.036
Mof_H 	H 	0.7264	0.2069	0.7543	0.036
Mof_H 	H 	0.2069	0.7543	0.7264	0.036
Mof_H 	H 	0.4757	0.7065	0.7406	0.04
Mof_H 	H 	0.5243	0.2649	0.2308	0.039
Mof_H 	H 	0.9253	0.4599	0.6874	0.041
Mof_H 	H 	0.7406	0.4757	0.7065	0.04
Mof_H 	H 	0.5401	0.4654	0.2275	0.041
Mof_H 	H 	0.9659	0.7351	0.2594	0.04
Mof_H 	H 	0.2594	0.9659	0.7351	0.04
Mof_H 	H 	0.9721	0.2457	0.4526	0.036
Mof_H 	H 	0.4599	0.6874	0.9253	0.041
Mof_H 	H 	0.5346	0.0747	0.7621	0.041
Mof_H 	H 	0.7931	0.5195	0.5474	0.036
Mof_H 	H 	0.2457	0.4526	0.9721	0.036
Mof_H 	H 	0.0747	0.7621	0.5346	0.041
Mof_H 	H 	0.2379	0.3126	0.7725	0.041
Mof_H 	H 	0.7725	0.2379	0.3126	0.041
Mof_H 	H 	0.4526	0.9721	0.2457	0.036
Mof_H 	H 	0.0279	0.4805	0.2736	0.036
Mof_H 	H 	0.7543	0.7264	0.2069	0.036
Mof_C 	C 	0.7971	0.0898	0.3173	0.058
Mof_C 	C 	0.3756	0.8747	0.1317	-0.135
Mof_C 	C 	0.4124	0.9186	0.2168	0.068
Mof_C 	C 	0.4269	0.9248	0.3465	0.407
Mof_C 	C 	0.388	0.8812	0.2554	-0.129
Mof_C 	C 	0.8674	0.4932	0.612	-0.129
Mof_C 	C 	0.5068	0.3742	0.1188	-0.129
Mof_C 	C 	0.1294	0.2918	0.7576	-0.111
Mof_C 	C 	0.2015	0.5291	0.4128	0.052
Mof_C 	C 	0.5783	0.0804	0.6535	0.407
Mof_C 	C 	0.1188	0.5068	0.3742	-0.129
Mof_C 	C 	0.4419	0.7723	0.854	0.318
Mof_C 	C 	0.0898	0.3173	0.7971	0.058
Mof_C 	C 	0.0919	0.4061	0.9162	0.381
Mof_C 	C 	0.4938	0.2982	0.0814	0.068
Mof_C 	C 	0.6244	0.7561	0.4991	-0.135
Mof_C 	C 	0.8376	0.4658	0.7082	-0.111
Mof_C 	C 	0.4121	0.3304	0.5581	0.318
Mof_C 	C 	0.5101	0.5939	0.6858	0.381
Mof_C 	C 	0.5872	0.1163	0.7887	0.052
Mof_C 	C 	0.5062	0.5876	0.8044	0.068
Mof_C 	C 	0.6696	0.0817	0.2277	0.318
Mof_C 	C 	0.1956	0.7832	0.7018	0.068
Mof_C 	C 	0.6258	0.1326	0.7446	-0.129
Mof_C 	C 	0.5939	0.6858	0.5101	0.381
Mof_C 	C 	0.6724	0.8837	0.4709	0.052
Mof_C 	C 	0.0804	0.6535	0.5783	0.407
Mof_C 	C 	0.6827	0.7725	0.4798	0.058
Mof_C 	C 	0.4128	0.2015	0.5291	0.052
Mof_C 	C 	0.5731	0.9196	0.4979	0.407
Mof_C 	C 	0.9248	0.3465	0.4269	0.407
Mof_C 	C 	0.5021	0.4217	0.0752	0.407
Mof_C 	C 	0.0838	0.4899	0.1757	0.381
Mof_C 	C 	0.4899	0.1757	0.0838	0.381
Mof_C 	C 	0.1253	0.5009	0.257	-0.135
Mof_C 	C 	0.4932	0.612	0.8674	-0.129
Mof_C 	C 	0.9196	0.4979	0.5731	0.407
Mof_C 	C 	0.8683	0.743	0.2439	-0.135
Mof_C 	C 	0.7018	0.1956	0.7832	0.068
Mof_C 	C 	0.2275	0.9102	0.7073	0.058
Mof_C 	C 	0.0814	0.4938	0.2982	0.068
Mof_C 	C 	0.1317	0.3756	0.8747	-0.135
Mof_C 	C 	0.2029	0.5202	0.2927	0.058
Mof_C 	C 	0.5876	0.8044	0.5062	0.068
Mof_C 	C 	0.3142	0.9081	0.8243	0.381
Mof_C 	C 	0.2927	0.2029	0.5202	0.058
Mof_C 	C 	0.3742	0.1188	0.5068	-0.129
Mof_C 	C 	0.2168	0.4124	0.9186	0.068
Mof_C 	C 	0.3304	0.5581	0.4121	0.318
Mof_C 	C 	0.4217	0.0752	0.5021	0.407
Mof_C 	C 	0.9183	0.5879	0.146	0.318
Mof_C 	C 	0.854	0.4419	0.7723	0.318
Mof_C 	C 	0.3465	0.4269	0.9248	0.407
Mof_C 	C 	0.5342	0.3718	0.2424	-0.111
Mof_C 	C 	0.7576	0.1294	0.2918	-0.111
Mof_C 	C 	0.0752	0.5021	0.4217	0.407
Mof_C 	C 	0.8706	0.6282	0.1624	-0.111
Mof_C 	C 	0.4979	0.5731	0.9196	0.407
Mof_C 	C 	0.4709	0.6724	0.8837	0.052
Mof_C 	C 	0.9162	0.0919	0.4061	0.381
Mof_C 	C 	0.2554	0.388	0.8812	-0.129
Mof_C 	C 	0.7723	0.854	0.4419	0.318
Mof_C 	C 	0.8243	0.3142	0.9081	0.381
Mof_C 	C 	0.7725	0.4798	0.6827	0.058
Mof_C 	C 	0.4061	0.9162	0.0919	0.381
Mof_C 	C 	0.9186	0.2168	0.4124	0.068
Mof_C 	C 	0.2918	0.7576	0.1294	-0.111
Mof_C 	C 	0.5291	0.4128	0.2015	0.052
Mof_C 	C 	0.7446	0.6258	0.1326	-0.129
Mof_C 	C 	0.7832	0.7018	0.1956	0.068
Mof_C 	C 	0.1163	0.7887	0.5872	0.052
Mof_C 	C 	0.6535	0.5783	0.0804	0.407
Mof_C 	C 	0.2113	0.3276	0.7985	0.052
Mof_C 	C 	0.6858	0.5101	0.5939	0.381
Mof_C 	C 	0.743	0.2439	0.8683	-0.135
Mof_C 	C 	0.5879	0.146	0.9183	0.318
Mof_C 	C 	0.5009	0.257	0.1253	-0.135
Mof_C 	C 	0.9102	0.7073	0.2275	0.058
Mof_C 	C 	0.257	0.1253	0.5009	-0.135
Mof_C 	C 	0.7887	0.5872	0.1163	0.052
Mof_C 	C 	0.4658	0.7082	0.8376	-0.111
Mof_C 	C 	0.3276	0.7985	0.2113	0.052
Mof_C 	C 	0.2277	0.6696	0.0817	0.318
Mof_C 	C 	0.2439	0.8683	0.743	-0.135
Mof_C 	C 	0.5202	0.2927	0.2029	0.058
Mof_C 	C 	0.8812	0.2554	0.388	-0.129
Mof_C 	C 	0.4991	0.6244	0.7561	-0.135
Mof_C 	C 	0.146	0.9183	0.5879	0.318
Mof_C 	C 	0.7082	0.8376	0.4658	-0.111
Mof_C 	C 	0.2982	0.0814	0.4938	0.068
Mof_C 	C 	0.1326	0.7446	0.6258	-0.129
Mof_C 	C 	0.7985	0.2113	0.3276	0.052
Mof_C 	C 	0.3173	0.7971	0.0898	0.058
Mof_C 	C 	0.8044	0.5062	0.5876	0.068
Mof_C 	C 	0.5581	0.4121	0.3304	0.318
Mof_C 	C 	0.2424	0.5342	0.3718	-0.111
Mof_C 	C 	0.4798	0.6827	0.7725	0.058
Mof_C 	C 	0.1624	0.8706	0.6282	-0.111
Mof_C 	C 	0.0817	0.2277	0.6696	0.318
Mof_C 	C 	0.612	0.8674	0.4932	-0.129
Mof_C 	C 	0.7561	0.4991	0.6244	-0.135
Mof_C 	C 	0.3718	0.2424	0.5342	-0.111
Mof_C 	C 	0.7073	0.2275	0.9102	0.058
Mof_C 	C 	0.8747	0.1317	0.3756	-0.135
Mof_C 	C 	0.8837	0.4709	0.6724	0.052
Mof_C 	C 	0.1757	0.0838	0.4899	0.381
Mof_C 	C 	0.9081	0.8243	0.3142	0.381
Mof_C 	C 	0.6282	0.1624	0.8706	-0.111
Mof_O 	O 	0.9826	0.855	0.3636	-0.507
Mof_O 	O 	0.6346	0.0054	0.1922	-0.334
Mof_O 	O 	0.0237	0.6209	0.51	-0.472
Mof_O 	O 	0.4842	0.9968	0.3826	-0.478
Mof_O 	O 	0.8132	0.4424	0.8078	-0.333
Mof_O 	O 	0.8984	0.5126	0.5158	-0.478
Mof_O 	O 	0.6776	0.5359	0.5449	-0.509
Mof_O 	O 	0.9126	0.4303	0.7897	-0.47
Mof_O 	O 	0.5177	0.0874	0.8771	-0.47
Mof_O 	O 	0.381	0.8724	0.0174	-0.507
Mof_O 	O 	0.1109	0.5137	0.49	-0.472
Mof_O 	O 	0.1417	0.009	0.4641	-0.509
Mof_O 	O 	0.5576	0.3708	0.3654	-0.333
Mof_O 	O 	0.4303	0.7897	0.9126	-0.47
Mof_O 	O 	0.855	0.3636	0.9826	-0.507
Mof_O 	O 	0.0874	0.8771	0.5177	-0.47
Mof_O 	O 	0.3858	0.0032	0.4874	-0.478
Mof_O 	O 	0.5126	0.5158	0.8984	-0.478
Mof_O 	O 	0.145	0.1276	0.5086	-0.507
Mof_O 	O 	0.8078	0.8132	0.4424	-0.333
Mof_O 	O 	0.49	0.1109	0.5137	-0.472
Mof_O 	O 	0.6292	0.1868	0.9946	-0.333
Mof_O 	O 	0.1327	0.4551	0.991	-0.509
Mof_O 	O 	0.9946	0.6292	0.1868	-0.333
Mof_O 	O 	0.1016	0.6174	0.6142	-0.478
Mof_O 	O 	0.4914	0.619	0.6364	-0.507
Mof_O 	O 	0.1922	0.6346	0.0054	-0.334
Mof_O 	O 	0.8583	0.3224	0.8673	-0.509
Mof_O 	O 	0.7897	0.9126	0.4303	-0.47
Mof_O 	O 	0.0054	0.1922	0.6346	-0.334
Mof_O 	O 	0.2103	0.6406	0.1229	-0.47
Mof_O 	O 	0.619	0.6364	0.4914	-0.507
Mof_O 	O 	0.5449	0.6776	0.5359	-0.509
Mof_O 	O 	0.1868	0.9946	0.6292	-0.333
Mof_O 	O 	0.8724	0.0174	0.381	-0.507
Mof_O 	O 	0.5158	0.8984	0.5126	-0.478
Mof_O 	O 	0.4551	0.991	0.1327	-0.509
Mof_O 	O 	0.3708	0.3654	0.5576	-0.333
Mof_O 	O 	0.9763	0.4863	0.5972	-0.472
Mof_O 	O 	0.6364	0.4914	0.619	-0.507
Mof_O 	O 	0.991	0.1327	0.4551	-0.509
Mof_O 	O 	0.1229	0.2103	0.6406	-0.47
Mof_O 	O 	0.5359	0.5449	0.6776	-0.509
Mof_O 	O 	0.6174	0.6142	0.1016	-0.478
Mof_O 	O 	0.3826	0.4842	0.9968	-0.478
Mof_O 	O 	0.6406	0.1229	0.2103	-0.47
Mof_O 	O 	0.5972	0.9763	0.4863	-0.472
Mof_O 	O 	0.3594	0.5697	0.4823	-0.47
Mof_O 	O 	0.5697	0.4823	0.3594	-0.47
Mof_O 	O 	0.3654	0.5576	0.3708	-0.333
Mof_O 	O 	0.0174	0.381	0.8724	-0.507
Mof_O 	O 	0.5086	0.145	0.1276	-0.507
Mof_O 	O 	0.8891	0.3791	0.4028	-0.472
Mof_O 	O 	0.4863	0.5972	0.9763	-0.472
Mof_O 	O 	0.51	0.0237	0.6209	-0.472
Mof_O 	O 	0.009	0.4641	0.1417	-0.509
Mof_O 	O 	0.6142	0.1016	0.6174	-0.478
Mof_O 	O 	0.4823	0.3594	0.5697	-0.47
Mof_O 	O 	0.4641	0.1417	0.009	-0.509
Mof_O 	O 	0.4874	0.3858	0.0032	-0.478
Mof_O 	O 	0.8771	0.5177	0.0874	-0.47
Mof_O 	O 	0.8673	0.8583	0.3224	-0.509
Mof_O 	O 	0.0032	0.4874	0.3858	-0.478
Mof_O 	O 	0.3791	0.4028	0.8891	-0.472
Mof_O 	O 	0.5137	0.49	0.1109	-0.472
Mof_O 	O 	0.9968	0.3826	0.4842	-0.478
Mof_O 	O 	0.1276	0.5086	0.145	-0.507
Mof_O 	O 	0.3224	0.8673	0.8583	-0.509
Mof_O 	O 	0.6209	0.51	0.0237	-0.472
Mof_O 	O 	0.4028	0.8891	0.3791	-0.472
Mof_O 	O 	0.4424	0.8078	0.8132	-0.333
Mof_O 	O 	0.3636	0.9826	0.855	-0.507
_end
