data_functionalizedCrystal
_audit_creation_method	'EQeq! by Chris Wilmer'
_symmetry_space_group_name_H-M	'P1'
_symmetry_Int_Tables_number	1
_symmetry_cell_setting	triclinic
loop_
_symmetry_equiv_pos_as_xyz
  x,y,z
_cell_length_a	13.7352
_cell_length_b	17.888
_cell_length_c	11.0251
_cell_angle_alpha	90
_cell_angle_beta	100.46
_cell_angle_gamma	90
loop_
_atom_site_label
_atom_site_type_symbol
_atom_site_fract_x
_atom_site_fract_y
_atom_site_fract_z
_atom_site_charge
Mof_Cu	Cu	0.49891	0.49882	0.47005	0.523
Mof_O 	O 	0.612	0.43428	0.5508	-0.435
Mof_O 	O 	0.6681	0.4248	0.3727	-0.309
Mof_C 	C 	0.6735	0.4122	0.4842	0.35
Mof_C 	C 	0.76075	0.36768	0.5542	-0.141
Mof_C 	C 	0.8226	0.3295	0.48877	0.09
Mof_H 	H 	0.8123	0.3329	0.4032	0.009
Mof_C 	C 	0.8998	0.28622	0.5512	-0.195
Mof_H 	H 	0.9412	0.2607	0.5074	0.092
Mof_C 	C 	0.91517	0.28113	0.679	0.162
Mof_C 	C 	0.8533	0.31932	0.7445	-0.193
Mof_H 	H 	0.8636	0.3159	0.83	0.1
Mof_C 	C 	0.77611	0.3626	0.6821	0.089
Mof_H 	H 	0.7347	0.3881	0.7259	0.014
Mof_N 	N 	0.4078	0.40958	0.4981	-0.231
Mof_H 	H 	0.0259	0.2	0.6921	0.124
Mof_C 	C 	0.323	0.4024	0.4173	0.066
Mof_H 	H 	0.3051	0.4403	0.3599	0.014
Mof_C 	C 	0.2599	0.3411	0.4146	-0.121
Mof_H 	H 	0.2025	0.3387	0.3553	0.076
Mof_C 	C 	0.2822	0.28323	0.5003	0.044
Mof_C 	C 	0.3705	0.2917	0.5855	-0.126
Mof_H 	H 	0.3895	0.2553	0.6455	0.069
Mof_C 	C 	0.43	0.3543	0.5807	0.061
Mof_H 	H 	0.4885	0.358	0.6381	-0.003
Mof_Cu	Cu	0.99891	0.99882	0.47005	0.493
Mof_O 	O 	0.112	0.93428	0.5508	-0.429
Mof_O 	O 	0.1681	0.9248	0.3727	-0.306
Mof_C 	C 	0.1735	0.9122	0.4842	0.357
Mof_C 	C 	0.26075	0.86768	0.5542	-0.157
Mof_C 	C 	0.3226	0.8295	0.48877	0.117
Mof_H 	H 	0.3123	0.8329	0.4032	0.001
Mof_C 	C 	0.3998	0.78622	0.5512	-0.23
Mof_H 	H 	0.4412	0.7607	0.5074	0.111
Mof_C 	C 	0.41517	0.78113	0.679	0.216
Mof_C 	C 	0.3533	0.81932	0.7445	-0.228
Mof_H 	H 	0.3636	0.8159	0.83	0.117
Mof_C 	C 	0.27611	0.8626	0.6821	0.116
Mof_H 	H 	0.2347	0.8881	0.7259	0.007
Mof_N 	N 	0.9078	0.90958	0.4981	-0.234
Mof_H 	H 	0.5259	0.7	0.6921	0.144
Mof_C 	C 	0.823	0.9024	0.4173	0.066
Mof_H 	H 	0.8051	0.9403	0.3599	0.012
Mof_C 	C 	0.7599	0.8411	0.4146	-0.122
Mof_H 	H 	0.7025	0.8387	0.3553	0.074
Mof_C 	C 	0.7822	0.78323	0.5003	0.044
Mof_C 	C 	0.8705	0.7917	0.5855	-0.128
Mof_H 	H 	0.8895	0.7553	0.6455	0.066
Mof_C 	C 	0.93	0.8543	0.5807	0.06
Mof_H 	H 	0.9885	0.858	0.6381	-0.011
Mof_Cu	Cu	0.50109	0.49882	0.02995	0.521
Mof_O 	O 	0.388	0.43428	0.9492	-0.435
Mof_O 	O 	0.3319	0.4248	0.1273	-0.308
Mof_C 	C 	0.3265	0.4122	0.0158	0.353
Mof_C 	C 	0.23925	0.36768	0.9458	-0.147
Mof_C 	C 	0.1774	0.3295	0.01123	0.104
Mof_H 	H 	0.1877	0.3329	0.0968	0.007
Mof_C 	C 	0.1002	0.28622	0.9488	-0.207
Mof_H 	H 	0.0588	0.2607	0.9926	0.11
Mof_C 	C 	0.08483	0.28113	0.821	0.189
Mof_C 	C 	0.1467	0.31932	0.7555	-0.206
Mof_H 	H 	0.1364	0.3159	0.67	0.111
Mof_C 	C 	0.22389	0.3626	0.8179	0.102
Mof_H 	H 	0.2653	0.3881	0.7741	0.011
Mof_N 	N 	0.5922	0.40958	0.0019	-0.23
Mof_H 	H 	0.9741	0.2	0.8079	0.105
Mof_C 	C 	0.677	0.4024	0.0827	0.062
Mof_H 	H 	0.6949	0.4403	0.1401	0.013
Mof_C 	C 	0.7401	0.3411	0.0854	-0.117
Mof_H 	H 	0.7975	0.3387	0.1447	0.071
Mof_C 	C 	0.7178	0.28323	0.9997	0.038
Mof_C 	C 	0.6295	0.2917	0.9145	-0.123
Mof_H 	H 	0.6105	0.2553	0.8545	0.068
Mof_C 	C 	0.57	0.3543	0.9193	0.059
Mof_H 	H 	0.5115	0.358	0.8619	-0.002
Mof_Cu	Cu	0.00109	0.99882	0.02995	0.549
Mof_O 	O 	0.888	0.93428	0.9492	-0.437
Mof_O 	O 	0.8319	0.9248	0.1273	-0.311
Mof_C 	C 	0.8265	0.9122	0.0158	0.347
Mof_C 	C 	0.73925	0.86768	0.9458	-0.145
Mof_C 	C 	0.6774	0.8295	0.01123	0.101
Mof_H 	H 	0.6877	0.8329	0.0968	0.006
Mof_C 	C 	0.6002	0.78622	0.9488	-0.218
Mof_H 	H 	0.5588	0.7607	0.9926	0.108
Mof_C 	C 	0.58483	0.78113	0.821	0.21
Mof_C 	C 	0.6467	0.81932	0.7555	-0.221
Mof_H 	H 	0.6364	0.8159	0.67	0.114
Mof_C 	C 	0.72389	0.8626	0.8179	0.106
Mof_H 	H 	0.7653	0.8881	0.7741	0.008
Mof_N 	N 	0.0922	0.90958	0.0019	-0.231
Mof_H 	H 	0.4741	0.7	0.8079	0.144
Mof_C 	C 	0.177	0.9024	0.0827	0.071
Mof_H 	H 	0.1949	0.9403	0.1401	0.012
Mof_C 	C 	0.2401	0.8411	0.0854	-0.131
Mof_H 	H 	0.2975	0.8387	0.1447	0.078
Mof_C 	C 	0.2178	0.78323	0.9997	0.057
Mof_C 	C 	0.1295	0.7917	0.9145	-0.132
Mof_H 	H 	0.1105	0.7553	0.8545	0.075
Mof_C 	C 	0.07	0.8543	0.9193	0.072
Mof_H 	H 	0.0115	0.858	0.8619	0.003
Mof_Cu	Cu	0.50109	0.50118	0.52995	0.522
Mof_O 	O 	0.388	0.56572	0.4492	-0.435
Mof_O 	O 	0.3319	0.5752	0.6273	-0.309
Mof_C 	C 	0.3265	0.5878	0.5158	0.354
Mof_C 	C 	0.23925	0.63232	0.4458	-0.148
Mof_C 	C 	0.1774	0.6705	0.51123	0.105
Mof_H 	H 	0.1877	0.6671	0.5968	0.007
Mof_C 	C 	0.1002	0.71378	0.4488	-0.209
Mof_H 	H 	0.0588	0.7393	0.4926	0.111
Mof_C 	C 	0.08483	0.71887	0.321	0.19
Mof_C 	C 	0.1467	0.68068	0.2555	-0.207
Mof_H 	H 	0.1364	0.6841	0.17	0.111
Mof_C 	C 	0.22389	0.6374	0.3179	0.103
Mof_H 	H 	0.2653	0.6119	0.2741	0.01
Mof_N 	N 	0.5922	0.59042	0.5019	-0.231
Mof_H 	H 	0.9741	0.8	0.3079	0.106
Mof_C 	C 	0.677	0.5976	0.5827	0.064
Mof_H 	H 	0.6949	0.5597	0.6401	0.013
Mof_C 	C 	0.7401	0.6589	0.5854	-0.12
Mof_H 	H 	0.7975	0.6613	0.6447	0.072
Mof_C 	C 	0.7178	0.71677	0.4997	0.042
Mof_C 	C 	0.6295	0.7083	0.4145	-0.125
Mof_H 	H 	0.6105	0.7447	0.3545	0.069
Mof_C 	C 	0.57	0.6457	0.4193	0.06
Mof_H 	H 	0.5115	0.642	0.3619	-0.003
Mof_Cu	Cu	0.00109	0.00118	0.52995	0.55
Mof_O 	O 	0.888	0.06572	0.4492	-0.442
Mof_O 	O 	0.8319	0.0752	0.6273	-0.313
Mof_C 	C 	0.8265	0.0878	0.5158	0.357
Mof_C 	C 	0.73925	0.13232	0.4458	-0.16
Mof_C 	C 	0.6774	0.1705	0.51123	0.119
Mof_H 	H 	0.6877	0.1671	0.5968	0
Mof_C 	C 	0.6002	0.21378	0.4488	-0.232
Mof_H 	H 	0.5588	0.2393	0.4926	0.112
Mof_C 	C 	0.58483	0.21887	0.321	0.217
Mof_C 	C 	0.6467	0.18068	0.2555	-0.23
Mof_H 	H 	0.6364	0.1841	0.17	0.117
Mof_C 	C 	0.72389	0.1374	0.3179	0.117
Mof_H 	H 	0.7653	0.1119	0.2741	0.004
Mof_N 	N 	0.0922	0.09042	0.5019	-0.227
Mof_H 	H 	0.4741	0.3	0.3079	0.144
Mof_C 	C 	0.177	0.0976	0.5827	0.066
Mof_H 	H 	0.1949	0.0597	0.6401	0.014
Mof_C 	C 	0.2401	0.1589	0.5854	-0.12
Mof_H 	H 	0.2975	0.1613	0.6447	0.074
Mof_C 	C 	0.2178	0.21677	0.4997	0.044
Mof_C 	C 	0.1295	0.2083	0.4145	-0.123
Mof_H 	H 	0.1105	0.2447	0.3545	0.072
Mof_C 	C 	0.07	0.1457	0.4193	0.063
Mof_H 	H 	0.0115	0.142	0.3619	0.006
Mof_Cu	Cu	0.49891	0.50118	0.97005	0.522
Mof_O 	O 	0.612	0.56572	0.0508	-0.437
Mof_O 	O 	0.6681	0.5752	0.8727	-0.31
Mof_C 	C 	0.6735	0.5878	0.9842	0.355
Mof_C 	C 	0.76075	0.63232	0.0542	-0.149
Mof_C 	C 	0.8226	0.6705	0.98877	0.1
Mof_H 	H 	0.8123	0.6671	0.9032	0.006
Mof_C 	C 	0.8998	0.71378	0.0512	-0.203
Mof_H 	H 	0.9412	0.7393	0.0074	0.094
Mof_C 	C 	0.91517	0.71887	0.179	0.166
Mof_C 	C 	0.8533	0.68068	0.2445	-0.198
Mof_H 	H 	0.8636	0.6841	0.33	0.102
Mof_C 	C 	0.77611	0.6374	0.1821	0.095
Mof_H 	H 	0.7347	0.6119	0.2259	0.012
Mof_N 	N 	0.4078	0.59042	0.9981	-0.228
Mof_H 	H 	0.0259	0.8	0.1921	0.125
Mof_C 	C 	0.323	0.5976	0.9173	0.061
Mof_H 	H 	0.3051	0.5597	0.8599	0.015
Mof_C 	C 	0.2599	0.6589	0.9146	-0.111
Mof_H 	H 	0.2025	0.6613	0.8553	0.073
Mof_C 	C 	0.2822	0.71677	0.0003	0.032
Mof_C 	C 	0.3705	0.7083	0.0855	-0.119
Mof_H 	H 	0.3895	0.7447	0.1455	0.066
Mof_C 	C 	0.43	0.6457	0.0807	0.056
Mof_H 	H 	0.4885	0.642	0.1381	-0.001
Mof_Cu	Cu	0.99891	0.00118	0.97005	0.493
Mof_O 	O 	0.112	0.06572	0.0508	-0.427
Mof_O 	O 	0.1681	0.0752	0.8727	-0.305
Mof_C 	C 	0.1735	0.0878	0.9842	0.351
Mof_C 	C 	0.26075	0.13232	0.0542	-0.151
Mof_C 	C 	0.3226	0.1705	0.98877	0.109
Mof_H 	H 	0.3123	0.1671	0.9032	0.004
Mof_C 	C 	0.3998	0.21378	0.0512	-0.225
Mof_H 	H 	0.4412	0.2393	0.0074	0.11
Mof_C 	C 	0.41517	0.21887	0.179	0.214
Mof_C 	C 	0.3533	0.18068	0.2445	-0.225
Mof_H 	H 	0.3636	0.1841	0.33	0.115
Mof_C 	C 	0.27611	0.1374	0.1821	0.111
Mof_H 	H 	0.2347	0.1119	0.2259	0.008
Mof_N 	N 	0.9078	0.09042	0.9981	-0.237
Mof_H 	H 	0.5259	0.3	0.1921	0.144
Mof_C 	C 	0.823	0.0976	0.9173	0.068
Mof_H 	H 	0.8051	0.0597	0.8599	0.011
Mof_C 	C 	0.7599	0.1589	0.9146	-0.127
Mof_H 	H 	0.7025	0.1613	0.8553	0.076
Mof_C 	C 	0.7822	0.21677	0.0003	0.05
Mof_C 	C 	0.8705	0.2083	0.0855	-0.132
Mof_H 	H 	0.8895	0.2447	0.1455	0.068
Mof_C 	C 	0.93	0.1457	0.0807	0.065
Mof_H 	H 	0.9885	0.142	0.1381	-0.012
Mof_C 	C 	-2.13392e-17	0.2319	0.75	-0.287
Mof_C 	C 	0.5	0.7319	0.75	-0.375
Mof_C 	C 	8.88998e-34	0.7681	0.25	-0.29
Mof_C 	C 	0.5	0.2681	0.25	-0.378
_end
