# CIF file generated by openbabel 3.1.0, see https://openbabel.org
data_I
_chemical_name_common 'image0'
_cell_length_a 21.9314
_cell_length_b 21.9314
_cell_length_c 16.7059
_cell_angle_alpha 90
_cell_angle_beta 90
_cell_angle_gamma 90
_space_group_name_H-M_alt 'P 1'
_space_group_name_Hall 'P 1'
loop_
    _symmetry_equiv_pos_as_xyz
    x,y,z
loop_
    _atom_site_label
    _atom_site_type_symbol
    _atom_site_fract_x
    _atom_site_fract_y
    _atom_site_fract_z
    _atom_site_occupancy
    Pr1      Pr       0.60950    0.57456    0.61564    1.000
    O1       O        0.64070    0.49910    0.51080    1.000
    O2       O        0.63640    0.68430    0.60910    1.000
    O3       O        0.67340    0.76670    0.54970    1.000
    O4       O        0.68090    0.47170    0.39400    1.000
    C1       C        0.68310    0.67170    0.48380    1.000
    C2       C        0.71700    0.69520    0.42090    1.000
    H1       H        0.72780    0.73610    0.41900    1.000
    C3       C        0.73430    0.65460    0.36030    1.000
    H2       H        0.75680    0.66840    0.31670    1.000
    C4       C        0.71790    0.59430    0.36570    1.000
    H3       H        0.72820    0.56680    0.32550    1.000
    C5       C        0.68610    0.57550    0.43170    1.000
    C6       C        0.66750    0.51030    0.44560    1.000
    C7       C        0.66330    0.71100    0.55230    1.000
    N1       N        0.66790    0.61380    0.48930    1.000
    Pr2      Pr       0.10950    0.07456    0.11564    1.000
    O5       O        0.14070    0.99910    0.01080    1.000
    O6       O        0.13640    0.18430    0.10910    1.000
    O7       O        0.17340    0.26670    0.04970    1.000
    O8       O        0.18090    0.97170    0.89400    1.000
    C8       C        0.18310    0.17170    0.98380    1.000
    C9       C        0.21700    0.19520    0.92090    1.000
    H4       H        0.22780    0.23610    0.91900    1.000
    C10      C        0.23430    0.15460    0.86030    1.000
    H5       H        0.25680    0.16840    0.81670    1.000
    C11      C        0.21790    0.09430    0.86570    1.000
    H6       H        0.22820    0.06680    0.82550    1.000
    C12      C        0.18610    0.07550    0.93170    1.000
    C13      C        0.16750    0.01030    0.94560    1.000
    C14      C        0.16330    0.21100    0.05230    1.000
    N2       N        0.16790    0.11380    0.98930    1.000
    Pr3      Pr       0.89050    0.42544    0.11564    1.000
    O9       O        0.85930    0.50090    0.01080    1.000
    O10      O        0.86360    0.31570    0.10910    1.000
    O11      O        0.82660    0.23330    0.04970    1.000
    O12      O        0.81910    0.52830    0.89400    1.000
    C15      C        0.81690    0.32830    0.98380    1.000
    C16      C        0.78300    0.30480    0.92090    1.000
    H7       H        0.77220    0.26390    0.91900    1.000
    C17      C        0.76570    0.34540    0.86030    1.000
    H8       H        0.74320    0.33160    0.81670    1.000
    C18      C        0.78210    0.40570    0.86570    1.000
    H9       H        0.77180    0.43320    0.82550    1.000
    C19      C        0.81390    0.42450    0.93170    1.000
    C20      C        0.83250    0.48970    0.94560    1.000
    C21      C        0.83670    0.28900    0.05230    1.000
    N3       N        0.83210    0.38620    0.98930    1.000
    Pr4      Pr       0.39050    0.92544    0.61564    1.000
    O13      O        0.35930    0.00090    0.51080    1.000
    O14      O        0.36360    0.81570    0.60910    1.000
    O15      O        0.32660    0.73330    0.54970    1.000
    O16      O        0.31910    0.02830    0.39400    1.000
    C22      C        0.31690    0.82830    0.48380    1.000
    C23      C        0.28300    0.80480    0.42090    1.000
    H10      H        0.27220    0.76390    0.41900    1.000
    C24      C        0.26570    0.84540    0.36030    1.000
    H11      H        0.24320    0.83160    0.31670    1.000
    C25      C        0.28210    0.90570    0.36570    1.000
    H12      H        0.27180    0.93320    0.32550    1.000
    C26      C        0.31390    0.92450    0.43170    1.000
    C27      C        0.33250    0.98970    0.44560    1.000
    C28      C        0.33670    0.78900    0.55230    1.000
    N4       N        0.33210    0.88620    0.48930    1.000
    Pr5      Pr       0.17544    0.85950    0.86564    1.000
    O17      O        0.25090    0.89070    0.76080    1.000
    O18      O        0.06570    0.88640    0.85910    1.000
    O19      O        0.98330    0.92340    0.79970    1.000
    O20      O        0.27830    0.93090    0.64400    1.000
    C29      C        0.07830    0.93310    0.73380    1.000
    C30      C        0.05480    0.96700    0.67090    1.000
    H13      H        0.01390    0.97780    0.66900    1.000
    C31      C        0.09540    0.98430    0.61030    1.000
    H14      H        0.08160    0.00680    0.56670    1.000
    C32      C        0.15570    0.96790    0.61570    1.000
    H15      H        0.18320    0.97820    0.57550    1.000
    C33      C        0.17450    0.93610    0.68170    1.000
    C34      C        0.23970    0.91750    0.69560    1.000
    C35      C        0.03900    0.91330    0.80230    1.000
    N5       N        0.13620    0.91790    0.73930    1.000
    Pr6      Pr       0.67544    0.35950    0.36564    1.000
    O21      O        0.75090    0.39070    0.26080    1.000
    O22      O        0.56570    0.38640    0.35910    1.000
    O23      O        0.48330    0.42340    0.29970    1.000
    O24      O        0.77830    0.43090    0.14400    1.000
    C36      C        0.57830    0.43310    0.23380    1.000
    C37      C        0.55480    0.46700    0.17090    1.000
    H16      H        0.51390    0.47780    0.16900    1.000
    C38      C        0.59540    0.48430    0.11030    1.000
    H17      H        0.58160    0.50680    0.06670    1.000
    C39      C        0.65570    0.46790    0.11570    1.000
    H18      H        0.68320    0.47820    0.07550    1.000
    C40      C        0.67450    0.43610    0.18170    1.000
    C41      C        0.73970    0.41750    0.19560    1.000
    C42      C        0.53900    0.41330    0.30230    1.000
    N6       N        0.63620    0.41790    0.23930    1.000
    Pr7      Pr       0.32456    0.14050    0.36564    1.000
    O25      O        0.24910    0.10930    0.26080    1.000
    O26      O        0.43430    0.11360    0.35910    1.000
    O27      O        0.51670    0.07660    0.29970    1.000
    O28      O        0.22170    0.06910    0.14400    1.000
    C43      C        0.42170    0.06690    0.23380    1.000
    C44      C        0.44520    0.03300    0.17090    1.000
    H19      H        0.48610    0.02220    0.16900    1.000
    C45      C        0.40460    0.01570    0.11030    1.000
    H20      H        0.41840    0.99320    0.06670    1.000
    C46      C        0.34430    0.03210    0.11570    1.000
    H21      H        0.31680    0.02180    0.07550    1.000
    C47      C        0.32550    0.06390    0.18170    1.000
    C48      C        0.26030    0.08250    0.19560    1.000
    C49      C        0.46100    0.08670    0.30230    1.000
    N7       N        0.36380    0.08210    0.23930    1.000
    Pr8      Pr       0.82456    0.64050    0.86564    1.000
    O29      O        0.74910    0.60930    0.76080    1.000
    O30      O        0.93430    0.61360    0.85910    1.000
    O31      O        0.01670    0.57660    0.79970    1.000
    O32      O        0.72170    0.56910    0.64400    1.000
    C50      C        0.92170    0.56690    0.73380    1.000
    C51      C        0.94520    0.53300    0.67090    1.000
    H22      H        0.98610    0.52220    0.66900    1.000
    C52      C        0.90460    0.51570    0.61030    1.000
    H23      H        0.91840    0.49320    0.56670    1.000
    C53      C        0.84430    0.53210    0.61570    1.000
    H24      H        0.81680    0.52180    0.57550    1.000
    C54      C        0.82550    0.56390    0.68170    1.000
    C55      C        0.76030    0.58250    0.69560    1.000
    C56      C        0.96100    0.58670    0.80230    1.000
    N8       N        0.86380    0.58210    0.73930    1.000
    Pr9      Pr       0.39050    0.42544    0.38436    1.000
    O33      O        0.35930    0.50090    0.48920    1.000
    O34      O        0.36360    0.31570    0.39090    1.000
    O35      O        0.32660    0.23330    0.45030    1.000
    O36      O        0.31910    0.52830    0.60600    1.000
    C57      C        0.31690    0.32830    0.51620    1.000
    C58      C        0.28300    0.30480    0.57910    1.000
    H25      H        0.27220    0.26390    0.58100    1.000
    C59      C        0.26570    0.34540    0.63970    1.000
    H26      H        0.24320    0.33160    0.68330    1.000
    C60      C        0.28210    0.40570    0.63430    1.000
    H27      H        0.27180    0.43320    0.67450    1.000
    C61      C        0.31390    0.42450    0.56830    1.000
    C62      C        0.33250    0.48970    0.55440    1.000
    C63      C        0.33670    0.28900    0.44770    1.000
    N9       N        0.33210    0.38620    0.51070    1.000
    Pr10     Pr       0.89050    0.92544    0.88436    1.000
    O37      O        0.85930    0.00090    0.98920    1.000
    O38      O        0.86360    0.81570    0.89090    1.000
    O39      O        0.82660    0.73330    0.95030    1.000
    O40      O        0.81910    0.02830    0.10600    1.000
    C64      C        0.81690    0.82830    0.01620    1.000
    C65      C        0.78300    0.80480    0.07910    1.000
    H28      H        0.77220    0.76390    0.08100    1.000
    C66      C        0.76570    0.84540    0.13970    1.000
    H29      H        0.74320    0.83160    0.18330    1.000
    C67      C        0.78210    0.90570    0.13430    1.000
    H30      H        0.77180    0.93320    0.17450    1.000
    C68      C        0.81390    0.92450    0.06830    1.000
    C69      C        0.83250    0.98970    0.05440    1.000
    C70      C        0.83670    0.78900    0.94770    1.000
    N10      N        0.83210    0.88620    0.01070    1.000
    Pr11     Pr       0.10950    0.57456    0.88436    1.000
    O41      O        0.14070    0.49910    0.98920    1.000
    O42      O        0.13640    0.68430    0.89090    1.000
    O43      O        0.17340    0.76670    0.95030    1.000
    O44      O        0.18090    0.47170    0.10600    1.000
    C71      C        0.18310    0.67170    0.01620    1.000
    C72      C        0.21700    0.69520    0.07910    1.000
    H31      H        0.22780    0.73610    0.08100    1.000
    C73      C        0.23430    0.65460    0.13970    1.000
    H32      H        0.25680    0.66840    0.18330    1.000
    C74      C        0.21790    0.59430    0.13430    1.000
    H33      H        0.22820    0.56680    0.17450    1.000
    C75      C        0.18610    0.57550    0.06830    1.000
    C76      C        0.16750    0.51030    0.05440    1.000
    C77      C        0.16330    0.71100    0.94770    1.000
    N11      N        0.16790    0.61380    0.01070    1.000
    Pr12     Pr       0.60950    0.07456    0.38436    1.000
    O45      O        0.64070    0.99910    0.48920    1.000
    O46      O        0.63640    0.18430    0.39090    1.000
    O47      O        0.67340    0.26670    0.45030    1.000
    O48      O        0.68090    0.97170    0.60600    1.000
    C78      C        0.68310    0.17170    0.51620    1.000
    C79      C        0.71700    0.19520    0.57910    1.000
    H34      H        0.72780    0.23610    0.58100    1.000
    C80      C        0.73430    0.15460    0.63970    1.000
    H35      H        0.75680    0.16840    0.68330    1.000
    C81      C        0.71790    0.09430    0.63430    1.000
    H36      H        0.72820    0.06680    0.67450    1.000
    C82      C        0.68610    0.07550    0.56830    1.000
    C83      C        0.66750    0.01030    0.55440    1.000
    C84      C        0.66330    0.21100    0.44770    1.000
    N12      N        0.66790    0.11380    0.51070    1.000
    Pr13     Pr       0.82456    0.14050    0.13436    1.000
    O49      O        0.74910    0.10930    0.23920    1.000
    O50      O        0.93430    0.11360    0.14090    1.000
    O51      O        0.01670    0.07660    0.20030    1.000
    O52      O        0.72170    0.06910    0.35600    1.000
    C85      C        0.92170    0.06690    0.26620    1.000
    C86      C        0.94520    0.03300    0.32910    1.000
    H37      H        0.98610    0.02220    0.33100    1.000
    C87      C        0.90460    0.01570    0.38970    1.000
    H38      H        0.91840    0.99320    0.43330    1.000
    C88      C        0.84430    0.03210    0.38430    1.000
    H39      H        0.81680    0.02180    0.42450    1.000
    C89      C        0.82550    0.06390    0.31830    1.000
    C90      C        0.76030    0.08250    0.30440    1.000
    C91      C        0.96100    0.08670    0.19770    1.000
    N13      N        0.86380    0.08210    0.26070    1.000
    Pr14     Pr       0.32456    0.64050    0.63436    1.000
    O53      O        0.24910    0.60930    0.73920    1.000
    O54      O        0.43430    0.61360    0.64090    1.000
    O55      O        0.51670    0.57660    0.70030    1.000
    O56      O        0.22170    0.56910    0.85600    1.000
    C92      C        0.42170    0.56690    0.76620    1.000
    C93      C        0.44520    0.53300    0.82910    1.000
    H40      H        0.48610    0.52220    0.83100    1.000
    C94      C        0.40460    0.51570    0.88970    1.000
    H41      H        0.41840    0.49320    0.93330    1.000
    C95      C        0.34430    0.53210    0.88430    1.000
    H42      H        0.31680    0.52180    0.92450    1.000
    C96      C        0.32550    0.56390    0.81830    1.000
    C97      C        0.26030    0.58250    0.80440    1.000
    C98      C        0.46100    0.58670    0.69770    1.000
    N14      N        0.36380    0.58210    0.76070    1.000
    Pr15     Pr       0.67544    0.85950    0.63436    1.000
    O57      O        0.75090    0.89070    0.73920    1.000
    O58      O        0.56570    0.88640    0.64090    1.000
    O59      O        0.48330    0.92340    0.70030    1.000
    O60      O        0.77830    0.93090    0.85600    1.000
    C99      C        0.57830    0.93310    0.76620    1.000
    C100     C        0.55480    0.96700    0.82910    1.000
    H43      H        0.51390    0.97780    0.83100    1.000
    C101     C        0.59540    0.98430    0.88970    1.000
    H44      H        0.58160    0.00680    0.93330    1.000
    C102     C        0.65570    0.96790    0.88430    1.000
    H45      H        0.68320    0.97820    0.92450    1.000
    C103     C        0.67450    0.93610    0.81830    1.000
    C104     C        0.73970    0.91750    0.80440    1.000
    C105     C        0.53900    0.91330    0.69770    1.000
    N15      N        0.63620    0.91790    0.76070    1.000
    Pr16     Pr       0.17544    0.35950    0.13436    1.000
    O61      O        0.25090    0.39070    0.23920    1.000
    O62      O        0.06570    0.38640    0.14090    1.000
    O63      O        0.98330    0.42340    0.20030    1.000
    O64      O        0.27830    0.43090    0.35600    1.000
    C106     C        0.07830    0.43310    0.26620    1.000
    C107     C        0.05480    0.46700    0.32910    1.000
    H46      H        0.01390    0.47780    0.33100    1.000
    C108     C        0.09540    0.48430    0.38970    1.000
    H47      H        0.08160    0.50680    0.43330    1.000
    C109     C        0.15570    0.46790    0.38430    1.000
    H48      H        0.18320    0.47820    0.42450    1.000
    C110     C        0.17450    0.43610    0.31830    1.000
    C111     C        0.23970    0.41750    0.30440    1.000
    C112     C        0.03900    0.41330    0.19770    1.000
    N16      N        0.13620    0.41790    0.26070    1.000
