data_functionalizedCrystal
_audit_creation_method	'EQeq! by Chris Wilmer'
_symmetry_space_group_name_H-M	'P1'
_symmetry_Int_Tables_number	1
_symmetry_cell_setting	triclinic
loop_
_symmetry_equiv_pos_as_xyz
  x,y,z
_cell_length_a	3.6934
_cell_length_b	12.1783
_cell_length_c	15.239
_cell_angle_alpha	90
_cell_angle_beta	90.1
_cell_angle_gamma	90
loop_
_atom_site_label
_atom_site_type_symbol
_atom_site_fract_x
_atom_site_fract_y
_atom_site_fract_z
_atom_site_charge
Mof_Ag	Ag	0.6096	0.57542	0.42476	0.601
Mof_Ag	Ag	0.3904	0.07542	0.07524	0.594
Mof_Ag	Ag	0.3904	0.42458	0.57524	0.602
Mof_Ag	Ag	0.6096	0.92458	0.92476	0.595
Mof_H 	H 	0.4272	0.5506	0.2221	-0
Mof_H 	H 	0.1863	0.6391	0.1035	0.067
Mof_H 	H 	0.0624	0.9041	0.2535	0.052
Mof_H 	H 	0.2947	0.8064	0.3693	0.008
Mof_H 	H 	0.5728	0.0506	0.2779	-0
Mof_H 	H 	0.8137	0.1391	0.3965	0.067
Mof_H 	H 	0.9376	0.4041	0.2465	0.051
Mof_H 	H 	0.7053	0.3064	0.1307	0.008
Mof_H 	H 	0.5728	0.4494	0.7779	-0
Mof_H 	H 	0.8137	0.3609	0.8965	0.067
Mof_H 	H 	0.9376	0.0959	0.7465	0.052
Mof_H 	H 	0.7053	0.1936	0.6307	0.008
Mof_H 	H 	0.4272	0.9494	0.7221	-0
Mof_H 	H 	0.1863	0.8609	0.6035	0.067
Mof_H 	H 	0.0624	0.5959	0.7535	0.051
Mof_H 	H 	0.2947	0.6936	0.8693	0.008
Mof_C 	C 	0.351	0.6229	0.2288	0.055
Mof_C 	C 	0.2071	0.6754	0.157	-0.076
Mof_C 	C 	0.094	0.7825	0.1654	-0.04
Mof_C 	C 	0.133	0.8314	0.2456	-0.069
Mof_C 	C 	0.276	0.7723	0.3149	0.044
Mof_C 	C 	0.927	0.8427	0.09	0.316
Mof_C 	C 	0.649	0.1229	0.2712	0.055
Mof_C 	C 	0.7929	0.1754	0.343	-0.076
Mof_C 	C 	0.906	0.2825	0.3346	-0.041
Mof_C 	C 	0.867	0.3314	0.2544	-0.069
Mof_C 	C 	0.724	0.2723	0.1851	0.044
Mof_C 	C 	0.073	0.3427	0.41	0.316
Mof_C 	C 	0.649	0.3771	0.7712	0.055
Mof_C 	C 	0.7929	0.3246	0.843	-0.076
Mof_C 	C 	0.906	0.2175	0.8346	-0.04
Mof_C 	C 	0.867	0.1686	0.7544	-0.069
Mof_C 	C 	0.724	0.2277	0.6851	0.044
Mof_C 	C 	0.073	0.1573	0.91	0.316
Mof_C 	C 	0.351	0.8771	0.7288	0.055
Mof_C 	C 	0.2071	0.8246	0.657	-0.076
Mof_C 	C 	0.094	0.7175	0.6654	-0.041
Mof_C 	C 	0.133	0.6686	0.7456	-0.069
Mof_C 	C 	0.276	0.7277	0.8149	0.044
Mof_C 	C 	0.927	0.6573	0.59	0.316
Mof_N 	N 	0.3888	0.6691	0.3073	-0.188
Mof_N 	N 	0.6112	0.1691	0.1927	-0.187
Mof_N 	N 	0.6112	0.3309	0.6927	-0.188
Mof_N 	N 	0.3888	0.8309	0.8073	-0.187
Mof_O 	O 	0.8792	0.9449	0.1009	-0.413
Mof_O 	O 	0.847	0.7904	0.023	-0.35
Mof_O 	O 	0.1208	0.4449	0.3991	-0.418
Mof_O 	O 	0.153	0.2904	0.477	-0.352
Mof_O 	O 	0.1208	0.0551	0.8991	-0.413
Mof_O 	O 	0.153	0.2096	0.977	-0.35
Mof_O 	O 	0.8792	0.5551	0.6009	-0.418
Mof_O 	O 	0.847	0.7096	0.523	-0.352
_end
