# CIF file generated by openbabel 3.1.0, see https://openbabel.org
data_I
_chemical_name_common 'DEQVIF_clean'
_cell_length_a 9.871
_cell_length_b 11.507
_cell_length_c 23.254
_cell_angle_alpha 90
_cell_angle_beta 90
_cell_angle_gamma 96.418
_space_group_name_H-M_alt 'P 1'
_space_group_name_Hall 'P 1'
loop_
    _symmetry_equiv_pos_as_xyz
    x,y,z
loop_
    _atom_site_label
    _atom_site_type_symbol
    _atom_site_fract_x
    _atom_site_fract_y
    _atom_site_fract_z
    _atom_site_occupancy
    Mn1      Mn       0.74955    0.50002    0.23293    1.000
    Mn2      Mn       0.75045    0.49998    0.73293    1.000
    Mn3      Mn       0.25045    0.49998    0.76707    1.000
    Mn4      Mn       0.24955    0.50002    0.26707    1.000
    H1       H        0.89330    0.38170    0.34870    1.000
    H2       H        0.88700    0.38930    0.44790    1.000
    H3       H        0.60540    0.61420    0.44160    1.000
    H4       H        0.62030    0.61400    0.34220    1.000
    H5       H        0.93820    0.46000    0.53430    1.000
    H6       H        0.92990    0.45950    0.63260    1.000
    H7       H        0.55190    0.55560    0.62940    1.000
    H8       H        0.56130    0.55630    0.52940    1.000
    H9       H        0.23980    0.00680    0.35370    1.000
    H10      H        0.08550    0.88650    0.20130    1.000
    H11      H        0.26260    0.00190    0.15410    1.000
    H12      H        0.41060    0.13210    0.20480    1.000
    H13      H        0.58930    0.26130    0.32050    1.000
    H14      H        0.57150    0.18910    0.26370    1.000
    H15      H        0.89850    0.75650    0.31090    1.000
    H16      H        0.92820    0.82440    0.25350    1.000
    H17      H        0.60670    0.61830    0.84870    1.000
    H18      H        0.61300    0.61070    0.94790    1.000
    H19      H        0.89460    0.38580    0.94160    1.000
    H20      H        0.87970    0.38600    0.84220    1.000
    H21      H        0.56180    0.54000    0.03430    1.000
    H22      H        0.57010    0.54050    0.13260    1.000
    H23      H        0.94810    0.44440    0.12940    1.000
    H24      H        0.93870    0.44370    0.02940    1.000
    H25      H        0.26020    0.99320    0.85370    1.000
    H26      H        0.41450    0.11350    0.70130    1.000
    H27      H        0.23740    0.99810    0.65410    1.000
    H28      H        0.08940    0.86790    0.70480    1.000
    H29      H        0.91070    0.73870    0.82050    1.000
    H30      H        0.92850    0.81090    0.76370    1.000
    H31      H        0.60150    0.24350    0.81090    1.000
    H32      H        0.57180    0.17560    0.75350    1.000
    H33      H        0.10670    0.61830    0.65130    1.000
    H34      H        0.11300    0.61070    0.55210    1.000
    H35      H        0.39460    0.38580    0.55840    1.000
    H36      H        0.37970    0.38600    0.65780    1.000
    H37      H        0.06180    0.54000    0.46570    1.000
    H38      H        0.07010    0.54050    0.36740    1.000
    H39      H        0.44810    0.44440    0.37060    1.000
    H40      H        0.43870    0.44370    0.47060    1.000
    H41      H        0.76020    0.99320    0.64630    1.000
    H42      H        0.91450    0.11350    0.79870    1.000
    H43      H        0.73740    0.99810    0.84590    1.000
    H44      H        0.58940    0.86790    0.79520    1.000
    H45      H        0.41070    0.73870    0.67950    1.000
    H46      H        0.42850    0.81090    0.73630    1.000
    H47      H        0.10150    0.24350    0.68910    1.000
    H48      H        0.07180    0.17560    0.74650    1.000
    H49      H        0.39330    0.38170    0.15130    1.000
    H50      H        0.38700    0.38930    0.05210    1.000
    H51      H        0.10540    0.61420    0.05840    1.000
    H52      H        0.12030    0.61400    0.15780    1.000
    H53      H        0.43820    0.46000    0.96570    1.000
    H54      H        0.42990    0.45950    0.86740    1.000
    H55      H        0.05190    0.55560    0.87060    1.000
    H56      H        0.06130    0.55630    0.97060    1.000
    H57      H        0.73980    0.00680    0.14630    1.000
    H58      H        0.58550    0.88650    0.29870    1.000
    H59      H        0.76260    0.00190    0.34590    1.000
    H60      H        0.91060    0.13210    0.29520    1.000
    H61      H        0.08930    0.26130    0.17950    1.000
    H62      H        0.07150    0.18910    0.23630    1.000
    H63      H        0.39850    0.75650    0.18910    1.000
    H64      H        0.42820    0.82440    0.24650    1.000
    C1       C        0.83770    0.42990    0.36735    1.000
    C2       C        0.83260    0.43460    0.42675    1.000
    C3       C        0.74910    0.50480    0.45635    1.000
    C4       C        0.66590    0.56970    0.42348    1.000
    C5       C        0.67350    0.56770    0.36334    1.000
    C6       C        0.75460    0.51230    0.52034    1.000
    C7       C        0.86080    0.48080    0.55272    1.000
    C8       C        0.85540    0.47920    0.61168    1.000
    C9       C        0.62910    0.53670    0.61017    1.000
    C10      C        0.63640    0.53800    0.55034    1.000
    C11      C        0.34430    0.08010    0.28430    1.000
    C12      C        0.24310    0.00660    0.31374    1.000
    C13      C        0.15030    0.93550    0.28301    1.000
    C14      C        0.15120    0.93350    0.22197    1.000
    C15      C        0.25550    0.00540    0.19397    1.000
    C16      C        0.34700    0.08070    0.22422    1.000
    C17      C        0.52300    0.23090    0.29190    1.000
    C18      C        0.47560    0.33010    0.26299    1.000
    C19      C        0.97010    0.78300    0.28387    1.000
    C20      C        0.01940    0.67670    0.25764    1.000
    C21      C        0.66230    0.57010    0.86735    1.000
    C22      C        0.66740    0.56540    0.92675    1.000
    C23      C        0.75090    0.49520    0.95635    1.000
    C24      C        0.83410    0.43030    0.92348    1.000
    C25      C        0.82650    0.43230    0.86334    1.000
    C26      C        0.74540    0.48770    0.02034    1.000
    C27      C        0.63920    0.51920    0.05272    1.000
    C28      C        0.64460    0.52080    0.11168    1.000
    C29      C        0.87090    0.46330    0.11017    1.000
    C30      C        0.86360    0.46200    0.05034    1.000
    C31      C        0.15570    0.91990    0.78430    1.000
    C32      C        0.25690    0.99340    0.81374    1.000
    C33      C        0.34970    0.06450    0.78301    1.000
    C34      C        0.34880    0.06650    0.72197    1.000
    C35      C        0.24450    0.99460    0.69397    1.000
    C36      C        0.15300    0.91930    0.72422    1.000
    C37      C        0.97700    0.76910    0.79190    1.000
    C38      C        0.02440    0.66990    0.76299    1.000
    C39      C        0.52990    0.21700    0.78387    1.000
    C40      C        0.48060    0.32330    0.75764    1.000
    C41      C        0.16230    0.57010    0.63265    1.000
    C42      C        0.16740    0.56540    0.57325    1.000
    C43      C        0.25090    0.49520    0.54365    1.000
    C44      C        0.33410    0.43030    0.57652    1.000
    C45      C        0.32650    0.43230    0.63666    1.000
    C46      C        0.24540    0.48770    0.47966    1.000
    C47      C        0.13920    0.51920    0.44728    1.000
    C48      C        0.14460    0.52080    0.38832    1.000
    C49      C        0.37090    0.46330    0.38983    1.000
    C50      C        0.36360    0.46200    0.44966    1.000
    C51      C        0.65570    0.91990    0.71570    1.000
    C52      C        0.75690    0.99340    0.68626    1.000
    C53      C        0.84970    0.06450    0.71699    1.000
    C54      C        0.84880    0.06650    0.77803    1.000
    C55      C        0.74450    0.99460    0.80603    1.000
    C56      C        0.65300    0.91930    0.77578    1.000
    C57      C        0.47700    0.76910    0.70810    1.000
    C58      C        0.52440    0.66990    0.73701    1.000
    C59      C        0.02990    0.21700    0.71613    1.000
    C60      C        0.98060    0.32330    0.74236    1.000
    C61      C        0.33770    0.42990    0.13265    1.000
    C62      C        0.33260    0.43460    0.07325    1.000
    C63      C        0.24910    0.50480    0.04365    1.000
    C64      C        0.16590    0.56970    0.07652    1.000
    C65      C        0.17350    0.56770    0.13666    1.000
    C66      C        0.25460    0.51230    0.97966    1.000
    C67      C        0.36080    0.48080    0.94728    1.000
    C68      C        0.35540    0.47920    0.88832    1.000
    C69      C        0.12910    0.53670    0.88983    1.000
    C70      C        0.13640    0.53800    0.94966    1.000
    C71      C        0.84430    0.08010    0.21570    1.000
    C72      C        0.74310    0.00660    0.18626    1.000
    C73      C        0.65030    0.93550    0.21699    1.000
    C74      C        0.65120    0.93350    0.27803    1.000
    C75      C        0.75550    0.00540    0.30603    1.000
    C76      C        0.84700    0.08070    0.27578    1.000
    C77      C        0.02300    0.23090    0.20810    1.000
    C78      C        0.97560    0.33010    0.23701    1.000
    C79      C        0.47010    0.78300    0.21613    1.000
    C80      C        0.51940    0.67670    0.24236    1.000
    N1       N        0.75450    0.50140    0.33551    1.000
    N2       N        0.74200    0.50601    0.63999    1.000
    N3       N        0.74550    0.49860    0.83551    1.000
    N4       N        0.75800    0.49399    0.13999    1.000
    N5       N        0.24550    0.49860    0.66449    1.000
    N6       N        0.25800    0.49399    0.36001    1.000
    N7       N        0.25450    0.50140    0.16449    1.000
    N8       N        0.24200    0.50601    0.86001    1.000
    O1       O        0.43087    0.15001    0.31895    1.000
    O2       O        0.55587    0.38441    0.23035    1.000
    O3       O        0.34748    0.34304    0.26532    1.000
    O4       O        0.05990    0.86206    0.31163    1.000
    O5       O        0.12699    0.65131    0.27599    1.000
    O6       O        0.93670    0.60716    0.22709    1.000
    O7       O        0.06913    0.84999    0.81895    1.000
    O8       O        0.94413    0.61559    0.73035    1.000
    O9       O        0.15252    0.65696    0.76532    1.000
    O10      O        0.44010    0.13794    0.81163    1.000
    O11      O        0.37301    0.34869    0.77599    1.000
    O12      O        0.56330    0.39284    0.72709    1.000
    O13      O        0.56913    0.84999    0.68105    1.000
    O14      O        0.44413    0.61559    0.76965    1.000
    O15      O        0.65252    0.65696    0.73468    1.000
    O16      O        0.94010    0.13794    0.68837    1.000
    O17      O        0.87301    0.34869    0.72401    1.000
    O18      O        0.06330    0.39284    0.77291    1.000
    O19      O        0.93087    0.15001    0.18105    1.000
    O20      O        0.05587    0.38441    0.26965    1.000
    O21      O        0.84748    0.34304    0.23468    1.000
    O22      O        0.55990    0.86206    0.18837    1.000
    O23      O        0.62699    0.65131    0.22401    1.000
    O24      O        0.43670    0.60716    0.27291    1.000
