# CIF file generated by openbabel 3.1.0, see https://openbabel.org
data_I
_chemical_name_common 'DAJHUS_clean'
_cell_length_a 12.1277
_cell_length_b 13.1644
_cell_length_c 13.1644
_cell_angle_alpha 100.135
_cell_angle_beta 106.875
_cell_angle_gamma 106.875
_space_group_name_H-M_alt 'P 1'
_space_group_name_Hall 'P 1'
loop_
    _symmetry_equiv_pos_as_xyz
    x,y,z
loop_
    _atom_site_label
    _atom_site_type_symbol
    _atom_site_fract_x
    _atom_site_fract_y
    _atom_site_fract_z
    _atom_site_occupancy
    Co1      Co       0.62234    0.16531    0.72617    1.000
    Co2      Co       0.87766    0.27383    0.83469    1.000
    Co3      Co       0.37766    0.83469    0.27383    1.000
    Co4      Co       0.12234    0.72617    0.16531    1.000
    H1       H        0.89590    0.28360    0.17740    1.000
    H2       H        0.98650    0.30090    0.37930    1.000
    H3       H        0.95950    0.28060    0.53940    1.000
    H4       H        0.59260    0.13600    0.37940    1.000
    H5       H        0.50400    0.10100    0.17400    1.000
    H6       H        0.53100    0.12340    0.01400    1.000
    H7       H        0.41000    0.11610    0.80770    1.000
    H8       H        0.20030    0.05970    0.74630    1.000
    H9       H        0.19640    0.03320    0.43860    1.000
    H10      H        0.40870    0.08890    0.50830    1.000
    H11      H        0.00320    0.99910    0.60270    1.000
    H12      H        0.60410    0.82260    0.71640    1.000
    H13      H        0.51350    0.62070    0.69910    1.000
    H14      H        0.54050    0.46060    0.71940    1.000
    H15      H        0.90740    0.62060    0.86400    1.000
    H16      H        0.99600    0.82600    0.89900    1.000
    H17      H        0.96900    0.98600    0.87660    1.000
    H18      H        0.09000    0.19230    0.88390    1.000
    H19      H        0.29970    0.25370    0.94030    1.000
    H20      H        0.30360    0.56140    0.96680    1.000
    H21      H        0.09130    0.49170    0.91110    1.000
    H22      H        0.49680    0.39730    0.00090    1.000
    H23      H        0.10410    0.71640    0.82260    1.000
    H24      H        0.01350    0.69910    0.62070    1.000
    H25      H        0.04050    0.71940    0.46060    1.000
    H26      H        0.40740    0.86400    0.62060    1.000
    H27      H        0.49600    0.89900    0.82600    1.000
    H28      H        0.46900    0.87660    0.98600    1.000
    H29      H        0.59000    0.88390    0.19230    1.000
    H30      H        0.79970    0.94030    0.25370    1.000
    H31      H        0.80360    0.96680    0.56140    1.000
    H32      H        0.59130    0.91110    0.49170    1.000
    H33      H        0.99680    0.00090    0.39730    1.000
    H34      H        0.39590    0.17740    0.28360    1.000
    H35      H        0.48650    0.37930    0.30090    1.000
    H36      H        0.45950    0.53940    0.28060    1.000
    H37      H        0.09260    0.37940    0.13600    1.000
    H38      H        0.00400    0.17400    0.10100    1.000
    H39      H        0.03100    0.01400    0.12340    1.000
    H40      H        0.91000    0.80770    0.11610    1.000
    H41      H        0.70030    0.74630    0.05970    1.000
    H42      H        0.69640    0.43860    0.03320    1.000
    H43      H        0.90870    0.50830    0.08890    1.000
    H44      H        0.50320    0.60270    0.99910    1.000
    C1       C        0.71790    0.20861    0.08035    1.000
    C2       C        0.81780    0.24712    0.17748    1.000
    C3       C        0.80470    0.23237    0.27763    1.000
    C4       C        0.90700    0.26871    0.37869    1.000
    C5       C        0.89100    0.25717    0.47423    1.000
    C6       C        0.77060    0.20994    0.47594    1.000
    C7       C        0.67100    0.17021    0.37879    1.000
    C8       C        0.68440    0.17984    0.27774    1.000
    C9       C        0.58280    0.13814    0.17566    1.000
    C10      C        0.59880    0.15169    0.08011    1.000
    C11      C        0.73330    0.22160    0.97390    1.000
    C12      C        0.75470    0.20511    0.58355    1.000
    C13      C        0.36660    0.09958    0.73222    1.000
    C14      C        0.24050    0.06620    0.69620    1.000
    C15      C        0.17340    0.04212    0.58508    1.000
    C16      C        0.23830    0.05027    0.51433    1.000
    C17      C        0.36640    0.08415    0.55705    1.000
    C18      C        0.03760    0.00860    0.54880    1.000
    C19      C        0.78210    0.91965    0.79139    1.000
    C20      C        0.68220    0.82252    0.75288    1.000
    C21      C        0.69530    0.72237    0.76763    1.000
    C22      C        0.59300    0.62131    0.73129    1.000
    C23      C        0.60900    0.52577    0.74283    1.000
    C24      C        0.72940    0.52406    0.79006    1.000
    C25      C        0.82900    0.62121    0.82979    1.000
    C26      C        0.81560    0.72226    0.82016    1.000
    C27      C        0.91720    0.82434    0.86186    1.000
    C28      C        0.90120    0.91989    0.84831    1.000
    C29      C        0.76670    0.02610    0.77840    1.000
    C30      C        0.74530    0.41645    0.79489    1.000
    C31      C        0.13340    0.26778    0.90042    1.000
    C32      C        0.25950    0.30380    0.93380    1.000
    C33      C        0.32660    0.41492    0.95788    1.000
    C34      C        0.26170    0.48567    0.94973    1.000
    C35      C        0.13360    0.44295    0.91585    1.000
    C36      C        0.46240    0.45120    0.99140    1.000
    C37      C        0.28210    0.79139    0.91965    1.000
    C38      C        0.18220    0.75288    0.82252    1.000
    C39      C        0.19530    0.76763    0.72237    1.000
    C40      C        0.09300    0.73129    0.62131    1.000
    C41      C        0.10900    0.74283    0.52577    1.000
    C42      C        0.22940    0.79006    0.52406    1.000
    C43      C        0.32900    0.82979    0.62121    1.000
    C44      C        0.31560    0.82016    0.72226    1.000
    C45      C        0.41720    0.86186    0.82434    1.000
    C46      C        0.40120    0.84831    0.91989    1.000
    C47      C        0.26670    0.77840    0.02610    1.000
    C48      C        0.24530    0.79489    0.41645    1.000
    C49      C        0.63340    0.90042    0.26778    1.000
    C50      C        0.75950    0.93380    0.30380    1.000
    C51      C        0.82660    0.95788    0.41492    1.000
    C52      C        0.76170    0.94973    0.48567    1.000
    C53      C        0.63360    0.91585    0.44295    1.000
    C54      C        0.96240    0.99140    0.45120    1.000
    C55      C        0.21790    0.08035    0.20861    1.000
    C56      C        0.31780    0.17748    0.24712    1.000
    C57      C        0.30470    0.27763    0.23237    1.000
    C58      C        0.40700    0.37869    0.26871    1.000
    C59      C        0.39100    0.47423    0.25717    1.000
    C60      C        0.27060    0.47594    0.20994    1.000
    C61      C        0.17100    0.37879    0.17021    1.000
    C62      C        0.18440    0.27774    0.17984    1.000
    C63      C        0.08280    0.17566    0.13814    1.000
    C64      C        0.09880    0.08011    0.15169    1.000
    C65      C        0.23330    0.97390    0.22160    1.000
    C66      C        0.25470    0.58355    0.20511    1.000
    C67      C        0.86660    0.73222    0.09958    1.000
    C68      C        0.74050    0.69620    0.06620    1.000
    C69      C        0.67340    0.58508    0.04212    1.000
    C70      C        0.73830    0.51433    0.05027    1.000
    C71      C        0.86640    0.55705    0.08415    1.000
    C72      C        0.53760    0.54880    0.00860    1.000
    N1       N        0.43110    0.11007    0.66511    1.000
    N2       N        0.06890    0.33489    0.88993    1.000
    N3       N        0.56890    0.88993    0.33489    1.000
    N4       N        0.93110    0.66511    0.11007    1.000
    O1       O        0.63703    0.18160    0.88824    1.000
    O2       O        0.84070    0.26957    0.97607    1.000
    O3       O        0.64635    0.16344    0.58160    1.000
    O4       O        0.85090    0.24350    0.66956    1.000
    O5       O        0.86297    0.11176    0.81840    1.000
    O6       O        0.65930    0.02393    0.73043    1.000
    O7       O        0.85365    0.41840    0.83656    1.000
    O8       O        0.64910    0.33044    0.75650    1.000
    O9       O        0.36297    0.81840    0.11176    1.000
    O10      O        0.15930    0.73043    0.02393    1.000
    O11      O        0.35365    0.83656    0.41840    1.000
    O12      O        0.14910    0.75650    0.33044    1.000
    O13      O        0.13703    0.88824    0.18160    1.000
    O14      O        0.34070    0.97607    0.26957    1.000
    O15      O        0.14635    0.58160    0.16344    1.000
    O16      O        0.35090    0.66956    0.24350    1.000
