# CIF file generated by openbabel 3.1.0, see https://openbabel.org
data_I
_chemical_name_common 'PAPVEJ_clean'
_cell_length_a 9.0068
_cell_length_b 14.8035
_cell_length_c 22.9837
_cell_angle_alpha 90
_cell_angle_beta 90
_cell_angle_gamma 92.787
_space_group_name_H-M_alt 'P 1'
_space_group_name_Hall 'P 1'
loop_
    _symmetry_equiv_pos_as_xyz
    x,y,z
loop_
    _atom_site_label
    _atom_site_type_symbol
    _atom_site_fract_x
    _atom_site_fract_y
    _atom_site_fract_z
    _atom_site_occupancy
    Er1      Er       0.21016    0.00396    0.98161    1.000
    Er2      Er       0.28984    0.49604    0.48161    1.000
    Er3      Er       0.78984    0.99604    0.01839    1.000
    Er4      Er       0.71016    0.50396    0.51839    1.000
    H1       H        0.70040    0.21800    0.49960    1.000
    H2       H        0.32060    0.25020    0.97950    1.000
    H3       H        0.42890    0.47760    0.06520    1.000
    H4       H        0.28700    0.40070    0.99580    1.000
    H5       H        0.83140    0.35940    0.14530    1.000
    H6       H        0.70810    0.33690    0.19240    1.000
    H7       H        0.31600    0.24330    0.16340    1.000
    H8       H        0.33650    0.15840    0.20280    1.000
    H9       H        0.37170    0.25570    0.22760    1.000
    H10      H        0.60510    0.40400    0.11690    1.000
    H11      H        0.29700    0.12420    0.29370    1.000
    H12      H        0.17340    0.10450    0.34110    1.000
    H13      H        0.39430    0.05610    0.37270    1.000
    H14      H        0.72150    0.06450    0.49020    1.000
    H15      H        0.56720    0.98410    0.42730    1.000
    H16      H        0.00530    0.15100    0.37990    1.000
    H17      H        0.84150    0.12970    0.35920    1.000
    H18      H        0.88960    0.22670    0.38160    1.000
    H19      H        0.99960    0.31060    0.10550    1.000
    H20      H        0.11740    0.23610    0.10380    1.000
    H21      H        0.16300    0.33370    0.12610    1.000
    H22      H        0.69190    0.22470    0.32330    1.000
    H23      H        0.63210    0.21380    0.25950    1.000
    H24      H        0.67620    0.31020    0.28400    1.000
    H25      H        0.79960    0.28200    0.99960    1.000
    H26      H        0.17940    0.24980    0.47950    1.000
    H27      H        0.07110    0.02240    0.56520    1.000
    H28      H        0.21300    0.09930    0.49580    1.000
    H29      H        0.66860    0.14060    0.64530    1.000
    H30      H        0.79190    0.16310    0.69240    1.000
    H31      H        0.18400    0.25670    0.66340    1.000
    H32      H        0.16350    0.34160    0.70280    1.000
    H33      H        0.12830    0.24430    0.72760    1.000
    H34      H        0.89490    0.09600    0.61690    1.000
    H35      H        0.20300    0.37580    0.79370    1.000
    H36      H        0.32660    0.39550    0.84110    1.000
    H37      H        0.10570    0.44390    0.87270    1.000
    H38      H        0.77850    0.43550    0.99020    1.000
    H39      H        0.93280    0.51590    0.92730    1.000
    H40      H        0.49470    0.34900    0.87990    1.000
    H41      H        0.65850    0.37030    0.85920    1.000
    H42      H        0.61040    0.27330    0.88160    1.000
    H43      H        0.50040    0.18940    0.60550    1.000
    H44      H        0.38260    0.26390    0.60380    1.000
    H45      H        0.33700    0.16630    0.62610    1.000
    H46      H        0.80810    0.27530    0.82330    1.000
    H47      H        0.86790    0.28620    0.75950    1.000
    H48      H        0.82380    0.18980    0.78400    1.000
    H49      H        0.29960    0.78200    0.50040    1.000
    H50      H        0.67940    0.74980    0.02050    1.000
    H51      H        0.57110    0.52240    0.93480    1.000
    H52      H        0.71300    0.59930    0.00420    1.000
    H53      H        0.16860    0.64060    0.85470    1.000
    H54      H        0.29190    0.66310    0.80760    1.000
    H55      H        0.68400    0.75670    0.83660    1.000
    H56      H        0.66350    0.84160    0.79720    1.000
    H57      H        0.62830    0.74430    0.77240    1.000
    H58      H        0.39490    0.59600    0.88310    1.000
    H59      H        0.70300    0.87580    0.70630    1.000
    H60      H        0.82660    0.89550    0.65890    1.000
    H61      H        0.60570    0.94390    0.62730    1.000
    H62      H        0.27850    0.93550    0.50980    1.000
    H63      H        0.43280    0.01590    0.57270    1.000
    H64      H        0.99470    0.84900    0.62010    1.000
    H65      H        0.15850    0.87030    0.64080    1.000
    H66      H        0.11040    0.77330    0.61840    1.000
    H67      H        0.00040    0.68940    0.89450    1.000
    H68      H        0.88260    0.76390    0.89620    1.000
    H69      H        0.83700    0.66630    0.87390    1.000
    H70      H        0.30810    0.77530    0.67670    1.000
    H71      H        0.36790    0.78620    0.74050    1.000
    H72      H        0.32380    0.68980    0.71600    1.000
    H73      H        0.20040    0.71800    0.00040    1.000
    H74      H        0.82060    0.75020    0.52050    1.000
    H75      H        0.92890    0.97760    0.43480    1.000
    H76      H        0.78700    0.90070    0.50420    1.000
    H77      H        0.33140    0.85940    0.35470    1.000
    H78      H        0.20810    0.83690    0.30760    1.000
    H79      H        0.81600    0.74330    0.33660    1.000
    H80      H        0.83650    0.65840    0.29720    1.000
    H81      H        0.87170    0.75570    0.27240    1.000
    H82      H        0.10510    0.90400    0.38310    1.000
    H83      H        0.79700    0.62420    0.20630    1.000
    H84      H        0.67340    0.60450    0.15890    1.000
    H85      H        0.89430    0.55610    0.12730    1.000
    H86      H        0.22150    0.56450    0.00980    1.000
    H87      H        0.06720    0.48410    0.07270    1.000
    H88      H        0.50530    0.65100    0.12010    1.000
    H89      H        0.34150    0.62970    0.14080    1.000
    H90      H        0.38960    0.72670    0.11840    1.000
    H91      H        0.49960    0.81060    0.39450    1.000
    H92      H        0.61740    0.73610    0.39620    1.000
    H93      H        0.66300    0.83370    0.37390    1.000
    H94      H        0.19190    0.72470    0.17670    1.000
    H95      H        0.13210    0.71380    0.24050    1.000
    H96      H        0.17620    0.81020    0.21600    1.000
    C1       C        0.50480    0.13740    0.02076    1.000
    C2       C        0.63690    0.18550    0.47453    1.000
    C3       C        0.43650    0.18260    0.40421    1.000
    C4       C        0.37890    0.28100    0.00714    1.000
    C5       C        0.48550    0.23440    0.03759    1.000
    C6       C        0.53010    0.23070    0.44370    1.000
    C7       C        0.44260    0.41670    0.05823    1.000
    C8       C        0.35790    0.37100    0.01692    1.000
    C9       C        0.51950    0.33030    0.45606    1.000
    C10      C        0.56980    0.28110    0.08035    1.000
    C11      C        0.78440    0.31140    0.16849    1.000
    C12      C        0.30770    0.22000    0.20230    1.000
    C13      C        0.10870    0.19450    0.27869    1.000
    C14      C        0.14910    0.22400    0.22272    1.000
    C15      C        0.89840    0.26790    0.20642    1.000
    C16      C        0.54780    0.37230    0.08935    1.000
    C17      C        0.22160    0.15140    0.31723    1.000
    C18      C        0.85730    0.23900    0.26257    1.000
    C19      C        0.45410    0.08950    0.39868    1.000
    C20      C        0.65070    0.09380    0.46877    1.000
    C21      C        0.55900    0.04620    0.43117    1.000
    C22      C        0.96490    0.20300    0.29893    1.000
    C23      C        0.92130    0.17500    0.36060    1.000
    C24      C        0.04220    0.25930    0.18616    1.000
    C25      C        0.08440    0.28750    0.12477    1.000
    C26      C        0.70000    0.24770    0.28440    1.000
    C27      C        0.10950    0.04660    0.09748    1.000
    C28      C        0.99520    0.36260    0.52076    1.000
    C29      C        0.86310    0.31450    0.97453    1.000
    C30      C        0.06350    0.31740    0.90421    1.000
    C31      C        0.12110    0.21900    0.50714    1.000
    C32      C        0.01450    0.26560    0.53759    1.000
    C33      C        0.96990    0.26930    0.94370    1.000
    C34      C        0.05740    0.08330    0.55823    1.000
    C35      C        0.14210    0.12900    0.51692    1.000
    C36      C        0.98050    0.16970    0.95606    1.000
    C37      C        0.93020    0.21890    0.58035    1.000
    C38      C        0.71560    0.18860    0.66849    1.000
    C39      C        0.19230    0.28000    0.70230    1.000
    C40      C        0.39130    0.30550    0.77869    1.000
    C41      C        0.35090    0.27600    0.72272    1.000
    C42      C        0.60160    0.23210    0.70642    1.000
    C43      C        0.95220    0.12770    0.58935    1.000
    C44      C        0.27840    0.34860    0.81723    1.000
    C45      C        0.64270    0.26100    0.76257    1.000
    C46      C        0.04590    0.41050    0.89868    1.000
    C47      C        0.84930    0.40620    0.96877    1.000
    C48      C        0.94100    0.45380    0.93117    1.000
    C49      C        0.53510    0.29700    0.79893    1.000
    C50      C        0.57870    0.32500    0.86060    1.000
    C51      C        0.45780    0.24070    0.68616    1.000
    C52      C        0.41560    0.21250    0.62477    1.000
    C53      C        0.80000    0.25230    0.78440    1.000
    C54      C        0.39050    0.45340    0.59748    1.000
    C55      C        0.49520    0.86260    0.97924    1.000
    C56      C        0.36310    0.81450    0.52547    1.000
    C57      C        0.56350    0.81740    0.59579    1.000
    C58      C        0.62110    0.71900    0.99286    1.000
    C59      C        0.51450    0.76560    0.96241    1.000
    C60      C        0.46990    0.76930    0.55630    1.000
    C61      C        0.55740    0.58330    0.94177    1.000
    C62      C        0.64210    0.62900    0.98308    1.000
    C63      C        0.48050    0.66970    0.54394    1.000
    C64      C        0.43020    0.71890    0.91965    1.000
    C65      C        0.21560    0.68860    0.83151    1.000
    C66      C        0.69230    0.78000    0.79770    1.000
    C67      C        0.89130    0.80550    0.72131    1.000
    C68      C        0.85090    0.77600    0.77728    1.000
    C69      C        0.10160    0.73210    0.79358    1.000
    C70      C        0.45220    0.62770    0.91065    1.000
    C71      C        0.77840    0.84860    0.68277    1.000
    C72      C        0.14270    0.76100    0.73743    1.000
    C73      C        0.54590    0.91050    0.60132    1.000
    C74      C        0.34930    0.90620    0.53123    1.000
    C75      C        0.44100    0.95380    0.56883    1.000
    C76      C        0.03510    0.79700    0.70107    1.000
    C77      C        0.07870    0.82500    0.63940    1.000
    C78      C        0.95780    0.74070    0.81384    1.000
    C79      C        0.91560    0.71250    0.87523    1.000
    C80      C        0.30000    0.75230    0.71560    1.000
    C81      C        0.89050    0.95340    0.90252    1.000
    C82      C        0.00480    0.63740    0.47924    1.000
    C83      C        0.13690    0.68550    0.02547    1.000
    C84      C        0.93650    0.68260    0.09579    1.000
    C85      C        0.87890    0.78100    0.49286    1.000
    C86      C        0.98550    0.73440    0.46241    1.000
    C87      C        0.03010    0.73070    0.05630    1.000
    C88      C        0.94260    0.91670    0.44177    1.000
    C89      C        0.85790    0.87100    0.48308    1.000
    C90      C        0.01950    0.83030    0.04394    1.000
    C91      C        0.06980    0.78110    0.41965    1.000
    C92      C        0.28440    0.81140    0.33151    1.000
    C93      C        0.80770    0.72000    0.29770    1.000
    C94      C        0.60870    0.69450    0.22131    1.000
    C95      C        0.64910    0.72400    0.27728    1.000
    C96      C        0.39840    0.76790    0.29358    1.000
    C97      C        0.04780    0.87230    0.41065    1.000
    C98      C        0.72160    0.65140    0.18277    1.000
    C99      C        0.35730    0.73900    0.23743    1.000
    C100     C        0.95410    0.58950    0.10132    1.000
    C101     C        0.15070    0.59380    0.03123    1.000
    C102     C        0.05900    0.54620    0.06883    1.000
    C103     C        0.46490    0.70300    0.20107    1.000
    C104     C        0.42130    0.67500    0.13940    1.000
    C105     C        0.54220    0.75930    0.31384    1.000
    C106     C        0.58440    0.78750    0.37523    1.000
    C107     C        0.20000    0.74770    0.21560    1.000
    C108     C        0.60950    0.54660    0.40252    1.000
    S1       S        0.30582    0.24017    0.36292    1.000
    S2       S        0.70335    0.22292    0.12166    1.000
    S3       S        0.19418    0.25983    0.86292    1.000
    S4       S        0.79665    0.27708    0.62166    1.000
    S5       S        0.69418    0.75983    0.63708    1.000
    S6       S        0.29665    0.77708    0.87834    1.000
    S7       S        0.80582    0.74017    0.13708    1.000
    S8       S        0.20335    0.72292    0.37834    1.000
    O1       O        0.24530    0.03920    0.08800    1.000
    O2       O        0.41120    0.10015    0.98689    1.000
    O3       O        0.39340    0.36206    0.45307    1.000
    O4       O        0.63800    0.37232    0.46995    1.000
    O5       O        0.61600    0.09987    0.04018    1.000
    O6       O        0.01920    0.04471    0.05593    1.000
    O7       O        0.25470    0.46080    0.58800    1.000
    O8       O        0.08880    0.39985    0.48689    1.000
    O9       O        0.10660    0.13794    0.95307    1.000
    O10      O        0.86200    0.12768    0.96995    1.000
    O11      O        0.88400    0.40013    0.54018    1.000
    O12      O        0.48080    0.45529    0.55593    1.000
    O13      O        0.75470    0.96080    0.91200    1.000
    O14      O        0.58880    0.89985    0.01311    1.000
    O15      O        0.60660    0.63794    0.54693    1.000
    O16      O        0.36200    0.62768    0.53005    1.000
    O17      O        0.38400    0.90013    0.95982    1.000
    O18      O        0.98080    0.95529    0.94407    1.000
    O19      O        0.74530    0.53920    0.41200    1.000
    O20      O        0.91120    0.60015    0.51311    1.000
    O21      O        0.89340    0.86206    0.04693    1.000
    O22      O        0.13800    0.87232    0.03005    1.000
    O23      O        0.11600    0.59987    0.45982    1.000
    O24      O        0.51920    0.54471    0.44407    1.000
