data_functionalizedCrystal
_audit_creation_method	'EQeq! by Chris Wilmer'
_symmetry_space_group_name_H-M	'P1'
_symmetry_Int_Tables_number	1
_symmetry_cell_setting	triclinic
loop_
_symmetry_equiv_pos_as_xyz
  x,y,z
_cell_length_a	15.97
_cell_length_b	18.597
_cell_length_c	28.434
_cell_angle_alpha	100.536
_cell_angle_beta	95.13
_cell_angle_gamma	109.615
loop_
_atom_site_label
_atom_site_type_symbol
_atom_site_fract_x
_atom_site_fract_y
_atom_site_fract_z
_atom_site_charge
Mof_C 	C 	0.8159	0.0806	0.1829	0.08
Mof_H 	H 	0.7975	0.1225	0.1807	0.025
Mof_C 	C 	0.7635	0.0056	0.1586	-0.177
Mof_H 	H 	0.7108	0.9975	0.1382	0.097
Mof_C 	C 	0.8613	0.9546	0.1948	-0.183
Mof_H 	H 	0.8741	0.9114	0.2005	0.105
Mof_C 	C 	0.9181	0.0273	0.2181	0.086
Mof_H 	H 	0.9701	0.0337	0.2386	0.014
Mof_C 	C 	0.733	0.8622	0.131	-0.103
Mof_C 	C 	0.7131	0.8569	0.0824	0.026
Mof_H 	H 	0.725	0.9029	0.0714	0.025
Mof_C 	C 	0.6759	0.7858	0.0488	-0.113
Mof_C 	C 	0.6575	0.7183	0.0648	0.15
Mof_C 	C 	0.672	0.7208	0.1139	-0.06
Mof_C 	C 	0.7114	0.7927	0.1472	0.141
Mof_C 	C 	0.6679	0.7889	0.9964	0.168
Mof_C 	C 	0.6214	0.8327	0.9796	-0.213
Mof_H 	H 	0.589	0.8547	0.9994	0.11
Mof_C 	C 	0.6246	0.8429	0.9314	0.139
Mof_H 	H 	0.5959	0.8739	0.9201	-0
Mof_C 	C 	0.6687	0.8082	0.9013	-0.242
Mof_C 	C 	0.7126	0.7654	0.9185	0.163
Mof_H 	H 	0.744	0.7428	0.8982	-0.041
Mof_C 	C 	0.7129	0.7536	0.9657	-0.229
Mof_H 	H 	0.7425	0.7227	0.9763	0.114
Mof_C 	C 	0.6704	0.8225	0.8521	0.458
Mof_C 	C 	0.6544	0.5933	0.025	-0.148
Mof_H 	H 	0.7159	0.6149	0.041	0.086
Mof_H 	H 	0.6524	0.5753	0.9909	0.076
Mof_H 	H 	0.6214	0.5501	0.0381	0.085
Mof_C 	C 	0.6642	0.8101	0.2219	-0.234
Mof_H 	H 	0.6817	0.8122	0.2554	0.115
Mof_H 	H 	0.606	0.77	0.21	0.115
Mof_H 	H 	0.6617	0.8598	0.2185	0.108
Mof_C 	C 	0.4295	0.612	0.0924	-0.246
Mof_H 	H 	0.3752	0.6214	0.0976	0.114
Mof_H 	H 	0.4184	0.557	0.0879	0.11
Mof_H 	H 	0.449	0.6293	0.064	0.119
Mof_C 	C 	0.8599	0.6921	0.1769	-0.234
Mof_H 	H 	0.9183	0.7062	0.1673	0.11
Mof_H 	H 	0.8577	0.6618	0.201	0.107
Mof_H 	H 	0.8487	0.7388	0.1901	0.114
Mof_C 	C 	0.6446	0.6486	0.1338	-0.041
Mof_C 	C 	0.5575	0.6164	0.1434	0.121
Mof_C 	C 	0.5327	0.5539	0.1651	-0.089
Mof_C 	C 	0.5961	0.5197	0.1746	0.001
Mof_H 	H 	0.5785	0.4753	0.1873	0.036
Mof_C 	C 	0.6831	0.5483	0.166	-0.089
Mof_C 	C 	0.7067	0.6141	0.1458	0.115
Mof_C 	C 	0.395	0.4407	0.1658	-0.166
Mof_H 	H 	0.4178	0.4084	0.1462	0.095
Mof_C 	C 	0.3143	0.4075	0.1822	0.074
Mof_H 	H 	0.2823	0.3539	0.1723	0.026
Mof_C 	C 	0.3271	0.5347	0.2247	0.058
Mof_H 	H 	0.3044	0.5665	0.2448	0.027
Mof_C 	C 	0.4072	0.5681	0.2064	-0.154
Mof_H 	H 	0.4367	0.6221	0.2134	0.095
Mof_C 	C 	0.2001	0.4156	0.2349	0.339
Mof_C 	C 	0.7493	0.5131	0.1813	0.123
Mof_C 	C 	0.7505	0.4936	0.2257	-0.166
Mof_H 	H 	0.7098	0.5027	0.2453	0.091
Mof_C 	C 	0.8092	0.4616	0.2417	0.072
Mof_H 	H 	0.8096	0.4499	0.2721	0.024
Mof_C 	C 	0.8693	0.4462	0.2117	-0.114
Mof_C 	C 	0.8646	0.4609	0.1661	0.071
Mof_H 	H 	0.9014	0.4479	0.1451	0.024
Mof_C 	C 	0.8058	0.4947	0.1514	-0.161
Mof_H 	H 	0.8041	0.5055	0.1207	0.098
Mof_C 	C 	0.9343	0.4095	0.2288	0.32
Mof_C 	C 	0.2255	0.0725	0.2692	0.308
Mof_C 	C 	0.1413	0.0353	0.2898	-0.109
Mof_C 	C 	0.1084	0.0825	0.3203	0.052
Mof_H 	H 	0.1385	0.1365	0.3283	0.038
Mof_C 	C 	0.0307	0.0496	0.3389	-0.146
Mof_H 	H 	0.0092	0.0814	0.3599	0.088
Mof_C 	C 	0.9859	0.9704	0.3265	0.099
Mof_C 	C 	0.0216	0.9215	0.2976	-0.143
Mof_H 	H 	0.9936	0.8672	0.2908	0.087
Mof_C 	C 	0.0977	0.9553	0.2799	0.056
Mof_H 	H 	0.1212	0.9234	0.2605	0.027
Mof_C 	C 	0.8947	0.9376	0.3414	-0.074
Mof_C 	C 	0.8341	0.9736	0.3331	-0.009
Mof_H 	H 	0.853	0.0178	0.3203	0.041
Mof_C 	C 	0.7462	0.9478	0.3428	-0.082
Mof_C 	C 	0.7204	0.882	0.3634	0.117
Mof_C 	C 	0.7808	0.8442	0.3723	-0.042
Mof_C 	C 	0.8655	0.8723	0.3619	0.115
Mof_C 	C 	0.0012	0.8758	0.4076	-0.262
Mof_H 	H 	0.0411	0.8472	0.409	0.121
Mof_H 	H 	0.9813	0.8842	0.4384	0.126
Mof_H 	H 	0.0323	0.9254	0.4004	0.118
Mof_C 	C 	0.5628	0.8141	0.3352	-0.249
Mof_H 	H 	0.507	0.7989	0.3476	0.116
Mof_H 	H 	0.5703	0.7684	0.3171	0.121
Mof_H 	H 	0.562	0.8493	0.3145	0.112
Mof_C 	C 	0.685	0.9872	0.329	0.109
Mof_C 	C 	0.6843	0.0062	0.2832	-0.153
Mof_H 	H 	0.7231	0.9955	0.2628	0.088
Mof_C 	C 	0.626	0.0406	0.2692	0.064
Mof_H 	H 	0.6247	0.0518	0.2386	0.029
Mof_C 	C 	0.5694	0.0593	0.2985	-0.108
Mof_C 	C 	0.5718	0.0428	0.3443	0.059
Mof_H 	H 	0.5341	0.0553	0.3648	0.028
Mof_C 	C 	0.6298	0.008	0.3591	-0.151
Mof_H 	H 	0.6318	0.9983	0.39	0.094
Mof_C 	C 	0.5024	0.0946	0.2807	0.32
Mof_C 	C 	0.7327	0.6844	0.281	-0.263
Mof_H 	H 	0.7073	0.6783	0.2479	0.125
Mof_H 	H 	0.742	0.6373	0.2848	0.117
Mof_H 	H 	0.7893	0.7275	0.2892	0.124
Mof_C 	C 	0.784	0.8914	0.4884	-0.225
Mof_H 	H 	0.8145	0.9222	0.5201	0.104
Mof_H 	H 	0.7241	0.8593	0.4902	0.106
Mof_H 	H 	0.7827	0.9255	0.467	0.11
Mof_C 	C 	0.7508	0.772	0.3919	-0.055
Mof_C 	C 	0.6974	0.7006	0.3611	0.132
Mof_C 	C 	0.6717	0.6297	0.3763	-0.095
Mof_C 	C 	0.7016	0.634	0.4243	0.026
Mof_H 	H 	0.6867	0.5879	0.4353	0.028
Mof_C 	C 	0.7534	0.7049	0.4571	-0.125
Mof_C 	C 	0.7777	0.774	0.4399	0.148
Mof_C 	C 	0.8291	0.6618	0.5185	-0.257
Mof_H 	H 	0.8453	0.6318	0.4936	0.128
Mof_C 	C 	0.8572	0.6643	0.5683	0.179
Mof_H 	H 	0.8984	0.6409	0.5755	-0.01
Mof_C 	C 	0.7655	0.729	0.5924	0.219
Mof_H 	H 	0.7362	0.7471	0.6161	-0.028
Mof_C 	C 	0.7446	0.7338	0.5456	-0.286
Mof_H 	H 	0.7049	0.7589	0.539	0.136
Mof_C 	C 	0.8513	0.6942	0.6556	0.485
Mof_C 	C 	0.613	0.5555	0.3452	0.12
Mof_C 	C 	0.5312	0.5453	0.3196	-0.158
Mof_H 	H 	0.5157	0.5889	0.318	0.098
Mof_C 	C 	0.4714	0.4715	0.2962	0.075
Mof_H 	H 	0.4162	0.4668	0.2797	0.025
Mof_C 	C 	0.4901	0.406	0.2963	-0.123
Mof_C 	C 	0.5749	0.4138	0.3172	0.058
Mof_H 	H 	0.5909	0.3697	0.3146	0.034
Mof_C 	C 	0.6385	0.4883	0.3427	-0.147
Mof_H 	H 	0.6952	0.493	0.3574	0.087
Mof_C 	C 	0.4257	0.3251	0.2704	0.356
Mof_O 	O 	0.0458	0.1878	0.245	-0.281
Mof_O 	O 	0.943	0.4062	0.2726	-0.267
Mof_O 	O 	0.9756	0.3838	0.1991	-0.259
Mof_O 	O 	0.1691	0.4575	0.2601	-0.274
Mof_O 	O 	0.1658	0.3417	0.2251	-0.294
Mof_O 	O 	0.2517	0.1459	0.2727	-0.285
Mof_O 	O 	0.2642	0.0304	0.2491	-0.267
Mof_O 	O 	0.7108	0.7881	0.8246	-0.575
Mof_O 	O 	0.6318	0.8653	0.8385	-0.335
Mof_O 	O 	0.342	0.3172	0.2651	-0.254
Mof_O 	O 	0.4539	0.2735	0.267	-0.299
Mof_O 	O 	0.4941	0.0965	0.2369	-0.269
Mof_O 	O 	0.4598	0.1191	0.3097	-0.263
Mof_O 	O 	0.9098	0.6632	0.6622	-0.331
Mof_O 	O 	0.8128	0.72	0.6864	-0.514
Mof_O 	O 	0.4996	0.6552	0.1345	-0.162
Mof_O 	O 	0.7931	0.647	0.1359	-0.162
Mof_O 	O 	0.6176	0.6482	0.0319	-0.184
Mof_O 	O 	0.7275	0.7931	0.1951	-0.174
Mof_O 	O 	0.6708	0.7001	0.3131	-0.166
Mof_O 	O 	0.8316	0.8431	0.4704	-0.171
Mof_O 	O 	0.6363	0.8527	0.3749	-0.159
Mof_O 	O 	0.9215	0.8299	0.369	-0.157
Mof_C 	C 	0.2823	0.4536	0.2125	-0.118
Mof_C 	C 	0.7859	0.9427	0.1632	0.139
Mof_C 	C 	0.4412	0.5195	0.1779	0.123
Mof_C 	C 	0.8981	0.0922	0.2113	-0.133
Mof_C 	C 	0.7787	0.704	0.5089	0.224
Mof_C 	C 	0.8264	0.6991	0.6047	-0.265
Mof_O 	O 	0.9339	0.2294	0.2341	-0.27
Mof_C 	C 	0.9628	0.1738	0.2318	0.322
Mof_Cd	Cd	0.19333	0.22537	0.23173	0.486
Mof_Cd	Cd	0.38215	0.1441	0.24088	0.507
Mof_Cd	Cd	0.04404	0.34534	0.26525	0.511
Mof_Eu	Eu	0.80667	0.77463	0.76827	2.263
Mof_C 	C 	0.1841	0.9194	0.8171	0.14
Mof_H 	H 	0.2025	0.8775	0.8193	-0.003
Mof_C 	C 	0.2365	0.9944	0.8414	-0.234
Mof_H 	H 	0.2892	0.0025	0.8618	0.114
Mof_C 	C 	0.1387	0.0454	0.8052	-0.251
Mof_H 	H 	0.1259	0.0886	0.7995	0.124
Mof_C 	C 	0.0819	0.9727	0.7819	0.158
Mof_H 	H 	0.0299	0.9663	0.7614	-0.035
Mof_C 	C 	0.267	0.1378	0.869	-0.119
Mof_C 	C 	0.2869	0.1431	0.9176	0.028
Mof_H 	H 	0.275	0.0971	0.9286	0.022
Mof_C 	C 	0.3241	0.2142	0.9512	-0.104
Mof_C 	C 	0.3425	0.2817	0.9352	0.145
Mof_C 	C 	0.328	0.2792	0.8861	-0.059
Mof_C 	C 	0.2886	0.2073	0.8528	0.145
Mof_C 	C 	0.3321	0.2111	0.0036	0.135
Mof_C 	C 	0.3786	0.1673	0.0204	-0.166
Mof_H 	H 	0.411	0.1453	0.0006	0.095
Mof_C 	C 	0.3754	0.1571	0.0686	0.076
Mof_H 	H 	0.4041	0.1261	0.0799	0.025
Mof_C 	C 	0.3313	0.1918	0.0987	-0.142
Mof_C 	C 	0.2874	0.2346	0.0815	0.084
Mof_H 	H 	0.256	0.2572	0.1018	0.013
Mof_C 	C 	0.2871	0.2464	0.0343	-0.169
Mof_H 	H 	0.2575	0.2773	0.0237	0.097
Mof_C 	C 	0.3296	0.1775	0.1479	0.333
Mof_C 	C 	0.3456	0.4067	0.975	-0.163
Mof_H 	H 	0.2841	0.3851	0.959	0.091
Mof_H 	H 	0.3476	0.4247	0.0091	0.083
Mof_H 	H 	0.3786	0.4499	0.9619	0.089
Mof_C 	C 	0.3358	0.1899	0.7781	-0.231
Mof_H 	H 	0.3183	0.1878	0.7446	0.114
Mof_H 	H 	0.394	0.23	0.79	0.114
Mof_H 	H 	0.3383	0.1402	0.7815	0.107
Mof_C 	C 	0.5705	0.388	0.9076	-0.24
Mof_H 	H 	0.6248	0.3786	0.9024	0.111
Mof_H 	H 	0.5816	0.443	0.9121	0.107
Mof_H 	H 	0.551	0.3707	0.936	0.117
Mof_C 	C 	0.1401	0.3079	0.8231	-0.229
Mof_H 	H 	0.0817	0.2938	0.8327	0.107
Mof_H 	H 	0.1423	0.3382	0.799	0.105
Mof_H 	H 	0.1513	0.2612	0.8099	0.111
Mof_C 	C 	0.3554	0.3514	0.8662	-0.047
Mof_C 	C 	0.4425	0.3836	0.8566	0.131
Mof_C 	C 	0.4673	0.4461	0.8349	-0.112
Mof_C 	C 	0.4039	0.4803	0.8254	0.016
Mof_H 	H 	0.4215	0.5247	0.8127	0.03
Mof_C 	C 	0.3169	0.4517	0.834	-0.097
Mof_C 	C 	0.2933	0.3859	0.8542	0.12
Mof_C 	C 	0.605	0.5593	0.8342	-0.246
Mof_H 	H 	0.5822	0.5916	0.8538	0.119
Mof_C 	C 	0.6857	0.5925	0.8178	0.179
Mof_H 	H 	0.7177	0.6461	0.8277	-0.06
Mof_C 	C 	0.6729	0.4653	0.7753	0.13
Mof_H 	H 	0.6956	0.4335	0.7552	0
Mof_C 	C 	0.5928	0.4319	0.7936	-0.213
Mof_H 	H 	0.5633	0.3779	0.7866	0.115
Mof_C 	C 	0.7999	0.5844	0.7651	0.459
Mof_C 	C 	0.2507	0.4869	0.8187	0.128
Mof_C 	C 	0.2495	0.5064	0.7743	-0.171
Mof_H 	H 	0.2902	0.4973	0.7547	0.092
Mof_C 	C 	0.1908	0.5384	0.7583	0.076
Mof_H 	H 	0.1904	0.5501	0.7279	0.023
Mof_C 	C 	0.1307	0.5538	0.7883	-0.118
Mof_C 	C 	0.1354	0.5391	0.8339	0.076
Mof_H 	H 	0.0986	0.5521	0.8549	0.02
Mof_C 	C 	0.1942	0.5053	0.8486	-0.166
Mof_H 	H 	0.1959	0.4945	0.8793	0.099
Mof_C 	C 	0.0657	0.5905	0.7712	0.324
Mof_C 	C 	0.7745	0.9275	0.7308	0.389
Mof_C 	C 	0.8587	0.9647	0.7102	-0.206
Mof_C 	C 	0.8916	0.9175	0.6797	0.123
Mof_H 	H 	0.8615	0.8635	0.6717	-0.014
Mof_C 	C 	0.9693	0.9504	0.6611	-0.209
Mof_H 	H 	0.9908	0.9186	0.6401	0.107
Mof_C 	C 	0.0141	0.0296	0.6735	0.145
Mof_C 	C 	0.9784	0.0785	0.7024	-0.206
Mof_H 	H 	0.0064	0.1328	0.7092	0.109
Mof_C 	C 	0.9023	0.0447	0.7201	0.122
Mof_H 	H 	0.8788	0.0766	0.7395	-0.003
Mof_C 	C 	0.1053	0.0624	0.6586	-0.093
Mof_C 	C 	0.1659	0.0264	0.6669	0.002
Mof_H 	H 	0.147	0.9822	0.6797	0.036
Mof_C 	C 	0.2538	0.0522	0.6572	-0.088
Mof_C 	C 	0.2796	0.118	0.6366	0.121
Mof_C 	C 	0.2192	0.1558	0.6277	-0.047
Mof_C 	C 	0.1345	0.1277	0.6381	0.123
Mof_C 	C 	0.9988	0.1242	0.5924	-0.271
Mof_H 	H 	0.9589	0.1528	0.591	0.123
Mof_H 	H 	0.0187	0.1158	0.5616	0.13
Mof_H 	H 	0.9677	0.0746	0.5996	0.12
Mof_C 	C 	0.4372	0.1859	0.6648	-0.247
Mof_H 	H 	0.493	0.2011	0.6524	0.115
Mof_H 	H 	0.4297	0.2316	0.6829	0.12
Mof_H 	H 	0.438	0.1507	0.6855	0.112
Mof_C 	C 	0.315	0.0128	0.671	0.113
Mof_C 	C 	0.3157	0.9938	0.7168	-0.156
Mof_H 	H 	0.2769	0.0045	0.7372	0.09
Mof_C 	C 	0.374	0.9594	0.7308	0.066
Mof_H 	H 	0.3753	0.9482	0.7614	0.028
Mof_C 	C 	0.4306	0.9407	0.7015	-0.11
Mof_C 	C 	0.4282	0.9572	0.6557	0.061
Mof_H 	H 	0.4659	0.9447	0.6352	0.027
Mof_C 	C 	0.3702	0.992	0.6409	-0.153
Mof_H 	H 	0.3682	0.0017	0.61	0.095
Mof_C 	C 	0.4976	0.9054	0.7193	0.321
Mof_C 	C 	0.2673	0.3156	0.719	-0.262
Mof_H 	H 	0.2927	0.3217	0.7521	0.125
Mof_H 	H 	0.258	0.3627	0.7152	0.116
Mof_H 	H 	0.2107	0.2725	0.7108	0.123
Mof_C 	C 	0.216	0.1086	0.5116	-0.228
Mof_H 	H 	0.1855	0.0778	0.4799	0.105
Mof_H 	H 	0.2759	0.1407	0.5098	0.108
Mof_H 	H 	0.2173	0.0745	0.533	0.111
Mof_C 	C 	0.2492	0.228	0.6081	-0.051
Mof_C 	C 	0.3026	0.2994	0.6389	0.132
Mof_C 	C 	0.3283	0.3703	0.6237	-0.099
Mof_C 	C 	0.2984	0.366	0.5757	0.019
Mof_H 	H 	0.3133	0.4121	0.5647	0.03
Mof_C 	C 	0.2466	0.2951	0.5429	-0.106
Mof_C 	C 	0.2223	0.226	0.5601	0.141
Mof_C 	C 	0.1709	0.3382	0.4815	-0.199
Mof_H 	H 	0.1547	0.3682	0.5064	0.108
Mof_C 	C 	0.1428	0.3357	0.4317	0.108
Mof_H 	H 	0.1016	0.3591	0.4245	0.016
Mof_C 	C 	0.2345	0.271	0.4076	0.127
Mof_H 	H 	0.2638	0.2529	0.3839	0.011
Mof_C 	C 	0.2554	0.2662	0.4544	-0.214
Mof_H 	H 	0.2951	0.2411	0.461	0.111
Mof_C 	C 	0.1487	0.3058	0.3444	0.355
Mof_C 	C 	0.387	0.4445	0.6548	0.14
Mof_C 	C 	0.4688	0.4547	0.6804	-0.193
Mof_H 	H 	0.4843	0.4111	0.682	0.11
Mof_C 	C 	0.5286	0.5285	0.7038	0.125
Mof_H 	H 	0.5838	0.5332	0.7203	0.001
Mof_C 	C 	0.5099	0.594	0.7037	-0.183
Mof_C 	C 	0.4251	0.5862	0.6828	0.095
Mof_H 	H 	0.4091	0.6303	0.6854	0.02
Mof_C 	C 	0.3615	0.5117	0.6573	-0.173
Mof_H 	H 	0.3048	0.507	0.6426	0.096
Mof_C 	C 	0.5743	0.6749	0.7296	0.461
Mof_O 	O 	0.9542	0.8122	0.755	-0.58
Mof_O 	O 	0.057	0.5938	0.7274	-0.266
Mof_O 	O 	0.0244	0.6162	0.8009	-0.268
Mof_O 	O 	0.8309	0.5425	0.7399	-0.317
Mof_O 	O 	0.8342	0.6583	0.7749	-0.558
Mof_O 	O 	0.7483	0.8541	0.7273	-0.529
Mof_O 	O 	0.7358	0.9696	0.7509	-0.309
Mof_O 	O 	0.2892	0.2119	0.1754	-0.286
Mof_O 	O 	0.3682	0.1347	0.1615	-0.28
Mof_O 	O 	0.658	0.6828	0.7349	-0.492
Mof_O 	O 	0.5461	0.7265	0.733	-0.349
Mof_O 	O 	0.5059	0.9035	0.7631	-0.268
Mof_O 	O 	0.5402	0.8809	0.6903	-0.263
Mof_O 	O 	0.0902	0.3368	0.3378	-0.285
Mof_O 	O 	0.1872	0.28	0.3136	-0.266
Mof_O 	O 	0.5004	0.3448	0.8655	-0.166
Mof_O 	O 	0.2069	0.353	0.8641	-0.165
Mof_O 	O 	0.3824	0.3518	0.9681	-0.179
Mof_O 	O 	0.2725	0.2069	0.8049	-0.176
Mof_O 	O 	0.3292	0.2999	0.6869	-0.166
Mof_O 	O 	0.1684	0.1569	0.5296	-0.168
Mof_O 	O 	0.3637	0.1473	0.6251	-0.161
Mof_O 	O 	0.0785	0.1701	0.631	-0.157
Mof_C 	C 	0.7177	0.5464	0.7875	-0.225
Mof_C 	C 	0.2141	0.0573	0.8368	0.18
Mof_C 	C 	0.5588	0.4805	0.8221	0.174
Mof_C 	C 	0.1019	0.9078	0.7887	-0.233
Mof_C 	C 	0.2213	0.296	0.4911	0.173
Mof_C 	C 	0.1736	0.3009	0.3953	-0.167
Mof_O 	O 	0.0661	0.7706	0.7659	-0.319
Mof_C 	C 	0.0372	0.8262	0.7682	0.444
Mof_Cd	Cd	0.61785	0.8559	0.75912	0.488
Mof_Cd	Cd	0.95596	0.65466	0.73475	0.499
_end
