data_functionalizedCrystal
_audit_creation_method	'EQeq! by Chris Wilmer'
_symmetry_space_group_name_H-M	'P1'
_symmetry_Int_Tables_number	1
_symmetry_cell_setting	triclinic
loop_
_symmetry_equiv_pos_as_xyz
  x,y,z
_cell_length_a	10.511
_cell_length_b	23.016
_cell_length_c	24.579
_cell_angle_alpha	90
_cell_angle_beta	98.643
_cell_angle_gamma	90
loop_
_atom_site_label
_atom_site_type_symbol
_atom_site_fract_x
_atom_site_fract_y
_atom_site_fract_z
_atom_site_charge
Mof_Ba	Ba	0.55729	0.7882	0.00168	2.108
Mof_Ba	Ba	0.23436	0.74919	0.4696	2.092
Mof_Ba	Ba	0.94271	0.2882	0.99832	2.099
Mof_Ba	Ba	0.26564	0.24919	0.5304	2.092
Mof_Ba	Ba	0.44271	0.2118	0.99832	2.108
Mof_Ba	Ba	0.76564	0.25081	0.5304	2.092
Mof_Ba	Ba	0.05729	0.7118	0.00168	2.1
Mof_Ba	Ba	0.73436	0.75081	0.4696	2.093
Mof_Sm	Sm	0.83236	0.99547	0.74288	2.438
Mof_Sm	Sm	0.66764	0.49547	0.25712	2.439
Mof_Sm	Sm	0.16764	0.00453	0.25712	2.438
Mof_Sm	Sm	0.33236	0.50453	0.74288	2.439
Mof_H 	H 	0.1626	0.9104	0.7557	0.057
Mof_H 	H 	0.2521	0.8304	0.8074	0.081
Mof_H 	H 	0.1387	0.9008	0.9423	0.067
Mof_H 	H 	0.1807	0.0266	0.9506	0.062
Mof_H 	H 	0.8555	0.1213	0.9493	0.041
Mof_H 	H 	0.7485	0.0592	0.8833	0.068
Mof_H 	H 	0.8292	0.915	0.23	0.077
Mof_H 	H 	0.7357	0.8457	0.1678	0.056
Mof_H 	H 	0.0822	0.768	0.1741	0.067
Mof_H 	H 	0.1901	0.7534	0.2834	0.06
Mof_H 	H 	0.5423	0.8237	0.3331	0.049
Mof_H 	H 	0.4816	0.9041	0.2774	0.071
Mof_H 	H 	0.0139	0.4818	0.3521	0.069
Mof_H 	H 	0.0966	0.4192	0.4215	0.057
Mof_H 	H 	0.7664	0.4332	0.4863	0.065
Mof_H 	H 	0.7021	0.5505	0.4932	0.058
Mof_H 	H 	0.3483	0.5956	0.4172	0.047
Mof_H 	H 	0.3781	0.5358	0.3435	0.069
Mof_H 	H 	0.3374	0.4104	0.2443	0.057
Mof_H 	H 	0.2479	0.3304	0.1926	0.08
Mof_H 	H 	0.3613	0.4008	0.0577	0.067
Mof_H 	H 	0.3193	0.5266	0.0494	0.059
Mof_H 	H 	0.6445	0.6213	0.0507	0.039
Mof_H 	H 	0.7515	0.5592	0.1167	0.07
Mof_H 	H 	0.6708	0.415	0.77	0.078
Mof_H 	H 	0.7643	0.3457	0.8322	0.054
Mof_H 	H 	0.4178	0.268	0.8259	0.065
Mof_H 	H 	0.3099	0.2534	0.7166	0.06
Mof_H 	H 	0.9577	0.3237	0.6669	0.046
Mof_H 	H 	0.0184	0.4041	0.7226	0.072
Mof_H 	H 	0.4861	0.9818	0.6479	0.071
Mof_H 	H 	0.4034	0.9192	0.5785	0.057
Mof_H 	H 	0.7336	0.9332	0.5137	0.065
Mof_H 	H 	0.7979	0.0505	0.5068	0.058
Mof_H 	H 	0.1517	0.0956	0.5828	0.047
Mof_H 	H 	0.1219	0.0358	0.6565	0.069
Mof_H 	H 	0.8374	0.0896	0.2443	0.057
Mof_H 	H 	0.7479	0.1696	0.1926	0.081
Mof_H 	H 	0.8613	0.0992	0.0577	0.067
Mof_H 	H 	0.8193	0.9734	0.0494	0.062
Mof_H 	H 	0.1445	0.8787	0.0507	0.041
Mof_H 	H 	0.2515	0.9408	0.1167	0.068
Mof_H 	H 	0.1708	0.085	0.77	0.077
Mof_H 	H 	0.2643	0.1543	0.8322	0.056
Mof_H 	H 	0.9178	0.232	0.8259	0.067
Mof_H 	H 	0.8099	0.2466	0.7166	0.06
Mof_H 	H 	0.4577	0.1763	0.6669	0.049
Mof_H 	H 	0.5184	0.0959	0.7226	0.071
Mof_H 	H 	0.9861	0.5182	0.6479	0.069
Mof_H 	H 	0.9034	0.5808	0.5785	0.057
Mof_H 	H 	0.2336	0.5668	0.5137	0.065
Mof_H 	H 	0.2979	0.4495	0.5068	0.058
Mof_H 	H 	0.6517	0.4044	0.5828	0.047
Mof_H 	H 	0.6219	0.4642	0.6565	0.069
Mof_H 	H 	0.6626	0.5896	0.7557	0.057
Mof_H 	H 	0.7521	0.6696	0.8074	0.08
Mof_H 	H 	0.6387	0.5992	0.9423	0.067
Mof_H 	H 	0.6807	0.4734	0.9506	0.059
Mof_H 	H 	0.3555	0.3787	0.9493	0.039
Mof_H 	H 	0.2485	0.4408	0.8833	0.07
Mof_H 	H 	0.3292	0.585	0.23	0.078
Mof_H 	H 	0.2357	0.6543	0.1678	0.054
Mof_H 	H 	0.5822	0.732	0.1741	0.065
Mof_H 	H 	0.6901	0.7466	0.2834	0.06
Mof_H 	H 	0.0423	0.6763	0.3331	0.046
Mof_H 	H 	0.9816	0.5959	0.2774	0.072
Mof_H 	H 	0.5139	0.0182	0.3521	0.071
Mof_H 	H 	0.5966	0.0808	0.4215	0.057
Mof_H 	H 	0.2664	0.0668	0.4863	0.065
Mof_H 	H 	0.2021	0.9495	0.4932	0.058
Mof_H 	H 	0.8483	0.9044	0.4172	0.047
Mof_H 	H 	0.8781	0.9642	0.3435	0.069
Mof_C 	C 	0.1573	0.9079	0.7938	0.048
Mof_C 	C 	0.2101	0.8604	0.8243	-0.037
Mof_C 	C 	0.2004	0.8577	0.8795	-0.035
Mof_C 	C 	0.1424	0.902	0.9039	-0.05
Mof_C 	C 	0.0899	0.9481	0.873	0.073
Mof_C 	C 	0.0288	0.9983	0.8963	0.064
Mof_C 	C 	0.093	0.0338	0.9363	-0.039
Mof_C 	C 	0.0273	0.0806	0.956	-0.074
Mof_C 	C 	0.9002	0.0897	0.936	-0.015
Mof_C 	C 	0.8371	0.0531	0.8967	0.014
Mof_C 	C 	0.8804	0.8846	0.2186	0.021
Mof_C 	C 	0.8249	0.8436	0.1818	-0.013
Mof_C 	C 	0.8985	0.7996	0.1651	-0.079
Mof_C 	C 	0.0297	0.7978	0.1856	-0.038
Mof_C 	C 	0.0828	0.8391	0.2225	0.059
Mof_C 	C 	0.2155	0.8338	0.2525	0.075
Mof_C 	C 	0.2493	0.7846	0.2835	-0.032
Mof_C 	C 	0.3711	0.781	0.3149	-0.071
Mof_C 	C 	0.4584	0.8258	0.3125	-0.01
Mof_C 	C 	0.4219	0.8736	0.2797	0.027
Mof_C 	C 	0.9637	0.4716	0.3797	0.022
Mof_C 	C 	0.0122	0.4345	0.4205	-0.019
Mof_C 	C 	0.939	0.4186	0.4608	-0.07
Mof_C 	C 	0.8178	0.4429	0.459	-0.036
Mof_C 	C 	0.7723	0.4811	0.4177	0.067
Mof_C 	C 	0.6516	0.5141	0.4189	0.07
Mof_C 	C 	0.6356	0.5481	0.4625	-0.02
Mof_C 	C 	0.5224	0.5795	0.4625	-0.093
Mof_C 	C 	0.4263	0.5746	0.418	0.001
Mof_C 	C 	0.444	0.5389	0.3744	0.029
Mof_C 	C 	0.3427	0.4079	0.2062	0.048
Mof_C 	C 	0.2899	0.3604	0.1757	-0.037
Mof_C 	C 	0.2996	0.3577	0.1205	-0.036
Mof_C 	C 	0.3576	0.402	0.0961	-0.052
Mof_C 	C 	0.4101	0.4481	0.127	0.074
Mof_C 	C 	0.4712	0.4983	0.1037	0.056
Mof_C 	C 	0.407	0.5338	0.0637	-0.031
Mof_C 	C 	0.4727	0.5806	0.044	-0.084
Mof_C 	C 	0.5998	0.5897	0.064	-0.005
Mof_C 	C 	0.6629	0.5531	0.1033	0.01
Mof_C 	C 	0.6196	0.3846	0.7814	0.016
Mof_C 	C 	0.6751	0.3436	0.8182	-0.01
Mof_C 	C 	0.6015	0.2996	0.8349	-0.085
Mof_C 	C 	0.4703	0.2978	0.8144	-0.032
Mof_C 	C 	0.4172	0.3391	0.7775	0.058
Mof_C 	C 	0.2845	0.3338	0.7475	0.075
Mof_C 	C 	0.2507	0.2846	0.7165	-0.032
Mof_C 	C 	0.1289	0.281	0.6851	-0.072
Mof_C 	C 	0.0416	0.3258	0.6875	-0.005
Mof_C 	C 	0.0781	0.3736	0.7203	0.025
Mof_C 	C 	0.5363	0.9716	0.6203	0.019
Mof_C 	C 	0.4878	0.9345	0.5795	-0.017
Mof_C 	C 	0.561	0.9186	0.5392	-0.07
Mof_C 	C 	0.6822	0.9429	0.541	-0.036
Mof_C 	C 	0.7277	0.9811	0.5823	0.067
Mof_C 	C 	0.8484	0.0141	0.5811	0.07
Mof_C 	C 	0.8644	0.0481	0.5375	-0.02
Mof_C 	C 	0.9776	0.0795	0.5375	-0.093
Mof_C 	C 	0.0737	0.0746	0.582	0.001
Mof_C 	C 	0.056	0.0389	0.6256	0.029
Mof_C 	C 	0.8427	0.0921	0.2062	0.048
Mof_C 	C 	0.7899	0.1396	0.1757	-0.037
Mof_C 	C 	0.7996	0.1423	0.1205	-0.035
Mof_C 	C 	0.8576	0.098	0.0961	-0.05
Mof_C 	C 	0.9101	0.0519	0.127	0.073
Mof_C 	C 	0.9712	0.0017	0.1037	0.064
Mof_C 	C 	0.907	0.9662	0.0637	-0.039
Mof_C 	C 	0.9727	0.9194	0.044	-0.074
Mof_C 	C 	0.0998	0.9103	0.064	-0.015
Mof_C 	C 	0.1629	0.9469	0.1033	0.014
Mof_C 	C 	0.1196	0.1154	0.7814	0.021
Mof_C 	C 	0.1751	0.1564	0.8182	-0.013
Mof_C 	C 	0.1015	0.2004	0.8349	-0.079
Mof_C 	C 	0.9703	0.2022	0.8144	-0.038
Mof_C 	C 	0.9172	0.1609	0.7775	0.059
Mof_C 	C 	0.7845	0.1662	0.7475	0.075
Mof_C 	C 	0.7507	0.2154	0.7165	-0.032
Mof_C 	C 	0.6289	0.219	0.6851	-0.071
Mof_C 	C 	0.5416	0.1742	0.6875	-0.01
Mof_C 	C 	0.5781	0.1264	0.7203	0.027
Mof_C 	C 	0.0363	0.5284	0.6203	0.022
Mof_C 	C 	0.9878	0.5655	0.5795	-0.019
Mof_C 	C 	0.061	0.5814	0.5392	-0.07
Mof_C 	C 	0.1822	0.5571	0.541	-0.036
Mof_C 	C 	0.2277	0.5189	0.5823	0.067
Mof_C 	C 	0.3484	0.4859	0.5811	0.07
Mof_C 	C 	0.3644	0.4519	0.5375	-0.02
Mof_C 	C 	0.4776	0.4205	0.5375	-0.093
Mof_C 	C 	0.5737	0.4254	0.582	0.001
Mof_C 	C 	0.556	0.4611	0.6256	0.029
Mof_C 	C 	0.6573	0.5921	0.7938	0.048
Mof_C 	C 	0.7101	0.6396	0.8243	-0.037
Mof_C 	C 	0.7004	0.6423	0.8795	-0.036
Mof_C 	C 	0.6424	0.598	0.9039	-0.052
Mof_C 	C 	0.5899	0.5519	0.873	0.074
Mof_C 	C 	0.5288	0.5017	0.8963	0.056
Mof_C 	C 	0.593	0.4662	0.9363	-0.031
Mof_C 	C 	0.5273	0.4194	0.956	-0.084
Mof_C 	C 	0.4002	0.4103	0.936	-0.005
Mof_C 	C 	0.3371	0.4469	0.8967	0.01
Mof_C 	C 	0.3804	0.6154	0.2186	0.016
Mof_C 	C 	0.3249	0.6564	0.1818	-0.01
Mof_C 	C 	0.3985	0.7004	0.1651	-0.085
Mof_C 	C 	0.5297	0.7022	0.1856	-0.032
Mof_C 	C 	0.5828	0.6609	0.2225	0.058
Mof_C 	C 	0.7155	0.6662	0.2525	0.075
Mof_C 	C 	0.7493	0.7154	0.2835	-0.032
Mof_C 	C 	0.8711	0.719	0.3149	-0.072
Mof_C 	C 	0.9584	0.6742	0.3125	-0.005
Mof_C 	C 	0.9219	0.6264	0.2797	0.025
Mof_C 	C 	0.4637	0.0284	0.3797	0.019
Mof_C 	C 	0.5122	0.0655	0.4205	-0.017
Mof_C 	C 	0.439	0.0814	0.4608	-0.07
Mof_C 	C 	0.3178	0.0571	0.459	-0.036
Mof_C 	C 	0.2723	0.0189	0.4177	0.067
Mof_C 	C 	0.1516	0.9859	0.4189	0.07
Mof_C 	C 	0.1356	0.9519	0.4625	-0.02
Mof_C 	C 	0.0224	0.9205	0.4625	-0.093
Mof_C 	C 	0.9263	0.9254	0.418	0.001
Mof_C 	C 	0.944	0.9611	0.3744	0.029
Mof_S 	S 	0.25801	0.79423	0.91751	0.499
Mof_S 	S 	0.1133	0.12755	0.00664	0.601
Mof_S 	S 	0.83452	0.74258	0.11974	0.636
Mof_S 	S 	0.4053	0.72062	0.35943	0.523
Mof_S 	S 	0.51254	0.62691	0.51911	0.612
Mof_S 	S 	0.00013	0.37182	0.51625	0.58
Mof_S 	S 	0.24199	0.29423	0.08249	0.5
Mof_S 	S 	0.3867	0.62755	0.99336	0.61
Mof_S 	S 	0.66548	0.24258	0.88026	0.638
Mof_S 	S 	0.0947	0.22062	0.64057	0.524
Mof_S 	S 	0.98746	0.12691	0.48089	0.611
Mof_S 	S 	0.49987	0.87182	0.48375	0.58
Mof_S 	S 	0.74199	0.20577	0.08249	0.499
Mof_S 	S 	0.8867	0.87245	0.99336	0.601
Mof_S 	S 	0.16548	0.25742	0.88026	0.636
Mof_S 	S 	0.5947	0.27938	0.64057	0.523
Mof_S 	S 	0.48746	0.37309	0.48089	0.612
Mof_S 	S 	0.99987	0.62818	0.48375	0.58
Mof_S 	S 	0.75801	0.70577	0.91751	0.5
Mof_S 	S 	0.6133	0.37245	0.00664	0.61
Mof_S 	S 	0.33452	0.75742	0.11974	0.638
Mof_S 	S 	0.9053	0.77938	0.35943	0.524
Mof_S 	S 	0.01254	0.87309	0.51911	0.611
Mof_S 	S 	0.50013	0.12818	0.51625	0.58
Mof_N 	N 	0.0986	0.9501	0.8188	-0.052
Mof_N 	N 	0.9005	0.0085	0.877	-0.05
Mof_N 	N 	0.0068	0.8819	0.2384	-0.045
Mof_N 	N 	0.3018	0.8771	0.2509	-0.045
Mof_N 	N 	0.8455	0.494	0.3782	-0.055
Mof_N 	N 	0.5539	0.5086	0.3755	-0.039
Mof_N 	N 	0.4014	0.4501	0.1812	-0.053
Mof_N 	N 	0.5995	0.5085	0.123	-0.047
Mof_N 	N 	0.4932	0.3819	0.7616	-0.043
Mof_N 	N 	0.1982	0.3771	0.7491	-0.045
Mof_N 	N 	0.6545	0.994	0.6218	-0.055
Mof_N 	N 	0.9461	0.0086	0.6245	-0.04
Mof_N 	N 	0.9014	0.0499	0.1812	-0.052
Mof_N 	N 	0.0995	0.9915	0.123	-0.05
Mof_N 	N 	0.9932	0.1181	0.7616	-0.045
Mof_N 	N 	0.6982	0.1229	0.7491	-0.045
Mof_N 	N 	0.1545	0.506	0.6218	-0.055
Mof_N 	N 	0.4461	0.4914	0.6245	-0.039
Mof_N 	N 	0.5986	0.5499	0.8188	-0.053
Mof_N 	N 	0.4005	0.4915	0.877	-0.047
Mof_N 	N 	0.5068	0.6181	0.2384	-0.043
Mof_N 	N 	0.8018	0.6229	0.2509	-0.045
Mof_N 	N 	0.3455	0.006	0.3782	-0.055
Mof_N 	N 	0.0539	0.9914	0.3755	-0.04
Mof_O 	O 	0.0501	0.9945	0.78891	-0.337
Mof_O 	O 	0.8387	0.97335	0.83934	-0.317
Mof_O 	O 	0.0578	0.91891	0.2769	-0.333
Mof_O 	O 	0.2696	0.92424	0.22063	-0.345
Mof_O 	O 	0.8011	0.53177	0.33883	-0.322
Mof_O 	O 	0.567	0.47143	0.33567	-0.332
Mof_O 	O 	0.3739	0.7769	0.8965	-0.342
Mof_O 	O 	0.1552	0.752	0.9071	-0.373
Mof_O 	O 	0.2835	0.8122	0.9747	-0.432
Mof_O 	O 	0.1471	0.091	0.05504	-0.258
Mof_O 	O 	0.0223	0.17307	0.0147	-0.431
Mof_O 	O 	0.224	0.1462	0.9831	-0.449
Mof_O 	O 	0.7024	0.7593	0.1006	-0.441
Mof_O 	O 	0.9143	0.7428	0.0772	-0.467
Mof_O 	O 	0.8465	0.6909	0.1525	-0.28
Mof_O 	O 	0.2802	0.69856	0.36859	-0.391
Mof_O 	O 	0.4772	0.68059	0.33024	-0.249
Mof_O 	O 	0.4778	0.74378	0.41013	-0.474
Mof_O 	O 	0.3903	0.6566	0.5057	-0.444
Mof_O 	O 	0.6233	0.66453	0.52208	-0.446
Mof_O 	O 	0.5182	0.58887	0.56659	-0.258
Mof_O 	O 	0.0925	0.4079	0.5508	-0.268
Mof_O 	O 	0.8912	0.356	0.5419	-0.427
Mof_O 	O 	0.0594	0.3241	0.4915	-0.45
Mof_O 	O 	0.6229	0.9505	0.7465	-0.314
Mof_O 	O 	0.8705	0.89104	0.74601	-0.33
Mof_O 	O 	0.212	0.83908	0.39612	-0.264
Mof_O 	O 	0.2352	0.7267	0.5818	-0.259
Mof_O 	O 	0.5581	0.8889	0.9238	-0.215
Mof_O 	O 	0.497	0.879	0.0776	-0.234
Mof_O 	O 	0.4499	0.4945	0.21109	-0.339
Mof_O 	O 	0.6613	0.47335	0.16066	-0.317
Mof_O 	O 	0.4422	0.41891	0.7231	-0.333
Mof_O 	O 	0.2304	0.42424	0.77937	-0.345
Mof_O 	O 	0.6989	0.03177	0.66117	-0.322
Mof_O 	O 	0.933	0.97143	0.66433	-0.332
Mof_O 	O 	0.1261	0.2769	0.1035	-0.342
Mof_O 	O 	0.3448	0.252	0.0929	-0.374
Mof_O 	O 	0.2165	0.3122	0.0253	-0.434
Mof_O 	O 	0.3529	0.591	0.94496	-0.258
Mof_O 	O 	0.4777	0.67307	0.9853	-0.432
Mof_O 	O 	0.276	0.6462	0.0169	-0.452
Mof_O 	O 	0.7976	0.2593	0.8994	-0.442
Mof_O 	O 	0.5857	0.2428	0.9228	-0.47
Mof_O 	O 	0.6535	0.1909	0.8475	-0.281
Mof_O 	O 	0.2198	0.19856	0.63141	-0.391
Mof_O 	O 	0.0228	0.18059	0.66976	-0.248
Mof_O 	O 	0.0222	0.24378	0.58987	-0.474
Mof_O 	O 	0.1097	0.1566	0.4943	-0.444
Mof_O 	O 	0.8767	0.16453	0.47792	-0.446
Mof_O 	O 	0.9818	0.08887	0.43341	-0.258
Mof_O 	O 	0.4075	0.9079	0.4492	-0.268
Mof_O 	O 	0.6088	0.856	0.4581	-0.427
Mof_O 	O 	0.4406	0.8241	0.5085	-0.45
Mof_O 	O 	0.8771	0.4505	0.2535	-0.314
Mof_O 	O 	0.6295	0.39104	0.25399	-0.329
Mof_O 	O 	0.288	0.33908	0.60388	-0.264
Mof_O 	O 	0.2648	0.2267	0.4182	-0.259
Mof_O 	O 	0.9419	0.3889	0.0762	-0.214
Mof_O 	O 	0.003	0.379	0.9224	-0.231
Mof_O 	O 	0.9499	0.0055	0.21109	-0.337
Mof_O 	O 	0.1613	0.02665	0.16066	-0.317
Mof_O 	O 	0.9422	0.08109	0.7231	-0.333
Mof_O 	O 	0.7304	0.07576	0.77937	-0.345
Mof_O 	O 	0.1989	0.46823	0.66117	-0.322
Mof_O 	O 	0.433	0.52857	0.66433	-0.332
Mof_O 	O 	0.6261	0.2231	0.1035	-0.342
Mof_O 	O 	0.8448	0.248	0.0929	-0.373
Mof_O 	O 	0.7165	0.1878	0.0253	-0.432
Mof_O 	O 	0.8529	0.909	0.94496	-0.258
Mof_O 	O 	0.9777	0.82693	0.9853	-0.431
Mof_O 	O 	0.776	0.8538	0.0169	-0.449
Mof_O 	O 	0.2976	0.2407	0.8994	-0.441
Mof_O 	O 	0.0857	0.2572	0.9228	-0.467
Mof_O 	O 	0.1535	0.3091	0.8475	-0.28
Mof_O 	O 	0.7198	0.30144	0.63141	-0.391
Mof_O 	O 	0.5228	0.31941	0.66976	-0.249
Mof_O 	O 	0.5222	0.25622	0.58987	-0.474
Mof_O 	O 	0.6097	0.3434	0.4943	-0.444
Mof_O 	O 	0.3767	0.33547	0.47792	-0.446
Mof_O 	O 	0.4818	0.41113	0.43341	-0.258
Mof_O 	O 	0.9075	0.5921	0.4492	-0.268
Mof_O 	O 	0.1088	0.644	0.4581	-0.427
Mof_O 	O 	0.9406	0.6759	0.5085	-0.45
Mof_O 	O 	0.3771	0.0495	0.2535	-0.314
Mof_O 	O 	0.1295	0.10896	0.25399	-0.33
Mof_O 	O 	0.788	0.16092	0.60388	-0.264
Mof_O 	O 	0.7648	0.2733	0.4182	-0.259
Mof_O 	O 	0.4419	0.1111	0.0762	-0.215
Mof_O 	O 	0.503	0.121	0.9224	-0.234
Mof_O 	O 	0.5501	0.5055	0.78891	-0.339
Mof_O 	O 	0.3387	0.52665	0.83934	-0.317
Mof_O 	O 	0.5578	0.58109	0.2769	-0.333
Mof_O 	O 	0.7696	0.57576	0.22063	-0.345
Mof_O 	O 	0.3011	0.96823	0.33883	-0.322
Mof_O 	O 	0.067	0.02857	0.33567	-0.332
Mof_O 	O 	0.8739	0.7231	0.8965	-0.342
Mof_O 	O 	0.6552	0.748	0.9071	-0.374
Mof_O 	O 	0.7835	0.6878	0.9747	-0.434
Mof_O 	O 	0.6471	0.409	0.05504	-0.258
Mof_O 	O 	0.5223	0.32693	0.0147	-0.432
Mof_O 	O 	0.724	0.3538	0.9831	-0.452
Mof_O 	O 	0.2024	0.7407	0.1006	-0.442
Mof_O 	O 	0.4143	0.7572	0.0772	-0.47
Mof_O 	O 	0.3465	0.8091	0.1525	-0.281
Mof_O 	O 	0.7802	0.80144	0.36859	-0.391
Mof_O 	O 	0.9772	0.81941	0.33024	-0.248
Mof_O 	O 	0.9778	0.75622	0.41013	-0.474
Mof_O 	O 	0.8903	0.8434	0.5057	-0.444
Mof_O 	O 	0.1233	0.83547	0.52208	-0.446
Mof_O 	O 	0.0182	0.91113	0.56659	-0.258
Mof_O 	O 	0.5925	0.0921	0.5508	-0.268
Mof_O 	O 	0.3912	0.144	0.5419	-0.427
Mof_O 	O 	0.5594	0.1759	0.4915	-0.45
Mof_O 	O 	0.1229	0.5495	0.7465	-0.314
Mof_O 	O 	0.3705	0.60896	0.74601	-0.329
Mof_O 	O 	0.712	0.66092	0.39612	-0.264
Mof_O 	O 	0.7352	0.7733	0.5818	-0.259
Mof_O 	O 	0.0581	0.6111	0.9238	-0.214
Mof_O 	O 	0.997	0.621	0.0776	-0.231
Mof_Cl	Cl	0.35413	0.01146	0.73425	-0.273
Mof_Cl	Cl	0.14587	0.51146	0.26575	-0.274
Mof_Cl	Cl	0.64587	0.98854	0.26575	-0.273
Mof_Cl	Cl	0.85413	0.48854	0.73425	-0.274
_end
