data_functionalizedCrystal
_audit_creation_method	'EQeq! by Chris Wilmer'
_symmetry_space_group_name_H-M	'P1'
_symmetry_Int_Tables_number	1
_symmetry_cell_setting	triclinic
loop_
_symmetry_equiv_pos_as_xyz
  x,y,z
_cell_length_a	39.484
_cell_length_b	39.484
_cell_length_c	39.484
_cell_angle_alpha	90
_cell_angle_beta	90
_cell_angle_gamma	90
loop_
_atom_site_label
_atom_site_type_symbol
_atom_site_fract_x
_atom_site_fract_y
_atom_site_fract_z
_atom_site_charge
Mof_Cu	Cu	0.96457	0.45913	0.73619	0.909
Mof_Cu	Cu	0.97446	0.47071	0.67147	0.902
Mof_Cu	Cu	0.53543	0.54087	0.23619	0.909
Mof_Cu	Cu	0.52554	0.52929	0.17147	0.902
Mof_Cu	Cu	0.03543	0.95913	0.76381	0.909
Mof_Cu	Cu	0.02554	0.97071	0.82853	0.902
Mof_Cu	Cu	0.46457	0.04087	0.26381	0.909
Mof_Cu	Cu	0.47446	0.02929	0.32853	0.902
Mof_Cu	Cu	0.73619	0.96457	0.45913	0.909
Mof_Cu	Cu	0.67147	0.97446	0.47071	0.902
Mof_Cu	Cu	0.23619	0.53543	0.54087	0.909
Mof_Cu	Cu	0.17147	0.52554	0.52929	0.902
Mof_Cu	Cu	0.76381	0.03543	0.95913	0.909
Mof_Cu	Cu	0.82853	0.02554	0.97071	0.902
Mof_Cu	Cu	0.26381	0.46457	0.04087	0.909
Mof_Cu	Cu	0.32853	0.47446	0.02929	0.902
Mof_Cu	Cu	0.45913	0.73619	0.96457	0.909
Mof_Cu	Cu	0.47071	0.67147	0.97446	0.902
Mof_Cu	Cu	0.54087	0.23619	0.53543	0.91
Mof_Cu	Cu	0.52929	0.17147	0.52554	0.903
Mof_Cu	Cu	0.95913	0.76381	0.03543	0.91
Mof_Cu	Cu	0.97071	0.82853	0.02554	0.903
Mof_Cu	Cu	0.04087	0.26381	0.46457	0.91
Mof_Cu	Cu	0.02929	0.32853	0.47446	0.903
Mof_Cu	Cu	0.03543	0.54087	0.26381	0.91
Mof_Cu	Cu	0.02554	0.52929	0.32853	0.903
Mof_Cu	Cu	0.46457	0.45913	0.76381	0.91
Mof_Cu	Cu	0.47446	0.47071	0.82853	0.903
Mof_Cu	Cu	0.96457	0.04087	0.23619	0.91
Mof_Cu	Cu	0.97446	0.02929	0.17147	0.903
Mof_Cu	Cu	0.53543	0.95913	0.73619	0.91
Mof_Cu	Cu	0.52554	0.97071	0.67147	0.903
Mof_Cu	Cu	0.26381	0.03543	0.54087	0.91
Mof_Cu	Cu	0.32853	0.02554	0.52929	0.903
Mof_Cu	Cu	0.76381	0.46457	0.45913	0.91
Mof_Cu	Cu	0.82853	0.47446	0.47071	0.903
Mof_Cu	Cu	0.23619	0.96457	0.04087	0.91
Mof_Cu	Cu	0.17147	0.97446	0.02929	0.903
Mof_Cu	Cu	0.73619	0.53543	0.95913	0.91
Mof_Cu	Cu	0.67147	0.52554	0.97071	0.903
Mof_Cu	Cu	0.54087	0.26381	0.03543	0.91
Mof_Cu	Cu	0.52929	0.32853	0.02554	0.903
Mof_Cu	Cu	0.45913	0.76381	0.46457	0.91
Mof_Cu	Cu	0.47071	0.82853	0.47446	0.903
Mof_Cu	Cu	0.04087	0.23619	0.96457	0.91
Mof_Cu	Cu	0.02929	0.17147	0.97446	0.903
Mof_Cu	Cu	0.95913	0.73619	0.53543	0.91
Mof_Cu	Cu	0.97071	0.67147	0.52554	0.903
Mof_H 	H 	0.9633	0.5808	0.6697	0.052
Mof_H 	H 	0.9682	0.5582	0.7723	0.048
Mof_H 	H 	0.9682	0.6224	0.7838	0.069
Mof_H 	H 	0.9626	0.7295	0.7015	0.074
Mof_H 	H 	0.9591	0.7399	0.643	0.036
Mof_H 	H 	0.9599	0.6365	0.6278	0.057
Mof_H 	H 	0.0112	0.6729	0.7777	0.065
Mof_H 	H 	0.0153	0.7125	0.8188	0.063
Mof_H 	H 	0.9341	0.7592	0.7895	0.06
Mof_H 	H 	0.925	0.7187	0.746	0.065
Mof_H 	H 	0.9675	0.7178	0.8772	0.08
Mof_H 	H 	0.963	0.7282	0.9319	0.026
Mof_H 	H 	0.989	0.8283	0.9186	0.051
Mof_H 	H 	0.0066	0.8679	0.8606	0.04
Mof_H 	H 	0.0021	0.7996	0.7663	0.095
Mof_H 	H 	0.0159	0.852	0.7612	0.008
Mof_H 	H 	0.5367	0.4192	0.1697	0.052
Mof_H 	H 	0.5318	0.4418	0.2723	0.048
Mof_H 	H 	0.5318	0.3776	0.2838	0.069
Mof_H 	H 	0.5374	0.2705	0.2015	0.074
Mof_H 	H 	0.5409	0.2601	0.143	0.036
Mof_H 	H 	0.5401	0.3635	0.1278	0.057
Mof_H 	H 	0.4888	0.3271	0.2777	0.065
Mof_H 	H 	0.4847	0.2875	0.3188	0.063
Mof_H 	H 	0.5659	0.2408	0.2895	0.06
Mof_H 	H 	0.575	0.2813	0.246	0.065
Mof_H 	H 	0.5325	0.2822	0.3772	0.08
Mof_H 	H 	0.537	0.2718	0.4319	0.026
Mof_H 	H 	0.511	0.1717	0.4186	0.051
Mof_H 	H 	0.4934	0.1321	0.3606	0.04
Mof_H 	H 	0.4979	0.2004	0.2663	0.095
Mof_H 	H 	0.4841	0.148	0.2612	0.008
Mof_H 	H 	0.0367	0.0808	0.8303	0.052
Mof_H 	H 	0.0318	0.0582	0.7277	0.048
Mof_H 	H 	0.0318	0.1224	0.7162	0.069
Mof_H 	H 	0.0374	0.2295	0.7985	0.074
Mof_H 	H 	0.0409	0.2399	0.857	0.036
Mof_H 	H 	0.0401	0.1365	0.8722	0.057
Mof_H 	H 	0.9888	0.1729	0.7223	0.065
Mof_H 	H 	0.9847	0.2125	0.6812	0.063
Mof_H 	H 	0.0659	0.2592	0.7105	0.06
Mof_H 	H 	0.075	0.2187	0.754	0.065
Mof_H 	H 	0.0325	0.2178	0.6228	0.08
Mof_H 	H 	0.037	0.2282	0.5681	0.026
Mof_H 	H 	0.011	0.3283	0.5814	0.051
Mof_H 	H 	0.9934	0.3679	0.6394	0.04
Mof_H 	H 	0.9979	0.2996	0.7337	0.095
Mof_H 	H 	0.9841	0.352	0.7388	0.008
Mof_H 	H 	0.4633	0.9192	0.3303	0.052
Mof_H 	H 	0.4682	0.9418	0.2277	0.048
Mof_H 	H 	0.4682	0.8776	0.2162	0.069
Mof_H 	H 	0.4626	0.7705	0.2985	0.074
Mof_H 	H 	0.4591	0.7601	0.357	0.036
Mof_H 	H 	0.4599	0.8635	0.3722	0.057
Mof_H 	H 	0.5112	0.8271	0.2223	0.065
Mof_H 	H 	0.5153	0.7875	0.1812	0.063
Mof_H 	H 	0.4341	0.7408	0.2105	0.06
Mof_H 	H 	0.425	0.7813	0.254	0.065
Mof_H 	H 	0.4675	0.7822	0.1228	0.08
Mof_H 	H 	0.463	0.7718	0.0681	0.026
Mof_H 	H 	0.489	0.6717	0.0814	0.051
Mof_H 	H 	0.5066	0.6321	0.1394	0.04
Mof_H 	H 	0.5021	0.7004	0.2337	0.095
Mof_H 	H 	0.5159	0.648	0.2388	0.008
Mof_H 	H 	0.6697	0.9633	0.5808	0.052
Mof_H 	H 	0.7723	0.9682	0.5582	0.048
Mof_H 	H 	0.7838	0.9682	0.6224	0.069
Mof_H 	H 	0.7015	0.9626	0.7295	0.074
Mof_H 	H 	0.643	0.9591	0.7399	0.036
Mof_H 	H 	0.6278	0.9599	0.6365	0.057
Mof_H 	H 	0.7777	0.0112	0.6729	0.065
Mof_H 	H 	0.8188	0.0153	0.7125	0.063
Mof_H 	H 	0.7895	0.9341	0.7592	0.06
Mof_H 	H 	0.746	0.925	0.7187	0.065
Mof_H 	H 	0.8772	0.9675	0.7178	0.08
Mof_H 	H 	0.9319	0.963	0.7282	0.026
Mof_H 	H 	0.9186	0.989	0.8283	0.051
Mof_H 	H 	0.8606	0.0066	0.8679	0.04
Mof_H 	H 	0.7663	0.0021	0.7996	0.095
Mof_H 	H 	0.7612	0.0159	0.852	0.008
Mof_H 	H 	0.1697	0.5367	0.4192	0.052
Mof_H 	H 	0.2723	0.5318	0.4418	0.048
Mof_H 	H 	0.2838	0.5318	0.3776	0.069
Mof_H 	H 	0.2015	0.5374	0.2705	0.074
Mof_H 	H 	0.143	0.5409	0.2601	0.036
Mof_H 	H 	0.1278	0.5401	0.3635	0.057
Mof_H 	H 	0.2777	0.4888	0.3271	0.065
Mof_H 	H 	0.3188	0.4847	0.2875	0.063
Mof_H 	H 	0.2895	0.5659	0.2408	0.06
Mof_H 	H 	0.246	0.575	0.2813	0.065
Mof_H 	H 	0.3772	0.5325	0.2822	0.08
Mof_H 	H 	0.4319	0.537	0.2718	0.026
Mof_H 	H 	0.4186	0.511	0.1717	0.051
Mof_H 	H 	0.3606	0.4934	0.1321	0.04
Mof_H 	H 	0.2663	0.4979	0.2004	0.095
Mof_H 	H 	0.2612	0.4841	0.148	0.008
Mof_H 	H 	0.8303	0.0367	0.0808	0.052
Mof_H 	H 	0.7277	0.0318	0.0582	0.048
Mof_H 	H 	0.7162	0.0318	0.1224	0.069
Mof_H 	H 	0.7985	0.0374	0.2295	0.074
Mof_H 	H 	0.857	0.0409	0.2399	0.036
Mof_H 	H 	0.8722	0.0401	0.1365	0.057
Mof_H 	H 	0.7223	0.9888	0.1729	0.065
Mof_H 	H 	0.6812	0.9847	0.2125	0.063
Mof_H 	H 	0.7105	0.0659	0.2592	0.06
Mof_H 	H 	0.754	0.075	0.2187	0.065
Mof_H 	H 	0.6228	0.0325	0.2178	0.08
Mof_H 	H 	0.5681	0.037	0.2282	0.026
Mof_H 	H 	0.5814	0.011	0.3283	0.051
Mof_H 	H 	0.6394	0.9934	0.3679	0.04
Mof_H 	H 	0.7337	0.9979	0.2996	0.095
Mof_H 	H 	0.7388	0.9841	0.352	0.008
Mof_H 	H 	0.3303	0.4633	0.9192	0.052
Mof_H 	H 	0.2277	0.4682	0.9418	0.048
Mof_H 	H 	0.2162	0.4682	0.8776	0.069
Mof_H 	H 	0.2985	0.4626	0.7705	0.074
Mof_H 	H 	0.357	0.4591	0.7601	0.036
Mof_H 	H 	0.3722	0.4599	0.8635	0.057
Mof_H 	H 	0.2223	0.5112	0.8271	0.065
Mof_H 	H 	0.1812	0.5153	0.7875	0.063
Mof_H 	H 	0.2105	0.4341	0.7408	0.06
Mof_H 	H 	0.254	0.425	0.7813	0.065
Mof_H 	H 	0.1228	0.4675	0.7822	0.08
Mof_H 	H 	0.0681	0.463	0.7718	0.026
Mof_H 	H 	0.0814	0.489	0.6717	0.051
Mof_H 	H 	0.1394	0.5066	0.6321	0.04
Mof_H 	H 	0.2337	0.5021	0.7004	0.095
Mof_H 	H 	0.2388	0.5159	0.648	0.008
Mof_H 	H 	0.5808	0.6697	0.9633	0.052
Mof_H 	H 	0.5582	0.7723	0.9682	0.048
Mof_H 	H 	0.6224	0.7838	0.9682	0.069
Mof_H 	H 	0.7295	0.7015	0.9626	0.074
Mof_H 	H 	0.7399	0.643	0.9591	0.036
Mof_H 	H 	0.6365	0.6278	0.9599	0.057
Mof_H 	H 	0.6729	0.7777	0.0112	0.065
Mof_H 	H 	0.7125	0.8188	0.0153	0.063
Mof_H 	H 	0.7592	0.7895	0.9341	0.06
Mof_H 	H 	0.7187	0.746	0.925	0.065
Mof_H 	H 	0.7178	0.8772	0.9675	0.08
Mof_H 	H 	0.7282	0.9319	0.963	0.026
Mof_H 	H 	0.8283	0.9186	0.989	0.051
Mof_H 	H 	0.8679	0.8606	0.0066	0.04
Mof_H 	H 	0.7996	0.7663	0.0021	0.095
Mof_H 	H 	0.852	0.7612	0.0159	0.008
Mof_H 	H 	0.4192	0.1697	0.5367	0.052
Mof_H 	H 	0.4418	0.2723	0.5318	0.048
Mof_H 	H 	0.3776	0.2838	0.5318	0.069
Mof_H 	H 	0.2705	0.2015	0.5374	0.074
Mof_H 	H 	0.2601	0.143	0.5409	0.036
Mof_H 	H 	0.3635	0.1278	0.5401	0.057
Mof_H 	H 	0.3271	0.2777	0.4888	0.065
Mof_H 	H 	0.2875	0.3188	0.4847	0.063
Mof_H 	H 	0.2408	0.2895	0.5659	0.06
Mof_H 	H 	0.2813	0.246	0.575	0.065
Mof_H 	H 	0.2822	0.3772	0.5325	0.08
Mof_H 	H 	0.2718	0.4319	0.537	0.026
Mof_H 	H 	0.1717	0.4186	0.511	0.051
Mof_H 	H 	0.1321	0.3606	0.4934	0.04
Mof_H 	H 	0.2004	0.2663	0.4979	0.095
Mof_H 	H 	0.148	0.2612	0.4841	0.008
Mof_H 	H 	0.0808	0.8303	0.0367	0.052
Mof_H 	H 	0.0582	0.7277	0.0318	0.048
Mof_H 	H 	0.1224	0.7162	0.0318	0.069
Mof_H 	H 	0.2295	0.7985	0.0374	0.074
Mof_H 	H 	0.2399	0.857	0.0409	0.036
Mof_H 	H 	0.1365	0.8722	0.0401	0.057
Mof_H 	H 	0.1729	0.7223	0.9888	0.065
Mof_H 	H 	0.2125	0.6812	0.9847	0.063
Mof_H 	H 	0.2592	0.7105	0.0659	0.06
Mof_H 	H 	0.2187	0.754	0.075	0.065
Mof_H 	H 	0.2178	0.6228	0.0325	0.08
Mof_H 	H 	0.2282	0.5681	0.037	0.026
Mof_H 	H 	0.3283	0.5814	0.011	0.051
Mof_H 	H 	0.3679	0.6394	0.9934	0.04
Mof_H 	H 	0.2996	0.7337	0.9979	0.095
Mof_H 	H 	0.352	0.7388	0.9841	0.008
Mof_H 	H 	0.9192	0.3303	0.4633	0.052
Mof_H 	H 	0.9418	0.2277	0.4682	0.048
Mof_H 	H 	0.8776	0.2162	0.4682	0.069
Mof_H 	H 	0.7705	0.2985	0.4626	0.074
Mof_H 	H 	0.7601	0.357	0.4591	0.036
Mof_H 	H 	0.8635	0.3722	0.4599	0.057
Mof_H 	H 	0.8271	0.2223	0.5112	0.065
Mof_H 	H 	0.7875	0.1812	0.5153	0.063
Mof_H 	H 	0.7408	0.2105	0.4341	0.06
Mof_H 	H 	0.7813	0.254	0.425	0.065
Mof_H 	H 	0.7822	0.1228	0.4675	0.08
Mof_H 	H 	0.7718	0.0681	0.463	0.026
Mof_H 	H 	0.6717	0.0814	0.489	0.051
Mof_H 	H 	0.6321	0.1394	0.5066	0.04
Mof_H 	H 	0.7004	0.2337	0.5021	0.095
Mof_H 	H 	0.648	0.2388	0.5159	0.008
Mof_H 	H 	0.0367	0.4192	0.3303	0.052
Mof_H 	H 	0.0318	0.4418	0.2277	0.048
Mof_H 	H 	0.0318	0.3776	0.2162	0.069
Mof_H 	H 	0.0374	0.2705	0.2985	0.074
Mof_H 	H 	0.0409	0.2601	0.357	0.036
Mof_H 	H 	0.0401	0.3635	0.3722	0.057
Mof_H 	H 	0.9888	0.3271	0.2223	0.065
Mof_H 	H 	0.9847	0.2875	0.1812	0.063
Mof_H 	H 	0.0659	0.2408	0.2105	0.06
Mof_H 	H 	0.075	0.2813	0.254	0.065
Mof_H 	H 	0.0325	0.2822	0.1228	0.08
Mof_H 	H 	0.037	0.2718	0.0681	0.026
Mof_H 	H 	0.011	0.1717	0.0814	0.051
Mof_H 	H 	0.9934	0.1321	0.1394	0.04
Mof_H 	H 	0.9979	0.2004	0.2337	0.095
Mof_H 	H 	0.9841	0.148	0.2388	0.008
Mof_H 	H 	0.4633	0.5808	0.8303	0.052
Mof_H 	H 	0.4682	0.5582	0.7277	0.048
Mof_H 	H 	0.4682	0.6224	0.7162	0.069
Mof_H 	H 	0.4626	0.7295	0.7985	0.074
Mof_H 	H 	0.4591	0.7399	0.857	0.036
Mof_H 	H 	0.4599	0.6365	0.8722	0.057
Mof_H 	H 	0.5112	0.6729	0.7223	0.065
Mof_H 	H 	0.5153	0.7125	0.6812	0.063
Mof_H 	H 	0.4341	0.7592	0.7105	0.06
Mof_H 	H 	0.425	0.7187	0.754	0.065
Mof_H 	H 	0.4675	0.7178	0.6228	0.08
Mof_H 	H 	0.463	0.7282	0.5681	0.026
Mof_H 	H 	0.489	0.8283	0.5814	0.051
Mof_H 	H 	0.5066	0.8679	0.6394	0.04
Mof_H 	H 	0.5021	0.7996	0.7337	0.095
Mof_H 	H 	0.5159	0.852	0.7388	0.008
Mof_H 	H 	0.9633	0.9192	0.1697	0.052
Mof_H 	H 	0.9682	0.9418	0.2723	0.048
Mof_H 	H 	0.9682	0.8776	0.2838	0.069
Mof_H 	H 	0.9626	0.7705	0.2015	0.074
Mof_H 	H 	0.9591	0.7601	0.143	0.036
Mof_H 	H 	0.9599	0.8635	0.1278	0.057
Mof_H 	H 	0.0112	0.8271	0.2777	0.065
Mof_H 	H 	0.0153	0.7875	0.3188	0.063
Mof_H 	H 	0.9341	0.7408	0.2895	0.06
Mof_H 	H 	0.925	0.7813	0.246	0.065
Mof_H 	H 	0.9675	0.7822	0.3772	0.08
Mof_H 	H 	0.963	0.7718	0.4319	0.026
Mof_H 	H 	0.989	0.6717	0.4186	0.051
Mof_H 	H 	0.0066	0.6321	0.3606	0.04
Mof_H 	H 	0.0021	0.7004	0.2663	0.095
Mof_H 	H 	0.0159	0.648	0.2612	0.008
Mof_H 	H 	0.5367	0.0808	0.6697	0.052
Mof_H 	H 	0.5318	0.0582	0.7723	0.048
Mof_H 	H 	0.5318	0.1224	0.7838	0.069
Mof_H 	H 	0.5374	0.2295	0.7015	0.074
Mof_H 	H 	0.5409	0.2399	0.643	0.036
Mof_H 	H 	0.5401	0.1365	0.6278	0.057
Mof_H 	H 	0.4888	0.1729	0.7777	0.065
Mof_H 	H 	0.4847	0.2125	0.8188	0.063
Mof_H 	H 	0.5659	0.2592	0.7895	0.06
Mof_H 	H 	0.575	0.2187	0.746	0.065
Mof_H 	H 	0.5325	0.2178	0.8772	0.08
Mof_H 	H 	0.537	0.2282	0.9319	0.026
Mof_H 	H 	0.511	0.3283	0.9186	0.051
Mof_H 	H 	0.4934	0.3679	0.8606	0.04
Mof_H 	H 	0.4979	0.2996	0.7663	0.095
Mof_H 	H 	0.4841	0.352	0.7612	0.008
Mof_H 	H 	0.3303	0.0367	0.4192	0.052
Mof_H 	H 	0.2277	0.0318	0.4418	0.048
Mof_H 	H 	0.2162	0.0318	0.3776	0.069
Mof_H 	H 	0.2985	0.0374	0.2705	0.074
Mof_H 	H 	0.357	0.0409	0.2601	0.036
Mof_H 	H 	0.3722	0.0401	0.3635	0.057
Mof_H 	H 	0.2223	0.9888	0.3271	0.065
Mof_H 	H 	0.1812	0.9847	0.2875	0.063
Mof_H 	H 	0.2105	0.0659	0.2408	0.06
Mof_H 	H 	0.254	0.075	0.2813	0.065
Mof_H 	H 	0.1228	0.0325	0.2822	0.08
Mof_H 	H 	0.0681	0.037	0.2718	0.026
Mof_H 	H 	0.0814	0.011	0.1717	0.051
Mof_H 	H 	0.1394	0.9934	0.1321	0.04
Mof_H 	H 	0.2337	0.9979	0.2004	0.095
Mof_H 	H 	0.2388	0.9841	0.148	0.008
Mof_H 	H 	0.8303	0.4633	0.5808	0.052
Mof_H 	H 	0.7277	0.4682	0.5582	0.048
Mof_H 	H 	0.7162	0.4682	0.6224	0.069
Mof_H 	H 	0.7985	0.4626	0.7295	0.074
Mof_H 	H 	0.857	0.4591	0.7399	0.036
Mof_H 	H 	0.8722	0.4599	0.6365	0.057
Mof_H 	H 	0.7223	0.5112	0.6729	0.065
Mof_H 	H 	0.6812	0.5153	0.7125	0.063
Mof_H 	H 	0.7105	0.4341	0.7592	0.06
Mof_H 	H 	0.754	0.425	0.7187	0.065
Mof_H 	H 	0.6228	0.4675	0.7178	0.08
Mof_H 	H 	0.5681	0.463	0.7282	0.026
Mof_H 	H 	0.5814	0.489	0.8283	0.051
Mof_H 	H 	0.6394	0.5066	0.8679	0.04
Mof_H 	H 	0.7337	0.5021	0.7996	0.095
Mof_H 	H 	0.7388	0.5159	0.852	0.008
Mof_H 	H 	0.1697	0.9633	0.9192	0.052
Mof_H 	H 	0.2723	0.9682	0.9418	0.048
Mof_H 	H 	0.2838	0.9682	0.8776	0.069
Mof_H 	H 	0.2015	0.9626	0.7705	0.074
Mof_H 	H 	0.143	0.9591	0.7601	0.036
Mof_H 	H 	0.1278	0.9599	0.8635	0.057
Mof_H 	H 	0.2777	0.0112	0.8271	0.065
Mof_H 	H 	0.3188	0.0153	0.7875	0.063
Mof_H 	H 	0.2895	0.9341	0.7408	0.06
Mof_H 	H 	0.246	0.925	0.7813	0.065
Mof_H 	H 	0.3772	0.9675	0.7822	0.08
Mof_H 	H 	0.4319	0.963	0.7718	0.026
Mof_H 	H 	0.4186	0.989	0.6717	0.051
Mof_H 	H 	0.3606	0.0066	0.6321	0.04
Mof_H 	H 	0.2663	0.0021	0.7004	0.095
Mof_H 	H 	0.2612	0.0159	0.648	0.008
Mof_H 	H 	0.6697	0.5367	0.0808	0.052
Mof_H 	H 	0.7723	0.5318	0.0582	0.048
Mof_H 	H 	0.7838	0.5318	0.1224	0.069
Mof_H 	H 	0.7015	0.5374	0.2295	0.074
Mof_H 	H 	0.643	0.5409	0.2399	0.036
Mof_H 	H 	0.6278	0.5401	0.1365	0.057
Mof_H 	H 	0.7777	0.4888	0.1729	0.065
Mof_H 	H 	0.8188	0.4847	0.2125	0.063
Mof_H 	H 	0.7895	0.5659	0.2592	0.06
Mof_H 	H 	0.746	0.575	0.2187	0.065
Mof_H 	H 	0.8772	0.5325	0.2178	0.08
Mof_H 	H 	0.9319	0.537	0.2282	0.026
Mof_H 	H 	0.9186	0.511	0.3283	0.051
Mof_H 	H 	0.8606	0.4934	0.3679	0.04
Mof_H 	H 	0.7663	0.4979	0.2996	0.095
Mof_H 	H 	0.7612	0.4841	0.352	0.008
Mof_H 	H 	0.4192	0.3303	0.0367	0.052
Mof_H 	H 	0.4418	0.2277	0.0318	0.048
Mof_H 	H 	0.3776	0.2162	0.0318	0.069
Mof_H 	H 	0.2705	0.2985	0.0374	0.074
Mof_H 	H 	0.2601	0.357	0.0409	0.036
Mof_H 	H 	0.3635	0.3722	0.0401	0.057
Mof_H 	H 	0.3271	0.2223	0.9888	0.065
Mof_H 	H 	0.2875	0.1812	0.9847	0.063
Mof_H 	H 	0.2408	0.2105	0.0659	0.06
Mof_H 	H 	0.2813	0.254	0.075	0.065
Mof_H 	H 	0.2822	0.1228	0.0325	0.08
Mof_H 	H 	0.2718	0.0681	0.037	0.026
Mof_H 	H 	0.1717	0.0814	0.011	0.051
Mof_H 	H 	0.1321	0.1394	0.9934	0.04
Mof_H 	H 	0.2004	0.2337	0.9979	0.095
Mof_H 	H 	0.148	0.2388	0.9841	0.008
Mof_H 	H 	0.5808	0.8303	0.4633	0.052
Mof_H 	H 	0.5582	0.7277	0.4682	0.048
Mof_H 	H 	0.6224	0.7162	0.4682	0.069
Mof_H 	H 	0.7295	0.7985	0.4626	0.074
Mof_H 	H 	0.7399	0.857	0.4591	0.036
Mof_H 	H 	0.6365	0.8722	0.4599	0.057
Mof_H 	H 	0.6729	0.7223	0.5112	0.065
Mof_H 	H 	0.7125	0.6812	0.5153	0.063
Mof_H 	H 	0.7592	0.7105	0.4341	0.06
Mof_H 	H 	0.7187	0.754	0.425	0.065
Mof_H 	H 	0.7178	0.6228	0.4675	0.08
Mof_H 	H 	0.7282	0.5681	0.463	0.026
Mof_H 	H 	0.8283	0.5814	0.489	0.051
Mof_H 	H 	0.8679	0.6394	0.5066	0.04
Mof_H 	H 	0.7996	0.7337	0.5021	0.095
Mof_H 	H 	0.852	0.7388	0.5159	0.008
Mof_H 	H 	0.9192	0.1697	0.9633	0.052
Mof_H 	H 	0.9418	0.2723	0.9682	0.048
Mof_H 	H 	0.8776	0.2838	0.9682	0.069
Mof_H 	H 	0.7705	0.2015	0.9626	0.074
Mof_H 	H 	0.7601	0.143	0.9591	0.036
Mof_H 	H 	0.8635	0.1278	0.9599	0.057
Mof_H 	H 	0.8271	0.2777	0.0112	0.065
Mof_H 	H 	0.7875	0.3188	0.0153	0.063
Mof_H 	H 	0.7408	0.2895	0.9341	0.06
Mof_H 	H 	0.7813	0.246	0.925	0.065
Mof_H 	H 	0.7822	0.3772	0.9675	0.08
Mof_H 	H 	0.7718	0.4319	0.963	0.026
Mof_H 	H 	0.6717	0.4186	0.989	0.051
Mof_H 	H 	0.6321	0.3606	0.0066	0.04
Mof_H 	H 	0.7004	0.2663	0.0021	0.095
Mof_H 	H 	0.648	0.2612	0.0159	0.008
Mof_H 	H 	0.0808	0.6697	0.5367	0.052
Mof_H 	H 	0.0582	0.7723	0.5318	0.048
Mof_H 	H 	0.1224	0.7838	0.5318	0.069
Mof_H 	H 	0.2295	0.7015	0.5374	0.074
Mof_H 	H 	0.2399	0.643	0.5409	0.036
Mof_H 	H 	0.1365	0.6278	0.5401	0.057
Mof_H 	H 	0.1729	0.7777	0.4888	0.065
Mof_H 	H 	0.2125	0.8188	0.4847	0.063
Mof_H 	H 	0.2592	0.7895	0.5659	0.06
Mof_H 	H 	0.2187	0.746	0.575	0.065
Mof_H 	H 	0.2178	0.8772	0.5325	0.08
Mof_H 	H 	0.2282	0.9319	0.537	0.026
Mof_H 	H 	0.3283	0.9186	0.511	0.051
Mof_H 	H 	0.3679	0.8606	0.4934	0.04
Mof_H 	H 	0.2996	0.7663	0.4979	0.095
Mof_H 	H 	0.352	0.7612	0.4841	0.008
Mof_C 	C 	0.96649	0.5281	0.71489	0.281
Mof_C 	C 	0.96422	0.58839	0.69254	-0.006
Mof_C 	C 	0.96595	0.56334	0.71915	-0.072
Mof_C 	C 	0.9673	0.57419	0.75439	-0.001
Mof_C 	C 	0.96715	0.613	0.7616	-0.098
Mof_C 	C 	0.96521	0.6337	0.7302	0.101
Mof_C 	C 	0.96384	0.62029	0.69826	-0.034
Mof_C 	C 	0.96211	0.64817	0.67739	-0.007
Mof_C 	C 	0.96237	0.67987	0.69919	0.083
Mof_C 	C 	0.96172	0.7108	0.6863	-0.119
Mof_C 	C 	0.95985	0.7175	0.6518	0.028
Mof_C 	C 	0.95917	0.6883	0.63036	-0.078
Mof_C 	C 	0.96035	0.65488	0.64322	-0.022
Mof_C 	C 	0.95768	0.69265	0.59272	0.343
Mof_C 	C 	0.96868	0.69051	0.7564	0.117
Mof_C 	C 	0.9945	0.6902	0.779	-0.088
Mof_C 	C 	0.9967	0.7144	0.8036	-0.08
Mof_C 	C 	0.97729	0.73858	0.80859	0.09
Mof_C 	C 	0.94969	0.74101	0.7867	-0.07
Mof_C 	C 	0.9442	0.7172	0.7604	-0.088
Mof_C 	C 	0.98814	0.80087	0.875	-0.025
Mof_C 	C 	0.98205	0.769	0.8626	0.111
Mof_C 	C 	0.9718	0.73984	0.88597	-0.138
Mof_C 	C 	0.96923	0.74584	0.9168	0.056
Mof_C 	C 	0.97567	0.77949	0.92991	-0.095
Mof_C 	C 	0.98495	0.80649	0.90924	-0.004
Mof_C 	C 	0.97152	0.78569	0.96806	0.363
Mof_C 	C 	0.00555	0.85329	0.84152	0.034
Mof_C 	C 	0.99641	0.81988	0.84812	-0.039
Mof_C 	C 	0.99517	0.7975	0.8175	0.123
Mof_C 	C 	0.00298	0.81309	0.78619	-0.183
Mof_C 	C 	0.01096	0.84378	0.78324	0.104
Mof_C 	C 	0.01312	0.86763	0.8114	-0.153
Mof_C 	C 	0.02162	0.90084	0.80711	0.357
Mof_C 	C 	0.53351	0.4719	0.21489	0.281
Mof_C 	C 	0.53578	0.41161	0.19254	-0.006
Mof_C 	C 	0.53405	0.43666	0.21915	-0.072
Mof_C 	C 	0.5327	0.42581	0.25439	-0.001
Mof_C 	C 	0.53285	0.387	0.2616	-0.098
Mof_C 	C 	0.53479	0.3663	0.2302	0.101
Mof_C 	C 	0.53616	0.37971	0.19826	-0.034
Mof_C 	C 	0.53789	0.35183	0.17739	-0.007
Mof_C 	C 	0.53763	0.32013	0.19919	0.083
Mof_C 	C 	0.53828	0.2892	0.1863	-0.119
Mof_C 	C 	0.54015	0.2825	0.1518	0.028
Mof_C 	C 	0.54083	0.3117	0.13036	-0.078
Mof_C 	C 	0.53965	0.34512	0.14322	-0.022
Mof_C 	C 	0.54232	0.30735	0.09272	0.343
Mof_C 	C 	0.53132	0.30949	0.2564	0.117
Mof_C 	C 	0.5055	0.3098	0.279	-0.088
Mof_C 	C 	0.5033	0.2856	0.3036	-0.08
Mof_C 	C 	0.52271	0.26142	0.30859	0.09
Mof_C 	C 	0.55031	0.25899	0.2867	-0.07
Mof_C 	C 	0.5558	0.2828	0.2604	-0.088
Mof_C 	C 	0.51186	0.19913	0.375	-0.025
Mof_C 	C 	0.51795	0.231	0.3626	0.111
Mof_C 	C 	0.5282	0.26016	0.38597	-0.138
Mof_C 	C 	0.53077	0.25416	0.4168	0.056
Mof_C 	C 	0.52433	0.22051	0.42991	-0.095
Mof_C 	C 	0.51505	0.19351	0.40924	-0.004
Mof_C 	C 	0.52848	0.21431	0.46806	0.363
Mof_C 	C 	0.49445	0.14671	0.34152	0.034
Mof_C 	C 	0.50359	0.18012	0.34812	-0.039
Mof_C 	C 	0.50483	0.2025	0.3175	0.123
Mof_C 	C 	0.49702	0.18691	0.28619	-0.182
Mof_C 	C 	0.48904	0.15622	0.28324	0.104
Mof_C 	C 	0.48688	0.13237	0.3114	-0.153
Mof_C 	C 	0.47838	0.09916	0.30711	0.357
Mof_C 	C 	0.03351	0.0281	0.78511	0.281
Mof_C 	C 	0.03578	0.08839	0.80746	-0.006
Mof_C 	C 	0.03405	0.06334	0.78085	-0.072
Mof_C 	C 	0.0327	0.07419	0.74561	-0.001
Mof_C 	C 	0.03285	0.113	0.7384	-0.098
Mof_C 	C 	0.03479	0.1337	0.7698	0.101
Mof_C 	C 	0.03616	0.12029	0.80174	-0.034
Mof_C 	C 	0.03789	0.14817	0.82261	-0.007
Mof_C 	C 	0.03763	0.17987	0.80081	0.083
Mof_C 	C 	0.03828	0.2108	0.8137	-0.119
Mof_C 	C 	0.04015	0.2175	0.8482	0.028
Mof_C 	C 	0.04083	0.1883	0.86964	-0.078
Mof_C 	C 	0.03965	0.15488	0.85678	-0.022
Mof_C 	C 	0.04232	0.19265	0.90728	0.343
Mof_C 	C 	0.03132	0.19051	0.7436	0.117
Mof_C 	C 	0.0055	0.1902	0.721	-0.088
Mof_C 	C 	0.0033	0.2144	0.6964	-0.08
Mof_C 	C 	0.02271	0.23858	0.69141	0.09
Mof_C 	C 	0.05031	0.24101	0.7133	-0.07
Mof_C 	C 	0.0558	0.2172	0.7396	-0.088
Mof_C 	C 	0.01186	0.30087	0.625	-0.025
Mof_C 	C 	0.01795	0.269	0.6374	0.111
Mof_C 	C 	0.0282	0.23984	0.61403	-0.138
Mof_C 	C 	0.03077	0.24584	0.5832	0.056
Mof_C 	C 	0.02433	0.27949	0.57009	-0.095
Mof_C 	C 	0.01505	0.30649	0.59076	-0.004
Mof_C 	C 	0.02848	0.28569	0.53194	0.363
Mof_C 	C 	0.99445	0.35329	0.65848	0.034
Mof_C 	C 	0.00359	0.31988	0.65188	-0.039
Mof_C 	C 	0.00483	0.2975	0.6825	0.123
Mof_C 	C 	0.99702	0.31309	0.71381	-0.182
Mof_C 	C 	0.98904	0.34378	0.71676	0.104
Mof_C 	C 	0.98688	0.36763	0.6886	-0.153
Mof_C 	C 	0.97838	0.40084	0.69289	0.357
Mof_C 	C 	0.46649	0.9719	0.28511	0.281
Mof_C 	C 	0.46422	0.91161	0.30746	-0.006
Mof_C 	C 	0.46595	0.93666	0.28085	-0.072
Mof_C 	C 	0.4673	0.92581	0.24561	-0.001
Mof_C 	C 	0.46715	0.887	0.2384	-0.098
Mof_C 	C 	0.46521	0.8663	0.2698	0.101
Mof_C 	C 	0.46384	0.87971	0.30174	-0.034
Mof_C 	C 	0.46211	0.85183	0.32261	-0.007
Mof_C 	C 	0.46237	0.82013	0.30081	0.083
Mof_C 	C 	0.46172	0.7892	0.3137	-0.119
Mof_C 	C 	0.45985	0.7825	0.3482	0.028
Mof_C 	C 	0.45917	0.8117	0.36964	-0.078
Mof_C 	C 	0.46035	0.84512	0.35678	-0.022
Mof_C 	C 	0.45768	0.80735	0.40728	0.343
Mof_C 	C 	0.46868	0.80949	0.2436	0.117
Mof_C 	C 	0.4945	0.8098	0.221	-0.088
Mof_C 	C 	0.4967	0.7856	0.1964	-0.08
Mof_C 	C 	0.47729	0.76142	0.19141	0.09
Mof_C 	C 	0.44969	0.75899	0.2133	-0.07
Mof_C 	C 	0.4442	0.7828	0.2396	-0.088
Mof_C 	C 	0.48814	0.69913	0.125	-0.025
Mof_C 	C 	0.48205	0.731	0.1374	0.111
Mof_C 	C 	0.4718	0.76016	0.11403	-0.138
Mof_C 	C 	0.46923	0.75416	0.0832	0.056
Mof_C 	C 	0.47567	0.72051	0.07009	-0.095
Mof_C 	C 	0.48495	0.69351	0.09076	-0.004
Mof_C 	C 	0.47152	0.71431	0.03194	0.363
Mof_C 	C 	0.50555	0.64671	0.15848	0.034
Mof_C 	C 	0.49641	0.68012	0.15188	-0.039
Mof_C 	C 	0.49517	0.7025	0.1825	0.123
Mof_C 	C 	0.50298	0.68691	0.21381	-0.182
Mof_C 	C 	0.51096	0.65622	0.21676	0.104
Mof_C 	C 	0.51312	0.63237	0.1886	-0.153
Mof_C 	C 	0.52162	0.59916	0.19289	0.357
Mof_C 	C 	0.71489	0.96649	0.5281	0.281
Mof_C 	C 	0.69254	0.96422	0.58839	-0.006
Mof_C 	C 	0.71915	0.96595	0.56334	-0.072
Mof_C 	C 	0.75439	0.9673	0.57419	-0.001
Mof_C 	C 	0.7616	0.96715	0.613	-0.098
Mof_C 	C 	0.7302	0.96521	0.6337	0.101
Mof_C 	C 	0.69826	0.96384	0.62029	-0.034
Mof_C 	C 	0.67739	0.96211	0.64817	-0.007
Mof_C 	C 	0.69919	0.96237	0.67987	0.083
Mof_C 	C 	0.6863	0.96172	0.7108	-0.119
Mof_C 	C 	0.6518	0.95985	0.7175	0.028
Mof_C 	C 	0.63036	0.95917	0.6883	-0.078
Mof_C 	C 	0.64322	0.96035	0.65488	-0.022
Mof_C 	C 	0.59272	0.95768	0.69265	0.343
Mof_C 	C 	0.7564	0.96868	0.69051	0.117
Mof_C 	C 	0.779	0.9945	0.6902	-0.088
Mof_C 	C 	0.8036	0.9967	0.7144	-0.08
Mof_C 	C 	0.80859	0.97729	0.73858	0.09
Mof_C 	C 	0.7867	0.94969	0.74101	-0.07
Mof_C 	C 	0.7604	0.9442	0.7172	-0.088
Mof_C 	C 	0.875	0.98814	0.80087	-0.025
Mof_C 	C 	0.8626	0.98205	0.769	0.111
Mof_C 	C 	0.88597	0.9718	0.73984	-0.138
Mof_C 	C 	0.9168	0.96923	0.74584	0.056
Mof_C 	C 	0.92991	0.97567	0.77949	-0.095
Mof_C 	C 	0.90924	0.98495	0.80649	-0.004
Mof_C 	C 	0.96806	0.97152	0.78569	0.363
Mof_C 	C 	0.84152	0.00555	0.85329	0.034
Mof_C 	C 	0.84812	0.99641	0.81988	-0.039
Mof_C 	C 	0.8175	0.99517	0.7975	0.123
Mof_C 	C 	0.78619	0.00298	0.81309	-0.183
Mof_C 	C 	0.78324	0.01096	0.84378	0.104
Mof_C 	C 	0.8114	0.01312	0.86763	-0.153
Mof_C 	C 	0.80711	0.02162	0.90084	0.357
Mof_C 	C 	0.21489	0.53351	0.4719	0.281
Mof_C 	C 	0.19254	0.53578	0.41161	-0.006
Mof_C 	C 	0.21915	0.53405	0.43666	-0.072
Mof_C 	C 	0.25439	0.5327	0.42581	-0.001
Mof_C 	C 	0.2616	0.53285	0.387	-0.098
Mof_C 	C 	0.2302	0.53479	0.3663	0.101
Mof_C 	C 	0.19826	0.53616	0.37971	-0.034
Mof_C 	C 	0.17739	0.53789	0.35183	-0.007
Mof_C 	C 	0.19919	0.53763	0.32013	0.083
Mof_C 	C 	0.1863	0.53828	0.2892	-0.119
Mof_C 	C 	0.1518	0.54015	0.2825	0.028
Mof_C 	C 	0.13036	0.54083	0.3117	-0.078
Mof_C 	C 	0.14322	0.53965	0.34512	-0.022
Mof_C 	C 	0.09272	0.54232	0.30735	0.343
Mof_C 	C 	0.2564	0.53132	0.30949	0.117
Mof_C 	C 	0.279	0.5055	0.3098	-0.088
Mof_C 	C 	0.3036	0.5033	0.2856	-0.08
Mof_C 	C 	0.30859	0.52271	0.26142	0.09
Mof_C 	C 	0.2867	0.55031	0.25899	-0.07
Mof_C 	C 	0.2604	0.5558	0.2828	-0.088
Mof_C 	C 	0.375	0.51186	0.19913	-0.025
Mof_C 	C 	0.3626	0.51795	0.231	0.111
Mof_C 	C 	0.38597	0.5282	0.26016	-0.138
Mof_C 	C 	0.4168	0.53077	0.25416	0.056
Mof_C 	C 	0.42991	0.52433	0.22051	-0.095
Mof_C 	C 	0.40924	0.51505	0.19351	-0.004
Mof_C 	C 	0.46806	0.52848	0.21431	0.363
Mof_C 	C 	0.34152	0.49445	0.14671	0.034
Mof_C 	C 	0.34812	0.50359	0.18012	-0.039
Mof_C 	C 	0.3175	0.50483	0.2025	0.123
Mof_C 	C 	0.28619	0.49702	0.18691	-0.182
Mof_C 	C 	0.28324	0.48904	0.15622	0.104
Mof_C 	C 	0.3114	0.48688	0.13237	-0.153
Mof_C 	C 	0.30711	0.47838	0.09916	0.357
Mof_C 	C 	0.78511	0.03351	0.0281	0.281
Mof_C 	C 	0.80746	0.03578	0.08839	-0.006
Mof_C 	C 	0.78085	0.03405	0.06334	-0.072
Mof_C 	C 	0.74561	0.0327	0.07419	-0.001
Mof_C 	C 	0.7384	0.03285	0.113	-0.098
Mof_C 	C 	0.7698	0.03479	0.1337	0.101
Mof_C 	C 	0.80174	0.03616	0.12029	-0.034
Mof_C 	C 	0.82261	0.03789	0.14817	-0.007
Mof_C 	C 	0.80081	0.03763	0.17987	0.083
Mof_C 	C 	0.8137	0.03828	0.2108	-0.119
Mof_C 	C 	0.8482	0.04015	0.2175	0.028
Mof_C 	C 	0.86964	0.04083	0.1883	-0.078
Mof_C 	C 	0.85678	0.03965	0.15488	-0.022
Mof_C 	C 	0.90728	0.04232	0.19265	0.343
Mof_C 	C 	0.7436	0.03132	0.19051	0.117
Mof_C 	C 	0.721	0.0055	0.1902	-0.088
Mof_C 	C 	0.6964	0.0033	0.2144	-0.08
Mof_C 	C 	0.69141	0.02271	0.23858	0.09
Mof_C 	C 	0.7133	0.05031	0.24101	-0.07
Mof_C 	C 	0.7396	0.0558	0.2172	-0.088
Mof_C 	C 	0.625	0.01186	0.30087	-0.025
Mof_C 	C 	0.6374	0.01795	0.269	0.111
Mof_C 	C 	0.61403	0.0282	0.23984	-0.138
Mof_C 	C 	0.5832	0.03077	0.24584	0.056
Mof_C 	C 	0.57009	0.02433	0.27949	-0.095
Mof_C 	C 	0.59076	0.01505	0.30649	-0.004
Mof_C 	C 	0.53194	0.02848	0.28569	0.363
Mof_C 	C 	0.65848	0.99445	0.35329	0.034
Mof_C 	C 	0.65188	0.00359	0.31988	-0.039
Mof_C 	C 	0.6825	0.00483	0.2975	0.123
Mof_C 	C 	0.71381	0.99702	0.31309	-0.182
Mof_C 	C 	0.71676	0.98904	0.34378	0.104
Mof_C 	C 	0.6886	0.98688	0.36763	-0.153
Mof_C 	C 	0.69289	0.97838	0.40084	0.357
Mof_C 	C 	0.28511	0.46649	0.9719	0.281
Mof_C 	C 	0.30746	0.46422	0.91161	-0.006
Mof_C 	C 	0.28085	0.46595	0.93666	-0.072
Mof_C 	C 	0.24561	0.4673	0.92581	-0.001
Mof_C 	C 	0.2384	0.46715	0.887	-0.098
Mof_C 	C 	0.2698	0.46521	0.8663	0.101
Mof_C 	C 	0.30174	0.46384	0.87971	-0.034
Mof_C 	C 	0.32261	0.46211	0.85183	-0.007
Mof_C 	C 	0.30081	0.46237	0.82013	0.083
Mof_C 	C 	0.3137	0.46172	0.7892	-0.119
Mof_C 	C 	0.3482	0.45985	0.7825	0.028
Mof_C 	C 	0.36964	0.45917	0.8117	-0.078
Mof_C 	C 	0.35678	0.46035	0.84512	-0.022
Mof_C 	C 	0.40728	0.45768	0.80735	0.343
Mof_C 	C 	0.2436	0.46868	0.80949	0.117
Mof_C 	C 	0.221	0.4945	0.8098	-0.088
Mof_C 	C 	0.1964	0.4967	0.7856	-0.08
Mof_C 	C 	0.19141	0.47729	0.76142	0.09
Mof_C 	C 	0.2133	0.44969	0.75899	-0.07
Mof_C 	C 	0.2396	0.4442	0.7828	-0.088
Mof_C 	C 	0.125	0.48814	0.69913	-0.025
Mof_C 	C 	0.1374	0.48205	0.731	0.111
Mof_C 	C 	0.11403	0.4718	0.76016	-0.138
Mof_C 	C 	0.0832	0.46923	0.75416	0.056
Mof_C 	C 	0.07009	0.47567	0.72051	-0.095
Mof_C 	C 	0.09076	0.48495	0.69351	-0.004
Mof_C 	C 	0.03194	0.47152	0.71431	0.363
Mof_C 	C 	0.15848	0.50555	0.64671	0.034
Mof_C 	C 	0.15188	0.49641	0.68012	-0.039
Mof_C 	C 	0.1825	0.49517	0.7025	0.123
Mof_C 	C 	0.21381	0.50298	0.68691	-0.182
Mof_C 	C 	0.21676	0.51096	0.65622	0.104
Mof_C 	C 	0.1886	0.51312	0.63237	-0.153
Mof_C 	C 	0.19289	0.52162	0.59916	0.357
Mof_C 	C 	0.5281	0.71489	0.96649	0.281
Mof_C 	C 	0.58839	0.69254	0.96422	-0.006
Mof_C 	C 	0.56334	0.71915	0.96595	-0.072
Mof_C 	C 	0.57419	0.75439	0.9673	-0.001
Mof_C 	C 	0.613	0.7616	0.96715	-0.098
Mof_C 	C 	0.6337	0.7302	0.96521	0.101
Mof_C 	C 	0.62029	0.69826	0.96384	-0.034
Mof_C 	C 	0.64817	0.67739	0.96211	-0.007
Mof_C 	C 	0.67987	0.69919	0.96237	0.083
Mof_C 	C 	0.7108	0.6863	0.96172	-0.119
Mof_C 	C 	0.7175	0.6518	0.95985	0.028
Mof_C 	C 	0.6883	0.63036	0.95917	-0.078
Mof_C 	C 	0.65488	0.64322	0.96035	-0.022
Mof_C 	C 	0.69265	0.59272	0.95768	0.343
Mof_C 	C 	0.69051	0.7564	0.96868	0.117
Mof_C 	C 	0.6902	0.779	0.9945	-0.088
Mof_C 	C 	0.7144	0.8036	0.9967	-0.08
Mof_C 	C 	0.73858	0.80859	0.97729	0.09
Mof_C 	C 	0.74101	0.7867	0.94969	-0.07
Mof_C 	C 	0.7172	0.7604	0.9442	-0.088
Mof_C 	C 	0.80087	0.875	0.98814	-0.025
Mof_C 	C 	0.769	0.8626	0.98205	0.111
Mof_C 	C 	0.73984	0.88597	0.9718	-0.138
Mof_C 	C 	0.74584	0.9168	0.96923	0.056
Mof_C 	C 	0.77949	0.92991	0.97567	-0.095
Mof_C 	C 	0.80649	0.90924	0.98495	-0.004
Mof_C 	C 	0.78569	0.96806	0.97152	0.363
Mof_C 	C 	0.85329	0.84152	0.00555	0.034
Mof_C 	C 	0.81988	0.84812	0.99641	-0.039
Mof_C 	C 	0.7975	0.8175	0.99517	0.123
Mof_C 	C 	0.81309	0.78619	0.00298	-0.183
Mof_C 	C 	0.84378	0.78324	0.01096	0.104
Mof_C 	C 	0.86763	0.8114	0.01312	-0.153
Mof_C 	C 	0.90084	0.80711	0.02162	0.357
Mof_C 	C 	0.4719	0.21489	0.53351	0.281
Mof_C 	C 	0.41161	0.19254	0.53578	-0.006
Mof_C 	C 	0.43666	0.21915	0.53405	-0.072
Mof_C 	C 	0.42581	0.25439	0.5327	-0.001
Mof_C 	C 	0.387	0.2616	0.53285	-0.098
Mof_C 	C 	0.3663	0.2302	0.53479	0.101
Mof_C 	C 	0.37971	0.19826	0.53616	-0.034
Mof_C 	C 	0.35183	0.17739	0.53789	-0.007
Mof_C 	C 	0.32013	0.19919	0.53763	0.083
Mof_C 	C 	0.2892	0.1863	0.53828	-0.119
Mof_C 	C 	0.2825	0.1518	0.54015	0.028
Mof_C 	C 	0.3117	0.13036	0.54083	-0.078
Mof_C 	C 	0.34512	0.14322	0.53965	-0.022
Mof_C 	C 	0.30735	0.09272	0.54232	0.343
Mof_C 	C 	0.30949	0.2564	0.53132	0.117
Mof_C 	C 	0.3098	0.279	0.5055	-0.088
Mof_C 	C 	0.2856	0.3036	0.5033	-0.08
Mof_C 	C 	0.26142	0.30859	0.52271	0.09
Mof_C 	C 	0.25899	0.2867	0.55031	-0.07
Mof_C 	C 	0.2828	0.2604	0.5558	-0.088
Mof_C 	C 	0.19913	0.375	0.51186	-0.025
Mof_C 	C 	0.231	0.3626	0.51795	0.111
Mof_C 	C 	0.26016	0.38597	0.5282	-0.138
Mof_C 	C 	0.25416	0.4168	0.53077	0.056
Mof_C 	C 	0.22051	0.42991	0.52433	-0.095
Mof_C 	C 	0.19351	0.40924	0.51505	-0.004
Mof_C 	C 	0.21431	0.46806	0.52848	0.363
Mof_C 	C 	0.14671	0.34152	0.49445	0.034
Mof_C 	C 	0.18012	0.34812	0.50359	-0.039
Mof_C 	C 	0.2025	0.3175	0.50483	0.123
Mof_C 	C 	0.18691	0.28619	0.49702	-0.182
Mof_C 	C 	0.15622	0.28324	0.48904	0.104
Mof_C 	C 	0.13237	0.3114	0.48688	-0.153
Mof_C 	C 	0.09916	0.30711	0.47838	0.357
Mof_C 	C 	0.0281	0.78511	0.03351	0.281
Mof_C 	C 	0.08839	0.80746	0.03578	-0.006
Mof_C 	C 	0.06334	0.78085	0.03405	-0.072
Mof_C 	C 	0.07419	0.74561	0.0327	-0.001
Mof_C 	C 	0.113	0.7384	0.03285	-0.098
Mof_C 	C 	0.1337	0.7698	0.03479	0.101
Mof_C 	C 	0.12029	0.80174	0.03616	-0.034
Mof_C 	C 	0.14817	0.82261	0.03789	-0.007
Mof_C 	C 	0.17987	0.80081	0.03763	0.083
Mof_C 	C 	0.2108	0.8137	0.03828	-0.119
Mof_C 	C 	0.2175	0.8482	0.04015	0.028
Mof_C 	C 	0.1883	0.86964	0.04083	-0.078
Mof_C 	C 	0.15488	0.85678	0.03965	-0.022
Mof_C 	C 	0.19265	0.90728	0.04232	0.343
Mof_C 	C 	0.19051	0.7436	0.03132	0.117
Mof_C 	C 	0.1902	0.721	0.0055	-0.088
Mof_C 	C 	0.2144	0.6964	0.0033	-0.08
Mof_C 	C 	0.23858	0.69141	0.02271	0.09
Mof_C 	C 	0.24101	0.7133	0.05031	-0.07
Mof_C 	C 	0.2172	0.7396	0.0558	-0.088
Mof_C 	C 	0.30087	0.625	0.01186	-0.025
Mof_C 	C 	0.269	0.6374	0.01795	0.111
Mof_C 	C 	0.23984	0.61403	0.0282	-0.138
Mof_C 	C 	0.24584	0.5832	0.03077	0.056
Mof_C 	C 	0.27949	0.57009	0.02433	-0.095
Mof_C 	C 	0.30649	0.59076	0.01505	-0.004
Mof_C 	C 	0.28569	0.53194	0.02848	0.363
Mof_C 	C 	0.35329	0.65848	0.99445	0.034
Mof_C 	C 	0.31988	0.65188	0.00359	-0.039
Mof_C 	C 	0.2975	0.6825	0.00483	0.123
Mof_C 	C 	0.31309	0.71381	0.99702	-0.182
Mof_C 	C 	0.34378	0.71676	0.98904	0.104
Mof_C 	C 	0.36763	0.6886	0.98688	-0.153
Mof_C 	C 	0.40084	0.69289	0.97838	0.357
Mof_C 	C 	0.9719	0.28511	0.46649	0.281
Mof_C 	C 	0.91161	0.30746	0.46422	-0.006
Mof_C 	C 	0.93666	0.28085	0.46595	-0.072
Mof_C 	C 	0.92581	0.24561	0.4673	-0.001
Mof_C 	C 	0.887	0.2384	0.46715	-0.098
Mof_C 	C 	0.8663	0.2698	0.46521	0.101
Mof_C 	C 	0.87971	0.30174	0.46384	-0.034
Mof_C 	C 	0.85183	0.32261	0.46211	-0.007
Mof_C 	C 	0.82013	0.30081	0.46237	0.083
Mof_C 	C 	0.7892	0.3137	0.46172	-0.119
Mof_C 	C 	0.7825	0.3482	0.45985	0.028
Mof_C 	C 	0.8117	0.36964	0.45917	-0.078
Mof_C 	C 	0.84512	0.35678	0.46035	-0.022
Mof_C 	C 	0.80735	0.40728	0.45768	0.343
Mof_C 	C 	0.80949	0.2436	0.46868	0.117
Mof_C 	C 	0.8098	0.221	0.4945	-0.088
Mof_C 	C 	0.7856	0.1964	0.4967	-0.08
Mof_C 	C 	0.76142	0.19141	0.47729	0.09
Mof_C 	C 	0.75899	0.2133	0.44969	-0.07
Mof_C 	C 	0.7828	0.2396	0.4442	-0.088
Mof_C 	C 	0.69913	0.125	0.48814	-0.025
Mof_C 	C 	0.731	0.1374	0.48205	0.111
Mof_C 	C 	0.76016	0.11403	0.4718	-0.138
Mof_C 	C 	0.75416	0.0832	0.46923	0.056
Mof_C 	C 	0.72051	0.07009	0.47567	-0.095
Mof_C 	C 	0.69351	0.09076	0.48495	-0.004
Mof_C 	C 	0.71431	0.03194	0.47152	0.363
Mof_C 	C 	0.64671	0.15848	0.50555	0.034
Mof_C 	C 	0.68012	0.15188	0.49641	-0.039
Mof_C 	C 	0.7025	0.1825	0.49517	0.123
Mof_C 	C 	0.68691	0.21381	0.50298	-0.182
Mof_C 	C 	0.65622	0.21676	0.51096	0.104
Mof_C 	C 	0.63237	0.1886	0.51312	-0.153
Mof_C 	C 	0.59916	0.19289	0.52162	0.357
Mof_C 	C 	0.03351	0.4719	0.28511	0.281
Mof_C 	C 	0.03578	0.41161	0.30746	-0.006
Mof_C 	C 	0.03405	0.43666	0.28085	-0.072
Mof_C 	C 	0.0327	0.42581	0.24561	-0.001
Mof_C 	C 	0.03285	0.387	0.2384	-0.098
Mof_C 	C 	0.03479	0.3663	0.2698	0.101
Mof_C 	C 	0.03616	0.37971	0.30174	-0.034
Mof_C 	C 	0.03789	0.35183	0.32261	-0.007
Mof_C 	C 	0.03763	0.32013	0.30081	0.083
Mof_C 	C 	0.03828	0.2892	0.3137	-0.119
Mof_C 	C 	0.04015	0.2825	0.3482	0.028
Mof_C 	C 	0.04083	0.3117	0.36964	-0.078
Mof_C 	C 	0.03965	0.34512	0.35678	-0.022
Mof_C 	C 	0.04232	0.30735	0.40728	0.343
Mof_C 	C 	0.03132	0.30949	0.2436	0.117
Mof_C 	C 	0.0055	0.3098	0.221	-0.088
Mof_C 	C 	0.0033	0.2856	0.1964	-0.08
Mof_C 	C 	0.02271	0.26142	0.19141	0.09
Mof_C 	C 	0.05031	0.25899	0.2133	-0.07
Mof_C 	C 	0.0558	0.2828	0.2396	-0.088
Mof_C 	C 	0.01186	0.19913	0.125	-0.025
Mof_C 	C 	0.01795	0.231	0.1374	0.111
Mof_C 	C 	0.0282	0.26016	0.11403	-0.138
Mof_C 	C 	0.03077	0.25416	0.0832	0.056
Mof_C 	C 	0.02433	0.22051	0.07009	-0.095
Mof_C 	C 	0.01505	0.19351	0.09076	-0.004
Mof_C 	C 	0.02848	0.21431	0.03194	0.363
Mof_C 	C 	0.99445	0.14671	0.15848	0.034
Mof_C 	C 	0.00359	0.18012	0.15188	-0.039
Mof_C 	C 	0.00483	0.2025	0.1825	0.123
Mof_C 	C 	0.99702	0.18691	0.21381	-0.183
Mof_C 	C 	0.98904	0.15622	0.21676	0.104
Mof_C 	C 	0.98688	0.13237	0.1886	-0.153
Mof_C 	C 	0.97838	0.09916	0.19289	0.357
Mof_C 	C 	0.46649	0.5281	0.78511	0.281
Mof_C 	C 	0.46422	0.58839	0.80746	-0.006
Mof_C 	C 	0.46595	0.56334	0.78085	-0.072
Mof_C 	C 	0.4673	0.57419	0.74561	-0.001
Mof_C 	C 	0.46715	0.613	0.7384	-0.098
Mof_C 	C 	0.46521	0.6337	0.7698	0.101
Mof_C 	C 	0.46384	0.62029	0.80174	-0.034
Mof_C 	C 	0.46211	0.64817	0.82261	-0.007
Mof_C 	C 	0.46237	0.67987	0.80081	0.083
Mof_C 	C 	0.46172	0.7108	0.8137	-0.119
Mof_C 	C 	0.45985	0.7175	0.8482	0.028
Mof_C 	C 	0.45917	0.6883	0.86964	-0.078
Mof_C 	C 	0.46035	0.65488	0.85678	-0.022
Mof_C 	C 	0.45768	0.69265	0.90728	0.343
Mof_C 	C 	0.46868	0.69051	0.7436	0.117
Mof_C 	C 	0.4945	0.6902	0.721	-0.088
Mof_C 	C 	0.4967	0.7144	0.6964	-0.08
Mof_C 	C 	0.47729	0.73858	0.69141	0.09
Mof_C 	C 	0.44969	0.74101	0.7133	-0.07
Mof_C 	C 	0.4442	0.7172	0.7396	-0.088
Mof_C 	C 	0.48814	0.80087	0.625	-0.025
Mof_C 	C 	0.48205	0.769	0.6374	0.111
Mof_C 	C 	0.4718	0.73984	0.61403	-0.138
Mof_C 	C 	0.46923	0.74584	0.5832	0.056
Mof_C 	C 	0.47567	0.77949	0.57009	-0.095
Mof_C 	C 	0.48495	0.80649	0.59076	-0.004
Mof_C 	C 	0.47152	0.78569	0.53194	0.363
Mof_C 	C 	0.50555	0.85329	0.65848	0.034
Mof_C 	C 	0.49641	0.81988	0.65188	-0.039
Mof_C 	C 	0.49517	0.7975	0.6825	0.123
Mof_C 	C 	0.50298	0.81309	0.71381	-0.182
Mof_C 	C 	0.51096	0.84378	0.71676	0.104
Mof_C 	C 	0.51312	0.86763	0.6886	-0.153
Mof_C 	C 	0.52162	0.90084	0.69289	0.357
Mof_C 	C 	0.96649	0.9719	0.21489	0.281
Mof_C 	C 	0.96422	0.91161	0.19254	-0.006
Mof_C 	C 	0.96595	0.93666	0.21915	-0.072
Mof_C 	C 	0.9673	0.92581	0.25439	-0.001
Mof_C 	C 	0.96715	0.887	0.2616	-0.098
Mof_C 	C 	0.96521	0.8663	0.2302	0.101
Mof_C 	C 	0.96384	0.87971	0.19826	-0.034
Mof_C 	C 	0.96211	0.85183	0.17739	-0.007
Mof_C 	C 	0.96237	0.82013	0.19919	0.083
Mof_C 	C 	0.96172	0.7892	0.1863	-0.119
Mof_C 	C 	0.95985	0.7825	0.1518	0.028
Mof_C 	C 	0.95917	0.8117	0.13036	-0.078
Mof_C 	C 	0.96035	0.84512	0.14322	-0.022
Mof_C 	C 	0.95768	0.80735	0.09272	0.343
Mof_C 	C 	0.96868	0.80949	0.2564	0.117
Mof_C 	C 	0.9945	0.8098	0.279	-0.088
Mof_C 	C 	0.9967	0.7856	0.3036	-0.08
Mof_C 	C 	0.97729	0.76142	0.30859	0.09
Mof_C 	C 	0.94969	0.75899	0.2867	-0.07
Mof_C 	C 	0.9442	0.7828	0.2604	-0.088
Mof_C 	C 	0.98814	0.69913	0.375	-0.025
Mof_C 	C 	0.98205	0.731	0.3626	0.111
Mof_C 	C 	0.9718	0.76016	0.38597	-0.138
Mof_C 	C 	0.96923	0.75416	0.4168	0.056
Mof_C 	C 	0.97567	0.72051	0.42991	-0.095
Mof_C 	C 	0.98495	0.69351	0.40924	-0.004
Mof_C 	C 	0.97152	0.71431	0.46806	0.363
Mof_C 	C 	0.00555	0.64671	0.34152	0.034
Mof_C 	C 	0.99641	0.68012	0.34812	-0.039
Mof_C 	C 	0.99517	0.7025	0.3175	0.123
Mof_C 	C 	0.00298	0.68691	0.28619	-0.182
Mof_C 	C 	0.01096	0.65622	0.28324	0.104
Mof_C 	C 	0.01312	0.63237	0.3114	-0.153
Mof_C 	C 	0.02162	0.59916	0.30711	0.357
Mof_C 	C 	0.53351	0.0281	0.71489	0.281
Mof_C 	C 	0.53578	0.08839	0.69254	-0.006
Mof_C 	C 	0.53405	0.06334	0.71915	-0.072
Mof_C 	C 	0.5327	0.07419	0.75439	-0.001
Mof_C 	C 	0.53285	0.113	0.7616	-0.098
Mof_C 	C 	0.53479	0.1337	0.7302	0.101
Mof_C 	C 	0.53616	0.12029	0.69826	-0.034
Mof_C 	C 	0.53789	0.14817	0.67739	-0.007
Mof_C 	C 	0.53763	0.17987	0.69919	0.083
Mof_C 	C 	0.53828	0.2108	0.6863	-0.119
Mof_C 	C 	0.54015	0.2175	0.6518	0.028
Mof_C 	C 	0.54083	0.1883	0.63036	-0.078
Mof_C 	C 	0.53965	0.15488	0.64322	-0.022
Mof_C 	C 	0.54232	0.19265	0.59272	0.343
Mof_C 	C 	0.53132	0.19051	0.7564	0.117
Mof_C 	C 	0.5055	0.1902	0.779	-0.088
Mof_C 	C 	0.5033	0.2144	0.8036	-0.08
Mof_C 	C 	0.52271	0.23858	0.80859	0.09
Mof_C 	C 	0.55031	0.24101	0.7867	-0.07
Mof_C 	C 	0.5558	0.2172	0.7604	-0.088
Mof_C 	C 	0.51186	0.30087	0.875	-0.025
Mof_C 	C 	0.51795	0.269	0.8626	0.111
Mof_C 	C 	0.5282	0.23984	0.88597	-0.138
Mof_C 	C 	0.53077	0.24584	0.9168	0.056
Mof_C 	C 	0.52433	0.27949	0.92991	-0.095
Mof_C 	C 	0.51505	0.30649	0.90924	-0.004
Mof_C 	C 	0.52848	0.28569	0.96806	0.363
Mof_C 	C 	0.49445	0.35329	0.84152	0.034
Mof_C 	C 	0.50359	0.31988	0.84812	-0.039
Mof_C 	C 	0.50483	0.2975	0.8175	0.123
Mof_C 	C 	0.49702	0.31309	0.78619	-0.182
Mof_C 	C 	0.48904	0.34378	0.78324	0.104
Mof_C 	C 	0.48688	0.36763	0.8114	-0.153
Mof_C 	C 	0.47838	0.40084	0.80711	0.357
Mof_C 	C 	0.28511	0.03351	0.4719	0.281
Mof_C 	C 	0.30746	0.03578	0.41161	-0.006
Mof_C 	C 	0.28085	0.03405	0.43666	-0.072
Mof_C 	C 	0.24561	0.0327	0.42581	-0.001
Mof_C 	C 	0.2384	0.03285	0.387	-0.098
Mof_C 	C 	0.2698	0.03479	0.3663	0.101
Mof_C 	C 	0.30174	0.03616	0.37971	-0.034
Mof_C 	C 	0.32261	0.03789	0.35183	-0.007
Mof_C 	C 	0.30081	0.03763	0.32013	0.083
Mof_C 	C 	0.3137	0.03828	0.2892	-0.119
Mof_C 	C 	0.3482	0.04015	0.2825	0.028
Mof_C 	C 	0.36964	0.04083	0.3117	-0.078
Mof_C 	C 	0.35678	0.03965	0.34512	-0.022
Mof_C 	C 	0.40728	0.04232	0.30735	0.343
Mof_C 	C 	0.2436	0.03132	0.30949	0.117
Mof_C 	C 	0.221	0.0055	0.3098	-0.088
Mof_C 	C 	0.1964	0.0033	0.2856	-0.08
Mof_C 	C 	0.19141	0.02271	0.26142	0.09
Mof_C 	C 	0.2133	0.05031	0.25899	-0.07
Mof_C 	C 	0.2396	0.0558	0.2828	-0.088
Mof_C 	C 	0.125	0.01186	0.19913	-0.025
Mof_C 	C 	0.1374	0.01795	0.231	0.111
Mof_C 	C 	0.11403	0.0282	0.26016	-0.138
Mof_C 	C 	0.0832	0.03077	0.25416	0.056
Mof_C 	C 	0.07009	0.02433	0.22051	-0.095
Mof_C 	C 	0.09076	0.01505	0.19351	-0.004
Mof_C 	C 	0.03194	0.02848	0.21431	0.363
Mof_C 	C 	0.15848	0.99445	0.14671	0.034
Mof_C 	C 	0.15188	0.00359	0.18012	-0.039
Mof_C 	C 	0.1825	0.00483	0.2025	0.123
Mof_C 	C 	0.21381	0.99702	0.18691	-0.183
Mof_C 	C 	0.21676	0.98904	0.15622	0.104
Mof_C 	C 	0.1886	0.98688	0.13237	-0.153
Mof_C 	C 	0.19289	0.97838	0.09916	0.357
Mof_C 	C 	0.78511	0.46649	0.5281	0.281
Mof_C 	C 	0.80746	0.46422	0.58839	-0.006
Mof_C 	C 	0.78085	0.46595	0.56334	-0.072
Mof_C 	C 	0.74561	0.4673	0.57419	-0.001
Mof_C 	C 	0.7384	0.46715	0.613	-0.098
Mof_C 	C 	0.7698	0.46521	0.6337	0.101
Mof_C 	C 	0.80174	0.46384	0.62029	-0.034
Mof_C 	C 	0.82261	0.46211	0.64817	-0.007
Mof_C 	C 	0.80081	0.46237	0.67987	0.083
Mof_C 	C 	0.8137	0.46172	0.7108	-0.119
Mof_C 	C 	0.8482	0.45985	0.7175	0.028
Mof_C 	C 	0.86964	0.45917	0.6883	-0.078
Mof_C 	C 	0.85678	0.46035	0.65488	-0.022
Mof_C 	C 	0.90728	0.45768	0.69265	0.343
Mof_C 	C 	0.7436	0.46868	0.69051	0.117
Mof_C 	C 	0.721	0.4945	0.6902	-0.088
Mof_C 	C 	0.6964	0.4967	0.7144	-0.08
Mof_C 	C 	0.69141	0.47729	0.73858	0.09
Mof_C 	C 	0.7133	0.44969	0.74101	-0.07
Mof_C 	C 	0.7396	0.4442	0.7172	-0.088
Mof_C 	C 	0.625	0.48814	0.80087	-0.025
Mof_C 	C 	0.6374	0.48205	0.769	0.111
Mof_C 	C 	0.61403	0.4718	0.73984	-0.138
Mof_C 	C 	0.5832	0.46923	0.74584	0.056
Mof_C 	C 	0.57009	0.47567	0.77949	-0.095
Mof_C 	C 	0.59076	0.48495	0.80649	-0.004
Mof_C 	C 	0.53194	0.47152	0.78569	0.363
Mof_C 	C 	0.65848	0.50555	0.85329	0.034
Mof_C 	C 	0.65188	0.49641	0.81988	-0.039
Mof_C 	C 	0.6825	0.49517	0.7975	0.123
Mof_C 	C 	0.71381	0.50298	0.81309	-0.182
Mof_C 	C 	0.71676	0.51096	0.84378	0.104
Mof_C 	C 	0.6886	0.51312	0.86763	-0.153
Mof_C 	C 	0.69289	0.52162	0.90084	0.357
Mof_C 	C 	0.21489	0.96649	0.9719	0.281
Mof_C 	C 	0.19254	0.96422	0.91161	-0.006
Mof_C 	C 	0.21915	0.96595	0.93666	-0.072
Mof_C 	C 	0.25439	0.9673	0.92581	-0.001
Mof_C 	C 	0.2616	0.96715	0.887	-0.098
Mof_C 	C 	0.2302	0.96521	0.8663	0.101
Mof_C 	C 	0.19826	0.96384	0.87971	-0.034
Mof_C 	C 	0.17739	0.96211	0.85183	-0.007
Mof_C 	C 	0.19919	0.96237	0.82013	0.083
Mof_C 	C 	0.1863	0.96172	0.7892	-0.119
Mof_C 	C 	0.1518	0.95985	0.7825	0.028
Mof_C 	C 	0.13036	0.95917	0.8117	-0.078
Mof_C 	C 	0.14322	0.96035	0.84512	-0.022
Mof_C 	C 	0.09272	0.95768	0.80735	0.343
Mof_C 	C 	0.2564	0.96868	0.80949	0.117
Mof_C 	C 	0.279	0.9945	0.8098	-0.088
Mof_C 	C 	0.3036	0.9967	0.7856	-0.08
Mof_C 	C 	0.30859	0.97729	0.76142	0.09
Mof_C 	C 	0.2867	0.94969	0.75899	-0.07
Mof_C 	C 	0.2604	0.9442	0.7828	-0.088
Mof_C 	C 	0.375	0.98814	0.69913	-0.025
Mof_C 	C 	0.3626	0.98205	0.731	0.111
Mof_C 	C 	0.38597	0.9718	0.76016	-0.138
Mof_C 	C 	0.4168	0.96923	0.75416	0.056
Mof_C 	C 	0.42991	0.97567	0.72051	-0.095
Mof_C 	C 	0.40924	0.98495	0.69351	-0.004
Mof_C 	C 	0.46806	0.97152	0.71431	0.363
Mof_C 	C 	0.34152	0.00555	0.64671	0.034
Mof_C 	C 	0.34812	0.99641	0.68012	-0.039
Mof_C 	C 	0.3175	0.99517	0.7025	0.123
Mof_C 	C 	0.28619	0.00298	0.68691	-0.182
Mof_C 	C 	0.28324	0.01096	0.65622	0.104
Mof_C 	C 	0.3114	0.01312	0.63237	-0.153
Mof_C 	C 	0.30711	0.02162	0.59916	0.357
Mof_C 	C 	0.71489	0.53351	0.0281	0.281
Mof_C 	C 	0.69254	0.53578	0.08839	-0.006
Mof_C 	C 	0.71915	0.53405	0.06334	-0.072
Mof_C 	C 	0.75439	0.5327	0.07419	-0.001
Mof_C 	C 	0.7616	0.53285	0.113	-0.098
Mof_C 	C 	0.7302	0.53479	0.1337	0.101
Mof_C 	C 	0.69826	0.53616	0.12029	-0.034
Mof_C 	C 	0.67739	0.53789	0.14817	-0.007
Mof_C 	C 	0.69919	0.53763	0.17987	0.083
Mof_C 	C 	0.6863	0.53828	0.2108	-0.119
Mof_C 	C 	0.6518	0.54015	0.2175	0.028
Mof_C 	C 	0.63036	0.54083	0.1883	-0.078
Mof_C 	C 	0.64322	0.53965	0.15488	-0.022
Mof_C 	C 	0.59272	0.54232	0.19265	0.343
Mof_C 	C 	0.7564	0.53132	0.19051	0.117
Mof_C 	C 	0.779	0.5055	0.1902	-0.088
Mof_C 	C 	0.8036	0.5033	0.2144	-0.08
Mof_C 	C 	0.80859	0.52271	0.23858	0.09
Mof_C 	C 	0.7867	0.55031	0.24101	-0.07
Mof_C 	C 	0.7604	0.5558	0.2172	-0.088
Mof_C 	C 	0.875	0.51186	0.30087	-0.025
Mof_C 	C 	0.8626	0.51795	0.269	0.111
Mof_C 	C 	0.88597	0.5282	0.23984	-0.138
Mof_C 	C 	0.9168	0.53077	0.24584	0.056
Mof_C 	C 	0.92991	0.52433	0.27949	-0.095
Mof_C 	C 	0.90924	0.51505	0.30649	-0.004
Mof_C 	C 	0.96806	0.52848	0.28569	0.363
Mof_C 	C 	0.84152	0.49445	0.35329	0.034
Mof_C 	C 	0.84812	0.50359	0.31988	-0.039
Mof_C 	C 	0.8175	0.50483	0.2975	0.123
Mof_C 	C 	0.78619	0.49702	0.31309	-0.182
Mof_C 	C 	0.78324	0.48904	0.34378	0.104
Mof_C 	C 	0.8114	0.48688	0.36763	-0.153
Mof_C 	C 	0.80711	0.47838	0.40084	0.357
Mof_C 	C 	0.4719	0.28511	0.03351	0.281
Mof_C 	C 	0.41161	0.30746	0.03578	-0.006
Mof_C 	C 	0.43666	0.28085	0.03405	-0.072
Mof_C 	C 	0.42581	0.24561	0.0327	-0.001
Mof_C 	C 	0.387	0.2384	0.03285	-0.098
Mof_C 	C 	0.3663	0.2698	0.03479	0.101
Mof_C 	C 	0.37971	0.30174	0.03616	-0.034
Mof_C 	C 	0.35183	0.32261	0.03789	-0.007
Mof_C 	C 	0.32013	0.30081	0.03763	0.083
Mof_C 	C 	0.2892	0.3137	0.03828	-0.119
Mof_C 	C 	0.2825	0.3482	0.04015	0.028
Mof_C 	C 	0.3117	0.36964	0.04083	-0.078
Mof_C 	C 	0.34512	0.35678	0.03965	-0.022
Mof_C 	C 	0.30735	0.40728	0.04232	0.343
Mof_C 	C 	0.30949	0.2436	0.03132	0.117
Mof_C 	C 	0.3098	0.221	0.0055	-0.088
Mof_C 	C 	0.2856	0.1964	0.0033	-0.08
Mof_C 	C 	0.26142	0.19141	0.02271	0.09
Mof_C 	C 	0.25899	0.2133	0.05031	-0.07
Mof_C 	C 	0.2828	0.2396	0.0558	-0.088
Mof_C 	C 	0.19913	0.125	0.01186	-0.025
Mof_C 	C 	0.231	0.1374	0.01795	0.111
Mof_C 	C 	0.26016	0.11403	0.0282	-0.138
Mof_C 	C 	0.25416	0.0832	0.03077	0.056
Mof_C 	C 	0.22051	0.07009	0.02433	-0.095
Mof_C 	C 	0.19351	0.09076	0.01505	-0.004
Mof_C 	C 	0.21431	0.03194	0.02848	0.363
Mof_C 	C 	0.14671	0.15848	0.99445	0.034
Mof_C 	C 	0.18012	0.15188	0.00359	-0.039
Mof_C 	C 	0.2025	0.1825	0.00483	0.123
Mof_C 	C 	0.18691	0.21381	0.99702	-0.183
Mof_C 	C 	0.15622	0.21676	0.98904	0.104
Mof_C 	C 	0.13237	0.1886	0.98688	-0.153
Mof_C 	C 	0.09916	0.19289	0.97838	0.357
Mof_C 	C 	0.5281	0.78511	0.46649	0.281
Mof_C 	C 	0.58839	0.80746	0.46422	-0.006
Mof_C 	C 	0.56334	0.78085	0.46595	-0.072
Mof_C 	C 	0.57419	0.74561	0.4673	-0.001
Mof_C 	C 	0.613	0.7384	0.46715	-0.098
Mof_C 	C 	0.6337	0.7698	0.46521	0.101
Mof_C 	C 	0.62029	0.80174	0.46384	-0.034
Mof_C 	C 	0.64817	0.82261	0.46211	-0.007
Mof_C 	C 	0.67987	0.80081	0.46237	0.083
Mof_C 	C 	0.7108	0.8137	0.46172	-0.119
Mof_C 	C 	0.7175	0.8482	0.45985	0.028
Mof_C 	C 	0.6883	0.86964	0.45917	-0.078
Mof_C 	C 	0.65488	0.85678	0.46035	-0.022
Mof_C 	C 	0.69265	0.90728	0.45768	0.343
Mof_C 	C 	0.69051	0.7436	0.46868	0.117
Mof_C 	C 	0.6902	0.721	0.4945	-0.088
Mof_C 	C 	0.7144	0.6964	0.4967	-0.08
Mof_C 	C 	0.73858	0.69141	0.47729	0.09
Mof_C 	C 	0.74101	0.7133	0.44969	-0.07
Mof_C 	C 	0.7172	0.7396	0.4442	-0.088
Mof_C 	C 	0.80087	0.625	0.48814	-0.025
Mof_C 	C 	0.769	0.6374	0.48205	0.111
Mof_C 	C 	0.73984	0.61403	0.4718	-0.138
Mof_C 	C 	0.74584	0.5832	0.46923	0.056
Mof_C 	C 	0.77949	0.57009	0.47567	-0.095
Mof_C 	C 	0.80649	0.59076	0.48495	-0.004
Mof_C 	C 	0.78569	0.53194	0.47152	0.363
Mof_C 	C 	0.85329	0.65848	0.50555	0.034
Mof_C 	C 	0.81988	0.65188	0.49641	-0.039
Mof_C 	C 	0.7975	0.6825	0.49517	0.123
Mof_C 	C 	0.81309	0.71381	0.50298	-0.182
Mof_C 	C 	0.84378	0.71676	0.51096	0.104
Mof_C 	C 	0.86763	0.6886	0.51312	-0.153
Mof_C 	C 	0.90084	0.69289	0.52162	0.357
Mof_C 	C 	0.9719	0.21489	0.96649	0.281
Mof_C 	C 	0.91161	0.19254	0.96422	-0.006
Mof_C 	C 	0.93666	0.21915	0.96595	-0.072
Mof_C 	C 	0.92581	0.25439	0.9673	-0.001
Mof_C 	C 	0.887	0.2616	0.96715	-0.098
Mof_C 	C 	0.8663	0.2302	0.96521	0.101
Mof_C 	C 	0.87971	0.19826	0.96384	-0.034
Mof_C 	C 	0.85183	0.17739	0.96211	-0.007
Mof_C 	C 	0.82013	0.19919	0.96237	0.083
Mof_C 	C 	0.7892	0.1863	0.96172	-0.119
Mof_C 	C 	0.7825	0.1518	0.95985	0.028
Mof_C 	C 	0.8117	0.13036	0.95917	-0.078
Mof_C 	C 	0.84512	0.14322	0.96035	-0.022
Mof_C 	C 	0.80735	0.09272	0.95768	0.343
Mof_C 	C 	0.80949	0.2564	0.96868	0.117
Mof_C 	C 	0.8098	0.279	0.9945	-0.088
Mof_C 	C 	0.7856	0.3036	0.9967	-0.08
Mof_C 	C 	0.76142	0.30859	0.97729	0.09
Mof_C 	C 	0.75899	0.2867	0.94969	-0.07
Mof_C 	C 	0.7828	0.2604	0.9442	-0.088
Mof_C 	C 	0.69913	0.375	0.98814	-0.025
Mof_C 	C 	0.731	0.3626	0.98205	0.111
Mof_C 	C 	0.76016	0.38597	0.9718	-0.138
Mof_C 	C 	0.75416	0.4168	0.96923	0.056
Mof_C 	C 	0.72051	0.42991	0.97567	-0.095
Mof_C 	C 	0.69351	0.40924	0.98495	-0.004
Mof_C 	C 	0.71431	0.46806	0.97152	0.363
Mof_C 	C 	0.64671	0.34152	0.00555	0.034
Mof_C 	C 	0.68012	0.34812	0.99641	-0.039
Mof_C 	C 	0.7025	0.3175	0.99517	0.123
Mof_C 	C 	0.68691	0.28619	0.00298	-0.182
Mof_C 	C 	0.65622	0.28324	0.01096	0.104
Mof_C 	C 	0.63237	0.3114	0.01312	-0.153
Mof_C 	C 	0.59916	0.30711	0.02162	0.357
Mof_C 	C 	0.0281	0.71489	0.53351	0.281
Mof_C 	C 	0.08839	0.69254	0.53578	-0.006
Mof_C 	C 	0.06334	0.71915	0.53405	-0.072
Mof_C 	C 	0.07419	0.75439	0.5327	-0.001
Mof_C 	C 	0.113	0.7616	0.53285	-0.098
Mof_C 	C 	0.1337	0.7302	0.53479	0.101
Mof_C 	C 	0.12029	0.69826	0.53616	-0.034
Mof_C 	C 	0.14817	0.67739	0.53789	-0.007
Mof_C 	C 	0.17987	0.69919	0.53763	0.083
Mof_C 	C 	0.2108	0.6863	0.53828	-0.119
Mof_C 	C 	0.2175	0.6518	0.54015	0.028
Mof_C 	C 	0.1883	0.63036	0.54083	-0.078
Mof_C 	C 	0.15488	0.64322	0.53965	-0.022
Mof_C 	C 	0.19265	0.59272	0.54232	0.343
Mof_C 	C 	0.19051	0.7564	0.53132	0.117
Mof_C 	C 	0.1902	0.779	0.5055	-0.088
Mof_C 	C 	0.2144	0.8036	0.5033	-0.08
Mof_C 	C 	0.23858	0.80859	0.52271	0.09
Mof_C 	C 	0.24101	0.7867	0.55031	-0.07
Mof_C 	C 	0.2172	0.7604	0.5558	-0.088
Mof_C 	C 	0.30087	0.875	0.51186	-0.025
Mof_C 	C 	0.269	0.8626	0.51795	0.111
Mof_C 	C 	0.23984	0.88597	0.5282	-0.138
Mof_C 	C 	0.24584	0.9168	0.53077	0.056
Mof_C 	C 	0.27949	0.92991	0.52433	-0.095
Mof_C 	C 	0.30649	0.90924	0.51505	-0.004
Mof_C 	C 	0.28569	0.96806	0.52848	0.363
Mof_C 	C 	0.35329	0.84152	0.49445	0.034
Mof_C 	C 	0.31988	0.84812	0.50359	-0.039
Mof_C 	C 	0.2975	0.8175	0.50483	0.123
Mof_C 	C 	0.31309	0.78619	0.49702	-0.182
Mof_C 	C 	0.34378	0.78324	0.48904	0.104
Mof_C 	C 	0.36763	0.8114	0.48688	-0.153
Mof_C 	C 	0.40084	0.80711	0.47838	0.357
Mof_N 	N 	0.96401	0.66695	0.73419	-0.163
Mof_N 	N 	0.98597	0.7677	0.8306	-0.167
Mof_N 	N 	0.53599	0.33305	0.23419	-0.163
Mof_N 	N 	0.51403	0.2323	0.3306	-0.167
Mof_N 	N 	0.03599	0.16695	0.76581	-0.163
Mof_N 	N 	0.01403	0.2677	0.6694	-0.167
Mof_N 	N 	0.46401	0.83305	0.26581	-0.163
Mof_N 	N 	0.48597	0.7323	0.1694	-0.167
Mof_N 	N 	0.73419	0.96401	0.66695	-0.163
Mof_N 	N 	0.8306	0.98597	0.7677	-0.167
Mof_N 	N 	0.23419	0.53599	0.33305	-0.163
Mof_N 	N 	0.3306	0.51403	0.2323	-0.167
Mof_N 	N 	0.76581	0.03599	0.16695	-0.163
Mof_N 	N 	0.6694	0.01403	0.2677	-0.167
Mof_N 	N 	0.26581	0.46401	0.83305	-0.163
Mof_N 	N 	0.1694	0.48597	0.7323	-0.167
Mof_N 	N 	0.66695	0.73419	0.96401	-0.163
Mof_N 	N 	0.7677	0.8306	0.98597	-0.167
Mof_N 	N 	0.33305	0.23419	0.53599	-0.163
Mof_N 	N 	0.2323	0.3306	0.51403	-0.167
Mof_N 	N 	0.16695	0.76581	0.03599	-0.163
Mof_N 	N 	0.2677	0.6694	0.01403	-0.167
Mof_N 	N 	0.83305	0.26581	0.46401	-0.163
Mof_N 	N 	0.7323	0.1694	0.48597	-0.167
Mof_N 	N 	0.03599	0.33305	0.26581	-0.163
Mof_N 	N 	0.01403	0.2323	0.1694	-0.167
Mof_N 	N 	0.46401	0.66695	0.76581	-0.163
Mof_N 	N 	0.48597	0.7677	0.6694	-0.167
Mof_N 	N 	0.96401	0.83305	0.23419	-0.163
Mof_N 	N 	0.98597	0.7323	0.3306	-0.167
Mof_N 	N 	0.53599	0.16695	0.73419	-0.163
Mof_N 	N 	0.51403	0.2677	0.8306	-0.167
Mof_N 	N 	0.26581	0.03599	0.33305	-0.163
Mof_N 	N 	0.1694	0.01403	0.2323	-0.167
Mof_N 	N 	0.76581	0.46401	0.66695	-0.163
Mof_N 	N 	0.6694	0.48597	0.7677	-0.167
Mof_N 	N 	0.23419	0.96401	0.83305	-0.163
Mof_N 	N 	0.3306	0.98597	0.7323	-0.167
Mof_N 	N 	0.73419	0.53599	0.16695	-0.163
Mof_N 	N 	0.8306	0.51403	0.2677	-0.167
Mof_N 	N 	0.33305	0.26581	0.03599	-0.163
Mof_N 	N 	0.2323	0.1694	0.01403	-0.167
Mof_N 	N 	0.66695	0.76581	0.46401	-0.163
Mof_N 	N 	0.7677	0.6694	0.48597	-0.167
Mof_N 	N 	0.83305	0.23419	0.96401	-0.163
Mof_N 	N 	0.7323	0.3306	0.98597	-0.167
Mof_N 	N 	0.16695	0.73419	0.53599	-0.163
Mof_N 	N 	0.2677	0.8306	0.51403	-0.167
Mof_O 	O 	0.96632	0.51852	0.68225	-0.365
Mof_O 	O 	0.96502	0.50639	0.74095	-0.384
Mof_O 	O 	0.96243	0.66682	0.57405	-0.4
Mof_O 	O 	0.9602	0.72303	0.58284	-0.403
Mof_O 	O 	0.96194	0.76052	0.98638	-0.402
Mof_O 	O 	0.97632	0.8144	0.97896	-0.419
Mof_O 	O 	0.01582	0.92134	0.83131	-0.391
Mof_O 	O 	0.03374	0.91267	0.77783	-0.399
Mof_O 	O 	0.53368	0.48148	0.18225	-0.365
Mof_O 	O 	0.53498	0.49361	0.24095	-0.384
Mof_O 	O 	0.53757	0.33318	0.07405	-0.4
Mof_O 	O 	0.5398	0.27697	0.08284	-0.403
Mof_O 	O 	0.53806	0.23948	0.48638	-0.402
Mof_O 	O 	0.52368	0.1856	0.47896	-0.419
Mof_O 	O 	0.48418	0.07866	0.33131	-0.391
Mof_O 	O 	0.46626	0.08733	0.27783	-0.399
Mof_O 	O 	0.03368	0.01852	0.81775	-0.365
Mof_O 	O 	0.03498	0.00639	0.75905	-0.384
Mof_O 	O 	0.03757	0.16682	0.92595	-0.4
Mof_O 	O 	0.0398	0.22303	0.91716	-0.403
Mof_O 	O 	0.03806	0.26052	0.51362	-0.402
Mof_O 	O 	0.02368	0.3144	0.52104	-0.419
Mof_O 	O 	0.98418	0.42134	0.66869	-0.391
Mof_O 	O 	0.96626	0.41267	0.72217	-0.399
Mof_O 	O 	0.46632	0.98148	0.31775	-0.365
Mof_O 	O 	0.46502	0.99361	0.25905	-0.384
Mof_O 	O 	0.46243	0.83318	0.42595	-0.4
Mof_O 	O 	0.4602	0.77697	0.41716	-0.403
Mof_O 	O 	0.46194	0.73948	0.01362	-0.402
Mof_O 	O 	0.47632	0.6856	0.02104	-0.419
Mof_O 	O 	0.51582	0.57866	0.16869	-0.391
Mof_O 	O 	0.53374	0.58733	0.22217	-0.399
Mof_O 	O 	0.68225	0.96632	0.51852	-0.365
Mof_O 	O 	0.74095	0.96502	0.50639	-0.384
Mof_O 	O 	0.57405	0.96243	0.66682	-0.4
Mof_O 	O 	0.58284	0.9602	0.72303	-0.403
Mof_O 	O 	0.98638	0.96194	0.76052	-0.402
Mof_O 	O 	0.97896	0.97632	0.8144	-0.419
Mof_O 	O 	0.83131	0.01582	0.92134	-0.391
Mof_O 	O 	0.77783	0.03374	0.91267	-0.399
Mof_O 	O 	0.18225	0.53368	0.48148	-0.365
Mof_O 	O 	0.24095	0.53498	0.49361	-0.384
Mof_O 	O 	0.07405	0.53757	0.33318	-0.4
Mof_O 	O 	0.08284	0.5398	0.27697	-0.403
Mof_O 	O 	0.48638	0.53806	0.23948	-0.402
Mof_O 	O 	0.47896	0.52368	0.1856	-0.419
Mof_O 	O 	0.33131	0.48418	0.07866	-0.391
Mof_O 	O 	0.27783	0.46626	0.08733	-0.399
Mof_O 	O 	0.81775	0.03368	0.01852	-0.365
Mof_O 	O 	0.75905	0.03498	0.00639	-0.384
Mof_O 	O 	0.92595	0.03757	0.16682	-0.4
Mof_O 	O 	0.91716	0.0398	0.22303	-0.403
Mof_O 	O 	0.51362	0.03806	0.26052	-0.402
Mof_O 	O 	0.52104	0.02368	0.3144	-0.419
Mof_O 	O 	0.66869	0.98418	0.42134	-0.391
Mof_O 	O 	0.72217	0.96626	0.41267	-0.399
Mof_O 	O 	0.31775	0.46632	0.98148	-0.365
Mof_O 	O 	0.25905	0.46502	0.99361	-0.384
Mof_O 	O 	0.42595	0.46243	0.83318	-0.4
Mof_O 	O 	0.41716	0.4602	0.77697	-0.403
Mof_O 	O 	0.01362	0.46194	0.73948	-0.402
Mof_O 	O 	0.02104	0.47632	0.6856	-0.419
Mof_O 	O 	0.16869	0.51582	0.57866	-0.391
Mof_O 	O 	0.22217	0.53374	0.58733	-0.399
Mof_O 	O 	0.51852	0.68225	0.96632	-0.365
Mof_O 	O 	0.50639	0.74095	0.96502	-0.384
Mof_O 	O 	0.66682	0.57405	0.96243	-0.4
Mof_O 	O 	0.72303	0.58284	0.9602	-0.403
Mof_O 	O 	0.76052	0.98638	0.96194	-0.402
Mof_O 	O 	0.8144	0.97896	0.97632	-0.419
Mof_O 	O 	0.92134	0.83131	0.01582	-0.391
Mof_O 	O 	0.91267	0.77783	0.03374	-0.399
Mof_O 	O 	0.48148	0.18225	0.53368	-0.365
Mof_O 	O 	0.49361	0.24095	0.53498	-0.384
Mof_O 	O 	0.33318	0.07405	0.53757	-0.4
Mof_O 	O 	0.27697	0.08284	0.5398	-0.403
Mof_O 	O 	0.23948	0.48638	0.53806	-0.402
Mof_O 	O 	0.1856	0.47896	0.52368	-0.419
Mof_O 	O 	0.07866	0.33131	0.48418	-0.391
Mof_O 	O 	0.08733	0.27783	0.46626	-0.399
Mof_O 	O 	0.01852	0.81775	0.03368	-0.365
Mof_O 	O 	0.00639	0.75905	0.03498	-0.384
Mof_O 	O 	0.16682	0.92595	0.03757	-0.4
Mof_O 	O 	0.22303	0.91716	0.0398	-0.403
Mof_O 	O 	0.26052	0.51362	0.03806	-0.402
Mof_O 	O 	0.3144	0.52104	0.02368	-0.419
Mof_O 	O 	0.42134	0.66869	0.98418	-0.391
Mof_O 	O 	0.41267	0.72217	0.96626	-0.399
Mof_O 	O 	0.98148	0.31775	0.46632	-0.365
Mof_O 	O 	0.99361	0.25905	0.46502	-0.384
Mof_O 	O 	0.83318	0.42595	0.46243	-0.4
Mof_O 	O 	0.77697	0.41716	0.4602	-0.403
Mof_O 	O 	0.73948	0.01362	0.46194	-0.402
Mof_O 	O 	0.6856	0.02104	0.47632	-0.419
Mof_O 	O 	0.57866	0.16869	0.51582	-0.391
Mof_O 	O 	0.58733	0.22217	0.53374	-0.399
Mof_O 	O 	0.03368	0.48148	0.31775	-0.365
Mof_O 	O 	0.03498	0.49361	0.25905	-0.384
Mof_O 	O 	0.03757	0.33318	0.42595	-0.4
Mof_O 	O 	0.0398	0.27697	0.41716	-0.403
Mof_O 	O 	0.03806	0.23948	0.01362	-0.402
Mof_O 	O 	0.02368	0.1856	0.02104	-0.419
Mof_O 	O 	0.98418	0.07866	0.16869	-0.391
Mof_O 	O 	0.96626	0.08733	0.22217	-0.399
Mof_O 	O 	0.46632	0.51852	0.81775	-0.365
Mof_O 	O 	0.46502	0.50639	0.75905	-0.384
Mof_O 	O 	0.46243	0.66682	0.92595	-0.4
Mof_O 	O 	0.4602	0.72303	0.91716	-0.403
Mof_O 	O 	0.46194	0.76052	0.51362	-0.402
Mof_O 	O 	0.47632	0.8144	0.52104	-0.419
Mof_O 	O 	0.51582	0.92134	0.66869	-0.391
Mof_O 	O 	0.53374	0.91267	0.72217	-0.399
Mof_O 	O 	0.96632	0.98148	0.18225	-0.365
Mof_O 	O 	0.96502	0.99361	0.24095	-0.384
Mof_O 	O 	0.96243	0.83318	0.07405	-0.4
Mof_O 	O 	0.9602	0.77697	0.08284	-0.403
Mof_O 	O 	0.96194	0.73948	0.48638	-0.402
Mof_O 	O 	0.97632	0.6856	0.47896	-0.419
Mof_O 	O 	0.01582	0.57866	0.33131	-0.391
Mof_O 	O 	0.03374	0.58733	0.27783	-0.399
Mof_O 	O 	0.53368	0.01852	0.68225	-0.365
Mof_O 	O 	0.53498	0.00639	0.74095	-0.384
Mof_O 	O 	0.53757	0.16682	0.57405	-0.4
Mof_O 	O 	0.5398	0.22303	0.58284	-0.403
Mof_O 	O 	0.53806	0.26052	0.98638	-0.402
Mof_O 	O 	0.52368	0.3144	0.97896	-0.419
Mof_O 	O 	0.48418	0.42134	0.83131	-0.391
Mof_O 	O 	0.46626	0.41267	0.77783	-0.399
Mof_O 	O 	0.31775	0.03368	0.48148	-0.365
Mof_O 	O 	0.25905	0.03498	0.49361	-0.384
Mof_O 	O 	0.42595	0.03757	0.33318	-0.4
Mof_O 	O 	0.41716	0.0398	0.27697	-0.403
Mof_O 	O 	0.01362	0.03806	0.23948	-0.402
Mof_O 	O 	0.02104	0.02368	0.1856	-0.419
Mof_O 	O 	0.16869	0.98418	0.07866	-0.391
Mof_O 	O 	0.22217	0.96626	0.08733	-0.399
Mof_O 	O 	0.81775	0.46632	0.51852	-0.365
Mof_O 	O 	0.75905	0.46502	0.50639	-0.384
Mof_O 	O 	0.92595	0.46243	0.66682	-0.4
Mof_O 	O 	0.91716	0.4602	0.72303	-0.403
Mof_O 	O 	0.51362	0.46194	0.76052	-0.402
Mof_O 	O 	0.52104	0.47632	0.8144	-0.419
Mof_O 	O 	0.66869	0.51582	0.92134	-0.391
Mof_O 	O 	0.72217	0.53374	0.91267	-0.399
Mof_O 	O 	0.18225	0.96632	0.98148	-0.365
Mof_O 	O 	0.24095	0.96502	0.99361	-0.384
Mof_O 	O 	0.07405	0.96243	0.83318	-0.4
Mof_O 	O 	0.08284	0.9602	0.77697	-0.403
Mof_O 	O 	0.48638	0.96194	0.73948	-0.402
Mof_O 	O 	0.47896	0.97632	0.6856	-0.419
Mof_O 	O 	0.33131	0.01582	0.57866	-0.391
Mof_O 	O 	0.27783	0.03374	0.58733	-0.399
Mof_O 	O 	0.68225	0.53368	0.01852	-0.365
Mof_O 	O 	0.74095	0.53498	0.00639	-0.384
Mof_O 	O 	0.57405	0.53757	0.16682	-0.4
Mof_O 	O 	0.58284	0.5398	0.22303	-0.403
Mof_O 	O 	0.98638	0.53806	0.26052	-0.402
Mof_O 	O 	0.97896	0.52368	0.3144	-0.419
Mof_O 	O 	0.83131	0.48418	0.42134	-0.391
Mof_O 	O 	0.77783	0.46626	0.41267	-0.399
Mof_O 	O 	0.48148	0.31775	0.03368	-0.365
Mof_O 	O 	0.49361	0.25905	0.03498	-0.384
Mof_O 	O 	0.33318	0.42595	0.03757	-0.4
Mof_O 	O 	0.27697	0.41716	0.0398	-0.403
Mof_O 	O 	0.23948	0.01362	0.03806	-0.402
Mof_O 	O 	0.1856	0.02104	0.02368	-0.419
Mof_O 	O 	0.07866	0.16869	0.98418	-0.391
Mof_O 	O 	0.08733	0.22217	0.96626	-0.399
Mof_O 	O 	0.51852	0.81775	0.46632	-0.365
Mof_O 	O 	0.50639	0.75905	0.46502	-0.384
Mof_O 	O 	0.66682	0.92595	0.46243	-0.4
Mof_O 	O 	0.72303	0.91716	0.4602	-0.403
Mof_O 	O 	0.76052	0.51362	0.46194	-0.402
Mof_O 	O 	0.8144	0.52104	0.47632	-0.419
Mof_O 	O 	0.92134	0.66869	0.51582	-0.391
Mof_O 	O 	0.91267	0.72217	0.53374	-0.399
Mof_O 	O 	0.98148	0.18225	0.96632	-0.365
Mof_O 	O 	0.99361	0.24095	0.96502	-0.384
Mof_O 	O 	0.83318	0.07405	0.96243	-0.4
Mof_O 	O 	0.77697	0.08284	0.9602	-0.403
Mof_O 	O 	0.73948	0.48638	0.96194	-0.402
Mof_O 	O 	0.6856	0.47896	0.97632	-0.419
Mof_O 	O 	0.57866	0.33131	0.01582	-0.391
Mof_O 	O 	0.58733	0.27783	0.03374	-0.399
Mof_O 	O 	0.01852	0.68225	0.53368	-0.365
Mof_O 	O 	0.00639	0.74095	0.53498	-0.384
Mof_O 	O 	0.16682	0.57405	0.53757	-0.4
Mof_O 	O 	0.22303	0.58284	0.5398	-0.403
Mof_O 	O 	0.26052	0.98638	0.53806	-0.402
Mof_O 	O 	0.3144	0.97896	0.52368	-0.419
Mof_O 	O 	0.42134	0.83131	0.48418	-0.391
Mof_O 	O 	0.41267	0.77783	0.46626	-0.399
_end
