data_functionalizedCrystal
_audit_creation_method	'EQeq! by Chris Wilmer'
_symmetry_space_group_name_H-M	'P1'
_symmetry_Int_Tables_number	1
_symmetry_cell_setting	triclinic
loop_
_symmetry_equiv_pos_as_xyz
  x,y,z
_cell_length_a	17.4025
_cell_length_b	9.9887
_cell_length_c	25.5946
_cell_angle_alpha	90
_cell_angle_beta	98.568
_cell_angle_gamma	90
loop_
_atom_site_label
_atom_site_type_symbol
_atom_site_fract_x
_atom_site_fract_y
_atom_site_fract_z
_atom_site_charge
Mof_U 	U 	0.53331	0.43826	0.8606	0.046
Mof_Cl	Cl	0.66411	0.37908	0.81975	-0.17
Mof_O 	O 	0.49395	0.2854	0.79253	-0.144
Mof_O 	O 	0.50614	0.59	0.7934	-0.15
Mof_O 	O 	0.5669	0.2165	0.89977	-0.167
Mof_O 	O 	0.62537	0.4735	0.9423	-0.16
Mof_O 	O 	0.62303	0.6308	0.88213	-0.168
Mof_O 	O 	0.47918	0.3275	0.93391	-0.175
Mof_C 	C 	0.6477	0.5866	0.9278	0.269
Mof_C 	C 	0.5186	0.2234	0.93165	0.277
Mof_C 	C 	0.7311	0.7875	0.94785	-0.031
Mof_H 	H 	0.7183	0.8134	0.9127	0.08
Mof_C 	C 	0.7017	0.6695	0.96525	-0.022
Mof_C 	C 	0.5085	0.1079	0.9676	-0.022
Mof_C 	C 	0.5526	0.991	0.96405	-0.026
Mof_H 	H 	0.5878	0.9856	0.9401	0.069
Mof_C 	C 	0.5172	0.8681	0.79726	-0.012
Mof_H 	H 	0.5289	0.8216	0.8289	0.08
Mof_C 	C 	0.517	0.0075	0.7971	-0.027
Mof_H 	H 	0.5283	0.0543	0.8287	0.087
Mof_C 	C 	0.4572	0.1157	0.00319	-0.024
Mof_H 	H 	0.4286	0.1937	0.0053	0.071
Mof_C 	C 	0.7207	0.6338	0.01749	-0.031
Mof_H 	H 	0.7007	0.5551	0.0295	0.083
Mof_U 	U 	0.03331	0.93826	0.8606	0.037
Mof_Cl	Cl	0.16411	0.87908	0.81975	-0.177
Mof_O 	O 	0.99395	0.7854	0.79253	-0.12
Mof_O 	O 	0.00614	0.09	0.7934	-0.153
Mof_O 	O 	0.0669	0.7165	0.89977	-0.17
Mof_O 	O 	0.12537	0.9735	0.9423	-0.163
Mof_O 	O 	0.12303	0.1308	0.88213	-0.17
Mof_O 	O 	0.97918	0.8275	0.93391	-0.156
Mof_C 	C 	0.1477	0.0866	0.9278	0.269
Mof_C 	C 	0.0186	0.7234	0.93165	0.268
Mof_C 	C 	0.2311	0.2875	0.94785	-0.029
Mof_H 	H 	0.2183	0.3134	0.9127	0.078
Mof_C 	C 	0.2017	0.1695	0.96525	-0.026
Mof_C 	C 	0.0085	0.6079	0.9676	-0.068
Mof_C 	C 	0.0526	0.491	0.96405	0.015
Mof_H 	H 	0.0878	0.4856	0.9401	0.053
Mof_C 	C 	0.0172	0.3681	0.79726	-0.013
Mof_H 	H 	0.0289	0.3216	0.8289	0.078
Mof_C 	C 	0.017	0.5075	0.7971	-0.025
Mof_H 	H 	0.0283	0.5543	0.8287	0.084
Mof_C 	C 	0.9572	0.6157	0.00319	0.036
Mof_H 	H 	0.9286	0.6937	0.0053	0.053
Mof_C 	C 	0.2207	0.1338	0.01749	-0.028
Mof_H 	H 	0.2007	0.0551	0.0295	0.081
Mof_U 	U 	0.46669	0.43826	0.6394	0.045
Mof_Cl	Cl	0.33589	0.37908	0.68025	-0.176
Mof_O 	O 	0.50605	0.2854	0.70747	-0.145
Mof_O 	O 	0.49386	0.59	0.7066	-0.151
Mof_O 	O 	0.4331	0.2165	0.60023	-0.17
Mof_O 	O 	0.37463	0.4735	0.5577	-0.161
Mof_O 	O 	0.37697	0.6308	0.61787	-0.17
Mof_O 	O 	0.52082	0.3275	0.56609	-0.176
Mof_C 	C 	0.3523	0.5866	0.5722	0.27
Mof_C 	C 	0.4814	0.2234	0.56835	0.278
Mof_C 	C 	0.2689	0.7875	0.55215	-0.027
Mof_H 	H 	0.2817	0.8134	0.5873	0.076
Mof_C 	C 	0.2983	0.6695	0.53475	-0.029
Mof_C 	C 	0.4915	0.1079	0.5324	-0.027
Mof_C 	C 	0.4474	0.991	0.53595	-0.022
Mof_H 	H 	0.4122	0.9856	0.5599	0.066
Mof_C 	C 	0.4828	0.8681	0.70274	-0.012
Mof_H 	H 	0.4711	0.8216	0.6711	0.079
Mof_C 	C 	0.483	0.0075	0.7029	-0.027
Mof_H 	H 	0.4717	0.0543	0.6713	0.087
Mof_C 	C 	0.5428	0.1157	0.49681	-0.018
Mof_H 	H 	0.5714	0.1937	0.4947	0.069
Mof_C 	C 	0.2793	0.6338	0.48251	-0.025
Mof_H 	H 	0.2993	0.5551	0.4705	0.081
Mof_U 	U 	0.96669	0.93826	0.6394	0.052
Mof_Cl	Cl	0.83589	0.87908	0.68025	-0.169
Mof_O 	O 	0.00605	0.7854	0.70747	-0.152
Mof_O 	O 	0.99386	0.09	0.7066	-0.132
Mof_O 	O 	0.9331	0.7165	0.60023	-0.167
Mof_O 	O 	0.87463	0.9735	0.5577	-0.158
Mof_O 	O 	0.87697	0.1308	0.61787	-0.167
Mof_O 	O 	0.02082	0.8275	0.56609	-0.194
Mof_C 	C 	0.8523	0.0866	0.5722	0.27
Mof_C 	C 	0.9814	0.7234	0.56835	0.286
Mof_C 	C 	0.7689	0.2875	0.55215	-0.027
Mof_H 	H 	0.7817	0.3134	0.5873	0.077
Mof_C 	C 	0.7983	0.1695	0.53475	-0.027
Mof_C 	C 	0.9915	0.6079	0.5324	0.02
Mof_C 	C 	0.9474	0.491	0.53595	-0.064
Mof_H 	H 	0.9122	0.4856	0.5599	0.082
Mof_C 	C 	0.9828	0.3681	0.70274	0.004
Mof_H 	H 	0.9711	0.3216	0.6711	0.077
Mof_C 	C 	0.983	0.5075	0.7029	-0.005
Mof_H 	H 	0.9717	0.5543	0.6713	0.084
Mof_C 	C 	0.0428	0.6157	0.49681	-0.079
Mof_H 	H 	0.0714	0.6937	0.4947	0.087
Mof_C 	C 	0.7793	0.1338	0.48251	-0.025
Mof_H 	H 	0.7993	0.0551	0.4705	0.083
Mof_U 	U 	0.46669	0.56174	0.1394	0.045
Mof_Cl	Cl	0.33589	0.62092	0.18025	-0.176
Mof_O 	O 	0.50605	0.7146	0.20747	-0.145
Mof_O 	O 	0.49386	0.41	0.2066	-0.151
Mof_O 	O 	0.4331	0.7835	0.10023	-0.17
Mof_O 	O 	0.37463	0.5265	0.0577	-0.162
Mof_O 	O 	0.37697	0.3692	0.11787	-0.17
Mof_O 	O 	0.52082	0.6725	0.06609	-0.176
Mof_C 	C 	0.3523	0.4134	0.0722	0.272
Mof_C 	C 	0.4814	0.7766	0.06835	0.28
Mof_C 	C 	0.2689	0.2125	0.05215	-0.023
Mof_H 	H 	0.2817	0.1866	0.0873	0.075
Mof_C 	C 	0.2983	0.3305	0.03475	-0.033
Mof_C 	C 	0.4915	0.8921	0.0324	-0.032
Mof_C 	C 	0.4474	0.009	0.03595	-0.017
Mof_H 	H 	0.4122	0.0144	0.0599	0.065
Mof_C 	C 	0.4828	0.1319	0.20274	-0.012
Mof_H 	H 	0.4711	0.1784	0.1711	0.08
Mof_C 	C 	0.483	0.9925	0.2029	-0.027
Mof_H 	H 	0.4717	0.9457	0.1713	0.087
Mof_C 	C 	0.5428	0.8843	0.99681	-0.011
Mof_H 	H 	0.5714	0.8063	0.9947	0.068
Mof_C 	C 	0.2793	0.3662	0.98251	-0.02
Mof_H 	H 	0.2993	0.4449	0.9705	0.08
Mof_U 	U 	0.96669	0.06174	0.1394	0.052
Mof_Cl	Cl	0.83589	0.12092	0.18025	-0.169
Mof_O 	O 	0.00605	0.2146	0.20747	-0.152
Mof_O 	O 	0.99386	0.91	0.2066	-0.132
Mof_O 	O 	0.9331	0.2835	0.10023	-0.168
Mof_O 	O 	0.87463	0.0265	0.0577	-0.159
Mof_O 	O 	0.87697	0.8692	0.11787	-0.168
Mof_O 	O 	0.02082	0.1725	0.06609	-0.194
Mof_C 	C 	0.8523	0.9134	0.0722	0.272
Mof_C 	C 	0.9814	0.2766	0.06835	0.287
Mof_C 	C 	0.7689	0.7125	0.05215	-0.021
Mof_H 	H 	0.7817	0.6866	0.0873	0.075
Mof_C 	C 	0.7983	0.8305	0.03475	-0.033
Mof_C 	C 	0.9915	0.3921	0.0324	0.015
Mof_C 	C 	0.9474	0.509	0.03595	-0.059
Mof_H 	H 	0.9122	0.5144	0.0599	0.08
Mof_C 	C 	0.9828	0.6319	0.20274	0.004
Mof_H 	H 	0.9711	0.6784	0.1711	0.077
Mof_C 	C 	0.983	0.4925	0.2029	-0.006
Mof_H 	H 	0.9717	0.4457	0.1713	0.085
Mof_C 	C 	0.0428	0.3843	0.99681	-0.072
Mof_H 	H 	0.0714	0.3063	0.9947	0.085
Mof_C 	C 	0.7793	0.8662	0.98251	-0.016
Mof_H 	H 	0.7993	0.9449	0.9705	0.081
Mof_U 	U 	0.53331	0.56174	0.3606	0.045
Mof_Cl	Cl	0.66411	0.62092	0.31975	-0.171
Mof_O 	O 	0.49395	0.7146	0.29253	-0.145
Mof_O 	O 	0.50614	0.41	0.2934	-0.151
Mof_O 	O 	0.5669	0.7835	0.39977	-0.169
Mof_O 	O 	0.62537	0.5265	0.4423	-0.161
Mof_O 	O 	0.62303	0.3692	0.38213	-0.169
Mof_O 	O 	0.47918	0.6725	0.43391	-0.176
Mof_C 	C 	0.6477	0.4134	0.4278	0.271
Mof_C 	C 	0.5186	0.7766	0.43165	0.278
Mof_C 	C 	0.7311	0.2125	0.44785	-0.025
Mof_H 	H 	0.7183	0.1866	0.4127	0.077
Mof_C 	C 	0.7017	0.3305	0.46525	-0.029
Mof_C 	C 	0.5085	0.8921	0.4676	-0.026
Mof_C 	C 	0.5526	0.009	0.46405	-0.022
Mof_H 	H 	0.5878	0.0144	0.4401	0.067
Mof_C 	C 	0.5172	0.1319	0.29726	-0.012
Mof_H 	H 	0.5289	0.1784	0.3289	0.08
Mof_C 	C 	0.517	0.9925	0.2971	-0.027
Mof_H 	H 	0.5283	0.9457	0.3287	0.087
Mof_C 	C 	0.4572	0.8843	0.50319	-0.019
Mof_H 	H 	0.4286	0.8063	0.5053	0.069
Mof_C 	C 	0.7207	0.3662	0.51749	-0.023
Mof_H 	H 	0.7007	0.4449	0.5295	0.081
Mof_U 	U 	0.03331	0.06174	0.3606	0.037
Mof_Cl	Cl	0.16411	0.12092	0.31975	-0.177
Mof_O 	O 	0.99395	0.2146	0.29253	-0.121
Mof_O 	O 	0.00614	0.91	0.2934	-0.152
Mof_O 	O 	0.0669	0.2835	0.39977	-0.17
Mof_O 	O 	0.12537	0.0265	0.4423	-0.164
Mof_O 	O 	0.12303	0.8692	0.38213	-0.171
Mof_O 	O 	0.97918	0.1725	0.43391	-0.157
Mof_C 	C 	0.1477	0.9134	0.4278	0.271
Mof_C 	C 	0.0186	0.2766	0.43165	0.27
Mof_C 	C 	0.2311	0.7125	0.44785	-0.025
Mof_H 	H 	0.2183	0.6866	0.4127	0.076
Mof_C 	C 	0.2017	0.8305	0.46525	-0.03
Mof_C 	C 	0.0085	0.3921	0.4676	-0.074
Mof_C 	C 	0.0526	0.509	0.46405	0.02
Mof_H 	H 	0.0878	0.5144	0.4401	0.051
Mof_C 	C 	0.0172	0.6319	0.29726	-0.013
Mof_H 	H 	0.0289	0.6784	0.3289	0.078
Mof_C 	C 	0.017	0.4925	0.2971	-0.025
Mof_H 	H 	0.0283	0.4457	0.3287	0.084
Mof_C 	C 	0.9572	0.3843	0.50319	0.042
Mof_H 	H 	0.9286	0.3063	0.5053	0.051
Mof_C 	C 	0.2207	0.8662	0.51749	-0.024
Mof_H 	H 	0.2007	0.9449	0.5295	0.08
Mof_C 	C 	0.5	0.6491	0.75	0.286
Mof_C 	C 	0.5	0.227	0.75	0.283
Mof_C 	C 	0.5	0.799	0.75	-0.016
Mof_C 	C 	0.5	0.0762	0.75	-0.001
Mof_C 	C 	2.58414e-17	0.1491	0.75	0.266
Mof_C 	C 	2.58414e-17	0.727	0.75	0.265
Mof_C 	C 	2.58414e-17	0.299	0.75	-0.032
Mof_C 	C 	2.58414e-17	0.5762	0.75	-0.02
Mof_C 	C 	0.5	0.3509	0.25	0.286
Mof_C 	C 	0.5	0.773	0.25	0.283
Mof_C 	C 	0.5	0.201	0.25	-0.016
Mof_C 	C 	0.5	0.9238	0.25	-0.002
Mof_C 	C 	6.46034e-18	0.8509	0.25	0.267
Mof_C 	C 	1.29207e-17	0.273	0.25	0.265
Mof_C 	C 	6.46034e-18	0.701	0.25	-0.031
Mof_C 	C 	6.46034e-18	0.4238	0.25	-0.019
_end
