data_functionalizedCrystal
_audit_creation_method	'EQeq! by Chris Wilmer'
_symmetry_space_group_name_H-M	'P1'
_symmetry_Int_Tables_number	1
_symmetry_cell_setting	triclinic
loop_
_symmetry_equiv_pos_as_xyz
  x,y,z
_cell_length_a	7.8046
_cell_length_b	21.3806
_cell_length_c	19.8173
_cell_angle_alpha	90
_cell_angle_beta	98.582
_cell_angle_gamma	90
loop_
_atom_site_label
_atom_site_type_symbol
_atom_site_fract_x
_atom_site_fract_y
_atom_site_fract_z
_atom_site_charge
Mof_La	La	0.98845	0.22323	0.25543	2.236
Mof_O 	O 	0.1277	0.1159	0.2348	-0.908
Mof_H 	H 	0.2054	0.1005	0.2648	0.421
Mof_H 	H 	0.071	0.1162	0.1947	0.399
Mof_O 	O 	0.8247	0.1728	0.1466	-0.449
Mof_O 	O 	0.6985	0.2599	0.1733	-0.578
Mof_C 	C 	0.7153	0.2149	0.1314	0.41
Mof_C 	C 	0.6023	0.2154	0.0636	-0.151
Mof_C 	C 	0.5541	0.1587	0.0322	0.093
Mof_C 	C 	0.5491	0.271	0.0325	0.092
Mof_O 	O 	0.3132	0.2104	0.3241	-0.599
Mof_O 	O 	0.096	0.1808	0.3754	-0.427
Mof_C 	C 	0.2568	0.1895	0.3767	0.403
Mof_C 	C 	0.3807	0.1776	0.4406	-0.121
Mof_C 	C 	0.3212	0.1731	0.5039	0.107
Mof_C 	C 	0.5561	0.1764	0.4376	-0.028
Mof_H 	H 	0.5934	0.1779	0.3952	0.038
Mof_O 	O 	0.2289	0.3332	0.2861	-0.531
Mof_O 	O 	0.979	0.3387	0.2172	-0.443
Mof_C 	C 	0.1069	0.3652	0.2509	0.413
Mof_C 	C 	0.1197	0.4346	0.2507	-0.153
Mof_C 	C 	0.2372	0.4664	0.2983	0.083
Mof_C 	C 	0.0045	0.4679	0.2019	0.089
Mof_N 	N 	0.15	0.1614	0.5109	-0.08
Mof_N 	N 	0.354	0.4414	0.3517	-0.09
Mof_N 	N 	0.636	0.1003	0.0525	-0.07
Mof_N 	N 	0.879	0.439	0.159	-0.082
Mof_N 	N 	0.602	0.326	0.057	-0.092
Mof_La	La	0.48845	0.72323	0.25543	2.246
Mof_O 	O 	0.6277	0.6159	0.2348	-0.908
Mof_H 	H 	0.7054	0.6005	0.2648	0.421
Mof_H 	H 	0.571	0.6162	0.1947	0.399
Mof_O 	O 	0.3247	0.6728	0.1466	-0.447
Mof_O 	O 	0.1985	0.7599	0.1733	-0.576
Mof_C 	C 	0.2153	0.7149	0.1314	0.411
Mof_C 	C 	0.1023	0.7154	0.0636	-0.149
Mof_C 	C 	0.0541	0.6587	0.0322	0.094
Mof_C 	C 	0.0491	0.771	0.0325	0.094
Mof_O 	O 	0.8132	0.7104	0.3241	-0.599
Mof_O 	O 	0.596	0.6808	0.3754	-0.429
Mof_C 	C 	0.7568	0.6895	0.3767	0.404
Mof_C 	C 	0.8807	0.6776	0.4406	-0.121
Mof_C 	C 	0.8212	0.6731	0.5039	0.107
Mof_C 	C 	0.0561	0.6764	0.4376	-0.025
Mof_H 	H 	0.0934	0.6779	0.3952	0.038
Mof_O 	O 	0.7289	0.8332	0.2861	-0.53
Mof_O 	O 	0.479	0.8387	0.2172	-0.439
Mof_C 	C 	0.6069	0.8652	0.2509	0.408
Mof_C 	C 	0.6197	0.9346	0.2507	-0.152
Mof_C 	C 	0.7372	0.9664	0.2983	0.082
Mof_C 	C 	0.5045	0.9679	0.2019	0.086
Mof_N 	N 	0.65	0.6614	0.5109	-0.08
Mof_N 	N 	0.854	0.9414	0.3517	-0.09
Mof_N 	N 	0.136	0.6003	0.0525	-0.069
Mof_N 	N 	0.379	0.939	0.159	-0.079
Mof_N 	N 	0.102	0.826	0.057	-0.091
Mof_La	La	0.01155	0.22323	0.74457	2.237
Mof_O 	O 	0.8723	0.1159	0.7652	-0.907
Mof_H 	H 	0.7946	0.1005	0.7352	0.422
Mof_H 	H 	0.929	0.1162	0.8053	0.4
Mof_O 	O 	0.1753	0.1728	0.8534	-0.448
Mof_O 	O 	0.3015	0.2599	0.8267	-0.577
Mof_C 	C 	0.2847	0.2149	0.8686	0.411
Mof_C 	C 	0.3977	0.2154	0.9364	-0.15
Mof_C 	C 	0.4459	0.1587	0.9678	0.094
Mof_C 	C 	0.4509	0.271	0.9675	0.093
Mof_O 	O 	0.6868	0.2104	0.6759	-0.598
Mof_O 	O 	0.904	0.1808	0.6246	-0.426
Mof_C 	C 	0.7432	0.1895	0.6233	0.404
Mof_C 	C 	0.6193	0.1776	0.5594	-0.12
Mof_C 	C 	0.6788	0.1731	0.4961	0.108
Mof_C 	C 	0.4439	0.1764	0.5624	-0.027
Mof_H 	H 	0.4066	0.1779	0.6048	0.038
Mof_O 	O 	0.7711	0.3332	0.7139	-0.531
Mof_O 	O 	0.021	0.3387	0.7828	-0.443
Mof_C 	C 	0.8931	0.3652	0.7491	0.413
Mof_C 	C 	0.8803	0.4346	0.7493	-0.153
Mof_C 	C 	0.7628	0.4664	0.7017	0.083
Mof_C 	C 	0.9955	0.4679	0.7981	0.089
Mof_N 	N 	0.85	0.1614	0.4891	-0.08
Mof_N 	N 	0.646	0.4414	0.6483	-0.09
Mof_N 	N 	0.364	0.1003	0.9475	-0.07
Mof_N 	N 	0.121	0.439	0.841	-0.082
Mof_N 	N 	0.398	0.326	0.943	-0.092
Mof_La	La	0.51155	0.72323	0.74457	2.246
Mof_O 	O 	0.3723	0.6159	0.7652	-0.908
Mof_H 	H 	0.2946	0.6005	0.7352	0.421
Mof_H 	H 	0.429	0.6162	0.8053	0.399
Mof_O 	O 	0.6753	0.6728	0.8534	-0.447
Mof_O 	O 	0.8015	0.7599	0.8267	-0.576
Mof_C 	C 	0.7847	0.7149	0.8686	0.411
Mof_C 	C 	0.8977	0.7154	0.9364	-0.149
Mof_C 	C 	0.9459	0.6587	0.9678	0.094
Mof_C 	C 	0.9509	0.771	0.9675	0.094
Mof_O 	O 	0.1868	0.7104	0.6759	-0.599
Mof_O 	O 	0.404	0.6808	0.6246	-0.429
Mof_C 	C 	0.2432	0.6895	0.6233	0.404
Mof_C 	C 	0.1193	0.6776	0.5594	-0.121
Mof_C 	C 	0.1788	0.6731	0.4961	0.107
Mof_C 	C 	0.9439	0.6764	0.5624	-0.025
Mof_H 	H 	0.9066	0.6779	0.6048	0.038
Mof_O 	O 	0.2711	0.8332	0.7139	-0.53
Mof_O 	O 	0.521	0.8387	0.7828	-0.439
Mof_C 	C 	0.3931	0.8652	0.7491	0.408
Mof_C 	C 	0.3803	0.9346	0.7493	-0.152
Mof_C 	C 	0.2628	0.9664	0.7017	0.082
Mof_C 	C 	0.4955	0.9679	0.7981	0.086
Mof_N 	N 	0.35	0.6614	0.4891	-0.08
Mof_N 	N 	0.146	0.9414	0.6483	-0.09
Mof_N 	N 	0.864	0.6003	0.9475	-0.069
Mof_N 	N 	0.621	0.939	0.841	-0.079
Mof_N 	N 	0.898	0.826	0.943	-0.091
Mof_La	La	0.01155	0.77677	0.74457	2.237
Mof_O 	O 	0.8723	0.8841	0.7652	-0.907
Mof_H 	H 	0.7946	0.8995	0.7352	0.422
Mof_H 	H 	0.929	0.8838	0.8053	0.4
Mof_O 	O 	0.1753	0.8272	0.8534	-0.448
Mof_O 	O 	0.3015	0.7401	0.8267	-0.577
Mof_C 	C 	0.2847	0.7851	0.8686	0.411
Mof_C 	C 	0.3977	0.7846	0.9364	-0.15
Mof_C 	C 	0.4459	0.8413	0.9678	0.094
Mof_C 	C 	0.4509	0.729	0.9675	0.093
Mof_O 	O 	0.6868	0.7896	0.6759	-0.598
Mof_O 	O 	0.904	0.8192	0.6246	-0.426
Mof_C 	C 	0.7432	0.8105	0.6233	0.404
Mof_C 	C 	0.6193	0.8224	0.5594	-0.12
Mof_C 	C 	0.6788	0.8269	0.4961	0.108
Mof_C 	C 	0.4439	0.8236	0.5624	-0.027
Mof_H 	H 	0.4066	0.8221	0.6048	0.038
Mof_O 	O 	0.7711	0.6668	0.7139	-0.531
Mof_O 	O 	0.021	0.6613	0.7828	-0.443
Mof_C 	C 	0.8931	0.6348	0.7491	0.413
Mof_C 	C 	0.8803	0.5654	0.7493	-0.153
Mof_C 	C 	0.7628	0.5336	0.7017	0.083
Mof_C 	C 	0.9955	0.5321	0.7981	0.089
Mof_N 	N 	0.85	0.8386	0.4891	-0.08
Mof_N 	N 	0.646	0.5586	0.6483	-0.09
Mof_N 	N 	0.364	0.8997	0.9475	-0.07
Mof_N 	N 	0.121	0.561	0.841	-0.082
Mof_N 	N 	0.398	0.674	0.943	-0.092
Mof_La	La	0.51155	0.27677	0.74457	2.246
Mof_O 	O 	0.3723	0.3841	0.7652	-0.908
Mof_H 	H 	0.2946	0.3995	0.7352	0.421
Mof_H 	H 	0.429	0.3838	0.8053	0.399
Mof_O 	O 	0.6753	0.3272	0.8534	-0.447
Mof_O 	O 	0.8015	0.2401	0.8267	-0.576
Mof_C 	C 	0.7847	0.2851	0.8686	0.411
Mof_C 	C 	0.8977	0.2846	0.9364	-0.149
Mof_C 	C 	0.9459	0.3413	0.9678	0.094
Mof_C 	C 	0.9509	0.229	0.9675	0.094
Mof_O 	O 	0.1868	0.2896	0.6759	-0.599
Mof_O 	O 	0.404	0.3192	0.6246	-0.429
Mof_C 	C 	0.2432	0.3105	0.6233	0.404
Mof_C 	C 	0.1193	0.3224	0.5594	-0.121
Mof_C 	C 	0.1788	0.3269	0.4961	0.107
Mof_C 	C 	0.9439	0.3236	0.5624	-0.025
Mof_H 	H 	0.9066	0.3221	0.6048	0.038
Mof_O 	O 	0.2711	0.1668	0.7139	-0.53
Mof_O 	O 	0.521	0.1613	0.7828	-0.439
Mof_C 	C 	0.3931	0.1348	0.7491	0.408
Mof_C 	C 	0.3803	0.0654	0.7493	-0.152
Mof_C 	C 	0.2628	0.0336	0.7017	0.082
Mof_C 	C 	0.4955	0.0321	0.7981	0.086
Mof_N 	N 	0.35	0.3386	0.4891	-0.08
Mof_N 	N 	0.146	0.0586	0.6483	-0.09
Mof_N 	N 	0.864	0.3997	0.9475	-0.069
Mof_N 	N 	0.621	0.061	0.841	-0.079
Mof_N 	N 	0.898	0.174	0.943	-0.091
Mof_La	La	0.98845	0.77677	0.25543	2.237
Mof_O 	O 	0.1277	0.8841	0.2348	-0.907
Mof_H 	H 	0.2054	0.8995	0.2648	0.422
Mof_H 	H 	0.071	0.8838	0.1947	0.4
Mof_O 	O 	0.8247	0.8272	0.1466	-0.448
Mof_O 	O 	0.6985	0.7401	0.1733	-0.577
Mof_C 	C 	0.7153	0.7851	0.1314	0.411
Mof_C 	C 	0.6023	0.7846	0.0636	-0.15
Mof_C 	C 	0.5541	0.8413	0.0322	0.094
Mof_C 	C 	0.5491	0.729	0.0325	0.093
Mof_O 	O 	0.3132	0.7896	0.3241	-0.598
Mof_O 	O 	0.096	0.8192	0.3754	-0.426
Mof_C 	C 	0.2568	0.8105	0.3767	0.404
Mof_C 	C 	0.3807	0.8224	0.4406	-0.12
Mof_C 	C 	0.3212	0.8269	0.5039	0.108
Mof_C 	C 	0.5561	0.8236	0.4376	-0.027
Mof_H 	H 	0.5934	0.8221	0.3952	0.038
Mof_O 	O 	0.2289	0.6668	0.2861	-0.531
Mof_O 	O 	0.979	0.6613	0.2172	-0.443
Mof_C 	C 	0.1069	0.6348	0.2509	0.413
Mof_C 	C 	0.1197	0.5654	0.2507	-0.153
Mof_C 	C 	0.2372	0.5336	0.2983	0.083
Mof_C 	C 	0.0045	0.5321	0.2019	0.089
Mof_N 	N 	0.15	0.8386	0.5109	-0.08
Mof_N 	N 	0.354	0.5586	0.3517	-0.09
Mof_N 	N 	0.636	0.8997	0.0525	-0.07
Mof_N 	N 	0.879	0.561	0.159	-0.082
Mof_N 	N 	0.602	0.674	0.057	-0.092
Mof_La	La	0.48845	0.27677	0.25543	2.246
Mof_O 	O 	0.6277	0.3841	0.2348	-0.908
Mof_H 	H 	0.7054	0.3995	0.2648	0.421
Mof_H 	H 	0.571	0.3838	0.1947	0.399
Mof_O 	O 	0.3247	0.3272	0.1466	-0.447
Mof_O 	O 	0.1985	0.2401	0.1733	-0.576
Mof_C 	C 	0.2153	0.2851	0.1314	0.411
Mof_C 	C 	0.1023	0.2846	0.0636	-0.149
Mof_C 	C 	0.0541	0.3413	0.0322	0.094
Mof_C 	C 	0.0491	0.229	0.0325	0.094
Mof_O 	O 	0.8132	0.2896	0.3241	-0.599
Mof_O 	O 	0.596	0.3192	0.3754	-0.429
Mof_C 	C 	0.7568	0.3105	0.3767	0.404
Mof_C 	C 	0.8807	0.3224	0.4406	-0.121
Mof_C 	C 	0.8212	0.3269	0.5039	0.107
Mof_C 	C 	0.0561	0.3236	0.4376	-0.025
Mof_H 	H 	0.0934	0.3221	0.3952	0.038
Mof_O 	O 	0.7289	0.1668	0.2861	-0.53
Mof_O 	O 	0.479	0.1613	0.2172	-0.439
Mof_C 	C 	0.6069	0.1348	0.2509	0.408
Mof_C 	C 	0.6197	0.0654	0.2507	-0.152
Mof_C 	C 	0.7372	0.0336	0.2983	0.082
Mof_C 	C 	0.5045	0.0321	0.2019	0.086
Mof_N 	N 	0.65	0.3386	0.5109	-0.08
Mof_N 	N 	0.854	0.0586	0.3517	-0.09
Mof_N 	N 	0.136	0.3997	0.0525	-0.069
Mof_N 	N 	0.379	0.061	0.159	-0.079
Mof_N 	N 	0.102	0.174	0.057	-0.091
_end
