data_functionalizedCrystal
_audit_creation_method	'EQeq! by Chris Wilmer'
_symmetry_space_group_name_H-M	'P1'
_symmetry_Int_Tables_number	1
_symmetry_cell_setting	triclinic
loop_
_symmetry_equiv_pos_as_xyz
  x,y,z
_cell_length_a	27.627
_cell_length_b	6.8348
_cell_length_c	28.135
_cell_angle_alpha	90
_cell_angle_beta	90
_cell_angle_gamma	90
loop_
_atom_site_label
_atom_site_type_symbol
_atom_site_fract_x
_atom_site_fract_y
_atom_site_fract_z
_atom_site_charge
Mof_C 	C 	0.56582	0.84	0.38442	0.168
Mof_C 	C 	0.6113	0.1017	0.36543	0.17
Mof_C 	C 	0.5859	0.061	0.44082	0.163
Mof_C 	C 	0.5668	0.011	0.52604	-0.124
Mof_H 	H 	0.5539	0.8872	0.5149	0.073
Mof_H 	H 	0.5415	0.0782	0.5435	0.073
Mof_C 	C 	0.6014	0.3173	0.4999	-0.114
Mof_H 	H 	0.5767	0.3911	0.5166	0.061
Mof_H 	H 	0.6107	0.3912	0.4719	0.067
Mof_C 	C 	0.52422	0.5369	0.4061	-0.065
Mof_H 	H 	0.5241	0.5964	0.4374	0.053
Mof_H 	H 	0.5453	0.4234	0.4071	0.06
Mof_C 	C 	0.54148	0.6081	0.32234	-0.068
Mof_H 	H 	0.5625	0.4952	0.3189	0.065
Mof_H 	H 	0.5532	0.7104	0.3014	0.071
Mof_C 	C 	0.6467	0.1258	0.28566	-0.082
Mof_H 	H 	0.6196	0.0449	0.2758	0.075
Mof_H 	H 	0.6752	0.0433	0.2877	0.064
Mof_C 	C 	0.672	0.3538	0.34945	-0.056
Mof_H 	H 	0.7023	0.2877	0.3563	0.046
Mof_H 	H 	0.6605	0.413	0.3787	0.052
Mof_C 	C 	0.65511	0.2862	0.24908	-0.025
Mof_H 	H 	0.6638	0.2275	0.2189	0.018
Mof_H 	H 	0.6254	0.3598	0.2446	0.05
Mof_C 	C 	0.68082	0.5138	0.31238	-0.059
Mof_H 	H 	0.6516	0.5908	0.3084	0.064
Mof_H 	H 	0.7063	0.6003	0.3233	0.039
Mof_C 	C 	0.69522	0.4241	0.26483	-0.165
Mof_H 	H 	0.7246	0.347	0.2697	0.081
Mof_C 	C 	0.48973	0.5531	0.30887	-0.057
Mof_H 	H 	0.4696	0.6693	0.3095	0.053
Mof_H 	H 	0.4893	0.5011	0.2768	0.053
Mof_C 	C 	0.46917	0.4016	0.34291	-0.144
Mof_H 	H 	0.4887	0.282	0.3401	0.083
Mof_C 	C 	0.47319	0.4737	0.39298	-0.049
Mof_H 	H 	0.463	0.3706	0.4144	0.037
Mof_H 	H 	0.4514	0.5836	0.3972	0.046
Mof_C 	C 	0.6099	0.9745	0.55833	0.054
Mof_H 	H 	0.5992	0.9014	0.586	0.004
Mof_H 	H 	0.6334	0.8949	0.5415	0.004
Mof_C 	C 	0.63415	0.1617	0.57471	-0.275
Mof_H 	H 	0.6108	0.232	0.5947	0.109
Mof_C 	C 	0.64451	0.2917	0.53147	0.053
Mof_H 	H 	0.6552	0.4192	0.5424	-0.023
Mof_H 	H 	0.6707	0.2343	0.5132	-0
Mof_C 	C 	0.70588	0.576	0.22835	0.369
Mof_C 	C 	0.41763	0.3513	0.32984	0.344
Mof_C 	C 	0.6796	0.133	0.60395	0.489
Mof_N 	N 	0.5882	0.9437	0.35011	-0.166
Mof_N 	N 	0.56412	0.8891	0.4306	-0.166
Mof_N 	N 	0.61146	0.1696	0.41004	-0.167
Mof_N 	N 	0.54248	0.6764	0.37142	-0.116
Mof_N 	N 	0.58191	0.1298	0.48557	-0.104
Mof_N 	N 	0.63639	0.2106	0.33262	-0.115
Mof_O 	O 	0.74451	0.5684	0.20479	-0.502
Mof_O 	O 	0.67589	0.7134	0.2212	-0.368
Mof_O 	O 	0.38296	0.4089	0.35208	-0.393
Mof_O 	O 	0.41387	0.2453	0.2911	-0.252
Mof_O 	O 	0.70132	0.2832	0.61845	-0.579
Mof_O 	O 	0.69584	0.9678	0.61035	-0.552
Mof_Sr	Sr	0.71354	0.86426	0.1434	1.573
Mof_C 	C 	0.93418	0.16	0.88442	0.167
Mof_C 	C 	0.8887	0.8983	0.86543	0.169
Mof_C 	C 	0.9141	0.939	0.94082	0.162
Mof_C 	C 	0.9332	0.989	0.02604	-0.127
Mof_H 	H 	0.9461	0.1128	0.0149	0.073
Mof_H 	H 	0.9585	0.9218	0.0435	0.073
Mof_C 	C 	0.8986	0.6827	0.9999	-0.113
Mof_H 	H 	0.9233	0.6089	0.0166	0.06
Mof_H 	H 	0.8893	0.6088	0.9719	0.067
Mof_C 	C 	0.97578	0.4631	0.9061	-0.065
Mof_H 	H 	0.9759	0.4036	0.9374	0.053
Mof_H 	H 	0.9547	0.5766	0.9071	0.06
Mof_C 	C 	0.95852	0.3919	0.82234	-0.067
Mof_H 	H 	0.9375	0.5048	0.8189	0.065
Mof_H 	H 	0.9468	0.2896	0.8014	0.071
Mof_C 	C 	0.8533	0.8742	0.78566	-0.082
Mof_H 	H 	0.8804	0.9551	0.7758	0.075
Mof_H 	H 	0.8248	0.9567	0.7877	0.064
Mof_C 	C 	0.828	0.6462	0.84945	-0.056
Mof_H 	H 	0.7977	0.7123	0.8563	0.046
Mof_H 	H 	0.8395	0.587	0.8787	0.052
Mof_C 	C 	0.84489	0.7138	0.74908	-0.025
Mof_H 	H 	0.8362	0.7725	0.7189	0.018
Mof_H 	H 	0.8746	0.6402	0.7446	0.05
Mof_C 	C 	0.81918	0.4862	0.81238	-0.059
Mof_H 	H 	0.8484	0.4092	0.8084	0.064
Mof_H 	H 	0.7937	0.3997	0.8233	0.039
Mof_C 	C 	0.80478	0.5759	0.76483	-0.165
Mof_H 	H 	0.7754	0.653	0.7697	0.081
Mof_C 	C 	0.01027	0.4469	0.80887	-0.058
Mof_H 	H 	0.0304	0.3307	0.8095	0.053
Mof_H 	H 	0.0107	0.4989	0.7768	0.053
Mof_C 	C 	0.03083	0.5984	0.84291	-0.143
Mof_H 	H 	0.0113	0.718	0.8401	0.083
Mof_C 	C 	0.02681	0.5263	0.89298	-0.049
Mof_H 	H 	0.037	0.6294	0.9144	0.037
Mof_H 	H 	0.0486	0.4164	0.8972	0.047
Mof_C 	C 	0.8901	0.0255	0.05833	0.056
Mof_H 	H 	0.9008	0.0986	0.086	0.003
Mof_H 	H 	0.8666	0.1051	0.0415	0.003
Mof_C 	C 	0.86585	0.8383	0.07471	-0.276
Mof_H 	H 	0.8892	0.768	0.0947	0.109
Mof_C 	C 	0.85549	0.7083	0.03147	0.052
Mof_H 	H 	0.8448	0.5808	0.0424	-0.023
Mof_H 	H 	0.8293	0.7657	0.0132	-0
Mof_C 	C 	0.79412	0.424	0.72835	0.369
Mof_C 	C 	0.08237	0.6487	0.82984	0.344
Mof_C 	C 	0.8204	0.867	0.10395	0.489
Mof_N 	N 	0.9118	0.0563	0.85011	-0.166
Mof_N 	N 	0.93588	0.1109	0.9306	-0.166
Mof_N 	N 	0.88854	0.8304	0.91004	-0.167
Mof_N 	N 	0.95752	0.3236	0.87142	-0.116
Mof_N 	N 	0.91809	0.8702	0.98557	-0.104
Mof_N 	N 	0.86361	0.7894	0.83262	-0.115
Mof_O 	O 	0.75549	0.4316	0.70479	-0.502
Mof_O 	O 	0.82411	0.2866	0.7212	-0.368
Mof_O 	O 	0.11704	0.5911	0.85208	-0.393
Mof_O 	O 	0.08613	0.7547	0.7911	-0.252
Mof_O 	O 	0.79868	0.7168	0.11845	-0.579
Mof_O 	O 	0.80416	0.0322	0.11035	-0.552
Mof_Sr	Sr	0.78645	0.13574	0.6434	1.573
Mof_C 	C 	0.43418	0.34	0.11558	0.169
Mof_C 	C 	0.3887	0.6017	0.13457	0.166
Mof_C 	C 	0.4141	0.561	0.05918	0.162
Mof_C 	C 	0.4332	0.511	0.97396	-0.111
Mof_H 	H 	0.4461	0.3872	0.9851	0.067
Mof_H 	H 	0.4585	0.5782	0.9565	0.069
Mof_C 	C 	0.3986	0.8173	0.0001	-0.111
Mof_H 	H 	0.4233	0.8911	0.9834	0.06
Mof_H 	H 	0.3893	0.8912	0.0281	0.067
Mof_C 	C 	0.47578	0.0369	0.0939	-0.045
Mof_H 	H 	0.4759	0.0964	0.0626	0.047
Mof_H 	H 	0.4547	0.9234	0.0929	0.052
Mof_C 	C 	0.45852	0.1081	0.17766	-0.055
Mof_H 	H 	0.4375	0.9952	0.1811	0.058
Mof_H 	H 	0.4468	0.2104	0.1986	0.069
Mof_C 	C 	0.3533	0.6258	0.21434	-0.088
Mof_H 	H 	0.3804	0.5449	0.2242	0.076
Mof_H 	H 	0.3248	0.5433	0.2123	0.065
Mof_C 	C 	0.328	0.8538	0.15055	-0.07
Mof_H 	H 	0.2977	0.7877	0.1437	0.049
Mof_H 	H 	0.3395	0.913	0.1213	0.056
Mof_C 	C 	0.34489	0.7862	0.25092	-0.013
Mof_H 	H 	0.3362	0.7275	0.2811	0.012
Mof_H 	H 	0.3746	0.8598	0.2554	0.045
Mof_C 	C 	0.31918	0.0138	0.18762	-0.037
Mof_H 	H 	0.3484	0.0908	0.1916	0.059
Mof_H 	H 	0.2937	0.1003	0.1767	0.034
Mof_C 	C 	0.30478	0.9241	0.23517	-0.185
Mof_H 	H 	0.2754	0.847	0.2303	0.085
Mof_C 	C 	0.51027	0.0531	0.19113	-0.063
Mof_H 	H 	0.5304	0.1693	0.1905	0.056
Mof_H 	H 	0.5107	0.0011	0.2232	0.056
Mof_C 	C 	0.53083	0.9016	0.15709	-0.137
Mof_H 	H 	0.5113	0.782	0.1599	0.08
Mof_C 	C 	0.52681	0.9737	0.10702	-0.072
Mof_H 	H 	0.537	0.8706	0.0856	0.043
Mof_H 	H 	0.5486	0.0836	0.1028	0.056
Mof_C 	C 	0.3901	0.4745	0.94167	0.039
Mof_H 	H 	0.4008	0.4014	0.914	0.007
Mof_H 	H 	0.3666	0.3949	0.9585	0.007
Mof_C 	C 	0.36585	0.6617	0.92529	-0.267
Mof_H 	H 	0.3892	0.732	0.9053	0.108
Mof_C 	C 	0.35549	0.7917	0.96853	0.047
Mof_H 	H 	0.3448	0.9192	0.9576	-0.02
Mof_H 	H 	0.3293	0.7343	0.9868	0.002
Mof_C 	C 	0.29412	0.076	0.27165	0.38
Mof_C 	C 	0.58237	0.8513	0.17016	0.341
Mof_C 	C 	0.3204	0.633	0.89605	0.493
Mof_N 	N 	0.4118	0.4437	0.14989	-0.164
Mof_N 	N 	0.43588	0.3891	0.0694	-0.166
Mof_N 	N 	0.38854	0.6696	0.08996	-0.167
Mof_N 	N 	0.45752	0.1764	0.12858	-0.12
Mof_N 	N 	0.41809	0.6298	0.01443	-0.106
Mof_N 	N 	0.36361	0.7106	0.16738	-0.112
Mof_O 	O 	0.25549	0.0684	0.29521	-0.501
Mof_O 	O 	0.32411	0.2134	0.2788	-0.369
Mof_O 	O 	0.61704	0.9089	0.14792	-0.394
Mof_O 	O 	0.58613	0.7453	0.2089	-0.254
Mof_O 	O 	0.29868	0.7832	0.88155	-0.578
Mof_O 	O 	0.30416	0.4678	0.88965	-0.557
Mof_Sr	Sr	0.28646	0.36426	0.3566	1.584
Mof_C 	C 	0.06582	0.66	0.61558	0.169
Mof_C 	C 	0.1113	0.3983	0.63457	0.166
Mof_C 	C 	0.0859	0.439	0.55918	0.162
Mof_C 	C 	0.0668	0.489	0.47396	-0.111
Mof_H 	H 	0.0539	0.6128	0.4851	0.067
Mof_H 	H 	0.0415	0.4218	0.4565	0.069
Mof_C 	C 	0.1014	0.1827	0.5001	-0.11
Mof_H 	H 	0.0767	0.1089	0.4834	0.06
Mof_H 	H 	0.1107	0.1088	0.5281	0.066
Mof_C 	C 	0.02422	0.9631	0.5939	-0.046
Mof_H 	H 	0.0241	0.9036	0.5626	0.048
Mof_H 	H 	0.0453	0.0766	0.5929	0.053
Mof_C 	C 	0.04148	0.8919	0.67766	-0.054
Mof_H 	H 	0.0625	0.0048	0.6811	0.057
Mof_H 	H 	0.0532	0.7896	0.6986	0.069
Mof_C 	C 	0.1467	0.3742	0.71434	-0.088
Mof_H 	H 	0.1196	0.4551	0.7242	0.076
Mof_H 	H 	0.1752	0.4567	0.7123	0.065
Mof_C 	C 	0.172	0.1462	0.65055	-0.07
Mof_H 	H 	0.2023	0.2123	0.6437	0.049
Mof_H 	H 	0.1605	0.087	0.6213	0.056
Mof_C 	C 	0.15511	0.2138	0.75092	-0.012
Mof_H 	H 	0.1638	0.2725	0.7811	0.012
Mof_H 	H 	0.1254	0.1402	0.7554	0.045
Mof_C 	C 	0.18082	0.9862	0.68762	-0.036
Mof_H 	H 	0.1516	0.9092	0.6916	0.059
Mof_H 	H 	0.2063	0.8997	0.6767	0.034
Mof_C 	C 	0.19522	0.0759	0.73517	-0.185
Mof_H 	H 	0.2246	0.153	0.7303	0.085
Mof_C 	C 	0.98973	0.9469	0.69113	-0.063
Mof_H 	H 	0.9696	0.8307	0.6905	0.056
Mof_H 	H 	0.9893	0.9989	0.7232	0.057
Mof_C 	C 	0.96917	0.0984	0.65709	-0.137
Mof_H 	H 	0.9887	0.218	0.6599	0.08
Mof_C 	C 	0.97319	0.0263	0.60702	-0.071
Mof_H 	H 	0.963	0.1294	0.5856	0.043
Mof_H 	H 	0.9514	0.9164	0.6028	0.056
Mof_C 	C 	0.1099	0.5255	0.44167	0.039
Mof_H 	H 	0.0992	0.5986	0.414	0.007
Mof_H 	H 	0.1334	0.6051	0.4585	0.007
Mof_C 	C 	0.13415	0.3383	0.42529	-0.267
Mof_H 	H 	0.1108	0.268	0.4053	0.108
Mof_C 	C 	0.14451	0.2083	0.46853	0.047
Mof_H 	H 	0.1552	0.0808	0.4576	-0.02
Mof_H 	H 	0.1707	0.2657	0.4868	0.002
Mof_C 	C 	0.20588	0.924	0.77165	0.38
Mof_C 	C 	0.91763	0.1487	0.67016	0.341
Mof_C 	C 	0.1796	0.367	0.39605	0.493
Mof_N 	N 	0.0882	0.5563	0.64989	-0.164
Mof_N 	N 	0.06412	0.6109	0.5694	-0.166
Mof_N 	N 	0.11146	0.3304	0.58996	-0.167
Mof_N 	N 	0.04248	0.8236	0.62858	-0.12
Mof_N 	N 	0.08191	0.3702	0.51443	-0.106
Mof_N 	N 	0.13639	0.2894	0.66738	-0.112
Mof_O 	O 	0.24451	0.9316	0.79521	-0.501
Mof_O 	O 	0.17589	0.7866	0.7788	-0.369
Mof_O 	O 	0.88296	0.0911	0.64792	-0.394
Mof_O 	O 	0.91387	0.2547	0.7089	-0.254
Mof_O 	O 	0.20132	0.2168	0.38155	-0.578
Mof_O 	O 	0.19584	0.5322	0.38965	-0.557
Mof_Sr	Sr	0.21354	0.63574	0.8566	1.584
Mof_C 	C 	0.43418	0.16	0.61558	0.167
Mof_C 	C 	0.3887	0.8983	0.63457	0.169
Mof_C 	C 	0.4141	0.939	0.55918	0.162
Mof_C 	C 	0.4332	0.989	0.47396	-0.125
Mof_H 	H 	0.4461	0.1128	0.4851	0.072
Mof_H 	H 	0.4585	0.9218	0.4565	0.072
Mof_C 	C 	0.3986	0.6827	0.5001	-0.114
Mof_H 	H 	0.4233	0.6089	0.4834	0.061
Mof_H 	H 	0.3893	0.6088	0.5281	0.067
Mof_C 	C 	0.47578	0.4631	0.5939	-0.065
Mof_H 	H 	0.4759	0.4036	0.5626	0.053
Mof_H 	H 	0.4547	0.5766	0.5929	0.06
Mof_C 	C 	0.45852	0.3919	0.67766	-0.068
Mof_H 	H 	0.4375	0.5048	0.6811	0.065
Mof_H 	H 	0.4468	0.2896	0.6986	0.071
Mof_C 	C 	0.3533	0.8742	0.71434	-0.082
Mof_H 	H 	0.3804	0.9551	0.7242	0.075
Mof_H 	H 	0.3248	0.9567	0.7123	0.064
Mof_C 	C 	0.328	0.6462	0.65055	-0.056
Mof_H 	H 	0.2977	0.7123	0.6437	0.046
Mof_H 	H 	0.3395	0.587	0.6213	0.052
Mof_C 	C 	0.34489	0.7138	0.75092	-0.025
Mof_H 	H 	0.3362	0.7725	0.7811	0.018
Mof_H 	H 	0.3746	0.6402	0.7554	0.05
Mof_C 	C 	0.31918	0.4862	0.68762	-0.059
Mof_H 	H 	0.3484	0.4092	0.6916	0.064
Mof_H 	H 	0.2937	0.3997	0.6767	0.039
Mof_C 	C 	0.30478	0.5759	0.73517	-0.165
Mof_H 	H 	0.2754	0.653	0.7303	0.081
Mof_C 	C 	0.51027	0.4469	0.69113	-0.057
Mof_H 	H 	0.5304	0.3307	0.6905	0.053
Mof_H 	H 	0.5107	0.4989	0.7232	0.053
Mof_C 	C 	0.53083	0.5984	0.65709	-0.144
Mof_H 	H 	0.5113	0.718	0.6599	0.083
Mof_C 	C 	0.52681	0.5263	0.60702	-0.049
Mof_H 	H 	0.537	0.6294	0.5856	0.037
Mof_H 	H 	0.5486	0.4164	0.6028	0.046
Mof_C 	C 	0.3901	0.0255	0.44167	0.054
Mof_H 	H 	0.4008	0.0986	0.414	0.004
Mof_H 	H 	0.3666	0.1051	0.4585	0.004
Mof_C 	C 	0.36585	0.8383	0.42529	-0.275
Mof_H 	H 	0.3892	0.768	0.4053	0.109
Mof_C 	C 	0.35549	0.7083	0.46853	0.053
Mof_H 	H 	0.3448	0.5808	0.4576	-0.023
Mof_H 	H 	0.3293	0.7657	0.4868	-0
Mof_C 	C 	0.29412	0.424	0.77165	0.369
Mof_C 	C 	0.58237	0.6487	0.67016	0.344
Mof_C 	C 	0.3204	0.867	0.39605	0.489
Mof_N 	N 	0.4118	0.0563	0.64989	-0.166
Mof_N 	N 	0.43588	0.1109	0.5694	-0.166
Mof_N 	N 	0.38854	0.8304	0.58996	-0.167
Mof_N 	N 	0.45752	0.3236	0.62858	-0.116
Mof_N 	N 	0.41809	0.8702	0.51443	-0.104
Mof_N 	N 	0.36361	0.7894	0.66738	-0.115
Mof_O 	O 	0.25549	0.4316	0.79521	-0.502
Mof_O 	O 	0.32411	0.2866	0.7788	-0.368
Mof_O 	O 	0.61704	0.5911	0.64792	-0.393
Mof_O 	O 	0.58613	0.7547	0.7089	-0.252
Mof_O 	O 	0.29868	0.7168	0.38155	-0.579
Mof_O 	O 	0.30416	0.0322	0.38965	-0.552
Mof_Sr	Sr	0.28646	0.13574	0.8566	1.573
Mof_C 	C 	0.06582	0.84	0.11558	0.167
Mof_C 	C 	0.1113	0.1017	0.13457	0.169
Mof_C 	C 	0.0859	0.061	0.05918	0.162
Mof_C 	C 	0.0668	0.011	0.97396	-0.127
Mof_H 	H 	0.0539	0.8872	0.9851	0.073
Mof_H 	H 	0.0415	0.0782	0.9565	0.073
Mof_C 	C 	0.1014	0.3173	0.0001	-0.113
Mof_H 	H 	0.0767	0.3911	0.9834	0.06
Mof_H 	H 	0.1107	0.3912	0.0281	0.067
Mof_C 	C 	0.02422	0.5369	0.0939	-0.065
Mof_H 	H 	0.0241	0.5964	0.0626	0.053
Mof_H 	H 	0.0453	0.4234	0.0929	0.06
Mof_C 	C 	0.04148	0.6081	0.17766	-0.067
Mof_H 	H 	0.0625	0.4952	0.1811	0.065
Mof_H 	H 	0.0532	0.7104	0.1986	0.071
Mof_C 	C 	0.1467	0.1258	0.21434	-0.082
Mof_H 	H 	0.1196	0.0449	0.2242	0.075
Mof_H 	H 	0.1752	0.0433	0.2123	0.064
Mof_C 	C 	0.172	0.3538	0.15055	-0.056
Mof_H 	H 	0.2023	0.2877	0.1437	0.046
Mof_H 	H 	0.1605	0.413	0.1213	0.052
Mof_C 	C 	0.15511	0.2862	0.25092	-0.025
Mof_H 	H 	0.1638	0.2275	0.2811	0.018
Mof_H 	H 	0.1254	0.3598	0.2554	0.05
Mof_C 	C 	0.18082	0.5138	0.18762	-0.059
Mof_H 	H 	0.1516	0.5908	0.1916	0.064
Mof_H 	H 	0.2063	0.6003	0.1767	0.039
Mof_C 	C 	0.19522	0.4241	0.23517	-0.165
Mof_H 	H 	0.2246	0.347	0.2303	0.081
Mof_C 	C 	0.98973	0.5531	0.19113	-0.058
Mof_H 	H 	0.9696	0.6693	0.1905	0.053
Mof_H 	H 	0.9893	0.5011	0.2232	0.053
Mof_C 	C 	0.96917	0.4016	0.15709	-0.143
Mof_H 	H 	0.9887	0.282	0.1599	0.083
Mof_C 	C 	0.97319	0.4737	0.10702	-0.049
Mof_H 	H 	0.963	0.3706	0.0856	0.037
Mof_H 	H 	0.9514	0.5836	0.1028	0.047
Mof_C 	C 	0.1099	0.9745	0.94167	0.056
Mof_H 	H 	0.0992	0.9014	0.914	0.003
Mof_H 	H 	0.1334	0.8949	0.9585	0.003
Mof_C 	C 	0.13415	0.1617	0.92529	-0.276
Mof_H 	H 	0.1108	0.232	0.9053	0.109
Mof_C 	C 	0.14451	0.2917	0.96853	0.052
Mof_H 	H 	0.1552	0.4192	0.9576	-0.023
Mof_H 	H 	0.1707	0.2343	0.9868	-0
Mof_C 	C 	0.20588	0.576	0.27165	0.369
Mof_C 	C 	0.91763	0.3513	0.17016	0.344
Mof_C 	C 	0.1796	0.133	0.89605	0.489
Mof_N 	N 	0.0882	0.9437	0.14989	-0.166
Mof_N 	N 	0.06412	0.8891	0.0694	-0.166
Mof_N 	N 	0.11146	0.1696	0.08996	-0.167
Mof_N 	N 	0.04248	0.6764	0.12858	-0.116
Mof_N 	N 	0.08191	0.1298	0.01443	-0.104
Mof_N 	N 	0.13639	0.2106	0.16738	-0.115
Mof_O 	O 	0.24451	0.5684	0.29521	-0.502
Mof_O 	O 	0.17589	0.7134	0.2788	-0.368
Mof_O 	O 	0.88296	0.4089	0.14792	-0.393
Mof_O 	O 	0.91387	0.2453	0.2089	-0.252
Mof_O 	O 	0.20132	0.2832	0.88155	-0.579
Mof_O 	O 	0.19584	0.9678	0.88965	-0.552
Mof_Sr	Sr	0.21354	0.86426	0.3566	1.573
Mof_C 	C 	0.56582	0.66	0.88442	0.169
Mof_C 	C 	0.6113	0.3983	0.86543	0.166
Mof_C 	C 	0.5859	0.439	0.94082	0.162
Mof_C 	C 	0.5668	0.489	0.02604	-0.111
Mof_H 	H 	0.5539	0.6128	0.0149	0.067
Mof_H 	H 	0.5415	0.4218	0.0435	0.069
Mof_C 	C 	0.6014	0.1827	0.9999	-0.111
Mof_H 	H 	0.5767	0.1089	0.0166	0.06
Mof_H 	H 	0.6107	0.1088	0.9719	0.067
Mof_C 	C 	0.52422	0.9631	0.9061	-0.045
Mof_H 	H 	0.5241	0.9036	0.9374	0.047
Mof_H 	H 	0.5453	0.0766	0.9071	0.052
Mof_C 	C 	0.54148	0.8919	0.82234	-0.055
Mof_H 	H 	0.5625	0.0048	0.8189	0.058
Mof_H 	H 	0.5532	0.7896	0.8014	0.069
Mof_C 	C 	0.6467	0.3742	0.78566	-0.088
Mof_H 	H 	0.6196	0.4551	0.7758	0.076
Mof_H 	H 	0.6752	0.4567	0.7877	0.065
Mof_C 	C 	0.672	0.1462	0.84945	-0.07
Mof_H 	H 	0.7023	0.2123	0.8563	0.049
Mof_H 	H 	0.6605	0.087	0.8787	0.056
Mof_C 	C 	0.65511	0.2138	0.74908	-0.013
Mof_H 	H 	0.6638	0.2725	0.7189	0.012
Mof_H 	H 	0.6254	0.1402	0.7446	0.045
Mof_C 	C 	0.68082	0.9862	0.81238	-0.037
Mof_H 	H 	0.6516	0.9092	0.8084	0.059
Mof_H 	H 	0.7063	0.8997	0.8233	0.034
Mof_C 	C 	0.69522	0.0759	0.76483	-0.185
Mof_H 	H 	0.7246	0.153	0.7697	0.085
Mof_C 	C 	0.48973	0.9469	0.80887	-0.063
Mof_H 	H 	0.4696	0.8307	0.8095	0.056
Mof_H 	H 	0.4893	0.9989	0.7768	0.056
Mof_C 	C 	0.46917	0.0984	0.84291	-0.137
Mof_H 	H 	0.4887	0.218	0.8401	0.08
Mof_C 	C 	0.47319	0.0263	0.89298	-0.072
Mof_H 	H 	0.463	0.1294	0.9144	0.043
Mof_H 	H 	0.4514	0.9164	0.8972	0.056
Mof_C 	C 	0.6099	0.5255	0.05833	0.039
Mof_H 	H 	0.5992	0.5986	0.086	0.007
Mof_H 	H 	0.6334	0.6051	0.0415	0.007
Mof_C 	C 	0.63415	0.3383	0.07471	-0.267
Mof_H 	H 	0.6108	0.268	0.0947	0.108
Mof_C 	C 	0.64451	0.2083	0.03147	0.047
Mof_H 	H 	0.6552	0.0808	0.0424	-0.02
Mof_H 	H 	0.6707	0.2657	0.0132	0.002
Mof_C 	C 	0.70588	0.924	0.72835	0.38
Mof_C 	C 	0.41763	0.1487	0.82984	0.341
Mof_C 	C 	0.6796	0.367	0.10395	0.493
Mof_N 	N 	0.5882	0.5563	0.85011	-0.164
Mof_N 	N 	0.56412	0.6109	0.9306	-0.166
Mof_N 	N 	0.61146	0.3304	0.91004	-0.167
Mof_N 	N 	0.54248	0.8236	0.87142	-0.12
Mof_N 	N 	0.58191	0.3702	0.98557	-0.106
Mof_N 	N 	0.63639	0.2894	0.83262	-0.112
Mof_O 	O 	0.74451	0.9316	0.70479	-0.501
Mof_O 	O 	0.67589	0.7866	0.7212	-0.369
Mof_O 	O 	0.38296	0.0911	0.85208	-0.394
Mof_O 	O 	0.41387	0.2547	0.7911	-0.254
Mof_O 	O 	0.70132	0.2168	0.11845	-0.578
Mof_O 	O 	0.69584	0.5322	0.11035	-0.557
Mof_Sr	Sr	0.71354	0.63574	0.6434	1.584
Mof_C 	C 	0.93418	0.34	0.38442	0.169
Mof_C 	C 	0.8887	0.6017	0.36543	0.166
Mof_C 	C 	0.9141	0.561	0.44082	0.162
Mof_C 	C 	0.9332	0.511	0.52604	-0.111
Mof_H 	H 	0.9461	0.3872	0.5149	0.067
Mof_H 	H 	0.9585	0.5782	0.5435	0.069
Mof_C 	C 	0.8986	0.8173	0.4999	-0.11
Mof_H 	H 	0.9233	0.8911	0.5166	0.06
Mof_H 	H 	0.8893	0.8912	0.4719	0.066
Mof_C 	C 	0.97578	0.0369	0.4061	-0.046
Mof_H 	H 	0.9759	0.0964	0.4374	0.048
Mof_H 	H 	0.9547	0.9234	0.4071	0.053
Mof_C 	C 	0.95852	0.1081	0.32234	-0.054
Mof_H 	H 	0.9375	0.9952	0.3189	0.057
Mof_H 	H 	0.9468	0.2104	0.3014	0.069
Mof_C 	C 	0.8533	0.6258	0.28566	-0.088
Mof_H 	H 	0.8804	0.5449	0.2758	0.076
Mof_H 	H 	0.8248	0.5433	0.2877	0.065
Mof_C 	C 	0.828	0.8538	0.34945	-0.07
Mof_H 	H 	0.7977	0.7877	0.3563	0.049
Mof_H 	H 	0.8395	0.913	0.3787	0.056
Mof_C 	C 	0.84489	0.7862	0.24908	-0.012
Mof_H 	H 	0.8362	0.7275	0.2189	0.012
Mof_H 	H 	0.8746	0.8598	0.2446	0.045
Mof_C 	C 	0.81918	0.0138	0.31238	-0.036
Mof_H 	H 	0.8484	0.0908	0.3084	0.059
Mof_H 	H 	0.7937	0.1003	0.3233	0.034
Mof_C 	C 	0.80478	0.9241	0.26483	-0.185
Mof_H 	H 	0.7754	0.847	0.2697	0.085
Mof_C 	C 	0.01027	0.0531	0.30887	-0.063
Mof_H 	H 	0.0304	0.1693	0.3095	0.056
Mof_H 	H 	0.0107	0.0011	0.2768	0.057
Mof_C 	C 	0.03083	0.9016	0.34291	-0.137
Mof_H 	H 	0.0113	0.782	0.3401	0.08
Mof_C 	C 	0.02681	0.9737	0.39298	-0.071
Mof_H 	H 	0.037	0.8706	0.4144	0.043
Mof_H 	H 	0.0486	0.0836	0.3972	0.056
Mof_C 	C 	0.8901	0.4745	0.55833	0.039
Mof_H 	H 	0.9008	0.4014	0.586	0.007
Mof_H 	H 	0.8666	0.3949	0.5415	0.007
Mof_C 	C 	0.86585	0.6617	0.57471	-0.267
Mof_H 	H 	0.8892	0.732	0.5947	0.108
Mof_C 	C 	0.85549	0.7917	0.53147	0.047
Mof_H 	H 	0.8448	0.9192	0.5424	-0.02
Mof_H 	H 	0.8293	0.7343	0.5132	0.002
Mof_C 	C 	0.79412	0.076	0.22835	0.38
Mof_C 	C 	0.08237	0.8513	0.32984	0.341
Mof_C 	C 	0.8204	0.633	0.60395	0.493
Mof_N 	N 	0.9118	0.4437	0.35011	-0.164
Mof_N 	N 	0.93588	0.3891	0.4306	-0.166
Mof_N 	N 	0.88854	0.6696	0.41004	-0.167
Mof_N 	N 	0.95752	0.1764	0.37142	-0.12
Mof_N 	N 	0.91809	0.6298	0.48557	-0.106
Mof_N 	N 	0.86361	0.7106	0.33262	-0.112
Mof_O 	O 	0.75549	0.0684	0.20479	-0.501
Mof_O 	O 	0.82411	0.2134	0.2212	-0.369
Mof_O 	O 	0.11704	0.9089	0.35208	-0.394
Mof_O 	O 	0.08613	0.7453	0.2911	-0.254
Mof_O 	O 	0.79868	0.7832	0.61845	-0.578
Mof_O 	O 	0.80416	0.4678	0.61035	-0.557
Mof_Sr	Sr	0.78645	0.36426	0.1434	1.584
_end
