data_functionalizedCrystal
_audit_creation_method	'EQeq! by Chris Wilmer'
_symmetry_space_group_name_H-M	'P1'
_symmetry_Int_Tables_number	1
_symmetry_cell_setting	triclinic
loop_
_symmetry_equiv_pos_as_xyz
  x,y,z
_cell_length_a	14.1512
_cell_length_b	14.5076
_cell_length_c	25.8073
_cell_angle_alpha	90
_cell_angle_beta	92.166
_cell_angle_gamma	90
loop_
_atom_site_label
_atom_site_type_symbol
_atom_site_fract_x
_atom_site_fract_y
_atom_site_fract_z
_atom_site_charge
Mof_Cd	Cd	0.83713	0.20975	0.37585	0.432
Mof_Cd	Cd	0.74983	0.29244	0.50026	0.518
Mof_Cd	Cd	0.66325	0.37456	0.62474	0.435
Mof_Cd	Cd	0.24669	0.05431	0.01853	0.494
Mof_Cd	Cd	0.32825	0.16586	0.91143	0.373
Mof_O 	O 	0.7054	0.2782	0.3542	-0.28
Mof_O 	O 	0.6553	0.3259	0.4315	-0.268
Mof_O 	O 	0.2	0.6597	0.5398	-0.287
Mof_O 	O 	0.0625	0.6156	0.5689	-0.256
Mof_O 	O 	0.8733	0.3787	0.4711	-0.27
Mof_O 	O 	0.9269	0.3294	0.3956	-0.285
Mof_O 	O 	0.3302	0.1527	0.0667	-0.282
Mof_O 	O 	0.3815	0.2028	0.9929	-0.297
Mof_O 	O 	0.6238	0.4467	0.9892	-0.256
Mof_O 	O 	0.6679	0.5164	0.0602	-0.284
Mof_O 	O 	0.8457	0.2604	0.5695	-0.303
Mof_O 	O 	0.7973	0.3027	0.6455	-0.299
Mof_O 	O 	0.8188	0.4742	0.9135	-0.237
Mof_O 	O 	0.8651	0.4365	0.9936	-0.238
Mof_O 	O 	0.1091	0.1809	0.0167	-0.255
Mof_O 	O 	0.1855	0.139	0.9495	-0.29
Mof_O 	O 	0.571	0.258	0.6037	-0.285
Mof_O 	O 	0.6272	0.207	0.5298	-0.278
Mof_O 	O 	0.4367	0.972	0.4294	-0.249
Mof_O 	O 	0.3023	0.9214	0.4589	-0.267
Mof_O 	O 	0.2464	0.4532	0.3835	-0.207
Mof_O 	O 	0.4811	0.3743	0.1984	-0.209
Mof_O 	O 	0.9977	0.2717	0.7988	-0.215
Mof_O 	O 	0.2509	0.1324	0.6155	-0.199
Mof_C 	C 	0.645	0.3157	0.3829	0.283
Mof_C 	C 	0.5543	0.3466	0.3574	0.013
Mof_C 	C 	0.5316	0.3235	0.3073	-0.106
Mof_H 	H 	0.5737	0.289	0.2885	0.091
Mof_C 	C 	0.4448	0.3513	0.2838	0.101
Mof_C 	C 	0.3858	0.4065	0.3122	-0.151
Mof_H 	H 	0.3299	0.4285	0.2966	0.104
Mof_C 	C 	0.409	0.4301	0.3647	0.112
Mof_C 	C 	0.4914	0.3992	0.3865	-0.12
Mof_H 	H 	0.5068	0.4128	0.421	0.093
Mof_C 	C 	0.3401	0.4875	0.3948	-0.067
Mof_H 	H 	0.3551	0.4829	0.4317	0.063
Mof_H 	H 	0.3443	0.5517	0.3847	0.068
Mof_C 	C 	0.1765	0.4744	0.4178	0.212
Mof_C 	C 	0.1853	0.5363	0.4569	-0.168
Mof_H 	H 	0.2407	0.5706	0.461	0.116
Mof_C 	C 	0.1129	0.5494	0.4911	0.016
Mof_C 	C 	0.126	0.6135	0.5354	0.273
Mof_C 	C 	0.0313	0.4954	0.484	-0.073
Mof_H 	H 	0.9828	0.5008	0.5071	0.084
Mof_C 	C 	0.0218	0.4335	0.4423	0.017
Mof_C 	C 	0.9333	0.3742	0.4361	0.291
Mof_C 	C 	0.0941	0.4248	0.4108	-0.162
Mof_H 	H 	0.0884	0.3839	0.3831	0.117
Mof_C 	C 	0.431	0.2892	0.1214	-0.145
Mof_H 	H 	0.3934	0.2507	0.1407	0.103
Mof_C 	C 	0.4345	0.2771	0.0676	-0.012
Mof_C 	C 	0.3783	0.2037	0.0406	0.323
Mof_C 	C 	0.494	0.3336	0.0416	-0.04
Mof_H 	H 	0.4977	0.3263	0.0059	0.072
Mof_C 	C 	0.5505	0.403	0.0665	-0.011
Mof_C 	C 	0.6176	0.4565	0.0363	0.291
Mof_C 	C 	0.5376	0.4145	0.1186	-0.139
Mof_H 	H 	0.5676	0.4632	0.136	0.098
Mof_C 	C 	0.4825	0.3568	0.1453	0.195
Mof_C 	C 	0.4212	0.327	0.2296	-0.045
Mof_H 	H 	0.4285	0.2612	0.2245	0.053
Mof_H 	H 	0.3561	0.3434	0.2208	0.056
Mof_C 	C 	0.853	0.267	0.615	0.341
Mof_C 	C 	0.9424	0.2281	0.6417	0.006
Mof_C 	C 	0.9572	0.2341	0.6943	-0.105
Mof_H 	H 	0.9106	0.2596	0.7144	0.101
Mof_C 	C 	0.042	0.202	0.7187	0.112
Mof_C 	C 	0.1044	0.1544	0.6893	-0.173
Mof_H 	H 	0.1579	0.1286	0.7055	0.103
Mof_C 	C 	0.0905	0.1434	0.6367	0.12
Mof_C 	C 	0.0069	0.1811	0.6134	-0.115
Mof_H 	H 	0.9954	0.1737	0.578	0.091
Mof_C 	C 	0.0594	0.2033	0.7762	-0.067
Mof_H 	H 	0.0467	0.1429	0.7905	0.059
Mof_H 	H 	0.125	0.2186	0.7844	0.053
Mof_C 	C 	0.0022	0.2806	0.8506	0.217
Mof_C 	C 	0.9393	0.3458	0.8716	-0.169
Mof_H 	H 	0.9007	0.3819	0.8499	0.123
Mof_C 	C 	0.9363	0.3545	0.923	0.042
Mof_C 	C 	0.8669	0.424	0.9453	0.247
Mof_C 	C 	0.997	0.3028	0.9555	-0.081
Mof_H 	H 	0.9943	0.3098	0.9913	0.092
Mof_C 	C 	0.0589	0.2436	0.9363	0.016
Mof_C 	C 	0.1207	0.185	0.9716	0.293
Mof_C 	C 	0.0647	0.2359	0.8832	-0.169
Mof_H 	H 	0.1119	0.1997	0.8695	0.096
Mof_C 	C 	0.4033	0.1641	0.5892	-0.136
Mof_H 	H 	0.4084	0.2064	0.6162	0.108
Mof_C 	C 	0.4791	0.1519	0.5555	-0.009
Mof_C 	C 	0.5673	0.2096	0.5637	0.304
Mof_C 	C 	0.4683	0.0907	0.5137	-0.055
Mof_H 	H 	0.5155	0.0854	0.4898	0.076
Mof_C 	C 	0.3881	0.0389	0.5084	-0.01
Mof_C 	C 	0.3785	0.9753	0.4649	0.263
Mof_C 	C 	0.3127	0.0478	0.5423	-0.144
Mof_H 	H 	0.2588	0.0115	0.5383	0.104
Mof_C 	C 	0.3215	0.1124	0.5816	0.189
Mof_C 	C 	0.1583	0.0908	0.6047	-0.084
Mof_H 	H 	0.1588	0.0262	0.6142	0.07
Mof_H 	H 	0.1406	0.096	0.5681	0.067
Mof_Cd	Cd	0.16287	0.70975	0.62415	0.436
Mof_Cd	Cd	0.25017	0.79244	0.49974	0.52
Mof_Cd	Cd	0.33675	0.87456	0.37526	0.439
Mof_Cd	Cd	0.75331	0.55431	0.98147	0.505
Mof_Cd	Cd	0.67175	0.66586	0.08857	0.376
Mof_O 	O 	0.2946	0.7782	0.6458	-0.278
Mof_O 	O 	0.3447	0.8259	0.5685	-0.266
Mof_O 	O 	0.8	0.1597	0.4602	-0.29
Mof_O 	O 	0.9375	0.1156	0.4311	-0.26
Mof_O 	O 	0.1267	0.8787	0.5289	-0.268
Mof_O 	O 	0.0731	0.8294	0.6044	-0.284
Mof_O 	O 	0.6698	0.6527	0.9333	-0.28
Mof_O 	O 	0.6185	0.7028	0.0071	-0.296
Mof_O 	O 	0.3762	0.9467	0.0108	-0.253
Mof_O 	O 	0.3321	0.0164	0.9398	-0.294
Mof_O 	O 	0.1543	0.7604	0.4305	-0.302
Mof_O 	O 	0.2027	0.8027	0.3545	-0.297
Mof_O 	O 	0.1812	0.9742	0.0865	-0.231
Mof_O 	O 	0.1349	0.9365	0.0064	-0.232
Mof_O 	O 	0.8909	0.6809	0.9833	-0.252
Mof_O 	O 	0.8145	0.639	0.0505	-0.29
Mof_O 	O 	0.429	0.758	0.3963	-0.284
Mof_O 	O 	0.3728	0.707	0.4702	-0.277
Mof_O 	O 	0.5633	0.472	0.5706	-0.25
Mof_O 	O 	0.6977	0.4214	0.5411	-0.267
Mof_O 	O 	0.7536	0.9532	0.6165	-0.211
Mof_O 	O 	0.5189	0.8743	0.8016	-0.207
Mof_O 	O 	0.0023	0.7717	0.2012	-0.211
Mof_O 	O 	0.7491	0.6324	0.3845	-0.198
Mof_C 	C 	0.355	0.8157	0.6171	0.284
Mof_C 	C 	0.4457	0.8466	0.6426	0.013
Mof_C 	C 	0.4684	0.8235	0.6927	-0.105
Mof_H 	H 	0.4263	0.789	0.7115	0.092
Mof_C 	C 	0.5552	0.8513	0.7162	0.102
Mof_C 	C 	0.6142	0.9065	0.6878	-0.147
Mof_H 	H 	0.6701	0.9285	0.7034	0.105
Mof_C 	C 	0.591	0.9301	0.6353	0.106
Mof_C 	C 	0.5086	0.8992	0.6135	-0.114
Mof_H 	H 	0.4932	0.9128	0.579	0.094
Mof_C 	C 	0.6599	0.9875	0.6052	-0.042
Mof_H 	H 	0.6449	0.9829	0.5683	0.059
Mof_H 	H 	0.6557	0.0517	0.6153	0.054
Mof_C 	C 	0.8235	0.9744	0.5822	0.222
Mof_C 	C 	0.8147	0.0363	0.5431	-0.175
Mof_H 	H 	0.7593	0.0706	0.539	0.116
Mof_C 	C 	0.8871	0.0494	0.5089	-0.003
Mof_C 	C 	0.874	0.1135	0.4646	0.28
Mof_C 	C 	0.9687	0.9954	0.516	-0.033
Mof_H 	H 	0.0172	0.0008	0.4929	0.063
Mof_C 	C 	0.9782	0.9335	0.5577	0.004
Mof_C 	C 	0.0667	0.8742	0.5639	0.298
Mof_C 	C 	0.9059	0.9248	0.5892	-0.156
Mof_H 	H 	0.9116	0.8839	0.6169	0.116
Mof_C 	C 	0.569	0.7892	0.8786	-0.144
Mof_H 	H 	0.6066	0.7507	0.8593	0.104
Mof_C 	C 	0.5655	0.7771	0.9324	-0.011
Mof_C 	C 	0.6217	0.7037	0.9594	0.324
Mof_C 	C 	0.506	0.8336	0.9584	-0.038
Mof_H 	H 	0.5023	0.8263	0.9941	0.072
Mof_C 	C 	0.4495	0.903	0.9335	-0.013
Mof_C 	C 	0.3824	0.9565	0.9637	0.302
Mof_C 	C 	0.4624	0.9145	0.8814	-0.136
Mof_H 	H 	0.4324	0.9632	0.864	0.101
Mof_C 	C 	0.5175	0.8568	0.8547	0.195
Mof_C 	C 	0.5788	0.827	0.7704	-0.046
Mof_H 	H 	0.5715	0.7612	0.7755	0.054
Mof_H 	H 	0.6439	0.8434	0.7792	0.058
Mof_C 	C 	0.147	0.767	0.385	0.341
Mof_C 	C 	0.0576	0.7281	0.3583	0.01
Mof_C 	C 	0.0428	0.7341	0.3057	-0.107
Mof_H 	H 	0.0894	0.7596	0.2856	0.103
Mof_C 	C 	0.958	0.702	0.2813	0.116
Mof_C 	C 	0.8956	0.6544	0.3107	-0.176
Mof_H 	H 	0.8421	0.6286	0.2945	0.106
Mof_C 	C 	0.9095	0.6434	0.3633	0.126
Mof_C 	C 	0.9931	0.6811	0.3866	-0.12
Mof_H 	H 	0.0046	0.6737	0.422	0.095
Mof_C 	C 	0.9406	0.7033	0.2238	-0.071
Mof_H 	H 	0.9533	0.6429	0.2095	0.062
Mof_H 	H 	0.875	0.7186	0.2156	0.056
Mof_C 	C 	0.9978	0.7806	0.1494	0.214
Mof_C 	C 	0.0607	0.8458	0.1284	-0.165
Mof_H 	H 	0.0993	0.8819	0.1501	0.123
Mof_C 	C 	0.0637	0.8545	0.077	0.043
Mof_C 	C 	0.1331	0.924	0.0547	0.247
Mof_C 	C 	0.003	0.8028	0.0445	-0.078
Mof_H 	H 	0.0057	0.8098	0.0087	0.092
Mof_C 	C 	0.9411	0.7436	0.0637	0.015
Mof_C 	C 	0.8793	0.685	0.0284	0.293
Mof_C 	C 	0.9353	0.7359	0.1168	-0.166
Mof_H 	H 	0.8881	0.6997	0.1305	0.096
Mof_C 	C 	0.5967	0.6641	0.4108	-0.14
Mof_H 	H 	0.5916	0.7064	0.3838	0.111
Mof_C 	C 	0.5209	0.6519	0.4445	-0.002
Mof_C 	C 	0.4327	0.7096	0.4363	0.302
Mof_C 	C 	0.5317	0.5907	0.4863	-0.065
Mof_H 	H 	0.4845	0.5854	0.5102	0.082
Mof_C 	C 	0.6119	0.5389	0.4916	0.009
Mof_C 	C 	0.6215	0.4753	0.5351	0.248
Mof_C 	C 	0.6873	0.5478	0.4577	-0.153
Mof_H 	H 	0.7412	0.5115	0.4617	0.111
Mof_C 	C 	0.6785	0.6124	0.4184	0.195
Mof_C 	C 	0.8417	0.5908	0.3953	-0.089
Mof_H 	H 	0.8412	0.5262	0.3858	0.075
Mof_H 	H 	0.8594	0.596	0.4319	0.07
_end
