data_functionalizedCrystal
_audit_creation_method	'EQeq! by Chris Wilmer'
_symmetry_space_group_name_H-M	'P1'
_symmetry_Int_Tables_number	1
_symmetry_cell_setting	triclinic
loop_
_symmetry_equiv_pos_as_xyz
  x,y,z
_cell_length_a	10.324
_cell_length_b	8.313
_cell_length_c	10.534
_cell_angle_alpha	90
_cell_angle_beta	90
_cell_angle_gamma	90
loop_
_atom_site_label
_atom_site_type_symbol
_atom_site_fract_x
_atom_site_fract_y
_atom_site_fract_z
_atom_site_charge
Mof_P 	P 	0.8324	0.0672	0.3736	0.471
Mof_O 	O 	0.7297	0.0739	0.2713	-0.43
Mof_O 	O 	0.8116	0.9301	0.4627	-0.446
Mof_O 	O 	0.969	0.0692	0.3178	-0.414
Mof_H 	H 	0.492	0.318	0.9849	0.116
Mof_H 	H 	0.7009	0.3423	0.607	0.198
Mof_P 	P 	0.6676	0.9328	0.8736	0.464
Mof_O 	O 	0.7703	0.9261	0.7713	-0.431
Mof_O 	O 	0.6884	0.0699	0.9627	-0.435
Mof_O 	O 	0.531	0.9308	0.8178	-0.417
Mof_H 	H 	0.008	0.682	0.4849	0.117
Mof_H 	H 	0.7991	0.6577	0.107	0.184
Mof_P 	P 	0.1676	0.5672	0.6264	0.47
Mof_O 	O 	0.2703	0.5739	0.7287	-0.428
Mof_O 	O 	0.1884	0.4301	0.5373	-0.444
Mof_O 	O 	0.031	0.5692	0.6822	-0.414
Mof_H 	H 	0.508	0.818	0.0151	0.118
Mof_H 	H 	0.2991	0.8423	0.393	0.199
Mof_P 	P 	0.3324	0.4328	0.1264	0.473
Mof_O 	O 	0.2297	0.4261	0.2287	-0.429
Mof_O 	O 	0.3116	0.5699	0.0373	-0.443
Mof_O 	O 	0.469	0.4308	0.1822	-0.415
Mof_H 	H 	0.992	0.182	0.5151	0.118
Mof_H 	H 	0.2009	0.1577	0.893	0.185
Mof_P 	P 	0.1676	0.9328	0.6264	0.471
Mof_O 	O 	0.2703	0.9261	0.7287	-0.43
Mof_O 	O 	0.1884	0.0699	0.5373	-0.446
Mof_O 	O 	0.031	0.9308	0.6822	-0.414
Mof_H 	H 	0.508	0.682	0.0151	0.116
Mof_H 	H 	0.2991	0.6577	0.393	0.198
Mof_P 	P 	0.3324	0.0672	0.1264	0.464
Mof_O 	O 	0.2297	0.0739	0.2287	-0.431
Mof_O 	O 	0.3116	0.9301	0.0373	-0.435
Mof_O 	O 	0.469	0.0692	0.1822	-0.417
Mof_H 	H 	0.992	0.318	0.5151	0.117
Mof_H 	H 	0.2009	0.3423	0.893	0.184
Mof_P 	P 	0.8324	0.4328	0.3736	0.47
Mof_O 	O 	0.7297	0.4261	0.2713	-0.428
Mof_O 	O 	0.8116	0.5699	0.4627	-0.444
Mof_O 	O 	0.969	0.4308	0.3178	-0.414
Mof_H 	H 	0.492	0.182	0.9849	0.118
Mof_H 	H 	0.7009	0.1577	0.607	0.199
Mof_P 	P 	0.6676	0.5672	0.8736	0.473
Mof_O 	O 	0.7703	0.5739	0.7713	-0.429
Mof_O 	O 	0.6884	0.4301	0.9627	-0.443
Mof_O 	O 	0.531	0.5692	0.8178	-0.415
Mof_H 	H 	0.008	0.818	0.4849	0.118
Mof_H 	H 	0.7991	0.8423	0.107	0.185
Mof_Gd	Gd	0.63974	0.25	0.12052	1.734
Mof_O 	O 	0.9422	0.25	0.5436	-0.452
Mof_C 	C 	0.8248	0.25	0.4701	0.057
Mof_C 	C 	0.701	0.25	0.552	-0.507
Mof_H 	H 	0.6271	0.25	0.4975	0.172
Mof_Gd	Gd	0.86026	0.75	0.62052	1.737
Mof_O 	O 	0.5578	0.75	0.0436	-0.444
Mof_C 	C 	0.6752	0.75	0.9701	0.04
Mof_C 	C 	0.799	0.75	0.052	-0.457
Mof_H 	H 	0.8729	0.75	0.9975	0.153
Mof_Gd	Gd	0.36026	0.75	0.87948	1.734
Mof_O 	O 	0.0578	0.75	0.4564	-0.452
Mof_C 	C 	0.1752	0.75	0.5299	0.057
Mof_C 	C 	0.299	0.75	0.448	-0.507
Mof_H 	H 	0.3729	0.75	0.5025	0.172
Mof_Gd	Gd	0.13974	0.25	0.37948	1.737
Mof_O 	O 	0.4422	0.25	0.9564	-0.444
Mof_C 	C 	0.3248	0.25	0.0299	0.04
Mof_C 	C 	0.201	0.25	0.948	-0.457
Mof_H 	H 	0.1271	0.25	0.0025	0.153
_end
