# CIF file generated by openbabel 3.1.0, see https://openbabel.org
data_I
_chemical_name_common 'CEGWER_clean'
_cell_length_a 7.2603
_cell_length_b 10.3523
_cell_length_c 18.692
_cell_angle_alpha 90
_cell_angle_beta 94.087
_cell_angle_gamma 90
_space_group_name_H-M_alt 'P 1'
_space_group_name_Hall 'P 1'
loop_
    _symmetry_equiv_pos_as_xyz
    x,y,z
loop_
    _atom_site_label
    _atom_site_type_symbol
    _atom_site_fract_x
    _atom_site_fract_y
    _atom_site_fract_z
    _atom_site_occupancy
    Ca1      Ca       0.74695    0.25720    0.86708    1.000
    Ca2      Ca       0.75305    0.75720    0.63292    1.000
    Ca3      Ca       0.25305    0.74280    0.13292    1.000
    Ca4      Ca       0.24695    0.24280    0.36708    1.000
    P1       P        0.82366    0.43439    0.70006    1.000
    P2       P        0.67634    0.93439    0.79994    1.000
    P3       P        0.17634    0.56561    0.29994    1.000
    P4       P        0.32366    0.06561    0.20006    1.000
    H1       H        0.12130    0.41720    0.79480    1.000
    H2       H        0.23820    0.46180    0.73210    1.000
    H3       H        0.99170    0.30140    0.58830    1.000
    H4       H        0.18410    0.24940    0.61860    1.000
    H5       H        0.31140    0.45300    0.61960    1.000
    H6       H        0.11740    0.51780    0.60480    1.000
    H7       H        0.48740    0.15370    0.76600    1.000
    H8       H        0.71680    0.42230    0.57630    1.000
    H9       H        0.87150    0.05330    0.69670    1.000
    H10      H        0.37870    0.91720    0.70520    1.000
    H11      H        0.26180    0.96180    0.76790    1.000
    H12      H        0.50830    0.80140    0.91170    1.000
    H13      H        0.31590    0.74940    0.88140    1.000
    H14      H        0.18860    0.95300    0.88040    1.000
    H15      H        0.38260    0.01780    0.89520    1.000
    H16      H        0.01260    0.65370    0.73400    1.000
    H17      H        0.78320    0.92230    0.92370    1.000
    H18      H        0.62850    0.55330    0.80330    1.000
    H19      H        0.87870    0.58280    0.20520    1.000
    H20      H        0.76180    0.53820    0.26790    1.000
    H21      H        0.00830    0.69860    0.41170    1.000
    H22      H        0.81590    0.75060    0.38140    1.000
    H23      H        0.68860    0.54700    0.38040    1.000
    H24      H        0.88260    0.48220    0.39520    1.000
    H25      H        0.51260    0.84630    0.23400    1.000
    H26      H        0.28320    0.57770    0.42370    1.000
    H27      H        0.12850    0.94670    0.30330    1.000
    H28      H        0.62130    0.08280    0.29480    1.000
    H29      H        0.73820    0.03820    0.23210    1.000
    H30      H        0.49170    0.19860    0.08830    1.000
    H31      H        0.68410    0.25060    0.11860    1.000
    H32      H        0.81140    0.04700    0.11960    1.000
    H33      H        0.61740    0.98220    0.10480    1.000
    H34      H        0.98740    0.34630    0.26600    1.000
    H35      H        0.21680    0.07770    0.07630    1.000
    H36      H        0.37150    0.44670    0.19670    1.000
    C1       C        0.33500    0.29650    0.77940    1.000
    C2       C        0.18290    0.38710    0.75351    1.000
    C3       C        0.03500    0.33030    0.69828    1.000
    C4       C        0.09840    0.32090    0.62072    1.000
    C5       C        0.19140    0.44330    0.59391    1.000
    C6       C        0.21620    0.44140    0.51450    1.000
    C7       C        0.97850    0.20040    0.72660    1.000
    C8       C        0.16500    0.79650    0.72060    1.000
    C9       C        0.31710    0.88710    0.74649    1.000
    C10      C        0.46500    0.83030    0.80172    1.000
    C11      C        0.40160    0.82090    0.87928    1.000
    C12      C        0.30860    0.94330    0.90609    1.000
    C13      C        0.28380    0.94140    0.98550    1.000
    C14      C        0.52150    0.70040    0.77340    1.000
    C15      C        0.66500    0.70350    0.22060    1.000
    C16      C        0.81710    0.61290    0.24649    1.000
    C17      C        0.96500    0.66970    0.30172    1.000
    C18      C        0.90160    0.67910    0.37928    1.000
    C19      C        0.80860    0.55670    0.40609    1.000
    C20      C        0.78380    0.55860    0.48550    1.000
    C21      C        0.02150    0.79960    0.27340    1.000
    C22      C        0.83500    0.20350    0.27940    1.000
    C23      C        0.68290    0.11290    0.25351    1.000
    C24      C        0.53500    0.16970    0.19828    1.000
    C25      C        0.59840    0.17910    0.12072    1.000
    C26      C        0.69140    0.05670    0.09391    1.000
    C27      C        0.71620    0.05860    0.01450    1.000
    C28      C        0.47850    0.29960    0.22660    1.000
    O1       O        0.41790    0.30940    0.83870    1.000
    O2       O        0.37230    0.20400    0.73528    1.000
    O3       O        0.18620    0.34940    0.47565    1.000
    O4       O        0.27580    0.55250    0.49232    1.000
    O5       O        0.98220    0.17680    0.79076    1.000
    O6       O        0.91900    0.11710    0.67754    1.000
    O7       O        0.74710    0.41100    0.77256    1.000
    O8       O        0.88930    0.57290    0.69219    1.000
    O9       O        0.69140    0.39540    0.63728    1.000
    O10      O        0.08210    0.80940    0.66130    1.000
    O11      O        0.12770    0.70400    0.76472    1.000
    O12      O        0.31380    0.84940    0.02435    1.000
    O13      O        0.22420    0.05250    0.00768    1.000
    O14      O        0.51780    0.67680    0.70924    1.000
    O15      O        0.58100    0.61710    0.82246    1.000
    O16      O        0.75290    0.91100    0.72744    1.000
    O17      O        0.61070    0.07290    0.80781    1.000
    O18      O        0.80860    0.89540    0.86272    1.000
    O19      O        0.58210    0.69060    0.16130    1.000
    O20      O        0.62770    0.79600    0.26472    1.000
    O21      O        0.81380    0.65060    0.52435    1.000
    O22      O        0.72420    0.44750    0.50768    1.000
    O23      O        0.01780    0.82320    0.20924    1.000
    O24      O        0.08100    0.88290    0.32246    1.000
    O25      O        0.25290    0.58900    0.22744    1.000
    O26      O        0.11070    0.42710    0.30781    1.000
    O27      O        0.30860    0.60460    0.36272    1.000
    O28      O        0.91790    0.19060    0.33870    1.000
    O29      O        0.87230    0.29600    0.23528    1.000
    O30      O        0.68620    0.15060    0.97565    1.000
    O31      O        0.77580    0.94750    0.99232    1.000
    O32      O        0.48220    0.32320    0.29076    1.000
    O33      O        0.41900    0.38290    0.17754    1.000
    O34      O        0.24710    0.08900    0.27256    1.000
    O35      O        0.38930    0.92710    0.19219    1.000
    O36      O        0.19140    0.10460    0.13728    1.000
