data_functionalizedCrystal
_audit_creation_method	'EQeq! by Chris Wilmer'
_symmetry_space_group_name_H-M	'P1'
_symmetry_Int_Tables_number	1
_symmetry_cell_setting	triclinic
loop_
_symmetry_equiv_pos_as_xyz
  x,y,z
_cell_length_a	8.9084
_cell_length_b	10.2182
_cell_length_c	10.2182
_cell_angle_alpha	120
_cell_angle_beta	90
_cell_angle_gamma	90
loop_
_atom_site_label
_atom_site_type_symbol
_atom_site_fract_x
_atom_site_fract_y
_atom_site_fract_z
_atom_site_charge
Mof_Pr	Pr	0.94804	0.33333	0.66666	2.983
Mof_Pr	Pr	0.05196	0.66667	0.33334	2.983
Mof_H 	H 	0.563	0.4821	0.3648	0.052
Mof_H 	H 	0.722	0.6318	0.5727	0.075
Mof_H 	H 	0.563	0.8827	0.5179	0.052
Mof_H 	H 	0.722	0.9409	0.3682	0.077
Mof_H 	H 	0.563	0.6352	0.1173	0.052
Mof_H 	H 	0.722	0.4273	0.0591	0.077
Mof_H 	H 	0.437	0.5179	0.6352	0.052
Mof_H 	H 	0.278	0.3682	0.4273	0.075
Mof_H 	H 	0.437	0.1173	0.4821	0.052
Mof_H 	H 	0.278	0.0591	0.6318	0.077
Mof_H 	H 	0.437	0.3648	0.8827	0.052
Mof_H 	H 	0.278	0.5727	0.9409	0.077
Mof_C 	C 	0.5673	0.4627	0.4494	0.066
Mof_C 	C 	0.8449	0.4458	0.4208	0.466
Mof_C 	C 	0.7166	0.5223	0.5313	-0.069
Mof_C 	C 	0.5673	0.9867	0.5373	0.068
Mof_C 	C 	0.8449	0.975	0.5542	0.472
Mof_C 	C 	0.7166	0.009	0.4777	-0.075
Mof_C 	C 	0.5673	0.5506	0.0133	0.067
Mof_C 	C 	0.8449	0.5792	0.025	0.471
Mof_C 	C 	0.7166	0.4687	0.991	-0.075
Mof_C 	C 	0.4327	0.5373	0.5506	0.066
Mof_C 	C 	0.1551	0.5542	0.5792	0.466
Mof_C 	C 	0.2834	0.4777	0.4687	-0.069
Mof_C 	C 	0.4327	0.0133	0.4627	0.068
Mof_C 	C 	0.1551	0.025	0.4458	0.472
Mof_C 	C 	0.2834	0.991	0.5223	-0.075
Mof_C 	C 	0.4327	0.4494	0.9867	0.067
Mof_C 	C 	0.1551	0.4208	0.975	0.471
Mof_C 	C 	0.2834	0.5313	0.009	-0.075
Mof_O 	O 	0.5605	0.3024	0.3899	-0.138
Mof_O 	O 	0.9226	0.3499	0.4341	-0.539
Mof_O 	O 	0.8671	0.4822	0.3225	-0.555
Mof_O 	O 	0.7353	0.4883	0.6508	-0.352
Mof_O 	O 	0.5605	0.0875	0.6976	-0.139
Mof_O 	O 	0.9226	0.0842	0.6501	-0.543
Mof_O 	O 	0.8671	0.8403	0.5178	-0.556
Mof_O 	O 	0.7353	0.1625	0.5117	-0.351
Mof_O 	O 	0.5605	0.6101	0.9125	-0.138
Mof_O 	O 	0.9226	0.5659	0.9158	-0.542
Mof_O 	O 	0.8671	0.6775	0.1597	-0.555
Mof_O 	O 	0.7353	0.3492	0.8375	-0.351
Mof_O 	O 	0.4395	0.6976	0.6101	-0.138
Mof_O 	O 	0.0774	0.6501	0.5659	-0.539
Mof_O 	O 	0.1329	0.5178	0.6775	-0.555
Mof_O 	O 	0.2647	0.5117	0.3492	-0.352
Mof_O 	O 	0.4395	0.9125	0.3024	-0.139
Mof_O 	O 	0.0774	0.9158	0.3499	-0.543
Mof_O 	O 	0.1329	0.1597	0.4822	-0.556
Mof_O 	O 	0.2647	0.8375	0.4883	-0.351
Mof_O 	O 	0.4395	0.3899	0.0875	-0.138
Mof_O 	O 	0.0774	0.4341	0.0842	-0.542
Mof_O 	O 	0.1329	0.3225	0.8403	-0.555
Mof_O 	O 	0.2647	0.6508	0.1625	-0.351
_end
