# CIF file generated by openbabel 3.1.0, see https://openbabel.org
data_I
_chemical_name_common 'image0'
_cell_length_a 31.951
_cell_length_b 10.636
_cell_length_c 12.368
_cell_angle_alpha 90
_cell_angle_beta 96.03
_cell_angle_gamma 90
_space_group_name_H-M_alt 'P 1'
_space_group_name_Hall 'P 1'
loop_
    _symmetry_equiv_pos_as_xyz
    x,y,z
loop_
    _atom_site_label
    _atom_site_type_symbol
    _atom_site_fract_x
    _atom_site_fract_y
    _atom_site_fract_z
    _atom_site_occupancy
    Mn1      Mn       0.24958    0.24825    0.49941    1.000
    Cu1      Cu       0.99577    0.25709    0.28561    1.000
    C1       C        0.07450    0.25470    0.43490    1.000
    C2       C        0.14490    0.24390    0.48520    1.000
    C3       C        0.35320    0.25090    0.53810    1.000
    C4       C        0.42050    0.23840    0.62610    1.000
    C5       C        0.25460    0.95210    0.41250    1.000
    C6       C        0.24980    0.54310    0.59020    1.000
    C7       C        0.25320    0.66950    0.73760    1.000
    C8       C        0.25140    0.82360    0.26620    1.000
    N1       N        0.04354    0.25410    0.38090    1.000
    N2       N        0.10640    0.25800    0.50520    1.000
    N3       N        0.18078    0.23280    0.48020    1.000
    N4       N        0.31830    0.26070    0.52090    1.000
    N5       N        0.39290    0.23710    0.54220    1.000
    N6       N        0.44840    0.24030    0.68980    1.000
    N7       N        0.25060    0.83770    0.36970    1.000
    N8       N        0.25660    0.04410    0.45560    1.000
    N9       N        0.24580    0.45110    0.54250    1.000
    N10      N        0.25700    0.65280    0.63450    1.000
    N11      N        0.25084    0.69860    0.82540    1.000
    N12      N        0.25100    0.79700    0.17620    1.000
    Mn2      Mn       0.25042    0.74825    0.00059    1.000
    Cu2      Cu       0.50423    0.75709    0.21439    1.000
    C9       C        0.42550    0.75470    0.06510    1.000
    C10      C        0.35510    0.74390    0.01480    1.000
    C11      C        0.14680    0.75090    0.96190    1.000
    C12      C        0.07950    0.73840    0.87390    1.000
    C13      C        0.24540    0.45210    0.08750    1.000
    C14      C        0.25020    0.04310    0.90980    1.000
    C15      C        0.24680    0.16950    0.76240    1.000
    C16      C        0.24860    0.32360    0.23380    1.000
    N13      N        0.45646    0.75410    0.11910    1.000
    N14      N        0.39360    0.75800    0.99480    1.000
    N15      N        0.31922    0.73280    0.01980    1.000
    N16      N        0.18170    0.76070    0.97910    1.000
    N17      N        0.10710    0.73710    0.95780    1.000
    N18      N        0.05160    0.74030    0.81020    1.000
    N19      N        0.24940    0.33770    0.13030    1.000
    N20      N        0.24340    0.54410    0.04440    1.000
    N21      N        0.25420    0.95110    0.95750    1.000
    N22      N        0.24300    0.15280    0.86550    1.000
    N23      N        0.24916    0.19860    0.67460    1.000
    N24      N        0.24900    0.29700    0.32380    1.000
    Mn3      Mn       0.75042    0.75175    0.50059    1.000
    Cu3      Cu       0.00423    0.74291    0.71439    1.000
    C17      C        0.92550    0.74530    0.56510    1.000
    C18      C        0.85510    0.75610    0.51480    1.000
    C19      C        0.64680    0.74910    0.46190    1.000
    C20      C        0.57950    0.76160    0.37390    1.000
    C21      C        0.74540    0.04790    0.58750    1.000
    C22      C        0.75020    0.45690    0.40980    1.000
    C23      C        0.74680    0.33050    0.26240    1.000
    C24      C        0.74860    0.17640    0.73380    1.000
    N25      N        0.95646    0.74590    0.61910    1.000
    N26      N        0.89360    0.74200    0.49480    1.000
    N27      N        0.81922    0.76720    0.51980    1.000
    N28      N        0.68170    0.73930    0.47910    1.000
    N29      N        0.60710    0.76290    0.45780    1.000
    N30      N        0.55160    0.75970    0.31020    1.000
    N31      N        0.74940    0.16230    0.63030    1.000
    N32      N        0.74340    0.95590    0.54440    1.000
    N33      N        0.75420    0.54890    0.45750    1.000
    N34      N        0.74300    0.34720    0.36550    1.000
    N35      N        0.74916    0.30140    0.17460    1.000
    N36      N        0.74900    0.20300    0.82380    1.000
    Mn4      Mn       0.74958    0.25175    0.99941    1.000
    Cu4      Cu       0.49577    0.24291    0.78561    1.000
    C25      C        0.57450    0.24530    0.93490    1.000
    C26      C        0.64490    0.25610    0.98520    1.000
    C27      C        0.85320    0.24910    0.03810    1.000
    C28      C        0.92050    0.26160    0.12610    1.000
    C29      C        0.75460    0.54790    0.91250    1.000
    C30      C        0.74980    0.95690    0.09020    1.000
    C31      C        0.75320    0.83050    0.23760    1.000
    C32      C        0.75140    0.67640    0.76620    1.000
    N37      N        0.54354    0.24590    0.88090    1.000
    N38      N        0.60640    0.24200    0.00520    1.000
    N39      N        0.68078    0.26720    0.98020    1.000
    N40      N        0.81830    0.23930    0.02090    1.000
    N41      N        0.89290    0.26290    0.04220    1.000
    N42      N        0.94840    0.25970    0.18980    1.000
    N43      N        0.75060    0.66230    0.86970    1.000
    N44      N        0.75660    0.45590    0.95560    1.000
    N45      N        0.74580    0.04890    0.04250    1.000
    N46      N        0.75700    0.84720    0.13450    1.000
    N47      N        0.75084    0.80140    0.32540    1.000
    N48      N        0.75100    0.70300    0.67620    1.000
