data_functionalizedCrystal
_audit_creation_method	'EQeq! by Chris Wilmer'
_symmetry_space_group_name_H-M	'P1'
_symmetry_Int_Tables_number	1
_symmetry_cell_setting	triclinic
loop_
_symmetry_equiv_pos_as_xyz
  x,y,z
_cell_length_a	14.4162
_cell_length_b	14.4162
_cell_length_c	17.304
_cell_angle_alpha	90
_cell_angle_beta	90
_cell_angle_gamma	120
loop_
_atom_site_label
_atom_site_type_symbol
_atom_site_fract_x
_atom_site_fract_y
_atom_site_fract_z
_atom_site_charge
Mof_O 	O 	0.346	0.4995	0.66609	-0.393
Mof_C 	C 	0.4015	0.4318	0.5336	-0.011
Mof_H 	H 	0.3354	0.3861	0.5561	0.052
Mof_O 	O 	0.5005	0.8465	0.66609	-0.394
Mof_C 	C 	0.5682	0.9697	0.5336	-0.011
Mof_H 	H 	0.6139	0.9493	0.5561	0.052
Mof_O 	O 	0.1535	0.654	0.66609	-0.394
Mof_C 	C 	0.0303	0.5985	0.5336	-0.011
Mof_H 	H 	0.0507	0.6646	0.5561	0.052
Mof_O 	O 	0.654	0.5005	0.16609	-0.393
Mof_C 	C 	0.5985	0.5682	0.0336	-0.012
Mof_H 	H 	0.6646	0.6139	0.0561	0.052
Mof_O 	O 	0.4995	0.1535	0.16609	-0.394
Mof_C 	C 	0.4318	0.0303	0.0336	-0.012
Mof_H 	H 	0.3861	0.0507	0.0561	0.052
Mof_O 	O 	0.8465	0.346	0.16609	-0.394
Mof_C 	C 	0.9697	0.4015	0.0336	-0.012
Mof_H 	H 	0.9493	0.3354	0.0561	0.052
Mof_O 	O 	0.4995	0.346	0.33391	-0.393
Mof_C 	C 	0.4318	0.4015	0.4664	-0.011
Mof_H 	H 	0.3861	0.3354	0.4439	0.051
Mof_O 	O 	0.8465	0.5005	0.33391	-0.395
Mof_C 	C 	0.9697	0.5682	0.4664	-0.012
Mof_H 	H 	0.9493	0.6139	0.4439	0.051
Mof_O 	O 	0.654	0.1535	0.33391	-0.395
Mof_C 	C 	0.5985	0.0303	0.4664	-0.012
Mof_H 	H 	0.6646	0.0507	0.4439	0.051
Mof_O 	O 	0.5005	0.654	0.83391	-0.394
Mof_C 	C 	0.5682	0.5985	0.9664	-0.013
Mof_H 	H 	0.6139	0.6646	0.9439	0.051
Mof_O 	O 	0.1535	0.4995	0.83391	-0.395
Mof_C 	C 	0.0303	0.4318	0.9664	-0.013
Mof_H 	H 	0.0507	0.3861	0.9439	0.051
Mof_O 	O 	0.346	0.8465	0.83391	-0.395
Mof_C 	C 	0.4015	0.9697	0.9664	-0.013
Mof_H 	H 	0.3354	0.9493	0.9439	0.051
Mof_O 	O 	0.654	0.5005	0.33391	-0.394
Mof_C 	C 	0.5985	0.5682	0.4664	-0.012
Mof_H 	H 	0.6646	0.6139	0.4439	0.051
Mof_O 	O 	0.4995	0.1535	0.33391	-0.395
Mof_C 	C 	0.4318	0.0303	0.4664	-0.012
Mof_H 	H 	0.3861	0.0507	0.4439	0.051
Mof_O 	O 	0.8465	0.346	0.33391	-0.395
Mof_C 	C 	0.9697	0.4015	0.4664	-0.012
Mof_H 	H 	0.9493	0.3354	0.4439	0.051
Mof_O 	O 	0.346	0.4995	0.83391	-0.394
Mof_C 	C 	0.4015	0.4318	0.9664	-0.013
Mof_H 	H 	0.3354	0.3861	0.9439	0.051
Mof_O 	O 	0.5005	0.8465	0.83391	-0.395
Mof_C 	C 	0.5682	0.9697	0.9664	-0.013
Mof_H 	H 	0.6139	0.9493	0.9439	0.051
Mof_O 	O 	0.1535	0.654	0.83391	-0.395
Mof_C 	C 	0.0303	0.5985	0.9664	-0.013
Mof_H 	H 	0.0507	0.6646	0.9439	0.051
Mof_O 	O 	0.5005	0.654	0.66609	-0.394
Mof_C 	C 	0.5682	0.5985	0.5336	-0.012
Mof_H 	H 	0.6139	0.6646	0.5561	0.051
Mof_O 	O 	0.1535	0.4995	0.66609	-0.395
Mof_C 	C 	0.0303	0.4318	0.5336	-0.012
Mof_H 	H 	0.0507	0.3861	0.5561	0.051
Mof_O 	O 	0.346	0.8465	0.66609	-0.395
Mof_C 	C 	0.4015	0.9697	0.5336	-0.012
Mof_H 	H 	0.3354	0.9493	0.5561	0.051
Mof_O 	O 	0.4995	0.346	0.16609	-0.394
Mof_C 	C 	0.4318	0.4015	0.0336	-0.013
Mof_H 	H 	0.3861	0.3354	0.0561	0.051
Mof_O 	O 	0.8465	0.5005	0.16609	-0.395
Mof_C 	C 	0.9697	0.5682	0.0336	-0.013
Mof_H 	H 	0.9493	0.6139	0.0561	0.051
Mof_O 	O 	0.654	0.1535	0.16609	-0.395
Mof_C 	C 	0.5985	0.0303	0.0336	-0.013
Mof_H 	H 	0.6646	0.0507	0.0561	0.051
Mof_Fe	Fe	0.25639	0.51279	0.75	0.967
Mof_Fe	Fe	0.48721	0.74361	0.75	0.967
Mof_Fe	Fe	0.25639	0.74361	0.75	0.967
Mof_Fe	Fe	0.74361	0.48721	0.25	0.967
Mof_Fe	Fe	0.51279	0.25639	0.25	0.967
Mof_Fe	Fe	0.74361	0.25639	0.25	0.967
Mof_O 	O 	0.33333	0.66667	0.75	-0.527
Mof_O 	O 	0.66667	0.33333	0.25	-0.527
Mof_C 	C 	0.43633	0.56367	0.6392	0.401
Mof_C 	C 	0.4698	0.5302	0.5674	-0.086
Mof_C 	C 	0.43633	0.87266	0.6392	0.401
Mof_C 	C 	0.4698	0.9396	0.5674	-0.086
Mof_C 	C 	0.12734	0.56367	0.6392	0.401
Mof_C 	C 	0.0604	0.5302	0.5674	-0.086
Mof_C 	C 	0.56367	0.43633	0.1392	0.401
Mof_C 	C 	0.5302	0.4698	0.0674	-0.086
Mof_C 	C 	0.56367	0.12734	0.1392	0.401
Mof_C 	C 	0.5302	0.0604	0.0674	-0.086
Mof_C 	C 	0.87266	0.43633	0.1392	0.401
Mof_C 	C 	0.9396	0.4698	0.0674	-0.086
Mof_C 	C 	0.56367	0.43633	0.3608	0.401
Mof_C 	C 	0.5302	0.4698	0.4326	-0.086
Mof_C 	C 	0.87266	0.43633	0.3608	0.401
Mof_C 	C 	0.9396	0.4698	0.4326	-0.086
Mof_C 	C 	0.56367	0.12734	0.3608	0.401
Mof_C 	C 	0.5302	0.0604	0.4326	-0.086
Mof_C 	C 	0.43633	0.56367	0.8608	0.401
Mof_C 	C 	0.4698	0.5302	0.9326	-0.086
Mof_C 	C 	0.12734	0.56367	0.8608	0.401
Mof_C 	C 	0.0604	0.5302	0.9326	-0.086
Mof_C 	C 	0.43633	0.87266	0.8608	0.401
Mof_C 	C 	0.4698	0.9396	0.9326	-0.086
_end
