data_functionalizedCrystal
_audit_creation_method	'EQeq! by Chris Wilmer'
_symmetry_space_group_name_H-M	'P1'
_symmetry_Int_Tables_number	1
_symmetry_cell_setting	triclinic
loop_
_symmetry_equiv_pos_as_xyz
  x,y,z
_cell_length_a	24.1719
_cell_length_b	24.1719
_cell_length_c	13.011
_cell_angle_alpha	90
_cell_angle_beta	90
_cell_angle_gamma	120
loop_
_atom_site_label
_atom_site_type_symbol
_atom_site_fract_x
_atom_site_fract_y
_atom_site_fract_z
_atom_site_charge
Mof_O 	O 	0.5691	0.9381	0.0578	-0.476
Mof_O 	O 	0.6178	0.0196	0.1636	-0.587
Mof_O 	O 	0.3219	0.232	0.249	-0.562
Mof_C 	C 	0.3916	0.9768	0.1538	0.221
Mof_C 	C 	0.4479	0.0276	0.1917	-0.286
Mof_H 	H 	0.4473	0.0615	0.2243	0.118
Mof_C 	C 	0.5051	0.0277	0.1808	0.113
Mof_H 	H 	0.5428	0.0617	0.2062	-0.042
Mof_C 	C 	0.5061	0.977	0.1321	-0.196
Mof_C 	C 	0.4498	0.9262	0.0942	0.126
Mof_H 	H 	0.4504	0.8923	0.0616	-0.029
Mof_C 	C 	0.39253	0.9261	0.1051	-0.253
Mof_H 	H 	0.3549	0.8921	0.0797	0.086
Mof_C 	C 	0.5669	0.9747	0.12	0.449
Mof_C 	C 	0.366	0.0813	0.0907	-0.227
Mof_H 	H 	0.389	0.0742	0.0403	0.064
Mof_C 	C 	0.3645	0.1375	0.0895	0.126
Mof_H 	H 	0.3846	0.1665	0.0365	-0.048
Mof_O 	O 	0.23577	0.27143	0.39113	-0.473
Mof_O 	O 	0.28447	0.35293	0.49693	-0.572
Mof_O 	O 	0.98857	0.56533	0.58233	-0.527
Mof_C 	C 	0.05827	0.31013	0.48713	0.19
Mof_C 	C 	0.11457	0.36093	0.52503	-0.239
Mof_H 	H 	0.11397	0.39483	0.55763	0.114
Mof_C 	C 	0.17177	0.36103	0.51413	0.149
Mof_H 	H 	0.20947	0.39503	0.53953	-0.037
Mof_C 	C 	0.17277	0.31033	0.46543	-0.206
Mof_C 	C 	0.11647	0.25953	0.42753	0.133
Mof_H 	H 	0.11707	0.22563	0.39493	-0.013
Mof_C 	C 	0.0592	0.25943	0.43843	-0.235
Mof_H 	H 	0.02157	0.22543	0.41303	0.096
Mof_C 	C 	0.23357	0.30803	0.45333	0.426
Mof_C 	C 	0.03267	0.41463	0.42403	-0.238
Mof_H 	H 	0.05567	0.40753	0.37363	0.114
Mof_C 	C 	0.03117	0.47083	0.42283	0.156
Mof_H 	H 	0.05127	0.49983	0.36983	-0.023
Mof_O 	O 	0.90243	0.60477	0.72447	-0.451
Mof_O 	O 	0.95113	0.68627	0.83027	-0.485
Mof_O 	O 	0.65523	0.89867	0.91567	-0.455
Mof_C 	C 	0.72493	0.64347	0.82047	0.203
Mof_C 	C 	0.78123	0.69427	0.85837	-0.218
Mof_H 	H 	0.78063	0.72817	0.89097	0.136
Mof_C 	C 	0.83843	0.69437	0.84747	0.147
Mof_H 	H 	0.87613	0.72837	0.87287	-0.002
Mof_C 	C 	0.83943	0.64367	0.79877	-0.176
Mof_C 	C 	0.78313	0.59287	0.76087	0.129
Mof_H 	H 	0.78373	0.55897	0.72827	0.001
Mof_C 	C 	0.72586	0.59277	0.77177	-0.22
Mof_H 	H 	0.68823	0.55877	0.74637	0.107
Mof_C 	C 	0.90023	0.64137	0.78667	0.409
Mof_C 	C 	0.69933	0.74797	0.75737	-0.23
Mof_H 	H 	0.72233	0.74087	0.70697	0.116
Mof_C 	C 	0.69783	0.80417	0.75617	0.152
Mof_H 	H 	0.71793	0.83317	0.70317	-0.011
Mof_O 	O 	0.0619	0.631	0.0578	-0.479
Mof_O 	O 	0.9804	0.5982	0.1636	-0.547
Mof_O 	O 	0.768	0.0899	0.249	-0.558
Mof_C 	C 	0.0232	0.4148	0.1538	0.148
Mof_C 	C 	0.9724	0.4203	0.1917	-0.215
Mof_H 	H 	0.9385	0.3858	0.2243	0.103
Mof_C 	C 	0.9723	0.4774	0.1808	0.169
Mof_H 	H 	0.9383	0.4811	0.2062	-0.053
Mof_C 	C 	0.023	0.5291	0.1321	-0.251
Mof_C 	C 	0.0738	0.5236	0.0942	0.124
Mof_H 	H 	0.1077	0.5581	0.0616	-0.03
Mof_C 	C 	0.0739	0.46643	0.1051	-0.237
Mof_H 	H 	0.1079	0.4628	0.0797	0.079
Mof_C 	C 	0.0253	0.5922	0.12	0.396
Mof_C 	C 	0.9187	0.2847	0.0907	-0.262
Mof_H 	H 	0.9258	0.3148	0.0403	0.085
Mof_C 	C 	0.8625	0.227	0.0895	0.156
Mof_H 	H 	0.8335	0.2181	0.0365	-0.057
Mof_O 	O 	0.72857	0.96433	0.39113	-0.447
Mof_O 	O 	0.64707	0.93153	0.49693	-0.566
Mof_O 	O 	0.43467	0.42323	0.58233	-0.567
Mof_C 	C 	0.68987	0.74813	0.48713	0.195
Mof_C 	C 	0.63907	0.75363	0.52503	-0.24
Mof_H 	H 	0.60517	0.71913	0.55763	0.115
Mof_C 	C 	0.63897	0.81073	0.51413	0.149
Mof_H 	H 	0.60497	0.81443	0.53953	-0.037
Mof_C 	C 	0.68967	0.86243	0.46543	-0.202
Mof_C 	C 	0.74047	0.85693	0.42753	0.135
Mof_H 	H 	0.77437	0.89143	0.39493	-0.002
Mof_C 	C 	0.74057	0.79976	0.43843	-0.23
Mof_H 	H 	0.77457	0.79613	0.41303	0.11
Mof_C 	C 	0.69197	0.92553	0.45333	0.425
Mof_C 	C 	0.58537	0.61803	0.42403	-0.242
Mof_H 	H 	0.59247	0.64813	0.37363	0.118
Mof_C 	C 	0.52917	0.56033	0.42283	0.159
Mof_H 	H 	0.50017	0.55143	0.36983	-0.021
Mof_O 	O 	0.39523	0.29767	0.72447	-0.464
Mof_O 	O 	0.31373	0.26487	0.83027	-0.511
Mof_O 	O 	0.10133	0.75657	0.91567	-0.466
Mof_C 	C 	0.35653	0.08147	0.82047	0.2
Mof_C 	C 	0.30573	0.08697	0.85837	-0.221
Mof_H 	H 	0.27183	0.05247	0.89097	0.126
Mof_C 	C 	0.30563	0.14407	0.84747	0.15
Mof_H 	H 	0.27163	0.14777	0.87287	-0.011
Mof_C 	C 	0.35633	0.19577	0.79877	-0.181
Mof_C 	C 	0.40713	0.19027	0.76087	0.131
Mof_H 	H 	0.44103	0.22477	0.72827	-0
Mof_C 	C 	0.40723	0.1331	0.77177	-0.221
Mof_H 	H 	0.44123	0.12947	0.74637	0.107
Mof_C 	C 	0.35863	0.25887	0.78667	0.416
Mof_C 	C 	0.25203	0.95137	0.75737	-0.251
Mof_H 	H 	0.25913	0.98147	0.70697	0.134
Mof_C 	C 	0.19583	0.89367	0.75617	0.168
Mof_H 	H 	0.16683	0.88477	0.70317	-0.019
Mof_O 	O 	0.369	0.4309	0.0578	-0.487
Mof_O 	O 	0.4018	0.3822	0.1636	-0.571
Mof_O 	O 	0.9101	0.6781	0.249	-0.562
Mof_C 	C 	0.5852	0.6084	0.1538	0.181
Mof_C 	C 	0.5797	0.5521	0.1917	-0.248
Mof_H 	H 	0.6142	0.5527	0.2243	0.11
Mof_C 	C 	0.5226	0.4949	0.1808	0.143
Mof_H 	H 	0.5189	0.4572	0.2062	-0.049
Mof_C 	C 	0.4709	0.4939	0.1321	-0.227
Mof_C 	C 	0.4764	0.5502	0.0942	0.125
Mof_H 	H 	0.4419	0.5496	0.0616	-0.03
Mof_C 	C 	0.53357	0.60747	0.1051	-0.245
Mof_H 	H 	0.5372	0.6451	0.0797	0.082
Mof_C 	C 	0.4078	0.4331	0.12	0.422
Mof_C 	C 	0.7153	0.634	0.0907	-0.243
Mof_H 	H 	0.6852	0.611	0.0403	0.075
Mof_C 	C 	0.773	0.6355	0.0895	0.141
Mof_H 	H 	0.7819	0.6154	0.0365	-0.052
Mof_O 	O 	0.03567	0.76423	0.39113	-0.489
Mof_O 	O 	0.06847	0.71553	0.49693	-0.577
Mof_O 	O 	0.57677	0.01143	0.58233	-0.579
Mof_C 	C 	0.25187	0.94173	0.48713	0.234
Mof_C 	C 	0.24637	0.88543	0.52503	-0.263
Mof_H 	H 	0.28087	0.88603	0.55763	0.128
Mof_C 	C 	0.18927	0.82823	0.51413	0.167
Mof_H 	H 	0.18557	0.79053	0.53953	-0.042
Mof_C 	C 	0.13757	0.82723	0.46543	-0.219
Mof_C 	C 	0.14307	0.88353	0.42753	0.154
Mof_H 	H 	0.10857	0.88293	0.39493	-0.015
Mof_C 	C 	0.20024	0.9408	0.43843	-0.254
Mof_H 	H 	0.20387	0.97843	0.41303	0.128
Mof_C 	C 	0.07447	0.76643	0.45333	0.43
Mof_C 	C 	0.38197	0.96733	0.42403	-0.205
Mof_H 	H 	0.35187	0.94433	0.37363	0.111
Mof_C 	C 	0.43967	0.96883	0.42283	0.185
Mof_H 	H 	0.44857	0.94873	0.36983	-0.023
Mof_O 	O 	0.70233	0.09757	0.72447	-0.475
Mof_O 	O 	0.73513	0.04887	0.83027	-0.517
Mof_O 	O 	0.24343	0.34477	0.91567	-0.469
Mof_C 	C 	0.91853	0.27507	0.82047	0.21
Mof_C 	C 	0.91303	0.21877	0.85837	-0.223
Mof_H 	H 	0.94753	0.21937	0.89097	0.143
Mof_C 	C 	0.85593	0.16157	0.84747	0.155
Mof_H 	H 	0.85223	0.12387	0.87287	-0.01
Mof_C 	C 	0.80423	0.16057	0.79877	-0.183
Mof_C 	C 	0.80973	0.21687	0.76087	0.136
Mof_H 	H 	0.77523	0.21627	0.72827	-0.002
Mof_C 	C 	0.8669	0.27414	0.77177	-0.226
Mof_H 	H 	0.87053	0.31177	0.74637	0.109
Mof_C 	C 	0.74113	0.09977	0.78667	0.418
Mof_C 	C 	0.04863	0.30067	0.75737	-0.217
Mof_H 	H 	0.01853	0.27767	0.70697	0.099
Mof_C 	C 	0.10633	0.30217	0.75617	0.137
Mof_H 	H 	0.11523	0.28207	0.70317	-0.013
Mof_O 	O 	0.9381	0.5691	0.9422	-0.376
Mof_O 	O 	0.0196	0.6178	0.8364	-0.545
Mof_O 	O 	0.232	0.3219	0.751	-0.548
Mof_C 	C 	0.9768	0.3916	0.8462	0.241
Mof_C 	C 	0.0276	0.4479	0.8083	-0.263
Mof_H 	H 	0.0615	0.4473	0.7757	0.124
Mof_C 	C 	0.0277	0.5051	0.8192	0.127
Mof_H 	H 	0.0617	0.5428	0.7938	-0.021
Mof_C 	C 	0.977	0.5061	0.8679	-0.153
Mof_C 	C 	0.9262	0.4498	0.9058	0.139
Mof_H 	H 	0.8923	0.4504	0.9384	0.019
Mof_C 	C 	0.9261	0.39253	0.8949	-0.225
Mof_H 	H 	0.8921	0.3549	0.9203	0.138
Mof_C 	C 	0.9747	0.5669	0.88	0.439
Mof_C 	C 	0.0813	0.366	0.9093	-0.21
Mof_H 	H 	0.0742	0.389	0.9597	0.146
Mof_C 	C 	0.1375	0.3645	0.9105	0.145
Mof_H 	H 	0.1665	0.3846	0.9635	0.024
Mof_O 	O 	0.60477	0.90243	0.27553	-0.45
Mof_O 	O 	0.68627	0.95113	0.16973	-0.52
Mof_O 	O 	0.89867	0.65523	0.08433	-0.552
Mof_C 	C 	0.64347	0.72493	0.17953	0.176
Mof_C 	C 	0.69427	0.78123	0.14163	-0.24
Mof_H 	H 	0.72817	0.78063	0.10903	0.092
Mof_C 	C 	0.69437	0.83843	0.15253	0.124
Mof_H 	H 	0.72837	0.87613	0.12713	-0.04
Mof_C 	C 	0.64367	0.83943	0.20123	-0.198
Mof_C 	C 	0.59287	0.78313	0.23913	0.116
Mof_H 	H 	0.55897	0.78373	0.27173	-0.005
Mof_C 	C 	0.59277	0.72586	0.22823	-0.228
Mof_H 	H 	0.55877	0.68823	0.25363	0.105
Mof_C 	C 	0.64137	0.90023	0.21333	0.402
Mof_C 	C 	0.74797	0.69933	0.24263	-0.237
Mof_H 	H 	0.74087	0.72233	0.29303	0.116
Mof_C 	C 	0.80417	0.69783	0.24383	0.15
Mof_H 	H 	0.83317	0.71793	0.29683	-0.018
Mof_O 	O 	0.27143	0.23577	0.60887	-0.47
Mof_O 	O 	0.35293	0.28447	0.50307	-0.573
Mof_O 	O 	0.56533	0.98857	0.41767	-0.521
Mof_C 	C 	0.31013	0.05827	0.51287	0.188
Mof_C 	C 	0.36093	0.11457	0.47497	-0.238
Mof_H 	H 	0.39483	0.11397	0.44237	0.111
Mof_C 	C 	0.36103	0.17177	0.48587	0.146
Mof_H 	H 	0.39503	0.20947	0.46047	-0.04
Mof_C 	C 	0.31033	0.17277	0.53457	-0.205
Mof_C 	C 	0.25953	0.11647	0.57247	0.129
Mof_H 	H 	0.22563	0.11707	0.60507	-0.007
Mof_C 	C 	0.25943	0.0592	0.56157	-0.234
Mof_H 	H 	0.22543	0.02157	0.58697	0.099
Mof_C 	C 	0.30803	0.23357	0.54667	0.423
Mof_C 	C 	0.41463	0.03267	0.57597	-0.237
Mof_H 	H 	0.40753	0.05567	0.62637	0.112
Mof_C 	C 	0.47083	0.03117	0.57717	0.155
Mof_H 	H 	0.49983	0.05127	0.63017	-0.024
Mof_O 	O 	0.631	0.0619	0.9422	-0.373
Mof_O 	O 	0.5982	0.9804	0.8364	-0.506
Mof_O 	O 	0.0899	0.768	0.751	-0.544
Mof_C 	C 	0.4148	0.0232	0.8462	0.173
Mof_C 	C 	0.4203	0.9724	0.8083	-0.197
Mof_H 	H 	0.3858	0.9385	0.7757	0.11
Mof_C 	C 	0.4774	0.9723	0.8192	0.178
Mof_H 	H 	0.4811	0.9383	0.7938	-0.031
Mof_C 	C 	0.5291	0.023	0.8679	-0.203
Mof_C 	C 	0.5236	0.0738	0.9058	0.138
Mof_H 	H 	0.5581	0.1077	0.9384	0.019
Mof_C 	C 	0.46643	0.0739	0.8949	-0.21
Mof_H 	H 	0.4628	0.1079	0.9203	0.133
Mof_C 	C 	0.5922	0.0253	0.88	0.389
Mof_C 	C 	0.2847	0.9187	0.9093	-0.243
Mof_H 	H 	0.3148	0.9258	0.9597	0.164
Mof_C 	C 	0.227	0.8625	0.9105	0.172
Mof_H 	H 	0.2181	0.8335	0.9635	0.014
Mof_O 	O 	0.29767	0.39523	0.27553	-0.465
Mof_O 	O 	0.26487	0.31373	0.16973	-0.552
Mof_O 	O 	0.75657	0.10133	0.08433	-0.558
Mof_C 	C 	0.08147	0.35653	0.17953	0.173
Mof_C 	C 	0.08697	0.30573	0.14163	-0.246
Mof_H 	H 	0.05247	0.27183	0.10903	0.081
Mof_C 	C 	0.14407	0.30563	0.15253	0.127
Mof_H 	H 	0.14777	0.27163	0.12713	-0.052
Mof_C 	C 	0.19577	0.35633	0.20123	-0.206
Mof_C 	C 	0.19027	0.40713	0.23913	0.12
Mof_H 	H 	0.22477	0.44103	0.27173	-0.007
Mof_C 	C 	0.1331	0.40723	0.22823	-0.229
Mof_H 	H 	0.12947	0.44123	0.25363	0.106
Mof_C 	C 	0.25887	0.35863	0.21333	0.41
Mof_C 	C 	0.95137	0.25203	0.24263	-0.257
Mof_H 	H 	0.98147	0.25913	0.29303	0.133
Mof_C 	C 	0.89367	0.19583	0.24383	0.166
Mof_H 	H 	0.88477	0.16683	0.29683	-0.026
Mof_O 	O 	0.96433	0.72857	0.60887	-0.447
Mof_O 	O 	0.93153	0.64707	0.50307	-0.567
Mof_O 	O 	0.42323	0.43467	0.41767	-0.566
Mof_C 	C 	0.74813	0.68987	0.51287	0.194
Mof_C 	C 	0.75363	0.63907	0.47497	-0.24
Mof_H 	H 	0.71913	0.60517	0.44237	0.112
Mof_C 	C 	0.81073	0.63897	0.48587	0.148
Mof_H 	H 	0.81443	0.60497	0.46047	-0.041
Mof_C 	C 	0.86243	0.68967	0.53457	-0.202
Mof_C 	C 	0.85693	0.74047	0.57247	0.131
Mof_H 	H 	0.89143	0.77437	0.60507	0.004
Mof_C 	C 	0.79976	0.74057	0.56157	-0.23
Mof_H 	H 	0.79613	0.77457	0.58697	0.113
Mof_C 	C 	0.92553	0.69197	0.54667	0.423
Mof_C 	C 	0.61803	0.58537	0.57597	-0.242
Mof_H 	H 	0.64813	0.59247	0.62637	0.116
Mof_C 	C 	0.56033	0.52917	0.57717	0.159
Mof_H 	H 	0.55143	0.50017	0.63017	-0.022
Mof_O 	O 	0.4309	0.369	0.9422	-0.381
Mof_O 	O 	0.3822	0.4018	0.8364	-0.53
Mof_O 	O 	0.6781	0.9101	0.751	-0.547
Mof_C 	C 	0.6084	0.5852	0.8462	0.207
Mof_C 	C 	0.5521	0.5797	0.8083	-0.23
Mof_H 	H 	0.5527	0.6142	0.7757	0.117
Mof_C 	C 	0.4949	0.5226	0.8192	0.152
Mof_H 	H 	0.4572	0.5189	0.7938	-0.027
Mof_C 	C 	0.4939	0.4709	0.8679	-0.178
Mof_C 	C 	0.5502	0.4764	0.9058	0.139
Mof_H 	H 	0.5496	0.4419	0.9384	0.019
Mof_C 	C 	0.60747	0.53357	0.8949	-0.217
Mof_H 	H 	0.6451	0.5372	0.9203	0.135
Mof_C 	C 	0.4331	0.4078	0.88	0.416
Mof_C 	C 	0.634	0.7153	0.9093	-0.224
Mof_H 	H 	0.611	0.6852	0.9597	0.154
Mof_C 	C 	0.6355	0.773	0.9105	0.157
Mof_H 	H 	0.6154	0.7819	0.9635	0.019
Mof_O 	O 	0.09757	0.70233	0.27553	-0.477
Mof_O 	O 	0.04887	0.73513	0.16973	-0.558
Mof_O 	O 	0.34477	0.24343	0.08433	-0.566
Mof_C 	C 	0.27507	0.91853	0.17953	0.185
Mof_C 	C 	0.21877	0.91303	0.14163	-0.247
Mof_H 	H 	0.21937	0.94753	0.10903	0.1
Mof_C 	C 	0.16157	0.85593	0.15253	0.133
Mof_H 	H 	0.12387	0.85223	0.12713	-0.049
Mof_C 	C 	0.16057	0.80423	0.20123	-0.208
Mof_C 	C 	0.21687	0.80973	0.23913	0.125
Mof_H 	H 	0.21627	0.77523	0.27173	-0.008
Mof_C 	C 	0.27414	0.8669	0.22823	-0.235
Mof_H 	H 	0.31177	0.87053	0.25363	0.108
Mof_C 	C 	0.09977	0.74113	0.21333	0.413
Mof_C 	C 	0.30067	0.04863	0.24263	-0.22
Mof_H 	H 	0.27767	0.01853	0.29303	0.097
Mof_C 	C 	0.30217	0.10633	0.24383	0.133
Mof_H 	H 	0.28207	0.11523	0.29683	-0.019
Mof_O 	O 	0.76423	0.03567	0.60887	-0.487
Mof_O 	O 	0.71553	0.06847	0.50307	-0.578
Mof_O 	O 	0.01143	0.57677	0.41767	-0.578
Mof_C 	C 	0.94173	0.25187	0.51287	0.229
Mof_C 	C 	0.88543	0.24637	0.47497	-0.261
Mof_H 	H 	0.88603	0.28087	0.44237	0.123
Mof_C 	C 	0.82823	0.18927	0.48587	0.164
Mof_H 	H 	0.79053	0.18557	0.46047	-0.045
Mof_C 	C 	0.82723	0.13757	0.53457	-0.217
Mof_C 	C 	0.88353	0.14307	0.57247	0.149
Mof_H 	H 	0.88293	0.10857	0.60507	-0.009
Mof_C 	C 	0.9408	0.20024	0.56157	-0.252
Mof_H 	H 	0.97843	0.20387	0.58697	0.128
Mof_C 	C 	0.76643	0.07447	0.54667	0.427
Mof_C 	C 	0.96733	0.38197	0.57597	-0.209
Mof_H 	H 	0.94433	0.35187	0.62637	0.11
Mof_C 	C 	0.96883	0.43967	0.57717	0.182
Mof_H 	H 	0.94873	0.44857	0.63017	-0.024
Mof_La	La	0.66667	0.01805	0.33333	2.059
Mof_La	La	0.98195	0.64861	0.33333	2.22
Mof_La	La	0.35139	0.33333	0.33333	2.143
Mof_La	La	0.01805	0.66667	0.66667	2.086
Mof_La	La	0.68472	0	-0	1.74
Mof_La	La	0.64861	0.98195	0.66667	2.241
Mof_La	La	0.31528	0.31528	-0	1.818
Mof_La	La	0.33333	0.35139	0.66667	2.16
Mof_La	La	-0	0.68472	-0	1.759
Mof_N 	N 	0.33333	0.97552	0.16667	-0.196
Mof_C 	C 	0.33333	0.03422	0.16667	0.135
Mof_C 	C 	0.33333	0.15142	0.16667	-0.257
Mof_C 	C 	0.33333	0.21302	0.16667	0.5
Mof_N 	N 	3.61133e-17	0.30885	0.5	-0.218
Mof_C 	C 	1.57691e-18	0.36755	0.5	0.156
Mof_C 	C 	-3.29595e-17	0.48475	0.5	-0.282
Mof_C 	C 	-3.29595e-17	0.54635	0.5	0.487
Mof_N 	N 	0.02448	0.35782	0.16667	-0.219
Mof_C 	C 	0.96578	0.29912	0.16667	0.207
Mof_C 	C 	0.84858	0.18192	0.16667	-0.274
Mof_C 	C 	0.78698	0.12032	0.16667	0.503
Mof_N 	N 	0.69115	0.69115	0.5	-0.206
Mof_C 	C 	0.63245	0.63245	0.5	0.189
Mof_C 	C 	0.51525	0.51525	0.5	-0.26
Mof_C 	C 	0.45365	0.45365	0.5	0.517
Mof_N 	N 	0.64218	0.66667	0.16667	-0.208
Mof_C 	C 	0.70088	0.66667	0.16667	0.173
Mof_C 	C 	0.81808	0.66667	0.16667	-0.263
Mof_C 	C 	0.87968	0.66667	0.16667	0.504
Mof_N 	N 	0.30885	0	0.5	-0.22
Mof_C 	C 	0.36755	0	0.5	0.152
Mof_C 	C 	0.48475	0	0.5	-0.284
Mof_C 	C 	0.54635	0	0.5	0.483
Mof_N 	N 	0.97552	0.33333	0.83333	-0.191
Mof_C 	C 	0.03422	0.33333	0.83333	0.164
Mof_C 	C 	0.15142	0.33333	0.83333	-0.222
Mof_C 	C 	0.21302	0.33333	0.83333	0.491
Mof_N 	N 	0.35782	0.02448	0.83333	-0.212
Mof_C 	C 	0.29912	0.96578	0.83333	0.231
Mof_C 	C 	0.18192	0.84858	0.83333	-0.238
Mof_C 	C 	0.12032	0.78698	0.83333	0.495
Mof_N 	N 	0.66667	0.64218	0.83333	-0.201
Mof_C 	C 	0.66667	0.70088	0.83333	0.196
Mof_C 	C 	0.66667	0.81808	0.83333	-0.226
Mof_C 	C 	0.66667	0.87968	0.83333	0.494
_end
