data_functionalizedCrystal
_audit_creation_method	'EQeq! by Chris Wilmer'
_symmetry_space_group_name_H-M	'P1'
_symmetry_Int_Tables_number	1
_symmetry_cell_setting	triclinic
loop_
_symmetry_equiv_pos_as_xyz
  x,y,z
_cell_length_a	24.2501
_cell_length_b	24.2501
_cell_length_c	24.2501
_cell_angle_alpha	109.458
_cell_angle_beta	109.458
_cell_angle_gamma	109.458
loop_
_atom_site_label
_atom_site_type_symbol
_atom_site_fract_x
_atom_site_fract_y
_atom_site_fract_z
_atom_site_charge
Mof_Pr	Pr	0.40159	0.35083	0.85048	3.086
Mof_Pr	Pr	0.85048	0.40159	0.35083	3.086
Mof_Pr	Pr	0.35083	0.85048	0.40159	3.086
Mof_Pr	Pr	0.85083	0.90159	0.35048	3.085
Mof_Pr	Pr	0.90159	0.35048	0.85083	3.085
Mof_Pr	Pr	0.35048	0.85083	0.90159	3.085
Mof_Pr	Pr	0.29937	0.29937	0.29937	3.678
Mof_Pr	Pr	0.79937	0.79937	0.79937	3.678
Mof_H 	H 	0.3321	0.4714	0.0127	0.137
Mof_H 	H 	0.3826	0.701	0.206	0.145
Mof_H 	H 	0.6755	0.6739	0.3125	0.147
Mof_H 	H 	0.5073	0.5264	0.378	0.141
Mof_H 	H 	0.5335	0.6664	0.2079	0.045
Mof_H 	H 	0.4631	0.6612	0.1923	0.045
Mof_H 	H 	0.3905	0.5326	0.2198	0.042
Mof_H 	H 	0.3741	0.538	0.154	0.04
Mof_H 	H 	0.5213	0.6273	0.3315	0.044
Mof_H 	H 	0.4993	0.6784	0.3189	0.036
Mof_H 	H 	0.5493	0.5718	0.2417	0.034
Mof_H 	H 	0.4828	0.5201	0.1721	0.023
Mof_H 	H 	0.5206	0.6957	0.1339	0.136
Mof_H 	H 	0.5578	0.728	0.0671	-0.014
Mof_H 	H 	0.5157	0.6491	0.9574	0.117
Mof_H 	H 	0.4399	0.536	0.9153	-0.02
Mof_H 	H 	0.3265	0.3556	0.9499	0.071
Mof_H 	H 	0.3955	0.4	0.0192	0.075
Mof_H 	H 	0.3631	0.371	0.1085	0.099
Mof_H 	H 	0.285	0.3553	0.145	0.014
Mof_H 	H 	0.1864	0.3528	0.0865	0.106
Mof_H 	H 	0.1686	0.3715	0.9968	0.019
Mof_H 	H 	0.2463	0.3855	0.9594	0.094
Mof_H 	H 	0.2829	0.49	0.1657	0.133
Mof_H 	H 	0.1744	0.4614	0.1519	-0.007
Mof_H 	H 	0.1506	0.5431	0.1945	0.111
Mof_H 	H 	0.2317	0.6578	0.2471	-0.006
Mof_H 	H 	0.4184	0.8266	0.2843	0.07
Mof_H 	H 	0.4627	0.8097	0.3322	0.067
Mof_H 	H 	0.5647	0.8288	0.3422	0.118
Mof_H 	H 	0.6439	0.8607	0.3109	-0.01
Mof_H 	H 	0.6159	0.866	0.2127	0.126
Mof_H 	H 	0.5085	0.8452	0.1486	0.008
Mof_H 	H 	0.4299	0.8143	0.1816	0.111
Mof_H 	H 	0.559	0.7421	0.4133	0.148
Mof_H 	H 	0.6356	0.8348	0.5212	-0.025
Mof_H 	H 	0.7471	0.8949	0.5521	0.123
Mof_H 	H 	0.7779	0.8704	0.4693	-0.021
Mof_H 	H 	0.7607	0.726	0.2709	0.067
Mof_H 	H 	0.6937	0.7259	0.2324	0.068
Mof_H 	H 	0.5912	0.5936	0.1261	0.103
Mof_H 	H 	0.5641	0.4837	0.078	0.021
Mof_H 	H 	0.641	0.4531	0.1295	0.102
Mof_H 	H 	0.738	0.5344	0.2308	0.021
Mof_H 	H 	0.7622	0.6452	0.2788	0.092
Mof_H 	H 	0.5118	0.4558	0.1588	0.163
Mof_H 	H 	0.535	0.3694	0.1494	-0.033
Mof_H 	H 	0.5142	0.3156	0.2099	0.131
Mof_H 	H 	0.4691	0.3497	0.2773	-0.032
Mof_H 	H 	0.3762	0.4884	0.3311	0.07
Mof_H 	H 	0.4089	0.4901	0.3996	0.064
Mof_H 	H 	0.3655	0.5774	0.3356	0.106
Mof_H 	H 	0.3985	0.6918	0.3946	-0.001
Mof_H 	H 	0.4884	0.7599	0.5021	0.117
Mof_H 	H 	0.5491	0.7176	0.5524	0.017
Mof_H 	H 	0.5167	0.6047	0.4934	0.106
Mof_H 	H 	0.0127	0.3321	0.4714	0.137
Mof_H 	H 	0.206	0.3826	0.701	0.145
Mof_H 	H 	0.3125	0.6755	0.6739	0.147
Mof_H 	H 	0.378	0.5073	0.5264	0.141
Mof_H 	H 	0.2079	0.5335	0.6664	0.045
Mof_H 	H 	0.1923	0.4631	0.6612	0.045
Mof_H 	H 	0.2198	0.3905	0.5326	0.042
Mof_H 	H 	0.154	0.3741	0.538	0.04
Mof_H 	H 	0.3315	0.5213	0.6273	0.044
Mof_H 	H 	0.3189	0.4993	0.6784	0.036
Mof_H 	H 	0.2417	0.5493	0.5718	0.034
Mof_H 	H 	0.1721	0.4828	0.5201	0.023
Mof_H 	H 	0.1339	0.5206	0.6957	0.136
Mof_H 	H 	0.0671	0.5578	0.728	-0.014
Mof_H 	H 	0.9574	0.5157	0.6491	0.117
Mof_H 	H 	0.9153	0.4399	0.536	-0.02
Mof_H 	H 	0.9499	0.3265	0.3556	0.071
Mof_H 	H 	0.0192	0.3955	0.4	0.075
Mof_H 	H 	0.1085	0.3631	0.371	0.099
Mof_H 	H 	0.145	0.285	0.3553	0.014
Mof_H 	H 	0.0865	0.1864	0.3528	0.106
Mof_H 	H 	0.9968	0.1686	0.3715	0.019
Mof_H 	H 	0.9594	0.2463	0.3855	0.094
Mof_H 	H 	0.1657	0.2829	0.49	0.133
Mof_H 	H 	0.1519	0.1744	0.4614	-0.007
Mof_H 	H 	0.1945	0.1506	0.5431	0.111
Mof_H 	H 	0.2471	0.2317	0.6578	-0.006
Mof_H 	H 	0.2843	0.4184	0.8266	0.07
Mof_H 	H 	0.3322	0.4627	0.8097	0.067
Mof_H 	H 	0.3422	0.5647	0.8288	0.118
Mof_H 	H 	0.3109	0.6439	0.8607	-0.01
Mof_H 	H 	0.2127	0.6159	0.866	0.126
Mof_H 	H 	0.1486	0.5085	0.8452	0.008
Mof_H 	H 	0.1816	0.4299	0.8143	0.111
Mof_H 	H 	0.4133	0.559	0.7421	0.148
Mof_H 	H 	0.5212	0.6356	0.8348	-0.025
Mof_H 	H 	0.5521	0.7471	0.8949	0.123
Mof_H 	H 	0.4693	0.7779	0.8704	-0.021
Mof_H 	H 	0.2709	0.7607	0.726	0.067
Mof_H 	H 	0.2324	0.6937	0.7259	0.068
Mof_H 	H 	0.1261	0.5912	0.5936	0.103
Mof_H 	H 	0.078	0.5641	0.4837	0.021
Mof_H 	H 	0.1295	0.641	0.4531	0.102
Mof_H 	H 	0.2308	0.738	0.5344	0.021
Mof_H 	H 	0.2788	0.7622	0.6452	0.092
Mof_H 	H 	0.1588	0.5118	0.4558	0.163
Mof_H 	H 	0.1494	0.535	0.3694	-0.033
Mof_H 	H 	0.2099	0.5142	0.3156	0.131
Mof_H 	H 	0.2773	0.4691	0.3497	-0.032
Mof_H 	H 	0.3311	0.3762	0.4884	0.07
Mof_H 	H 	0.3996	0.4089	0.4901	0.064
Mof_H 	H 	0.3356	0.3655	0.5774	0.106
Mof_H 	H 	0.3946	0.3985	0.6918	-0.001
Mof_H 	H 	0.5021	0.4884	0.7599	0.117
Mof_H 	H 	0.5524	0.5491	0.7176	0.017
Mof_H 	H 	0.4934	0.5167	0.6047	0.106
Mof_H 	H 	0.4714	0.0127	0.3321	0.137
Mof_H 	H 	0.701	0.206	0.3826	0.145
Mof_H 	H 	0.6739	0.3125	0.6755	0.147
Mof_H 	H 	0.5264	0.378	0.5073	0.141
Mof_H 	H 	0.6664	0.2079	0.5335	0.045
Mof_H 	H 	0.6612	0.1923	0.4631	0.045
Mof_H 	H 	0.5326	0.2198	0.3905	0.042
Mof_H 	H 	0.538	0.154	0.3741	0.04
Mof_H 	H 	0.6273	0.3315	0.5213	0.044
Mof_H 	H 	0.6784	0.3189	0.4993	0.036
Mof_H 	H 	0.5718	0.2417	0.5493	0.034
Mof_H 	H 	0.5201	0.1721	0.4828	0.023
Mof_H 	H 	0.6957	0.1339	0.5206	0.136
Mof_H 	H 	0.728	0.0671	0.5578	-0.014
Mof_H 	H 	0.6491	0.9574	0.5157	0.117
Mof_H 	H 	0.536	0.9153	0.4399	-0.02
Mof_H 	H 	0.3556	0.9499	0.3265	0.071
Mof_H 	H 	0.4	0.0192	0.3955	0.075
Mof_H 	H 	0.371	0.1085	0.3631	0.099
Mof_H 	H 	0.3553	0.145	0.285	0.014
Mof_H 	H 	0.3528	0.0865	0.1864	0.106
Mof_H 	H 	0.3715	0.9968	0.1686	0.019
Mof_H 	H 	0.3855	0.9594	0.2463	0.094
Mof_H 	H 	0.49	0.1657	0.2829	0.133
Mof_H 	H 	0.4614	0.1519	0.1744	-0.007
Mof_H 	H 	0.5431	0.1945	0.1506	0.111
Mof_H 	H 	0.6578	0.2471	0.2317	-0.006
Mof_H 	H 	0.8266	0.2843	0.4184	0.07
Mof_H 	H 	0.8097	0.3322	0.4627	0.067
Mof_H 	H 	0.8288	0.3422	0.5647	0.118
Mof_H 	H 	0.8607	0.3109	0.6439	-0.01
Mof_H 	H 	0.866	0.2127	0.6159	0.126
Mof_H 	H 	0.8452	0.1486	0.5085	0.008
Mof_H 	H 	0.8143	0.1816	0.4299	0.111
Mof_H 	H 	0.7421	0.4133	0.559	0.148
Mof_H 	H 	0.8348	0.5212	0.6356	-0.025
Mof_H 	H 	0.8949	0.5521	0.7471	0.123
Mof_H 	H 	0.8704	0.4693	0.7779	-0.021
Mof_H 	H 	0.726	0.2709	0.7607	0.067
Mof_H 	H 	0.7259	0.2324	0.6937	0.068
Mof_H 	H 	0.5936	0.1261	0.5912	0.103
Mof_H 	H 	0.4837	0.078	0.5641	0.021
Mof_H 	H 	0.4531	0.1295	0.641	0.102
Mof_H 	H 	0.5344	0.2308	0.738	0.021
Mof_H 	H 	0.6452	0.2788	0.7622	0.092
Mof_H 	H 	0.4558	0.1588	0.5118	0.163
Mof_H 	H 	0.3694	0.1494	0.535	-0.033
Mof_H 	H 	0.3156	0.2099	0.5142	0.131
Mof_H 	H 	0.3497	0.2773	0.4691	-0.032
Mof_H 	H 	0.4884	0.3311	0.3762	0.07
Mof_H 	H 	0.4901	0.3996	0.4089	0.064
Mof_H 	H 	0.5774	0.3356	0.3655	0.106
Mof_H 	H 	0.6918	0.3946	0.3985	-0.001
Mof_H 	H 	0.7599	0.5021	0.4884	0.117
Mof_H 	H 	0.7176	0.5524	0.5491	0.017
Mof_H 	H 	0.6047	0.4934	0.5167	0.106
Mof_H 	H 	0.9714	0.8321	0.5127	0.136
Mof_H 	H 	0.201	0.8826	0.706	0.145
Mof_H 	H 	0.1739	0.1755	0.8125	0.147
Mof_H 	H 	0.0264	0.0073	0.878	0.145
Mof_H 	H 	0.1664	0.0335	0.7079	0.046
Mof_H 	H 	0.1612	0.9631	0.6923	0.045
Mof_H 	H 	0.0326	0.8905	0.7198	0.043
Mof_H 	H 	0.038	0.8741	0.654	0.041
Mof_H 	H 	0.1273	0.0213	0.8315	0.043
Mof_H 	H 	0.1784	0.9993	0.8189	0.034
Mof_H 	H 	0.0718	0.0493	0.7417	0.034
Mof_H 	H 	0.0201	0.9828	0.6721	0.023
Mof_H 	H 	0.1957	0.0206	0.6339	0.135
Mof_H 	H 	0.228	0.0578	0.5671	-0.012
Mof_H 	H 	0.1491	0.0157	0.4574	0.115
Mof_H 	H 	0.036	0.9399	0.4153	-0.018
Mof_H 	H 	0.8556	0.8265	0.4499	0.069
Mof_H 	H 	0.9	0.8955	0.5192	0.072
Mof_H 	H 	0.871	0.8631	0.6085	0.096
Mof_H 	H 	0.8553	0.785	0.645	0.017
Mof_H 	H 	0.8528	0.6864	0.5865	0.103
Mof_H 	H 	0.8715	0.6686	0.4968	0.023
Mof_H 	H 	0.8855	0.7463	0.4594	0.091
Mof_H 	H 	0.99	0.7829	0.6657	0.13
Mof_H 	H 	0.9614	0.6744	0.6519	-0.009
Mof_H 	H 	0.0431	0.6506	0.6945	0.112
Mof_H 	H 	0.1578	0.7317	0.7471	-0.006
Mof_H 	H 	0.3266	0.9184	0.7843	0.069
Mof_H 	H 	0.3097	0.9627	0.8322	0.066
Mof_H 	H 	0.3288	0.0647	0.8422	0.117
Mof_H 	H 	0.3607	0.1439	0.8109	-0.01
Mof_H 	H 	0.366	0.1159	0.7127	0.126
Mof_H 	H 	0.3452	0.0085	0.6486	0.008
Mof_H 	H 	0.3143	0.9299	0.6816	0.111
Mof_H 	H 	0.2421	0.059	0.9133	0.147
Mof_H 	H 	0.3348	0.1356	0.0212	-0.023
Mof_H 	H 	0.3949	0.2471	0.0521	0.122
Mof_H 	H 	0.3704	0.2779	0.9693	-0.02
Mof_H 	H 	0.226	0.2607	0.7709	0.068
Mof_H 	H 	0.2259	0.1937	0.7324	0.069
Mof_H 	H 	0.0936	0.0912	0.6261	0.106
Mof_H 	H 	0.9837	0.0641	0.578	0.017
Mof_H 	H 	0.9531	0.141	0.6295	0.105
Mof_H 	H 	0.0344	0.238	0.7308	0.018
Mof_H 	H 	0.1452	0.2622	0.7788	0.095
Mof_H 	H 	0.9558	0.0118	0.6588	0.159
Mof_H 	H 	0.8694	0.035	0.6494	-0.029
Mof_H 	H 	0.8156	0.0142	0.7099	0.127
Mof_H 	H 	0.8497	0.9691	0.7773	-0.029
Mof_H 	H 	0.9884	0.8762	0.8311	0.065
Mof_H 	H 	0.9901	0.9089	0.8996	0.059
Mof_H 	H 	0.0774	0.8655	0.8356	0.109
Mof_H 	H 	0.1918	0.8985	0.8946	-0.006
Mof_H 	H 	0.2599	0.9884	0.0021	0.124
Mof_H 	H 	0.2176	0.0491	0.0524	0.011
Mof_H 	H 	0.1047	0.0167	0.9934	0.112
Mof_H 	H 	0.8321	0.5127	0.9714	0.136
Mof_H 	H 	0.8826	0.706	0.201	0.145
Mof_H 	H 	0.1755	0.8125	0.1739	0.147
Mof_H 	H 	0.0073	0.878	0.0264	0.145
Mof_H 	H 	0.0335	0.7079	0.1664	0.046
Mof_H 	H 	0.9631	0.6923	0.1612	0.045
Mof_H 	H 	0.8905	0.7198	0.0326	0.043
Mof_H 	H 	0.8741	0.654	0.038	0.041
Mof_H 	H 	0.0213	0.8315	0.1273	0.043
Mof_H 	H 	0.9993	0.8189	0.1784	0.034
Mof_H 	H 	0.0493	0.7417	0.0718	0.034
Mof_H 	H 	0.9828	0.6721	0.0201	0.023
Mof_H 	H 	0.0206	0.6339	0.1957	0.135
Mof_H 	H 	0.0578	0.5671	0.228	-0.012
Mof_H 	H 	0.0157	0.4574	0.1491	0.115
Mof_H 	H 	0.9399	0.4153	0.036	-0.018
Mof_H 	H 	0.8265	0.4499	0.8556	0.069
Mof_H 	H 	0.8955	0.5192	0.9	0.072
Mof_H 	H 	0.8631	0.6085	0.871	0.096
Mof_H 	H 	0.785	0.645	0.8553	0.017
Mof_H 	H 	0.6864	0.5865	0.8528	0.103
Mof_H 	H 	0.6686	0.4968	0.8715	0.023
Mof_H 	H 	0.7463	0.4594	0.8855	0.091
Mof_H 	H 	0.7829	0.6657	0.99	0.13
Mof_H 	H 	0.6744	0.6519	0.9614	-0.009
Mof_H 	H 	0.6506	0.6945	0.0431	0.112
Mof_H 	H 	0.7317	0.7471	0.1578	-0.006
Mof_H 	H 	0.9184	0.7843	0.3266	0.069
Mof_H 	H 	0.9627	0.8322	0.3097	0.066
Mof_H 	H 	0.0647	0.8422	0.3288	0.117
Mof_H 	H 	0.1439	0.8109	0.3607	-0.01
Mof_H 	H 	0.1159	0.7127	0.366	0.126
Mof_H 	H 	0.0085	0.6486	0.3452	0.008
Mof_H 	H 	0.9299	0.6816	0.3143	0.111
Mof_H 	H 	0.059	0.9133	0.2421	0.147
Mof_H 	H 	0.1356	0.0212	0.3348	-0.023
Mof_H 	H 	0.2471	0.0521	0.3949	0.122
Mof_H 	H 	0.2779	0.9693	0.3704	-0.02
Mof_H 	H 	0.2607	0.7709	0.226	0.068
Mof_H 	H 	0.1937	0.7324	0.2259	0.069
Mof_H 	H 	0.0912	0.6261	0.0936	0.106
Mof_H 	H 	0.0641	0.578	0.9837	0.017
Mof_H 	H 	0.141	0.6295	0.9531	0.105
Mof_H 	H 	0.238	0.7308	0.0344	0.018
Mof_H 	H 	0.2622	0.7788	0.1452	0.095
Mof_H 	H 	0.0118	0.6588	0.9558	0.159
Mof_H 	H 	0.035	0.6494	0.8694	-0.029
Mof_H 	H 	0.0142	0.7099	0.8156	0.127
Mof_H 	H 	0.9691	0.7773	0.8497	-0.029
Mof_H 	H 	0.8762	0.8311	0.9884	0.065
Mof_H 	H 	0.9089	0.8996	0.9901	0.059
Mof_H 	H 	0.8655	0.8356	0.0774	0.109
Mof_H 	H 	0.8985	0.8946	0.1918	-0.006
Mof_H 	H 	0.9884	0.0021	0.2599	0.124
Mof_H 	H 	0.0491	0.0524	0.2176	0.011
Mof_H 	H 	0.0167	0.9934	0.1047	0.112
Mof_H 	H 	0.5127	0.9714	0.8321	0.136
Mof_H 	H 	0.706	0.201	0.8826	0.145
Mof_H 	H 	0.8125	0.1739	0.1755	0.147
Mof_H 	H 	0.878	0.0264	0.0073	0.145
Mof_H 	H 	0.7079	0.1664	0.0335	0.046
Mof_H 	H 	0.6923	0.1612	0.9631	0.045
Mof_H 	H 	0.7198	0.0326	0.8905	0.043
Mof_H 	H 	0.654	0.038	0.8741	0.041
Mof_H 	H 	0.8315	0.1273	0.0213	0.043
Mof_H 	H 	0.8189	0.1784	0.9993	0.034
Mof_H 	H 	0.7417	0.0718	0.0493	0.034
Mof_H 	H 	0.6721	0.0201	0.9828	0.023
Mof_H 	H 	0.6339	0.1957	0.0206	0.135
Mof_H 	H 	0.5671	0.228	0.0578	-0.012
Mof_H 	H 	0.4574	0.1491	0.0157	0.115
Mof_H 	H 	0.4153	0.036	0.9399	-0.018
Mof_H 	H 	0.4499	0.8556	0.8265	0.069
Mof_H 	H 	0.5192	0.9	0.8955	0.072
Mof_H 	H 	0.6085	0.871	0.8631	0.096
Mof_H 	H 	0.645	0.8553	0.785	0.017
Mof_H 	H 	0.5865	0.8528	0.6864	0.103
Mof_H 	H 	0.4968	0.8715	0.6686	0.023
Mof_H 	H 	0.4594	0.8855	0.7463	0.091
Mof_H 	H 	0.6657	0.99	0.7829	0.13
Mof_H 	H 	0.6519	0.9614	0.6744	-0.009
Mof_H 	H 	0.6945	0.0431	0.6506	0.112
Mof_H 	H 	0.7471	0.1578	0.7317	-0.006
Mof_H 	H 	0.7843	0.3266	0.9184	0.069
Mof_H 	H 	0.8322	0.3097	0.9627	0.066
Mof_H 	H 	0.8422	0.3288	0.0647	0.117
Mof_H 	H 	0.8109	0.3607	0.1439	-0.01
Mof_H 	H 	0.7127	0.366	0.1159	0.126
Mof_H 	H 	0.6486	0.3452	0.0085	0.008
Mof_H 	H 	0.6816	0.3143	0.9299	0.111
Mof_H 	H 	0.9133	0.2421	0.059	0.147
Mof_H 	H 	0.0212	0.3348	0.1356	-0.023
Mof_H 	H 	0.0521	0.3949	0.2471	0.122
Mof_H 	H 	0.9693	0.3704	0.2779	-0.02
Mof_H 	H 	0.7709	0.226	0.2607	0.068
Mof_H 	H 	0.7324	0.2259	0.1937	0.069
Mof_H 	H 	0.6261	0.0936	0.0912	0.106
Mof_H 	H 	0.578	0.9837	0.0641	0.017
Mof_H 	H 	0.6295	0.9531	0.141	0.105
Mof_H 	H 	0.7308	0.0344	0.238	0.018
Mof_H 	H 	0.7788	0.1452	0.2622	0.095
Mof_H 	H 	0.6588	0.9558	0.0118	0.159
Mof_H 	H 	0.6494	0.8694	0.035	-0.029
Mof_H 	H 	0.7099	0.8156	0.0142	0.127
Mof_H 	H 	0.7773	0.8497	0.9691	-0.029
Mof_H 	H 	0.8311	0.9884	0.8762	0.065
Mof_H 	H 	0.8996	0.9901	0.9089	0.059
Mof_H 	H 	0.8356	0.0774	0.8655	0.109
Mof_H 	H 	0.8946	0.1918	0.8985	-0.006
Mof_H 	H 	0.0021	0.2599	0.9884	0.124
Mof_H 	H 	0.0524	0.2176	0.0491	0.011
Mof_H 	H 	0.9934	0.1047	0.0167	0.112
Mof_C 	C 	0.4792	0.6007	0.2271	-0.007
Mof_C 	C 	0.4862	0.6352	0.1889	0.021
Mof_C 	C 	0.4004	0.5636	0.2029	0.025
Mof_C 	C 	0.5201	0.6518	0.307	0.03
Mof_C 	C 	0.5004	0.5492	0.2196	0.056
Mof_C 	C 	0.3895	0.4793	0.9717	0.345
Mof_C 	C 	0.4368	0.5503	0.0004	-0.258
Mof_C 	C 	0.4604	0.5966	0.0649	0.268
Mof_C 	C 	0.505	0.6636	0.0901	-0.265
Mof_C 	C 	0.5267	0.6831	0.0498	0.164
Mof_C 	C 	0.5021	0.6362	0.9848	-0.228
Mof_C 	C 	0.4565	0.5683	0.9594	0.17
Mof_C 	C 	0.3505	0.3928	0.9958	-0.097
Mof_C 	C 	0.3128	0.3806	0.0325	0.131
Mof_C 	C 	0.3237	0.3711	0.086	-0.186
Mof_C 	C 	0.2769	0.3612	0.1076	0.096
Mof_C 	C 	0.2187	0.3605	0.0732	-0.16
Mof_C 	C 	0.2076	0.3707	0.0189	0.081
Mof_C 	C 	0.2542	0.38	0.9969	-0.172
Mof_C 	C 	0.3537	0.7157	0.276	0.307
Mof_C 	C 	0.3052	0.641	0.2396	-0.222
Mof_C 	C 	0.3189	0.5915	0.2151	0.267
Mof_C 	C 	0.2721	0.523	0.1819	-0.264
Mof_C 	C 	0.2074	0.5065	0.1743	0.151
Mof_C 	C 	0.1931	0.555	0.1989	-0.207
Mof_C 	C 	0.2422	0.6244	0.2316	0.137
Mof_C 	C 	0.4401	0.7997	0.2859	-0.124
Mof_C 	C 	0.4901	0.8188	0.2654	0.166
Mof_C 	C 	0.5533	0.8322	0.3034	-0.229
Mof_C 	C 	0.6002	0.8506	0.2843	0.145
Mof_C 	C 	0.5838	0.8546	0.2259	-0.203
Mof_C 	C 	0.5199	0.8417	0.1875	0.125
Mof_C 	C 	0.4733	0.8236	0.2075	-0.213
Mof_C 	C 	0.7261	0.7736	0.3587	0.34
Mof_C 	C 	0.6897	0.7866	0.3968	-0.259
Mof_C 	C 	0.6266	0.743	0.3826	0.328
Mof_C 	C 	0.6045	0.7651	0.4264	-0.314
Mof_C 	C 	0.6501	0.8222	0.4905	0.191
Mof_C 	C 	0.7156	0.8593	0.5082	-0.244
Mof_C 	C 	0.7346	0.8429	0.4594	0.171
Mof_C 	C 	0.7125	0.7045	0.2545	-0.098
Mof_C 	C 	0.6782	0.6295	0.2069	0.131
Mof_C 	C 	0.6206	0.5811	0.1473	-0.18
Mof_C 	C 	0.6045	0.516	0.1181	0.084
Mof_C 	C 	0.6502	0.4976	0.1493	-0.142
Mof_C 	C 	0.708	0.5461	0.2092	0.079
Mof_C 	C 	0.7225	0.6124	0.2382	-0.166
Mof_C 	C 	0.4385	0.4317	0.3075	0.365
Mof_C 	C 	0.4657	0.4233	0.2593	-0.28
Mof_C 	C 	0.4784	0.4552	0.2234	0.374
Mof_C 	C 	0.5037	0.4343	0.183	-0.363
Mof_C 	C 	0.5176	0.3826	0.177	0.222
Mof_C 	C 	0.505	0.3504	0.2128	-0.261
Mof_C 	C 	0.4783	0.3714	0.2536	0.189
Mof_C 	C 	0.4181	0.5104	0.3731	-0.095
Mof_C 	C 	0.4383	0.5821	0.4099	0.141
Mof_C 	C 	0.4024	0.6058	0.3792	-0.197
Mof_C 	C 	0.4221	0.6742	0.4147	0.116
Mof_C 	C 	0.4759	0.7147	0.4785	-0.179
Mof_C 	C 	0.5122	0.6895	0.5088	0.102
Mof_C 	C 	0.4929	0.6223	0.4738	-0.191
Mof_C 	C 	0.2271	0.4792	0.6007	-0.007
Mof_C 	C 	0.1889	0.4862	0.6352	0.021
Mof_C 	C 	0.2029	0.4004	0.5636	0.025
Mof_C 	C 	0.307	0.5201	0.6518	0.03
Mof_C 	C 	0.2196	0.5004	0.5492	0.056
Mof_C 	C 	0.9717	0.3895	0.4793	0.345
Mof_C 	C 	0.0004	0.4368	0.5503	-0.258
Mof_C 	C 	0.0649	0.4604	0.5966	0.268
Mof_C 	C 	0.0901	0.505	0.6636	-0.265
Mof_C 	C 	0.0498	0.5267	0.6831	0.164
Mof_C 	C 	0.9848	0.5021	0.6362	-0.228
Mof_C 	C 	0.9594	0.4565	0.5683	0.17
Mof_C 	C 	0.9958	0.3505	0.3928	-0.097
Mof_C 	C 	0.0325	0.3128	0.3806	0.131
Mof_C 	C 	0.086	0.3237	0.3711	-0.186
Mof_C 	C 	0.1076	0.2769	0.3612	0.096
Mof_C 	C 	0.0732	0.2187	0.3605	-0.16
Mof_C 	C 	0.0189	0.2076	0.3707	0.081
Mof_C 	C 	0.9969	0.2542	0.38	-0.172
Mof_C 	C 	0.276	0.3537	0.7157	0.307
Mof_C 	C 	0.2396	0.3052	0.641	-0.222
Mof_C 	C 	0.2151	0.3189	0.5915	0.267
Mof_C 	C 	0.1819	0.2721	0.523	-0.264
Mof_C 	C 	0.1743	0.2074	0.5065	0.151
Mof_C 	C 	0.1989	0.1931	0.555	-0.207
Mof_C 	C 	0.2316	0.2422	0.6244	0.137
Mof_C 	C 	0.2859	0.4401	0.7997	-0.124
Mof_C 	C 	0.2654	0.4901	0.8188	0.166
Mof_C 	C 	0.3034	0.5533	0.8322	-0.229
Mof_C 	C 	0.2843	0.6002	0.8506	0.145
Mof_C 	C 	0.2259	0.5838	0.8546	-0.203
Mof_C 	C 	0.1875	0.5199	0.8417	0.125
Mof_C 	C 	0.2075	0.4733	0.8236	-0.213
Mof_C 	C 	0.3587	0.7261	0.7736	0.34
Mof_C 	C 	0.3968	0.6897	0.7866	-0.259
Mof_C 	C 	0.3826	0.6266	0.743	0.328
Mof_C 	C 	0.4264	0.6045	0.7651	-0.314
Mof_C 	C 	0.4905	0.6501	0.8222	0.191
Mof_C 	C 	0.5082	0.7156	0.8593	-0.244
Mof_C 	C 	0.4594	0.7346	0.8429	0.171
Mof_C 	C 	0.2545	0.7125	0.7045	-0.098
Mof_C 	C 	0.2069	0.6782	0.6295	0.131
Mof_C 	C 	0.1473	0.6206	0.5811	-0.18
Mof_C 	C 	0.1181	0.6045	0.516	0.084
Mof_C 	C 	0.1493	0.6502	0.4976	-0.142
Mof_C 	C 	0.2092	0.708	0.5461	0.079
Mof_C 	C 	0.2382	0.7225	0.6124	-0.166
Mof_C 	C 	0.3075	0.4385	0.4317	0.365
Mof_C 	C 	0.2593	0.4657	0.4233	-0.28
Mof_C 	C 	0.2234	0.4784	0.4552	0.374
Mof_C 	C 	0.183	0.5037	0.4343	-0.363
Mof_C 	C 	0.177	0.5176	0.3826	0.222
Mof_C 	C 	0.2128	0.505	0.3504	-0.261
Mof_C 	C 	0.2536	0.4783	0.3714	0.189
Mof_C 	C 	0.3731	0.4181	0.5104	-0.095
Mof_C 	C 	0.4099	0.4383	0.5821	0.141
Mof_C 	C 	0.3792	0.4024	0.6058	-0.197
Mof_C 	C 	0.4147	0.4221	0.6742	0.116
Mof_C 	C 	0.4785	0.4759	0.7147	-0.179
Mof_C 	C 	0.5088	0.5122	0.6895	0.102
Mof_C 	C 	0.4738	0.4929	0.6223	-0.191
Mof_C 	C 	0.6007	0.2271	0.4792	-0.007
Mof_C 	C 	0.6352	0.1889	0.4862	0.021
Mof_C 	C 	0.5636	0.2029	0.4004	0.025
Mof_C 	C 	0.6518	0.307	0.5201	0.03
Mof_C 	C 	0.5492	0.2196	0.5004	0.056
Mof_C 	C 	0.4793	0.9717	0.3895	0.345
Mof_C 	C 	0.5503	0.0004	0.4368	-0.258
Mof_C 	C 	0.5966	0.0649	0.4604	0.268
Mof_C 	C 	0.6636	0.0901	0.505	-0.265
Mof_C 	C 	0.6831	0.0498	0.5267	0.164
Mof_C 	C 	0.6362	0.9848	0.5021	-0.228
Mof_C 	C 	0.5683	0.9594	0.4565	0.17
Mof_C 	C 	0.3928	0.9958	0.3505	-0.097
Mof_C 	C 	0.3806	0.0325	0.3128	0.131
Mof_C 	C 	0.3711	0.086	0.3237	-0.186
Mof_C 	C 	0.3612	0.1076	0.2769	0.096
Mof_C 	C 	0.3605	0.0732	0.2187	-0.16
Mof_C 	C 	0.3707	0.0189	0.2076	0.081
Mof_C 	C 	0.38	0.9969	0.2542	-0.172
Mof_C 	C 	0.7157	0.276	0.3537	0.307
Mof_C 	C 	0.641	0.2396	0.3052	-0.222
Mof_C 	C 	0.5915	0.2151	0.3189	0.267
Mof_C 	C 	0.523	0.1819	0.2721	-0.264
Mof_C 	C 	0.5065	0.1743	0.2074	0.151
Mof_C 	C 	0.555	0.1989	0.1931	-0.207
Mof_C 	C 	0.6244	0.2316	0.2422	0.137
Mof_C 	C 	0.7997	0.2859	0.4401	-0.124
Mof_C 	C 	0.8188	0.2654	0.4901	0.166
Mof_C 	C 	0.8322	0.3034	0.5533	-0.229
Mof_C 	C 	0.8506	0.2843	0.6002	0.145
Mof_C 	C 	0.8546	0.2259	0.5838	-0.203
Mof_C 	C 	0.8417	0.1875	0.5199	0.125
Mof_C 	C 	0.8236	0.2075	0.4733	-0.213
Mof_C 	C 	0.7736	0.3587	0.7261	0.34
Mof_C 	C 	0.7866	0.3968	0.6897	-0.259
Mof_C 	C 	0.743	0.3826	0.6266	0.328
Mof_C 	C 	0.7651	0.4264	0.6045	-0.314
Mof_C 	C 	0.8222	0.4905	0.6501	0.191
Mof_C 	C 	0.8593	0.5082	0.7156	-0.244
Mof_C 	C 	0.8429	0.4594	0.7346	0.171
Mof_C 	C 	0.7045	0.2545	0.7125	-0.098
Mof_C 	C 	0.6295	0.2069	0.6782	0.131
Mof_C 	C 	0.5811	0.1473	0.6206	-0.18
Mof_C 	C 	0.516	0.1181	0.6045	0.084
Mof_C 	C 	0.4976	0.1493	0.6502	-0.142
Mof_C 	C 	0.5461	0.2092	0.708	0.079
Mof_C 	C 	0.6124	0.2382	0.7225	-0.166
Mof_C 	C 	0.4317	0.3075	0.4385	0.365
Mof_C 	C 	0.4233	0.2593	0.4657	-0.28
Mof_C 	C 	0.4552	0.2234	0.4784	0.374
Mof_C 	C 	0.4343	0.183	0.5037	-0.363
Mof_C 	C 	0.3826	0.177	0.5176	0.222
Mof_C 	C 	0.3504	0.2128	0.505	-0.261
Mof_C 	C 	0.3714	0.2536	0.4783	0.189
Mof_C 	C 	0.5104	0.3731	0.4181	-0.095
Mof_C 	C 	0.5821	0.4099	0.4383	0.141
Mof_C 	C 	0.6058	0.3792	0.4024	-0.197
Mof_C 	C 	0.6742	0.4147	0.4221	0.116
Mof_C 	C 	0.7147	0.4785	0.4759	-0.179
Mof_C 	C 	0.6895	0.5088	0.5122	0.102
Mof_C 	C 	0.6223	0.4738	0.4929	-0.191
Mof_C 	C 	0.1007	0.9792	0.7271	-0.009
Mof_C 	C 	0.1352	0.9862	0.6889	0.019
Mof_C 	C 	0.0636	0.9004	0.7029	0.025
Mof_C 	C 	0.1518	0.0201	0.807	0.033
Mof_C 	C 	0.0492	0.0004	0.7196	0.057
Mof_C 	C 	0.9793	0.8895	0.4717	0.344
Mof_C 	C 	0.0503	0.9368	0.5004	-0.255
Mof_C 	C 	0.0966	0.9604	0.5649	0.265
Mof_C 	C 	0.1636	0.005	0.5901	-0.26
Mof_C 	C 	0.1831	0.0267	0.5498	0.157
Mof_C 	C 	0.1362	0.0021	0.4848	-0.221
Mof_C 	C 	0.0683	0.9565	0.4594	0.167
Mof_C 	C 	0.8928	0.8505	0.4958	-0.09
Mof_C 	C 	0.8806	0.8128	0.5325	0.122
Mof_C 	C 	0.8711	0.8237	0.586	-0.178
Mof_C 	C 	0.8612	0.7769	0.6076	0.088
Mof_C 	C 	0.8605	0.7187	0.5732	-0.151
Mof_C 	C 	0.8707	0.7076	0.5189	0.071
Mof_C 	C 	0.88	0.7542	0.4969	-0.163
Mof_C 	C 	0.2157	0.8537	0.776	0.307
Mof_C 	C 	0.141	0.8052	0.7396	-0.222
Mof_C 	C 	0.0915	0.8189	0.7151	0.266
Mof_C 	C 	0.023	0.7721	0.6819	-0.261
Mof_C 	C 	0.0065	0.7074	0.6743	0.154
Mof_C 	C 	0.055	0.6931	0.6989	-0.209
Mof_C 	C 	0.1244	0.7422	0.7316	0.138
Mof_C 	C 	0.2997	0.9401	0.7859	-0.123
Mof_C 	C 	0.3188	0.9901	0.7654	0.164
Mof_C 	C 	0.3322	0.0533	0.8034	-0.226
Mof_C 	C 	0.3506	0.1002	0.7843	0.144
Mof_C 	C 	0.3546	0.0838	0.7259	-0.202
Mof_C 	C 	0.3417	0.0199	0.6875	0.126
Mof_C 	C 	0.3236	0.9733	0.7075	-0.213
Mof_C 	C 	0.2736	0.2261	0.8587	0.34
Mof_C 	C 	0.2866	0.1897	0.8968	-0.258
Mof_C 	C 	0.243	0.1266	0.8826	0.327
Mof_C 	C 	0.2651	0.1045	0.9264	-0.312
Mof_C 	C 	0.3222	0.1501	0.9905	0.187
Mof_C 	C 	0.3593	0.2156	0.0082	-0.24
Mof_C 	C 	0.3429	0.2346	0.9594	0.168
Mof_C 	C 	0.2045	0.2125	0.7545	-0.101
Mof_C 	C 	0.1295	0.1782	0.7069	0.137
Mof_C 	C 	0.0811	0.1206	0.6473	-0.188
Mof_C 	C 	0.016	0.1045	0.6181	0.095
Mof_C 	C 	0.9976	0.1502	0.6493	-0.152
Mof_C 	C 	0.0461	0.208	0.7092	0.088
Mof_C 	C 	0.1124	0.2225	0.7382	-0.173
Mof_C 	C 	0.9317	0.9385	0.8075	0.363
Mof_C 	C 	0.9233	0.9657	0.7593	-0.273
Mof_C 	C 	0.9552	0.9784	0.7234	0.361
Mof_C 	C 	0.9343	0.0037	0.683	-0.349
Mof_C 	C 	0.8826	0.0176	0.677	0.21
Mof_C 	C 	0.8504	0.005	0.7128	-0.248
Mof_C 	C 	0.8714	0.9783	0.7536	0.177
Mof_C 	C 	0.0104	0.9181	0.8731	-0.085
Mof_C 	C 	0.0821	0.9383	0.9099	0.146
Mof_C 	C 	0.1058	0.9024	0.8792	-0.205
Mof_C 	C 	0.1742	0.9221	0.9147	0.129
Mof_C 	C 	0.2147	0.9759	0.9785	-0.198
Mof_C 	C 	0.1895	0.0122	0.0088	0.119
Mof_C 	C 	0.1223	0.9929	0.9738	-0.205
Mof_C 	C 	0.9792	0.7271	0.1007	-0.009
Mof_C 	C 	0.9862	0.6889	0.1352	0.019
Mof_C 	C 	0.9004	0.7029	0.0636	0.025
Mof_C 	C 	0.0201	0.807	0.1518	0.033
Mof_C 	C 	0.0004	0.7196	0.0492	0.057
Mof_C 	C 	0.8895	0.4717	0.9793	0.344
Mof_C 	C 	0.9368	0.5004	0.0503	-0.255
Mof_C 	C 	0.9604	0.5649	0.0966	0.265
Mof_C 	C 	0.005	0.5901	0.1636	-0.26
Mof_C 	C 	0.0267	0.5498	0.1831	0.157
Mof_C 	C 	0.0021	0.4848	0.1362	-0.221
Mof_C 	C 	0.9565	0.4594	0.0683	0.167
Mof_C 	C 	0.8505	0.4958	0.8928	-0.09
Mof_C 	C 	0.8128	0.5325	0.8806	0.122
Mof_C 	C 	0.8237	0.586	0.8711	-0.178
Mof_C 	C 	0.7769	0.6076	0.8612	0.088
Mof_C 	C 	0.7187	0.5732	0.8605	-0.151
Mof_C 	C 	0.7076	0.5189	0.8707	0.071
Mof_C 	C 	0.7542	0.4969	0.88	-0.163
Mof_C 	C 	0.8537	0.776	0.2157	0.307
Mof_C 	C 	0.8052	0.7396	0.141	-0.222
Mof_C 	C 	0.8189	0.7151	0.0915	0.266
Mof_C 	C 	0.7721	0.6819	0.023	-0.261
Mof_C 	C 	0.7074	0.6743	0.0065	0.154
Mof_C 	C 	0.6931	0.6989	0.055	-0.209
Mof_C 	C 	0.7422	0.7316	0.1244	0.138
Mof_C 	C 	0.9401	0.7859	0.2997	-0.123
Mof_C 	C 	0.9901	0.7654	0.3188	0.164
Mof_C 	C 	0.0533	0.8034	0.3322	-0.226
Mof_C 	C 	0.1002	0.7843	0.3506	0.144
Mof_C 	C 	0.0838	0.7259	0.3546	-0.202
Mof_C 	C 	0.0199	0.6875	0.3417	0.126
Mof_C 	C 	0.9733	0.7075	0.3236	-0.213
Mof_C 	C 	0.2261	0.8587	0.2736	0.34
Mof_C 	C 	0.1897	0.8968	0.2866	-0.258
Mof_C 	C 	0.1266	0.8826	0.243	0.327
Mof_C 	C 	0.1045	0.9264	0.2651	-0.312
Mof_C 	C 	0.1501	0.9905	0.3222	0.187
Mof_C 	C 	0.2156	0.0082	0.3593	-0.24
Mof_C 	C 	0.2346	0.9594	0.3429	0.168
Mof_C 	C 	0.2125	0.7545	0.2045	-0.101
Mof_C 	C 	0.1782	0.7069	0.1295	0.137
Mof_C 	C 	0.1206	0.6473	0.0811	-0.188
Mof_C 	C 	0.1045	0.6181	0.016	0.095
Mof_C 	C 	0.1502	0.6493	0.9976	-0.152
Mof_C 	C 	0.208	0.7092	0.0461	0.088
Mof_C 	C 	0.2225	0.7382	0.1124	-0.173
Mof_C 	C 	0.9385	0.8075	0.9317	0.363
Mof_C 	C 	0.9657	0.7593	0.9233	-0.273
Mof_C 	C 	0.9784	0.7234	0.9552	0.361
Mof_C 	C 	0.0037	0.683	0.9343	-0.349
Mof_C 	C 	0.0176	0.677	0.8826	0.21
Mof_C 	C 	0.005	0.7128	0.8504	-0.248
Mof_C 	C 	0.9783	0.7536	0.8714	0.177
Mof_C 	C 	0.9181	0.8731	0.0104	-0.085
Mof_C 	C 	0.9383	0.9099	0.0821	0.146
Mof_C 	C 	0.9024	0.8792	0.1058	-0.205
Mof_C 	C 	0.9221	0.9147	0.1742	0.129
Mof_C 	C 	0.9759	0.9785	0.2147	-0.198
Mof_C 	C 	0.0122	0.0088	0.1895	0.119
Mof_C 	C 	0.9929	0.9738	0.1223	-0.205
Mof_C 	C 	0.7271	0.1007	0.9792	-0.009
Mof_C 	C 	0.6889	0.1352	0.9862	0.019
Mof_C 	C 	0.7029	0.0636	0.9004	0.025
Mof_C 	C 	0.807	0.1518	0.0201	0.033
Mof_C 	C 	0.7196	0.0492	0.0004	0.057
Mof_C 	C 	0.4717	0.9793	0.8895	0.344
Mof_C 	C 	0.5004	0.0503	0.9368	-0.255
Mof_C 	C 	0.5649	0.0966	0.9604	0.265
Mof_C 	C 	0.5901	0.1636	0.005	-0.26
Mof_C 	C 	0.5498	0.1831	0.0267	0.157
Mof_C 	C 	0.4848	0.1362	0.0021	-0.221
Mof_C 	C 	0.4594	0.0683	0.9565	0.167
Mof_C 	C 	0.4958	0.8928	0.8505	-0.09
Mof_C 	C 	0.5325	0.8806	0.8128	0.122
Mof_C 	C 	0.586	0.8711	0.8237	-0.178
Mof_C 	C 	0.6076	0.8612	0.7769	0.088
Mof_C 	C 	0.5732	0.8605	0.7187	-0.151
Mof_C 	C 	0.5189	0.8707	0.7076	0.071
Mof_C 	C 	0.4969	0.88	0.7542	-0.163
Mof_C 	C 	0.776	0.2157	0.8537	0.307
Mof_C 	C 	0.7396	0.141	0.8052	-0.222
Mof_C 	C 	0.7151	0.0915	0.8189	0.266
Mof_C 	C 	0.6819	0.023	0.7721	-0.261
Mof_C 	C 	0.6743	0.0065	0.7074	0.154
Mof_C 	C 	0.6989	0.055	0.6931	-0.209
Mof_C 	C 	0.7316	0.1244	0.7422	0.138
Mof_C 	C 	0.7859	0.2997	0.9401	-0.123
Mof_C 	C 	0.7654	0.3188	0.9901	0.164
Mof_C 	C 	0.8034	0.3322	0.0533	-0.226
Mof_C 	C 	0.7843	0.3506	0.1002	0.144
Mof_C 	C 	0.7259	0.3546	0.0838	-0.202
Mof_C 	C 	0.6875	0.3417	0.0199	0.126
Mof_C 	C 	0.7075	0.3236	0.9733	-0.213
Mof_C 	C 	0.8587	0.2736	0.2261	0.34
Mof_C 	C 	0.8968	0.2866	0.1897	-0.258
Mof_C 	C 	0.8826	0.243	0.1266	0.327
Mof_C 	C 	0.9264	0.2651	0.1045	-0.312
Mof_C 	C 	0.9905	0.3222	0.1501	0.187
Mof_C 	C 	0.0082	0.3593	0.2156	-0.24
Mof_C 	C 	0.9594	0.3429	0.2346	0.168
Mof_C 	C 	0.7545	0.2045	0.2125	-0.101
Mof_C 	C 	0.7069	0.1295	0.1782	0.137
Mof_C 	C 	0.6473	0.0811	0.1206	-0.188
Mof_C 	C 	0.6181	0.016	0.1045	0.095
Mof_C 	C 	0.6493	0.9976	0.1502	-0.152
Mof_C 	C 	0.7092	0.0461	0.208	0.088
Mof_C 	C 	0.7382	0.1124	0.2225	-0.173
Mof_C 	C 	0.8075	0.9317	0.9385	0.363
Mof_C 	C 	0.7593	0.9233	0.9657	-0.273
Mof_C 	C 	0.7234	0.9552	0.9784	0.361
Mof_C 	C 	0.683	0.9343	0.0037	-0.349
Mof_C 	C 	0.677	0.8826	0.0176	0.21
Mof_C 	C 	0.7128	0.8504	0.005	-0.248
Mof_C 	C 	0.7536	0.8714	0.9783	0.177
Mof_C 	C 	0.8731	0.0104	0.9181	-0.085
Mof_C 	C 	0.9099	0.0821	0.9383	0.146
Mof_C 	C 	0.8792	0.1058	0.9024	-0.205
Mof_C 	C 	0.9147	0.1742	0.9221	0.129
Mof_C 	C 	0.9785	0.2147	0.9759	-0.198
Mof_C 	C 	0.0088	0.1895	0.0122	0.119
Mof_C 	C 	0.9738	0.1223	0.9929	-0.205
Mof_N 	N 	0.3526	0.4533	0.9971	-0.233
Mof_N 	N 	0.3894	0.7291	0.2437	-0.218
Mof_N 	N 	0.6983	0.7084	0.3107	-0.232
Mof_N 	N 	0.4653	0.4964	0.3576	-0.23
Mof_N 	N 	0.5112	0.4645	0.8762	0.071
Mof_N 	N 	0.3913	0.2547	0.7361	0.058
Mof_N 	N 	0.4872	0.3391	0.9491	0.075
Mof_N 	N 	0.2048	0.3056	0.2122	0.083
Mof_N 	N 	0.9971	0.3526	0.4533	-0.233
Mof_N 	N 	0.2437	0.3894	0.7291	-0.218
Mof_N 	N 	0.3107	0.6983	0.7084	-0.232
Mof_N 	N 	0.3576	0.4653	0.4964	-0.23
Mof_N 	N 	0.8762	0.5112	0.4645	0.071
Mof_N 	N 	0.7361	0.3913	0.2547	0.058
Mof_N 	N 	0.9491	0.4872	0.3391	0.075
Mof_N 	N 	0.2122	0.2048	0.3056	0.083
Mof_N 	N 	0.4533	0.9971	0.3526	-0.233
Mof_N 	N 	0.7291	0.2437	0.3894	-0.218
Mof_N 	N 	0.7084	0.3107	0.6983	-0.232
Mof_N 	N 	0.4964	0.3576	0.4653	-0.23
Mof_N 	N 	0.4645	0.8762	0.5112	0.071
Mof_N 	N 	0.2547	0.7361	0.3913	0.058
Mof_N 	N 	0.3391	0.9491	0.4872	0.075
Mof_N 	N 	0.3056	0.2122	0.2048	0.083
Mof_N 	N 	0.9533	0.8526	0.4971	-0.233
Mof_N 	N 	0.2291	0.8894	0.7437	-0.218
Mof_N 	N 	0.2084	0.1983	0.8107	-0.232
Mof_N 	N 	0.9964	0.9653	0.8576	-0.235
Mof_N 	N 	0.9645	0.0112	0.3762	0.071
Mof_N 	N 	0.7547	0.8913	0.2361	0.058
Mof_N 	N 	0.8391	0.9872	0.4491	0.074
Mof_N 	N 	0.8056	0.7048	0.7122	0.083
Mof_N 	N 	0.8526	0.4971	0.9533	-0.233
Mof_N 	N 	0.8894	0.7437	0.2291	-0.218
Mof_N 	N 	0.1983	0.8107	0.2084	-0.232
Mof_N 	N 	0.9653	0.8576	0.9964	-0.235
Mof_N 	N 	0.0112	0.3762	0.9645	0.071
Mof_N 	N 	0.8913	0.2361	0.7547	0.058
Mof_N 	N 	0.9872	0.4491	0.8391	0.074
Mof_N 	N 	0.7048	0.7122	0.8056	0.083
Mof_N 	N 	0.4971	0.9533	0.8526	-0.233
Mof_N 	N 	0.7437	0.2291	0.8894	-0.218
Mof_N 	N 	0.8107	0.2084	0.1983	-0.232
Mof_N 	N 	0.8576	0.9964	0.9653	-0.235
Mof_N 	N 	0.3762	0.9645	0.0112	0.071
Mof_N 	N 	0.2361	0.7547	0.8913	0.058
Mof_N 	N 	0.4491	0.8391	0.9872	0.074
Mof_N 	N 	0.7122	0.8056	0.7048	0.083
Mof_O 	O 	0.4585	0.5885	0.1196	-0.243
Mof_O 	O 	0.3836	0.6133	0.2282	-0.253
Mof_O 	O 	0.5868	0.6942	0.3221	-0.281
Mof_O 	O 	0.4791	0.5091	0.2465	-0.307
Mof_O 	O 	0.3888	0.4265	0.9247	-0.584
Mof_O 	O 	0.3435	0.7683	0.3071	-0.54
Mof_O 	O 	0.7804	0.8168	0.3584	-0.585
Mof_O 	O 	0.391	0.3885	0.3139	-0.614
Mof_O 	O 	0.5207	0.432	0.9043	-0.381
Mof_O 	O 	0.4517	0.4527	0.8413	-0.386
Mof_O 	O 	0.5576	0.524	0.8999	-0.12
Mof_O 	O 	0.3412	0.2307	0.7424	-0.326
Mof_O 	O 	0.4265	0.3181	0.7605	-0.404
Mof_O 	O 	0.3966	0.2129	0.6937	-0.123
Mof_O 	O 	0.4692	0.3089	0.889	-0.455
Mof_O 	O 	0.4621	0.3714	0.9728	-0.325
Mof_O 	O 	0.5201	0.3224	0.9878	-0.114
Mof_O 	O 	0.2615	0.3554	0.2467	-0.47
Mof_O 	O 	0.19	0.2627	0.2321	-0.486
Mof_O 	O 	0.1589	0.3156	0.1818	-0.106
Mof_O 	O 	0.1196	0.4585	0.5885	-0.243
Mof_O 	O 	0.2282	0.3836	0.6133	-0.253
Mof_O 	O 	0.3221	0.5868	0.6942	-0.281
Mof_O 	O 	0.2465	0.4791	0.5091	-0.307
Mof_O 	O 	0.9247	0.3888	0.4265	-0.584
Mof_O 	O 	0.3071	0.3435	0.7683	-0.54
Mof_O 	O 	0.3584	0.7804	0.8168	-0.585
Mof_O 	O 	0.3139	0.391	0.3885	-0.614
Mof_O 	O 	0.9043	0.5207	0.432	-0.381
Mof_O 	O 	0.8413	0.4517	0.4527	-0.386
Mof_O 	O 	0.8999	0.5576	0.524	-0.12
Mof_O 	O 	0.7424	0.3412	0.2307	-0.326
Mof_O 	O 	0.7605	0.4265	0.3181	-0.404
Mof_O 	O 	0.6937	0.3966	0.2129	-0.123
Mof_O 	O 	0.889	0.4692	0.3089	-0.455
Mof_O 	O 	0.9728	0.4621	0.3714	-0.325
Mof_O 	O 	0.9878	0.5201	0.3224	-0.114
Mof_O 	O 	0.2467	0.2615	0.3554	-0.47
Mof_O 	O 	0.2321	0.19	0.2627	-0.486
Mof_O 	O 	0.1818	0.1589	0.3156	-0.106
Mof_O 	O 	0.5885	0.1196	0.4585	-0.243
Mof_O 	O 	0.6133	0.2282	0.3836	-0.253
Mof_O 	O 	0.6942	0.3221	0.5868	-0.281
Mof_O 	O 	0.5091	0.2465	0.4791	-0.307
Mof_O 	O 	0.4265	0.9247	0.3888	-0.584
Mof_O 	O 	0.7683	0.3071	0.3435	-0.54
Mof_O 	O 	0.8168	0.3584	0.7804	-0.585
Mof_O 	O 	0.3885	0.3139	0.391	-0.614
Mof_O 	O 	0.432	0.9043	0.5207	-0.381
Mof_O 	O 	0.4527	0.8413	0.4517	-0.386
Mof_O 	O 	0.524	0.8999	0.5576	-0.12
Mof_O 	O 	0.2307	0.7424	0.3412	-0.326
Mof_O 	O 	0.3181	0.7605	0.4265	-0.404
Mof_O 	O 	0.2129	0.6937	0.3966	-0.123
Mof_O 	O 	0.3089	0.889	0.4692	-0.455
Mof_O 	O 	0.3714	0.9728	0.4621	-0.325
Mof_O 	O 	0.3224	0.9878	0.5201	-0.114
Mof_O 	O 	0.3554	0.2467	0.2615	-0.47
Mof_O 	O 	0.2627	0.2321	0.19	-0.486
Mof_O 	O 	0.3156	0.1818	0.1589	-0.106
Mof_O 	O 	0.0885	0.9585	0.6196	-0.242
Mof_O 	O 	0.1133	0.8836	0.7282	-0.253
Mof_O 	O 	0.1942	0.0868	0.8221	-0.281
Mof_O 	O 	0.0091	0.9791	0.7465	-0.303
Mof_O 	O 	0.9265	0.8888	0.4247	-0.584
Mof_O 	O 	0.2683	0.8435	0.8071	-0.54
Mof_O 	O 	0.3168	0.2804	0.8584	-0.585
Mof_O 	O 	0.8885	0.891	0.8139	-0.613
Mof_O 	O 	0.932	0.0207	0.4043	-0.38
Mof_O 	O 	0.9527	0.9517	0.3413	-0.387
Mof_O 	O 	0.024	0.0576	0.3999	-0.12
Mof_O 	O 	0.7307	0.8412	0.2424	-0.326
Mof_O 	O 	0.8181	0.9265	0.2605	-0.404
Mof_O 	O 	0.7129	0.8966	0.1937	-0.123
Mof_O 	O 	0.8089	0.9692	0.389	-0.456
Mof_O 	O 	0.8714	0.9621	0.4728	-0.325
Mof_O 	O 	0.8224	0.0201	0.4878	-0.112
Mof_O 	O 	0.8554	0.7615	0.7467	-0.47
Mof_O 	O 	0.7627	0.69	0.7321	-0.486
Mof_O 	O 	0.8156	0.6589	0.6818	-0.107
Mof_O 	O 	0.9585	0.6196	0.0885	-0.242
Mof_O 	O 	0.8836	0.7282	0.1133	-0.253
Mof_O 	O 	0.0868	0.8221	0.1942	-0.281
Mof_O 	O 	0.9791	0.7465	0.0091	-0.303
Mof_O 	O 	0.8888	0.4247	0.9265	-0.584
Mof_O 	O 	0.8435	0.8071	0.2683	-0.54
Mof_O 	O 	0.2804	0.8584	0.3168	-0.585
Mof_O 	O 	0.891	0.8139	0.8885	-0.613
Mof_O 	O 	0.0207	0.4043	0.932	-0.38
Mof_O 	O 	0.9517	0.3413	0.9527	-0.387
Mof_O 	O 	0.0576	0.3999	0.024	-0.12
Mof_O 	O 	0.8412	0.2424	0.7307	-0.326
Mof_O 	O 	0.9265	0.2605	0.8181	-0.404
Mof_O 	O 	0.8966	0.1937	0.7129	-0.123
Mof_O 	O 	0.9692	0.389	0.8089	-0.456
Mof_O 	O 	0.9621	0.4728	0.8714	-0.325
Mof_O 	O 	0.0201	0.4878	0.8224	-0.112
Mof_O 	O 	0.7615	0.7467	0.8554	-0.47
Mof_O 	O 	0.69	0.7321	0.7627	-0.486
Mof_O 	O 	0.6589	0.6818	0.8156	-0.107
Mof_O 	O 	0.6196	0.0885	0.9585	-0.242
Mof_O 	O 	0.7282	0.1133	0.8836	-0.253
Mof_O 	O 	0.8221	0.1942	0.0868	-0.281
Mof_O 	O 	0.7465	0.0091	0.9791	-0.303
Mof_O 	O 	0.4247	0.9265	0.8888	-0.584
Mof_O 	O 	0.8071	0.2683	0.8435	-0.54
Mof_O 	O 	0.8584	0.3168	0.2804	-0.585
Mof_O 	O 	0.8139	0.8885	0.891	-0.613
Mof_O 	O 	0.4043	0.932	0.0207	-0.38
Mof_O 	O 	0.3413	0.9527	0.9517	-0.387
Mof_O 	O 	0.3999	0.024	0.0576	-0.12
Mof_O 	O 	0.2424	0.7307	0.8412	-0.326
Mof_O 	O 	0.2605	0.8181	0.9265	-0.404
Mof_O 	O 	0.1937	0.7129	0.8966	-0.123
Mof_O 	O 	0.389	0.8089	0.9692	-0.456
Mof_O 	O 	0.4728	0.8714	0.9621	-0.325
Mof_O 	O 	0.4878	0.8224	0.0201	-0.112
Mof_O 	O 	0.7467	0.8554	0.7615	-0.47
Mof_O 	O 	0.7321	0.7627	0.69	-0.486
Mof_O 	O 	0.6818	0.8156	0.6589	-0.107
_end
