data_functionalizedCrystal
_audit_creation_method	'EQeq! by Chris Wilmer'
_symmetry_space_group_name_H-M	'P1'
_symmetry_Int_Tables_number	1
_symmetry_cell_setting	triclinic
loop_
_symmetry_equiv_pos_as_xyz
  x,y,z
_cell_length_a	12.8563
_cell_length_b	12.8563
_cell_length_c	12.8563
_cell_angle_alpha	90
_cell_angle_beta	90
_cell_angle_gamma	90
loop_
_atom_site_label
_atom_site_type_symbol
_atom_site_fract_x
_atom_site_fract_y
_atom_site_fract_z
_atom_site_charge
Mof_N 	N 	0.7242	0.4812	0.0335	-0.045
Mof_N 	N 	0.6419	0.4392	0.0446	-0.182
Mof_N 	N 	0.8069	0.5159	0.027	-0.183
Mof_N 	N 	0.7758	0.5188	0.5335	-0.014
Mof_N 	N 	0.8581	0.5608	0.5446	-0.087
Mof_N 	N 	0.6931	0.4841	0.527	-0.265
Mof_N 	N 	0.2758	0.9812	0.4665	0.078
Mof_N 	N 	0.3581	0.9392	0.4554	-0.117
Mof_N 	N 	0.1931	0.0159	0.473	-0.329
Mof_N 	N 	0.2242	0.0188	0.9665	-0.11
Mof_N 	N 	0.1419	0.0608	0.9554	-0.078
Mof_N 	N 	0.3069	0.9841	0.973	-0.007
Mof_N 	N 	0.0335	0.7242	0.4812	-0.044
Mof_N 	N 	0.0446	0.6419	0.4392	-0.182
Mof_N 	N 	0.027	0.8069	0.5159	-0.183
Mof_N 	N 	0.5335	0.7758	0.5188	-0.014
Mof_N 	N 	0.5446	0.8581	0.5608	-0.087
Mof_N 	N 	0.527	0.6931	0.4841	-0.265
Mof_N 	N 	0.4665	0.2758	0.9812	0.078
Mof_N 	N 	0.4554	0.3581	0.9392	-0.117
Mof_N 	N 	0.473	0.1931	0.0159	-0.329
Mof_N 	N 	0.9665	0.2242	0.0188	-0.11
Mof_N 	N 	0.9554	0.1419	0.0608	-0.078
Mof_N 	N 	0.973	0.3069	0.9841	-0.007
Mof_N 	N 	0.4812	0.0335	0.7242	-0.044
Mof_N 	N 	0.4392	0.0446	0.6419	-0.182
Mof_N 	N 	0.5159	0.027	0.8069	-0.183
Mof_N 	N 	0.5188	0.5335	0.7758	-0.014
Mof_N 	N 	0.5608	0.5446	0.8581	-0.087
Mof_N 	N 	0.4841	0.527	0.6931	-0.265
Mof_N 	N 	0.9812	0.4665	0.2758	0.078
Mof_N 	N 	0.9392	0.4554	0.3581	-0.117
Mof_N 	N 	0.0159	0.473	0.1931	-0.329
Mof_N 	N 	0.0188	0.9665	0.2242	-0.11
Mof_N 	N 	0.0608	0.9554	0.1419	-0.078
Mof_N 	N 	0.9841	0.973	0.3069	-0.007
Mof_N 	N 	0.2758	0.5188	0.9665	-0.007
Mof_N 	N 	0.3581	0.5608	0.9554	-0.091
Mof_N 	N 	0.1931	0.4841	0.973	-0.156
Mof_N 	N 	0.2242	0.4812	0.4665	-0.035
Mof_N 	N 	0.1419	0.4392	0.4554	-0.2
Mof_N 	N 	0.3069	0.5159	0.473	-0.285
Mof_N 	N 	0.7242	0.0188	0.5335	-0.125
Mof_N 	N 	0.6419	0.0608	0.5446	-0.159
Mof_N 	N 	0.8069	0.9841	0.527	-0.016
Mof_N 	N 	0.7758	0.9812	0.0335	0.073
Mof_N 	N 	0.8581	0.9392	0.0446	-0.018
Mof_N 	N 	0.6931	0.0159	0.027	-0.324
Mof_N 	N 	0.9665	0.2758	0.5188	-0.007
Mof_N 	N 	0.9554	0.3581	0.5608	-0.091
Mof_N 	N 	0.973	0.1931	0.4841	-0.156
Mof_N 	N 	0.4665	0.2242	0.4812	-0.035
Mof_N 	N 	0.4554	0.1419	0.4392	-0.2
Mof_N 	N 	0.473	0.3069	0.5159	-0.285
Mof_N 	N 	0.5335	0.7242	0.0188	-0.125
Mof_N 	N 	0.5446	0.6419	0.0608	-0.159
Mof_N 	N 	0.527	0.8069	0.9841	-0.016
Mof_N 	N 	0.0335	0.7758	0.9812	0.073
Mof_N 	N 	0.0446	0.8581	0.9392	-0.018
Mof_N 	N 	0.027	0.6931	0.0159	-0.324
Mof_N 	N 	0.5188	0.9665	0.2758	-0.007
Mof_N 	N 	0.5608	0.9554	0.3581	-0.091
Mof_N 	N 	0.4841	0.973	0.1931	-0.156
Mof_N 	N 	0.4812	0.4665	0.2242	-0.035
Mof_N 	N 	0.4392	0.4554	0.1419	-0.2
Mof_N 	N 	0.5159	0.473	0.3069	-0.285
Mof_N 	N 	0.0188	0.5335	0.7242	-0.125
Mof_N 	N 	0.0608	0.5446	0.6419	-0.159
Mof_N 	N 	0.9841	0.527	0.8069	-0.016
Mof_N 	N 	0.9812	0.0335	0.7758	0.073
Mof_N 	N 	0.9392	0.0446	0.8581	-0.018
Mof_N 	N 	0.0159	0.027	0.6931	-0.324
Mof_Ru	Ru	0.5	0.5	-0	0.71
Mof_Ru	Ru	1.8747e-33	0.5	0.5	0.71
Mof_Ru	Ru	0.5	0	0.5	0.71
Mof_Ru	Ru	-0	0	-0	0.049
Mof_Na	Na	-0	0.5	-0	1.224
Mof_Na	Na	0.5	0.5	0.5	2.193
Mof_Na	Na	1.8747e-33	0	0.5	1.224
Mof_Na	Na	0.5	0	-0	1.224
_end
