# CIF file generated by openbabel 3.1.0, see https://openbabel.org
data_I
_chemical_name_common 'image0'
_cell_length_a 32.0784
_cell_length_b 18.4491
_cell_length_c 41.2495
_cell_angle_alpha 90
_cell_angle_beta 118.55
_cell_angle_gamma 90
_space_group_name_H-M_alt 'P 1'
_space_group_name_Hall 'P 1'
loop_
    _symmetry_equiv_pos_as_xyz
    x,y,z
loop_
    _atom_site_label
    _atom_site_type_symbol
    _atom_site_fract_x
    _atom_site_fract_y
    _atom_site_fract_z
    _atom_site_occupancy
    Cu1      Cu       0.21781    0.17692    0.22179    1.000
    Cu2      Cu       0.27816    0.25088    0.28090    1.000
    Cu3      Cu       0.99395    0.96391    0.27988    1.000
    O1       O        0.26109    0.83350    0.24829    1.000
    O2       O        0.31278    0.77020    0.29822    1.000
    O3       O        0.23385    0.23170    0.29916    1.000
    O4       O        0.30635    0.15320    0.29937    1.000
    O5       O        0.04557    0.89100    0.29632    1.000
    O6       O        0.18310    0.16850    0.24977    1.000
    O7       O        0.25600    0.09330    0.24852    1.000
    O8       O        0.05396    0.03580    0.25045    1.000
    O9       O        0.04207    0.04020    0.29915    1.000
    O10      O        0.05220    0.88790    0.24452    1.000
    O11      O        0.23654    0.69840    0.29581    1.000
    O12      O        0.18448    0.76090    0.24471    1.000
    C1       C        0.06530    0.05540    0.28137    1.000
    C2       C        0.20119    0.74080    0.27753    1.000
    C3       C        0.22480    0.74300    0.46139    1.000
    C4       C        0.19260    0.21590    0.42408    1.000
    C5       C        0.29603    0.82950    0.28019    1.000
    C6       C        0.31650    0.89870    0.29922    1.000
    C7       C        0.16800    0.17590    0.29978    1.000
    C8       C        0.28755    0.10020    0.28127    1.000
    C9       C        0.46940    0.98690    0.46231    1.000
    C10      C        0.21950    0.23410    0.46158    1.000
    C11      C        0.12867    0.13230    0.28228    1.000
    H1       H        0.11870    0.11740    0.25810    1.000
    C12      C        0.29806    0.96390    0.28154    1.000
    H2       H        0.27470    0.96380    0.25690    1.000
    C13      C        0.10373    0.11010    0.30023    1.000
    C14      C        0.12043    0.79830    0.33202    1.000
    H3       H        0.10330    0.81150    0.34400    1.000
    C15      C        0.06376    0.86970    0.27714    1.000
    C16      C        0.17410    0.19960    0.39217    1.000
    C17      C        0.50150    0.93630    0.48406    1.000
    C18      C        0.19694    0.19560    0.28124    1.000
    C19      C        0.35300    0.89860    0.33627    1.000
    H4       H        0.36540    0.85520    0.34860    1.000
    C20      C        0.34950    0.02840    0.33571    1.000
    H5       H        0.36010    0.07250    0.34780    1.000
    C21      C        0.11770    0.13410    0.33629    1.000
    H6       H        0.10080    0.12000    0.34830    1.000
    C22      C        0.10413    0.82060    0.29518    1.000
    C23      C        0.24920    0.42350    0.46070    1.000
    C24      C        0.12950    0.79550    0.27695    1.000
    H7       H        0.11800    0.80570    0.25200    1.000
    C25      C        0.43530    0.97520    0.42386    1.000
    C26      C        0.18330    0.19870    0.33617    1.000
    H8       H        0.21060    0.22670    0.34840    1.000
    C27      C        0.17080    0.75620    0.29569    1.000
    C28      C        0.20040    0.75200    0.48130    1.000
    C29      C        0.31330    0.02730    0.29930    1.000
    C30      C        0.37010    0.96470    0.35407    1.000
    C31      C        0.19940    0.73990    0.42143    1.000
    C32      C        0.25110    0.29440    0.47395    1.000
    C33      C        0.50050    0.80570    0.49700    1.000
    C34      C        0.18590    0.73570    0.33230    1.000
    H9       H        0.21290    0.70710    0.34440    1.000
    C35      C        0.40670    0.96760    0.39215    1.000
    C36      C        0.53230    0.81720    0.53340    1.000
    C37      C        0.53430    0.77350    0.56020    1.000
    H10      H        0.55690    0.77990    0.58480    1.000
    C38      C        0.27900    0.43730    0.49700    1.000
    C39      C        0.22050    0.19300    0.49087    1.000
    C40      C        0.33900    0.35600    0.49410    1.000
    C41      C        0.46865    0.05340    0.47927    1.000
    C42      C        0.27460    0.74120    0.47993    1.000
    C43      C        0.63810    0.86680    0.52830    1.000
    H11      H        0.65950    0.87230    0.55330    1.000
    C44      C        0.15710    0.17900    0.35393    1.000
    C45      C        0.25580    0.34800    0.44711    1.000
    H12      H        0.23420    0.33840    0.42100    1.000
    C46      C        0.13890    0.82960    0.47980    1.000
    C47      C        0.38500    0.35260    0.50490    1.000
    H13      H        0.40650    0.36020    0.52960    1.000
    C48      C        0.16370    0.83990    0.51890    1.000
    C49      C        0.10800    0.88660    0.45640    1.000
    H14      H        0.09110    0.88290    0.43080    1.000
    C50      C        0.15480    0.65070    0.54650    1.000
    H15      H        0.17200    0.65410    0.57210    1.000
    C51      C        0.16180    0.75680    0.35091    1.000
    C52      C        0.18000    0.74350    0.38886    1.000
    C53      C        0.16080    0.70560    0.52430    1.000
    C54      C        0.55800    0.85710    0.47850    1.000
    C55      C        0.14600    0.75810    0.46570    1.000
    H16      H        0.12810    0.75360    0.43880    1.000
    C56      C        0.50680    0.85970    0.47050    1.000
    H17      H        0.48420    0.85110    0.44440    1.000
    C57      C        0.13550    0.69920    0.48560    1.000
    C58      C        0.31280    0.37280    0.51630    1.000
    H18      H        0.33420    0.38140    0.54260    1.000
    C59      C        0.27870    0.50350    0.51340    1.000
    H19      H        0.30050    0.51380    0.53780    1.000
    C60      C        0.46780    0.75110    0.48670    1.000
    H20      H        0.44590    0.74510    0.46190    1.000
    C61      C        0.21420    0.47650    0.43910    1.000
    H21      H        0.19320    0.46770    0.41430    1.000
    C62      C        0.57610    0.84090    0.45450    1.000
    H22      H        0.55540    0.82950    0.43000    1.000
    C63      C        0.30880    0.34580    0.45790    1.000
    C64      C        0.32340    0.33410    0.43230    1.000
    H23      H        0.30130    0.32970    0.40740    1.000
    C65      C        0.56580    0.88130    0.53865    1.000
    H24      H        0.58820    0.88990    0.56470    1.000
    C66      C        0.58960    0.86860    0.51700    1.000
    C67      C        0.15810    0.89810    0.53390    1.000
    H25      H        0.17390    0.90040    0.55950    1.000
    C68      C        0.24430    0.55270    0.49150    1.000
    H26      H        0.24240    0.59700    0.50140    1.000
    C69      C        0.19390    0.76940    0.53770    1.000
    H27      H        0.21170    0.77270    0.56460    1.000
    C70      C        0.50060    0.71780    0.54940    1.000
    H28      H        0.50040    0.68750    0.56740    1.000
    C71      C        0.46660    0.70620    0.51180    1.000
    H29      H        0.44450    0.66900    0.50490    1.000
    C72      C        0.10630    0.94640    0.47550    1.000
    H30      H        0.08730    0.98490    0.46190    1.000
    C73      C        0.62480    0.84170    0.46700    1.000
    H31      H        0.63650    0.83190    0.45070    1.000
    C74      C        0.36880    0.32910    0.44290    1.000
    H32      H        0.37880    0.31960    0.42550    1.000
    C75      C        0.40240    0.33780    0.47970    1.000
    H33      H        0.43480    0.33410    0.48750    1.000
    C76      C        0.10430    0.64240    0.47000    1.000
    H34      H        0.08630    0.63870    0.44450    1.000
    C77      C        0.10010    0.59130    0.49240    1.000
    H35      H        0.07980    0.55240    0.48140    1.000
    C78      C        0.12530    0.59490    0.53140    1.000
    H36      H        0.12130    0.55980    0.54590    1.000
    C79      C        0.21200    0.53690    0.45440    1.000
    H37      H        0.18860    0.57060    0.44050    1.000
    C80      C        0.65580    0.85700    0.50360    1.000
    H38      H        0.68820    0.86070    0.51170    1.000
    C81      C        0.13230    0.95410    0.51610    1.000
    H39      H        0.13040    0.99570    0.52810    1.000
    Cu4      Cu       0.71781    0.67692    0.22179    1.000
    Cu5      Cu       0.77816    0.75088    0.28090    1.000
    Cu6      Cu       0.49395    0.46391    0.27988    1.000
    O13      O        0.76109    0.33350    0.24829    1.000
    O14      O        0.81278    0.27020    0.29822    1.000
    O15      O        0.73385    0.73170    0.29916    1.000
    O16      O        0.80635    0.65320    0.29937    1.000
    O17      O        0.54557    0.39100    0.29632    1.000
    O18      O        0.68310    0.66850    0.24977    1.000
    O19      O        0.75600    0.59330    0.24852    1.000
    O20      O        0.55396    0.53580    0.25045    1.000
    O21      O        0.54207    0.54020    0.29915    1.000
    O22      O        0.55220    0.38790    0.24452    1.000
    O23      O        0.73654    0.19840    0.29581    1.000
    O24      O        0.68448    0.26090    0.24471    1.000
    C82      C        0.56530    0.55540    0.28137    1.000
    C83      C        0.70119    0.24080    0.27753    1.000
    C84      C        0.72480    0.24300    0.46139    1.000
    C85      C        0.69260    0.71590    0.42408    1.000
    C86      C        0.79603    0.32950    0.28019    1.000
    C87      C        0.81650    0.39870    0.29922    1.000
    C88      C        0.66800    0.67590    0.29978    1.000
    C89      C        0.78755    0.60020    0.28127    1.000
    C90      C        0.96940    0.48690    0.46231    1.000
    C91      C        0.71950    0.73410    0.46158    1.000
    C92      C        0.62867    0.63230    0.28228    1.000
    H40      H        0.61870    0.61740    0.25810    1.000
    C93      C        0.79806    0.46390    0.28154    1.000
    H41      H        0.77470    0.46380    0.25690    1.000
    C94      C        0.60373    0.61010    0.30023    1.000
    C95      C        0.62043    0.29830    0.33202    1.000
    H42      H        0.60330    0.31150    0.34400    1.000
    C96      C        0.56376    0.36970    0.27714    1.000
    C97      C        0.67410    0.69960    0.39217    1.000
    C98      C        0.00150    0.43630    0.48406    1.000
    C99      C        0.69694    0.69560    0.28124    1.000
    C100     C        0.85300    0.39860    0.33627    1.000
    H43      H        0.86540    0.35520    0.34860    1.000
    C101     C        0.84950    0.52840    0.33571    1.000
    H44      H        0.86010    0.57250    0.34780    1.000
    C102     C        0.61770    0.63410    0.33629    1.000
    H45      H        0.60080    0.62000    0.34830    1.000
    C103     C        0.60413    0.32060    0.29518    1.000
    C104     C        0.74920    0.92350    0.46070    1.000
    C105     C        0.62950    0.29550    0.27695    1.000
    H46      H        0.61800    0.30570    0.25200    1.000
    C106     C        0.93530    0.47520    0.42386    1.000
    C107     C        0.68330    0.69870    0.33617    1.000
    H47      H        0.71060    0.72670    0.34840    1.000
    C108     C        0.67080    0.25620    0.29569    1.000
    C109     C        0.70040    0.25200    0.48130    1.000
    C110     C        0.81330    0.52730    0.29930    1.000
    C111     C        0.87010    0.46470    0.35407    1.000
    C112     C        0.69940    0.23990    0.42143    1.000
    C113     C        0.75110    0.79440    0.47395    1.000
    C114     C        0.00050    0.30570    0.49700    1.000
    C115     C        0.68590    0.23570    0.33230    1.000
    H48      H        0.71290    0.20710    0.34440    1.000
    C116     C        0.90670    0.46760    0.39215    1.000
    C117     C        0.03230    0.31720    0.53340    1.000
    C118     C        0.03430    0.27350    0.56020    1.000
    H49      H        0.05690    0.27990    0.58480    1.000
    C119     C        0.77900    0.93730    0.49700    1.000
    C120     C        0.72050    0.69300    0.49087    1.000
    C121     C        0.83900    0.85600    0.49410    1.000
    C122     C        0.96865    0.55340    0.47927    1.000
    C123     C        0.77460    0.24120    0.47993    1.000
    C124     C        0.13810    0.36680    0.52830    1.000
    H50      H        0.15950    0.37230    0.55330    1.000
    C125     C        0.65710    0.67900    0.35393    1.000
    C126     C        0.75580    0.84800    0.44711    1.000
    H51      H        0.73420    0.83840    0.42100    1.000
    C127     C        0.63890    0.32960    0.47980    1.000
    C128     C        0.88500    0.85260    0.50490    1.000
    H52      H        0.90650    0.86020    0.52960    1.000
    C129     C        0.66370    0.33990    0.51890    1.000
    C130     C        0.60800    0.38660    0.45640    1.000
    H53      H        0.59110    0.38290    0.43080    1.000
    C131     C        0.65480    0.15070    0.54650    1.000
    H54      H        0.67200    0.15410    0.57210    1.000
    C132     C        0.66180    0.25680    0.35091    1.000
    C133     C        0.68000    0.24350    0.38886    1.000
    C134     C        0.66080    0.20560    0.52430    1.000
    C135     C        0.05800    0.35710    0.47850    1.000
    C136     C        0.64600    0.25810    0.46570    1.000
    H55      H        0.62810    0.25360    0.43880    1.000
    C137     C        0.00680    0.35970    0.47050    1.000
    H56      H        0.98420    0.35110    0.44440    1.000
    C138     C        0.63550    0.19920    0.48560    1.000
    C139     C        0.81280    0.87280    0.51630    1.000
    H57      H        0.83420    0.88140    0.54260    1.000
    C140     C        0.77870    0.00350    0.51340    1.000
    H58      H        0.80050    0.01380    0.53780    1.000
    C141     C        0.96780    0.25110    0.48670    1.000
    H59      H        0.94590    0.24510    0.46190    1.000
    C142     C        0.71420    0.97650    0.43910    1.000
    H60      H        0.69320    0.96770    0.41430    1.000
    C143     C        0.07610    0.34090    0.45450    1.000
    H61      H        0.05540    0.32950    0.43000    1.000
    C144     C        0.80880    0.84580    0.45790    1.000
    C145     C        0.82340    0.83410    0.43230    1.000
    H62      H        0.80130    0.82970    0.40740    1.000
    C146     C        0.06580    0.38130    0.53865    1.000
    H63      H        0.08820    0.38990    0.56470    1.000
    C147     C        0.08960    0.36860    0.51700    1.000
    C148     C        0.65810    0.39810    0.53390    1.000
    H64      H        0.67390    0.40040    0.55950    1.000
    C149     C        0.74430    0.05270    0.49150    1.000
    H65      H        0.74240    0.09700    0.50140    1.000
    C150     C        0.69390    0.26940    0.53770    1.000
    H66      H        0.71170    0.27270    0.56460    1.000
    C151     C        0.00060    0.21780    0.54940    1.000
    H67      H        0.00040    0.18750    0.56740    1.000
    C152     C        0.96660    0.20620    0.51180    1.000
    H68      H        0.94450    0.16900    0.50490    1.000
    C153     C        0.60630    0.44640    0.47550    1.000
    H69      H        0.58730    0.48490    0.46190    1.000
    C154     C        0.12480    0.34170    0.46700    1.000
    H70      H        0.13650    0.33190    0.45070    1.000
    C155     C        0.86880    0.82910    0.44290    1.000
    H71      H        0.87880    0.81960    0.42550    1.000
    C156     C        0.90240    0.83780    0.47970    1.000
    H72      H        0.93480    0.83410    0.48750    1.000
    C157     C        0.60430    0.14240    0.47000    1.000
    H73      H        0.58630    0.13870    0.44450    1.000
    C158     C        0.60010    0.09130    0.49240    1.000
    H74      H        0.57980    0.05240    0.48140    1.000
    C159     C        0.62530    0.09490    0.53140    1.000
    H75      H        0.62130    0.05980    0.54590    1.000
    C160     C        0.71200    0.03690    0.45440    1.000
    H76      H        0.68860    0.07060    0.44050    1.000
    C161     C        0.15580    0.35700    0.50360    1.000
    H77      H        0.18820    0.36070    0.51170    1.000
    C162     C        0.63230    0.45410    0.51610    1.000
    H78      H        0.63040    0.49570    0.52810    1.000
    Cu7      Cu       0.78219    0.17692    0.27821    1.000
    Cu8      Cu       0.72184    0.25088    0.21909    1.000
    Cu9      Cu       0.00605    0.96391    0.22012    1.000
    O25      O        0.73891    0.83350    0.25171    1.000
    O26      O        0.68722    0.77020    0.20178    1.000
    O27      O        0.76615    0.23170    0.20084    1.000
    O28      O        0.69365    0.15320    0.20063    1.000
    O29      O        0.95443    0.89100    0.20368    1.000
    O30      O        0.81690    0.16850    0.25023    1.000
    O31      O        0.74400    0.09330    0.25148    1.000
    O32      O        0.94604    0.03580    0.24955    1.000
    O33      O        0.95793    0.04020    0.20085    1.000
    O34      O        0.94780    0.88790    0.25548    1.000
    O35      O        0.76346    0.69840    0.20419    1.000
    O36      O        0.81552    0.76090    0.25529    1.000
    C163     C        0.93470    0.05540    0.21863    1.000
    C164     C        0.79881    0.74080    0.22247    1.000
    C165     C        0.77520    0.74300    0.03861    1.000
    C166     C        0.80740    0.21590    0.07592    1.000
    C167     C        0.70397    0.82950    0.21981    1.000
    C168     C        0.68350    0.89870    0.20078    1.000
    C169     C        0.83200    0.17590    0.20022    1.000
    C170     C        0.71245    0.10020    0.21873    1.000
    C171     C        0.53060    0.98690    0.03769    1.000
    C172     C        0.78050    0.23410    0.03842    1.000
    C173     C        0.87133    0.13230    0.21772    1.000
    H79      H        0.88130    0.11740    0.24190    1.000
    C174     C        0.70194    0.96390    0.21846    1.000
    H80      H        0.72530    0.96380    0.24310    1.000
    C175     C        0.89627    0.11010    0.19977    1.000
    C176     C        0.87957    0.79830    0.16798    1.000
    H81      H        0.89670    0.81150    0.15600    1.000
    C177     C        0.93624    0.86970    0.22286    1.000
    C178     C        0.82590    0.19960    0.10783    1.000
    C179     C        0.49850    0.93630    0.01594    1.000
    C180     C        0.80306    0.19560    0.21876    1.000
    C181     C        0.64700    0.89860    0.16373    1.000
    H82      H        0.63460    0.85520    0.15140    1.000
    C182     C        0.65050    0.02840    0.16429    1.000
    H83      H        0.63990    0.07250    0.15220    1.000
    C183     C        0.88230    0.13410    0.16371    1.000
    H84      H        0.89920    0.12000    0.15170    1.000
    C184     C        0.89587    0.82060    0.20482    1.000
    C185     C        0.75080    0.42350    0.03930    1.000
    C186     C        0.87050    0.79550    0.22305    1.000
    H85      H        0.88200    0.80570    0.24800    1.000
    C187     C        0.56470    0.97520    0.07614    1.000
    C188     C        0.81670    0.19870    0.16383    1.000
    H86      H        0.78940    0.22670    0.15160    1.000
    C189     C        0.82920    0.75620    0.20431    1.000
    C190     C        0.79960    0.75200    0.01870    1.000
    C191     C        0.68670    0.02730    0.20070    1.000
    C192     C        0.62990    0.96470    0.14593    1.000
    C193     C        0.80060    0.73990    0.07857    1.000
    C194     C        0.74890    0.29440    0.02605    1.000
    C195     C        0.49950    0.80570    0.00300    1.000
    C196     C        0.81410    0.73570    0.16770    1.000
    H87      H        0.78710    0.70710    0.15560    1.000
    C197     C        0.59330    0.96760    0.10785    1.000
    C198     C        0.46770    0.81720    0.96660    1.000
    C199     C        0.46570    0.77350    0.93980    1.000
    H88      H        0.44310    0.77990    0.91520    1.000
    C200     C        0.72100    0.43730    0.00300    1.000
    C201     C        0.77950    0.19300    0.00913    1.000
    C202     C        0.66100    0.35600    0.00590    1.000
    C203     C        0.53135    0.05340    0.02073    1.000
    C204     C        0.72540    0.74120    0.02007    1.000
    C205     C        0.36190    0.86680    0.97170    1.000
    H89      H        0.34050    0.87230    0.94670    1.000
    C206     C        0.84290    0.17900    0.14607    1.000
    C207     C        0.74420    0.34800    0.05289    1.000
    H90      H        0.76580    0.33840    0.07900    1.000
    C208     C        0.86110    0.82960    0.02020    1.000
    C209     C        0.61500    0.35260    0.99510    1.000
    H91      H        0.59350    0.36020    0.97040    1.000
    C210     C        0.83630    0.83990    0.98110    1.000
    C211     C        0.89200    0.88660    0.04360    1.000
    H92      H        0.90890    0.88290    0.06920    1.000
    C212     C        0.84520    0.65070    0.95350    1.000
    H93      H        0.82800    0.65410    0.92790    1.000
    C213     C        0.83820    0.75680    0.14909    1.000
    C214     C        0.82000    0.74350    0.11114    1.000
    C215     C        0.83920    0.70560    0.97570    1.000
    C216     C        0.44200    0.85710    0.02150    1.000
    C217     C        0.85400    0.75810    0.03430    1.000
    H94      H        0.87190    0.75360    0.06120    1.000
    C218     C        0.49320    0.85970    0.02950    1.000
    H95      H        0.51580    0.85110    0.05560    1.000
    C219     C        0.86450    0.69920    0.01440    1.000
    C220     C        0.68720    0.37280    0.98370    1.000
    H96      H        0.66580    0.38140    0.95740    1.000
    C221     C        0.72130    0.50350    0.98660    1.000
    H97      H        0.69950    0.51380    0.96220    1.000
    C222     C        0.53220    0.75110    0.01330    1.000
    H98      H        0.55410    0.74510    0.03810    1.000
    C223     C        0.78580    0.47650    0.06090    1.000
    H99      H        0.80680    0.46770    0.08570    1.000
    C224     C        0.42390    0.84090    0.04550    1.000
    H100     H        0.44460    0.82950    0.07000    1.000
    C225     C        0.69120    0.34580    0.04210    1.000
    C226     C        0.67660    0.33410    0.06770    1.000
    H101     H        0.69870    0.32970    0.09260    1.000
    C227     C        0.43420    0.88130    0.96135    1.000
    H102     H        0.41180    0.88990    0.93530    1.000
    C228     C        0.41040    0.86860    0.98300    1.000
    C229     C        0.84190    0.89810    0.96610    1.000
    H103     H        0.82610    0.90040    0.94050    1.000
    C230     C        0.75570    0.55270    0.00850    1.000
    H104     H        0.75760    0.59700    0.99860    1.000
    C231     C        0.80610    0.76940    0.96230    1.000
    H105     H        0.78830    0.77270    0.93540    1.000
    C232     C        0.49940    0.71780    0.95060    1.000
    H106     H        0.49960    0.68750    0.93260    1.000
    C233     C        0.53340    0.70620    0.98820    1.000
    H107     H        0.55550    0.66900    0.99510    1.000
    C234     C        0.89370    0.94640    0.02450    1.000
    H108     H        0.91270    0.98490    0.03810    1.000
    C235     C        0.37520    0.84170    0.03300    1.000
    H109     H        0.36350    0.83190    0.04930    1.000
    C236     C        0.63120    0.32910    0.05710    1.000
    H110     H        0.62120    0.31960    0.07450    1.000
    C237     C        0.59760    0.33780    0.02030    1.000
    H111     H        0.56520    0.33410    0.01250    1.000
    C238     C        0.89570    0.64240    0.03000    1.000
    H112     H        0.91370    0.63870    0.05550    1.000
    C239     C        0.89990    0.59130    0.00760    1.000
    H113     H        0.92020    0.55240    0.01860    1.000
    C240     C        0.87470    0.59490    0.96860    1.000
    H114     H        0.87870    0.55980    0.95410    1.000
    C241     C        0.78800    0.53690    0.04560    1.000
    H115     H        0.81140    0.57060    0.05950    1.000
    C242     C        0.34420    0.85700    0.99640    1.000
    H116     H        0.31180    0.86070    0.98830    1.000
    C243     C        0.86770    0.95410    0.98390    1.000
    H117     H        0.86960    0.99570    0.97190    1.000
    Cu10     Cu       0.28219    0.67692    0.27821    1.000
    Cu11     Cu       0.22184    0.75088    0.21910    1.000
    Cu12     Cu       0.50605    0.46391    0.22012    1.000
    O37      O        0.23891    0.33350    0.25171    1.000
    O38      O        0.18722    0.27020    0.20178    1.000
    O39      O        0.26615    0.73170    0.20084    1.000
    O40      O        0.19365    0.65320    0.20063    1.000
    O41      O        0.45443    0.39100    0.20368    1.000
    O42      O        0.31690    0.66850    0.25023    1.000
    O43      O        0.24400    0.59330    0.25148    1.000
    O44      O        0.44604    0.53580    0.24955    1.000
    O45      O        0.45793    0.54020    0.20085    1.000
    O46      O        0.44780    0.38790    0.25548    1.000
    O47      O        0.26346    0.19840    0.20419    1.000
    O48      O        0.31552    0.26090    0.25529    1.000
    C244     C        0.43470    0.55540    0.21863    1.000
    C245     C        0.29881    0.24080    0.22247    1.000
    C246     C        0.27520    0.24300    0.03861    1.000
    C247     C        0.30740    0.71590    0.07592    1.000
    C248     C        0.20397    0.32950    0.21981    1.000
    C249     C        0.18350    0.39870    0.20078    1.000
    C250     C        0.33200    0.67590    0.20022    1.000
    C251     C        0.21245    0.60020    0.21873    1.000
    C252     C        0.03060    0.48690    0.03769    1.000
    C253     C        0.28050    0.73410    0.03842    1.000
    C254     C        0.37133    0.63230    0.21772    1.000
    H118     H        0.38130    0.61740    0.24190    1.000
    C255     C        0.20194    0.46390    0.21846    1.000
    H119     H        0.22530    0.46380    0.24310    1.000
    C256     C        0.39627    0.61010    0.19977    1.000
    C257     C        0.37957    0.29830    0.16798    1.000
    H120     H        0.39670    0.31150    0.15600    1.000
    C258     C        0.43624    0.36970    0.22286    1.000
    C259     C        0.32590    0.69960    0.10783    1.000
    C260     C        0.99850    0.43630    0.01594    1.000
    C261     C        0.30306    0.69560    0.21876    1.000
    C262     C        0.14700    0.39860    0.16373    1.000
    H121     H        0.13460    0.35520    0.15140    1.000
    C263     C        0.15050    0.52840    0.16429    1.000
    H122     H        0.13990    0.57250    0.15220    1.000
    C264     C        0.38230    0.63410    0.16371    1.000
    H123     H        0.39920    0.62000    0.15170    1.000
    C265     C        0.39587    0.32060    0.20482    1.000
    C266     C        0.25080    0.92350    0.03930    1.000
    C267     C        0.37050    0.29550    0.22305    1.000
    H124     H        0.38200    0.30570    0.24800    1.000
    C268     C        0.06470    0.47520    0.07614    1.000
    C269     C        0.31670    0.69870    0.16383    1.000
    H125     H        0.28940    0.72670    0.15160    1.000
    C270     C        0.32920    0.25620    0.20431    1.000
    C271     C        0.29960    0.25200    0.01870    1.000
    C272     C        0.18670    0.52730    0.20070    1.000
    C273     C        0.12990    0.46470    0.14593    1.000
    C274     C        0.30060    0.23990    0.07857    1.000
    C275     C        0.24890    0.79440    0.02605    1.000
    C276     C        0.99950    0.30570    0.00300    1.000
    C277     C        0.31410    0.23570    0.16770    1.000
    H126     H        0.28710    0.20710    0.15560    1.000
    C278     C        0.09330    0.46760    0.10785    1.000
    C279     C        0.96770    0.31720    0.96660    1.000
    C280     C        0.96570    0.27350    0.93980    1.000
    H127     H        0.94310    0.27990    0.91520    1.000
    C281     C        0.22100    0.93730    0.00300    1.000
    C282     C        0.27950    0.69300    0.00913    1.000
    C283     C        0.16100    0.85600    0.00590    1.000
    C284     C        0.03135    0.55340    0.02073    1.000
    C285     C        0.22540    0.24120    0.02007    1.000
    C286     C        0.86190    0.36680    0.97170    1.000
    H128     H        0.84050    0.37230    0.94670    1.000
    C287     C        0.34290    0.67900    0.14607    1.000
    C288     C        0.24420    0.84800    0.05289    1.000
    H129     H        0.26580    0.83840    0.07900    1.000
    C289     C        0.36110    0.32960    0.02020    1.000
    C290     C        0.11500    0.85260    0.99510    1.000
    H130     H        0.09350    0.86020    0.97040    1.000
    C291     C        0.33630    0.33990    0.98110    1.000
    C292     C        0.39200    0.38660    0.04360    1.000
    H131     H        0.40890    0.38290    0.06920    1.000
    C293     C        0.34520    0.15070    0.95350    1.000
    H132     H        0.32800    0.15410    0.92790    1.000
    C294     C        0.33820    0.25680    0.14909    1.000
    C295     C        0.32000    0.24350    0.11114    1.000
    C296     C        0.33920    0.20560    0.97570    1.000
    C297     C        0.94200    0.35710    0.02150    1.000
    C298     C        0.35400    0.25810    0.03430    1.000
    H133     H        0.37190    0.25360    0.06120    1.000
    C299     C        0.99320    0.35970    0.02950    1.000
    H134     H        0.01580    0.35110    0.05560    1.000
    C300     C        0.36450    0.19920    0.01440    1.000
    C301     C        0.18720    0.87280    0.98370    1.000
    H135     H        0.16580    0.88140    0.95740    1.000
    C302     C        0.22130    0.00350    0.98660    1.000
    H136     H        0.19950    0.01380    0.96220    1.000
    C303     C        0.03220    0.25110    0.01330    1.000
    H137     H        0.05410    0.24510    0.03810    1.000
    C304     C        0.28580    0.97650    0.06090    1.000
    H138     H        0.30680    0.96770    0.08570    1.000
    C305     C        0.92390    0.34090    0.04550    1.000
    H139     H        0.94460    0.32950    0.07000    1.000
    C306     C        0.19120    0.84580    0.04210    1.000
    C307     C        0.17660    0.83410    0.06770    1.000
    H140     H        0.19870    0.82970    0.09260    1.000
    C308     C        0.93420    0.38130    0.96135    1.000
    H141     H        0.91180    0.38990    0.93530    1.000
    C309     C        0.91040    0.36860    0.98300    1.000
    C310     C        0.34190    0.39810    0.96610    1.000
    H142     H        0.32610    0.40040    0.94050    1.000
    C311     C        0.25570    0.05270    0.00850    1.000
    H143     H        0.25760    0.09700    0.99860    1.000
    C312     C        0.30610    0.26940    0.96230    1.000
    H144     H        0.28830    0.27270    0.93540    1.000
    C313     C        0.99940    0.21780    0.95060    1.000
    H145     H        0.99960    0.18750    0.93260    1.000
    C314     C        0.03340    0.20620    0.98820    1.000
    H146     H        0.05550    0.16900    0.99510    1.000
    C315     C        0.39370    0.44640    0.02450    1.000
    H147     H        0.41270    0.48490    0.03810    1.000
    C316     C        0.87520    0.34170    0.03300    1.000
    H148     H        0.86350    0.33190    0.04930    1.000
    C317     C        0.13120    0.82910    0.05710    1.000
    H149     H        0.12120    0.81960    0.07450    1.000
    C318     C        0.09760    0.83780    0.02030    1.000
    H150     H        0.06520    0.83410    0.01250    1.000
    C319     C        0.39570    0.14240    0.03000    1.000
    H151     H        0.41370    0.13870    0.05550    1.000
    C320     C        0.39990    0.09130    0.00760    1.000
    H152     H        0.42020    0.05240    0.01860    1.000
    C321     C        0.37470    0.09490    0.96860    1.000
    H153     H        0.37870    0.05980    0.95410    1.000
    C322     C        0.28800    0.03690    0.04560    1.000
    H154     H        0.31140    0.07060    0.05950    1.000
    C323     C        0.84420    0.35700    0.99640    1.000
    H155     H        0.81180    0.36070    0.98830    1.000
    C324     C        0.36770    0.45410    0.98390    1.000
    H156     H        0.36960    0.49570    0.97190    1.000
    Cu13     Cu       0.78219    0.82308    0.77821    1.000
    Cu14     Cu       0.72184    0.74912    0.71910    1.000
    Cu15     Cu       0.00605    0.03609    0.72012    1.000
    O49      O        0.73891    0.16650    0.75171    1.000
    O50      O        0.68722    0.22980    0.70178    1.000
    O51      O        0.76615    0.76830    0.70084    1.000
    O52      O        0.69365    0.84680    0.70063    1.000
    O53      O        0.95443    0.10900    0.70368    1.000
    O54      O        0.81690    0.83150    0.75023    1.000
    O55      O        0.74400    0.90670    0.75148    1.000
    O56      O        0.94604    0.96420    0.74955    1.000
    O57      O        0.95793    0.95980    0.70085    1.000
    O58      O        0.94780    0.11210    0.75548    1.000
    O59      O        0.76346    0.30160    0.70419    1.000
    O60      O        0.81552    0.23910    0.75529    1.000
    C325     C        0.93470    0.94460    0.71863    1.000
    C326     C        0.79881    0.25920    0.72247    1.000
    C327     C        0.77520    0.25700    0.53861    1.000
    C328     C        0.80740    0.78410    0.57592    1.000
    C329     C        0.70397    0.17050    0.71981    1.000
    C330     C        0.68350    0.10130    0.70078    1.000
    C331     C        0.83200    0.82410    0.70022    1.000
    C332     C        0.71245    0.89980    0.71873    1.000
    C333     C        0.53060    0.01310    0.53769    1.000
    C334     C        0.78050    0.76590    0.53842    1.000
    C335     C        0.87133    0.86770    0.71772    1.000
    H157     H        0.88130    0.88260    0.74190    1.000
    C336     C        0.70194    0.03610    0.71846    1.000
    H158     H        0.72530    0.03620    0.74310    1.000
    C337     C        0.89627    0.88990    0.69977    1.000
    C338     C        0.87957    0.20170    0.66798    1.000
    H159     H        0.89670    0.18850    0.65600    1.000
    C339     C        0.93624    0.13030    0.72286    1.000
    C340     C        0.82590    0.80040    0.60783    1.000
    C341     C        0.49850    0.06370    0.51594    1.000
    C342     C        0.80306    0.80440    0.71876    1.000
    C343     C        0.64700    0.10140    0.66373    1.000
    H160     H        0.63460    0.14480    0.65140    1.000
    C344     C        0.65050    0.97160    0.66429    1.000
    H161     H        0.63990    0.92750    0.65220    1.000
    C345     C        0.88230    0.86590    0.66371    1.000
    H162     H        0.89920    0.88000    0.65170    1.000
    C346     C        0.89587    0.17940    0.70482    1.000
    C347     C        0.75080    0.57650    0.53930    1.000
    C348     C        0.87050    0.20450    0.72305    1.000
    H163     H        0.88200    0.19430    0.74800    1.000
    C349     C        0.56470    0.02480    0.57614    1.000
    C350     C        0.81670    0.80130    0.66383    1.000
    H164     H        0.78940    0.77330    0.65160    1.000
    C351     C        0.82920    0.24380    0.70431    1.000
    C352     C        0.79960    0.24800    0.51870    1.000
    C353     C        0.68670    0.97270    0.70070    1.000
    C354     C        0.62990    0.03530    0.64593    1.000
    C355     C        0.80060    0.26010    0.57857    1.000
    C356     C        0.74890    0.70560    0.52605    1.000
    C357     C        0.49950    0.19430    0.50300    1.000
    C358     C        0.81410    0.26430    0.66770    1.000
    H165     H        0.78710    0.29290    0.65560    1.000
    C359     C        0.59330    0.03240    0.60785    1.000
    C360     C        0.46770    0.18280    0.46660    1.000
    C361     C        0.46570    0.22650    0.43980    1.000
    H166     H        0.44310    0.22010    0.41520    1.000
    C362     C        0.72100    0.56270    0.50300    1.000
    C363     C        0.77950    0.80700    0.50913    1.000
    C364     C        0.66100    0.64400    0.50590    1.000
    C365     C        0.53135    0.94660    0.52073    1.000
    C366     C        0.72540    0.25880    0.52007    1.000
    C367     C        0.36190    0.13320    0.47170    1.000
    H167     H        0.34050    0.12770    0.44670    1.000
    C368     C        0.84290    0.82100    0.64607    1.000
    C369     C        0.74420    0.65200    0.55289    1.000
    H168     H        0.76580    0.66160    0.57900    1.000
    C370     C        0.86110    0.17040    0.52020    1.000
    C371     C        0.61500    0.64740    0.49510    1.000
    H169     H        0.59350    0.63980    0.47040    1.000
    C372     C        0.83630    0.16010    0.48110    1.000
    C373     C        0.89200    0.11340    0.54360    1.000
    H170     H        0.90890    0.11710    0.56920    1.000
    C374     C        0.84520    0.34930    0.45350    1.000
    H171     H        0.82800    0.34590    0.42790    1.000
    C375     C        0.83820    0.24320    0.64909    1.000
    C376     C        0.82000    0.25650    0.61114    1.000
    C377     C        0.83920    0.29440    0.47570    1.000
    C378     C        0.44200    0.14290    0.52150    1.000
    C379     C        0.85400    0.24190    0.53430    1.000
    H172     H        0.87190    0.24640    0.56120    1.000
    C380     C        0.49320    0.14030    0.52950    1.000
    H173     H        0.51580    0.14890    0.55560    1.000
    C381     C        0.86450    0.30080    0.51440    1.000
    C382     C        0.68720    0.62720    0.48370    1.000
    H174     H        0.66580    0.61860    0.45740    1.000
    C383     C        0.72130    0.49650    0.48660    1.000
    H175     H        0.69950    0.48620    0.46220    1.000
    C384     C        0.53220    0.24890    0.51330    1.000
    H176     H        0.55410    0.25490    0.53810    1.000
    C385     C        0.78580    0.52350    0.56090    1.000
    H177     H        0.80680    0.53230    0.58570    1.000
    C386     C        0.42390    0.15910    0.54550    1.000
    H178     H        0.44460    0.17050    0.57000    1.000
    C387     C        0.69120    0.65420    0.54210    1.000
    C388     C        0.67660    0.66590    0.56770    1.000
    H179     H        0.69870    0.67030    0.59260    1.000
    C389     C        0.43420    0.11870    0.46135    1.000
    H180     H        0.41180    0.11010    0.43530    1.000
    C390     C        0.41040    0.13140    0.48300    1.000
    C391     C        0.84190    0.10190    0.46610    1.000
    H181     H        0.82610    0.09960    0.44050    1.000
    C392     C        0.75570    0.44730    0.50850    1.000
    H182     H        0.75760    0.40300    0.49860    1.000
    C393     C        0.80610    0.23060    0.46230    1.000
    H183     H        0.78830    0.22730    0.43540    1.000
    C394     C        0.49940    0.28220    0.45060    1.000
    H184     H        0.49960    0.31250    0.43260    1.000
    C395     C        0.53340    0.29380    0.48820    1.000
    H185     H        0.55550    0.33100    0.49510    1.000
    C396     C        0.89370    0.05360    0.52450    1.000
    H186     H        0.91270    0.01510    0.53810    1.000
    C397     C        0.37520    0.15830    0.53300    1.000
    H187     H        0.36350    0.16810    0.54930    1.000
    C398     C        0.63120    0.67090    0.55710    1.000
    H188     H        0.62120    0.68040    0.57450    1.000
    C399     C        0.59760    0.66220    0.52030    1.000
    H189     H        0.56520    0.66590    0.51250    1.000
    C400     C        0.89570    0.35760    0.53000    1.000
    H190     H        0.91370    0.36130    0.55550    1.000
    C401     C        0.89990    0.40870    0.50760    1.000
    H191     H        0.92020    0.44760    0.51860    1.000
    C402     C        0.87470    0.40510    0.46860    1.000
    H192     H        0.87870    0.44020    0.45410    1.000
    C403     C        0.78800    0.46310    0.54560    1.000
    H193     H        0.81140    0.42940    0.55950    1.000
    C404     C        0.34420    0.14300    0.49640    1.000
    H194     H        0.31180    0.13930    0.48830    1.000
    C405     C        0.86770    0.04590    0.48390    1.000
    H195     H        0.86960    0.00430    0.47190    1.000
    Cu16     Cu       0.28219    0.32308    0.77821    1.000
    Cu17     Cu       0.22184    0.24912    0.71910    1.000
    Cu18     Cu       0.50605    0.53609    0.72012    1.000
    O61      O        0.23891    0.66650    0.75171    1.000
    O62      O        0.18722    0.72980    0.70178    1.000
    O63      O        0.26615    0.26830    0.70084    1.000
    O64      O        0.19365    0.34680    0.70063    1.000
    O65      O        0.45443    0.60900    0.70368    1.000
    O66      O        0.31690    0.33150    0.75023    1.000
    O67      O        0.24400    0.40670    0.75148    1.000
    O68      O        0.44604    0.46420    0.74955    1.000
    O69      O        0.45793    0.45980    0.70085    1.000
    O70      O        0.44780    0.61210    0.75548    1.000
    O71      O        0.26346    0.80160    0.70419    1.000
    O72      O        0.31552    0.73910    0.75529    1.000
    C406     C        0.43470    0.44460    0.71863    1.000
    C407     C        0.29881    0.75920    0.72247    1.000
    C408     C        0.27520    0.75700    0.53861    1.000
    C409     C        0.30740    0.28410    0.57592    1.000
    C410     C        0.20397    0.67050    0.71981    1.000
    C411     C        0.18350    0.60130    0.70078    1.000
    C412     C        0.33200    0.32410    0.70022    1.000
    C413     C        0.21245    0.39980    0.71873    1.000
    C414     C        0.03060    0.51310    0.53769    1.000
    C415     C        0.28050    0.26590    0.53842    1.000
    C416     C        0.37133    0.36770    0.71772    1.000
    H196     H        0.38130    0.38260    0.74190    1.000
    C417     C        0.20194    0.53610    0.71846    1.000
    H197     H        0.22530    0.53620    0.74310    1.000
    C418     C        0.39627    0.38990    0.69977    1.000
    C419     C        0.37957    0.70170    0.66798    1.000
    H198     H        0.39670    0.68850    0.65600    1.000
    C420     C        0.43624    0.63030    0.72286    1.000
    C421     C        0.32590    0.30040    0.60783    1.000
    C422     C        0.99850    0.56370    0.51594    1.000
    C423     C        0.30306    0.30440    0.71876    1.000
    C424     C        0.14700    0.60140    0.66373    1.000
    H199     H        0.13460    0.64480    0.65140    1.000
    C425     C        0.15050    0.47160    0.66429    1.000
    H200     H        0.13990    0.42750    0.65220    1.000
    C426     C        0.38230    0.36590    0.66371    1.000
    H201     H        0.39920    0.38000    0.65170    1.000
    C427     C        0.39587    0.67940    0.70482    1.000
    C428     C        0.25080    0.07650    0.53930    1.000
    C429     C        0.37050    0.70450    0.72305    1.000
    H202     H        0.38200    0.69430    0.74800    1.000
    C430     C        0.06470    0.52480    0.57614    1.000
    C431     C        0.31670    0.30130    0.66383    1.000
    H203     H        0.28940    0.27330    0.65160    1.000
    C432     C        0.32920    0.74380    0.70431    1.000
    C433     C        0.29960    0.74800    0.51870    1.000
    C434     C        0.18670    0.47270    0.70070    1.000
    C435     C        0.12990    0.53530    0.64593    1.000
    C436     C        0.30060    0.76010    0.57857    1.000
    C437     C        0.24890    0.20560    0.52605    1.000
    C438     C        0.99950    0.69430    0.50300    1.000
    C439     C        0.31410    0.76430    0.66770    1.000
    H204     H        0.28710    0.79290    0.65560    1.000
    C440     C        0.09330    0.53240    0.60785    1.000
    C441     C        0.96770    0.68280    0.46660    1.000
    C442     C        0.96570    0.72650    0.43980    1.000
    H205     H        0.94310    0.72010    0.41520    1.000
    C443     C        0.22100    0.06270    0.50300    1.000
    C444     C        0.27950    0.30700    0.50913    1.000
    C445     C        0.16100    0.14400    0.50590    1.000
    C446     C        0.03135    0.44660    0.52073    1.000
    C447     C        0.22540    0.75880    0.52007    1.000
    C448     C        0.86190    0.63320    0.47170    1.000
    H206     H        0.84050    0.62770    0.44670    1.000
    C449     C        0.34290    0.32100    0.64607    1.000
    C450     C        0.24420    0.15200    0.55289    1.000
    H207     H        0.26580    0.16160    0.57900    1.000
    C451     C        0.36110    0.67040    0.52020    1.000
    C452     C        0.11500    0.14740    0.49510    1.000
    H208     H        0.09350    0.13980    0.47040    1.000
    C453     C        0.33630    0.66010    0.48110    1.000
    C454     C        0.39200    0.61340    0.54360    1.000
    H209     H        0.40890    0.61710    0.56920    1.000
    C455     C        0.34520    0.84930    0.45350    1.000
    H210     H        0.32800    0.84590    0.42790    1.000
    C456     C        0.33820    0.74320    0.64909    1.000
    C457     C        0.32000    0.75650    0.61114    1.000
    C458     C        0.33920    0.79440    0.47570    1.000
    C459     C        0.94200    0.64290    0.52150    1.000
    C460     C        0.35400    0.74190    0.53430    1.000
    H211     H        0.37190    0.74640    0.56120    1.000
    C461     C        0.99320    0.64030    0.52950    1.000
    H212     H        0.01580    0.64890    0.55560    1.000
    C462     C        0.36450    0.80080    0.51440    1.000
    C463     C        0.18720    0.12720    0.48370    1.000
    H213     H        0.16580    0.11860    0.45740    1.000
    C464     C        0.22130    0.99650    0.48660    1.000
    H214     H        0.19950    0.98620    0.46220    1.000
    C465     C        0.03220    0.74890    0.51330    1.000
    H215     H        0.05410    0.75490    0.53810    1.000
    C466     C        0.28580    0.02350    0.56090    1.000
    H216     H        0.30680    0.03230    0.58570    1.000
    C467     C        0.92390    0.65910    0.54550    1.000
    H217     H        0.94460    0.67050    0.57000    1.000
    C468     C        0.19120    0.15420    0.54210    1.000
    C469     C        0.17660    0.16590    0.56770    1.000
    H218     H        0.19870    0.17030    0.59260    1.000
    C470     C        0.93420    0.61870    0.46135    1.000
    H219     H        0.91180    0.61010    0.43530    1.000
    C471     C        0.91040    0.63140    0.48300    1.000
    C472     C        0.34190    0.60190    0.46610    1.000
    H220     H        0.32610    0.59960    0.44050    1.000
    C473     C        0.25570    0.94730    0.50850    1.000
    H221     H        0.25760    0.90300    0.49860    1.000
    C474     C        0.30610    0.73060    0.46230    1.000
    H222     H        0.28830    0.72730    0.43540    1.000
    C475     C        0.99940    0.78220    0.45060    1.000
    H223     H        0.99960    0.81250    0.43260    1.000
    C476     C        0.03340    0.79380    0.48820    1.000
    H224     H        0.05550    0.83100    0.49510    1.000
    C477     C        0.39370    0.55360    0.52450    1.000
    H225     H        0.41270    0.51510    0.53810    1.000
    C478     C        0.87520    0.65830    0.53300    1.000
    H226     H        0.86350    0.66810    0.54930    1.000
    C479     C        0.13120    0.17090    0.55710    1.000
    H227     H        0.12120    0.18040    0.57450    1.000
    C480     C        0.09760    0.16220    0.52030    1.000
    H228     H        0.06520    0.16590    0.51250    1.000
    C481     C        0.39570    0.85760    0.53000    1.000
    H229     H        0.41370    0.86130    0.55550    1.000
    C482     C        0.39990    0.90870    0.50760    1.000
    H230     H        0.42020    0.94760    0.51860    1.000
    C483     C        0.37470    0.90510    0.46860    1.000
    H231     H        0.37870    0.94020    0.45410    1.000
    C484     C        0.28800    0.96310    0.54560    1.000
    H232     H        0.31140    0.92940    0.55950    1.000
    C485     C        0.84420    0.64300    0.49640    1.000
    H233     H        0.81180    0.63930    0.48830    1.000
    C486     C        0.36770    0.54590    0.48390    1.000
    H234     H        0.36960    0.50430    0.47190    1.000
    Cu19     Cu       0.21781    0.82308    0.72179    1.000
    Cu20     Cu       0.27816    0.74912    0.78091    1.000
    Cu21     Cu       0.99395    0.03609    0.77988    1.000
    O73      O        0.26109    0.16650    0.74829    1.000
    O74      O        0.31278    0.22980    0.79822    1.000
    O75      O        0.23385    0.76830    0.79916    1.000
    O76      O        0.30635    0.84680    0.79937    1.000
    O77      O        0.04557    0.10900    0.79632    1.000
    O78      O        0.18310    0.83150    0.74977    1.000
    O79      O        0.25600    0.90670    0.74852    1.000
    O80      O        0.05396    0.96420    0.75045    1.000
    O81      O        0.04207    0.95980    0.79915    1.000
    O82      O        0.05220    0.11210    0.74452    1.000
    O83      O        0.23654    0.30160    0.79581    1.000
    O84      O        0.18448    0.23910    0.74471    1.000
    C487     C        0.06530    0.94460    0.78137    1.000
    C488     C        0.20119    0.25920    0.77753    1.000
    C489     C        0.22480    0.25700    0.96139    1.000
    C490     C        0.19260    0.78410    0.92408    1.000
    C491     C        0.29603    0.17050    0.78019    1.000
    C492     C        0.31650    0.10130    0.79922    1.000
    C493     C        0.16800    0.82410    0.79978    1.000
    C494     C        0.28755    0.89980    0.78127    1.000
    C495     C        0.46940    0.01310    0.96231    1.000
    C496     C        0.21950    0.76590    0.96158    1.000
    C497     C        0.12867    0.86770    0.78228    1.000
    H235     H        0.11870    0.88260    0.75810    1.000
    C498     C        0.29806    0.03610    0.78154    1.000
    H236     H        0.27470    0.03620    0.75690    1.000
    C499     C        0.10373    0.88990    0.80023    1.000
    C500     C        0.12043    0.20170    0.83202    1.000
    H237     H        0.10330    0.18850    0.84400    1.000
    C501     C        0.06376    0.13030    0.77714    1.000
    C502     C        0.17410    0.80040    0.89217    1.000
    C503     C        0.50150    0.06370    0.98406    1.000
    C504     C        0.19694    0.80440    0.78124    1.000
    C505     C        0.35300    0.10140    0.83627    1.000
    H238     H        0.36540    0.14480    0.84860    1.000
    C506     C        0.34950    0.97160    0.83571    1.000
    H239     H        0.36010    0.92750    0.84780    1.000
    C507     C        0.11770    0.86590    0.83629    1.000
    H240     H        0.10080    0.88000    0.84830    1.000
    C508     C        0.10413    0.17940    0.79518    1.000
    C509     C        0.24920    0.57650    0.96070    1.000
    C510     C        0.12950    0.20450    0.77695    1.000
    H241     H        0.11800    0.19430    0.75200    1.000
    C511     C        0.43530    0.02480    0.92386    1.000
    C512     C        0.18330    0.80130    0.83617    1.000
    H242     H        0.21060    0.77330    0.84840    1.000
    C513     C        0.17080    0.24380    0.79569    1.000
    C514     C        0.20040    0.24800    0.98130    1.000
    C515     C        0.31330    0.97270    0.79930    1.000
    C516     C        0.37010    0.03530    0.85407    1.000
    C517     C        0.19940    0.26010    0.92143    1.000
    C518     C        0.25110    0.70560    0.97395    1.000
    C519     C        0.50050    0.19430    0.99700    1.000
    C520     C        0.18590    0.26430    0.83230    1.000
    H243     H        0.21290    0.29290    0.84440    1.000
    C521     C        0.40670    0.03240    0.89215    1.000
    C522     C        0.53230    0.18280    0.03340    1.000
    C523     C        0.53430    0.22650    0.06020    1.000
    H244     H        0.55690    0.22010    0.08480    1.000
    C524     C        0.27900    0.56270    0.99700    1.000
    C525     C        0.22050    0.80700    0.99087    1.000
    C526     C        0.33900    0.64400    0.99410    1.000
    C527     C        0.46865    0.94660    0.97927    1.000
    C528     C        0.27460    0.25880    0.97993    1.000
    C529     C        0.63810    0.13320    0.02830    1.000
    H245     H        0.65950    0.12770    0.05330    1.000
    C530     C        0.15710    0.82100    0.85393    1.000
    C531     C        0.25580    0.65200    0.94711    1.000
    H246     H        0.23420    0.66160    0.92100    1.000
    C532     C        0.13890    0.17040    0.97980    1.000
    C533     C        0.38500    0.64740    0.00490    1.000
    H247     H        0.40650    0.63980    0.02960    1.000
    C534     C        0.16370    0.16010    0.01890    1.000
    C535     C        0.10800    0.11340    0.95640    1.000
    H248     H        0.09110    0.11710    0.93080    1.000
    C536     C        0.15480    0.34930    0.04650    1.000
    H249     H        0.17200    0.34590    0.07210    1.000
    C537     C        0.16180    0.24320    0.85091    1.000
    C538     C        0.18000    0.25650    0.88886    1.000
    C539     C        0.16080    0.29440    0.02430    1.000
    C540     C        0.55800    0.14290    0.97850    1.000
    C541     C        0.14600    0.24190    0.96570    1.000
    H250     H        0.12810    0.24640    0.93880    1.000
    C542     C        0.50680    0.14030    0.97050    1.000
    H251     H        0.48420    0.14890    0.94440    1.000
    C543     C        0.13550    0.30080    0.98560    1.000
    C544     C        0.31280    0.62720    0.01630    1.000
    H252     H        0.33420    0.61860    0.04260    1.000
    C545     C        0.27870    0.49650    0.01340    1.000
    H253     H        0.30050    0.48620    0.03780    1.000
    C546     C        0.46780    0.24890    0.98670    1.000
    H254     H        0.44590    0.25490    0.96190    1.000
    C547     C        0.21420    0.52350    0.93910    1.000
    H255     H        0.19320    0.53230    0.91430    1.000
    C548     C        0.57610    0.15910    0.95450    1.000
    H256     H        0.55540    0.17050    0.93000    1.000
    C549     C        0.30880    0.65420    0.95790    1.000
    C550     C        0.32340    0.66590    0.93230    1.000
    H257     H        0.30130    0.67030    0.90740    1.000
    C551     C        0.56580    0.11870    0.03865    1.000
    H258     H        0.58820    0.11010    0.06470    1.000
    C552     C        0.58960    0.13140    0.01700    1.000
    C553     C        0.15810    0.10190    0.03390    1.000
    H259     H        0.17390    0.09960    0.05950    1.000
    C554     C        0.24430    0.44730    0.99150    1.000
    H260     H        0.24240    0.40300    0.00140    1.000
    C555     C        0.19390    0.23060    0.03770    1.000
    H261     H        0.21170    0.22730    0.06460    1.000
    C556     C        0.50060    0.28220    0.04940    1.000
    H262     H        0.50040    0.31250    0.06740    1.000
    C557     C        0.46660    0.29380    0.01180    1.000
    H263     H        0.44450    0.33100    0.00490    1.000
    C558     C        0.10630    0.05360    0.97550    1.000
    H264     H        0.08730    0.01510    0.96190    1.000
    C559     C        0.62480    0.15830    0.96700    1.000
    H265     H        0.63650    0.16810    0.95070    1.000
    C560     C        0.36880    0.67090    0.94290    1.000
    H266     H        0.37880    0.68040    0.92550    1.000
    C561     C        0.40240    0.66220    0.97970    1.000
    H267     H        0.43480    0.66590    0.98750    1.000
    C562     C        0.10430    0.35760    0.97000    1.000
    H268     H        0.08630    0.36130    0.94450    1.000
    C563     C        0.10010    0.40870    0.99240    1.000
    H269     H        0.07980    0.44760    0.98140    1.000
    C564     C        0.12530    0.40510    0.03140    1.000
    H270     H        0.12130    0.44020    0.04590    1.000
    C565     C        0.21200    0.46310    0.95440    1.000
    H271     H        0.18860    0.42940    0.94050    1.000
    C566     C        0.65580    0.14300    0.00360    1.000
    H272     H        0.68820    0.13930    0.01170    1.000
    C567     C        0.13230    0.04590    0.01610    1.000
    H273     H        0.13040    0.00430    0.02810    1.000
    Cu22     Cu       0.71781    0.32308    0.72179    1.000
    Cu23     Cu       0.77816    0.24912    0.78090    1.000
    Cu24     Cu       0.49395    0.53609    0.77988    1.000
    O85      O        0.76109    0.66650    0.74829    1.000
    O86      O        0.81278    0.72980    0.79822    1.000
    O87      O        0.73385    0.26830    0.79916    1.000
    O88      O        0.80635    0.34680    0.79937    1.000
    O89      O        0.54557    0.60900    0.79632    1.000
    O90      O        0.68310    0.33150    0.74977    1.000
    O91      O        0.75600    0.40670    0.74852    1.000
    O92      O        0.55396    0.46420    0.75045    1.000
    O93      O        0.54207    0.45980    0.79915    1.000
    O94      O        0.55220    0.61210    0.74452    1.000
    O95      O        0.73654    0.80160    0.79581    1.000
    O96      O        0.68448    0.73910    0.74471    1.000
    C568     C        0.56530    0.44460    0.78137    1.000
    C569     C        0.70119    0.75920    0.77753    1.000
    C570     C        0.72480    0.75700    0.96139    1.000
    C571     C        0.69260    0.28410    0.92408    1.000
    C572     C        0.79603    0.67050    0.78019    1.000
    C573     C        0.81650    0.60130    0.79922    1.000
    C574     C        0.66800    0.32410    0.79978    1.000
    C575     C        0.78755    0.39980    0.78127    1.000
    C576     C        0.96940    0.51310    0.96231    1.000
    C577     C        0.71950    0.26590    0.96158    1.000
    C578     C        0.62867    0.36770    0.78228    1.000
    H274     H        0.61870    0.38260    0.75810    1.000
    C579     C        0.79806    0.53610    0.78154    1.000
    H275     H        0.77470    0.53620    0.75690    1.000
    C580     C        0.60373    0.38990    0.80023    1.000
    C581     C        0.62043    0.70170    0.83202    1.000
    H276     H        0.60330    0.68850    0.84400    1.000
    C582     C        0.56376    0.63030    0.77714    1.000
    C583     C        0.67410    0.30040    0.89217    1.000
    C584     C        0.00150    0.56370    0.98406    1.000
    C585     C        0.69694    0.30440    0.78124    1.000
    C586     C        0.85300    0.60140    0.83627    1.000
    H277     H        0.86540    0.64480    0.84860    1.000
    C587     C        0.84950    0.47160    0.83571    1.000
    H278     H        0.86010    0.42750    0.84780    1.000
    C588     C        0.61770    0.36590    0.83629    1.000
    H279     H        0.60080    0.38000    0.84830    1.000
    C589     C        0.60413    0.67940    0.79518    1.000
    C590     C        0.74920    0.07650    0.96070    1.000
    C591     C        0.62950    0.70450    0.77695    1.000
    H280     H        0.61800    0.69430    0.75200    1.000
    C592     C        0.93530    0.52480    0.92386    1.000
    C593     C        0.68330    0.30130    0.83617    1.000
    H281     H        0.71060    0.27330    0.84840    1.000
    C594     C        0.67080    0.74380    0.79569    1.000
    C595     C        0.70040    0.74800    0.98130    1.000
    C596     C        0.81330    0.47270    0.79930    1.000
    C597     C        0.87010    0.53530    0.85407    1.000
    C598     C        0.69940    0.76010    0.92143    1.000
    C599     C        0.75110    0.20560    0.97395    1.000
    C600     C        0.00050    0.69430    0.99700    1.000
    C601     C        0.68590    0.76430    0.83230    1.000
    H282     H        0.71290    0.79290    0.84440    1.000
    C602     C        0.90670    0.53240    0.89215    1.000
    C603     C        0.03230    0.68280    0.03340    1.000
    C604     C        0.03430    0.72650    0.06020    1.000
    H283     H        0.05690    0.72010    0.08480    1.000
    C605     C        0.77900    0.06270    0.99700    1.000
    C606     C        0.72050    0.30700    0.99087    1.000
    C607     C        0.83900    0.14400    0.99410    1.000
    C608     C        0.96865    0.44660    0.97927    1.000
    C609     C        0.77460    0.75880    0.97993    1.000
    C610     C        0.13810    0.63320    0.02830    1.000
    H284     H        0.15950    0.62770    0.05330    1.000
    C611     C        0.65710    0.32100    0.85393    1.000
    C612     C        0.75580    0.15200    0.94711    1.000
    H285     H        0.73420    0.16160    0.92100    1.000
    C613     C        0.63890    0.67040    0.97980    1.000
    C614     C        0.88500    0.14740    0.00490    1.000
    H286     H        0.90650    0.13980    0.02960    1.000
    C615     C        0.66370    0.66010    0.01890    1.000
    C616     C        0.60800    0.61340    0.95640    1.000
    H287     H        0.59110    0.61710    0.93080    1.000
    C617     C        0.65480    0.84930    0.04650    1.000
    H288     H        0.67200    0.84590    0.07210    1.000
    C618     C        0.66180    0.74320    0.85091    1.000
    C619     C        0.68000    0.75650    0.88886    1.000
    C620     C        0.66080    0.79440    0.02430    1.000
    C621     C        0.05800    0.64290    0.97850    1.000
    C622     C        0.64600    0.74190    0.96570    1.000
    H289     H        0.62810    0.74640    0.93880    1.000
    C623     C        0.00680    0.64030    0.97050    1.000
    H290     H        0.98420    0.64890    0.94440    1.000
    C624     C        0.63550    0.80080    0.98560    1.000
    C625     C        0.81280    0.12720    0.01630    1.000
    H291     H        0.83420    0.11860    0.04260    1.000
    C626     C        0.77870    0.99650    0.01340    1.000
    H292     H        0.80050    0.98620    0.03780    1.000
    C627     C        0.96780    0.74890    0.98670    1.000
    H293     H        0.94590    0.75490    0.96190    1.000
    C628     C        0.71420    0.02350    0.93910    1.000
    H294     H        0.69320    0.03230    0.91430    1.000
    C629     C        0.07610    0.65910    0.95450    1.000
    H295     H        0.05540    0.67050    0.93000    1.000
    C630     C        0.80880    0.15420    0.95790    1.000
    C631     C        0.82340    0.16590    0.93230    1.000
    H296     H        0.80130    0.17030    0.90740    1.000
    C632     C        0.06580    0.61870    0.03865    1.000
    H297     H        0.08820    0.61010    0.06470    1.000
    C633     C        0.08960    0.63140    0.01700    1.000
    C634     C        0.65810    0.60190    0.03390    1.000
    H298     H        0.67390    0.59960    0.05950    1.000
    C635     C        0.74430    0.94730    0.99150    1.000
    H299     H        0.74240    0.90300    0.00140    1.000
    C636     C        0.69390    0.73060    0.03770    1.000
    H300     H        0.71170    0.72730    0.06460    1.000
    C637     C        0.00060    0.78220    0.04940    1.000
    H301     H        0.00040    0.81250    0.06740    1.000
    C638     C        0.96660    0.79380    0.01180    1.000
    H302     H        0.94450    0.83100    0.00490    1.000
    C639     C        0.60630    0.55360    0.97550    1.000
    H303     H        0.58730    0.51510    0.96190    1.000
    C640     C        0.12480    0.65830    0.96700    1.000
    H304     H        0.13650    0.66810    0.95070    1.000
    C641     C        0.86880    0.17090    0.94290    1.000
    H305     H        0.87880    0.18040    0.92550    1.000
    C642     C        0.90240    0.16220    0.97970    1.000
    H306     H        0.93480    0.16590    0.98750    1.000
    C643     C        0.60430    0.85760    0.97000    1.000
    H307     H        0.58630    0.86130    0.94450    1.000
    C644     C        0.60010    0.90870    0.99240    1.000
    H308     H        0.57980    0.94760    0.98140    1.000
    C645     C        0.62530    0.90510    0.03140    1.000
    H309     H        0.62130    0.94020    0.04590    1.000
    C646     C        0.71200    0.96310    0.95440    1.000
    H310     H        0.68860    0.92940    0.94050    1.000
    C647     C        0.15580    0.64300    0.00360    1.000
    H311     H        0.18820    0.63930    0.01170    1.000
    C648     C        0.63230    0.54590    0.01610    1.000
    H312     H        0.63040    0.50430    0.02810    1.000
