# CIF file generated by openbabel 3.1.0, see https://openbabel.org
data_I
_chemical_name_common 'EGELUY_manual'
_cell_length_a 16.243
_cell_length_b 6.6352
_cell_length_c 13.4943
_cell_angle_alpha 90
_cell_angle_beta 90
_cell_angle_gamma 90
_space_group_name_H-M_alt 'P 1'
_space_group_name_Hall 'P 1'
loop_
    _symmetry_equiv_pos_as_xyz
    x,y,z
loop_
    _atom_site_label
    _atom_site_type_symbol
    _atom_site_fract_x
    _atom_site_fract_y
    _atom_site_fract_z
    _atom_site_occupancy
    C1       C        0.21149    0.06495    0.77720    1.000
    C2       C        0.28099    0.06482    0.71482    1.000
    O3       O        0.07492    0.07414    0.91000    1.000
    O4       O        0.41953    0.07365    0.58533    1.000
    H5       H        0.18582    0.92219    0.80017    1.000
    H6       H        0.30639    0.92201    0.69161    1.000
    C7       C        0.28811    0.92714    0.27833    1.000
    C8       C        0.21978    0.92918    0.21419    1.000
    O9       O        0.42151    0.91473    0.41462    1.000
    O10      O        0.08111    0.92368    0.08391    1.000
    H11      H        0.31392    0.06915    0.30219    1.000
    H12      H        0.19532    0.07262    0.19045    1.000
    C13      C        0.78679    0.56495    0.22339    1.000
    C14      C        0.71777    0.56482    0.28648    1.000
    O15      O        0.92225    0.57284    0.08903    1.000
    O16      O        0.57936    0.57361    0.41636    1.000
    H17      H        0.81254    0.42214    0.20056    1.000
    H18      H        0.69262    0.42203    0.31016    1.000
    C19      C        0.71270    0.42712    0.72105    1.000
    C20      C        0.78101    0.42916    0.78532    1.000
    O21      O        0.57814    0.41468    0.58600    1.000
    O22      O        0.91932    0.42238    0.91662    1.000
    H23      H        0.68685    0.56911    0.69726    1.000
    H24      H        0.80540    0.57264    0.80916    1.000
    C25      C        0.78664    0.92809    0.22321    1.000
    C26      C        0.71760    0.92798    0.28645    1.000
    O27      O        0.92056    0.91857    0.08636    1.000
    O28      O        0.57915    0.91670    0.41696    1.000
    H29      H        0.81233    0.07085    0.20027    1.000
    H30      H        0.69234    0.07077    0.31018    1.000
    C31      C        0.71367    0.06398    0.72200    1.000
    C32      C        0.78204    0.06600    0.78627    1.000
    O33      O        0.57771    0.07195    0.58721    1.000
    O34      O        0.91973    0.07914    0.91680    1.000
    H35      H        0.68869    0.92045    0.69902    1.000
    H36      H        0.80731    0.92389    0.81090    1.000
    C37      C        0.21167    0.42811    0.77741    1.000
    C38      C        0.28118    0.42801    0.71486    1.000
    O39      O        0.07699    0.41722    0.91308    1.000
    O40      O        0.41973    0.41669    0.58471    1.000
    H41      H        0.18609    0.57086    0.80047    1.000
    H42      H        0.30672    0.57079    0.69159    1.000
    C43      C        0.28714    0.56392    0.27742    1.000
    C44      C        0.21874    0.56595    0.21328    1.000
    O45      O        0.42194    0.57195    0.41339    1.000
    O46      O        0.08029    0.57795    0.08429    1.000
    H47      H        0.31209    0.42045    0.30051    1.000
    H48      H        0.19341    0.42384    0.18878    1.000
    Al49     Al       0.99972    0.00066    0.00069    1.000
    Al50     Al       0.49926    0.99396    0.50124    1.000
    Al51     Al       0.99984    0.49480    0.00083    1.000
    Al52     Al       0.49959    0.49431    0.50047    1.000
    O53      O        0.00101    0.24736    0.05567    1.000
    C54      C        0.17582    0.24632    0.81010    1.000
    C55      C        0.31725    0.24634    0.68271    1.000
    C56      C        0.10438    0.24604    0.88136    1.000
    C57      C        0.39026    0.24548    0.61385    1.000
    O58      O        0.49840    0.74380    0.55406    1.000
    C59      C        0.32259    0.74469    0.31177    1.000
    C60      C        0.18336    0.74873    0.18124    1.000
    C61      C        0.39330    0.74345    0.38392    1.000
    C62      C        0.11028    0.75045    0.11266    1.000
    O63      O        0.99935    0.74765    0.96002    1.000
    C64      C        0.82200    0.74633    0.18969    1.000
    C65      C        0.68157    0.74633    0.31880    1.000
    C66      C        0.89300    0.74606    0.11780    1.000
    C67      C        0.60863    0.74547    0.38784    1.000
    O68      O        0.49869    0.24381    0.44786    1.000
    C69      C        0.67806    0.24465    0.68769    1.000
    C70      C        0.81737    0.24876    0.81858    1.000
    C71      C        0.60670    0.24353    0.61631    1.000
    C72      C        0.89014    0.25043    0.88801    1.000
    H73      H        0.49741    0.74340    0.61791    1.000
    H74      H        0.49709    0.24341    0.38404    1.000
    H75      H        0.00203    0.24730    0.11971    1.000
    H76      H        0.99935    0.74765    0.88591    1.000
