# CIF file generated by openbabel 3.1.0, see https://openbabel.org
data_I
_chemical_name_common 'EBUQEX_clean'
_cell_length_a 16.2668
_cell_length_b 16.2668
_cell_length_c 24.016
_cell_angle_alpha 91.3136
_cell_angle_beta 91.3136
_cell_angle_gamma 107.353
_space_group_name_H-M_alt 'P 1'
_space_group_name_Hall 'P 1'
loop_
    _symmetry_equiv_pos_as_xyz
    x,y,z
loop_
    _atom_site_label
    _atom_site_type_symbol
    _atom_site_fract_x
    _atom_site_fract_y
    _atom_site_fract_z
    _atom_site_occupancy
    Na1      Na       0.93288    0.07430    0.00995    1.000
    Na2      Na       0.92570    0.06712    0.49005    1.000
    Na3      Na       0.06712    0.92570    0.99005    1.000
    Na4      Na       0.07430    0.93288    0.50995    1.000
    H1       H        0.45950    0.35450    0.84870    1.000
    H2       H        0.46220    0.49240    0.89540    1.000
    H3       H        0.77770    0.55070    0.93760    1.000
    H4       H        0.77100    0.40680    0.90170    1.000
    H5       H        0.51620    0.13600    0.81810    1.000
    H6       H        0.37300    0.12260    0.77810    1.000
    H7       H        0.17590    0.33430    0.76230    1.000
    H8       H        0.17420    0.46480    0.81500    1.000
    H9       H        0.38940    0.67940    0.96180    1.000
    H10      H        0.54070    0.70390    0.98910    1.000
    H11      H        0.66600    0.61860    0.05130    1.000
    H12      H        0.77120    0.73180    0.09330    1.000
    H13      H        0.83440    0.83160    0.94460    1.000
    H14      H        0.72720    0.71980    0.90290    1.000
    H15      H        0.93420    0.91320    0.12140    1.000
    H16      H        0.67020    0.22540    0.78550    1.000
    H17      H        0.76780    0.14760    0.79070    1.000
    H18      H        0.77830    0.17430    0.95690    1.000
    H19      H        0.68210    0.25290    0.95210    1.000
    H20      H        0.91770    0.05810    0.83570    1.000
    H21      H        0.15020    0.18580    0.80150    1.000
    H22      H        0.05140    0.09120    0.74200    1.000
    H23      H        0.23620    0.10240    0.63300    1.000
    H24      H        0.33440    0.19980    0.69110    1.000
    H25      H        0.21700    0.54620    0.97290    1.000
    H26      H        0.13450    0.63710    0.98870    1.000
    H27      H        0.18320    0.72780    0.83650    1.000
    H28      H        0.27090    0.64190    0.82210    1.000
    H29      H        0.05220    0.82760    0.88480    1.000
    H30      H        0.64550    0.54050    0.65130    1.000
    H31      H        0.50760    0.53780    0.60460    1.000
    H32      H        0.44930    0.22230    0.56240    1.000
    H33      H        0.59320    0.22900    0.59830    1.000
    H34      H        0.86400    0.48380    0.68190    1.000
    H35      H        0.87740    0.62700    0.72190    1.000
    H36      H        0.66570    0.82410    0.73770    1.000
    H37      H        0.53520    0.82580    0.68500    1.000
    H38      H        0.32060    0.61060    0.53820    1.000
    H39      H        0.29610    0.45930    0.51090    1.000
    H40      H        0.38140    0.33400    0.44870    1.000
    H41      H        0.26820    0.22880    0.40670    1.000
    H42      H        0.16840    0.16560    0.55540    1.000
    H43      H        0.28020    0.27280    0.59710    1.000
    H44      H        0.08680    0.06580    0.37860    1.000
    H45      H        0.77460    0.32980    0.71450    1.000
    H46      H        0.85240    0.23220    0.70930    1.000
    H47      H        0.82570    0.22170    0.54310    1.000
    H48      H        0.74710    0.31790    0.54790    1.000
    H49      H        0.94190    0.08230    0.66430    1.000
    H50      H        0.81420    0.84980    0.69850    1.000
    H51      H        0.90880    0.94860    0.75800    1.000
    H52      H        0.89760    0.76380    0.86700    1.000
    H53      H        0.80020    0.66560    0.80890    1.000
    H54      H        0.45380    0.78300    0.52710    1.000
    H55      H        0.36290    0.86550    0.51130    1.000
    H56      H        0.27220    0.81680    0.66350    1.000
    H57      H        0.35810    0.72910    0.67790    1.000
    H58      H        0.17240    0.94780    0.61520    1.000
    H59      H        0.54050    0.64550    0.15130    1.000
    H60      H        0.53780    0.50760    0.10460    1.000
    H61      H        0.22230    0.44930    0.06240    1.000
    H62      H        0.22900    0.59320    0.09830    1.000
    H63      H        0.48380    0.86400    0.18190    1.000
    H64      H        0.62700    0.87740    0.22190    1.000
    H65      H        0.82410    0.66570    0.23770    1.000
    H66      H        0.82580    0.53520    0.18500    1.000
    H67      H        0.61060    0.32060    0.03820    1.000
    H68      H        0.45930    0.29610    0.01090    1.000
    H69      H        0.33400    0.38140    0.94870    1.000
    H70      H        0.22880    0.26820    0.90670    1.000
    H71      H        0.16560    0.16840    0.05540    1.000
    H72      H        0.27280    0.28020    0.09710    1.000
    H73      H        0.06580    0.08680    0.87860    1.000
    H74      H        0.32980    0.77460    0.21450    1.000
    H75      H        0.23220    0.85240    0.20930    1.000
    H76      H        0.22170    0.82570    0.04310    1.000
    H77      H        0.31790    0.74710    0.04790    1.000
    H78      H        0.08230    0.94190    0.16430    1.000
    H79      H        0.84980    0.81420    0.19850    1.000
    H80      H        0.94860    0.90880    0.25800    1.000
    H81      H        0.76380    0.89760    0.36700    1.000
    H82      H        0.66560    0.80020    0.30890    1.000
    H83      H        0.78300    0.45380    0.02710    1.000
    H84      H        0.86550    0.36290    0.01130    1.000
    H85      H        0.81680    0.27220    0.16350    1.000
    H86      H        0.72910    0.35810    0.17790    1.000
    H87      H        0.94780    0.17240    0.11520    1.000
    H88      H        0.35450    0.45950    0.34870    1.000
    H89      H        0.49240    0.46220    0.39540    1.000
    H90      H        0.55070    0.77770    0.43760    1.000
    H91      H        0.40680    0.77100    0.40170    1.000
    H92      H        0.13600    0.51620    0.31810    1.000
    H93      H        0.12260    0.37300    0.27810    1.000
    H94      H        0.33430    0.17590    0.26230    1.000
    H95      H        0.46480    0.17420    0.31500    1.000
    H96      H        0.67940    0.38940    0.46180    1.000
    H97      H        0.70390    0.54070    0.48910    1.000
    H98      H        0.61860    0.66600    0.55130    1.000
    H99      H        0.73180    0.77120    0.59330    1.000
    H100     H        0.83160    0.83440    0.44460    1.000
    H101     H        0.71980    0.72720    0.40290    1.000
    H102     H        0.91320    0.93420    0.62140    1.000
    H103     H        0.22540    0.67020    0.28550    1.000
    H104     H        0.14760    0.76780    0.29070    1.000
    H105     H        0.17430    0.77830    0.45690    1.000
    H106     H        0.25290    0.68210    0.45210    1.000
    H107     H        0.05810    0.91770    0.33570    1.000
    H108     H        0.18580    0.15020    0.30150    1.000
    H109     H        0.09120    0.05140    0.24200    1.000
    H110     H        0.10240    0.23620    0.13300    1.000
    H111     H        0.19980    0.33440    0.19110    1.000
    H112     H        0.54620    0.21700    0.47290    1.000
    H113     H        0.63710    0.13450    0.48870    1.000
    H114     H        0.72780    0.18320    0.33650    1.000
    H115     H        0.64190    0.27090    0.32210    1.000
    H116     H        0.82760    0.05220    0.38480    1.000
    C1       C        0.53383    0.58903    0.94353    1.000
    C2       C        0.61729    0.58295    0.94501    1.000
    C3       C        0.64217    0.51435    0.92337    1.000
    C4       C        0.72832    0.50798    0.92499    1.000
    C5       C        0.72481    0.42893    0.90492    1.000
    C6       C        0.63542    0.38488    0.88931    1.000
    C7       C        0.60435    0.30083    0.86679    1.000
    C8       C        0.52211    0.26397    0.84308    1.000
    C9       C        0.48857    0.17843    0.81859    1.000
    C10      C        0.40942    0.17128    0.79648    1.000
    C11      C        0.39097    0.25121    0.80614    1.000
    C12      C        0.31571    0.27003    0.78938    1.000
    C13      C        0.29478    0.34456    0.80539    1.000
    C14      C        0.21752    0.36522    0.78835    1.000
    C15      C        0.21665    0.43731    0.81704    1.000
    C16      C        0.29449    0.46345    0.85155    1.000
    C17      C        0.31718    0.53478    0.88908    1.000
    C18      C        0.39593    0.56645    0.91857    1.000
    C19      C        0.42314    0.64446    0.95213    1.000
    C20      C        0.50670    0.65792    0.96719    1.000
    C21      C        0.68593    0.65659    0.97207    1.000
    C22      C        0.69993    0.66151    0.02953    1.000
    C23      C        0.76329    0.72909    0.05474    1.000
    C24      C        0.81503    0.79279    0.02308    1.000
    C25      C        0.80055    0.78863    0.96639    1.000
    C26      C        0.73631    0.72125    0.94131    1.000
    C27      C        0.88276    0.86740    0.04847    1.000
    C28      C        0.66495    0.24705    0.86839    1.000
    C29      C        0.69177    0.21533    0.82008    1.000
    C30      C        0.75044    0.16888    0.82320    1.000
    C31      C        0.78375    0.15369    0.87436    1.000
    C32      C        0.75708    0.18482    0.92243    1.000
    C33      C        0.69891    0.23147    0.91941    1.000
    C34      C        0.84807    0.10535    0.87910    1.000
    C35      C        0.25294    0.20536    0.75225    1.000
    C36      C        0.16762    0.17036    0.76725    1.000
    C37      C        0.10845    0.11281    0.73169    1.000
    C38      C        0.13296    0.08730    0.68143    1.000
    C39      C        0.21856    0.11996    0.66659    1.000
    C40      C        0.27751    0.17831    0.70160    1.000
    C41      C        0.06925    0.02333    0.64311    1.000
    C42      C        0.25540    0.58574    0.89656    1.000
    C43      C        0.21194    0.58408    0.94553    1.000
    C44      C        0.16109    0.63763    0.95473    1.000
    C45      C        0.14987    0.69097    0.91424    1.000
    C46      C        0.19089    0.69195    0.86443    1.000
    C47      C        0.24335    0.64015    0.85576    1.000
    C48      C        0.09739    0.75049    0.92426    1.000
    C49      C        0.41097    0.46617    0.55647    1.000
    C50      C        0.41705    0.38271    0.55499    1.000
    C51      C        0.48565    0.35783    0.57663    1.000
    C52      C        0.49202    0.27168    0.57501    1.000
    C53      C        0.57107    0.27519    0.59508    1.000
    C54      C        0.61512    0.36458    0.61069    1.000
    C55      C        0.69917    0.39565    0.63321    1.000
    C56      C        0.73603    0.47789    0.65692    1.000
    C57      C        0.82157    0.51143    0.68141    1.000
    C58      C        0.82872    0.59058    0.70352    1.000
    C59      C        0.74879    0.60903    0.69386    1.000
    C60      C        0.72997    0.68429    0.71062    1.000
    C61      C        0.65544    0.70522    0.69461    1.000
    C62      C        0.63478    0.78248    0.71165    1.000
    C63      C        0.56269    0.78335    0.68296    1.000
    C64      C        0.53655    0.70551    0.64845    1.000
    C65      C        0.46522    0.68282    0.61092    1.000
    C66      C        0.43355    0.60407    0.58143    1.000
    C67      C        0.35554    0.57686    0.54787    1.000
    C68      C        0.34208    0.49330    0.53281    1.000
    C69      C        0.34341    0.31407    0.52793    1.000
    C70      C        0.33849    0.30007    0.47047    1.000
    C71      C        0.27091    0.23671    0.44526    1.000
    C72      C        0.20721    0.18497    0.47692    1.000
    C73      C        0.21137    0.19945    0.53361    1.000
    C74      C        0.27875    0.26369    0.55869    1.000
    C75      C        0.13260    0.11724    0.45153    1.000
    C76      C        0.75295    0.33505    0.63161    1.000
    C77      C        0.78467    0.30823    0.67992    1.000
    C78      C        0.83112    0.24956    0.67680    1.000
    C79      C        0.84631    0.21625    0.62564    1.000
    C80      C        0.81518    0.24292    0.57757    1.000
    C81      C        0.76853    0.30109    0.58059    1.000
    C82      C        0.89465    0.15193    0.62090    1.000
    C83      C        0.79464    0.74706    0.74775    1.000
    C84      C        0.82964    0.83238    0.73275    1.000
    C85      C        0.88719    0.89155    0.76831    1.000
    C86      C        0.91270    0.86704    0.81857    1.000
    C87      C        0.88004    0.78144    0.83341    1.000
    C88      C        0.82169    0.72249    0.79840    1.000
    C89      C        0.97667    0.93075    0.85689    1.000
    C90      C        0.41426    0.74460    0.60344    1.000
    C91      C        0.41592    0.78806    0.55447    1.000
    C92      C        0.36237    0.83891    0.54527    1.000
    C93      C        0.30903    0.85013    0.58576    1.000
    C94      C        0.30805    0.80911    0.63557    1.000
    C95      C        0.35985    0.75665    0.64424    1.000
    C96      C        0.24951    0.90261    0.57574    1.000
    C97      C        0.46617    0.41097    0.05647    1.000
    C98      C        0.38271    0.41705    0.05499    1.000
    C99      C        0.35783    0.48565    0.07663    1.000
    C100     C        0.27168    0.49202    0.07501    1.000
    C101     C        0.27519    0.57107    0.09508    1.000
    C102     C        0.36458    0.61512    0.11069    1.000
    C103     C        0.39565    0.69917    0.13321    1.000
    C104     C        0.47789    0.73603    0.15692    1.000
    C105     C        0.51143    0.82157    0.18141    1.000
    C106     C        0.59058    0.82872    0.20352    1.000
    C107     C        0.60903    0.74879    0.19386    1.000
    C108     C        0.68429    0.72997    0.21062    1.000
    C109     C        0.70522    0.65544    0.19461    1.000
    C110     C        0.78248    0.63478    0.21165    1.000
    C111     C        0.78335    0.56269    0.18296    1.000
    C112     C        0.70551    0.53655    0.14845    1.000
    C113     C        0.68282    0.46522    0.11092    1.000
    C114     C        0.60407    0.43355    0.08143    1.000
    C115     C        0.57686    0.35554    0.04787    1.000
    C116     C        0.49330    0.34208    0.03281    1.000
    C117     C        0.31407    0.34341    0.02793    1.000
    C118     C        0.30007    0.33849    0.97047    1.000
    C119     C        0.23671    0.27091    0.94526    1.000
    C120     C        0.18497    0.20721    0.97692    1.000
    C121     C        0.19945    0.21137    0.03361    1.000
    C122     C        0.26369    0.27875    0.05869    1.000
    C123     C        0.11724    0.13260    0.95153    1.000
    C124     C        0.33505    0.75295    0.13161    1.000
    C125     C        0.30823    0.78467    0.17992    1.000
    C126     C        0.24956    0.83112    0.17680    1.000
    C127     C        0.21625    0.84631    0.12564    1.000
    C128     C        0.24292    0.81518    0.07757    1.000
    C129     C        0.30109    0.76853    0.08059    1.000
    C130     C        0.15193    0.89465    0.12090    1.000
    C131     C        0.74706    0.79464    0.24775    1.000
    C132     C        0.83238    0.82964    0.23275    1.000
    C133     C        0.89155    0.88719    0.26831    1.000
    C134     C        0.86704    0.91270    0.31857    1.000
    C135     C        0.78144    0.88004    0.33341    1.000
    C136     C        0.72249    0.82169    0.29840    1.000
    C137     C        0.93075    0.97667    0.35689    1.000
    C138     C        0.74460    0.41426    0.10344    1.000
    C139     C        0.78806    0.41592    0.05447    1.000
    C140     C        0.83891    0.36237    0.04527    1.000
    C141     C        0.85013    0.30903    0.08576    1.000
    C142     C        0.80911    0.30805    0.13557    1.000
    C143     C        0.75665    0.35985    0.14424    1.000
    C144     C        0.90261    0.24951    0.07574    1.000
    C145     C        0.58903    0.53383    0.44353    1.000
    C146     C        0.58295    0.61729    0.44501    1.000
    C147     C        0.51435    0.64217    0.42337    1.000
    C148     C        0.50798    0.72832    0.42499    1.000
    C149     C        0.42893    0.72481    0.40492    1.000
    C150     C        0.38488    0.63542    0.38931    1.000
    C151     C        0.30083    0.60435    0.36679    1.000
    C152     C        0.26397    0.52211    0.34308    1.000
    C153     C        0.17843    0.48857    0.31859    1.000
    C154     C        0.17128    0.40942    0.29648    1.000
    C155     C        0.25121    0.39097    0.30614    1.000
    C156     C        0.27003    0.31571    0.28938    1.000
    C157     C        0.34456    0.29478    0.30539    1.000
    C158     C        0.36522    0.21752    0.28835    1.000
    C159     C        0.43731    0.21665    0.31704    1.000
    C160     C        0.46345    0.29449    0.35155    1.000
    C161     C        0.53478    0.31718    0.38908    1.000
    C162     C        0.56645    0.39593    0.41857    1.000
    C163     C        0.64446    0.42314    0.45213    1.000
    C164     C        0.65792    0.50670    0.46719    1.000
    C165     C        0.65659    0.68593    0.47207    1.000
    C166     C        0.66151    0.69993    0.52953    1.000
    C167     C        0.72909    0.76329    0.55474    1.000
    C168     C        0.79279    0.81503    0.52308    1.000
    C169     C        0.78863    0.80055    0.46639    1.000
    C170     C        0.72125    0.73631    0.44131    1.000
    C171     C        0.86740    0.88276    0.54847    1.000
    C172     C        0.24705    0.66495    0.36839    1.000
    C173     C        0.21533    0.69177    0.32008    1.000
    C174     C        0.16888    0.75044    0.32320    1.000
    C175     C        0.15369    0.78375    0.37436    1.000
    C176     C        0.18482    0.75708    0.42243    1.000
    C177     C        0.23147    0.69891    0.41941    1.000
    C178     C        0.10535    0.84807    0.37910    1.000
    C179     C        0.20536    0.25294    0.25225    1.000
    C180     C        0.17036    0.16762    0.26725    1.000
    C181     C        0.11281    0.10845    0.23169    1.000
    C182     C        0.08730    0.13296    0.18143    1.000
    C183     C        0.11996    0.21856    0.16659    1.000
    C184     C        0.17831    0.27751    0.20160    1.000
    C185     C        0.02333    0.06925    0.14311    1.000
    C186     C        0.58574    0.25540    0.39656    1.000
    C187     C        0.58408    0.21194    0.44553    1.000
    C188     C        0.63763    0.16109    0.45473    1.000
    C189     C        0.69097    0.14987    0.41424    1.000
    C190     C        0.69195    0.19089    0.36443    1.000
    C191     C        0.64015    0.24335    0.35576    1.000
    C192     C        0.75049    0.09739    0.42426    1.000
    N1       N        0.58672    0.43962    0.89967    1.000
    N2       N        0.46085    0.30495    0.83561    1.000
    N3       N        0.34147    0.40739    0.84312    1.000
    N4       N        0.46398    0.53378    0.91556    1.000
    N5       N        0.56038    0.41328    0.60033    1.000
    N6       N        0.69505    0.53915    0.66439    1.000
    N7       N        0.59261    0.65853    0.65688    1.000
    N8       N        0.46622    0.53602    0.58444    1.000
    N9       N        0.41328    0.56038    0.10033    1.000
    N10      N        0.53915    0.69505    0.16439    1.000
    N11      N        0.65853    0.59261    0.15688    1.000
    N12      N        0.53602    0.46622    0.08444    1.000
    N13      N        0.43962    0.58672    0.39967    1.000
    N14      N        0.30495    0.46085    0.33561    1.000
    N15      N        0.40739    0.34147    0.34312    1.000
    N16      N        0.53378    0.46398    0.41556    1.000
    O1       O        0.92746    0.92470    0.02006    1.000
    O2       O        0.89185    0.86767    0.10231    1.000
    O3       O        0.87439    0.08549    0.82991    1.000
    O4       O        0.87481    0.08607    0.92311    1.000
    O5       O        0.98991    0.00595    0.65391    1.000
    O6       O        0.09670    0.98944    0.60305    1.000
    O7       O        0.07678    0.77050    0.96957    1.000
    O8       O        0.07718    0.78280    0.87763    1.000
    O9       O        0.07530    0.07254    0.47994    1.000
    O10      O        0.13233    0.10815    0.39769    1.000
    O11      O        0.91451    0.12561    0.67009    1.000
    O12      O        0.91393    0.12519    0.57689    1.000
    O13      O        0.99405    0.01009    0.84609    1.000
    O14      O        0.01056    0.90330    0.89695    1.000
    O15      O        0.22950    0.92322    0.53043    1.000
    O16      O        0.21720    0.92282    0.62237    1.000
    O17      O        0.07254    0.07530    0.97994    1.000
    O18      O        0.10815    0.13233    0.89769    1.000
    O19      O        0.12561    0.91451    0.17009    1.000
    O20      O        0.12519    0.91393    0.07689    1.000
    O21      O        0.01009    0.99405    0.34609    1.000
    O22      O        0.90330    0.01056    0.39695    1.000
    O23      O        0.92322    0.22950    0.03043    1.000
    O24      O        0.92282    0.21720    0.12237    1.000
    O25      O        0.92470    0.92746    0.52006    1.000
    O26      O        0.86767    0.89185    0.60231    1.000
    O27      O        0.08549    0.87439    0.32991    1.000
    O28      O        0.08607    0.87481    0.42311    1.000
    O29      O        0.00595    0.98991    0.15391    1.000
    O30      O        0.98944    0.09670    0.10305    1.000
    O31      O        0.77050    0.07678    0.46957    1.000
    O32      O        0.78280    0.07718    0.37763    1.000
