# CIF file generated by openbabel 3.1.0, see https://openbabel.org
data_I
_chemical_name_common 'image0'
_cell_length_a 17.8074
_cell_length_b 13.1145
_cell_length_c 11.0514
_cell_angle_alpha 90
_cell_angle_beta 103.844
_cell_angle_gamma 90
_space_group_name_H-M_alt 'P 1'
_space_group_name_Hall 'P 1'
loop_
    _symmetry_equiv_pos_as_xyz
    x,y,z
loop_
    _atom_site_label
    _atom_site_type_symbol
    _atom_site_fract_x
    _atom_site_fract_y
    _atom_site_fract_z
    _atom_site_occupancy
    Mg1      Mg       0.58662    0.03403    0.54347    1.000
    N1       N        0.68677    0.93120    0.61550    1.000
    O1       O        0.57715    0.98486    0.72229    1.000
    O2       O        0.63585    0.91444    0.90432    1.000
    O3       O        0.85157    0.65944    0.86760    1.000
    O4       O        0.91611    0.70314    0.72400    1.000
    O5       O        0.47874    0.08445    0.55380    1.000
    H1       H        0.46700    0.13600    0.52800    1.000
    C1       C        0.69094    0.89260    0.73030    1.000
    C2       C        0.74621    0.82200    0.78740    1.000
    H2       H        0.74700    0.79900    0.87700    1.000
    C3       C        0.80081    0.79030    0.72380    1.000
    C4       C        0.79819    0.83230    0.60730    1.000
    H3       H        0.83500    0.80800    0.55500    1.000
    C5       C        0.74046    0.90120    0.55650    1.000
    H4       H        0.73400    0.93000    0.47500    1.000
    C6       C        0.63005    0.93330    0.79210    1.000
    C7       C        0.86140    0.71080    0.77720    1.000
    Mg2      Mg       0.08662    0.53403    0.54347    1.000
    N2       N        0.18677    0.43120    0.61550    1.000
    O6       O        0.07715    0.48486    0.72229    1.000
    O7       O        0.13585    0.41444    0.90432    1.000
    O8       O        0.35157    0.15944    0.86760    1.000
    O9       O        0.41611    0.20314    0.72400    1.000
    O10      O        0.97874    0.58445    0.55380    1.000
    H5       H        0.96700    0.63600    0.52800    1.000
    C8       C        0.19094    0.39260    0.73030    1.000
    C9       C        0.24621    0.32200    0.78740    1.000
    H6       H        0.24700    0.29900    0.87700    1.000
    C10      C        0.30081    0.29030    0.72380    1.000
    C11      C        0.29819    0.33230    0.60730    1.000
    H7       H        0.33500    0.30800    0.55500    1.000
    C12      C        0.24046    0.40120    0.55650    1.000
    H8       H        0.23400    0.43000    0.47500    1.000
    C13      C        0.13005    0.43330    0.79210    1.000
    C14      C        0.36140    0.21080    0.77720    1.000
    Mg3      Mg       0.41338    0.03403    0.95653    1.000
    N3       N        0.31323    0.93120    0.88450    1.000
    O11      O        0.42285    0.98486    0.77771    1.000
    O12      O        0.36415    0.91444    0.59568    1.000
    O13      O        0.14843    0.65944    0.63240    1.000
    O14      O        0.08389    0.70314    0.77600    1.000
    O15      O        0.52126    0.08445    0.94620    1.000
    H9       H        0.53300    0.13600    0.97200    1.000
    C15      C        0.30906    0.89260    0.76970    1.000
    C16      C        0.25379    0.82200    0.71260    1.000
    H10      H        0.25300    0.79900    0.62300    1.000
    C17      C        0.19919    0.79030    0.77620    1.000
    C18      C        0.20181    0.83230    0.89270    1.000
    H11      H        0.16500    0.80800    0.94500    1.000
    C19      C        0.25954    0.90120    0.94350    1.000
    H12      H        0.26600    0.93000    0.02500    1.000
    C20      C        0.36995    0.93330    0.70790    1.000
    C21      C        0.13860    0.71080    0.72280    1.000
    Mg4      Mg       0.91338    0.53403    0.95653    1.000
    N4       N        0.81323    0.43120    0.88450    1.000
    O16      O        0.92285    0.48486    0.77771    1.000
    O17      O        0.86415    0.41444    0.59568    1.000
    O18      O        0.64843    0.15944    0.63240    1.000
    O19      O        0.58389    0.20314    0.77600    1.000
    O20      O        0.02126    0.58445    0.94620    1.000
    H13      H        0.03300    0.63600    0.97200    1.000
    C22      C        0.80906    0.39260    0.76970    1.000
    C23      C        0.75379    0.32200    0.71260    1.000
    H14      H        0.75300    0.29900    0.62300    1.000
    C24      C        0.69919    0.29030    0.77620    1.000
    C25      C        0.70181    0.33230    0.89270    1.000
    H15      H        0.66500    0.30800    0.94500    1.000
    C26      C        0.75954    0.40120    0.94350    1.000
    H16      H        0.76600    0.43000    0.02500    1.000
    C27      C        0.86995    0.43330    0.70790    1.000
    C28      C        0.63860    0.21080    0.72280    1.000
    Mg5      Mg       0.41338    0.96597    0.45653    1.000
    N5       N        0.31323    0.06880    0.38450    1.000
    O21      O        0.42285    0.01514    0.27771    1.000
    O22      O        0.36415    0.08556    0.09568    1.000
    O23      O        0.14843    0.34056    0.13240    1.000
    O24      O        0.08389    0.29686    0.27600    1.000
    O25      O        0.52126    0.91555    0.44620    1.000
    H17      H        0.53300    0.86400    0.47200    1.000
    C29      C        0.30906    0.10740    0.26970    1.000
    C30      C        0.25379    0.17800    0.21260    1.000
    H18      H        0.25300    0.20100    0.12300    1.000
    C31      C        0.19919    0.20970    0.27620    1.000
    C32      C        0.20181    0.16770    0.39270    1.000
    H19      H        0.16500    0.19200    0.44500    1.000
    C33      C        0.25954    0.09880    0.44350    1.000
    H20      H        0.26600    0.07000    0.52500    1.000
    C34      C        0.36995    0.06670    0.20790    1.000
    C35      C        0.13860    0.28920    0.22280    1.000
    Mg6      Mg       0.91338    0.46597    0.45653    1.000
    N6       N        0.81323    0.56880    0.38450    1.000
    O26      O        0.92285    0.51514    0.27771    1.000
    O27      O        0.86415    0.58556    0.09568    1.000
    O28      O        0.64843    0.84056    0.13240    1.000
    O29      O        0.58389    0.79686    0.27600    1.000
    O30      O        0.02126    0.41555    0.44620    1.000
    H21      H        0.03300    0.36400    0.47200    1.000
    C36      C        0.80906    0.60740    0.26970    1.000
    C37      C        0.75379    0.67800    0.21260    1.000
    H22      H        0.75300    0.70100    0.12300    1.000
    C38      C        0.69919    0.70970    0.27620    1.000
    C39      C        0.70181    0.66770    0.39270    1.000
    H23      H        0.66500    0.69200    0.44500    1.000
    C40      C        0.75954    0.59880    0.44350    1.000
    H24      H        0.76600    0.57000    0.52500    1.000
    C41      C        0.86995    0.56670    0.20790    1.000
    C42      C        0.63860    0.78920    0.22280    1.000
    Mg7      Mg       0.58662    0.96597    0.04347    1.000
    N7       N        0.68677    0.06880    0.11550    1.000
    O31      O        0.57715    0.01514    0.22229    1.000
    O32      O        0.63585    0.08556    0.40432    1.000
    O33      O        0.85157    0.34056    0.36760    1.000
    O34      O        0.91611    0.29686    0.22400    1.000
    O35      O        0.47874    0.91555    0.05380    1.000
    H25      H        0.46700    0.86400    0.02800    1.000
    C43      C        0.69094    0.10740    0.23030    1.000
    C44      C        0.74621    0.17800    0.28740    1.000
    H26      H        0.74700    0.20100    0.37700    1.000
    C45      C        0.80081    0.20970    0.22380    1.000
    C46      C        0.79819    0.16770    0.10730    1.000
    H27      H        0.83500    0.19200    0.05500    1.000
    C47      C        0.74046    0.09880    0.05650    1.000
    H28      H        0.73400    0.07000    0.97500    1.000
    C48      C        0.63005    0.06670    0.29210    1.000
    C49      C        0.86140    0.28920    0.27720    1.000
    Mg8      Mg       0.08662    0.46597    0.04347    1.000
    N8       N        0.18677    0.56880    0.11550    1.000
    O36      O        0.07715    0.51514    0.22229    1.000
    O37      O        0.13585    0.58556    0.40432    1.000
    O38      O        0.35157    0.84056    0.36760    1.000
    O39      O        0.41611    0.79686    0.22400    1.000
    O40      O        0.97874    0.41555    0.05380    1.000
    H29      H        0.96700    0.36400    0.02800    1.000
    C50      C        0.19094    0.60740    0.23030    1.000
    C51      C        0.24621    0.67800    0.28740    1.000
    H30      H        0.24700    0.70100    0.37700    1.000
    C52      C        0.30081    0.70970    0.22380    1.000
    C53      C        0.29819    0.66770    0.10730    1.000
    H31      H        0.33500    0.69200    0.05500    1.000
    C54      C        0.24046    0.59880    0.05650    1.000
    H32      H        0.23400    0.57000    0.97500    1.000
    C55      C        0.13005    0.56670    0.29210    1.000
    C56      C        0.36140    0.78920    0.27720    1.000
    Mg9      Mg       0.50000    0.09502    0.75000    1.000
    Mg10     Mg       0.00000    0.59502    0.75000    1.000
    Mg11     Mg       0.50000    0.90498    0.25000    1.000
    Mg12     Mg       0.00000    0.40498    0.25000    1.000
