data_functionalizedCrystal
_audit_creation_method	'EQeq! by Chris Wilmer'
_symmetry_space_group_name_H-M	'P1'
_symmetry_Int_Tables_number	1
_symmetry_cell_setting	triclinic
loop_
_symmetry_equiv_pos_as_xyz
  x,y,z
_cell_length_a	12.3484
_cell_length_b	12.466
_cell_length_c	14.098
_cell_angle_alpha	97.148
_cell_angle_beta	108.384
_cell_angle_gamma	119.315
loop_
_atom_site_label
_atom_site_type_symbol
_atom_site_fract_x
_atom_site_fract_y
_atom_site_fract_z
_atom_site_charge
Mof_Cu	Cu	0.09316	0.42791	0.5851	0.7
Mof_Cu	Cu	0.83913	0.31478	0.41109	0.705
Mof_Cu	Cu	0.10148	0.50696	0.40835	0.706
Mof_Mn	Mn	0.11058	0.01112	0.10698	0.902
Mof_Mn	Mn	0.25358	0.31832	0.05971	0.634
Mof_S 	S 	0.96085	0.28992	0.33229	-0.529
Mof_S 	S 	0.94951	0.36372	0.66347	-0.528
Mof_S 	S 	0.29938	0.62158	0.65959	-0.53
Mof_O 	O 	0.0758	0.1269	0.20693	-0.37
Mof_O 	O 	0.8625	0.9842	0.18659	-0.32
Mof_O 	O 	0.897	0.1041	0.7812	-0.359
Mof_O 	O 	0.7801	0.1895	0.7999	-0.287
Mof_O 	O 	0.6198	0.6562	0.7842	-0.398
Mof_O 	O 	0.6683	0.8535	0.78334	-0.38
Mof_O 	O 	0.1131	0.1126	0.99459	-0.9
Mof_N 	N 	0.0967	0.2769	0.5169	-0.285
Mof_N 	N 	0.7562	0.1752	0.4761	-0.282
Mof_N 	N 	0.3048	0.576	0.4707	-0.286
Mof_C 	C 	0.0387	0.2244	0.4102	0.129
Mof_C 	C 	0.0406	0.1215	0.3609	-0.156
Mof_C 	C 	0.1017	0.0714	0.4232	0.08
Mof_H 	H 	0.1027	0.0019	0.392	0.014
Mof_C 	C 	0.1616	0.1262	0.5332	-0.162
Mof_H 	H 	0.204	0.0946	0.5767	0.089
Mof_C 	C 	0.1567	0.2284	0.5764	0.097
Mof_H 	H 	0.1969	0.2651	0.6499	-0.031
Mof_C 	C 	0.9865	0.0728	0.2422	0.357
Mof_C 	C 	0.6501	0.0536	0.4125	0.092
Mof_H 	H 	0.6155	0.0354	0.3394	-0.02
Mof_C 	C 	0.5904	0.9545	0.451	-0.157
Mof_H 	H 	0.5163	0.8711	0.4051	0.089
Mof_C 	C 	0.643	0.982	0.5598	0.078
Mof_H 	H 	0.6047	0.9166	0.5878	0.014
Mof_C 	C 	0.7524	0.1065	0.6266	-0.151
Mof_C 	C 	0.8077	0.2031	0.5815	0.13
Mof_C 	C 	0.8138	0.1367	0.7453	0.358
Mof_C 	C 	0.382	0.6245	0.5765	0.139
Mof_C 	C 	0.5228	0.6758	0.6207	-0.174
Mof_C 	C 	0.5828	0.6742	0.5531	0.095
Mof_H 	H 	0.6763	0.7072	0.5808	0.006
Mof_C 	C 	0.5037	0.6234	0.444	-0.169
Mof_H 	H 	0.5427	0.6214	0.3976	0.088
Mof_C 	C 	0.3661	0.576	0.4066	0.101
Mof_H 	H 	0.3126	0.5422	0.3336	-0.032
Mof_C 	C 	0.6106	0.7334	0.7397	0.409
Mof_H 	H 	0.133	0.098	0.956	0.495
Mof_Cu	Cu	0.90684	0.57209	0.4149	0.699
Mof_Cu	Cu	0.16087	0.68522	0.58891	0.704
Mof_Cu	Cu	0.89852	0.49304	0.59165	0.706
Mof_Mn	Mn	0.88942	0.98888	0.89302	0.902
Mof_Mn	Mn	0.74642	0.68168	0.94029	0.634
Mof_S 	S 	0.03915	0.71008	0.66771	-0.529
Mof_S 	S 	0.05049	0.63628	0.33653	-0.528
Mof_S 	S 	0.70062	0.37842	0.34041	-0.53
Mof_O 	O 	0.9242	0.8731	0.79307	-0.37
Mof_O 	O 	0.1375	0.0158	0.81341	-0.32
Mof_O 	O 	0.103	0.8959	0.2188	-0.359
Mof_O 	O 	0.2199	0.8105	0.2001	-0.287
Mof_O 	O 	0.3802	0.3438	0.2158	-0.398
Mof_O 	O 	0.3317	0.1465	0.21666	-0.38
Mof_O 	O 	0.8869	0.8874	0.00541	-0.9
Mof_N 	N 	0.9033	0.7231	0.4831	-0.285
Mof_N 	N 	0.2438	0.8248	0.5239	-0.282
Mof_N 	N 	0.6952	0.424	0.5293	-0.286
Mof_C 	C 	0.9613	0.7756	0.5898	0.129
Mof_C 	C 	0.9594	0.8785	0.6391	-0.156
Mof_C 	C 	0.8983	0.9286	0.5768	0.08
Mof_H 	H 	0.8973	0.9981	0.608	0.014
Mof_C 	C 	0.8384	0.8738	0.4668	-0.162
Mof_H 	H 	0.796	0.9054	0.4233	0.089
Mof_C 	C 	0.8433	0.7716	0.4236	0.097
Mof_H 	H 	0.8031	0.7349	0.3501	-0.031
Mof_C 	C 	0.0135	0.9272	0.7578	0.357
Mof_C 	C 	0.3499	0.9464	0.5875	0.092
Mof_H 	H 	0.3845	0.9646	0.6606	-0.02
Mof_C 	C 	0.4096	0.0455	0.549	-0.157
Mof_H 	H 	0.4837	0.1289	0.5949	0.089
Mof_C 	C 	0.357	0.018	0.4402	0.078
Mof_H 	H 	0.3953	0.0834	0.4122	0.014
Mof_C 	C 	0.2476	0.8935	0.3734	-0.151
Mof_C 	C 	0.1923	0.7969	0.4185	0.13
Mof_C 	C 	0.1862	0.8633	0.2547	0.358
Mof_C 	C 	0.618	0.3755	0.4235	0.139
Mof_C 	C 	0.4772	0.3242	0.3793	-0.174
Mof_C 	C 	0.4172	0.3258	0.4469	0.095
Mof_H 	H 	0.3237	0.2928	0.4192	0.006
Mof_C 	C 	0.4963	0.3766	0.556	-0.169
Mof_H 	H 	0.4573	0.3786	0.6024	0.088
Mof_C 	C 	0.6339	0.424	0.5934	0.101
Mof_H 	H 	0.6874	0.4578	0.6664	-0.032
Mof_C 	C 	0.3894	0.2666	0.2603	0.409
Mof_H 	H 	0.867	0.902	0.044	0.495
_end
