# CIF file generated by openbabel 3.1.0, see https://openbabel.org
data_I
_chemical_name_common 'image0'
_cell_length_a 7.8888
_cell_length_b 13.7799
_cell_length_c 7.4295
_cell_angle_alpha 90
_cell_angle_beta 90
_cell_angle_gamma 90
_space_group_name_H-M_alt 'P 1'
_space_group_name_Hall 'P 1'
loop_
    _symmetry_equiv_pos_as_xyz
    x,y,z
loop_
    _atom_site_label
    _atom_site_type_symbol
    _atom_site_fract_x
    _atom_site_fract_y
    _atom_site_fract_z
    _atom_site_occupancy
    Mg1      Mg       0.22587    0.16461    0.25858    1.000
    O1       O        0.10763    0.26988    0.10834    1.000
    O2       O        0.93298    0.33405    0.90949    1.000
    O3       O        0.31596    0.28520    0.40169    1.000
    O4       O        0.51044    0.35145    0.57951    1.000
    O5       O        0.12016    0.04889    0.11786    1.000
    O6       O        0.13351    0.92960    0.91832    1.000
    C1       C        0.99310    0.26561    0.99580    1.000
    H1       H        0.94720    0.20460    0.97370    1.000
    C2       C        0.44700    0.28398    0.49510    1.000
    H2       H        0.50360    0.22490    0.50180    1.000
    C3       C        0.19360    0.99842    0.00300    1.000
    H3       H        0.30580    0.01430    0.97840    1.000
    Mg2      Mg       0.27413    0.83539    0.75858    1.000
    O7       O        0.39237    0.73012    0.60834    1.000
    O8       O        0.56702    0.66595    0.40949    1.000
    O9       O        0.18404    0.71480    0.90169    1.000
    O10      O        0.98956    0.64855    0.07951    1.000
    O11      O        0.37984    0.95111    0.61786    1.000
    O12      O        0.36649    0.07040    0.41832    1.000
    C4       C        0.50690    0.73439    0.49580    1.000
    H4       H        0.55280    0.79540    0.47370    1.000
    C5       C        0.05300    0.71602    0.99510    1.000
    H5       H        0.99640    0.77510    0.00180    1.000
    C6       C        0.30640    0.00158    0.50300    1.000
    H6       H        0.19420    0.98570    0.47840    1.000
    Mg3      Mg       0.77413    0.66461    0.24142    1.000
    O13      O        0.89237    0.76988    0.39166    1.000
    O14      O        0.06702    0.83405    0.59051    1.000
    O15      O        0.68404    0.78520    0.09831    1.000
    O16      O        0.48956    0.85145    0.92049    1.000
    O17      O        0.87984    0.54889    0.38214    1.000
    O18      O        0.86649    0.42960    0.58168    1.000
    C7       C        0.00690    0.76561    0.50420    1.000
    H7       H        0.05280    0.70460    0.52630    1.000
    C8       C        0.55300    0.78398    0.00490    1.000
    H8       H        0.49640    0.72490    0.99820    1.000
    C9       C        0.80640    0.49842    0.49700    1.000
    H9       H        0.69420    0.51430    0.52160    1.000
    Mg4      Mg       0.72587    0.33539    0.74142    1.000
    O19      O        0.60763    0.23012    0.89166    1.000
    O20      O        0.43298    0.16595    0.09051    1.000
    O21      O        0.81596    0.21480    0.59831    1.000
    O22      O        0.01044    0.14855    0.42049    1.000
    O23      O        0.62016    0.45111    0.88214    1.000
    O24      O        0.63351    0.57040    0.08168    1.000
    C10      C        0.49310    0.23439    0.00420    1.000
    H10      H        0.44720    0.29540    0.02630    1.000
    C11      C        0.94700    0.21602    0.50490    1.000
    H11      H        0.00360    0.27510    0.49820    1.000
    C12      C        0.69360    0.50158    0.99700    1.000
    H12      H        0.80580    0.48570    0.02160    1.000
