# CIF file generated by openbabel 3.1.0, see https://openbabel.org
data_I
_chemical_name_common 'CEHWOD_clean'
_cell_length_a 7.1897
_cell_length_b 10.63
_cell_length_c 11.543
_cell_angle_alpha 90
_cell_angle_beta 90
_cell_angle_gamma 90
_space_group_name_H-M_alt 'P 1'
_space_group_name_Hall 'P 1'
loop_
    _symmetry_equiv_pos_as_xyz
    x,y,z
loop_
    _atom_site_label
    _atom_site_type_symbol
    _atom_site_fract_x
    _atom_site_fract_y
    _atom_site_fract_z
    _atom_site_occupancy
    Ni1      Ni       0.73902    0.21483    0.30995    1.000
    Ni2      Ni       0.23902    0.78517    0.69005    1.000
    Ni3      Ni       0.73902    0.71483    0.19005    1.000
    Ni4      Ni       0.23902    0.28517    0.80995    1.000
    H1       H        0.98830    0.42810    0.97460    1.000
    H2       H        0.13300    0.07380    0.96800    1.000
    H3       H        0.97670    0.04260    0.13680    1.000
    H4       H        0.48830    0.57190    0.02540    1.000
    H5       H        0.63300    0.92620    0.03200    1.000
    H6       H        0.47670    0.95740    0.86320    1.000
    H7       H        0.98830    0.92810    0.52540    1.000
    H8       H        0.13300    0.57380    0.53200    1.000
    H9       H        0.97670    0.54260    0.36320    1.000
    H10      H        0.48830    0.07190    0.47460    1.000
    H11      H        0.63300    0.42620    0.46800    1.000
    H12      H        0.47670    0.45740    0.63680    1.000
    C1       C        0.79350    0.43180    0.17550    1.000
    C2       C        0.89790    0.32880    0.11010    1.000
    C3       C        0.98960    0.34840    0.00800    1.000
    C4       C        0.07380    0.14130    0.00370    1.000
    C5       C        0.98040    0.12300    0.10510    1.000
    C6       C        0.29350    0.56820    0.82450    1.000
    C7       C        0.39790    0.67120    0.88990    1.000
    C8       C        0.48960    0.65160    0.99200    1.000
    C9       C        0.57380    0.85870    0.99630    1.000
    C10      C        0.48040    0.87700    0.89490    1.000
    C11      C        0.79350    0.93180    0.32450    1.000
    C12      C        0.89790    0.82880    0.38990    1.000
    C13      C        0.98960    0.84840    0.49200    1.000
    C14      C        0.07380    0.64130    0.49630    1.000
    C15      C        0.98040    0.62300    0.39490    1.000
    C16      C        0.29350    0.06820    0.67550    1.000
    C17      C        0.39790    0.17120    0.61010    1.000
    C18      C        0.48960    0.15160    0.50800    1.000
    C19      C        0.57380    0.35870    0.50370    1.000
    C20      C        0.48040    0.37700    0.60510    1.000
    N1       N        0.89420    0.21630    0.16040    1.000
    N2       N        0.08110    0.25500    0.95540    1.000
    N3       N        0.39420    0.78370    0.83960    1.000
    N4       N        0.58110    0.74500    0.04460    1.000
    N5       N        0.89420    0.71630    0.33960    1.000
    N6       N        0.08110    0.75500    0.54460    1.000
    N7       N        0.39420    0.28370    0.66040    1.000
    N8       N        0.58110    0.24500    0.45540    1.000
    Cl1      Cl       0.46900    0.16520    0.19045    1.000
    Cl2      Cl       0.96900    0.83480    0.80955    1.000
    Cl3      Cl       0.46900    0.66520    0.30955    1.000
    Cl4      Cl       0.96900    0.33480    0.69045    1.000
    O1       O        0.71560    0.40070    0.26680    1.000
    O2       O        0.80240    0.53930    0.13160    1.000
    O3       O        0.21560    0.59930    0.73320    1.000
    O4       O        0.30240    0.46070    0.86840    1.000
    O5       O        0.71560    0.90070    0.23320    1.000
    O6       O        0.80240    0.03930    0.36840    1.000
    O7       O        0.21560    0.09930    0.76680    1.000
    O8       O        0.30240    0.96070    0.63160    1.000
