data_functionalizedCrystal
_audit_creation_method	'EQeq! by Chris Wilmer'
_symmetry_space_group_name_H-M	'P1'
_symmetry_Int_Tables_number	1
_symmetry_cell_setting	triclinic
loop_
_symmetry_equiv_pos_as_xyz
  x,y,z
_cell_length_a	6.6291
_cell_length_b	18.2549
_cell_length_c	8.3983
_cell_angle_alpha	90
_cell_angle_beta	90
_cell_angle_gamma	90
loop_
_atom_site_label
_atom_site_type_symbol
_atom_site_fract_x
_atom_site_fract_y
_atom_site_fract_z
_atom_site_charge
Mof_O 	O 	0.1654	0.095	0.7299	-0.437
Mof_O 	O 	0.5116	0.05023	0.5705	-0.515
Mof_O 	O 	0.3265	0.18371	0.9807	-0.476
Mof_O 	O 	0.1791	0.25869	0.1523	-0.517
Mof_C 	C 	0.2629	0.2441	0.0238	0.561
Mof_H 	H 	0.2794	0.2827	0.9527	-0.156
Mof_O 	O 	0.6654	0.595	0.7299	-0.386
Mof_O 	O 	0.0116	0.55023	0.5705	-0.744
Mof_O 	O 	0.8265	0.68371	0.9807	-0.384
Mof_O 	O 	0.6791	0.75869	0.1523	-0.48
Mof_C 	C 	0.7629	0.7441	0.0238	0.566
Mof_H 	H 	0.7794	0.7827	0.9527	-0.112
Mof_O 	O 	0.8346	0.905	0.2299	-0.287
Mof_O 	O 	0.4884	0.94977	0.0705	-0.459
Mof_O 	O 	0.6735	0.81629	0.4807	-0.453
Mof_O 	O 	0.8209	0.74131	0.6523	-0.413
Mof_C 	C 	0.7371	0.7559	0.5238	0.618
Mof_H 	H 	0.7206	0.7173	0.4527	-0.144
Mof_O 	O 	0.3346	0.405	0.2299	-0.435
Mof_O 	O 	0.9884	0.44977	0.0705	-0.189
Mof_O 	O 	0.1735	0.31629	0.4807	-0.484
Mof_O 	O 	0.3209	0.24131	0.6523	-0.529
Mof_C 	C 	0.2371	0.2559	0.5238	0.628
Mof_H 	H 	0.2206	0.2173	0.4527	-0.197
Mof_O 	O 	0.8346	0.095	0.7701	-0.308
Mof_O 	O 	0.4884	0.05023	0.9295	-0.502
Mof_O 	O 	0.6735	0.18371	0.5193	-0.462
Mof_O 	O 	0.8209	0.25869	0.3477	-0.418
Mof_C 	C 	0.7371	0.2441	0.4762	0.618
Mof_H 	H 	0.7206	0.2827	0.5473	-0.142
Mof_O 	O 	0.3346	0.595	0.7701	-0.43
Mof_O 	O 	0.9884	0.55023	0.9295	-0.176
Mof_O 	O 	0.1735	0.68371	0.5193	-0.484
Mof_O 	O 	0.3209	0.75869	0.3477	-0.529
Mof_C 	C 	0.2371	0.7441	0.4762	0.624
Mof_H 	H 	0.2206	0.7827	0.5473	-0.188
Mof_O 	O 	0.1654	0.905	0.2701	-0.411
Mof_O 	O 	0.5116	0.94977	0.4295	-0.457
Mof_O 	O 	0.3265	0.81629	0.0193	-0.525
Mof_O 	O 	0.1791	0.74131	0.8477	-0.542
Mof_C 	C 	0.2629	0.7559	0.9762	0.689
Mof_H 	H 	0.2794	0.7173	0.0473	-0.22
Mof_O 	O 	0.6654	0.405	0.2701	-0.388
Mof_O 	O 	0.0116	0.44977	0.4295	-0.743
Mof_O 	O 	0.8265	0.31629	0.0193	-0.441
Mof_O 	O 	0.6791	0.24131	0.8477	-0.51
Mof_C 	C 	0.7629	0.2559	0.9762	0.695
Mof_H 	H 	0.7794	0.2173	0.0473	-0.18
Mof_Yb	Yb	0.5	0.14278	0.75	2.112
Mof_Yb	Yb	3.56254e-33	0.64278	0.75	1.777
Mof_Yb	Yb	0.5	0.85722	0.25	2.116
Mof_Yb	Yb	7.39713e-33	0.35722	0.25	1.772
Mof_C 	C 	1.59818e-32	0.1264	0.75	0.353
Mof_H 	H 	3.56254e-33	0.1773	0.75	-0.144
Mof_C 	C 	0.5	0.6264	0.75	0.56
Mof_H 	H 	0.5	0.6773	0.75	-0.152
Mof_C 	C 	-5.02211e-33	0.8736	0.25	0.35
Mof_H 	H 	1.98164e-32	0.8227	0.25	-0.143
Mof_C 	C 	0.5	0.3736	0.25	0.559
Mof_H 	H 	0.5	0.3227	0.25	-0.155
Mof_C 	C 	0.4242	0	0.5	0.613
Mof_H 	H 	0.2839	0	0.5	-0.188
Mof_C 	C 	0.9242	0.5	0.5	1.225
Mof_H 	H 	0.7839	0.5	0.5	-0.317
Mof_C 	C 	0.5758	0	-0	0.567
Mof_H 	H 	0.7161	0	-0	-0.135
Mof_C 	C 	0.0758	0.5	-0	0.063
Mof_H 	H 	0.2161	0.5	-0	0.021
_end
