data_functionalizedCrystal
_audit_creation_method	'EQeq! by Chris Wilmer'
_symmetry_space_group_name_H-M	'P1'
_symmetry_Int_Tables_number	1
_symmetry_cell_setting	triclinic
loop_
_symmetry_equiv_pos_as_xyz
  x,y,z
_cell_length_a	19.7822
_cell_length_b	19.7822
_cell_length_c	19.7822
_cell_angle_alpha	90
_cell_angle_beta	90
_cell_angle_gamma	90
loop_
_atom_site_label
_atom_site_type_symbol
_atom_site_fract_x
_atom_site_fract_y
_atom_site_fract_z
_atom_site_charge
Mof_Gd	Gd	0.75369	0.84613	0.50883	1.362
Mof_O 	O 	0.85427	0.79431	0.55046	-0.446
Mof_O 	O 	0.65885	0.79011	0.46002	-0.45
Mof_O 	O 	0.91662	0.70601	0.5825	-0.421
Mof_O 	O 	0.60916	0.7031	0.40927	-0.426
Mof_N 	N 	0.75981	0.71894	0.50069	-0.173
Mof_C 	C 	0.8658	0.731	0.5555	0.351
Mof_C 	C 	0.6541	0.728	0.4453	0.36
Mof_C 	C 	0.7092	0.6837	0.4726	-0.066
Mof_C 	C 	0.8126	0.6856	0.5262	-0.062
Mof_C 	C 	0.7093	0.614	0.47	-0.016
Mof_H 	H 	0.6738	0.5904	0.4501	0.021
Mof_C 	C 	0.8158	0.6158	0.5264	-0.017
Mof_H 	H 	0.8525	0.5935	0.5456	0.026
Mof_C 	C 	0.764	0.5803	0.4979	-0.061
Mof_H 	H 	0.7654	0.5333	0.4972	0.031
Mof_Gd	Gd	0.74631	0.15387	0.00883	1.362
Mof_O 	O 	0.64573	0.20569	0.05046	-0.446
Mof_O 	O 	0.84115	0.20989	0.96002	-0.45
Mof_O 	O 	0.58338	0.29399	0.0825	-0.421
Mof_O 	O 	0.89084	0.2969	0.90927	-0.426
Mof_N 	N 	0.74019	0.28106	0.00069	-0.173
Mof_C 	C 	0.6342	0.269	0.0555	0.351
Mof_C 	C 	0.8459	0.272	0.9453	0.36
Mof_C 	C 	0.7908	0.3163	0.9726	-0.066
Mof_C 	C 	0.6874	0.3144	0.0262	-0.061
Mof_C 	C 	0.7907	0.386	0.97	-0.016
Mof_H 	H 	0.8262	0.4096	0.9501	0.022
Mof_C 	C 	0.6842	0.3842	0.0264	-0.018
Mof_H 	H 	0.6475	0.4065	0.0456	0.026
Mof_C 	C 	0.736	0.4197	0.9979	-0.06
Mof_H 	H 	0.7346	0.4667	0.9972	0.031
Mof_Gd	Gd	0.24631	0.34613	0.99117	1.36
Mof_O 	O 	0.14573	0.29431	0.94954	-0.446
Mof_O 	O 	0.34115	0.29011	0.03998	-0.449
Mof_O 	O 	0.08338	0.20601	0.9175	-0.421
Mof_O 	O 	0.39084	0.2031	0.09073	-0.425
Mof_N 	N 	0.24019	0.21894	0.99931	-0.174
Mof_C 	C 	0.1342	0.231	0.9445	0.35
Mof_C 	C 	0.3459	0.228	0.0547	0.359
Mof_C 	C 	0.2908	0.1837	0.0274	-0.062
Mof_C 	C 	0.1874	0.1856	0.9738	-0.06
Mof_C 	C 	0.2907	0.114	0.03	-0.021
Mof_H 	H 	0.3262	0.0904	0.0499	0.022
Mof_C 	C 	0.1842	0.1158	0.9736	-0.025
Mof_H 	H 	0.1475	0.0935	0.9544	0.027
Mof_C 	C 	0.236	0.0803	0.0021	-0.054
Mof_H 	H 	0.2346	0.0333	0.0028	0.029
Mof_Gd	Gd	0.25369	0.65387	0.49117	1.361
Mof_O 	O 	0.35427	0.70569	0.44954	-0.447
Mof_O 	O 	0.15885	0.70989	0.53998	-0.451
Mof_O 	O 	0.41662	0.79399	0.4175	-0.422
Mof_O 	O 	0.10916	0.7969	0.59073	-0.427
Mof_N 	N 	0.25981	0.78106	0.49931	-0.174
Mof_C 	C 	0.3658	0.769	0.4445	0.35
Mof_C 	C 	0.1541	0.772	0.5547	0.359
Mof_C 	C 	0.2092	0.8163	0.5274	-0.067
Mof_C 	C 	0.3126	0.8144	0.4738	-0.063
Mof_C 	C 	0.2093	0.886	0.53	-0.017
Mof_H 	H 	0.1738	0.9096	0.5499	0.02
Mof_C 	C 	0.3158	0.8842	0.4736	-0.018
Mof_H 	H 	0.3525	0.9065	0.4544	0.025
Mof_C 	C 	0.264	0.9197	0.5021	-0.062
Mof_H 	H 	0.2654	0.9667	0.5028	0.03
Mof_Gd	Gd	0.50883	0.75369	0.84613	1.361
Mof_O 	O 	0.55046	0.85427	0.79431	-0.447
Mof_O 	O 	0.46002	0.65885	0.79011	-0.451
Mof_O 	O 	0.5825	0.91662	0.70601	-0.422
Mof_O 	O 	0.40927	0.60916	0.7031	-0.427
Mof_N 	N 	0.50069	0.75981	0.71894	-0.174
Mof_C 	C 	0.5555	0.8658	0.731	0.35
Mof_C 	C 	0.4453	0.6541	0.728	0.359
Mof_C 	C 	0.4726	0.7092	0.6837	-0.067
Mof_C 	C 	0.5262	0.8126	0.6856	-0.063
Mof_C 	C 	0.47	0.7093	0.614	-0.017
Mof_H 	H 	0.4501	0.6738	0.5904	0.02
Mof_C 	C 	0.5264	0.8158	0.6158	-0.018
Mof_H 	H 	0.5456	0.8525	0.5935	0.025
Mof_C 	C 	0.4979	0.764	0.5803	-0.062
Mof_H 	H 	0.4972	0.7654	0.5333	0.03
Mof_Gd	Gd	0.00883	0.74631	0.15387	1.361
Mof_O 	O 	0.05046	0.64573	0.20569	-0.447
Mof_O 	O 	0.96002	0.84115	0.20989	-0.451
Mof_O 	O 	0.0825	0.58338	0.29399	-0.422
Mof_O 	O 	0.90927	0.89084	0.2969	-0.427
Mof_N 	N 	0.00069	0.74019	0.28106	-0.174
Mof_C 	C 	0.0555	0.6342	0.269	0.35
Mof_C 	C 	0.9453	0.8459	0.272	0.359
Mof_C 	C 	0.9726	0.7908	0.3163	-0.067
Mof_C 	C 	0.0262	0.6874	0.3144	-0.062
Mof_C 	C 	0.97	0.7907	0.386	-0.017
Mof_H 	H 	0.9501	0.8262	0.4096	0.021
Mof_C 	C 	0.0264	0.6842	0.3842	-0.019
Mof_H 	H 	0.0456	0.6475	0.4065	0.025
Mof_C 	C 	0.9979	0.736	0.4197	-0.061
Mof_H 	H 	0.9972	0.7346	0.4667	0.03
Mof_Gd	Gd	0.99117	0.24631	0.34613	1.359
Mof_O 	O 	0.94954	0.14573	0.29431	-0.447
Mof_O 	O 	0.03998	0.34115	0.29011	-0.45
Mof_O 	O 	0.9175	0.08338	0.20601	-0.422
Mof_O 	O 	0.09073	0.39084	0.2031	-0.426
Mof_N 	N 	0.99931	0.24019	0.21894	-0.175
Mof_C 	C 	0.9445	0.1342	0.231	0.349
Mof_C 	C 	0.0547	0.3459	0.228	0.358
Mof_C 	C 	0.0274	0.2908	0.1837	-0.063
Mof_C 	C 	0.9738	0.1874	0.1856	-0.061
Mof_C 	C 	0.03	0.2907	0.114	-0.021
Mof_H 	H 	0.0499	0.3262	0.0904	0.022
Mof_C 	C 	0.9736	0.1842	0.1158	-0.025
Mof_H 	H 	0.9544	0.1475	0.0935	0.027
Mof_C 	C 	0.0021	0.236	0.0803	-0.054
Mof_H 	H 	0.0028	0.2346	0.0333	0.029
Mof_Gd	Gd	0.49117	0.25369	0.65387	1.361
Mof_O 	O 	0.44954	0.35427	0.70569	-0.447
Mof_O 	O 	0.53998	0.15885	0.70989	-0.451
Mof_O 	O 	0.4175	0.41662	0.79399	-0.422
Mof_O 	O 	0.59073	0.10916	0.7969	-0.427
Mof_N 	N 	0.49931	0.25981	0.78106	-0.174
Mof_C 	C 	0.4445	0.3658	0.769	0.35
Mof_C 	C 	0.5547	0.1541	0.772	0.359
Mof_C 	C 	0.5274	0.2092	0.8163	-0.067
Mof_C 	C 	0.4738	0.3126	0.8144	-0.063
Mof_C 	C 	0.53	0.2093	0.886	-0.017
Mof_H 	H 	0.5499	0.1738	0.9096	0.02
Mof_C 	C 	0.4736	0.3158	0.8842	-0.018
Mof_H 	H 	0.4544	0.3525	0.9065	0.025
Mof_C 	C 	0.5021	0.264	0.9197	-0.062
Mof_H 	H 	0.5028	0.2654	0.9667	0.03
Mof_Gd	Gd	0.84613	0.50883	0.75369	1.361
Mof_O 	O 	0.79431	0.55046	0.85427	-0.447
Mof_O 	O 	0.79011	0.46002	0.65885	-0.451
Mof_O 	O 	0.70601	0.5825	0.91662	-0.422
Mof_O 	O 	0.7031	0.40927	0.60916	-0.427
Mof_N 	N 	0.71894	0.50069	0.75981	-0.174
Mof_C 	C 	0.731	0.5555	0.8658	0.35
Mof_C 	C 	0.728	0.4453	0.6541	0.359
Mof_C 	C 	0.6837	0.4726	0.7092	-0.067
Mof_C 	C 	0.6856	0.5262	0.8126	-0.063
Mof_C 	C 	0.614	0.47	0.7093	-0.017
Mof_H 	H 	0.5904	0.4501	0.6738	0.02
Mof_C 	C 	0.6158	0.5264	0.8158	-0.018
Mof_H 	H 	0.5935	0.5456	0.8525	0.025
Mof_C 	C 	0.5803	0.4979	0.764	-0.062
Mof_H 	H 	0.5333	0.4972	0.7654	0.03
Mof_Gd	Gd	0.15387	0.00883	0.74631	1.361
Mof_O 	O 	0.20569	0.05046	0.64573	-0.447
Mof_O 	O 	0.20989	0.96002	0.84115	-0.451
Mof_O 	O 	0.29399	0.0825	0.58338	-0.422
Mof_O 	O 	0.2969	0.90927	0.89084	-0.427
Mof_N 	N 	0.28106	0.00069	0.74019	-0.174
Mof_C 	C 	0.269	0.0555	0.6342	0.35
Mof_C 	C 	0.272	0.9453	0.8459	0.359
Mof_C 	C 	0.3163	0.9726	0.7908	-0.067
Mof_C 	C 	0.3144	0.0262	0.6874	-0.062
Mof_C 	C 	0.386	0.97	0.7907	-0.017
Mof_H 	H 	0.4096	0.9501	0.8262	0.021
Mof_C 	C 	0.3842	0.0264	0.6842	-0.019
Mof_H 	H 	0.4065	0.0456	0.6475	0.025
Mof_C 	C 	0.4197	0.9979	0.736	-0.061
Mof_H 	H 	0.4667	0.9972	0.7346	0.03
Mof_Gd	Gd	0.34613	0.99117	0.24631	1.359
Mof_O 	O 	0.29431	0.94954	0.14573	-0.447
Mof_O 	O 	0.29011	0.03998	0.34115	-0.45
Mof_O 	O 	0.20601	0.9175	0.08338	-0.422
Mof_O 	O 	0.2031	0.09073	0.39084	-0.426
Mof_N 	N 	0.21894	0.99931	0.24019	-0.175
Mof_C 	C 	0.231	0.9445	0.1342	0.349
Mof_C 	C 	0.228	0.0547	0.3459	0.358
Mof_C 	C 	0.1837	0.0274	0.2908	-0.063
Mof_C 	C 	0.1856	0.9738	0.1874	-0.061
Mof_C 	C 	0.114	0.03	0.2907	-0.021
Mof_H 	H 	0.0904	0.0499	0.3262	0.022
Mof_C 	C 	0.1158	0.9736	0.1842	-0.025
Mof_H 	H 	0.0935	0.9544	0.1475	0.027
Mof_C 	C 	0.0803	0.0021	0.236	-0.054
Mof_H 	H 	0.0333	0.0028	0.2346	0.029
Mof_Gd	Gd	0.65387	0.49117	0.25369	1.361
Mof_O 	O 	0.70569	0.44954	0.35427	-0.447
Mof_O 	O 	0.70989	0.53998	0.15885	-0.451
Mof_O 	O 	0.79399	0.4175	0.41662	-0.422
Mof_O 	O 	0.7969	0.59073	0.10916	-0.427
Mof_N 	N 	0.78106	0.49931	0.25981	-0.174
Mof_C 	C 	0.769	0.4445	0.3658	0.35
Mof_C 	C 	0.772	0.5547	0.1541	0.359
Mof_C 	C 	0.8163	0.5274	0.2092	-0.067
Mof_C 	C 	0.8144	0.4738	0.3126	-0.063
Mof_C 	C 	0.886	0.53	0.2093	-0.017
Mof_H 	H 	0.9096	0.5499	0.1738	0.02
Mof_C 	C 	0.8842	0.4736	0.3158	-0.018
Mof_H 	H 	0.9065	0.4544	0.3525	0.025
Mof_C 	C 	0.9197	0.5021	0.264	-0.062
Mof_H 	H 	0.9667	0.5028	0.2654	0.03
Mof_Gd	Gd	0.24631	0.15387	0.49117	1.361
Mof_O 	O 	0.14573	0.20569	0.44954	-0.447
Mof_O 	O 	0.34115	0.20989	0.53998	-0.451
Mof_O 	O 	0.08338	0.29399	0.4175	-0.422
Mof_O 	O 	0.39084	0.2969	0.59073	-0.427
Mof_N 	N 	0.24019	0.28106	0.49931	-0.174
Mof_C 	C 	0.1342	0.269	0.4445	0.35
Mof_C 	C 	0.3459	0.272	0.5547	0.359
Mof_C 	C 	0.2908	0.3163	0.5274	-0.067
Mof_C 	C 	0.1874	0.3144	0.4738	-0.063
Mof_C 	C 	0.2907	0.386	0.53	-0.017
Mof_H 	H 	0.3262	0.4096	0.5499	0.02
Mof_C 	C 	0.1842	0.3842	0.4736	-0.018
Mof_H 	H 	0.1475	0.4065	0.4544	0.025
Mof_C 	C 	0.236	0.4197	0.5021	-0.062
Mof_H 	H 	0.2346	0.4667	0.5028	0.03
Mof_Gd	Gd	0.25369	0.84613	0.99117	1.361
Mof_O 	O 	0.35427	0.79431	0.94954	-0.447
Mof_O 	O 	0.15885	0.79011	0.03998	-0.451
Mof_O 	O 	0.41662	0.70601	0.9175	-0.422
Mof_O 	O 	0.10916	0.7031	0.09073	-0.427
Mof_N 	N 	0.25981	0.71894	0.99931	-0.174
Mof_C 	C 	0.3658	0.731	0.9445	0.35
Mof_C 	C 	0.1541	0.728	0.0547	0.359
Mof_C 	C 	0.2092	0.6837	0.0274	-0.067
Mof_C 	C 	0.3126	0.6856	0.9738	-0.062
Mof_C 	C 	0.2093	0.614	0.03	-0.017
Mof_H 	H 	0.1738	0.5904	0.0499	0.021
Mof_C 	C 	0.3158	0.6158	0.9736	-0.019
Mof_H 	H 	0.3525	0.5935	0.9544	0.025
Mof_C 	C 	0.264	0.5803	0.0021	-0.061
Mof_H 	H 	0.2654	0.5333	0.0028	0.03
Mof_Gd	Gd	0.75369	0.65387	0.00883	1.359
Mof_O 	O 	0.85427	0.70569	0.05046	-0.447
Mof_O 	O 	0.65885	0.70989	0.96002	-0.45
Mof_O 	O 	0.91662	0.79399	0.0825	-0.422
Mof_O 	O 	0.60916	0.7969	0.90927	-0.426
Mof_N 	N 	0.75981	0.78106	0.00069	-0.175
Mof_C 	C 	0.8658	0.769	0.0555	0.349
Mof_C 	C 	0.6541	0.772	0.9453	0.358
Mof_C 	C 	0.7092	0.8163	0.9726	-0.063
Mof_C 	C 	0.8126	0.8144	0.0262	-0.061
Mof_C 	C 	0.7093	0.886	0.97	-0.021
Mof_H 	H 	0.6738	0.9096	0.9501	0.022
Mof_C 	C 	0.8158	0.8842	0.0264	-0.025
Mof_H 	H 	0.8525	0.9065	0.0456	0.027
Mof_C 	C 	0.764	0.9197	0.9979	-0.054
Mof_H 	H 	0.7654	0.9667	0.9972	0.029
Mof_Gd	Gd	0.74631	0.34613	0.50883	1.361
Mof_O 	O 	0.64573	0.29431	0.55046	-0.447
Mof_O 	O 	0.84115	0.29011	0.46002	-0.451
Mof_O 	O 	0.58338	0.20601	0.5825	-0.422
Mof_O 	O 	0.89084	0.2031	0.40927	-0.427
Mof_N 	N 	0.74019	0.21894	0.50069	-0.174
Mof_C 	C 	0.6342	0.231	0.5555	0.35
Mof_C 	C 	0.8459	0.228	0.4453	0.359
Mof_C 	C 	0.7908	0.1837	0.4726	-0.067
Mof_C 	C 	0.6874	0.1856	0.5262	-0.063
Mof_C 	C 	0.7907	0.114	0.47	-0.017
Mof_H 	H 	0.8262	0.0904	0.4501	0.02
Mof_C 	C 	0.6842	0.1158	0.5264	-0.018
Mof_H 	H 	0.6475	0.0935	0.5456	0.025
Mof_C 	C 	0.736	0.0803	0.4979	-0.062
Mof_H 	H 	0.7346	0.0333	0.4972	0.03
Mof_Gd	Gd	0.49117	0.24631	0.15387	1.361
Mof_O 	O 	0.44954	0.14573	0.20569	-0.447
Mof_O 	O 	0.53998	0.34115	0.20989	-0.451
Mof_O 	O 	0.4175	0.08338	0.29399	-0.422
Mof_O 	O 	0.59073	0.39084	0.2969	-0.427
Mof_N 	N 	0.49931	0.24019	0.28106	-0.174
Mof_C 	C 	0.4445	0.1342	0.269	0.35
Mof_C 	C 	0.5547	0.3459	0.272	0.359
Mof_C 	C 	0.5274	0.2908	0.3163	-0.067
Mof_C 	C 	0.4738	0.1874	0.3144	-0.063
Mof_C 	C 	0.53	0.2907	0.386	-0.017
Mof_H 	H 	0.5499	0.3262	0.4096	0.02
Mof_C 	C 	0.4736	0.1842	0.3842	-0.018
Mof_H 	H 	0.4544	0.1475	0.4065	0.025
Mof_C 	C 	0.5021	0.236	0.4197	-0.062
Mof_H 	H 	0.5028	0.2346	0.4667	0.03
Mof_Gd	Gd	0.99117	0.25369	0.84613	1.361
Mof_O 	O 	0.94954	0.35427	0.79431	-0.447
Mof_O 	O 	0.03998	0.15885	0.79011	-0.451
Mof_O 	O 	0.9175	0.41662	0.70601	-0.422
Mof_O 	O 	0.09073	0.10916	0.7031	-0.427
Mof_N 	N 	0.99931	0.25981	0.71894	-0.174
Mof_C 	C 	0.9445	0.3658	0.731	0.35
Mof_C 	C 	0.0547	0.1541	0.728	0.359
Mof_C 	C 	0.0274	0.2092	0.6837	-0.067
Mof_C 	C 	0.9738	0.3126	0.6856	-0.062
Mof_C 	C 	0.03	0.2093	0.614	-0.017
Mof_H 	H 	0.0499	0.1738	0.5904	0.021
Mof_C 	C 	0.9736	0.3158	0.6158	-0.019
Mof_H 	H 	0.9544	0.3525	0.5935	0.025
Mof_C 	C 	0.0021	0.264	0.5803	-0.061
Mof_H 	H 	0.0028	0.2654	0.5333	0.03
Mof_Gd	Gd	0.00883	0.75369	0.65387	1.359
Mof_O 	O 	0.05046	0.85427	0.70569	-0.447
Mof_O 	O 	0.96002	0.65885	0.70989	-0.45
Mof_O 	O 	0.0825	0.91662	0.79399	-0.422
Mof_O 	O 	0.90927	0.60916	0.7969	-0.426
Mof_N 	N 	0.00069	0.75981	0.78106	-0.175
Mof_C 	C 	0.0555	0.8658	0.769	0.349
Mof_C 	C 	0.9453	0.6541	0.772	0.358
Mof_C 	C 	0.9726	0.7092	0.8163	-0.063
Mof_C 	C 	0.0262	0.8126	0.8144	-0.061
Mof_C 	C 	0.97	0.7093	0.886	-0.021
Mof_H 	H 	0.9501	0.6738	0.9096	0.022
Mof_C 	C 	0.0264	0.8158	0.8842	-0.025
Mof_H 	H 	0.0456	0.8525	0.9065	0.027
Mof_C 	C 	0.9979	0.764	0.9197	-0.054
Mof_H 	H 	0.9972	0.7654	0.9667	0.029
Mof_Gd	Gd	0.50883	0.74631	0.34613	1.361
Mof_O 	O 	0.55046	0.64573	0.29431	-0.447
Mof_O 	O 	0.46002	0.84115	0.29011	-0.451
Mof_O 	O 	0.5825	0.58338	0.20601	-0.422
Mof_O 	O 	0.40927	0.89084	0.2031	-0.427
Mof_N 	N 	0.50069	0.74019	0.21894	-0.174
Mof_C 	C 	0.5555	0.6342	0.231	0.35
Mof_C 	C 	0.4453	0.8459	0.228	0.359
Mof_C 	C 	0.4726	0.7908	0.1837	-0.067
Mof_C 	C 	0.5262	0.6874	0.1856	-0.063
Mof_C 	C 	0.47	0.7907	0.114	-0.017
Mof_H 	H 	0.4501	0.8262	0.0904	0.02
Mof_C 	C 	0.5264	0.6842	0.1158	-0.018
Mof_H 	H 	0.5456	0.6475	0.0935	0.025
Mof_C 	C 	0.4979	0.736	0.0803	-0.062
Mof_H 	H 	0.4972	0.7346	0.0333	0.03
Mof_Gd	Gd	0.15387	0.49117	0.24631	1.361
Mof_O 	O 	0.20569	0.44954	0.14573	-0.447
Mof_O 	O 	0.20989	0.53998	0.34115	-0.451
Mof_O 	O 	0.29399	0.4175	0.08338	-0.422
Mof_O 	O 	0.2969	0.59073	0.39084	-0.427
Mof_N 	N 	0.28106	0.49931	0.24019	-0.174
Mof_C 	C 	0.269	0.4445	0.1342	0.35
Mof_C 	C 	0.272	0.5547	0.3459	0.359
Mof_C 	C 	0.3163	0.5274	0.2908	-0.067
Mof_C 	C 	0.3144	0.4738	0.1874	-0.063
Mof_C 	C 	0.386	0.53	0.2907	-0.017
Mof_H 	H 	0.4096	0.5499	0.3262	0.02
Mof_C 	C 	0.3842	0.4736	0.1842	-0.018
Mof_H 	H 	0.4065	0.4544	0.1475	0.025
Mof_C 	C 	0.4197	0.5021	0.236	-0.062
Mof_H 	H 	0.4667	0.5028	0.2346	0.03
Mof_Gd	Gd	0.84613	0.99117	0.25369	1.361
Mof_O 	O 	0.79431	0.94954	0.35427	-0.447
Mof_O 	O 	0.79011	0.03998	0.15885	-0.451
Mof_O 	O 	0.70601	0.9175	0.41662	-0.422
Mof_O 	O 	0.7031	0.09073	0.10916	-0.427
Mof_N 	N 	0.71894	0.99931	0.25981	-0.174
Mof_C 	C 	0.731	0.9445	0.3658	0.35
Mof_C 	C 	0.728	0.0547	0.1541	0.359
Mof_C 	C 	0.6837	0.0274	0.2092	-0.067
Mof_C 	C 	0.6856	0.9738	0.3126	-0.062
Mof_C 	C 	0.614	0.03	0.2093	-0.017
Mof_H 	H 	0.5904	0.0499	0.1738	0.021
Mof_C 	C 	0.6158	0.9736	0.3158	-0.019
Mof_H 	H 	0.5935	0.9544	0.3525	0.025
Mof_C 	C 	0.5803	0.0021	0.264	-0.061
Mof_H 	H 	0.5333	0.0028	0.2654	0.03
Mof_Gd	Gd	0.65387	0.00883	0.75369	1.359
Mof_O 	O 	0.70569	0.05046	0.85427	-0.447
Mof_O 	O 	0.70989	0.96002	0.65885	-0.45
Mof_O 	O 	0.79399	0.0825	0.91662	-0.422
Mof_O 	O 	0.7969	0.90927	0.60916	-0.426
Mof_N 	N 	0.78106	0.00069	0.75981	-0.175
Mof_C 	C 	0.769	0.0555	0.8658	0.349
Mof_C 	C 	0.772	0.9453	0.6541	0.358
Mof_C 	C 	0.8163	0.9726	0.7092	-0.063
Mof_C 	C 	0.8144	0.0262	0.8126	-0.061
Mof_C 	C 	0.886	0.97	0.7093	-0.021
Mof_H 	H 	0.9096	0.9501	0.6738	0.022
Mof_C 	C 	0.8842	0.0264	0.8158	-0.025
Mof_H 	H 	0.9065	0.0456	0.8525	0.027
Mof_C 	C 	0.9197	0.9979	0.764	-0.054
Mof_H 	H 	0.9667	0.9972	0.7654	0.029
Mof_Gd	Gd	0.34613	0.50883	0.74631	1.361
Mof_O 	O 	0.29431	0.55046	0.64573	-0.447
Mof_O 	O 	0.29011	0.46002	0.84115	-0.451
Mof_O 	O 	0.20601	0.5825	0.58338	-0.422
Mof_O 	O 	0.2031	0.40927	0.89084	-0.427
Mof_N 	N 	0.21894	0.50069	0.74019	-0.174
Mof_C 	C 	0.231	0.5555	0.6342	0.35
Mof_C 	C 	0.228	0.4453	0.8459	0.359
Mof_C 	C 	0.1837	0.4726	0.7908	-0.067
Mof_C 	C 	0.1856	0.5262	0.6874	-0.063
Mof_C 	C 	0.114	0.47	0.7907	-0.017
Mof_H 	H 	0.0904	0.4501	0.8262	0.02
Mof_C 	C 	0.1158	0.5264	0.6842	-0.018
Mof_H 	H 	0.0935	0.5456	0.6475	0.025
Mof_C 	C 	0.0803	0.4979	0.736	-0.062
Mof_H 	H 	0.0333	0.4972	0.7346	0.03
_end
