data_functionalizedCrystal
_audit_creation_method	'EQeq! by Chris Wilmer'
_symmetry_space_group_name_H-M	'P1'
_symmetry_Int_Tables_number	1
_symmetry_cell_setting	triclinic
loop_
_symmetry_equiv_pos_as_xyz
  x,y,z
_cell_length_a	15.764
_cell_length_b	15.764
_cell_length_c	16.918
_cell_angle_alpha	90
_cell_angle_beta	90
_cell_angle_gamma	120
loop_
_atom_site_label
_atom_site_type_symbol
_atom_site_fract_x
_atom_site_fract_y
_atom_site_fract_z
_atom_site_charge
Mof_Cu	Cu	0.16724	0.80622	0.21613	0.897
Mof_Cu	Cu	0.84722	0.69451	0.5501	0.898
Mof_Cu	Cu	0.52723	0.49964	0.21141	0.903
Mof_O 	O 	0.2938	0.1015	0.9914	-0.357
Mof_O 	O 	0.4578	0.1809	0.988	-0.265
Mof_O 	O 	0.8149	0.8737	0.9842	-0.26
Mof_O 	O 	0.6533	0.7967	0.9901	-0.368
Mof_O 	O 	0.8821	0.678	0.4407	-0.387
Mof_O 	O 	0.8007	0.5118	0.4479	-0.282
Mof_O 	O 	0.4863	0.6317	0.3137	-0.284
Mof_O 	O 	0.5652	0.5467	0.3194	-0.392
Mof_O 	O 	0.4838	0.4549	0.1029	-0.419
Mof_O 	O 	0.4028	0.5332	0.1065	-0.305
Mof_O 	O 	0.2407	0.3705	0.4396	-0.376
Mof_O 	O 	0.158	0.2052	0.4411	-0.287
Mof_N 	N 	0.291	0.9271	0.1769	-0.213
Mof_N 	N 	0.3097	0.2772	0.919	-0.237
Mof_N 	N 	0.7286	0.7036	0.5104	-0.212
Mof_N 	N 	0.6499	0.6216	0.1733	-0.213
Mof_N 	N 	0.4083	0.3767	0.2485	-0.213
Mof_N 	N 	0.0439	0.6803	0.2539	-0.216
Mof_C 	C 	0.3775	0.9547	0.2118	0.068
Mof_H 	H 	0.3778	0.9196	0.2574	0.006
Mof_C 	C 	0.4626	0.0277	0.187	-0.116
Mof_H 	H 	0.5224	0.0395	0.2102	0.083
Mof_C 	C 	0.462	0.0851	0.1277	0.04
Mof_H 	H 	0.5214	0.142	0.1131	0.041
Mof_C 	C 	0.3794	0.0633	0.0893	-0.091
Mof_C 	C 	0.2916	0.981	0.1168	0.057
Mof_H 	H 	0.2315	0.9642	0.0912	0.025
Mof_C 	C 	0.0173	0.5959	0.2144	0.053
Mof_H 	H 	0.0549	0.5962	0.1703	0.013
Mof_C 	C 	0.9354	0.5086	0.2378	-0.106
Mof_H 	H 	0.9152	0.4505	0.208	0.079
Mof_C 	C 	0.8846	0.5066	0.3028	0.049
Mof_H 	H 	0.8308	0.4464	0.3204	0.042
Mof_C 	C 	0.9105	0.5906	0.3432	-0.118
Mof_C 	C 	0.9909	0.6772	0.3152	0.09
Mof_H 	H 	0.008	0.7368	0.3417	0.014
Mof_C 	C 	0.8585	0.5914	0.418	0.329
Mof_C 	C 	0.6748	0.6542	0.4489	0.079
Mof_H 	H 	0.6879	0.6077	0.4245	0.019
Mof_C 	C 	0.6002	0.6666	0.4182	-0.113
Mof_C 	C 	0.5824	0.7346	0.4519	0.046
Mof_H 	H 	0.5317	0.745	0.4325	0.042
Mof_C 	C 	0.6398	0.7883	0.5153	-0.11
Mof_H 	H 	0.6275	0.835	0.5403	0.079
Mof_C 	C 	0.7135	0.7751	0.5419	0.061
Mof_H 	H 	0.755	0.8157	0.583	0.012
Mof_C 	C 	0.5429	0.6094	0.3454	0.328
Mof_C 	C 	0.652	0.6758	0.1129	0.074
Mof_H 	H 	0.5926	0.6564	0.0852	0.017
Mof_C 	C 	0.7368	0.7603	0.0875	-0.11
Mof_C 	C 	0.822	0.7866	0.1277	0.037
Mof_H 	H 	0.8816	0.8419	0.1111	0.042
Mof_C 	C 	0.8212	0.7321	0.1929	-0.105
Mof_H 	H 	0.8794	0.7508	0.2221	0.08
Mof_C 	C 	0.7346	0.6508	0.2142	0.057
Mof_H 	H 	0.7338	0.6138	0.2588	0.012
Mof_C 	C 	0.4212	0.4712	0.0773	0.38
Mof_C 	C 	0.3622	0.4156	0.0047	-0.207
Mof_C 	C 	0.3071	0.4463	0.9616	0.119
Mof_H 	H 	0.3072	0.5047	0.9757	0.023
Mof_C 	C 	0.2517	0.3901	0.8974	-0.161
Mof_H 	H 	0.2137	0.4092	0.8665	0.1
Mof_C 	C 	0.2544	0.307	0.8809	0.1
Mof_H 	H 	0.2141	0.2669	0.8391	-0.004
Mof_C 	C 	0.3607	0.33	0.9817	0.165
Mof_H 	H 	0.3972	0.3082	0.0117	-0.023
Mof_C 	C 	0.3842	0.2855	0.218	0.068
Mof_H 	H 	0.4223	0.2846	0.1748	0.009
Mof_C 	C 	0.3143	0.2008	0.2431	-0.12
Mof_H 	H 	0.3034	0.1418	0.2188	0.083
Mof_C 	C 	0.2554	0.1982	0.3067	0.048
Mof_H 	H 	0.2027	0.1375	0.3246	0.042
Mof_C 	C 	0.2741	0.2809	0.3412	-0.105
Mof_C 	C 	0.3524	0.3733	0.3105	0.059
Mof_H 	H 	0.3646	0.4328	0.3347	0.028
Mof_C 	C 	0.2199	0.2845	0.4131	0.307
Mof_C 	C 	0.7377	0.8161	0.0148	0.291
Mof_C 	C 	0.3783	0.123	0.0169	0.27
Mof_Cu	Cu	0.19378	0.36102	0.54946	0.899
Mof_Cu	Cu	0.30549	0.15271	0.88343	0.898
Mof_Cu	Cu	0.50036	0.02759	0.54474	0.904
Mof_O 	O 	0.8985	0.1923	0.32473	-0.385
Mof_O 	O 	0.8191	0.2769	0.32133	-0.296
Mof_O 	O 	0.1263	0.9412	0.31753	-0.296
Mof_O 	O 	0.2033	0.8566	0.32343	-0.399
Mof_O 	O 	0.322	0.2041	0.77403	-0.387
Mof_O 	O 	0.4882	0.2889	0.78123	-0.281
Mof_O 	O 	0.3683	0.8546	0.64703	-0.284
Mof_O 	O 	0.4533	0.0185	0.65273	-0.388
Mof_O 	O 	0.5451	0.0289	0.43623	-0.404
Mof_O 	O 	0.4668	0.8696	0.43983	-0.294
Mof_O 	O 	0.6295	0.8702	0.77293	-0.376
Mof_O 	O 	0.7948	0.9528	0.77443	-0.287
Mof_N 	N 	0.0729	0.3639	0.51023	-0.215
Mof_N 	N 	0.7228	0.0325	0.25233	-0.218
Mof_N 	N 	0.2964	0.025	0.84373	-0.21
Mof_N 	N 	0.3784	0.0283	0.50663	-0.213
Mof_N 	N 	0.6233	0.0316	0.58183	-0.212
Mof_N 	N 	0.3197	0.3636	0.58723	-0.213
Mof_C 	C 	0.0453	0.4228	0.54513	0.074
Mof_H 	H 	0.0804	0.4582	0.59073	0.004
Mof_C 	C 	0.9723	0.4349	0.52033	-0.124
Mof_H 	H 	0.9605	0.4829	0.54353	0.087
Mof_C 	C 	0.9149	0.3769	0.46103	0.054
Mof_H 	H 	0.858	0.3794	0.44643	0.04
Mof_C 	C 	0.9367	0.3161	0.42263	-0.104
Mof_C 	C 	0.019	0.3106	0.45013	0.067
Mof_H 	H 	0.0358	0.2673	0.42453	0.026
Mof_C 	C 	0.4041	0.4214	0.54773	0.06
Mof_H 	H 	0.4038	0.4587	0.50363	0.013
Mof_C 	C 	0.4914	0.4268	0.57113	-0.112
Mof_H 	H 	0.5495	0.4647	0.54133	0.081
Mof_C 	C 	0.4934	0.378	0.63613	0.05
Mof_H 	H 	0.5536	0.3844	0.65373	0.042
Mof_C 	C 	0.4094	0.3199	0.67653	-0.115
Mof_C 	C 	0.3228	0.3137	0.64853	0.079
Mof_H 	H 	0.2632	0.2712	0.67503	0.021
Mof_C 	C 	0.4086	0.2671	0.75133	0.327
Mof_C 	C 	0.3458	0.0206	0.78223	0.084
Mof_H 	H 	0.3923	0.0802	0.75783	0.018
Mof_C 	C 	0.3334	0.9336	0.75153	-0.117
Mof_C 	C 	0.2654	0.8478	0.78523	0.046
Mof_H 	H 	0.255	0.7867	0.76583	0.042
Mof_C 	C 	0.2117	0.8515	0.84863	-0.108
Mof_H 	H 	0.165	0.7925	0.87363	0.081
Mof_C 	C 	0.2249	0.9384	0.87523	0.058
Mof_H 	H 	0.1843	0.9393	0.91633	0.015
Mof_C 	C 	0.3906	0.9335	0.67873	0.324
Mof_C 	C 	0.3242	0.9762	0.44623	0.082
Mof_H 	H 	0.3436	0.9362	0.41853	0.019
Mof_C 	C 	0.2397	0.9765	0.42083	-0.131
Mof_C 	C 	0.2134	0.0354	0.46103	0.057
Mof_H 	H 	0.1581	0.0397	0.44443	0.039
Mof_C 	C 	0.2679	0.0891	0.52623	-0.114
Mof_H 	H 	0.2492	0.1286	0.55543	0.083
Mof_C 	C 	0.3492	0.0838	0.54753	0.064
Mof_H 	H 	0.3862	0.12	0.59213	0.01
Mof_C 	C 	0.5288	0.95	0.41063	0.35
Mof_C 	C 	0.5844	0.9466	0.33803	-0.128
Mof_C 	C 	0.5537	0.8608	0.29493	0.051
Mof_H 	H 	0.4953	0.8025	0.30903	0.039
Mof_C 	C 	0.6099	0.8616	0.23073	-0.12
Mof_H 	H 	0.5908	0.8045	0.19983	0.084
Mof_C 	C 	0.693	0.9474	0.21423	0.069
Mof_H 	H 	0.7331	0.9472	0.17243	0.004
Mof_C 	C 	0.67	0.0307	0.31503	0.084
Mof_H 	H 	0.6918	0.089	0.34503	0.018
Mof_C 	C 	0.7145	0.0987	0.55133	0.072
Mof_H 	H 	0.7154	0.1377	0.50813	0.008
Mof_C 	C 	0.7992	0.1135	0.57643	-0.124
Mof_H 	H 	0.8582	0.1616	0.55213	0.085
Mof_C 	C 	0.8018	0.0572	0.64003	0.056
Mof_H 	H 	0.8625	0.0652	0.65793	0.04
Mof_C 	C 	0.7191	0.9932	0.67453	-0.111
Mof_C 	C 	0.6267	0.9791	0.64383	0.057
Mof_H 	H 	0.5672	0.9318	0.66803	0.029
Mof_C 	C 	0.7155	0.9354	0.74643	0.309
Mof_C 	C 	0.1839	0.9216	0.34813	0.349
Mof_C 	C 	0.877	0.2553	0.35023	0.322
Mof_Cu	Cu	0.63898	0.83276	0.8828	0.899
Mof_Cu	Cu	0.84729	0.15278	0.21677	0.898
Mof_Cu	Cu	0.97241	0.47277	0.87808	0.904
Mof_O 	O 	0.8077	0.7062	0.65807	-0.387
Mof_O 	O 	0.7231	0.5422	0.65467	-0.297
Mof_O 	O 	0.0588	0.1851	0.65087	-0.295
Mof_O 	O 	0.1434	0.3467	0.65677	-0.399
Mof_O 	O 	0.7959	0.1179	0.10737	-0.395
Mof_O 	O 	0.7111	0.1993	0.11457	-0.294
Mof_O 	O 	0.1454	0.5137	0.98037	-0.254
Mof_O 	O 	0.9815	0.4348	0.98607	-0.36
Mof_O 	O 	0.9711	0.5162	0.76957	-0.404
Mof_O 	O 	0.1304	0.5972	0.77317	-0.293
Mof_O 	O 	0.1298	0.7593	0.10627	-0.386
Mof_O 	O 	0.0472	0.842	0.10777	-0.301
Mof_N 	N 	0.6361	0.709	0.84357	-0.218
Mof_N 	N 	0.9675	0.6903	0.58567	-0.218
Mof_N 	N 	0.975	0.2714	0.17707	-0.209
Mof_N 	N 	0.9717	0.3501	0.83997	-0.213
Mof_N 	N 	0.9684	0.5917	0.91517	-0.228
Mof_N 	N 	0.6364	0.9561	0.92057	-0.235
Mof_C 	C 	0.5772	0.6225	0.87847	0.087
Mof_H 	H 	0.5418	0.6222	0.92407	0.005
Mof_C 	C 	0.5651	0.5374	0.85367	-0.138
Mof_H 	H 	0.5171	0.4776	0.87687	0.093
Mof_C 	C 	0.6231	0.538	0.79437	0.064
Mof_H 	H 	0.6206	0.4786	0.77977	0.037
Mof_C 	C 	0.6839	0.6206	0.75597	-0.114
Mof_C 	C 	0.6894	0.7084	0.78347	0.075
Mof_H 	H 	0.7327	0.7685	0.75787	0.024
Mof_C 	C 	0.5786	0.9827	0.88107	0.083
Mof_H 	H 	0.5413	0.9451	0.83697	0.005
Mof_C 	C 	0.5732	0.0646	0.90447	-0.155
Mof_H 	H 	0.5353	0.0848	0.87467	0.097
Mof_C 	C 	0.622	0.1154	0.96947	0.13
Mof_H 	H 	0.6156	0.1692	0.98707	0.022
Mof_C 	C 	0.6801	0.0895	0.00987	-0.206
Mof_C 	C 	0.6863	0.0091	0.98187	0.18
Mof_H 	H 	0.7288	0.992	0.00837	-0.03
Mof_C 	C 	0.7329	0.1415	0.08467	0.355
Mof_C 	C 	0.9794	0.3252	0.11557	0.075
Mof_H 	H 	0.9198	0.3121	0.09117	0.017
Mof_C 	C 	0.0664	0.3998	0.08487	-0.104
Mof_C 	C 	0.1522	0.4176	0.11857	0.034
Mof_H 	H 	0.2133	0.4683	0.09917	0.042
Mof_C 	C 	0.1485	0.3602	0.18197	-0.104
Mof_H 	H 	0.2075	0.3725	0.20697	0.077
Mof_C 	C 	0.0616	0.2865	0.20857	0.052
Mof_H 	H 	0.0607	0.245	0.24967	0.014
Mof_C 	C 	0.0665	0.4571	0.01207	0.272
Mof_C 	C 	0.0238	0.348	0.77957	0.081
Mof_H 	H 	0.0638	0.4074	0.75187	0.019
Mof_C 	C 	0.0235	0.2632	0.75417	-0.13
Mof_C 	C 	0.9646	0.178	0.79437	0.057
Mof_H 	H 	0.9603	0.1184	0.77777	0.041
Mof_C 	C 	0.9109	0.1788	0.85957	-0.112
Mof_H 	H 	0.8714	0.1206	0.88877	0.086
Mof_C 	C 	0.9162	0.2654	0.88087	0.065
Mof_H 	H 	0.88	0.2662	0.92547	0.014
Mof_C 	C 	0.05	0.5788	0.74397	0.35
Mof_C 	C 	0.0534	0.6378	0.67137	-0.128
Mof_C 	C 	0.1392	0.6929	0.62827	0.051
Mof_H 	H 	0.1975	0.6928	0.64237	0.04
Mof_C 	C 	0.1384	0.7483	0.56407	-0.12
Mof_H 	H 	0.1955	0.7863	0.53317	0.085
Mof_C 	C 	0.0526	0.7456	0.54757	0.07
Mof_H 	H 	0.0528	0.7859	0.50577	0.004
Mof_C 	C 	0.9693	0.6393	0.64837	0.084
Mof_H 	H 	0.911	0.6028	0.67837	0.019
Mof_C 	C 	0.9013	0.6158	0.88467	0.102
Mof_H 	H 	0.8623	0.5777	0.84147	-0.001
Mof_C 	C 	0.8865	0.6857	0.90977	-0.172
Mof_H 	H 	0.8384	0.6966	0.88547	0.102
Mof_C 	C 	0.9428	0.7446	0.97337	0.136
Mof_H 	H 	0.9348	0.7973	0.99127	0.02
Mof_C 	C 	0.0068	0.7259	0.00787	-0.197
Mof_C 	C 	0.0209	0.6476	0.97717	0.137
Mof_H 	H 	0.0682	0.6354	0.00137	-0.012
Mof_C 	C 	0.0646	0.7801	0.07977	0.334
Mof_C 	C 	0.0784	0.2623	0.68147	0.349
Mof_C 	C 	0.7447	0.6217	0.68357	0.325
_end
