data_functionalizedCrystal
_audit_creation_method	'EQeq! by Chris Wilmer'
_symmetry_space_group_name_H-M	'P1'
_symmetry_Int_Tables_number	1
_symmetry_cell_setting	triclinic
loop_
_symmetry_equiv_pos_as_xyz
  x,y,z
_cell_length_a	8.7796
_cell_length_b	14.857
_cell_length_c	21.621
_cell_angle_alpha	72.212
_cell_angle_beta	81.686
_cell_angle_gamma	83.572
loop_
_atom_site_label
_atom_site_type_symbol
_atom_site_fract_x
_atom_site_fract_y
_atom_site_fract_z
_atom_site_charge
Mof_C 	C 	0.9619	0.8004	0.6032	0.099
Mof_H 	H 	0.9969	0.822	0.6344	0.007
Mof_C 	C 	0.8844	0.7957	0.5152	-0.002
Mof_H 	H 	0.8549	0.8136	0.4732	0.033
Mof_C 	C 	0.8878	0.7067	0.5566	0.009
Mof_H 	H 	0.8615	0.6529	0.5483	0.032
Mof_C 	C 	0.9574	0.6303	0.6715	0.009
Mof_H 	H 	0.0029	0.6519	0.7023	0.008
Mof_H 	H 	0.0283	0.5816	0.6598	0.013
Mof_C 	C 	0.8061	0.5882	0.704	0.04
Mof_C 	C 	0.7686	0.5029	0.6999	-0.077
Mof_H 	H 	0.8395	0.4688	0.6778	0.066
Mof_C 	C 	0.6985	0.6372	0.7372	-0.072
Mof_H 	H 	0.7214	0.6953	0.74	0.062
Mof_C 	C 	0.6271	0.4664	0.7281	-0.041
Mof_H 	H 	0.605	0.4082	0.725	0.04
Mof_C 	C 	0.5583	0.6027	0.766	-0.042
Mof_H 	H 	0.4897	0.6367	0.789	0.043
Mof_C 	C 	0.5179	0.517	0.7612	0.003
Mof_C 	C 	0.3633	0.4808	0.7898	0.004
Mof_C 	C 	0.3379	0.3852	0.8085	-0.047
Mof_H 	H 	0.4205	0.3418	0.8038	0.039
Mof_C 	C 	0.2349	0.543	0.7983	-0.045
Mof_H 	H 	0.2471	0.6077	0.7865	0.041
Mof_C 	C 	0.1934	0.352	0.8338	-0.072
Mof_H 	H 	0.1808	0.2874	0.8455	0.052
Mof_C 	C 	0.0927	0.511	0.8234	-0.078
Mof_H 	H 	0.0104	0.5544	0.8284	0.045
Mof_C 	C 	0.0675	0.4146	0.8419	0.031
Mof_C 	C 	0.9065	0.3851	0.869	-0.091
Mof_H 	H 	0.876	0.4027	0.909	0.073
Mof_H 	H 	0.8357	0.4195	0.8379	0.072
Mof_C 	C 	0.9381	0.2146	0.9348	0.096
Mof_H 	H 	0.9764	0.2262	0.9693	-0.009
Mof_C 	C 	0.8428	0.2379	0.8437	-0.009
Mof_H 	H 	0.8044	0.2669	0.8039	0.035
Mof_C 	C 	0.8602	0.1441	0.8738	0.004
Mof_H 	H 	0.8342	0.0966	0.8582	-0.002
Mof_C 	C 	0.9647	0.0603	0.6281	0.143
Mof_H 	H 	0.8643	0.0858	0.6222	-0.025
Mof_C 	C 	0.1848	0.9839	0.6189	0.195
Mof_H 	H 	0.2659	0.9463	0.6048	-0.034
Mof_C 	C 	0.1847	0.0226	0.6665	-0.177
Mof_H 	H 	0.2654	0.017	0.6912	0.073
Mof_C 	C 	0.0037	0.1363	0.7135	-0.248
Mof_H 	H 	0.0448	0.1089	0.7551	0.083
Mof_H 	H 	0.8922	0.1443	0.7222	0.115
Mof_C 	C 	0.067	0.2309	0.6796	0.165
Mof_C 	C 	0.0047	0.2942	0.6256	-0.252
Mof_H 	H 	0.9174	0.279	0.6122	0.137
Mof_C 	C 	0.1977	0.2566	0.698	-0.174
Mof_H 	H 	0.2428	0.2154	0.7335	0.08
Mof_C 	C 	0.0673	0.377	0.5921	0.066
Mof_H 	H 	0.0222	0.4169	0.5562	-0.009
Mof_C 	C 	0.2614	0.3403	0.6656	0.033
Mof_H 	H 	0.3469	0.3552	0.6803	0.015
Mof_C 	C 	0.2017	0.4049	0.6104	-0.065
Mof_C 	C 	0.2738	0.4929	0.5738	0.026
Mof_C 	C 	0.2819	0.5269	0.5052	-0.047
Mof_H 	H 	0.2381	0.4941	0.4827	0.04
Mof_C 	C 	0.3422	0.5443	0.606	-0.048
Mof_H 	H 	0.3382	0.5235	0.6513	0.049
Mof_C 	C 	0.3534	0.6077	0.4712	-0.088
Mof_H 	H 	0.3563	0.6294	0.4259	0.057
Mof_C 	C 	0.4144	0.6241	0.5716	-0.087
Mof_H 	H 	0.4595	0.6568	0.5938	0.065
Mof_C 	C 	0.422	0.658	0.5033	0.071
Mof_C 	C 	0.5052	0.7458	0.4651	-0.138
Mof_H 	H 	0.6017	0.7431	0.4828	0.077
Mof_H 	H 	0.53	0.7456	0.42	0.076
Mof_C 	C 	0.2726	0.849	0.4923	0.087
Mof_H 	H 	0.2094	0.8004	0.515	-0.007
Mof_C 	C 	0.4653	0.9179	0.4369	-0.068
Mof_H 	H 	0.5616	0.9303	0.413	0.068
Mof_C 	C 	0.3473	0.9864	0.4469	0.153
Mof_H 	H 	0.3516	0.0518	0.4317	-0.075
Mof_C 	C 	0.6996	0.9214	0.9777	0.154
Mof_H 	H 	0.7314	0.9329	0.9332	-0.021
Mof_C 	C 	0.6944	0.9101	0.0786	0.005
Mof_H 	H 	0.7235	0.9129	0.1176	0.014
Mof_C 	C 	0.564	0.8762	0.0725	-0.003
Mof_H 	H 	0.4868	0.8524	0.1061	0.033
Mof_C 	C 	0.4504	0.8526	0.9771	-0.092
Mof_H 	H 	0.4604	0.8864	0.9307	0.065
Mof_H 	H 	0.3482	0.8698	0.9958	0.065
Mof_C 	C 	0.4642	0.7469	0.9854	0.067
Mof_C 	C 	0.41	0.7151	0.9411	-0.053
Mof_H 	H 	0.3625	0.7573	0.9067	0.043
Mof_C 	C 	0.5045	0.6802	0.0395	-0.062
Mof_H 	H 	0.5252	0.6994	0.0744	0.057
Mof_C 	C 	0.425	0.618	0.9474	-0.107
Mof_H 	H 	0.3875	0.5975	0.9164	0.068
Mof_C 	C 	0.5166	0.5846	0.0455	-0.14
Mof_H 	H 	0.5423	0.5417	0.0846	0.079
Mof_C 	C 	0.4925	0.5515	0.997	0.138
Mof_N 	N 	0.9319	0.8558	0.5451	-0.21
Mof_N 	N 	0.9364	0.7102	0.6125	-0.121
Mof_N 	N 	0.9226	0.1297	0.9312	-0.245
Mof_N 	N 	0.8925	0.2822	0.8832	-0.107
Mof_N 	N 	0.044	0.0083	0.5935	-0.317
Mof_N 	N 	0.045	0.0725	0.6729	-0.098
Mof_N 	N 	0.229	0.9394	0.4822	-0.252
Mof_N 	N 	0.4161	0.8346	0.4668	-0.096
Mof_N 	N 	0.7793	0.9404	0.0177	-0.248
Mof_N 	N 	0.5655	0.8833	0.0076	-0.129
Mof_C 	C 	0.0381	0.1996	0.3968	0.066
Mof_H 	H 	0.0031	0.178	0.3656	-0.024
Mof_C 	C 	0.1156	0.2043	0.4848	-0.001
Mof_H 	H 	0.1451	0.1864	0.5268	0.016
Mof_C 	C 	0.1122	0.2933	0.4434	-0.021
Mof_H 	H 	0.1385	0.3471	0.4517	0.035
Mof_C 	C 	0.0426	0.3697	0.3285	-0.307
Mof_H 	H 	0.9971	0.3481	0.2977	0.142
Mof_H 	H 	0.9717	0.4184	0.3402	0.149
Mof_C 	C 	0.1939	0.4118	0.296	0.146
Mof_C 	C 	0.2314	0.4971	0.3001	-0.158
Mof_H 	H 	0.1605	0.5312	0.3222	0.076
Mof_C 	C 	0.3015	0.3628	0.2628	-0.155
Mof_H 	H 	0.2786	0.3047	0.26	0.073
Mof_C 	C 	0.3729	0.5336	0.2719	0.002
Mof_H 	H 	0.395	0.5918	0.275	0.023
Mof_C 	C 	0.4417	0.3973	0.234	0.001
Mof_H 	H 	0.5103	0.3633	0.211	0.021
Mof_C 	C 	0.4821	0.483	0.2388	-0.022
Mof_C 	C 	0.6367	0.5192	0.2102	-0.02
Mof_C 	C 	0.6621	0.6148	0.1915	-0.003
Mof_H 	H 	0.5795	0.6582	0.1962	0.026
Mof_C 	C 	0.7651	0.457	0.2017	0.002
Mof_H 	H 	0.7529	0.3923	0.2135	0.022
Mof_C 	C 	0.8066	0.648	0.1662	-0.141
Mof_H 	H 	0.8192	0.7126	0.1545	0.091
Mof_C 	C 	0.9073	0.489	0.1766	-0.15
Mof_H 	H 	0.9896	0.4456	0.1716	0.084
Mof_C 	C 	0.9325	0.5854	0.1581	0.149
Mof_C 	C 	0.0935	0.6149	0.131	-0.206
Mof_H 	H 	0.124	0.5973	0.091	0.084
Mof_H 	H 	0.1643	0.5805	0.1621	0.091
Mof_C 	C 	0.0619	0.7854	0.0652	0.073
Mof_H 	H 	0.0236	0.7738	0.0307	-0.03
Mof_C 	C 	0.1572	0.7621	0.1563	-0.023
Mof_H 	H 	0.1956	0.7331	0.1961	0.034
Mof_C 	C 	0.1398	0.8559	0.1262	0.001
Mof_H 	H 	0.1658	0.9034	0.1418	0.011
Mof_C 	C 	0.0353	0.9397	0.3719	0.03
Mof_H 	H 	0.1357	0.9142	0.3778	0.013
Mof_C 	C 	0.8152	0.0161	0.3811	-0.201
Mof_H 	H 	0.7341	0.0537	0.3952	0.075
Mof_C 	C 	0.8153	0.9774	0.3335	0.154
Mof_H 	H 	0.7346	0.983	0.3088	-0.014
Mof_C 	C 	0.9963	0.8637	0.2865	-0.02
Mof_H 	H 	0.9552	0.8911	0.2449	0.043
Mof_H 	H 	0.1078	0.8557	0.2778	0.019
Mof_C 	C 	0.933	0.7691	0.3204	-0.004
Mof_C 	C 	0.9953	0.7058	0.3744	0.039
Mof_H 	H 	0.0826	0.721	0.3878	-0.005
Mof_C 	C 	0.8023	0.7434	0.302	-0.031
Mof_H 	H 	0.7572	0.7846	0.2665	0.039
Mof_C 	C 	0.9327	0.623	0.4079	-0.115
Mof_H 	H 	0.9778	0.5831	0.4438	0.078
Mof_C 	C 	0.7386	0.6597	0.3344	-0.084
Mof_H 	H 	0.6531	0.6448	0.3197	0.057
Mof_C 	C 	0.7983	0.5951	0.3896	0.047
Mof_C 	C 	0.7262	0.5071	0.4262	-0.027
Mof_C 	C 	0.7181	0.4731	0.4948	-0.005
Mof_H 	H 	0.7619	0.5059	0.5173	0.034
Mof_C 	C 	0.6578	0.4557	0.394	-0.01
Mof_H 	H 	0.6618	0.4765	0.3487	0.034
Mof_C 	C 	0.6466	0.3923	0.5288	-0.109
Mof_H 	H 	0.6437	0.3706	0.5741	0.066
Mof_C 	C 	0.5856	0.3759	0.4284	-0.11
Mof_H 	H 	0.5405	0.3432	0.4062	0.072
Mof_C 	C 	0.578	0.342	0.4967	0.088
Mof_C 	C 	0.4948	0.2542	0.5349	-0.138
Mof_H 	H 	0.3983	0.2569	0.5172	0.074
Mof_H 	H 	0.47	0.2544	0.58	0.074
Mof_C 	C 	0.7274	0.151	0.5077	0.084
Mof_H 	H 	0.7906	0.1996	0.485	0.007
Mof_C 	C 	0.5347	0.0821	0.5631	0.053
Mof_H 	H 	0.4384	0.0697	0.587	-0.004
Mof_C 	C 	0.6527	0.0136	0.5531	-0.134
Mof_H 	H 	0.6484	0.9482	0.5683	0.105
Mof_C 	C 	0.3004	0.0786	0.0223	0.016
Mof_H 	H 	0.2686	0.0671	0.0668	-0.026
Mof_C 	C 	0.3056	0.0899	0.9214	-0.007
Mof_H 	H 	0.2765	0.0871	0.8824	-0.01
Mof_C 	C 	0.436	0.1238	0.9275	-0.02
Mof_H 	H 	0.5132	0.1476	0.8939	0.03
Mof_C 	C 	0.5496	0.1474	0.0229	-0.161
Mof_H 	H 	0.5396	0.1136	0.0693	0.054
Mof_H 	H 	0.6518	0.1302	0.0042	0.046
Mof_C 	C 	0.5358	0.2531	0.0146	0.097
Mof_C 	C 	0.59	0.2849	0.0589	-0.167
Mof_H 	H 	0.6375	0.2427	0.0933	0.068
Mof_C 	C 	0.4955	0.3198	0.9605	-0.138
Mof_H 	H 	0.4748	0.3006	0.9256	0.088
Mof_C 	C 	0.575	0.382	0.0526	0.053
Mof_H 	H 	0.6125	0.4025	0.0836	0.004
Mof_C 	C 	0.4834	0.4154	0.9545	0.088
Mof_H 	H 	0.4577	0.4583	0.9154	0.002
Mof_C 	C 	0.5075	0.4485	0.003	-0.144
Mof_N 	N 	0.0681	0.1442	0.4549	-0.241
Mof_N 	N 	0.0636	0.2898	0.3875	-0.086
Mof_N 	N 	0.0774	0.8703	0.0688	-0.247
Mof_N 	N 	0.1075	0.7178	0.1168	-0.1
Mof_N 	N 	0.956	0.9917	0.4065	-0.142
Mof_N 	N 	0.955	0.9275	0.3271	-0.118
Mof_N 	N 	0.771	0.0606	0.5178	-0.214
Mof_N 	N 	0.5839	0.1654	0.5332	-0.119
Mof_N 	N 	0.2207	0.0596	0.9823	-0.238
Mof_N 	N 	0.4345	0.1167	0.9924	-0.075
Mof_Co	Co	3.21721e-17	0	0.5	1.075
Mof_Co	Co	-0	0	-0	1.013
_end
