# CIF file generated by openbabel 3.1.0, see https://openbabel.org
data_I
_chemical_name_common 'ACODON_clean'
_cell_length_a 10.5573
_cell_length_b 14.4794
_cell_length_c 23.316
_cell_angle_alpha 107.316
_cell_angle_beta 90
_cell_angle_gamma 90
_space_group_name_H-M_alt 'P 1'
_space_group_name_Hall 'P 1'
loop_
    _symmetry_equiv_pos_as_xyz
    x,y,z
loop_
    _atom_site_label
    _atom_site_type_symbol
    _atom_site_fract_x
    _atom_site_fract_y
    _atom_site_fract_z
    _atom_site_occupancy
    Tb1      Tb       0.04805    0.42591    0.76997    1.000
    Tb2      Tb       0.04805    0.07409    0.73003    1.000
    Tb3      Tb       0.95195    0.57409    0.23003    1.000
    Tb4      Tb       0.95195    0.92591    0.26997    1.000
    P1       P        0.83973    0.59847    0.87798    1.000
    P2       P        0.83973    0.90153    0.62202    1.000
    P3       P        0.16027    0.40153    0.12202    1.000
    P4       P        0.16027    0.09847    0.37798    1.000
    H1       H        0.70320    0.75000    0.84620    1.000
    H2       H        0.71560    0.46270    0.78490    1.000
    H3       H        0.86070    0.78220    0.96780    1.000
    H4       H        0.88200    0.83330    0.07020    1.000
    H5       H        0.85050    0.50810    0.97050    1.000
    H6       H        0.51050    0.42170    0.75730    1.000
    H7       H        0.38780    0.62050    0.90590    1.000
    H8       H        0.59500    0.66280    0.93310    1.000
    H9       H        0.06700    0.67940    0.85180    1.000
    H10      H        0.12490    0.80990    0.82240    1.000
    H11      H        0.76080    0.88120    0.81510    1.000
    H12      H        0.87610    0.56030    0.07350    1.000
    H13      H        0.70320    0.75000    0.65380    1.000
    H14      H        0.71560    0.03730    0.71510    1.000
    H15      H        0.86070    0.71780    0.53220    1.000
    H16      H        0.88200    0.66670    0.42980    1.000
    H17      H        0.85050    0.99190    0.52950    1.000
    H18      H        0.51050    0.07830    0.74270    1.000
    H19      H        0.38780    0.87950    0.59410    1.000
    H20      H        0.59500    0.83720    0.56690    1.000
    H21      H        0.06700    0.82060    0.64820    1.000
    H22      H        0.12490    0.69010    0.67760    1.000
    H23      H        0.76080    0.61880    0.68490    1.000
    H24      H        0.87610    0.93970    0.42650    1.000
    H25      H        0.29680    0.25000    0.15380    1.000
    H26      H        0.28440    0.53730    0.21510    1.000
    H27      H        0.13930    0.21780    0.03220    1.000
    H28      H        0.11800    0.16670    0.92980    1.000
    H29      H        0.14950    0.49190    0.02950    1.000
    H30      H        0.48950    0.57830    0.24270    1.000
    H31      H        0.61220    0.37950    0.09410    1.000
    H32      H        0.40500    0.33720    0.06690    1.000
    H33      H        0.93300    0.32060    0.14820    1.000
    H34      H        0.87510    0.19010    0.17760    1.000
    H35      H        0.23920    0.11880    0.18490    1.000
    H36      H        0.12390    0.43970    0.92650    1.000
    H37      H        0.29680    0.25000    0.34620    1.000
    H38      H        0.28440    0.96270    0.28490    1.000
    H39      H        0.13930    0.28220    0.46780    1.000
    H40      H        0.11800    0.33330    0.57020    1.000
    H41      H        0.14950    0.00810    0.47050    1.000
    H42      H        0.48950    0.92170    0.25730    1.000
    H43      H        0.61220    0.12050    0.40590    1.000
    H44      H        0.40500    0.16280    0.43310    1.000
    H45      H        0.93300    0.17940    0.35180    1.000
    H46      H        0.87510    0.30990    0.32240    1.000
    H47      H        0.23920    0.38120    0.31510    1.000
    H48      H        0.12390    0.06030    0.57350    1.000
    H49      H        0.73210    0.25000    0.75000    1.000
    H50      H        0.26790    0.75000    0.25000    1.000
    C1       C        0.87840    0.70010    0.85210    1.000
    C2       C        0.78840    0.76150    0.84100    1.000
    C3       C        0.67800    0.56790    0.86160    1.000
    C4       C        0.64990    0.49510    0.80930    1.000
    C5       C        0.85550    0.63970    0.95820    1.000
    C6       C        0.86400    0.73690    0.98880    1.000
    C7       C        0.87720    0.76740    0.05020    1.000
    C8       C        0.85850    0.57390    0.99030    1.000
    C9       C        0.52710    0.47020    0.79290    1.000
    C10      C        0.42610    0.51670    0.82910    1.000
    C11      C        0.45340    0.58860    0.88130    1.000
    C12      C        0.57810    0.61420    0.89770    1.000
    C13      C        0.29340    0.48670    0.80910    1.000
    C14      C        0.00480    0.71990    0.84440    1.000
    C15      C        0.03960    0.79720    0.82630    1.000
    C16      C        0.94880    0.85690    0.81370    1.000
    C17      C        0.82260    0.84010    0.82210    1.000
    C18      C        0.98470    0.93950    0.78990    1.000
    C19      C        0.87320    0.60520    0.05220    1.000
    C20      C        0.88350    0.70250    0.08250    1.000
    C21      C        0.90040    0.73810    0.14950    1.000
    C22      C        0.87840    0.79990    0.64790    1.000
    C23      C        0.78840    0.73850    0.65900    1.000
    C24      C        0.67800    0.93210    0.63840    1.000
    C25      C        0.64990    0.00490    0.69070    1.000
    C26      C        0.85550    0.86030    0.54180    1.000
    C27      C        0.86400    0.76310    0.51120    1.000
    C28      C        0.87720    0.73260    0.44980    1.000
    C29      C        0.85850    0.92610    0.50970    1.000
    C30      C        0.52710    0.02980    0.70710    1.000
    C31      C        0.42610    0.98330    0.67090    1.000
    C32      C        0.45340    0.91140    0.61870    1.000
    C33      C        0.57810    0.88580    0.60230    1.000
    C34      C        0.29340    0.01330    0.69090    1.000
    C35      C        0.00480    0.78010    0.65560    1.000
    C36      C        0.03960    0.70280    0.67370    1.000
    C37      C        0.94880    0.64310    0.68630    1.000
    C38      C        0.82260    0.65990    0.67790    1.000
    C39      C        0.98470    0.56050    0.71010    1.000
    C40      C        0.87320    0.89480    0.44780    1.000
    C41      C        0.88350    0.79750    0.41750    1.000
    C42      C        0.90040    0.76190    0.35050    1.000
    C43      C        0.12160    0.29990    0.14790    1.000
    C44      C        0.21160    0.23850    0.15900    1.000
    C45      C        0.32200    0.43210    0.13840    1.000
    C46      C        0.35010    0.50490    0.19070    1.000
    C47      C        0.14450    0.36030    0.04180    1.000
    C48      C        0.13600    0.26310    0.01120    1.000
    C49      C        0.12280    0.23260    0.94980    1.000
    C50      C        0.14150    0.42610    0.00970    1.000
    C51      C        0.47290    0.52980    0.20710    1.000
    C52      C        0.57390    0.48330    0.17090    1.000
    C53      C        0.54660    0.41140    0.11870    1.000
    C54      C        0.42190    0.38580    0.10230    1.000
    C55      C        0.70660    0.51330    0.19090    1.000
    C56      C        0.99520    0.28010    0.15560    1.000
    C57      C        0.96040    0.20280    0.17370    1.000
    C58      C        0.05120    0.14310    0.18630    1.000
    C59      C        0.17740    0.15990    0.17790    1.000
    C60      C        0.01530    0.06050    0.21010    1.000
    C61      C        0.12680    0.39480    0.94780    1.000
    C62      C        0.11650    0.29750    0.91750    1.000
    C63      C        0.09960    0.26190    0.85050    1.000
    C64      C        0.12160    0.20010    0.35210    1.000
    C65      C        0.21160    0.26150    0.34100    1.000
    C66      C        0.32200    0.06790    0.36160    1.000
    C67      C        0.35010    0.99510    0.30930    1.000
    C68      C        0.14450    0.13970    0.45820    1.000
    C69      C        0.13600    0.23690    0.48880    1.000
    C70      C        0.12280    0.26740    0.55020    1.000
    C71      C        0.14150    0.07390    0.49030    1.000
    C72      C        0.47290    0.97020    0.29290    1.000
    C73      C        0.57390    0.01670    0.32910    1.000
    C74      C        0.54660    0.08860    0.38130    1.000
    C75      C        0.42190    0.11420    0.39770    1.000
    C76      C        0.70660    0.98670    0.30910    1.000
    C77      C        0.99520    0.21990    0.34440    1.000
    C78      C        0.96040    0.29720    0.32630    1.000
    C79      C        0.05120    0.35690    0.31370    1.000
    C80      C        0.17740    0.34010    0.32210    1.000
    C81      C        0.01530    0.43950    0.28990    1.000
    C82      C        0.12680    0.10520    0.55220    1.000
    C83      C        0.11650    0.20250    0.58250    1.000
    C84      C        0.09960    0.23810    0.64950    1.000
    C85      C        0.82020    0.25000    0.75000    1.000
    C86      C        0.17980    0.75000    0.25000    1.000
    O1       O        0.92480    0.51390    0.85051    1.000
    O2       O        0.20270    0.53000    0.84134    1.000
    O3       O        0.27530    0.41940    0.76172    1.000
    O4       O        0.09930    0.94960    0.77801    1.000
    O5       O        0.90170    0.99370    0.77938    1.000
    O6       O        0.90100    0.67790    0.17739    1.000
    O7       O        0.91080    0.82700    0.17287    1.000
    O8       O        0.86720    0.32670    0.75183    1.000
    O9       O        0.92480    0.98610    0.64949    1.000
    O10      O        0.20270    0.97000    0.65866    1.000
    O11      O        0.27530    0.08060    0.73828    1.000
    O12      O        0.09930    0.55040    0.72199    1.000
    O13      O        0.90170    0.50630    0.72062    1.000
    O14      O        0.90100    0.82210    0.32261    1.000
    O15      O        0.91080    0.67300    0.32713    1.000
    O16      O        0.86720    0.17330    0.74817    1.000
    O17      O        0.07520    0.48610    0.14949    1.000
    O18      O        0.79730    0.47000    0.15866    1.000
    O19      O        0.72470    0.58060    0.23828    1.000
    O20      O        0.90070    0.05040    0.22199    1.000
    O21      O        0.09830    0.00630    0.22062    1.000
    O22      O        0.09900    0.32210    0.82261    1.000
    O23      O        0.08920    0.17300    0.82713    1.000
    O24      O        0.13280    0.67330    0.24817    1.000
    O25      O        0.07520    0.01390    0.35051    1.000
    O26      O        0.79730    0.03000    0.34134    1.000
    O27      O        0.72470    0.91940    0.26172    1.000
    O28      O        0.90070    0.44960    0.27801    1.000
    O29      O        0.09830    0.49370    0.27938    1.000
    O30      O        0.09900    0.17790    0.67739    1.000
    O31      O        0.08920    0.32700    0.67287    1.000
    O32      O        0.13280    0.82670    0.25183    1.000
