# CIF file generated by openbabel 3.1.0, see https://openbabel.org
data_I
_chemical_name_common 'image0'
_cell_length_a 7.2776
_cell_length_b 22.06
_cell_length_c 15.0234
_cell_angle_alpha 90
_cell_angle_beta 98.687
_cell_angle_gamma 90
_space_group_name_H-M_alt 'P 1'
_space_group_name_Hall 'P 1'
loop_
    _symmetry_equiv_pos_as_xyz
    x,y,z
loop_
    _atom_site_label
    _atom_site_type_symbol
    _atom_site_fract_x
    _atom_site_fract_y
    _atom_site_fract_z
    _atom_site_occupancy
    C1       C        0.29320    0.47520    0.16870    1.000
    C2       C        0.34730    0.45700    0.26520    1.000
    C3       C        0.52150    0.47310    0.31080    1.000
    H1       H        0.60210    0.49590    0.28180    1.000
    C4       C        0.22620    0.42280    0.30930    1.000
    H2       H        0.10760    0.41310    0.28060    1.000
    C5       C        0.57520    0.45520    0.39970    1.000
    C6       C        0.45670    0.42090    0.44350    1.000
    H3       H        0.49070    0.40950    0.50330    1.000
    C7       C        0.28640    0.40380    0.39590    1.000
    C8       C        0.35090    0.27850    0.43780    1.000
    H4       H        0.45210    0.30050    0.42420    1.000
    C9       C        0.19210    0.30780    0.44530    1.000
    C10      C        0.36710    0.21720    0.44970    1.000
    H5       H        0.47810    0.19800    0.44320    1.000
    C11      C        0.04310    0.27340    0.46480    1.000
    C12      C        0.76270    0.47370    0.44490    1.000
    C13      C        0.21990    0.18350    0.47140    1.000
    C14      C        0.23340    0.11620    0.48510    1.000
    C15      C        0.05230    0.21240    0.47650    1.000
    H6       H        0.94900    0.19050    0.48770    1.000
    N1       N        0.85970    0.30210    0.46100    1.000
    O1       O        0.23140    0.47110    0.94590    1.000
    H7       H        0.17020    0.45360    0.89130    1.000
    O2       O        0.13080    0.46920    0.13410    1.000
    O3       O        0.42100    0.49630    0.13200    1.000
    O4       O        0.16230    0.36950    0.43920    1.000
    O5       O        0.80660    0.45640    0.52640    1.000
    H8       H        0.91470    0.46590    0.54470    1.000
    O6       O        0.86460    0.50380    0.40310    1.000
    O7       O        0.38040    0.09040    0.47500    1.000
    O8       O        0.09260    0.09180    0.51040    1.000
    O9       O        0.78100    0.29280    0.52720    1.000
    O10      O        0.79800    0.33440    0.40120    1.000
    C16      C        0.20680    0.97520    0.33130    1.000
    C17      C        0.15270    0.95700    0.23480    1.000
    C18      C        0.97850    0.97310    0.18920    1.000
    H9       H        0.89790    0.99590    0.21820    1.000
    C19      C        0.27380    0.92280    0.19070    1.000
    H10      H        0.39240    0.91310    0.21940    1.000
    C20      C        0.92480    0.95520    0.10030    1.000
    C21      C        0.04330    0.92090    0.05650    1.000
    H11      H        0.00930    0.90950    0.99670    1.000
    C22      C        0.21360    0.90380    0.10410    1.000
    C23      C        0.14910    0.77850    0.06220    1.000
    H12      H        0.04790    0.80050    0.07580    1.000
    C24      C        0.30790    0.80780    0.05470    1.000
    C25      C        0.13290    0.71720    0.05030    1.000
    H13      H        0.02190    0.69800    0.05680    1.000
    C26      C        0.45690    0.77340    0.03520    1.000
    C27      C        0.73730    0.97370    0.05510    1.000
    C28      C        0.28010    0.68350    0.02860    1.000
    C29      C        0.26660    0.61620    0.01490    1.000
    C30      C        0.44770    0.71240    0.02350    1.000
    H14      H        0.55100    0.69050    0.01230    1.000
    N2       N        0.64030    0.80210    0.03900    1.000
    O11      O        0.26860    0.97110    0.55410    1.000
    H15      H        0.32980    0.95360    0.60870    1.000
    O12      O        0.36920    0.96920    0.36590    1.000
    O13      O        0.07900    0.99630    0.36800    1.000
    O14      O        0.33770    0.86950    0.06080    1.000
    O15      O        0.69340    0.95640    0.97360    1.000
    H16      H        0.58530    0.96590    0.95530    1.000
    O16      O        0.63540    0.00380    0.09690    1.000
    O17      O        0.11960    0.59040    0.02500    1.000
    O18      O        0.40740    0.59180    0.98960    1.000
    O19      O        0.71900    0.79280    0.97280    1.000
    O20      O        0.70200    0.83440    0.09880    1.000
    C31      C        0.70680    0.52480    0.83130    1.000
    C32      C        0.65270    0.54300    0.73480    1.000
    C33      C        0.47850    0.52690    0.68920    1.000
    H17      H        0.39790    0.50410    0.71820    1.000
    C34      C        0.77380    0.57720    0.69070    1.000
    H18      H        0.89240    0.58690    0.71940    1.000
    C35      C        0.42480    0.54480    0.60030    1.000
    C36      C        0.54330    0.57910    0.55650    1.000
    H19      H        0.50930    0.59050    0.49670    1.000
    C37      C        0.71360    0.59620    0.60410    1.000
    C38      C        0.64910    0.72150    0.56220    1.000
    H20      H        0.54790    0.69950    0.57580    1.000
    C39      C        0.80790    0.69220    0.55470    1.000
    C40      C        0.63290    0.78280    0.55030    1.000
    H21      H        0.52190    0.80200    0.55680    1.000
    C41      C        0.95690    0.72660    0.53520    1.000
    C42      C        0.23730    0.52630    0.55510    1.000
    C43      C        0.78010    0.81650    0.52860    1.000
    C44      C        0.76660    0.88380    0.51490    1.000
    C45      C        0.94770    0.78760    0.52350    1.000
    H22      H        0.05100    0.80950    0.51230    1.000
    N3       N        0.14030    0.69790    0.53900    1.000
    O21      O        0.76860    0.52890    0.05410    1.000
    H23      H        0.82980    0.54640    0.10870    1.000
    O22      O        0.86920    0.53080    0.86590    1.000
    O23      O        0.57900    0.50370    0.86800    1.000
    O24      O        0.83770    0.63050    0.56080    1.000
    O25      O        0.19340    0.54360    0.47360    1.000
    H24      H        0.08530    0.53410    0.45530    1.000
    O26      O        0.13540    0.49620    0.59690    1.000
    O27      O        0.61960    0.90960    0.52500    1.000
    O28      O        0.90740    0.90820    0.48960    1.000
    O29      O        0.21900    0.70720    0.47280    1.000
    O30      O        0.20200    0.66560    0.59880    1.000
    C46      C        0.79320    0.02480    0.66870    1.000
    C47      C        0.84730    0.04300    0.76520    1.000
    C48      C        0.02150    0.02690    0.81080    1.000
    H25      H        0.10210    0.00410    0.78180    1.000
    C49      C        0.72620    0.07720    0.80930    1.000
    H26      H        0.60760    0.08690    0.78060    1.000
    C50      C        0.07520    0.04480    0.89970    1.000
    C51      C        0.95670    0.07910    0.94350    1.000
    H27      H        0.99070    0.09050    0.00330    1.000
    C52      C        0.78640    0.09620    0.89590    1.000
    C53      C        0.85090    0.22150    0.93780    1.000
    H28      H        0.95210    0.19950    0.92420    1.000
    C54      C        0.69210    0.19220    0.94530    1.000
    C55      C        0.86710    0.28280    0.94970    1.000
    H29      H        0.97810    0.30200    0.94320    1.000
    C56      C        0.54310    0.22660    0.96480    1.000
    C57      C        0.26270    0.02630    0.94490    1.000
    C58      C        0.71990    0.31650    0.97140    1.000
    C59      C        0.73340    0.38380    0.98510    1.000
    C60      C        0.55230    0.28760    0.97650    1.000
    H30      H        0.44900    0.30950    0.98770    1.000
    N4       N        0.35970    0.19790    0.96100    1.000
    O31      O        0.73140    0.02890    0.44590    1.000
    H31      H        0.67020    0.04640    0.39130    1.000
    O32      O        0.63080    0.03080    0.63410    1.000
    O33      O        0.92100    0.00370    0.63200    1.000
    O34      O        0.66230    0.13050    0.93920    1.000
    O35      O        0.30660    0.04360    0.02640    1.000
    H32      H        0.41470    0.03410    0.04470    1.000
    O36      O        0.36460    0.99620    0.90310    1.000
    O37      O        0.88040    0.40960    0.97500    1.000
    O38      O        0.59260    0.40820    0.01040    1.000
    O39      O        0.28100    0.20720    0.02720    1.000
    O40      O        0.29800    0.16560    0.90120    1.000
    In1      In       0.00000    0.50000    0.00000    1.000
    In2      In       0.50000    0.00000    0.50000    1.000
    In3      In       0.50000    0.50000    0.00000    1.000
    In4      In       0.00000    0.00000    0.50000    1.000
