data_functionalizedCrystal
_audit_creation_method	'EQeq! by Chris Wilmer'
_symmetry_space_group_name_H-M	'P1'
_symmetry_Int_Tables_number	1
_symmetry_cell_setting	triclinic
loop_
_symmetry_equiv_pos_as_xyz
  x,y,z
_cell_length_a	10.8352
_cell_length_b	6.3246
_cell_length_c	16.8834
_cell_angle_alpha	90
_cell_angle_beta	105.667
_cell_angle_gamma	90
loop_
_atom_site_label
_atom_site_type_symbol
_atom_site_fract_x
_atom_site_fract_y
_atom_site_fract_z
_atom_site_charge
Mof_Ni	Ni	0.53502	0.00363	0.91739	1.067
Mof_C 	C 	0.6651	0.1859	0.6625	0.354
Mof_C 	C 	0.7726	0.1166	0.7342	-0.085
Mof_C 	C 	0.8304	0.9211	0.737	-0.042
Mof_H 	H 	0.8011	0.8261	0.694	0.054
Mof_C 	C 	0.931	0.8654	0.803	0.086
Mof_H 	H 	0.969	0.7333	0.8036	0.014
Mof_C 	C 	0.9765	0.0015	0.8682	-0.231
Mof_H 	H 	0.0455	0.9624	0.9119	0.153
Mof_C 	C 	0.9199	0.1935	0.8681	0.118
Mof_C 	C 	0.8188	0.2542	0.8004	-0.097
Mof_H 	H 	0.7822	0.3874	0.7996	0.066
Mof_C 	C 	0.0846	0.4293	0.9597	0.134
Mof_H 	H 	0.1436	0.3793	0.9331	-0.006
Mof_C 	C 	0.9616	0.3445	0.9383	-0.084
Mof_C 	C 	0.8772	0.4162	0.9815	0.061
Mof_C 	C 	0.7398	0.3271	0.9662	0.334
Mof_O 	O 	0.6093	0.0339	0.6182	-0.457
Mof_O 	O 	0.6372	0.3773	0.6508	-0.45
Mof_O 	O 	0.7209	0.1356	0.9666	-0.416
Mof_O 	O 	0.6573	0.4701	0.9559	-0.415
Mof_O 	O 	0.4474	0.1899	0.9837	-0.734
Mof_H 	H 	0.3683	0.19	0.9584	0.273
Mof_Ni	Ni	0.46498	0.50363	0.58261	1.068
Mof_C 	C 	0.3349	0.6859	0.8375	0.349
Mof_C 	C 	0.2274	0.6166	0.7658	-0.065
Mof_C 	C 	0.1696	0.4211	0.763	-0.052
Mof_H 	H 	0.1989	0.3261	0.806	0.047
Mof_C 	C 	0.069	0.3654	0.697	0.007
Mof_H 	H 	0.031	0.2333	0.6964	0.023
Mof_C 	C 	0.0235	0.5015	0.6318	-0.136
Mof_H 	H 	0.9545	0.4624	0.5881	0.096
Mof_C 	C 	0.0801	0.6935	0.6319	0.072
Mof_C 	C 	0.1812	0.7542	0.6996	-0.08
Mof_H 	H 	0.2178	0.8874	0.7004	0.066
Mof_C 	C 	0.9154	0.9293	0.5403	0.089
Mof_H 	H 	0.8564	0.8793	0.5669	0.011
Mof_C 	C 	0.0384	0.8445	0.5617	-0.059
Mof_C 	C 	0.1228	0.9162	0.5185	0.008
Mof_C 	C 	0.2602	0.8271	0.5338	0.345
Mof_O 	O 	0.3907	0.5339	0.8818	-0.424
Mof_O 	O 	0.3628	0.8773	0.8492	-0.426
Mof_O 	O 	0.2791	0.6356	0.5334	-0.433
Mof_O 	O 	0.3427	0.9701	0.5441	-0.426
Mof_O 	O 	0.5526	0.6899	0.5163	-0.755
Mof_H 	H 	0.6317	0.69	0.5416	0.278
Mof_Ni	Ni	0.46498	0.99637	0.08261	1.072
Mof_C 	C 	0.3349	0.8141	0.3375	0.37
Mof_C 	C 	0.2274	0.8834	0.2658	-0.117
Mof_C 	C 	0.1696	0.0789	0.263	0.031
Mof_H 	H 	0.1989	0.1739	0.306	0.012
Mof_C 	C 	0.069	0.1346	0.197	-0.18
Mof_H 	H 	0.031	0.2667	0.1964	0.092
Mof_C 	C 	0.0235	0.9985	0.1318	0.109
Mof_H 	H 	0.9545	0.0376	0.0881	-0.022
Mof_C 	C 	0.0801	0.8065	0.1319	-0.099
Mof_C 	C 	0.1812	0.7458	0.1996	0.027
Mof_H 	H 	0.2178	0.6126	0.2004	0.021
Mof_C 	C 	0.9154	0.5707	0.0403	-0.205
Mof_H 	H 	0.8564	0.6207	0.0669	0.093
Mof_C 	C 	0.0384	0.6555	0.0617	0.139
Mof_C 	C 	0.1228	0.5838	0.0185	-0.238
Mof_C 	C 	0.2602	0.6729	0.0338	0.415
Mof_O 	O 	0.3907	0.9661	0.3818	-0.426
Mof_O 	O 	0.3628	0.6227	0.3492	-0.454
Mof_O 	O 	0.2791	0.8644	0.0334	-0.466
Mof_O 	O 	0.3427	0.5299	0.0441	-0.48
Mof_O 	O 	0.5526	0.8101	0.0163	-0.782
Mof_H 	H 	0.6317	0.81	0.0416	0.273
Mof_Ni	Ni	0.53502	0.49637	0.41739	1.07
Mof_C 	C 	0.6651	0.3141	0.1625	0.373
Mof_C 	C 	0.7726	0.3834	0.2342	-0.135
Mof_C 	C 	0.8304	0.5789	0.237	0.039
Mof_H 	H 	0.8011	0.6739	0.194	0.02
Mof_C 	C 	0.931	0.6346	0.303	-0.102
Mof_H 	H 	0.969	0.7667	0.3036	0.083
Mof_C 	C 	0.9765	0.4985	0.3682	0.016
Mof_H 	H 	0.0455	0.5376	0.4119	0.032
Mof_C 	C 	0.9199	0.3065	0.3681	-0.054
Mof_C 	C 	0.8188	0.2458	0.3004	0.009
Mof_H 	H 	0.7822	0.1126	0.2996	0.022
Mof_C 	C 	0.0846	0.0707	0.4597	-0.163
Mof_H 	H 	0.1436	0.1207	0.4331	0.077
Mof_C 	C 	0.9616	0.1555	0.4383	0.116
Mof_C 	C 	0.8772	0.0838	0.4815	-0.184
Mof_C 	C 	0.7398	0.1729	0.4662	0.406
Mof_O 	O 	0.6093	0.4661	0.1182	-0.455
Mof_O 	O 	0.6372	0.1227	0.1508	-0.474
Mof_O 	O 	0.7209	0.3644	0.4666	-0.45
Mof_O 	O 	0.6573	0.0299	0.4559	-0.472
Mof_O 	O 	0.4474	0.3101	0.4837	-0.765
Mof_H 	H 	0.3683	0.31	0.4584	0.269
Mof_Ni	Ni	0.5	0.5	-0	1.113
Mof_Ni	Ni	0.5	-2.26602e-32	0.5	1.124
_end
