data_functionalizedCrystal
_audit_creation_method	'EQeq! by Chris Wilmer'
_symmetry_space_group_name_H-M	'P1'
_symmetry_Int_Tables_number	1
_symmetry_cell_setting	triclinic
loop_
_symmetry_equiv_pos_as_xyz
  x,y,z
_cell_length_a	18.9545
_cell_length_b	18.9545
_cell_length_c	5.7911
_cell_angle_alpha	90
_cell_angle_beta	90
_cell_angle_gamma	90
loop_
_atom_site_label
_atom_site_type_symbol
_atom_site_fract_x
_atom_site_fract_y
_atom_site_fract_z
_atom_site_charge
Mof_O 	O 	0.3163	0.7578	0.0635	-0.557
Mof_O 	O 	0.4128	0.7699	0.2628	-0.316
Mof_C 	C 	0.3809	0.759	0.088	0.384
Mof_O 	O 	0.3763	0.7345	0.6787	-0.577
Mof_H 	H 	0.398	0.752	0.581	0.363
Mof_C 	C 	0.4761	0.688	0.887	0.108
Mof_H 	H 	0.5063	0.6969	0.0212	0.013
Mof_O 	O 	0.4383	0.6247	0.9264	-0.093
Mof_O 	O 	0.5694	0.6219	0.7086	-0.092
Mof_C 	C 	0.5688	0.7444	0.626	-0.01
Mof_H 	H 	0.538	0.7843	0.589	0.055
Mof_O 	O 	0.6133	0.7284	0.4255	-0.483
Mof_H 	H 	0.605	0.747	0.298	0.277
Mof_C 	C 	0.6156	0.7642	0.83	0.391
Mof_O 	O 	0.6822	0.7519	0.8053	-0.543
Mof_O 	O 	0.587	0.7889	0.0088	-0.336
Mof_C 	C 	0.4249	0.7501	0.862	0.016
Mof_H 	H 	0.4509	0.7935	0.8277	0.05
Mof_C 	C 	0.5234	0.6796	0.675	0.023
Mof_H 	H 	0.4938	0.6702	0.5397	0.081
Mof_O 	O 	0.6837	0.2422	0.5635	-0.536
Mof_O 	O 	0.5872	0.2301	0.7628	-0.294
Mof_C 	C 	0.6191	0.241	0.588	0.414
Mof_O 	O 	0.6237	0.2655	0.1787	-0.585
Mof_H 	H 	0.602	0.248	0.081	0.352
Mof_C 	C 	0.5239	0.312	0.387	0.029
Mof_H 	H 	0.4937	0.3031	0.5212	0.073
Mof_O 	O 	0.5617	0.3753	0.4264	-0.095
Mof_O 	O 	0.4306	0.3781	0.2086	-0.123
Mof_C 	C 	0.4312	0.2556	0.126	-0.055
Mof_H 	H 	0.462	0.2157	0.089	0.053
Mof_O 	O 	0.3867	0.2716	0.9255	-0.425
Mof_H 	H 	0.395	0.253	0.798	0.268
Mof_C 	C 	0.3844	0.2358	0.33	0.341
Mof_O 	O 	0.3178	0.2481	0.3053	-0.556
Mof_O 	O 	0.413	0.2111	0.5088	-0.282
Mof_C 	C 	0.5751	0.2499	0.362	0.005
Mof_H 	H 	0.5491	0.2065	0.3277	0.038
Mof_C 	C 	0.4766	0.3204	0.175	0.058
Mof_H 	H 	0.5062	0.3298	0.0397	0.058
Mof_O 	O 	0.7422	0.8163	0.3135	-0.553
Mof_O 	O 	0.7301	0.9128	0.5128	-0.318
Mof_C 	C 	0.741	0.8809	0.338	0.427
Mof_O 	O 	0.7655	0.8763	0.9287	-0.527
Mof_H 	H 	0.748	0.898	0.831	0.356
Mof_C 	C 	0.812	0.9761	0.137	0.017
Mof_H 	H 	0.8031	0.0063	0.2712	0.065
Mof_O 	O 	0.8753	0.9383	0.1764	-0.115
Mof_O 	O 	0.8781	0.0694	0.9586	-0.087
Mof_C 	C 	0.7556	0.0688	0.876	0.04
Mof_H 	H 	0.7157	0.038	0.839	0.051
Mof_O 	O 	0.7716	0.1133	0.6755	-0.485
Mof_H 	H 	0.753	0.105	0.548	0.28
Mof_C 	C 	0.7358	0.1156	0.08	0.286
Mof_O 	O 	0.7481	0.1822	0.0553	-0.562
Mof_O 	O 	0.7111	0.087	0.2588	-0.281
Mof_C 	C 	0.7499	0.9249	0.112	-0.045
Mof_H 	H 	0.7065	0.9509	0.0777	0.04
Mof_C 	C 	0.8204	0.0234	0.925	0.061
Mof_H 	H 	0.8298	0.9938	0.7897	0.08
Mof_O 	O 	0.2578	0.1837	0.8135	-0.545
Mof_O 	O 	0.2699	0.0872	0.0128	-0.381
Mof_C 	C 	0.259	0.1191	0.838	0.49
Mof_O 	O 	0.2345	0.1237	0.4287	-0.581
Mof_H 	H 	0.252	0.102	0.331	0.365
Mof_C 	C 	0.188	0.0239	0.637	0.037
Mof_H 	H 	0.1969	0.9937	0.7712	0.08
Mof_O 	O 	0.1247	0.0617	0.6764	-0.091
Mof_O 	O 	0.1219	0.9306	0.4586	-0.104
Mof_C 	C 	0.2444	0.9312	0.376	-0.004
Mof_H 	H 	0.2843	0.962	0.339	0.048
Mof_O 	O 	0.2284	0.8867	0.1755	-0.484
Mof_H 	H 	0.247	0.895	0.048	0.261
Mof_C 	C 	0.2642	0.8844	0.58	0.33
Mof_O 	O 	0.2519	0.8178	0.5553	-0.541
Mof_O 	O 	0.2889	0.913	0.7588	-0.263
Mof_C 	C 	0.2501	0.0751	0.612	-0.019
Mof_H 	H 	0.2935	0.0491	0.5777	0.05
Mof_C 	C 	0.1796	0.9766	0.425	0.044
Mof_H 	H 	0.1702	0.0062	0.2897	0.071
Mof_O 	O 	0.1837	0.2578	0.1865	-0.537
Mof_O 	O 	0.0872	0.2699	0.9872	-0.26
Mof_C 	C 	0.1191	0.259	0.162	0.349
Mof_O 	O 	0.1237	0.2345	0.5713	-0.582
Mof_H 	H 	0.102	0.252	0.669	0.368
Mof_C 	C 	0.0239	0.188	0.363	0.049
Mof_H 	H 	0.9937	0.1969	0.2288	0.047
Mof_O 	O 	0.0617	0.1247	0.3236	-0.112
Mof_O 	O 	0.9306	0.1219	0.5414	-0.106
Mof_C 	C 	0.9312	0.2444	0.624	0.005
Mof_H 	H 	0.962	0.2843	0.661	0.05
Mof_O 	O 	0.8867	0.2284	0.8245	-0.484
Mof_H 	H 	0.895	0.247	0.952	0.299
Mof_C 	C 	0.8844	0.2642	0.42	0.333
Mof_O 	O 	0.8178	0.2519	0.4447	-0.551
Mof_O 	O 	0.913	0.2889	0.2412	-0.308
Mof_C 	C 	0.0751	0.2501	0.388	0.01
Mof_H 	H 	0.0491	0.2935	0.4223	0.036
Mof_C 	C 	0.9766	0.1796	0.575	0.024
Mof_H 	H 	0.0062	0.1702	0.7103	0.092
Mof_O 	O 	0.8163	0.7422	0.6865	-0.53
Mof_O 	O 	0.9128	0.7301	0.4872	-0.324
Mof_C 	C 	0.8809	0.741	0.662	0.414
Mof_O 	O 	0.8763	0.7655	0.0713	-0.629
Mof_H 	H 	0.898	0.748	0.169	0.375
Mof_C 	C 	0.9761	0.812	0.863	0.07
Mof_H 	H 	0.0063	0.8031	0.7288	0.062
Mof_O 	O 	0.9383	0.8753	0.8236	-0.088
Mof_O 	O 	0.0694	0.8781	0.0414	-0.122
Mof_C 	C 	0.0688	0.7556	0.124	-0.037
Mof_H 	H 	0.038	0.7157	0.161	0.047
Mof_O 	O 	0.1133	0.7716	0.3245	-0.482
Mof_H 	H 	0.105	0.753	0.452	0.279
Mof_C 	C 	0.1156	0.7358	0.92	0.375
Mof_O 	O 	0.1822	0.7481	0.9447	-0.531
Mof_O 	O 	0.087	0.7111	0.7412	-0.289
Mof_C 	C 	0.9249	0.7499	0.888	0.034
Mof_H 	H 	0.9509	0.7065	0.9223	0.046
Mof_C 	C 	0.0234	0.8204	0.075	0.008
Mof_H 	H 	0.9938	0.8298	0.2103	0.082
Mof_O 	O 	0.7578	0.3163	0.9365	-0.529
Mof_O 	O 	0.7699	0.4128	0.7372	-0.325
Mof_C 	C 	0.759	0.3809	0.912	0.46
Mof_O 	O 	0.7345	0.3763	0.3213	-0.585
Mof_H 	H 	0.752	0.398	0.419	0.37
Mof_C 	C 	0.688	0.4761	0.113	-0.022
Mof_H 	H 	0.6969	0.5063	0.9788	0.115
Mof_O 	O 	0.6247	0.4383	0.0736	-0.109
Mof_O 	O 	0.6219	0.5694	0.2914	-0.117
Mof_C 	C 	0.7444	0.5688	0.374	0.012
Mof_H 	H 	0.7843	0.538	0.411	0.043
Mof_O 	O 	0.7284	0.6133	0.5745	-0.485
Mof_H 	H 	0.747	0.605	0.702	0.283
Mof_C 	C 	0.7642	0.6156	0.17	0.269
Mof_O 	O 	0.7519	0.6822	0.1947	-0.543
Mof_O 	O 	0.7889	0.587	0.9912	-0.232
Mof_C 	C 	0.7501	0.4249	0.138	-0.027
Mof_H 	H 	0.7935	0.4509	0.1723	0.036
Mof_C 	C 	0.6796	0.5234	0.325	0.045
Mof_H 	H 	0.6702	0.4938	0.4603	0.082
Mof_O 	O 	0.2422	0.6837	0.4365	-0.551
Mof_O 	O 	0.2301	0.5872	0.2372	-0.347
Mof_C 	C 	0.241	0.6191	0.412	0.428
Mof_O 	O 	0.2655	0.6237	0.8213	-0.578
Mof_H 	H 	0.248	0.602	0.919	0.38
Mof_C 	C 	0.312	0.5239	0.613	0.058
Mof_H 	H 	0.3031	0.4937	0.4788	0.054
Mof_O 	O 	0.3753	0.5617	0.5736	-0.107
Mof_O 	O 	0.3781	0.4306	0.7914	-0.085
Mof_C 	C 	0.2556	0.4312	0.874	0.055
Mof_H 	H 	0.2157	0.462	0.911	0.045
Mof_O 	O 	0.2716	0.3867	0.0745	-0.536
Mof_H 	H 	0.253	0.395	0.202	0.291
Mof_C 	C 	0.2358	0.3844	0.67	0.321
Mof_O 	O 	0.2481	0.3178	0.6947	-0.53
Mof_O 	O 	0.2111	0.413	0.4912	-0.287
Mof_C 	C 	0.2499	0.5751	0.638	-0.014
Mof_H 	H 	0.2065	0.5491	0.6723	0.048
Mof_C 	C 	0.3204	0.4766	0.825	0.01
Mof_H 	H 	0.3298	0.5062	0.9603	0.104
Mof_Zn	Zn	0.27031	0.72969	0.75	1.27
Mof_Zn	Zn	0.72969	0.27031	0.25	1.258
Mof_Zn	Zn	0.77031	0.77031	-0	1.248
Mof_Zn	Zn	0.22969	0.22969	0.5	1.264
Mof_Zn	Zn	0.2218	0.7782	0.25	1.246
Mof_Zn	Zn	0.7782	0.2218	0.75	1.259
Mof_Zn	Zn	0.7218	0.7218	0.5	1.252
Mof_Zn	Zn	0.2782	0.2782	-0	1.236
_end
