data_functionalizedCrystal
_audit_creation_method	'EQeq! by Chris Wilmer'
_symmetry_space_group_name_H-M	'P1'
_symmetry_Int_Tables_number	1
_symmetry_cell_setting	triclinic
loop_
_symmetry_equiv_pos_as_xyz
  x,y,z
_cell_length_a	7.8161
_cell_length_b	21.283
_cell_length_c	8.3419
_cell_angle_alpha	90
_cell_angle_beta	90
_cell_angle_gamma	90
loop_
_atom_site_label
_atom_site_type_symbol
_atom_site_fract_x
_atom_site_fract_y
_atom_site_fract_z
_atom_site_charge
Mof_N 	N 	0.1191	0.0756	0.418	-0.163
Mof_H 	H 	0.388	0.228	0.376	0.033
Mof_C 	C 	0.1914	0.1276	0.3694	0.08
Mof_H 	H 	0.208	0.1398	0.2622	-0.015
Mof_N 	N 	0.6191	0.5756	0.418	-0.163
Mof_H 	H 	0.888	0.728	0.376	0.047
Mof_C 	C 	0.6914	0.6276	0.3694	0.092
Mof_H 	H 	0.708	0.6398	0.2622	-0.005
Mof_N 	N 	0.8809	0.9244	0.418	-0.121
Mof_H 	H 	0.612	0.772	0.376	0.035
Mof_C 	C 	0.8086	0.8724	0.3694	0.098
Mof_H 	H 	0.792	0.8602	0.2622	0.007
Mof_N 	N 	0.3809	0.4244	0.418	-0.165
Mof_H 	H 	0.112	0.272	0.376	0.02
Mof_C 	C 	0.3086	0.3724	0.3694	0.085
Mof_H 	H 	0.292	0.3602	0.2622	-0.016
Mof_N 	N 	0.8809	0.0756	0.082	-0.128
Mof_H 	H 	0.612	0.228	0.124	0.03
Mof_C 	C 	0.8086	0.1276	0.1306	0.097
Mof_H 	H 	0.792	0.1398	0.2378	-0.003
Mof_N 	N 	0.3809	0.5756	0.082	-0.155
Mof_H 	H 	0.112	0.728	0.124	0.017
Mof_C 	C 	0.3086	0.6276	0.1306	0.089
Mof_H 	H 	0.292	0.6398	0.2378	-0.02
Mof_N 	N 	0.1191	0.9244	0.082	-0.134
Mof_H 	H 	0.388	0.772	0.124	0.032
Mof_C 	C 	0.1914	0.8724	0.1306	0.091
Mof_H 	H 	0.208	0.8602	0.2378	-0.012
Mof_N 	N 	0.6191	0.4244	0.082	-0.152
Mof_H 	H 	0.888	0.272	0.124	0.044
Mof_C 	C 	0.6914	0.3724	0.1306	0.096
Mof_H 	H 	0.708	0.3602	0.2378	-0.01
Mof_N 	N 	0.8809	0.9244	0.582	-0.121
Mof_H 	H 	0.612	0.772	0.624	0.032
Mof_C 	C 	0.8086	0.8724	0.6306	0.098
Mof_H 	H 	0.792	0.8602	0.7378	-0.001
Mof_N 	N 	0.3809	0.4244	0.582	-0.165
Mof_H 	H 	0.112	0.272	0.624	0.017
Mof_C 	C 	0.3086	0.3724	0.6306	0.085
Mof_H 	H 	0.292	0.3602	0.7378	-0.024
Mof_N 	N 	0.1191	0.0756	0.582	-0.162
Mof_H 	H 	0.388	0.228	0.624	0.031
Mof_C 	C 	0.1914	0.1276	0.6306	0.081
Mof_H 	H 	0.208	0.1398	0.7378	-0.021
Mof_N 	N 	0.6191	0.5756	0.582	-0.162
Mof_H 	H 	0.888	0.728	0.624	0.044
Mof_C 	C 	0.6914	0.6276	0.6306	0.092
Mof_H 	H 	0.708	0.6398	0.7378	-0.013
Mof_N 	N 	0.1191	0.9244	0.918	-0.151
Mof_H 	H 	0.388	0.772	0.876	0.016
Mof_C 	C 	0.1914	0.8724	0.8694	0.059
Mof_H 	H 	0.208	0.8602	0.7622	-0.005
Mof_N 	N 	0.6191	0.4244	0.918	-0.169
Mof_H 	H 	0.888	0.272	0.876	0.028
Mof_C 	C 	0.6914	0.3724	0.8694	0.065
Mof_H 	H 	0.708	0.3602	0.7622	-0.002
Mof_N 	N 	0.8809	0.0756	0.918	-0.146
Mof_H 	H 	0.612	0.228	0.876	0.014
Mof_C 	C 	0.8086	0.1276	0.8694	0.066
Mof_H 	H 	0.792	0.1398	0.7622	0.005
Mof_N 	N 	0.3809	0.5756	0.918	-0.173
Mof_H 	H 	0.112	0.728	0.876	0.001
Mof_C 	C 	0.3086	0.6276	0.8694	0.058
Mof_H 	H 	0.292	0.6398	0.7622	-0.013
Mof_Ag	Ag	1.00041e-33	1.13695e-33	0.25	0.437
Mof_Ag	Ag	0.5	0.5	0.25	0.575
Mof_Ag	Ag	3.00122e-33	4.54781e-33	0.75	0.412
Mof_Ag	Ag	0.5	0.5	0.75	0.549
Mof_N 	N 	0.238	0.1608	0.5	-0.14
Mof_C 	C 	0.3186	0.2246	0.5	-0.026
Mof_N 	N 	0.738	0.6608	0.5	-0.138
Mof_C 	C 	0.8186	0.7246	0.5	-0.024
Mof_N 	N 	0.762	0.8392	0.5	-0.137
Mof_C 	C 	0.6814	0.7754	0.5	-0.022
Mof_N 	N 	0.262	0.3392	0.5	-0.143
Mof_C 	C 	0.1814	0.2754	0.5	-0.026
Mof_N 	N 	0.762	0.1608	-0	-0.124
Mof_C 	C 	0.6814	0.2246	-0	-0.001
Mof_N 	N 	0.262	0.6608	-0	-0.129
Mof_C 	C 	0.1814	0.7246	-0	-0.004
Mof_N 	N 	0.238	0.8392	-0	-0.125
Mof_C 	C 	0.3186	0.7754	-0	-0.003
Mof_N 	N 	0.738	0.3392	-0	-0.124
Mof_C 	C 	0.8186	0.2754	-0	-0.002
_end
