data_functionalizedCrystal
_audit_creation_method	'EQeq! by Chris Wilmer'
_symmetry_space_group_name_H-M	'P1'
_symmetry_Int_Tables_number	1
_symmetry_cell_setting	triclinic
loop_
_symmetry_equiv_pos_as_xyz
  x,y,z
_cell_length_a	15.5168
_cell_length_b	16.779
_cell_length_c	18.7394
_cell_angle_alpha	94.142
_cell_angle_beta	113.527
_cell_angle_gamma	110.215
loop_
_atom_site_label
_atom_site_type_symbol
_atom_site_fract_x
_atom_site_fract_y
_atom_site_fract_z
_atom_site_charge
Mof_Zn	Zn	0.42982	0.41057	0.2882	1.24
Mof_Zn	Zn	0.19115	0.87693	0.46624	1.157
Mof_Zn	Zn	0.00845	0.8084	0.2756	1.236
Mof_S 	S 	0.26838	0.13098	0.31983	0.082
Mof_S 	S 	0.76722	0.62936	0.35886	0.102
Mof_S 	S 	0.29331	0.65218	0.38312	0.079
Mof_S 	S 	0.74845	0.7224	0.99591	0.098
Mof_O 	O 	0.1095	0.9183	0.3637	-0.602
Mof_O 	O 	0.1259	0.9425	0.2549	-0.33
Mof_O 	O 	0.3937	0.3708	0.4424	-0.448
Mof_O 	O 	0.3947	0.3105	0.3323	-0.48
Mof_O 	O 	0.6024	0.4954	0.4546	-0.439
Mof_O 	O 	0.5682	0.5021	0.3279	-0.468
Mof_O 	O 	0.9333	0.7457	0.3336	-0.473
Mof_O 	O 	0.0563	0.7868	0.4581	-0.522
Mof_O 	O 	0.9056	0.7712	0.1625	-0.431
Mof_O 	O 	0.8671	0.8677	0.2099	-0.334
Mof_O 	O 	0.6269	0.6397	0.8251	-0.445
Mof_O 	O 	0.5085	0.6924	0.8001	-0.296
Mof_O 	O 	0.4219	0.5515	0.4095	-0.461
Mof_O 	O 	0.339	0.4693	0.2857	-0.475
Mof_O 	O 	0.2089	0.7842	0.398	-0.507
Mof_O 	O 	0.087	0.7402	0.2703	-0.479
Mof_C 	C 	0.1675	0.6226	0.2403	-0.002
Mof_H 	H 	0.1166	0.6241	0.1931	0.05
Mof_C 	C 	0.2179	0.5659	0.2442	0.004
Mof_H 	H 	0.2034	0.5259	0.1996	0.048
Mof_C 	C 	0.6889	0.8194	0.0531	-0.005
Mof_H 	H 	0.6827	0.8565	0.0884	0.045
Mof_C 	C 	0.7653	0.7907	0.0749	-0.098
Mof_C 	C 	0.6392	0.731	0.9309	-0.094
Mof_C 	C 	0.6209	0.7866	0.9715	-0.007
Mof_H 	H 	0.5662	0.8024	0.9469	0.047
Mof_C 	C 	0.8521	0.8129	0.1556	0.37
Mof_C 	C 	0.8092	0.6274	0.502	-0.021
Mof_H 	H 	0.8043	0.6152	0.5482	0.055
Mof_C 	C 	0.2012	0.6732	0.3114	-0.115
Mof_C 	C 	0.2877	0.5755	0.3178	-0.12
Mof_C 	C 	0.5866	0.6836	0.8446	0.364
Mof_C 	C 	0.1441	0.9689	0.3258	0.338
Mof_C 	C 	0.2208	0.1083	0.4336	-0.005
Mof_H 	H 	0.1932	0.082	0.4661	0.002
Mof_C 	C 	0.899	0.686	0.5022	0.028
Mof_H 	H 	0.9599	0.717	0.5489	0.026
Mof_C 	C 	0.357	0.5287	0.3408	0.44
Mof_C 	C 	0.2084	0.0642	0.3656	-0.129
Mof_C 	C 	0.6243	0.5254	0.4013	0.388
Mof_C 	C 	0.8893	0.6933	0.4294	-0.151
Mof_C 	C 	0.1604	0.7381	0.3282	0.426
Mof_C 	C 	0.3733	0.3093	0.39	0.415
Mof_C 	C 	0.731	0.591	0.4279	-0.102
Mof_C 	C 	0.9662	0.7465	0.407	0.45
Mof_C 	C 	0.3113	0.2196	0.3946	-0.106
Mof_C 	C 	0.2793	0.198	0.4509	-0.017
Mof_H 	H 	0.2947	0.2382	0.4957	0.046
Mof_Zn	Zn	0.57018	0.58943	0.7118	1.241
Mof_Zn	Zn	0.80885	0.12307	0.53376	1.158
Mof_Zn	Zn	0.99155	0.1916	0.7244	1.237
Mof_S 	S 	0.73162	0.86902	0.68017	0.082
Mof_S 	S 	0.23278	0.37064	0.64114	0.102
Mof_S 	S 	0.70669	0.34782	0.61688	0.079
Mof_S 	S 	0.25155	0.2776	0.00409	0.098
Mof_O 	O 	0.8905	0.0817	0.6363	-0.602
Mof_O 	O 	0.8741	0.0575	0.7451	-0.33
Mof_O 	O 	0.6063	0.6292	0.5576	-0.448
Mof_O 	O 	0.6053	0.6895	0.6677	-0.48
Mof_O 	O 	0.3976	0.5046	0.5454	-0.439
Mof_O 	O 	0.4318	0.4979	0.6721	-0.468
Mof_O 	O 	0.0667	0.2543	0.6664	-0.473
Mof_O 	O 	0.9437	0.2132	0.5419	-0.522
Mof_O 	O 	0.0944	0.2288	0.8375	-0.431
Mof_O 	O 	0.1329	0.1323	0.7901	-0.334
Mof_O 	O 	0.3731	0.3603	0.1749	-0.445
Mof_O 	O 	0.4915	0.3076	0.1999	-0.296
Mof_O 	O 	0.5781	0.4485	0.5905	-0.461
Mof_O 	O 	0.661	0.5307	0.7143	-0.475
Mof_O 	O 	0.7911	0.2158	0.602	-0.507
Mof_O 	O 	0.913	0.2598	0.7297	-0.479
Mof_C 	C 	0.8325	0.3774	0.7597	-0.002
Mof_H 	H 	0.8834	0.3759	0.8069	0.05
Mof_C 	C 	0.7821	0.4341	0.7558	0.004
Mof_H 	H 	0.7966	0.4741	0.8004	0.048
Mof_C 	C 	0.3111	0.1806	0.9469	-0.005
Mof_H 	H 	0.3173	0.1435	0.9116	0.045
Mof_C 	C 	0.2347	0.2093	0.9251	-0.098
Mof_C 	C 	0.3608	0.269	0.0691	-0.094
Mof_C 	C 	0.3791	0.2134	0.0285	-0.007
Mof_H 	H 	0.4338	0.1976	0.0531	0.047
Mof_C 	C 	0.1479	0.1871	0.8444	0.37
Mof_C 	C 	0.1908	0.3726	0.498	-0.021
Mof_H 	H 	0.1957	0.3848	0.4518	0.055
Mof_C 	C 	0.7988	0.3268	0.6886	-0.115
Mof_C 	C 	0.7123	0.4245	0.6822	-0.12
Mof_C 	C 	0.4134	0.3164	0.1554	0.364
Mof_C 	C 	0.8559	0.0311	0.6742	0.338
Mof_C 	C 	0.7792	0.8917	0.5664	-0.005
Mof_H 	H 	0.8068	0.918	0.5339	0.002
Mof_C 	C 	0.101	0.314	0.4978	0.028
Mof_H 	H 	0.0401	0.283	0.4511	0.026
Mof_C 	C 	0.643	0.4713	0.6592	0.44
Mof_C 	C 	0.7916	0.9358	0.6344	-0.129
Mof_C 	C 	0.3757	0.4746	0.5987	0.388
Mof_C 	C 	0.1107	0.3067	0.5706	-0.151
Mof_C 	C 	0.8396	0.2619	0.6718	0.426
Mof_C 	C 	0.6267	0.6907	0.61	0.415
Mof_C 	C 	0.269	0.409	0.5721	-0.102
Mof_C 	C 	0.0338	0.2535	0.593	0.45
Mof_C 	C 	0.6887	0.7804	0.6054	-0.106
Mof_C 	C 	0.7207	0.802	0.5491	-0.017
Mof_H 	H 	0.7053	0.7618	0.5043	0.046
Mof_Zn	Zn	0.5	0.5	0.5	1.249
_end
