data_functionalizedCrystal
_audit_creation_method	'EQeq! by Chris Wilmer'
_symmetry_space_group_name_H-M	'P1'
_symmetry_Int_Tables_number	1
_symmetry_cell_setting	triclinic
loop_
_symmetry_equiv_pos_as_xyz
  x,y,z
_cell_length_a	14.3551
_cell_length_b	14.3551
_cell_length_c	10.1132
_cell_angle_alpha	90
_cell_angle_beta	90
_cell_angle_gamma	120
loop_
_atom_site_label
_atom_site_type_symbol
_atom_site_fract_x
_atom_site_fract_y
_atom_site_fract_z
_atom_site_charge
Mof_Sm	Sm	0.85662	0.44023	0.90361	2.211
Mof_S 	S 	0.80665	0.66346	0.9415	0.587
Mof_S 	S 	0.99451	0.51923	0.15421	0.691
Mof_O 	O 	0.8314	0.7058	0.8076	-0.234
Mof_O 	O 	0.854	0.5955	0.9717	-0.566
Mof_O 	O 	0.8483	0.7527	0.0386	-0.023
Mof_O 	O 	0.689	0.5979	0.9595	-0.537
Mof_O 	O 	0.0308	0.5483	0.0151	-0.321
Mof_O 	O 	0.87678	0.4506	0.1498	-0.336
Mof_O 	O 	0.0284	0.6169	0.2364	-0.39
Mof_O 	O 	0.0474	0.4638	0.2163	-0.426
Mof_O 	O 	0.7223	0.4441	0.7497	-0.572
Mof_Sm	Sm	0.55977	0.41638	0.90361	2.197
Mof_S 	S 	0.33654	0.14319	0.9415	0.588
Mof_S 	S 	0.48077	0.47528	0.15421	0.643
Mof_O 	O 	0.2942	0.1256	0.8076	-0.232
Mof_O 	O 	0.4045	0.2585	0.9717	-0.567
Mof_O 	O 	0.2473	0.0956	0.0386	-0.022
Mof_O 	O 	0.4021	0.0911	0.9595	-0.534
Mof_O 	O 	0.4517	0.4825	0.0151	-0.297
Mof_O 	O 	0.5494	0.42618	0.1498	-0.327
Mof_O 	O 	0.3831	0.4115	0.2364	-0.369
Mof_O 	O 	0.5362	0.5836	0.2163	-0.408
Mof_O 	O 	0.5559	0.2782	0.7497	-0.572
Mof_Sm	Sm	0.58362	0.14338	0.90361	2.213
Mof_S 	S 	0.85681	0.19335	0.9415	0.593
Mof_S 	S 	0.52472	0.00549	0.15421	0.692
Mof_O 	O 	0.8744	0.1686	0.8076	-0.228
Mof_O 	O 	0.7415	0.146	0.9717	-0.564
Mof_O 	O 	0.9044	0.1517	0.0386	-0.02
Mof_O 	O 	0.9089	0.311	0.9595	-0.533
Mof_O 	O 	0.5175	0.9692	0.0151	-0.321
Mof_O 	O 	0.57382	0.12322	0.1498	-0.336
Mof_O 	O 	0.5885	0.9716	0.2364	-0.388
Mof_O 	O 	0.4164	0.9526	0.2163	-0.426
Mof_O 	O 	0.7218	0.2777	0.7497	-0.573
Mof_Sm	Sm	0.44023	0.85662	0.40361	2.472
Mof_S 	S 	0.66346	0.80665	0.4415	0.837
Mof_S 	S 	0.51923	0.99451	0.65421	0.597
Mof_O 	O 	0.7058	0.8314	0.3076	-0.233
Mof_O 	O 	0.5955	0.854	0.4717	-0.568
Mof_O 	O 	0.7527	0.8483	0.5386	-0.229
Mof_O 	O 	0.5979	0.689	0.4595	-0.53
Mof_O 	O 	0.5483	0.0308	0.5151	-0.403
Mof_O 	O 	0.4506	0.87678	0.6498	-0.462
Mof_O 	O 	0.6169	0.0284	0.7364	-0.381
Mof_O 	O 	0.4638	0.0474	0.7163	-0.409
Mof_O 	O 	0.4441	0.7223	0.2497	-0.606
Mof_Sm	Sm	0.41638	0.55977	0.40361	2.484
Mof_S 	S 	0.14319	0.33654	0.4415	0.837
Mof_S 	S 	0.47528	0.48077	0.65421	0.655
Mof_O 	O 	0.1256	0.2942	0.3076	-0.234
Mof_O 	O 	0.2585	0.4045	0.4717	-0.567
Mof_O 	O 	0.0956	0.2473	0.5386	-0.23
Mof_O 	O 	0.0911	0.4021	0.4595	-0.533
Mof_O 	O 	0.4825	0.4517	0.5151	-0.427
Mof_O 	O 	0.42618	0.5494	0.6498	-0.471
Mof_O 	O 	0.4115	0.3831	0.7364	-0.404
Mof_O 	O 	0.5836	0.5362	0.7163	-0.429
Mof_O 	O 	0.2782	0.5559	0.2497	-0.606
Mof_Sm	Sm	0.14338	0.58362	0.40361	2.472
Mof_S 	S 	0.19335	0.85681	0.4415	0.838
Mof_S 	S 	0.00549	0.52472	0.65421	0.597
Mof_O 	O 	0.1686	0.8744	0.3076	-0.239
Mof_O 	O 	0.146	0.7415	0.4717	-0.57
Mof_O 	O 	0.1517	0.9044	0.5386	-0.237
Mof_O 	O 	0.311	0.9089	0.4595	-0.533
Mof_O 	O 	0.9692	0.5175	0.5151	-0.403
Mof_O 	O 	0.12322	0.57382	0.6498	-0.462
Mof_O 	O 	0.9716	0.5885	0.7364	-0.383
Mof_O 	O 	0.9526	0.4164	0.7163	-0.409
Mof_O 	O 	0.2777	0.7218	0.2497	-0.606
Mof_S 	S 	0.66667	0.33333	0.69164	0.682
Mof_O 	O 	0.66667	0.33333	0.5498	-0.219
Mof_O 	O 	0.66667	0.33333	0.9902	-0.745
Mof_S 	S 	0.33333	0.66667	0.19164	0.686
Mof_O 	O 	0.33333	0.66667	0.0498	-0.172
Mof_O 	O 	0.33333	0.66667	0.4902	-0.75
_end
