data_functionalizedCrystal
_audit_creation_method	'EQeq! by Chris Wilmer'
_symmetry_space_group_name_H-M	'P1'
_symmetry_Int_Tables_number	1
_symmetry_cell_setting	triclinic
loop_
_symmetry_equiv_pos_as_xyz
  x,y,z
_cell_length_a	31.8199
_cell_length_b	31.8199
_cell_length_c	25.1149
_cell_angle_alpha	90
_cell_angle_beta	90
_cell_angle_gamma	90
loop_
_atom_site_label
_atom_site_type_symbol
_atom_site_fract_x
_atom_site_fract_y
_atom_site_fract_z
_atom_site_charge
Mof_Ni	Ni	0.5133	0.25755	0.6404	1.097
Mof_Ni	Ni	0.25671	0.01475	0.39297	1.098
Mof_Ni	Ni	0.01507	0.75582	0.64029	1.102
Mof_Ni	Ni	0.74338	0.98623	0.89118	1.099
Mof_N 	N 	0.5295	0.7748	0.0986	-0.237
Mof_C 	C 	0.5704	0.777	0.1155	0.057
Mof_H 	H 	0.577	0.7647	0.1489	0.007
Mof_C 	C 	0.6033	0.7963	0.0871	-0.117
Mof_H 	H 	0.6314	0.7963	0.0997	0.069
Mof_C 	C 	0.5915	0.8162	0.0372	0.06
Mof_C 	C 	0.551	0.8146	0.0202	-0.126
Mof_H 	H 	0.5428	0.8276	0.9878	0.084
Mof_C 	C 	0.5217	0.7933	0.0516	0.067
Mof_H 	H 	0.4937	0.7917	0.0385	0.011
Mof_C 	C 	0.6234	0.8407	0.0069	0.025
Mof_C 	C 	0.6591	0.8575	0.0326	-0.076
Mof_H 	H 	0.6645	0.85	0.0685	0.055
Mof_C 	C 	0.6866	0.8847	0.0067	0.005
Mof_H 	H 	0.7088	0.8982	0.0255	0.051
Mof_C 	C 	0.6806	0.8917	0.9524	-0.076
Mof_C 	C 	0.6485	0.8743	0.9256	0.011
Mof_H 	H 	0.6451	0.8797	0.8886	0.045
Mof_C 	C 	0.619	0.8472	0.953	-0.085
Mof_H 	H 	0.5968	0.8341	0.934	0.068
Mof_C 	C 	0.7078	0.9246	0.9262	0.294
Mof_O 	O 	0.733	0.9456	0.9531	-0.389
Mof_O 	O 	0.7034	0.9311	0.8763	-0.352
Mof_N 	N 	0.5412	0.2048	0.6725	-0.23
Mof_C 	C 	0.535	0.1991	0.7259	0.049
Mof_H 	H 	0.5149	0.2152	0.7449	0.025
Mof_C 	C 	0.5597	0.1683	0.7516	-0.117
Mof_H 	H 	0.5566	0.1648	0.789	0.084
Mof_C 	C 	0.5877	0.1435	0.7257	0.076
Mof_C 	C 	0.591	0.149	0.672	-0.136
Mof_H 	H 	0.6096	0.1317	0.6521	0.076
Mof_C 	C 	0.5675	0.1796	0.6461	0.081
Mof_H 	H 	0.5702	0.1827	0.6087	-0.002
Mof_C 	C 	0.6108	0.1123	0.7559	0.009
Mof_C 	C 	0.6002	0.0959	0.8038	-0.07
Mof_H 	H 	0.5733	0.1024	0.8179	0.059
Mof_C 	C 	0.6258	0.0707	0.8326	0.001
Mof_H 	H 	0.6164	0.0607	0.8663	0.043
Mof_C 	C 	0.6653	0.0591	0.8143	-0.068
Mof_C 	C 	0.6782	0.0742	0.765	-0.006
Mof_H 	H 	0.7043	0.0656	0.7502	0.053
Mof_C 	C 	0.6523	0.1024	0.7373	-0.064
Mof_H 	H 	0.6624	0.1151	0.7055	0.052
Mof_C 	C 	0.6938	0.0317	0.8469	0.275
Mof_O 	O 	0.6854	0.0217	0.8948	-0.357
Mof_O 	O 	0.7293	0.0219	0.8269	-0.383
Mof_N 	N 	0.7253	0.4689	0.433	-0.238
Mof_C 	C 	0.7074	0.4775	0.4798	0.069
Mof_H 	H 	0.7085	0.5056	0.4922	0.009
Mof_C 	C 	0.6868	0.4474	0.5122	-0.134
Mof_H 	H 	0.6754	0.455	0.5458	0.088
Mof_C 	C 	0.684	0.4072	0.4939	0.07
Mof_C 	C 	0.7027	0.3958	0.4451	-0.127
Mof_H 	H 	0.7021	0.3678	0.4322	0.072
Mof_C 	C 	0.7228	0.4293	0.4163	0.068
Mof_H 	H 	0.7352	0.4227	0.3829	0.003
Mof_C 	C 	0.6597	0.3757	0.5251	0.018
Mof_C 	C 	0.6542	0.3803	0.5791	-0.077
Mof_H 	H 	0.6684	0.4018	0.5983	0.066
Mof_C 	C 	0.6264	0.3519	0.6056	0.006
Mof_H 	H 	0.6202	0.3558	0.6422	0.046
Mof_C 	C 	0.609	0.3192	0.5789	-0.07
Mof_C 	C 	0.6164	0.3128	0.526	-0.003
Mof_H 	H 	0.6035	0.2901	0.5077	0.054
Mof_C 	C 	0.6438	0.3409	0.4988	-0.071
Mof_H 	H 	0.6511	0.3358	0.4627	0.052
Mof_C 	C 	0.5756	0.2928	0.6053	0.289
Mof_O 	O 	0.5686	0.2964	0.6555	-0.35
Mof_O 	O 	0.5542	0.2676	0.5786	-0.386
Mof_N 	N 	0.7959	0.9582	0.858	-0.241
Mof_C 	C 	0.8184	0.93	0.883	0.105
Mof_H 	H 	0.8131	0.925	0.9197	-0.013
Mof_C 	C 	0.8486	0.908	0.8586	-0.157
Mof_H 	H 	0.8651	0.889	0.879	0.083
Mof_C 	C 	0.8567	0.9119	0.8047	0.088
Mof_C 	C 	0.8328	0.9394	0.7784	-0.135
Mof_H 	H 	0.8363	0.9431	0.7411	0.09
Mof_C 	C 	0.8015	0.9637	0.8067	0.07
Mof_H 	H 	0.785	0.9838	0.7881	0.016
Mof_C 	C 	0.8883	0.8877	0.7746	0.009
Mof_C 	C 	0.906	0.9009	0.7292	-0.073
Mof_H 	H 	0.8992	0.9279	0.7154	0.059
Mof_C 	C 	0.9348	0.8745	0.7018	0.007
Mof_H 	H 	0.9498	0.8856	0.6723	0.042
Mof_C 	C 	0.9414	0.8344	0.7164	-0.079
Mof_C 	C 	0.923	0.8202	0.7649	0.002
Mof_H 	H 	0.9302	0.7933	0.7786	0.049
Mof_C 	C 	0.8952	0.8447	0.7917	-0.07
Mof_H 	H 	0.8805	0.8338	0.8215	0.054
Mof_C 	C 	0.9691	0.8052	0.6841	0.307
Mof_O 	O 	0.9806	0.8153	0.6389	-0.369
Mof_O 	O 	0.9792	0.7704	0.704	-0.396
Mof_N 	N 	0.2272	0.9688	0.4349	-0.241
Mof_C 	C 	0.2239	0.929	0.416	0.065
Mof_H 	H 	0.2361	0.9231	0.3823	0.004
Mof_C 	C 	0.204	0.8961	0.4429	-0.124
Mof_H 	H 	0.2019	0.869	0.4272	0.071
Mof_C 	C 	0.1871	0.904	0.4936	0.063
Mof_C 	C 	0.1924	0.9462	0.5128	-0.138
Mof_H 	H 	0.1826	0.9534	0.5473	0.09
Mof_C 	C 	0.2111	0.9755	0.4828	0.085
Mof_H 	H 	0.213	0.0032	0.4969	0.004
Mof_C 	C 	0.1637	0.8719	0.5236	0.021
Mof_C 	C 	0.1587	0.8749	0.5778	-0.079
Mof_H 	H 	0.1737	0.8957	0.5972	0.065
Mof_C 	C 	0.131	0.8469	0.6053	0.012
Mof_H 	H 	0.1265	0.8502	0.6425	0.044
Mof_C 	C 	0.1109	0.8156	0.5785	-0.082
Mof_C 	C 	0.1176	0.8115	0.5243	0.007
Mof_H 	H 	0.1032	0.7902	0.5051	0.051
Mof_C 	C 	0.1453	0.8382	0.497	-0.077
Mof_H 	H 	0.1515	0.8332	0.4605	0.055
Mof_C 	C 	0.0782	0.7902	0.607	0.311
Mof_O 	O 	0.0557	0.7655	0.5793	-0.39
Mof_O 	O 	0.0714	0.7943	0.6549	-0.365
Mof_N 	N 	0.459	0.7969	0.1734	-0.241
Mof_C 	C 	0.4361	0.8254	0.1467	0.084
Mof_H 	H 	0.4346	0.8229	0.109	-0.004
Mof_C 	C 	0.4144	0.858	0.1703	-0.141
Mof_H 	H 	0.3995	0.878	0.1494	0.079
Mof_C 	C 	0.4152	0.861	0.2269	0.086
Mof_C 	C 	0.4403	0.8345	0.2515	-0.15
Mof_H 	H 	0.4437	0.8371	0.289	0.095
Mof_C 	C 	0.4619	0.8033	0.2252	0.087
Mof_H 	H 	0.4797	0.7854	0.2454	0.01
Mof_C 	C 	0.39	0.8931	0.2549	0.007
Mof_C 	C 	0.3499	0.9018	0.2369	-0.064
Mof_H 	H 	0.3406	0.8906	0.2038	0.052
Mof_C 	C 	0.3226	0.9274	0.2674	-0.007
Mof_H 	H 	0.2947	0.9328	0.2558	0.053
Mof_C 	C 	0.3371	0.9441	0.3138	-0.066
Mof_C 	C 	0.3787	0.9382	0.3301	-0.004
Mof_H 	H 	0.3892	0.952	0.3609	0.044
Mof_C 	C 	0.4043	0.9118	0.3006	-0.068
Mof_H 	H 	0.4322	0.9067	0.3121	0.058
Mof_C 	C 	0.3076	0.9702	0.3471	0.277
Mof_O 	O 	0.2722	0.9797	0.3281	-0.387
Mof_O 	O 	0.3179	0.9825	0.394	-0.351
Mof_N 	N 	0.4686	0.2266	0.5996	-0.24
Mof_C 	C 	0.4755	0.2109	0.5511	0.069
Mof_H 	H 	0.5032	0.213	0.5373	0.01
Mof_C 	C 	0.4453	0.1915	0.5188	-0.126
Mof_H 	H 	0.452	0.1814	0.4842	0.087
Mof_C 	C 	0.4036	0.1876	0.5406	0.062
Mof_C 	C 	0.3953	0.2035	0.5899	-0.121
Mof_H 	H 	0.368	0.2012	0.605	0.07
Mof_C 	C 	0.4283	0.2236	0.6183	0.057
Mof_H 	H 	0.422	0.2355	0.6521	0.006
Mof_C 	C 	0.3712	0.1642	0.5097	0.021
Mof_C 	C 	0.3747	0.1604	0.4547	-0.079
Mof_H 	H 	0.3956	0.1754	0.4355	0.066
Mof_C 	C 	0.3462	0.1337	0.4284	0.007
Mof_H 	H 	0.3478	0.1314	0.3908	0.046
Mof_C 	C 	0.316	0.1108	0.4551	-0.069
Mof_C 	C 	0.3116	0.117	0.5086	-0.001
Mof_H 	H 	0.2904	0.1022	0.5275	0.055
Mof_C 	C 	0.3385	0.1454	0.5365	-0.074
Mof_H 	H 	0.3339	0.1511	0.5732	0.054
Mof_C 	C 	0.2899	0.0775	0.4273	0.296
Mof_O 	O 	0.2943	0.0722	0.3779	-0.352
Mof_O 	O 	0.2662	0.0558	0.4554	-0.387
Mof_N 	N 	0.296	0.4595	0.8614	-0.238
Mof_C 	C 	0.3005	0.463	0.8077	0.057
Mof_H 	H 	0.282	0.4804	0.7879	0.02
Mof_C 	C 	0.333	0.4404	0.7814	-0.127
Mof_H 	H 	0.3358	0.4427	0.7439	0.089
Mof_C 	C 	0.3594	0.4162	0.808	0.075
Mof_C 	C 	0.3583	0.4147	0.8638	-0.133
Mof_H 	H 	0.3783	0.3994	0.8841	0.076
Mof_C 	C 	0.3241	0.4381	0.888	0.08
Mof_H 	H 	0.3221	0.4379	0.9257	-0.004
Mof_C 	C 	0.3929	0.3912	0.7804	0.015
Mof_C 	C 	0.4103	0.4032	0.732	-0.079
Mof_H 	H 	0.4051	0.4308	0.7194	0.062
Mof_C 	C 	0.4339	0.3779	0.7024	0.011
Mof_H 	H 	0.444	0.3877	0.669	0.04
Mof_C 	C 	0.4293	0.3242	0.7701	0.001
Mof_H 	H 	0.4378	0.2979	0.7846	0.049
Mof_C 	C 	0.402	0.3504	0.7992	-0.072
Mof_H 	H 	0.3898	0.3406	0.8314	0.054
Mof_C 	C 	0.4686	0.3078	0.6863	0.283
Mof_O 	O 	0.4783	0.272	0.707	-0.378
Mof_O 	O 	0.4791	0.3181	0.6402	-0.358
Mof_C 	C 	0.4443	0.3368	0.7192	-0.078
Mof_Ni	Ni	0.9867	0.24245	0.1404	1.096
Mof_Ni	Ni	0.24329	0.48525	0.89297	1.096
Mof_Ni	Ni	0.48493	0.74418	0.14029	1.101
Mof_Ni	Ni	0.75662	0.51377	0.39118	1.098
Mof_N 	N 	0.9705	0.7252	0.5986	-0.238
Mof_C 	C 	0.9296	0.723	0.6155	0.059
Mof_H 	H 	0.923	0.7353	0.6489	0.007
Mof_C 	C 	0.8967	0.7037	0.5871	-0.121
Mof_H 	H 	0.8686	0.7037	0.5997	0.07
Mof_C 	C 	0.9085	0.6838	0.5372	0.066
Mof_C 	C 	0.949	0.6854	0.5202	-0.135
Mof_H 	H 	0.9572	0.6724	0.4878	0.089
Mof_C 	C 	0.9783	0.7067	0.5516	0.071
Mof_H 	H 	0.0063	0.7083	0.5385	0.009
Mof_C 	C 	0.8766	0.6593	0.5069	0.016
Mof_C 	C 	0.8409	0.6425	0.5326	-0.069
Mof_H 	H 	0.8355	0.65	0.5685	0.052
Mof_C 	C 	0.8134	0.6153	0.5067	-0.004
Mof_H 	H 	0.7912	0.6018	0.5255	0.053
Mof_C 	C 	0.8194	0.6083	0.4524	-0.069
Mof_C 	C 	0.8515	0.6257	0.4256	0.005
Mof_H 	H 	0.8549	0.6203	0.3886	0.047
Mof_C 	C 	0.881	0.6528	0.453	-0.075
Mof_H 	H 	0.9032	0.6659	0.434	0.065
Mof_C 	C 	0.7922	0.5754	0.4262	0.292
Mof_O 	O 	0.767	0.5544	0.4531	-0.387
Mof_O 	O 	0.7966	0.5689	0.3763	-0.352
Mof_N 	N 	0.9588	0.2952	0.1725	-0.23
Mof_C 	C 	0.965	0.3009	0.2259	0.049
Mof_H 	H 	0.9851	0.2848	0.2449	0.025
Mof_C 	C 	0.9403	0.3317	0.2516	-0.117
Mof_H 	H 	0.9434	0.3352	0.289	0.084
Mof_C 	C 	0.9123	0.3565	0.2257	0.076
Mof_C 	C 	0.909	0.351	0.172	-0.135
Mof_H 	H 	0.8904	0.3683	0.1521	0.076
Mof_C 	C 	0.9325	0.3204	0.1461	0.081
Mof_H 	H 	0.9298	0.3173	0.1087	-0.002
Mof_C 	C 	0.8892	0.3877	0.2559	0.009
Mof_C 	C 	0.8998	0.4041	0.3038	-0.07
Mof_H 	H 	0.9267	0.3976	0.3179	0.059
Mof_C 	C 	0.8742	0.4293	0.3326	0.001
Mof_H 	H 	0.8836	0.4393	0.3663	0.043
Mof_C 	C 	0.8347	0.4409	0.3143	-0.068
Mof_C 	C 	0.8218	0.4258	0.265	-0.006
Mof_H 	H 	0.7957	0.4344	0.2502	0.053
Mof_C 	C 	0.8477	0.3976	0.2373	-0.064
Mof_H 	H 	0.8376	0.3849	0.2055	0.052
Mof_C 	C 	0.8062	0.4683	0.3469	0.275
Mof_O 	O 	0.8146	0.4783	0.3948	-0.357
Mof_O 	O 	0.7707	0.4781	0.3269	-0.383
Mof_N 	N 	0.7747	0.0311	0.933	-0.236
Mof_C 	C 	0.7926	0.0225	0.9798	0.06
Mof_H 	H 	0.7915	0.9944	0.9922	0.011
Mof_C 	C 	0.8132	0.0526	0.0122	-0.119
Mof_H 	H 	0.8246	0.045	0.0458	0.083
Mof_C 	C 	0.816	0.0928	0.9939	0.055
Mof_C 	C 	0.7973	0.1042	0.9451	-0.12
Mof_H 	H 	0.7979	0.1322	0.9322	0.069
Mof_C 	C 	0.7772	0.0707	0.9163	0.064
Mof_H 	H 	0.7648	0.0773	0.8829	0.005
Mof_C 	C 	0.8403	0.1243	0.0251	0.033
Mof_C 	C 	0.8458	0.1197	0.0791	-0.087
Mof_H 	H 	0.8316	0.0982	0.0983	0.07
Mof_C 	C 	0.8736	0.1481	0.1056	0.014
Mof_H 	H 	0.8798	0.1442	0.1422	0.043
Mof_C 	C 	0.891	0.1808	0.0789	-0.077
Mof_C 	C 	0.8836	0.1872	0.026	0.01
Mof_H 	H 	0.8965	0.2099	0.0077	0.05
Mof_C 	C 	0.8562	0.1591	0.9988	-0.087
Mof_H 	H 	0.8489	0.1642	0.9627	0.057
Mof_C 	C 	0.9244	0.2072	0.1053	0.292
Mof_O 	O 	0.9314	0.2036	0.1555	-0.351
Mof_O 	O 	0.9458	0.2324	0.0786	-0.386
Mof_N 	N 	0.7041	0.5418	0.358	-0.241
Mof_C 	C 	0.6816	0.57	0.383	0.105
Mof_H 	H 	0.6869	0.575	0.4197	-0.012
Mof_C 	C 	0.6514	0.592	0.3586	-0.157
Mof_H 	H 	0.6349	0.611	0.379	0.083
Mof_C 	C 	0.6433	0.5881	0.3047	0.088
Mof_C 	C 	0.6672	0.5606	0.2784	-0.135
Mof_H 	H 	0.6637	0.5569	0.2411	0.091
Mof_C 	C 	0.6985	0.5363	0.3067	0.07
Mof_H 	H 	0.715	0.5162	0.2881	0.016
Mof_C 	C 	0.6117	0.6123	0.2746	0.009
Mof_C 	C 	0.594	0.5991	0.2292	-0.073
Mof_H 	H 	0.6008	0.5721	0.2154	0.059
Mof_C 	C 	0.5652	0.6255	0.2018	0.007
Mof_H 	H 	0.5502	0.6144	0.1723	0.042
Mof_C 	C 	0.5586	0.6656	0.2164	-0.079
Mof_C 	C 	0.577	0.6798	0.2649	0.002
Mof_H 	H 	0.5698	0.7067	0.2786	0.049
Mof_C 	C 	0.6048	0.6553	0.2917	-0.07
Mof_H 	H 	0.6195	0.6662	0.3215	0.054
Mof_C 	C 	0.5309	0.6948	0.1841	0.307
Mof_O 	O 	0.5194	0.6847	0.1389	-0.369
Mof_O 	O 	0.5208	0.7296	0.204	-0.396
Mof_N 	N 	0.2728	0.5312	0.9349	-0.239
Mof_C 	C 	0.2761	0.571	0.916	0.06
Mof_H 	H 	0.2639	0.5769	0.8823	0.005
Mof_C 	C 	0.296	0.6039	0.9429	-0.116
Mof_H 	H 	0.2981	0.631	0.9272	0.068
Mof_C 	C 	0.3129	0.596	0.9936	0.048
Mof_C 	C 	0.3076	0.5538	0.0128	-0.122
Mof_H 	H 	0.3174	0.5466	0.0473	0.085
Mof_C 	C 	0.2889	0.5245	0.9828	0.074
Mof_H 	H 	0.287	0.4968	0.9969	0.006
Mof_C 	C 	0.3363	0.6281	0.0236	0.037
Mof_C 	C 	0.3413	0.6251	0.0778	-0.09
Mof_H 	H 	0.3263	0.6043	0.0972	0.069
Mof_C 	C 	0.369	0.6531	0.1053	0.02
Mof_H 	H 	0.3735	0.6498	0.1425	0.042
Mof_C 	C 	0.3891	0.6844	0.0785	-0.089
Mof_C 	C 	0.3824	0.6885	0.0243	0.02
Mof_H 	H 	0.3968	0.7098	0.0051	0.048
Mof_C 	C 	0.3547	0.6618	0.997	-0.094
Mof_H 	H 	0.3485	0.6668	0.9605	0.061
Mof_C 	C 	0.4218	0.7098	0.107	0.314
Mof_O 	O 	0.4443	0.7345	0.0793	-0.39
Mof_O 	O 	0.4286	0.7057	0.1549	-0.365
Mof_N 	N 	0.041	0.7031	0.6734	-0.241
Mof_C 	C 	0.0639	0.6746	0.6467	0.084
Mof_H 	H 	0.0654	0.6771	0.609	-0.004
Mof_C 	C 	0.0856	0.642	0.6703	-0.141
Mof_H 	H 	0.1005	0.622	0.6494	0.079
Mof_C 	C 	0.0848	0.639	0.7269	0.086
Mof_C 	C 	0.0597	0.6655	0.7515	-0.15
Mof_H 	H 	0.0563	0.6629	0.789	0.095
Mof_C 	C 	0.0381	0.6967	0.7252	0.087
Mof_H 	H 	0.0203	0.7146	0.7454	0.01
Mof_C 	C 	0.11	0.6069	0.7549	0.007
Mof_C 	C 	0.1501	0.5982	0.7369	-0.064
Mof_H 	H 	0.1594	0.6094	0.7038	0.052
Mof_C 	C 	0.1774	0.5726	0.7674	-0.007
Mof_H 	H 	0.2053	0.5672	0.7558	0.053
Mof_C 	C 	0.1629	0.5559	0.8138	-0.066
Mof_C 	C 	0.1213	0.5618	0.8301	-0.003
Mof_H 	H 	0.1108	0.548	0.8609	0.044
Mof_C 	C 	0.0957	0.5882	0.8006	-0.068
Mof_H 	H 	0.0678	0.5933	0.8121	0.058
Mof_C 	C 	0.1924	0.5298	0.8471	0.277
Mof_O 	O 	0.2278	0.5203	0.8281	-0.387
Mof_O 	O 	0.1821	0.5175	0.894	-0.351
Mof_N 	N 	0.0314	0.2734	0.0996	-0.239
Mof_C 	C 	0.0245	0.2891	0.0511	0.065
Mof_H 	H 	0.9968	0.287	0.0373	0.012
Mof_C 	C 	0.0547	0.3085	0.0188	-0.117
Mof_H 	H 	0.048	0.3186	0.9842	0.083
Mof_C 	C 	0.0964	0.3124	0.0406	0.057
Mof_C 	C 	0.1047	0.2965	0.0899	-0.118
Mof_H 	H 	0.132	0.2988	0.105	0.069
Mof_C 	C 	0.0717	0.2764	0.1183	0.055
Mof_H 	H 	0.078	0.2645	0.1521	0.007
Mof_C 	C 	0.1288	0.3358	0.0097	0.03
Mof_C 	C 	0.1253	0.3396	0.9547	-0.089
Mof_H 	H 	0.1044	0.3246	0.9355	0.069
Mof_C 	C 	0.1538	0.3663	0.9284	0.013
Mof_H 	H 	0.1522	0.3686	0.8908	0.043
Mof_C 	C 	0.184	0.3892	0.9551	-0.077
Mof_C 	C 	0.1884	0.383	0.0086	0.008
Mof_H 	H 	0.2096	0.3978	0.0275	0.052
Mof_C 	C 	0.1615	0.3546	0.0365	-0.081
Mof_H 	H 	0.1661	0.3489	0.0732	0.057
Mof_C 	C 	0.2101	0.4225	0.9273	0.298
Mof_O 	O 	0.2057	0.4278	0.8779	-0.353
Mof_O 	O 	0.2338	0.4442	0.9554	-0.388
Mof_N 	N 	0.204	0.0405	0.3614	-0.238
Mof_C 	C 	0.1995	0.037	0.3077	0.057
Mof_H 	H 	0.218	0.0196	0.2879	0.02
Mof_C 	C 	0.167	0.0596	0.2814	-0.127
Mof_H 	H 	0.1642	0.0573	0.2439	0.089
Mof_C 	C 	0.1406	0.0838	0.308	0.075
Mof_C 	C 	0.1417	0.0853	0.3638	-0.133
Mof_H 	H 	0.1217	0.1006	0.3841	0.077
Mof_C 	C 	0.1759	0.0619	0.388	0.08
Mof_H 	H 	0.1779	0.0621	0.4257	-0.004
Mof_C 	C 	0.1071	0.1088	0.2804	0.015
Mof_C 	C 	0.0897	0.0968	0.232	-0.079
Mof_H 	H 	0.0949	0.0692	0.2194	0.062
Mof_C 	C 	0.0661	0.1221	0.2024	0.011
Mof_H 	H 	0.056	0.1123	0.169	0.04
Mof_C 	C 	0.0707	0.1758	0.2701	0.001
Mof_H 	H 	0.0622	0.2021	0.2846	0.049
Mof_C 	C 	0.098	0.1496	0.2992	-0.072
Mof_H 	H 	0.1102	0.1594	0.3314	0.054
Mof_C 	C 	0.0314	0.1922	0.1863	0.283
Mof_O 	O 	0.0217	0.228	0.207	-0.378
Mof_O 	O 	0.0209	0.1819	0.1402	-0.357
Mof_C 	C 	0.0557	0.1632	0.2192	-0.078
Mof_Ni	Ni	0.0133	0.75755	0.1404	1.096
Mof_Ni	Ni	0.75671	0.51475	0.89297	1.096
Mof_Ni	Ni	0.51507	0.25582	0.14029	1.101
Mof_Ni	Ni	0.24338	0.48623	0.39118	1.098
Mof_N 	N 	0.0295	0.2748	0.5986	-0.238
Mof_C 	C 	0.0704	0.277	0.6155	0.059
Mof_H 	H 	0.077	0.2647	0.6489	0.007
Mof_C 	C 	0.1033	0.2963	0.5871	-0.121
Mof_H 	H 	0.1314	0.2963	0.5997	0.07
Mof_C 	C 	0.0915	0.3162	0.5372	0.066
Mof_C 	C 	0.051	0.3146	0.5202	-0.135
Mof_H 	H 	0.0428	0.3276	0.4878	0.089
Mof_C 	C 	0.0217	0.2933	0.5516	0.071
Mof_H 	H 	0.9937	0.2917	0.5385	0.009
Mof_C 	C 	0.1234	0.3407	0.5069	0.016
Mof_C 	C 	0.1591	0.3575	0.5326	-0.069
Mof_H 	H 	0.1645	0.35	0.5685	0.052
Mof_C 	C 	0.1866	0.3847	0.5067	-0.004
Mof_H 	H 	0.2088	0.3982	0.5255	0.053
Mof_C 	C 	0.1806	0.3917	0.4524	-0.069
Mof_C 	C 	0.1485	0.3743	0.4256	0.005
Mof_H 	H 	0.1451	0.3797	0.3886	0.047
Mof_C 	C 	0.119	0.3472	0.453	-0.075
Mof_H 	H 	0.0968	0.3341	0.434	0.065
Mof_C 	C 	0.2078	0.4246	0.4262	0.292
Mof_O 	O 	0.233	0.4456	0.4531	-0.387
Mof_O 	O 	0.2034	0.4311	0.3763	-0.352
Mof_N 	N 	0.0412	0.7048	0.1725	-0.23
Mof_C 	C 	0.035	0.6991	0.2259	0.049
Mof_H 	H 	0.0149	0.7152	0.2449	0.025
Mof_C 	C 	0.0597	0.6683	0.2516	-0.117
Mof_H 	H 	0.0566	0.6648	0.289	0.084
Mof_C 	C 	0.0877	0.6435	0.2257	0.076
Mof_C 	C 	0.091	0.649	0.172	-0.135
Mof_H 	H 	0.1096	0.6317	0.1521	0.076
Mof_C 	C 	0.0675	0.6796	0.1461	0.081
Mof_H 	H 	0.0702	0.6827	0.1087	-0.002
Mof_C 	C 	0.1108	0.6123	0.2559	0.009
Mof_C 	C 	0.1002	0.5959	0.3038	-0.07
Mof_H 	H 	0.0733	0.6024	0.3179	0.059
Mof_C 	C 	0.1258	0.5707	0.3326	0.001
Mof_H 	H 	0.1164	0.5607	0.3663	0.043
Mof_C 	C 	0.1653	0.5591	0.3143	-0.068
Mof_C 	C 	0.1782	0.5742	0.265	-0.006
Mof_H 	H 	0.2043	0.5656	0.2502	0.053
Mof_C 	C 	0.1523	0.6024	0.2373	-0.064
Mof_H 	H 	0.1624	0.6151	0.2055	0.052
Mof_C 	C 	0.1938	0.5317	0.3469	0.275
Mof_O 	O 	0.1854	0.5217	0.3948	-0.357
Mof_O 	O 	0.2293	0.5219	0.3269	-0.383
Mof_N 	N 	0.2253	0.9689	0.933	-0.236
Mof_C 	C 	0.2074	0.9775	0.9798	0.06
Mof_H 	H 	0.2085	0.0056	0.9922	0.011
Mof_C 	C 	0.1868	0.9474	0.0122	-0.119
Mof_H 	H 	0.1754	0.955	0.0458	0.083
Mof_C 	C 	0.184	0.9072	0.9939	0.055
Mof_C 	C 	0.2027	0.8958	0.9451	-0.12
Mof_H 	H 	0.2021	0.8678	0.9322	0.069
Mof_C 	C 	0.2228	0.9293	0.9163	0.064
Mof_H 	H 	0.2352	0.9227	0.8829	0.005
Mof_C 	C 	0.1597	0.8757	0.0251	0.033
Mof_C 	C 	0.1542	0.8803	0.0791	-0.087
Mof_H 	H 	0.1684	0.9018	0.0983	0.07
Mof_C 	C 	0.1264	0.8519	0.1056	0.014
Mof_H 	H 	0.1202	0.8558	0.1422	0.043
Mof_C 	C 	0.109	0.8192	0.0789	-0.077
Mof_C 	C 	0.1164	0.8128	0.026	0.01
Mof_H 	H 	0.1035	0.7901	0.0077	0.05
Mof_C 	C 	0.1438	0.8409	0.9988	-0.087
Mof_H 	H 	0.1511	0.8358	0.9627	0.057
Mof_C 	C 	0.0756	0.7928	0.1053	0.292
Mof_O 	O 	0.0686	0.7964	0.1555	-0.351
Mof_O 	O 	0.0542	0.7676	0.0786	-0.386
Mof_N 	N 	0.2959	0.4582	0.358	-0.241
Mof_C 	C 	0.3184	0.43	0.383	0.105
Mof_H 	H 	0.3131	0.425	0.4197	-0.012
Mof_C 	C 	0.3486	0.408	0.3586	-0.157
Mof_H 	H 	0.3651	0.389	0.379	0.083
Mof_C 	C 	0.3567	0.4119	0.3047	0.088
Mof_C 	C 	0.3328	0.4394	0.2784	-0.135
Mof_H 	H 	0.3363	0.4431	0.2411	0.091
Mof_C 	C 	0.3015	0.4637	0.3067	0.07
Mof_H 	H 	0.285	0.4838	0.2881	0.016
Mof_C 	C 	0.3883	0.3877	0.2746	0.009
Mof_C 	C 	0.406	0.4009	0.2292	-0.073
Mof_H 	H 	0.3992	0.4279	0.2154	0.059
Mof_C 	C 	0.4348	0.3745	0.2018	0.007
Mof_H 	H 	0.4498	0.3856	0.1723	0.042
Mof_C 	C 	0.4414	0.3344	0.2164	-0.079
Mof_C 	C 	0.423	0.3202	0.2649	0.002
Mof_H 	H 	0.4302	0.2933	0.2786	0.049
Mof_C 	C 	0.3952	0.3447	0.2917	-0.07
Mof_H 	H 	0.3805	0.3338	0.3215	0.054
Mof_C 	C 	0.4691	0.3052	0.1841	0.307
Mof_O 	O 	0.4806	0.3153	0.1389	-0.369
Mof_O 	O 	0.4792	0.2704	0.204	-0.396
Mof_N 	N 	0.7272	0.4688	0.9349	-0.239
Mof_C 	C 	0.7239	0.429	0.916	0.06
Mof_H 	H 	0.7361	0.4231	0.8823	0.005
Mof_C 	C 	0.704	0.3961	0.9429	-0.116
Mof_H 	H 	0.7019	0.369	0.9272	0.068
Mof_C 	C 	0.6871	0.404	0.9936	0.048
Mof_C 	C 	0.6924	0.4462	0.0128	-0.122
Mof_H 	H 	0.6826	0.4534	0.0473	0.085
Mof_C 	C 	0.7111	0.4755	0.9828	0.074
Mof_H 	H 	0.713	0.5032	0.9969	0.006
Mof_C 	C 	0.6637	0.3719	0.0236	0.037
Mof_C 	C 	0.6587	0.3749	0.0778	-0.09
Mof_H 	H 	0.6737	0.3957	0.0972	0.069
Mof_C 	C 	0.631	0.3469	0.1053	0.02
Mof_H 	H 	0.6265	0.3502	0.1425	0.042
Mof_C 	C 	0.6109	0.3156	0.0785	-0.089
Mof_C 	C 	0.6176	0.3115	0.0243	0.02
Mof_H 	H 	0.6032	0.2902	0.0051	0.048
Mof_C 	C 	0.6453	0.3382	0.997	-0.094
Mof_H 	H 	0.6515	0.3332	0.9605	0.061
Mof_C 	C 	0.5782	0.2902	0.107	0.314
Mof_O 	O 	0.5557	0.2655	0.0793	-0.39
Mof_O 	O 	0.5714	0.2943	0.1549	-0.365
Mof_N 	N 	0.959	0.2969	0.6734	-0.241
Mof_C 	C 	0.9361	0.3254	0.6467	0.084
Mof_H 	H 	0.9346	0.3229	0.609	-0.004
Mof_C 	C 	0.9144	0.358	0.6703	-0.141
Mof_H 	H 	0.8995	0.378	0.6494	0.079
Mof_C 	C 	0.9152	0.361	0.7269	0.086
Mof_C 	C 	0.9403	0.3345	0.7515	-0.15
Mof_H 	H 	0.9437	0.3371	0.789	0.095
Mof_C 	C 	0.9619	0.3033	0.7252	0.087
Mof_H 	H 	0.9797	0.2854	0.7454	0.01
Mof_C 	C 	0.89	0.3931	0.7549	0.007
Mof_C 	C 	0.8499	0.4018	0.7369	-0.064
Mof_H 	H 	0.8406	0.3906	0.7038	0.052
Mof_C 	C 	0.8226	0.4274	0.7674	-0.007
Mof_H 	H 	0.7947	0.4328	0.7558	0.053
Mof_C 	C 	0.8371	0.4441	0.8138	-0.066
Mof_C 	C 	0.8787	0.4382	0.8301	-0.003
Mof_H 	H 	0.8892	0.452	0.8609	0.044
Mof_C 	C 	0.9043	0.4118	0.8006	-0.068
Mof_H 	H 	0.9322	0.4067	0.8121	0.058
Mof_C 	C 	0.8076	0.4702	0.8471	0.277
Mof_O 	O 	0.7722	0.4797	0.8281	-0.387
Mof_O 	O 	0.8179	0.4825	0.894	-0.351
Mof_N 	N 	0.9686	0.7266	0.0996	-0.239
Mof_C 	C 	0.9755	0.7109	0.0511	0.065
Mof_H 	H 	0.0032	0.713	0.0373	0.012
Mof_C 	C 	0.9453	0.6915	0.0188	-0.117
Mof_H 	H 	0.952	0.6814	0.9842	0.083
Mof_C 	C 	0.9036	0.6876	0.0406	0.057
Mof_C 	C 	0.8953	0.7035	0.0899	-0.118
Mof_H 	H 	0.868	0.7012	0.105	0.069
Mof_C 	C 	0.9283	0.7236	0.1183	0.055
Mof_H 	H 	0.922	0.7355	0.1521	0.007
Mof_C 	C 	0.8712	0.6642	0.0097	0.03
Mof_C 	C 	0.8747	0.6604	0.9547	-0.089
Mof_H 	H 	0.8956	0.6754	0.9355	0.069
Mof_C 	C 	0.8462	0.6337	0.9284	0.013
Mof_H 	H 	0.8478	0.6314	0.8908	0.043
Mof_C 	C 	0.816	0.6108	0.9551	-0.077
Mof_C 	C 	0.8116	0.617	0.0086	0.008
Mof_H 	H 	0.7904	0.6022	0.0275	0.052
Mof_C 	C 	0.8385	0.6454	0.0365	-0.081
Mof_H 	H 	0.8339	0.6511	0.0732	0.057
Mof_C 	C 	0.7899	0.5775	0.9273	0.298
Mof_O 	O 	0.7943	0.5722	0.8779	-0.353
Mof_O 	O 	0.7662	0.5558	0.9554	-0.388
Mof_N 	N 	0.796	0.9595	0.3614	-0.238
Mof_C 	C 	0.8005	0.963	0.3077	0.057
Mof_H 	H 	0.782	0.9804	0.2879	0.02
Mof_C 	C 	0.833	0.9404	0.2814	-0.127
Mof_H 	H 	0.8358	0.9427	0.2439	0.089
Mof_C 	C 	0.8594	0.9162	0.308	0.075
Mof_C 	C 	0.8583	0.9147	0.3638	-0.133
Mof_H 	H 	0.8783	0.8994	0.3841	0.077
Mof_C 	C 	0.8241	0.9381	0.388	0.08
Mof_H 	H 	0.8221	0.9379	0.4257	-0.004
Mof_C 	C 	0.8929	0.8912	0.2804	0.015
Mof_C 	C 	0.9103	0.9032	0.232	-0.079
Mof_H 	H 	0.9051	0.9308	0.2194	0.062
Mof_C 	C 	0.9339	0.8779	0.2024	0.011
Mof_H 	H 	0.944	0.8877	0.169	0.04
Mof_C 	C 	0.9293	0.8242	0.2701	0.001
Mof_H 	H 	0.9378	0.7979	0.2846	0.049
Mof_C 	C 	0.902	0.8504	0.2992	-0.072
Mof_H 	H 	0.8898	0.8406	0.3314	0.054
Mof_C 	C 	0.9686	0.8078	0.1863	0.283
Mof_O 	O 	0.9783	0.772	0.207	-0.378
Mof_O 	O 	0.9791	0.8181	0.1402	-0.357
Mof_C 	C 	0.9443	0.8368	0.2192	-0.078
Mof_Ni	Ni	0.4867	0.74245	0.6404	1.096
Mof_Ni	Ni	0.74329	0.98525	0.39297	1.097
Mof_Ni	Ni	0.98493	0.24418	0.64029	1.101
Mof_Ni	Ni	0.25662	0.01377	0.89118	1.098
Mof_N 	N 	0.4705	0.2252	0.0986	-0.237
Mof_C 	C 	0.4296	0.223	0.1155	0.057
Mof_H 	H 	0.423	0.2353	0.1489	0.007
Mof_C 	C 	0.3967	0.2037	0.0871	-0.117
Mof_H 	H 	0.3686	0.2037	0.0997	0.069
Mof_C 	C 	0.4085	0.1838	0.0372	0.06
Mof_C 	C 	0.449	0.1854	0.0202	-0.126
Mof_H 	H 	0.4572	0.1724	0.9878	0.084
Mof_C 	C 	0.4783	0.2067	0.0516	0.067
Mof_H 	H 	0.5063	0.2083	0.0385	0.011
Mof_C 	C 	0.3766	0.1593	0.0069	0.025
Mof_C 	C 	0.3409	0.1425	0.0326	-0.076
Mof_H 	H 	0.3355	0.15	0.0685	0.055
Mof_C 	C 	0.3134	0.1153	0.0067	0.005
Mof_H 	H 	0.2912	0.1018	0.0255	0.051
Mof_C 	C 	0.3194	0.1083	0.9524	-0.076
Mof_C 	C 	0.3515	0.1257	0.9256	0.011
Mof_H 	H 	0.3549	0.1203	0.8886	0.045
Mof_C 	C 	0.381	0.1528	0.953	-0.085
Mof_H 	H 	0.4032	0.1659	0.934	0.068
Mof_C 	C 	0.2922	0.0754	0.9262	0.294
Mof_O 	O 	0.267	0.0544	0.9531	-0.389
Mof_O 	O 	0.2966	0.0689	0.8763	-0.352
Mof_N 	N 	0.4588	0.7952	0.6725	-0.23
Mof_C 	C 	0.465	0.8009	0.7259	0.049
Mof_H 	H 	0.4851	0.7848	0.7449	0.025
Mof_C 	C 	0.4403	0.8317	0.7516	-0.117
Mof_H 	H 	0.4434	0.8352	0.789	0.084
Mof_C 	C 	0.4123	0.8565	0.7257	0.076
Mof_C 	C 	0.409	0.851	0.672	-0.136
Mof_H 	H 	0.3904	0.8683	0.6521	0.076
Mof_C 	C 	0.4325	0.8204	0.6461	0.081
Mof_H 	H 	0.4298	0.8173	0.6087	-0.002
Mof_C 	C 	0.3892	0.8877	0.7559	0.009
Mof_C 	C 	0.3998	0.9041	0.8038	-0.07
Mof_H 	H 	0.4267	0.8976	0.8179	0.059
Mof_C 	C 	0.3742	0.9293	0.8326	0.001
Mof_H 	H 	0.3836	0.9393	0.8663	0.043
Mof_C 	C 	0.3347	0.9409	0.8143	-0.068
Mof_C 	C 	0.3218	0.9258	0.765	-0.006
Mof_H 	H 	0.2957	0.9344	0.7502	0.053
Mof_C 	C 	0.3477	0.8976	0.7373	-0.064
Mof_H 	H 	0.3376	0.8849	0.7055	0.052
Mof_C 	C 	0.3062	0.9683	0.8469	0.275
Mof_O 	O 	0.3146	0.9783	0.8948	-0.357
Mof_O 	O 	0.2707	0.9781	0.8269	-0.383
Mof_N 	N 	0.2747	0.5311	0.433	-0.238
Mof_C 	C 	0.2926	0.5225	0.4798	0.069
Mof_H 	H 	0.2915	0.4944	0.4922	0.009
Mof_C 	C 	0.3132	0.5526	0.5122	-0.134
Mof_H 	H 	0.3246	0.545	0.5458	0.088
Mof_C 	C 	0.316	0.5928	0.4939	0.07
Mof_C 	C 	0.2973	0.6042	0.4451	-0.127
Mof_H 	H 	0.2979	0.6322	0.4322	0.072
Mof_C 	C 	0.2772	0.5707	0.4163	0.068
Mof_H 	H 	0.2648	0.5773	0.3829	0.003
Mof_C 	C 	0.3403	0.6243	0.5251	0.018
Mof_C 	C 	0.3458	0.6197	0.5791	-0.077
Mof_H 	H 	0.3316	0.5982	0.5983	0.066
Mof_C 	C 	0.3736	0.6481	0.6056	0.006
Mof_H 	H 	0.3798	0.6442	0.6422	0.046
Mof_C 	C 	0.391	0.6808	0.5789	-0.07
Mof_C 	C 	0.3836	0.6872	0.526	-0.003
Mof_H 	H 	0.3965	0.7099	0.5077	0.054
Mof_C 	C 	0.3562	0.6591	0.4988	-0.071
Mof_H 	H 	0.3489	0.6642	0.4627	0.052
Mof_C 	C 	0.4244	0.7072	0.6053	0.289
Mof_O 	O 	0.4314	0.7036	0.6555	-0.35
Mof_O 	O 	0.4458	0.7324	0.5786	-0.386
Mof_N 	N 	0.2041	0.0418	0.858	-0.241
Mof_C 	C 	0.1816	0.07	0.883	0.105
Mof_H 	H 	0.1869	0.075	0.9197	-0.013
Mof_C 	C 	0.1514	0.092	0.8586	-0.157
Mof_H 	H 	0.1349	0.111	0.879	0.083
Mof_C 	C 	0.1433	0.0881	0.8047	0.088
Mof_C 	C 	0.1672	0.0606	0.7784	-0.135
Mof_H 	H 	0.1637	0.0569	0.7411	0.09
Mof_C 	C 	0.1985	0.0363	0.8067	0.07
Mof_H 	H 	0.215	0.0162	0.7881	0.016
Mof_C 	C 	0.1117	0.1123	0.7746	0.009
Mof_C 	C 	0.094	0.0991	0.7292	-0.073
Mof_H 	H 	0.1008	0.0721	0.7154	0.059
Mof_C 	C 	0.0652	0.1255	0.7018	0.007
Mof_H 	H 	0.0502	0.1144	0.6723	0.042
Mof_C 	C 	0.0586	0.1656	0.7164	-0.079
Mof_C 	C 	0.077	0.1798	0.7649	0.002
Mof_H 	H 	0.0698	0.2067	0.7786	0.049
Mof_C 	C 	0.1048	0.1553	0.7917	-0.07
Mof_H 	H 	0.1195	0.1662	0.8215	0.054
Mof_C 	C 	0.0309	0.1948	0.6841	0.307
Mof_O 	O 	0.0194	0.1847	0.6389	-0.369
Mof_O 	O 	0.0208	0.2296	0.704	-0.396
Mof_N 	N 	0.7728	0.0312	0.4349	-0.241
Mof_C 	C 	0.7761	0.071	0.416	0.065
Mof_H 	H 	0.7639	0.0769	0.3823	0.004
Mof_C 	C 	0.796	0.1039	0.4429	-0.124
Mof_H 	H 	0.7981	0.131	0.4272	0.071
Mof_C 	C 	0.8129	0.096	0.4936	0.063
Mof_C 	C 	0.8076	0.0538	0.5128	-0.138
Mof_H 	H 	0.8174	0.0466	0.5473	0.09
Mof_C 	C 	0.7889	0.0245	0.4828	0.085
Mof_H 	H 	0.787	0.9968	0.4969	0.004
Mof_C 	C 	0.8363	0.1281	0.5236	0.021
Mof_C 	C 	0.8413	0.1251	0.5778	-0.079
Mof_H 	H 	0.8263	0.1043	0.5972	0.065
Mof_C 	C 	0.869	0.1531	0.6053	0.012
Mof_H 	H 	0.8735	0.1498	0.6425	0.044
Mof_C 	C 	0.8891	0.1844	0.5785	-0.082
Mof_C 	C 	0.8824	0.1885	0.5243	0.007
Mof_H 	H 	0.8968	0.2098	0.5051	0.051
Mof_C 	C 	0.8547	0.1618	0.497	-0.077
Mof_H 	H 	0.8485	0.1668	0.4605	0.055
Mof_C 	C 	0.9218	0.2098	0.607	0.311
Mof_O 	O 	0.9443	0.2345	0.5793	-0.39
Mof_O 	O 	0.9286	0.2057	0.6549	-0.365
Mof_N 	N 	0.541	0.2031	0.1734	-0.241
Mof_C 	C 	0.5639	0.1746	0.1467	0.084
Mof_H 	H 	0.5654	0.1771	0.109	-0.004
Mof_C 	C 	0.5856	0.142	0.1703	-0.141
Mof_H 	H 	0.6005	0.122	0.1494	0.079
Mof_C 	C 	0.5848	0.139	0.2269	0.086
Mof_C 	C 	0.5597	0.1655	0.2515	-0.15
Mof_H 	H 	0.5563	0.1629	0.289	0.095
Mof_C 	C 	0.5381	0.1967	0.2252	0.087
Mof_H 	H 	0.5203	0.2146	0.2454	0.01
Mof_C 	C 	0.61	0.1069	0.2549	0.007
Mof_C 	C 	0.6501	0.0982	0.2369	-0.064
Mof_H 	H 	0.6594	0.1094	0.2038	0.052
Mof_C 	C 	0.6774	0.0726	0.2674	-0.007
Mof_H 	H 	0.7053	0.0672	0.2558	0.053
Mof_C 	C 	0.6629	0.0559	0.3138	-0.066
Mof_C 	C 	0.6213	0.0618	0.3301	-0.004
Mof_H 	H 	0.6108	0.048	0.3609	0.044
Mof_C 	C 	0.5957	0.0882	0.3006	-0.068
Mof_H 	H 	0.5678	0.0933	0.3121	0.058
Mof_C 	C 	0.6924	0.0298	0.3471	0.277
Mof_O 	O 	0.7278	0.0203	0.3281	-0.387
Mof_O 	O 	0.6821	0.0175	0.394	-0.351
Mof_N 	N 	0.5314	0.7734	0.5996	-0.24
Mof_C 	C 	0.5245	0.7891	0.5511	0.069
Mof_H 	H 	0.4968	0.787	0.5373	0.01
Mof_C 	C 	0.5547	0.8085	0.5188	-0.126
Mof_H 	H 	0.548	0.8186	0.4842	0.087
Mof_C 	C 	0.5964	0.8124	0.5406	0.062
Mof_C 	C 	0.6047	0.7965	0.5899	-0.121
Mof_H 	H 	0.632	0.7988	0.605	0.07
Mof_C 	C 	0.5717	0.7764	0.6183	0.057
Mof_H 	H 	0.578	0.7645	0.6521	0.006
Mof_C 	C 	0.6288	0.8358	0.5097	0.021
Mof_C 	C 	0.6253	0.8396	0.4547	-0.079
Mof_H 	H 	0.6044	0.8246	0.4355	0.066
Mof_C 	C 	0.6538	0.8663	0.4284	0.007
Mof_H 	H 	0.6522	0.8686	0.3908	0.046
Mof_C 	C 	0.684	0.8892	0.4551	-0.069
Mof_C 	C 	0.6884	0.883	0.5086	-0.001
Mof_H 	H 	0.7096	0.8978	0.5275	0.055
Mof_C 	C 	0.6615	0.8546	0.5365	-0.074
Mof_H 	H 	0.6661	0.8489	0.5732	0.054
Mof_C 	C 	0.7101	0.9225	0.4273	0.296
Mof_O 	O 	0.7057	0.9278	0.3779	-0.352
Mof_O 	O 	0.7338	0.9442	0.4554	-0.387
Mof_N 	N 	0.704	0.5405	0.8614	-0.238
Mof_C 	C 	0.6995	0.537	0.8077	0.057
Mof_H 	H 	0.718	0.5196	0.7879	0.02
Mof_C 	C 	0.667	0.5596	0.7814	-0.127
Mof_H 	H 	0.6642	0.5573	0.7439	0.089
Mof_C 	C 	0.6406	0.5838	0.808	0.075
Mof_C 	C 	0.6417	0.5853	0.8638	-0.133
Mof_H 	H 	0.6217	0.6006	0.8841	0.076
Mof_C 	C 	0.6759	0.5619	0.888	0.08
Mof_H 	H 	0.6779	0.5621	0.9257	-0.004
Mof_C 	C 	0.6071	0.6088	0.7804	0.015
Mof_C 	C 	0.5897	0.5968	0.732	-0.079
Mof_H 	H 	0.5949	0.5692	0.7194	0.062
Mof_C 	C 	0.5661	0.6221	0.7024	0.011
Mof_H 	H 	0.556	0.6123	0.669	0.04
Mof_C 	C 	0.5707	0.6758	0.7701	0.001
Mof_H 	H 	0.5622	0.7021	0.7846	0.049
Mof_C 	C 	0.598	0.6496	0.7992	-0.072
Mof_H 	H 	0.6102	0.6594	0.8314	0.054
Mof_C 	C 	0.5314	0.6922	0.6863	0.283
Mof_O 	O 	0.5217	0.728	0.707	-0.378
Mof_O 	O 	0.5209	0.6819	0.6402	-0.358
Mof_C 	C 	0.5557	0.6632	0.7192	-0.078
Mof_Ni	Ni	0.74245	0.5133	0.6404	1.096
Mof_Ni	Ni	0.98525	0.25671	0.39297	1.097
Mof_Ni	Ni	0.24418	0.01507	0.64029	1.101
Mof_Ni	Ni	0.01377	0.74338	0.89118	1.098
Mof_N 	N 	0.2252	0.5295	0.0986	-0.237
Mof_C 	C 	0.223	0.5704	0.1155	0.057
Mof_H 	H 	0.2353	0.577	0.1489	0.007
Mof_C 	C 	0.2037	0.6033	0.0871	-0.117
Mof_H 	H 	0.2037	0.6314	0.0997	0.069
Mof_C 	C 	0.1838	0.5915	0.0372	0.06
Mof_C 	C 	0.1854	0.551	0.0202	-0.126
Mof_H 	H 	0.1724	0.5428	0.9878	0.084
Mof_C 	C 	0.2067	0.5217	0.0516	0.067
Mof_H 	H 	0.2083	0.4937	0.0385	0.011
Mof_C 	C 	0.1593	0.6234	0.0069	0.025
Mof_C 	C 	0.1425	0.6591	0.0326	-0.076
Mof_H 	H 	0.15	0.6645	0.0685	0.055
Mof_C 	C 	0.1153	0.6866	0.0067	0.005
Mof_H 	H 	0.1018	0.7088	0.0255	0.051
Mof_C 	C 	0.1083	0.6806	0.9524	-0.076
Mof_C 	C 	0.1257	0.6485	0.9256	0.011
Mof_H 	H 	0.1203	0.6451	0.8886	0.045
Mof_C 	C 	0.1528	0.619	0.953	-0.085
Mof_H 	H 	0.1659	0.5968	0.934	0.068
Mof_C 	C 	0.0754	0.7078	0.9262	0.294
Mof_O 	O 	0.0544	0.733	0.9531	-0.389
Mof_O 	O 	0.0689	0.7034	0.8763	-0.352
Mof_N 	N 	0.7952	0.5412	0.6725	-0.23
Mof_C 	C 	0.8009	0.535	0.7259	0.049
Mof_H 	H 	0.7848	0.5149	0.7449	0.025
Mof_C 	C 	0.8317	0.5597	0.7516	-0.117
Mof_H 	H 	0.8352	0.5566	0.789	0.084
Mof_C 	C 	0.8565	0.5877	0.7257	0.076
Mof_C 	C 	0.851	0.591	0.672	-0.136
Mof_H 	H 	0.8683	0.6096	0.6521	0.076
Mof_C 	C 	0.8204	0.5675	0.6461	0.081
Mof_H 	H 	0.8173	0.5702	0.6087	-0.002
Mof_C 	C 	0.8877	0.6108	0.7559	0.009
Mof_C 	C 	0.9041	0.6002	0.8038	-0.07
Mof_H 	H 	0.8976	0.5733	0.8179	0.059
Mof_C 	C 	0.9293	0.6258	0.8326	0.001
Mof_H 	H 	0.9393	0.6164	0.8663	0.043
Mof_C 	C 	0.9409	0.6653	0.8143	-0.068
Mof_C 	C 	0.9258	0.6782	0.765	-0.006
Mof_H 	H 	0.9344	0.7043	0.7502	0.053
Mof_C 	C 	0.8976	0.6523	0.7373	-0.064
Mof_H 	H 	0.8849	0.6624	0.7055	0.052
Mof_C 	C 	0.9683	0.6938	0.8469	0.275
Mof_O 	O 	0.9783	0.6854	0.8948	-0.357
Mof_O 	O 	0.9781	0.7293	0.8269	-0.383
Mof_N 	N 	0.5311	0.7253	0.433	-0.238
Mof_C 	C 	0.5225	0.7074	0.4798	0.069
Mof_H 	H 	0.4944	0.7085	0.4922	0.009
Mof_C 	C 	0.5526	0.6868	0.5122	-0.134
Mof_H 	H 	0.545	0.6754	0.5458	0.088
Mof_C 	C 	0.5928	0.684	0.4939	0.07
Mof_C 	C 	0.6042	0.7027	0.4451	-0.127
Mof_H 	H 	0.6322	0.7021	0.4322	0.072
Mof_C 	C 	0.5707	0.7228	0.4163	0.068
Mof_H 	H 	0.5773	0.7352	0.3829	0.003
Mof_C 	C 	0.6243	0.6597	0.5251	0.018
Mof_C 	C 	0.6197	0.6542	0.5791	-0.077
Mof_H 	H 	0.5982	0.6684	0.5983	0.066
Mof_C 	C 	0.6481	0.6264	0.6056	0.006
Mof_H 	H 	0.6442	0.6202	0.6422	0.046
Mof_C 	C 	0.6808	0.609	0.5789	-0.07
Mof_C 	C 	0.6872	0.6164	0.526	-0.003
Mof_H 	H 	0.7099	0.6035	0.5077	0.054
Mof_C 	C 	0.6591	0.6438	0.4988	-0.071
Mof_H 	H 	0.6642	0.6511	0.4627	0.052
Mof_C 	C 	0.7072	0.5756	0.6053	0.289
Mof_O 	O 	0.7036	0.5686	0.6555	-0.35
Mof_O 	O 	0.7324	0.5542	0.5786	-0.386
Mof_N 	N 	0.0418	0.7959	0.858	-0.241
Mof_C 	C 	0.07	0.8184	0.883	0.105
Mof_H 	H 	0.075	0.8131	0.9197	-0.013
Mof_C 	C 	0.092	0.8486	0.8586	-0.157
Mof_H 	H 	0.111	0.8651	0.879	0.083
Mof_C 	C 	0.0881	0.8567	0.8047	0.088
Mof_C 	C 	0.0606	0.8328	0.7784	-0.135
Mof_H 	H 	0.0569	0.8363	0.7411	0.09
Mof_C 	C 	0.0363	0.8015	0.8067	0.07
Mof_H 	H 	0.0162	0.785	0.7881	0.016
Mof_C 	C 	0.1123	0.8883	0.7746	0.009
Mof_C 	C 	0.0991	0.906	0.7292	-0.073
Mof_H 	H 	0.0721	0.8992	0.7154	0.059
Mof_C 	C 	0.1255	0.9348	0.7018	0.007
Mof_H 	H 	0.1144	0.9498	0.6723	0.042
Mof_C 	C 	0.1656	0.9414	0.7164	-0.079
Mof_C 	C 	0.1798	0.923	0.7649	0.002
Mof_H 	H 	0.2067	0.9302	0.7786	0.049
Mof_C 	C 	0.1553	0.8952	0.7917	-0.07
Mof_H 	H 	0.1662	0.8805	0.8215	0.054
Mof_C 	C 	0.1948	0.9691	0.6841	0.307
Mof_O 	O 	0.1847	0.9806	0.6389	-0.369
Mof_O 	O 	0.2296	0.9792	0.704	-0.396
Mof_N 	N 	0.0312	0.2272	0.4349	-0.241
Mof_C 	C 	0.071	0.2239	0.416	0.065
Mof_H 	H 	0.0769	0.2361	0.3823	0.004
Mof_C 	C 	0.1039	0.204	0.4429	-0.124
Mof_H 	H 	0.131	0.2019	0.4272	0.071
Mof_C 	C 	0.096	0.1871	0.4936	0.063
Mof_C 	C 	0.0538	0.1924	0.5128	-0.138
Mof_H 	H 	0.0466	0.1826	0.5473	0.09
Mof_C 	C 	0.0245	0.2111	0.4828	0.085
Mof_H 	H 	0.9968	0.213	0.4969	0.004
Mof_C 	C 	0.1281	0.1637	0.5236	0.021
Mof_C 	C 	0.1251	0.1587	0.5778	-0.079
Mof_H 	H 	0.1043	0.1737	0.5972	0.065
Mof_C 	C 	0.1531	0.131	0.6053	0.012
Mof_H 	H 	0.1498	0.1265	0.6425	0.044
Mof_C 	C 	0.1844	0.1109	0.5785	-0.082
Mof_C 	C 	0.1885	0.1176	0.5243	0.007
Mof_H 	H 	0.2098	0.1032	0.5051	0.051
Mof_C 	C 	0.1618	0.1453	0.497	-0.077
Mof_H 	H 	0.1668	0.1515	0.4605	0.055
Mof_C 	C 	0.2098	0.0782	0.607	0.311
Mof_O 	O 	0.2345	0.0557	0.5793	-0.39
Mof_O 	O 	0.2057	0.0714	0.6549	-0.365
Mof_N 	N 	0.2031	0.459	0.1734	-0.241
Mof_C 	C 	0.1746	0.4361	0.1467	0.084
Mof_H 	H 	0.1771	0.4346	0.109	-0.004
Mof_C 	C 	0.142	0.4144	0.1703	-0.141
Mof_H 	H 	0.122	0.3995	0.1494	0.079
Mof_C 	C 	0.139	0.4152	0.2269	0.086
Mof_C 	C 	0.1655	0.4403	0.2515	-0.15
Mof_H 	H 	0.1629	0.4437	0.289	0.095
Mof_C 	C 	0.1967	0.4619	0.2252	0.087
Mof_H 	H 	0.2146	0.4797	0.2454	0.01
Mof_C 	C 	0.1069	0.39	0.2549	0.007
Mof_C 	C 	0.0982	0.3499	0.2369	-0.064
Mof_H 	H 	0.1094	0.3406	0.2038	0.052
Mof_C 	C 	0.0726	0.3226	0.2674	-0.007
Mof_H 	H 	0.0672	0.2947	0.2558	0.053
Mof_C 	C 	0.0559	0.3371	0.3138	-0.066
Mof_C 	C 	0.0618	0.3787	0.3301	-0.004
Mof_H 	H 	0.048	0.3892	0.3609	0.044
Mof_C 	C 	0.0882	0.4043	0.3006	-0.068
Mof_H 	H 	0.0933	0.4322	0.3121	0.058
Mof_C 	C 	0.0298	0.3076	0.3471	0.277
Mof_O 	O 	0.0203	0.2722	0.3281	-0.387
Mof_O 	O 	0.0175	0.3179	0.394	-0.351
Mof_N 	N 	0.7734	0.4686	0.5996	-0.24
Mof_C 	C 	0.7891	0.4755	0.5511	0.069
Mof_H 	H 	0.787	0.5032	0.5373	0.01
Mof_C 	C 	0.8085	0.4453	0.5188	-0.126
Mof_H 	H 	0.8186	0.452	0.4842	0.087
Mof_C 	C 	0.8124	0.4036	0.5406	0.062
Mof_C 	C 	0.7965	0.3953	0.5899	-0.121
Mof_H 	H 	0.7988	0.368	0.605	0.07
Mof_C 	C 	0.7764	0.4283	0.6183	0.057
Mof_H 	H 	0.7645	0.422	0.6521	0.006
Mof_C 	C 	0.8358	0.3712	0.5097	0.021
Mof_C 	C 	0.8396	0.3747	0.4547	-0.079
Mof_H 	H 	0.8246	0.3956	0.4355	0.066
Mof_C 	C 	0.8663	0.3462	0.4284	0.007
Mof_H 	H 	0.8686	0.3478	0.3908	0.046
Mof_C 	C 	0.8892	0.316	0.4551	-0.069
Mof_C 	C 	0.883	0.3116	0.5086	-0.001
Mof_H 	H 	0.8978	0.2904	0.5275	0.055
Mof_C 	C 	0.8546	0.3385	0.5365	-0.074
Mof_H 	H 	0.8489	0.3339	0.5732	0.054
Mof_C 	C 	0.9225	0.2899	0.4273	0.296
Mof_O 	O 	0.9278	0.2943	0.3779	-0.352
Mof_O 	O 	0.9442	0.2662	0.4554	-0.387
Mof_N 	N 	0.5405	0.296	0.8614	-0.238
Mof_C 	C 	0.537	0.3005	0.8077	0.057
Mof_H 	H 	0.5196	0.282	0.7879	0.02
Mof_C 	C 	0.5596	0.333	0.7814	-0.127
Mof_H 	H 	0.5573	0.3358	0.7439	0.089
Mof_C 	C 	0.5838	0.3594	0.808	0.075
Mof_C 	C 	0.5853	0.3583	0.8638	-0.133
Mof_H 	H 	0.6006	0.3783	0.8841	0.076
Mof_C 	C 	0.5619	0.3241	0.888	0.08
Mof_H 	H 	0.5621	0.3221	0.9257	-0.004
Mof_C 	C 	0.6088	0.3929	0.7804	0.015
Mof_C 	C 	0.5968	0.4103	0.732	-0.079
Mof_H 	H 	0.5692	0.4051	0.7194	0.062
Mof_C 	C 	0.6221	0.4339	0.7024	0.011
Mof_H 	H 	0.6123	0.444	0.669	0.04
Mof_C 	C 	0.6758	0.4293	0.7701	0.001
Mof_H 	H 	0.7021	0.4378	0.7846	0.049
Mof_C 	C 	0.6496	0.402	0.7992	-0.072
Mof_H 	H 	0.6594	0.3898	0.8314	0.054
Mof_C 	C 	0.6922	0.4686	0.6863	0.283
Mof_O 	O 	0.728	0.4783	0.707	-0.378
Mof_O 	O 	0.6819	0.4791	0.6402	-0.358
Mof_C 	C 	0.6632	0.4443	0.7192	-0.078
Mof_Ni	Ni	0.75755	0.9867	0.1404	1.096
Mof_Ni	Ni	0.51475	0.24329	0.89297	1.096
Mof_Ni	Ni	0.25582	0.48493	0.14029	1.101
Mof_Ni	Ni	0.48623	0.75662	0.39118	1.098
Mof_N 	N 	0.2748	0.9705	0.5986	-0.238
Mof_C 	C 	0.277	0.9296	0.6155	0.059
Mof_H 	H 	0.2647	0.923	0.6489	0.007
Mof_C 	C 	0.2963	0.8967	0.5871	-0.121
Mof_H 	H 	0.2963	0.8686	0.5997	0.07
Mof_C 	C 	0.3162	0.9085	0.5372	0.066
Mof_C 	C 	0.3146	0.949	0.5202	-0.135
Mof_H 	H 	0.3276	0.9572	0.4878	0.089
Mof_C 	C 	0.2933	0.9783	0.5516	0.071
Mof_H 	H 	0.2917	0.0063	0.5385	0.009
Mof_C 	C 	0.3407	0.8766	0.5069	0.016
Mof_C 	C 	0.3575	0.8409	0.5326	-0.069
Mof_H 	H 	0.35	0.8355	0.5685	0.052
Mof_C 	C 	0.3847	0.8134	0.5067	-0.004
Mof_H 	H 	0.3982	0.7912	0.5255	0.053
Mof_C 	C 	0.3917	0.8194	0.4524	-0.069
Mof_C 	C 	0.3743	0.8515	0.4256	0.005
Mof_H 	H 	0.3797	0.8549	0.3886	0.047
Mof_C 	C 	0.3472	0.881	0.453	-0.075
Mof_H 	H 	0.3341	0.9032	0.434	0.065
Mof_C 	C 	0.4246	0.7922	0.4262	0.292
Mof_O 	O 	0.4456	0.767	0.4531	-0.387
Mof_O 	O 	0.4311	0.7966	0.3763	-0.352
Mof_N 	N 	0.7048	0.9588	0.1725	-0.23
Mof_C 	C 	0.6991	0.965	0.2259	0.049
Mof_H 	H 	0.7152	0.9851	0.2449	0.025
Mof_C 	C 	0.6683	0.9403	0.2516	-0.117
Mof_H 	H 	0.6648	0.9434	0.289	0.084
Mof_C 	C 	0.6435	0.9123	0.2257	0.076
Mof_C 	C 	0.649	0.909	0.172	-0.135
Mof_H 	H 	0.6317	0.8904	0.1521	0.076
Mof_C 	C 	0.6796	0.9325	0.1461	0.081
Mof_H 	H 	0.6827	0.9298	0.1087	-0.002
Mof_C 	C 	0.6123	0.8892	0.2559	0.009
Mof_C 	C 	0.5959	0.8998	0.3038	-0.07
Mof_H 	H 	0.6024	0.9267	0.3179	0.059
Mof_C 	C 	0.5707	0.8742	0.3326	0.001
Mof_H 	H 	0.5607	0.8836	0.3663	0.043
Mof_C 	C 	0.5591	0.8347	0.3143	-0.068
Mof_C 	C 	0.5742	0.8218	0.265	-0.006
Mof_H 	H 	0.5656	0.7957	0.2502	0.053
Mof_C 	C 	0.6024	0.8477	0.2373	-0.064
Mof_H 	H 	0.6151	0.8376	0.2055	0.052
Mof_C 	C 	0.5317	0.8062	0.3469	0.275
Mof_O 	O 	0.5217	0.8146	0.3948	-0.357
Mof_O 	O 	0.5219	0.7707	0.3269	-0.383
Mof_N 	N 	0.9689	0.7747	0.933	-0.236
Mof_C 	C 	0.9775	0.7926	0.9798	0.06
Mof_H 	H 	0.0056	0.7915	0.9922	0.011
Mof_C 	C 	0.9474	0.8132	0.0122	-0.119
Mof_H 	H 	0.955	0.8246	0.0458	0.083
Mof_C 	C 	0.9072	0.816	0.9939	0.055
Mof_C 	C 	0.8958	0.7973	0.9451	-0.12
Mof_H 	H 	0.8678	0.7979	0.9322	0.069
Mof_C 	C 	0.9293	0.7772	0.9163	0.064
Mof_H 	H 	0.9227	0.7648	0.8829	0.005
Mof_C 	C 	0.8757	0.8403	0.0251	0.033
Mof_C 	C 	0.8803	0.8458	0.0791	-0.087
Mof_H 	H 	0.9018	0.8316	0.0983	0.07
Mof_C 	C 	0.8519	0.8736	0.1056	0.014
Mof_H 	H 	0.8558	0.8798	0.1422	0.043
Mof_C 	C 	0.8192	0.891	0.0789	-0.077
Mof_C 	C 	0.8128	0.8836	0.026	0.01
Mof_H 	H 	0.7901	0.8965	0.0077	0.05
Mof_C 	C 	0.8409	0.8562	0.9988	-0.087
Mof_H 	H 	0.8358	0.8489	0.9627	0.057
Mof_C 	C 	0.7928	0.9244	0.1053	0.292
Mof_O 	O 	0.7964	0.9314	0.1555	-0.351
Mof_O 	O 	0.7676	0.9458	0.0786	-0.386
Mof_N 	N 	0.4582	0.7041	0.358	-0.241
Mof_C 	C 	0.43	0.6816	0.383	0.105
Mof_H 	H 	0.425	0.6869	0.4197	-0.012
Mof_C 	C 	0.408	0.6514	0.3586	-0.157
Mof_H 	H 	0.389	0.6349	0.379	0.083
Mof_C 	C 	0.4119	0.6433	0.3047	0.088
Mof_C 	C 	0.4394	0.6672	0.2784	-0.135
Mof_H 	H 	0.4431	0.6637	0.2411	0.091
Mof_C 	C 	0.4637	0.6985	0.3067	0.07
Mof_H 	H 	0.4838	0.715	0.2881	0.016
Mof_C 	C 	0.3877	0.6117	0.2746	0.009
Mof_C 	C 	0.4009	0.594	0.2292	-0.073
Mof_H 	H 	0.4279	0.6008	0.2154	0.059
Mof_C 	C 	0.3745	0.5652	0.2018	0.007
Mof_H 	H 	0.3856	0.5502	0.1723	0.042
Mof_C 	C 	0.3344	0.5586	0.2164	-0.079
Mof_C 	C 	0.3202	0.577	0.2649	0.002
Mof_H 	H 	0.2933	0.5698	0.2786	0.049
Mof_C 	C 	0.3447	0.6048	0.2917	-0.07
Mof_H 	H 	0.3338	0.6195	0.3215	0.054
Mof_C 	C 	0.3052	0.5309	0.1841	0.307
Mof_O 	O 	0.3153	0.5194	0.1389	-0.369
Mof_O 	O 	0.2704	0.5208	0.204	-0.396
Mof_N 	N 	0.4688	0.2728	0.9349	-0.239
Mof_C 	C 	0.429	0.2761	0.916	0.06
Mof_H 	H 	0.4231	0.2639	0.8823	0.005
Mof_C 	C 	0.3961	0.296	0.9429	-0.116
Mof_H 	H 	0.369	0.2981	0.9272	0.068
Mof_C 	C 	0.404	0.3129	0.9936	0.048
Mof_C 	C 	0.4462	0.3076	0.0128	-0.122
Mof_H 	H 	0.4534	0.3174	0.0473	0.085
Mof_C 	C 	0.4755	0.2889	0.9828	0.074
Mof_H 	H 	0.5032	0.287	0.9969	0.006
Mof_C 	C 	0.3719	0.3363	0.0236	0.037
Mof_C 	C 	0.3749	0.3413	0.0778	-0.09
Mof_H 	H 	0.3957	0.3263	0.0972	0.069
Mof_C 	C 	0.3469	0.369	0.1053	0.02
Mof_H 	H 	0.3502	0.3735	0.1425	0.042
Mof_C 	C 	0.3156	0.3891	0.0785	-0.089
Mof_C 	C 	0.3115	0.3824	0.0243	0.02
Mof_H 	H 	0.2902	0.3968	0.0051	0.048
Mof_C 	C 	0.3382	0.3547	0.997	-0.094
Mof_H 	H 	0.3332	0.3485	0.9605	0.061
Mof_C 	C 	0.2902	0.4218	0.107	0.314
Mof_O 	O 	0.2655	0.4443	0.0793	-0.39
Mof_O 	O 	0.2943	0.4286	0.1549	-0.365
Mof_N 	N 	0.2969	0.041	0.6734	-0.241
Mof_C 	C 	0.3254	0.0639	0.6467	0.084
Mof_H 	H 	0.3229	0.0654	0.609	-0.004
Mof_C 	C 	0.358	0.0856	0.6703	-0.141
Mof_H 	H 	0.378	0.1005	0.6494	0.079
Mof_C 	C 	0.361	0.0848	0.7269	0.086
Mof_C 	C 	0.3345	0.0597	0.7515	-0.15
Mof_H 	H 	0.3371	0.0563	0.789	0.095
Mof_C 	C 	0.3033	0.0381	0.7252	0.087
Mof_H 	H 	0.2854	0.0203	0.7454	0.01
Mof_C 	C 	0.3931	0.11	0.7549	0.007
Mof_C 	C 	0.4018	0.1501	0.7369	-0.064
Mof_H 	H 	0.3906	0.1594	0.7038	0.052
Mof_C 	C 	0.4274	0.1774	0.7674	-0.007
Mof_H 	H 	0.4328	0.2053	0.7558	0.053
Mof_C 	C 	0.4441	0.1629	0.8138	-0.066
Mof_C 	C 	0.4382	0.1213	0.8301	-0.003
Mof_H 	H 	0.452	0.1108	0.8609	0.044
Mof_C 	C 	0.4118	0.0957	0.8006	-0.068
Mof_H 	H 	0.4067	0.0678	0.8121	0.058
Mof_C 	C 	0.4702	0.1924	0.8471	0.277
Mof_O 	O 	0.4797	0.2278	0.8281	-0.387
Mof_O 	O 	0.4825	0.1821	0.894	-0.351
Mof_N 	N 	0.7266	0.0314	0.0996	-0.239
Mof_C 	C 	0.7109	0.0245	0.0511	0.065
Mof_H 	H 	0.713	0.9968	0.0373	0.012
Mof_C 	C 	0.6915	0.0547	0.0188	-0.117
Mof_H 	H 	0.6814	0.048	0.9842	0.083
Mof_C 	C 	0.6876	0.0964	0.0406	0.057
Mof_C 	C 	0.7035	0.1047	0.0899	-0.118
Mof_H 	H 	0.7012	0.132	0.105	0.069
Mof_C 	C 	0.7236	0.0717	0.1183	0.055
Mof_H 	H 	0.7355	0.078	0.1521	0.007
Mof_C 	C 	0.6642	0.1288	0.0097	0.03
Mof_C 	C 	0.6604	0.1253	0.9547	-0.089
Mof_H 	H 	0.6754	0.1044	0.9355	0.069
Mof_C 	C 	0.6337	0.1538	0.9284	0.013
Mof_H 	H 	0.6314	0.1522	0.8908	0.043
Mof_C 	C 	0.6108	0.184	0.9551	-0.077
Mof_C 	C 	0.617	0.1884	0.0086	0.008
Mof_H 	H 	0.6022	0.2096	0.0275	0.052
Mof_C 	C 	0.6454	0.1615	0.0365	-0.081
Mof_H 	H 	0.6511	0.1661	0.0732	0.057
Mof_C 	C 	0.5775	0.2101	0.9273	0.298
Mof_O 	O 	0.5722	0.2057	0.8779	-0.353
Mof_O 	O 	0.5558	0.2338	0.9554	-0.388
Mof_N 	N 	0.9595	0.204	0.3614	-0.238
Mof_C 	C 	0.963	0.1995	0.3077	0.057
Mof_H 	H 	0.9804	0.218	0.2879	0.02
Mof_C 	C 	0.9404	0.167	0.2814	-0.127
Mof_H 	H 	0.9427	0.1642	0.2439	0.089
Mof_C 	C 	0.9162	0.1406	0.308	0.075
Mof_C 	C 	0.9147	0.1417	0.3638	-0.133
Mof_H 	H 	0.8994	0.1217	0.3841	0.077
Mof_C 	C 	0.9381	0.1759	0.388	0.08
Mof_H 	H 	0.9379	0.1779	0.4257	-0.004
Mof_C 	C 	0.8912	0.1071	0.2804	0.015
Mof_C 	C 	0.9032	0.0897	0.232	-0.079
Mof_H 	H 	0.9308	0.0949	0.2194	0.062
Mof_C 	C 	0.8779	0.0661	0.2024	0.011
Mof_H 	H 	0.8877	0.056	0.169	0.04
Mof_C 	C 	0.8242	0.0707	0.2701	0.001
Mof_H 	H 	0.7979	0.0622	0.2846	0.049
Mof_C 	C 	0.8504	0.098	0.2992	-0.072
Mof_H 	H 	0.8406	0.1102	0.3314	0.054
Mof_C 	C 	0.8078	0.0314	0.1863	0.283
Mof_O 	O 	0.772	0.0217	0.207	-0.378
Mof_O 	O 	0.8181	0.0209	0.1402	-0.357
Mof_C 	C 	0.8368	0.0557	0.2192	-0.078
Mof_Ni	Ni	0.24245	0.0133	0.1404	1.096
Mof_Ni	Ni	0.48525	0.75671	0.89297	1.096
Mof_Ni	Ni	0.74418	0.51507	0.14029	1.101
Mof_Ni	Ni	0.51377	0.24338	0.39118	1.098
Mof_N 	N 	0.7252	0.0295	0.5986	-0.238
Mof_C 	C 	0.723	0.0704	0.6155	0.059
Mof_H 	H 	0.7353	0.077	0.6489	0.007
Mof_C 	C 	0.7037	0.1033	0.5871	-0.121
Mof_H 	H 	0.7037	0.1314	0.5997	0.07
Mof_C 	C 	0.6838	0.0915	0.5372	0.066
Mof_C 	C 	0.6854	0.051	0.5202	-0.135
Mof_H 	H 	0.6724	0.0428	0.4878	0.089
Mof_C 	C 	0.7067	0.0217	0.5516	0.071
Mof_H 	H 	0.7083	0.9937	0.5385	0.009
Mof_C 	C 	0.6593	0.1234	0.5069	0.016
Mof_C 	C 	0.6425	0.1591	0.5326	-0.069
Mof_H 	H 	0.65	0.1645	0.5685	0.052
Mof_C 	C 	0.6153	0.1866	0.5067	-0.004
Mof_H 	H 	0.6018	0.2088	0.5255	0.053
Mof_C 	C 	0.6083	0.1806	0.4524	-0.069
Mof_C 	C 	0.6257	0.1485	0.4256	0.005
Mof_H 	H 	0.6203	0.1451	0.3886	0.047
Mof_C 	C 	0.6528	0.119	0.453	-0.075
Mof_H 	H 	0.6659	0.0968	0.434	0.065
Mof_C 	C 	0.5754	0.2078	0.4262	0.292
Mof_O 	O 	0.5544	0.233	0.4531	-0.387
Mof_O 	O 	0.5689	0.2034	0.3763	-0.352
Mof_N 	N 	0.2952	0.0412	0.1725	-0.23
Mof_C 	C 	0.3009	0.035	0.2259	0.049
Mof_H 	H 	0.2848	0.0149	0.2449	0.025
Mof_C 	C 	0.3317	0.0597	0.2516	-0.117
Mof_H 	H 	0.3352	0.0566	0.289	0.084
Mof_C 	C 	0.3565	0.0877	0.2257	0.076
Mof_C 	C 	0.351	0.091	0.172	-0.135
Mof_H 	H 	0.3683	0.1096	0.1521	0.076
Mof_C 	C 	0.3204	0.0675	0.1461	0.081
Mof_H 	H 	0.3173	0.0702	0.1087	-0.002
Mof_C 	C 	0.3877	0.1108	0.2559	0.009
Mof_C 	C 	0.4041	0.1002	0.3038	-0.07
Mof_H 	H 	0.3976	0.0733	0.3179	0.059
Mof_C 	C 	0.4293	0.1258	0.3326	0.001
Mof_H 	H 	0.4393	0.1164	0.3663	0.043
Mof_C 	C 	0.4409	0.1653	0.3143	-0.068
Mof_C 	C 	0.4258	0.1782	0.265	-0.006
Mof_H 	H 	0.4344	0.2043	0.2502	0.053
Mof_C 	C 	0.3976	0.1523	0.2373	-0.064
Mof_H 	H 	0.3849	0.1624	0.2055	0.052
Mof_C 	C 	0.4683	0.1938	0.3469	0.275
Mof_O 	O 	0.4783	0.1854	0.3948	-0.357
Mof_O 	O 	0.4781	0.2293	0.3269	-0.383
Mof_N 	N 	0.0311	0.2253	0.933	-0.236
Mof_C 	C 	0.0225	0.2074	0.9798	0.06
Mof_H 	H 	0.9944	0.2085	0.9922	0.011
Mof_C 	C 	0.0526	0.1868	0.0122	-0.119
Mof_H 	H 	0.045	0.1754	0.0458	0.083
Mof_C 	C 	0.0928	0.184	0.9939	0.055
Mof_C 	C 	0.1042	0.2027	0.9451	-0.12
Mof_H 	H 	0.1322	0.2021	0.9322	0.069
Mof_C 	C 	0.0707	0.2228	0.9163	0.064
Mof_H 	H 	0.0773	0.2352	0.8829	0.005
Mof_C 	C 	0.1243	0.1597	0.0251	0.033
Mof_C 	C 	0.1197	0.1542	0.0791	-0.087
Mof_H 	H 	0.0982	0.1684	0.0983	0.07
Mof_C 	C 	0.1481	0.1264	0.1056	0.014
Mof_H 	H 	0.1442	0.1202	0.1422	0.043
Mof_C 	C 	0.1808	0.109	0.0789	-0.077
Mof_C 	C 	0.1872	0.1164	0.026	0.01
Mof_H 	H 	0.2099	0.1035	0.0077	0.05
Mof_C 	C 	0.1591	0.1438	0.9988	-0.087
Mof_H 	H 	0.1642	0.1511	0.9627	0.057
Mof_C 	C 	0.2072	0.0756	0.1053	0.292
Mof_O 	O 	0.2036	0.0686	0.1555	-0.351
Mof_O 	O 	0.2324	0.0542	0.0786	-0.386
Mof_N 	N 	0.5418	0.2959	0.358	-0.241
Mof_C 	C 	0.57	0.3184	0.383	0.105
Mof_H 	H 	0.575	0.3131	0.4197	-0.012
Mof_C 	C 	0.592	0.3486	0.3586	-0.157
Mof_H 	H 	0.611	0.3651	0.379	0.083
Mof_C 	C 	0.5881	0.3567	0.3047	0.088
Mof_C 	C 	0.5606	0.3328	0.2784	-0.135
Mof_H 	H 	0.5569	0.3363	0.2411	0.091
Mof_C 	C 	0.5363	0.3015	0.3067	0.07
Mof_H 	H 	0.5162	0.285	0.2881	0.016
Mof_C 	C 	0.6123	0.3883	0.2746	0.009
Mof_C 	C 	0.5991	0.406	0.2292	-0.073
Mof_H 	H 	0.5721	0.3992	0.2154	0.059
Mof_C 	C 	0.6255	0.4348	0.2018	0.007
Mof_H 	H 	0.6144	0.4498	0.1723	0.042
Mof_C 	C 	0.6656	0.4414	0.2164	-0.079
Mof_C 	C 	0.6798	0.423	0.2649	0.002
Mof_H 	H 	0.7067	0.4302	0.2786	0.049
Mof_C 	C 	0.6553	0.3952	0.2917	-0.07
Mof_H 	H 	0.6662	0.3805	0.3215	0.054
Mof_C 	C 	0.6948	0.4691	0.1841	0.307
Mof_O 	O 	0.6847	0.4806	0.1389	-0.369
Mof_O 	O 	0.7296	0.4792	0.204	-0.396
Mof_N 	N 	0.5312	0.7272	0.9349	-0.239
Mof_C 	C 	0.571	0.7239	0.916	0.06
Mof_H 	H 	0.5769	0.7361	0.8823	0.005
Mof_C 	C 	0.6039	0.704	0.9429	-0.116
Mof_H 	H 	0.631	0.7019	0.9272	0.068
Mof_C 	C 	0.596	0.6871	0.9936	0.048
Mof_C 	C 	0.5538	0.6924	0.0128	-0.122
Mof_H 	H 	0.5466	0.6826	0.0473	0.085
Mof_C 	C 	0.5245	0.7111	0.9828	0.074
Mof_H 	H 	0.4968	0.713	0.9969	0.006
Mof_C 	C 	0.6281	0.6637	0.0236	0.037
Mof_C 	C 	0.6251	0.6587	0.0778	-0.09
Mof_H 	H 	0.6043	0.6737	0.0972	0.069
Mof_C 	C 	0.6531	0.631	0.1053	0.02
Mof_H 	H 	0.6498	0.6265	0.1425	0.042
Mof_C 	C 	0.6844	0.6109	0.0785	-0.089
Mof_C 	C 	0.6885	0.6176	0.0243	0.02
Mof_H 	H 	0.7098	0.6032	0.0051	0.048
Mof_C 	C 	0.6618	0.6453	0.997	-0.094
Mof_H 	H 	0.6668	0.6515	0.9605	0.061
Mof_C 	C 	0.7098	0.5782	0.107	0.314
Mof_O 	O 	0.7345	0.5557	0.0793	-0.39
Mof_O 	O 	0.7057	0.5714	0.1549	-0.365
Mof_N 	N 	0.7031	0.959	0.6734	-0.241
Mof_C 	C 	0.6746	0.9361	0.6467	0.084
Mof_H 	H 	0.6771	0.9346	0.609	-0.004
Mof_C 	C 	0.642	0.9144	0.6703	-0.141
Mof_H 	H 	0.622	0.8995	0.6494	0.079
Mof_C 	C 	0.639	0.9152	0.7269	0.086
Mof_C 	C 	0.6655	0.9403	0.7515	-0.15
Mof_H 	H 	0.6629	0.9437	0.789	0.095
Mof_C 	C 	0.6967	0.9619	0.7252	0.087
Mof_H 	H 	0.7146	0.9797	0.7454	0.01
Mof_C 	C 	0.6069	0.89	0.7549	0.007
Mof_C 	C 	0.5982	0.8499	0.7369	-0.064
Mof_H 	H 	0.6094	0.8406	0.7038	0.052
Mof_C 	C 	0.5726	0.8226	0.7674	-0.007
Mof_H 	H 	0.5672	0.7947	0.7558	0.053
Mof_C 	C 	0.5559	0.8371	0.8138	-0.066
Mof_C 	C 	0.5618	0.8787	0.8301	-0.003
Mof_H 	H 	0.548	0.8892	0.8609	0.044
Mof_C 	C 	0.5882	0.9043	0.8006	-0.068
Mof_H 	H 	0.5933	0.9322	0.8121	0.058
Mof_C 	C 	0.5298	0.8076	0.8471	0.277
Mof_O 	O 	0.5203	0.7722	0.8281	-0.387
Mof_O 	O 	0.5175	0.8179	0.894	-0.351
Mof_N 	N 	0.2734	0.9686	0.0996	-0.239
Mof_C 	C 	0.2891	0.9755	0.0511	0.065
Mof_H 	H 	0.287	0.0032	0.0373	0.012
Mof_C 	C 	0.3085	0.9453	0.0188	-0.117
Mof_H 	H 	0.3186	0.952	0.9842	0.083
Mof_C 	C 	0.3124	0.9036	0.0406	0.057
Mof_C 	C 	0.2965	0.8953	0.0899	-0.118
Mof_H 	H 	0.2988	0.868	0.105	0.069
Mof_C 	C 	0.2764	0.9283	0.1183	0.055
Mof_H 	H 	0.2645	0.922	0.1521	0.007
Mof_C 	C 	0.3358	0.8712	0.0097	0.03
Mof_C 	C 	0.3396	0.8747	0.9547	-0.089
Mof_H 	H 	0.3246	0.8956	0.9355	0.069
Mof_C 	C 	0.3663	0.8462	0.9284	0.013
Mof_H 	H 	0.3686	0.8478	0.8908	0.043
Mof_C 	C 	0.3892	0.816	0.9551	-0.077
Mof_C 	C 	0.383	0.8116	0.0086	0.008
Mof_H 	H 	0.3978	0.7904	0.0275	0.052
Mof_C 	C 	0.3546	0.8385	0.0365	-0.081
Mof_H 	H 	0.3489	0.8339	0.0732	0.057
Mof_C 	C 	0.4225	0.7899	0.9273	0.298
Mof_O 	O 	0.4278	0.7943	0.8779	-0.353
Mof_O 	O 	0.4442	0.7662	0.9554	-0.388
Mof_N 	N 	0.0405	0.796	0.3614	-0.238
Mof_C 	C 	0.037	0.8005	0.3077	0.057
Mof_H 	H 	0.0196	0.782	0.2879	0.02
Mof_C 	C 	0.0596	0.833	0.2814	-0.127
Mof_H 	H 	0.0573	0.8358	0.2439	0.089
Mof_C 	C 	0.0838	0.8594	0.308	0.075
Mof_C 	C 	0.0853	0.8583	0.3638	-0.133
Mof_H 	H 	0.1006	0.8783	0.3841	0.077
Mof_C 	C 	0.0619	0.8241	0.388	0.08
Mof_H 	H 	0.0621	0.8221	0.4257	-0.004
Mof_C 	C 	0.1088	0.8929	0.2804	0.015
Mof_C 	C 	0.0968	0.9103	0.232	-0.079
Mof_H 	H 	0.0692	0.9051	0.2194	0.062
Mof_C 	C 	0.1221	0.9339	0.2024	0.011
Mof_H 	H 	0.1123	0.944	0.169	0.04
Mof_C 	C 	0.1758	0.9293	0.2701	0.001
Mof_H 	H 	0.2021	0.9378	0.2846	0.049
Mof_C 	C 	0.1496	0.902	0.2992	-0.072
Mof_H 	H 	0.1594	0.8898	0.3314	0.054
Mof_C 	C 	0.1922	0.9686	0.1863	0.283
Mof_O 	O 	0.228	0.9783	0.207	-0.378
Mof_O 	O 	0.1819	0.9791	0.1402	-0.357
Mof_C 	C 	0.1632	0.9443	0.2192	-0.078
Mof_Ni	Ni	0.25755	0.4867	0.6404	1.096
Mof_Ni	Ni	0.01475	0.74329	0.39297	1.097
Mof_Ni	Ni	0.75582	0.98493	0.64029	1.101
Mof_Ni	Ni	0.98623	0.25662	0.89118	1.098
Mof_N 	N 	0.7748	0.4705	0.0986	-0.237
Mof_C 	C 	0.777	0.4296	0.1155	0.057
Mof_H 	H 	0.7647	0.423	0.1489	0.007
Mof_C 	C 	0.7963	0.3967	0.0871	-0.117
Mof_H 	H 	0.7963	0.3686	0.0997	0.069
Mof_C 	C 	0.8162	0.4085	0.0372	0.06
Mof_C 	C 	0.8146	0.449	0.0202	-0.126
Mof_H 	H 	0.8276	0.4572	0.9878	0.084
Mof_C 	C 	0.7933	0.4783	0.0516	0.067
Mof_H 	H 	0.7917	0.5063	0.0385	0.011
Mof_C 	C 	0.8407	0.3766	0.0069	0.025
Mof_C 	C 	0.8575	0.3409	0.0326	-0.076
Mof_H 	H 	0.85	0.3355	0.0685	0.055
Mof_C 	C 	0.8847	0.3134	0.0067	0.005
Mof_H 	H 	0.8982	0.2912	0.0255	0.051
Mof_C 	C 	0.8917	0.3194	0.9524	-0.076
Mof_C 	C 	0.8743	0.3515	0.9256	0.011
Mof_H 	H 	0.8797	0.3549	0.8886	0.045
Mof_C 	C 	0.8472	0.381	0.953	-0.085
Mof_H 	H 	0.8341	0.4032	0.934	0.068
Mof_C 	C 	0.9246	0.2922	0.9262	0.294
Mof_O 	O 	0.9456	0.267	0.9531	-0.389
Mof_O 	O 	0.9311	0.2966	0.8763	-0.352
Mof_N 	N 	0.2048	0.4588	0.6725	-0.23
Mof_C 	C 	0.1991	0.465	0.7259	0.049
Mof_H 	H 	0.2152	0.4851	0.7449	0.025
Mof_C 	C 	0.1683	0.4403	0.7516	-0.117
Mof_H 	H 	0.1648	0.4434	0.789	0.084
Mof_C 	C 	0.1435	0.4123	0.7257	0.076
Mof_C 	C 	0.149	0.409	0.672	-0.136
Mof_H 	H 	0.1317	0.3904	0.6521	0.076
Mof_C 	C 	0.1796	0.4325	0.6461	0.081
Mof_H 	H 	0.1827	0.4298	0.6087	-0.002
Mof_C 	C 	0.1123	0.3892	0.7559	0.009
Mof_C 	C 	0.0959	0.3998	0.8038	-0.07
Mof_H 	H 	0.1024	0.4267	0.8179	0.059
Mof_C 	C 	0.0707	0.3742	0.8326	0.001
Mof_H 	H 	0.0607	0.3836	0.8663	0.043
Mof_C 	C 	0.0591	0.3347	0.8143	-0.068
Mof_C 	C 	0.0742	0.3218	0.765	-0.006
Mof_H 	H 	0.0656	0.2957	0.7502	0.053
Mof_C 	C 	0.1024	0.3477	0.7373	-0.064
Mof_H 	H 	0.1151	0.3376	0.7055	0.052
Mof_C 	C 	0.0317	0.3062	0.8469	0.275
Mof_O 	O 	0.0217	0.3146	0.8948	-0.357
Mof_O 	O 	0.0219	0.2707	0.8269	-0.383
Mof_N 	N 	0.4689	0.2747	0.433	-0.238
Mof_C 	C 	0.4775	0.2926	0.4798	0.069
Mof_H 	H 	0.5056	0.2915	0.4922	0.009
Mof_C 	C 	0.4474	0.3132	0.5122	-0.134
Mof_H 	H 	0.455	0.3246	0.5458	0.088
Mof_C 	C 	0.4072	0.316	0.4939	0.07
Mof_C 	C 	0.3958	0.2973	0.4451	-0.127
Mof_H 	H 	0.3678	0.2979	0.4322	0.072
Mof_C 	C 	0.4293	0.2772	0.4163	0.068
Mof_H 	H 	0.4227	0.2648	0.3829	0.003
Mof_C 	C 	0.3757	0.3403	0.5251	0.018
Mof_C 	C 	0.3803	0.3458	0.5791	-0.077
Mof_H 	H 	0.4018	0.3316	0.5983	0.066
Mof_C 	C 	0.3519	0.3736	0.6056	0.006
Mof_H 	H 	0.3558	0.3798	0.6422	0.046
Mof_C 	C 	0.3192	0.391	0.5789	-0.07
Mof_C 	C 	0.3128	0.3836	0.526	-0.003
Mof_H 	H 	0.2901	0.3965	0.5077	0.054
Mof_C 	C 	0.3409	0.3562	0.4988	-0.071
Mof_H 	H 	0.3358	0.3489	0.4627	0.052
Mof_C 	C 	0.2928	0.4244	0.6053	0.289
Mof_O 	O 	0.2964	0.4314	0.6555	-0.35
Mof_O 	O 	0.2676	0.4458	0.5786	-0.386
Mof_N 	N 	0.9582	0.2041	0.858	-0.241
Mof_C 	C 	0.93	0.1816	0.883	0.105
Mof_H 	H 	0.925	0.1869	0.9197	-0.013
Mof_C 	C 	0.908	0.1514	0.8586	-0.157
Mof_H 	H 	0.889	0.1349	0.879	0.083
Mof_C 	C 	0.9119	0.1433	0.8047	0.088
Mof_C 	C 	0.9394	0.1672	0.7784	-0.135
Mof_H 	H 	0.9431	0.1637	0.7411	0.09
Mof_C 	C 	0.9637	0.1985	0.8067	0.07
Mof_H 	H 	0.9838	0.215	0.7881	0.016
Mof_C 	C 	0.8877	0.1117	0.7746	0.009
Mof_C 	C 	0.9009	0.094	0.7292	-0.073
Mof_H 	H 	0.9279	0.1008	0.7154	0.059
Mof_C 	C 	0.8745	0.0652	0.7018	0.007
Mof_H 	H 	0.8856	0.0502	0.6723	0.042
Mof_C 	C 	0.8344	0.0586	0.7164	-0.079
Mof_C 	C 	0.8202	0.077	0.7649	0.002
Mof_H 	H 	0.7933	0.0698	0.7786	0.049
Mof_C 	C 	0.8447	0.1048	0.7917	-0.07
Mof_H 	H 	0.8338	0.1195	0.8215	0.054
Mof_C 	C 	0.8052	0.0309	0.6841	0.307
Mof_O 	O 	0.8153	0.0194	0.6389	-0.369
Mof_O 	O 	0.7704	0.0208	0.704	-0.396
Mof_N 	N 	0.9688	0.7728	0.4349	-0.241
Mof_C 	C 	0.929	0.7761	0.416	0.065
Mof_H 	H 	0.9231	0.7639	0.3823	0.004
Mof_C 	C 	0.8961	0.796	0.4429	-0.124
Mof_H 	H 	0.869	0.7981	0.4272	0.071
Mof_C 	C 	0.904	0.8129	0.4936	0.063
Mof_C 	C 	0.9462	0.8076	0.5128	-0.138
Mof_H 	H 	0.9534	0.8174	0.5473	0.09
Mof_C 	C 	0.9755	0.7889	0.4828	0.085
Mof_H 	H 	0.0032	0.787	0.4969	0.004
Mof_C 	C 	0.8719	0.8363	0.5236	0.021
Mof_C 	C 	0.8749	0.8413	0.5778	-0.079
Mof_H 	H 	0.8957	0.8263	0.5972	0.065
Mof_C 	C 	0.8469	0.869	0.6053	0.012
Mof_H 	H 	0.8502	0.8735	0.6425	0.044
Mof_C 	C 	0.8156	0.8891	0.5785	-0.082
Mof_C 	C 	0.8115	0.8824	0.5243	0.007
Mof_H 	H 	0.7902	0.8968	0.5051	0.051
Mof_C 	C 	0.8382	0.8547	0.497	-0.077
Mof_H 	H 	0.8332	0.8485	0.4605	0.055
Mof_C 	C 	0.7902	0.9218	0.607	0.311
Mof_O 	O 	0.7655	0.9443	0.5793	-0.39
Mof_O 	O 	0.7943	0.9286	0.6549	-0.365
Mof_N 	N 	0.7969	0.541	0.1734	-0.241
Mof_C 	C 	0.8254	0.5639	0.1467	0.084
Mof_H 	H 	0.8229	0.5654	0.109	-0.004
Mof_C 	C 	0.858	0.5856	0.1703	-0.141
Mof_H 	H 	0.878	0.6005	0.1494	0.079
Mof_C 	C 	0.861	0.5848	0.2269	0.086
Mof_C 	C 	0.8345	0.5597	0.2515	-0.15
Mof_H 	H 	0.8371	0.5563	0.289	0.095
Mof_C 	C 	0.8033	0.5381	0.2252	0.087
Mof_H 	H 	0.7854	0.5203	0.2454	0.01
Mof_C 	C 	0.8931	0.61	0.2549	0.007
Mof_C 	C 	0.9018	0.6501	0.2369	-0.064
Mof_H 	H 	0.8906	0.6594	0.2038	0.052
Mof_C 	C 	0.9274	0.6774	0.2674	-0.007
Mof_H 	H 	0.9328	0.7053	0.2558	0.053
Mof_C 	C 	0.9441	0.6629	0.3138	-0.066
Mof_C 	C 	0.9382	0.6213	0.3301	-0.004
Mof_H 	H 	0.952	0.6108	0.3609	0.044
Mof_C 	C 	0.9118	0.5957	0.3006	-0.068
Mof_H 	H 	0.9067	0.5678	0.3121	0.058
Mof_C 	C 	0.9702	0.6924	0.3471	0.277
Mof_O 	O 	0.9797	0.7278	0.3281	-0.387
Mof_O 	O 	0.9825	0.6821	0.394	-0.351
Mof_N 	N 	0.2266	0.5314	0.5996	-0.24
Mof_C 	C 	0.2109	0.5245	0.5511	0.069
Mof_H 	H 	0.213	0.4968	0.5373	0.01
Mof_C 	C 	0.1915	0.5547	0.5188	-0.126
Mof_H 	H 	0.1814	0.548	0.4842	0.087
Mof_C 	C 	0.1876	0.5964	0.5406	0.062
Mof_C 	C 	0.2035	0.6047	0.5899	-0.121
Mof_H 	H 	0.2012	0.632	0.605	0.07
Mof_C 	C 	0.2236	0.5717	0.6183	0.057
Mof_H 	H 	0.2355	0.578	0.6521	0.006
Mof_C 	C 	0.1642	0.6288	0.5097	0.021
Mof_C 	C 	0.1604	0.6253	0.4547	-0.079
Mof_H 	H 	0.1754	0.6044	0.4355	0.066
Mof_C 	C 	0.1337	0.6538	0.4284	0.007
Mof_H 	H 	0.1314	0.6522	0.3908	0.046
Mof_C 	C 	0.1108	0.684	0.4551	-0.069
Mof_C 	C 	0.117	0.6884	0.5086	-0.001
Mof_H 	H 	0.1022	0.7096	0.5275	0.055
Mof_C 	C 	0.1454	0.6615	0.5365	-0.074
Mof_H 	H 	0.1511	0.6661	0.5732	0.054
Mof_C 	C 	0.0775	0.7101	0.4273	0.296
Mof_O 	O 	0.0722	0.7057	0.3779	-0.352
Mof_O 	O 	0.0558	0.7338	0.4554	-0.387
Mof_N 	N 	0.4595	0.704	0.8614	-0.238
Mof_C 	C 	0.463	0.6995	0.8077	0.057
Mof_H 	H 	0.4804	0.718	0.7879	0.02
Mof_C 	C 	0.4404	0.667	0.7814	-0.127
Mof_H 	H 	0.4427	0.6642	0.7439	0.089
Mof_C 	C 	0.4162	0.6406	0.808	0.075
Mof_C 	C 	0.4147	0.6417	0.8638	-0.133
Mof_H 	H 	0.3994	0.6217	0.8841	0.076
Mof_C 	C 	0.4381	0.6759	0.888	0.08
Mof_H 	H 	0.4379	0.6779	0.9257	-0.004
Mof_C 	C 	0.3912	0.6071	0.7804	0.015
Mof_C 	C 	0.4032	0.5897	0.732	-0.079
Mof_H 	H 	0.4308	0.5949	0.7194	0.062
Mof_C 	C 	0.3779	0.5661	0.7024	0.011
Mof_H 	H 	0.3877	0.556	0.669	0.04
Mof_C 	C 	0.3242	0.5707	0.7701	0.001
Mof_H 	H 	0.2979	0.5622	0.7846	0.049
Mof_C 	C 	0.3504	0.598	0.7992	-0.072
Mof_H 	H 	0.3406	0.6102	0.8314	0.054
Mof_C 	C 	0.3078	0.5314	0.6863	0.283
Mof_O 	O 	0.272	0.5217	0.707	-0.378
Mof_O 	O 	0.3181	0.5209	0.6402	-0.358
Mof_C 	C 	0.3368	0.5557	0.7192	-0.078
_end
