# CIF file generated by openbabel 3.1.0, see https://openbabel.org
data_I
_chemical_name_common 'image0'
_cell_length_a 11.9109
_cell_length_b 14.3578
_cell_length_c 22.283
_cell_angle_alpha 90
_cell_angle_beta 113.733
_cell_angle_gamma 90
_space_group_name_H-M_alt 'P 1'
_space_group_name_Hall 'P 1'
loop_
    _symmetry_equiv_pos_as_xyz
    x,y,z
loop_
    _atom_site_label
    _atom_site_type_symbol
    _atom_site_fract_x
    _atom_site_fract_y
    _atom_site_fract_z
    _atom_site_occupancy
    Co1      Co       0.01772    0.78927    0.77255    1.000
    Co2      Co       0.81761    0.66455    0.80310    1.000
    Co3      Co       0.18628    0.92465    0.72939    1.000
    O1       O        0.88640    0.87519    0.77436    1.000
    O2       O        0.75350    0.79477    0.80194    1.000
    O3       O        0.74330    0.28836    0.77143    1.000
    O4       O        0.86160    0.20007    0.73751    1.000
    O5       O        0.37150    0.96968    0.77531    1.000
    O6       O        0.36290    0.12307    0.75445    1.000
    O7       O        0.18760    0.39501    0.11693    1.000
    O8       O        0.18940    0.54947    0.13532    1.000
    O9       O        0.99840    0.36112    0.81700    1.000
    O10      O        0.15970    0.28690    0.89380    1.000
    O11      O        0.00880    0.71008    0.85124    1.000
    O12      O        0.13070    0.76320    0.94740    1.000
    O13      O        0.13440    0.05123    0.84514    1.000
    O14      O        0.15030    0.89220    0.81261    1.000
    O15      O        0.11920    0.93310    0.91050    1.000
    H1       H        0.11320    0.87650    0.91300    1.000
    O16      O        0.12510    0.05714    0.73555    1.000
    O17      O        0.12740    0.19344    0.79118    1.000
    B1       B        0.14070    0.95470    0.85520    1.000
    B2       B        0.12800    0.09640    0.79050    1.000
    C1       C        0.79350    0.86810    0.78698    1.000
    C2       C        0.77900    0.21190    0.75871    1.000
    C3       C        0.41630    0.04630    0.76740    1.000
    C4       C        0.72560    0.95810    0.78261    1.000
    C5       C        0.77840    0.04050    0.77418    1.000
    H2       H        0.85560    0.03920    0.77300    1.000
    C6       C        0.71790    0.12460    0.76749    1.000
    C7       C        0.60230    0.12630    0.76711    1.000
    H3       H        0.56110    0.18270    0.76220    1.000
    C8       C        0.54640    0.04470    0.77395    1.000
    C9       C        0.60900    0.95970    0.78225    1.000
    H4       H        0.57250    0.90480    0.78750    1.000
    C10      C        0.17980    0.47900    0.09978    1.000
    C11      C        0.08310    0.35480    0.87477    1.000
    C12      C        0.08780    0.69680    0.90913    1.000
    C13      C        0.15600    0.49630    0.02898    1.000
    C14      C        0.13990    0.58620    0.00332    1.000
    H5       H        0.15180    0.63710    0.03110    1.000
    C15      C        0.10610    0.60070    0.93664    1.000
    C16      C        0.08830    0.52440    0.89545    1.000
    H6       H        0.06510    0.53370    0.85070    1.000
    C17      C        0.10480    0.43450    0.92035    1.000
    C18      C        0.14050    0.42090    0.98699    1.000
    H7       H        0.15440    0.36070    0.00390    1.000
    O18      O        0.11500    0.27790    0.89550    1.000
    O19      O        0.17730    0.75110    0.94110    1.000
    O20      O        0.17300    0.93220    0.91680    1.000
    H8       H        0.19170    0.87690    0.92200    1.000
    In1      In       0.81372    0.42465    0.77061    1.000
    Co4      Co       0.98228    0.28927    0.72745    1.000
    Co5      Co       0.18239    0.16455    0.69690    1.000
    O21      O        0.11360    0.37519    0.72564    1.000
    O22      O        0.24650    0.29477    0.69806    1.000
    O23      O        0.25670    0.78836    0.72857    1.000
    O24      O        0.13840    0.70007    0.76249    1.000
    O25      O        0.62850    0.46968    0.72469    1.000
    O26      O        0.63710    0.62307    0.74555    1.000
    O27      O        0.81240    0.89501    0.38307    1.000
    O28      O        0.81060    0.04947    0.36468    1.000
    O29      O        0.00160    0.86112    0.68300    1.000
    O30      O        0.84030    0.78690    0.60620    1.000
    O31      O        0.99120    0.21008    0.64876    1.000
    O32      O        0.86930    0.26320    0.55260    1.000
    O33      O        0.86560    0.55123    0.65486    1.000
    O34      O        0.84970    0.39220    0.68739    1.000
    O35      O        0.88080    0.43310    0.58950    1.000
    H9       H        0.88680    0.37650    0.58700    1.000
    O36      O        0.87490    0.55714    0.76445    1.000
    O37      O        0.87260    0.69344    0.70882    1.000
    B3       B        0.85930    0.45470    0.64480    1.000
    B4       B        0.87200    0.59640    0.70950    1.000
    C19      C        0.20650    0.36810    0.71302    1.000
    C20      C        0.22100    0.71190    0.74129    1.000
    C21      C        0.58370    0.54630    0.73260    1.000
    C22      C        0.27440    0.45810    0.71739    1.000
    C23      C        0.22160    0.54050    0.72582    1.000
    H10      H        0.14440    0.53920    0.72700    1.000
    C24      C        0.28210    0.62460    0.73251    1.000
    C25      C        0.39770    0.62630    0.73289    1.000
    H11      H        0.43890    0.68270    0.73780    1.000
    C26      C        0.45360    0.54470    0.72605    1.000
    C27      C        0.39100    0.45970    0.71775    1.000
    H12      H        0.42750    0.40480    0.71250    1.000
    C28      C        0.82020    0.97900    0.40022    1.000
    C29      C        0.91690    0.85480    0.62523    1.000
    C30      C        0.91220    0.19680    0.59087    1.000
    C31      C        0.84400    0.99630    0.47102    1.000
    C32      C        0.86010    0.08620    0.49668    1.000
    H13      H        0.84820    0.13710    0.46890    1.000
    C33      C        0.89390    0.10070    0.56336    1.000
    C34      C        0.91170    0.02440    0.60455    1.000
    H14      H        0.93490    0.03370    0.64930    1.000
    C35      C        0.89520    0.93450    0.57965    1.000
    C36      C        0.85950    0.92090    0.51301    1.000
    H15      H        0.84560    0.86070    0.49610    1.000
    O38      O        0.88500    0.77790    0.60450    1.000
    O39      O        0.82270    0.25110    0.55890    1.000
    O40      O        0.82700    0.43220    0.58320    1.000
    H16      H        0.80830    0.37690    0.57800    1.000
    Co6      Co       0.98228    0.21073    0.22745    1.000
    Co7      Co       0.18239    0.33545    0.19690    1.000
    Co8      Co       0.81372    0.07535    0.27061    1.000
    O41      O        0.11360    0.12481    0.22564    1.000
    O42      O        0.24650    0.20523    0.19806    1.000
    O43      O        0.25670    0.71164    0.22857    1.000
    O44      O        0.13840    0.79993    0.26249    1.000
    O45      O        0.62850    0.03032    0.22469    1.000
    O46      O        0.63710    0.87693    0.24555    1.000
    O47      O        0.81240    0.60499    0.88307    1.000
    O48      O        0.81060    0.45053    0.86468    1.000
    O49      O        0.00160    0.63888    0.18300    1.000
    O50      O        0.84030    0.71310    0.10620    1.000
    O51      O        0.99120    0.28992    0.14876    1.000
    O52      O        0.86930    0.23680    0.05260    1.000
    O53      O        0.86560    0.94877    0.15486    1.000
    O54      O        0.84970    0.10780    0.18739    1.000
    O55      O        0.88080    0.06690    0.08950    1.000
    H17      H        0.88680    0.12350    0.08700    1.000
    O56      O        0.87490    0.94286    0.26445    1.000
    O57      O        0.87260    0.80656    0.20882    1.000
    B5       B        0.85930    0.04530    0.14480    1.000
    B6       B        0.87200    0.90360    0.20950    1.000
    C37      C        0.20650    0.13190    0.21302    1.000
    C38      C        0.22100    0.78810    0.24129    1.000
    C39      C        0.58370    0.95370    0.23260    1.000
    C40      C        0.27440    0.04190    0.21739    1.000
    C41      C        0.22160    0.95950    0.22582    1.000
    H18      H        0.14440    0.96080    0.22700    1.000
    C42      C        0.28210    0.87540    0.23251    1.000
    C43      C        0.39770    0.87370    0.23289    1.000
    H19      H        0.43890    0.81730    0.23780    1.000
    C44      C        0.45360    0.95530    0.22605    1.000
    C45      C        0.39100    0.04030    0.21775    1.000
    H20      H        0.42750    0.09520    0.21250    1.000
    C46      C        0.82020    0.52100    0.90022    1.000
    C47      C        0.91690    0.64520    0.12523    1.000
    C48      C        0.91220    0.30320    0.09087    1.000
    C49      C        0.84400    0.50370    0.97102    1.000
    C50      C        0.86010    0.41380    0.99668    1.000
    H21      H        0.84820    0.36290    0.96890    1.000
    C51      C        0.89390    0.39930    0.06336    1.000
    C52      C        0.91170    0.47560    0.10455    1.000
    H22      H        0.93490    0.46630    0.14930    1.000
    C53      C        0.89520    0.56550    0.07965    1.000
    C54      C        0.85950    0.57910    0.01301    1.000
    H23      H        0.84560    0.63930    0.99610    1.000
    O58      O        0.88500    0.72210    0.10450    1.000
    O59      O        0.82270    0.24890    0.05890    1.000
    O60      O        0.82700    0.06780    0.08320    1.000
    H24      H        0.80830    0.12310    0.07800    1.000
    In2      In       0.18628    0.57535    0.22939    1.000
    Co9      Co       0.01772    0.71073    0.27255    1.000
    Co10     Co       0.81761    0.83545    0.30310    1.000
    O61      O        0.88640    0.62481    0.27436    1.000
    O62      O        0.75350    0.70523    0.30194    1.000
    O63      O        0.74330    0.21164    0.27143    1.000
    O64      O        0.86160    0.29993    0.23751    1.000
    O65      O        0.37150    0.53032    0.27531    1.000
    O66      O        0.36290    0.37693    0.25445    1.000
    O67      O        0.18760    0.10499    0.61693    1.000
    O68      O        0.18940    0.95053    0.63532    1.000
    O69      O        0.99840    0.13888    0.31700    1.000
    O70      O        0.15970    0.21310    0.39380    1.000
    O71      O        0.00880    0.78992    0.35124    1.000
    O72      O        0.13070    0.73680    0.44740    1.000
    O73      O        0.13440    0.44877    0.34514    1.000
    O74      O        0.15030    0.60780    0.31261    1.000
    O75      O        0.11920    0.56690    0.41050    1.000
    H25      H        0.11320    0.62350    0.41300    1.000
    O76      O        0.12510    0.44286    0.23555    1.000
    O77      O        0.12740    0.30656    0.29118    1.000
    B7       B        0.14070    0.54530    0.35520    1.000
    B8       B        0.12800    0.40360    0.29050    1.000
    C55      C        0.79350    0.63190    0.28698    1.000
    C56      C        0.77900    0.28810    0.25871    1.000
    C57      C        0.41630    0.45370    0.26740    1.000
    C58      C        0.72560    0.54190    0.28261    1.000
    C59      C        0.77840    0.45950    0.27418    1.000
    H26      H        0.85560    0.46080    0.27300    1.000
    C60      C        0.71790    0.37540    0.26749    1.000
    C61      C        0.60230    0.37370    0.26711    1.000
    H27      H        0.56110    0.31730    0.26220    1.000
    C62      C        0.54640    0.45530    0.27395    1.000
    C63      C        0.60900    0.54030    0.28225    1.000
    H28      H        0.57250    0.59520    0.28750    1.000
    C64      C        0.17980    0.02100    0.59978    1.000
    C65      C        0.08310    0.14520    0.37477    1.000
    C66      C        0.08780    0.80320    0.40913    1.000
    C67      C        0.15600    0.00370    0.52898    1.000
    C68      C        0.13990    0.91380    0.50332    1.000
    H29      H        0.15180    0.86290    0.53110    1.000
    C69      C        0.10610    0.89930    0.43664    1.000
    C70      C        0.08830    0.97560    0.39545    1.000
    H30      H        0.06510    0.96630    0.35070    1.000
    C71      C        0.10480    0.06550    0.42035    1.000
    C72      C        0.14050    0.07910    0.48699    1.000
    H31      H        0.15440    0.13930    0.50390    1.000
    O78      O        0.11500    0.22210    0.39550    1.000
    O79      O        0.17730    0.74890    0.44110    1.000
    O80      O        0.17300    0.56780    0.41680    1.000
    H32      H        0.19170    0.62310    0.42200    1.000
