# CIF file generated by openbabel 3.1.0, see https://openbabel.org
data_I
_chemical_name_common 'image0'
_cell_length_a 11.3593
_cell_length_b 22.5823
_cell_length_c 16.5923
_cell_angle_alpha 90
_cell_angle_beta 92.129
_cell_angle_gamma 90
_space_group_name_H-M_alt 'P 1'
_space_group_name_Hall 'P 1'
loop_
    _symmetry_equiv_pos_as_xyz
    x,y,z
loop_
    _atom_site_label
    _atom_site_type_symbol
    _atom_site_fract_x
    _atom_site_fract_y
    _atom_site_fract_z
    _atom_site_occupancy
    C1       C        0.41400    0.11690    0.51510    1.000
    C2       C        0.42060    0.05970    0.56470    1.000
    C3       C        0.35380    0.01350    0.53840    1.000
    H1       H        0.30870    0.01760    0.48940    1.000
    C4       C        0.34870    0.96010    0.58040    1.000
    H2       H        0.29860    0.92920    0.56080    1.000
    C5       C        0.41490    0.95210    0.64930    1.000
    C6       C        0.48930    0.99920    0.68070    1.000
    C7       C        0.49250    0.05390    0.63750    1.000
    C8       C        0.56740    0.09890    0.67040    1.000
    H3       H        0.57380    0.13510    0.64180    1.000
    C9       C        0.62910    0.09240    0.73990    1.000
    H4       H        0.67730    0.12390    0.75990    1.000
    C10      C        0.62300    0.03860    0.78400    1.000
    H5       H        0.66610    0.03400    0.83370    1.000
    C11      C        0.55400    0.99350    0.75370    1.000
    H6       H        0.55010    0.95740    0.78290    1.000
    C12      C        0.41180    0.89400    0.69230    1.000
    C13      C        0.52850    0.37930    0.56060    1.000
    C14      C        0.40290    0.46310    0.50750    1.000
    C15      C        0.51390    0.44210    0.52910    1.000
    C16      C        0.61090    0.47770    0.52330    1.000
    C17      C        0.73240    0.45710    0.54190    1.000
    H7       H        0.74220    0.41820    0.56290    1.000
    C18      C        0.83600    0.49150    0.53050    1.000
    H8       H        0.91020    0.47510    0.54760    1.000
    C19      C        0.20860    0.23840    0.47770    1.000
    C20      C        0.08610    0.24020    0.50950    1.000
    C21      C        0.03130    0.29200    0.52070    1.000
    H9       H        0.07320    0.32760    0.51130    1.000
    C22      C        0.91490    0.29610    0.54540    1.000
    H10      H        0.87900    0.33370    0.55160    1.000
    C23      C        0.85300    0.24520    0.56080    1.000
    C24      C        0.90640    0.18930    0.55230    1.000
    C25      C        0.02540    0.18610    0.52640    1.000
    C26      C        0.08040    0.12980    0.51940    1.000
    H11      H        0.15850    0.12720    0.50120    1.000
    C27      C        0.02090    0.07930    0.53880    1.000
    H12      H        0.05820    0.04190    0.53400    1.000
    C28      C        0.90420    0.08230    0.56590    1.000
    H13      H        0.86460    0.04710    0.58050    1.000
    C29      C        0.84860    0.13550    0.57120    1.000
    H14      H        0.76950    0.13660    0.58780    1.000
    C30      C        0.73010    0.25060    0.59110    1.000
    C31      C        0.56200    0.26220    0.37280    1.000
    H15      H        0.59840    0.29370    0.40240    1.000
    C32      C        0.35560    0.24920    0.69500    1.000
    H16      H        0.30490    0.22140    0.66820    1.000
    O1       O        0.43340    0.16420    0.55220    1.000
    O2       O        0.38450    0.11240    0.44290    1.000
    O3       O        0.50800    0.86620    0.71010    1.000
    O4       O        0.31490    0.87330    0.71350    1.000
    O5       O        0.57810    0.37320    0.62780    1.000
    O6       O        0.48650    0.33920    0.51640    1.000
    O7       O        0.28570    0.26650    0.51780    1.000
    O8       O        0.22240    0.21110    0.41420    1.000
    O9       O        0.72430    0.26930    0.66250    1.000
    O10      O        0.64530    0.23760    0.54550    1.000
    O11      O        0.48270    0.23480    0.40770    1.000
    O12      O        0.59920    0.25320    0.30390    1.000
    O13      O        0.44710    0.26500    0.65830    1.000
    O14      O        0.32710    0.26640    0.76110    1.000
    Mg1      Mg       0.46410    0.25056    0.53215    1.000
    Mg2      Mg       0.58570    0.30844    0.71407    1.000
    Mg3      Mg       0.36020    0.17429    0.35431    1.000
    H17      H        0.29750    0.39120    0.53720    1.000
    C33      C        0.28840    0.43080    0.51870    1.000
    H18      H        0.09660    0.42760    0.51920    1.000
    C34      C        0.16420    0.44990    0.50590    1.000
    C35      C        0.58600    0.61690    0.98490    1.000
    C36      C        0.57940    0.55970    0.93530    1.000
    C37      C        0.64620    0.51350    0.96160    1.000
    H19      H        0.69130    0.51760    0.01060    1.000
    C38      C        0.65130    0.46010    0.91960    1.000
    H20      H        0.70140    0.42920    0.93920    1.000
    C39      C        0.58510    0.45210    0.85070    1.000
    C40      C        0.51070    0.49920    0.81930    1.000
    C41      C        0.50750    0.55390    0.86250    1.000
    C42      C        0.43260    0.59890    0.82960    1.000
    H21      H        0.42620    0.63510    0.85820    1.000
    C43      C        0.37090    0.59240    0.76010    1.000
    H22      H        0.32270    0.62390    0.74010    1.000
    C44      C        0.37700    0.53860    0.71600    1.000
    H23      H        0.33390    0.53400    0.66630    1.000
    C45      C        0.44600    0.49350    0.74630    1.000
    H24      H        0.44990    0.45740    0.71710    1.000
    C46      C        0.58820    0.39400    0.80770    1.000
    C47      C        0.47150    0.87930    0.93940    1.000
    C48      C        0.59710    0.96310    0.99250    1.000
    C49      C        0.48610    0.94210    0.97090    1.000
    C50      C        0.38910    0.97770    0.97670    1.000
    C51      C        0.26760    0.95710    0.95810    1.000
    H25      H        0.25780    0.91820    0.93710    1.000
    C52      C        0.16400    0.99150    0.96950    1.000
    H26      H        0.08980    0.97510    0.95240    1.000
    C53      C        0.79140    0.73840    0.02230    1.000
    C54      C        0.91390    0.74020    0.99050    1.000
    C55      C        0.96870    0.79200    0.97930    1.000
    H27      H        0.92680    0.82760    0.98870    1.000
    C56      C        0.08510    0.79610    0.95460    1.000
    H28      H        0.12100    0.83370    0.94840    1.000
    C57      C        0.14700    0.74520    0.93920    1.000
    C58      C        0.09360    0.68930    0.94770    1.000
    C59      C        0.97460    0.68610    0.97360    1.000
    C60      C        0.91960    0.62980    0.98060    1.000
    H29      H        0.84150    0.62720    0.99880    1.000
    C61      C        0.97910    0.57930    0.96120    1.000
    H30      H        0.94180    0.54190    0.96600    1.000
    C62      C        0.09580    0.58230    0.93410    1.000
    H31      H        0.13540    0.54710    0.91950    1.000
    C63      C        0.15140    0.63550    0.92880    1.000
    H32      H        0.23050    0.63660    0.91220    1.000
    C64      C        0.26990    0.75060    0.90890    1.000
    C65      C        0.43800    0.76220    0.12720    1.000
    H33      H        0.40160    0.79370    0.09760    1.000
    C66      C        0.64440    0.74920    0.80500    1.000
    H34      H        0.69510    0.72140    0.83180    1.000
    O15      O        0.56660    0.66420    0.94780    1.000
    O16      O        0.61550    0.61240    0.05710    1.000
    O17      O        0.49200    0.36620    0.78990    1.000
    O18      O        0.68510    0.37330    0.78650    1.000
    O19      O        0.42190    0.87320    0.87220    1.000
    O20      O        0.51350    0.83920    0.98360    1.000
    O21      O        0.71430    0.76650    0.98220    1.000
    O22      O        0.77760    0.71110    0.08580    1.000
    O23      O        0.27570    0.76930    0.83750    1.000
    O24      O        0.35470    0.73760    0.95450    1.000
    O25      O        0.51730    0.73480    0.09230    1.000
    O26      O        0.40080    0.75320    0.19610    1.000
    O27      O        0.55290    0.76500    0.84170    1.000
    O28      O        0.67290    0.76640    0.73890    1.000
    Mg4      Mg       0.53590    0.75056    0.96785    1.000
    Mg5      Mg       0.41430    0.80844    0.78593    1.000
    Mg6      Mg       0.63980    0.67429    0.14569    1.000
    H35      H        0.70250    0.89120    0.96280    1.000
    C67      C        0.71160    0.93080    0.98130    1.000
    H36      H        0.90340    0.92760    0.98080    1.000
    C68      C        0.83580    0.94990    0.99410    1.000
    C69      C        0.58600    0.88310    0.48490    1.000
    C70      C        0.57940    0.94030    0.43530    1.000
    C71      C        0.64620    0.98650    0.46160    1.000
    H37      H        0.69130    0.98240    0.51060    1.000
    C72      C        0.65130    0.03990    0.41960    1.000
    H38      H        0.70140    0.07080    0.43920    1.000
    C73      C        0.58510    0.04790    0.35070    1.000
    C74      C        0.51070    0.00080    0.31930    1.000
    C75      C        0.50750    0.94610    0.36250    1.000
    C76      C        0.43260    0.90110    0.32960    1.000
    H39      H        0.42620    0.86490    0.35820    1.000
    C77      C        0.37090    0.90760    0.26010    1.000
    H40      H        0.32270    0.87610    0.24010    1.000
    C78      C        0.37700    0.96140    0.21600    1.000
    H41      H        0.33390    0.96600    0.16630    1.000
    C79      C        0.44600    0.00650    0.24630    1.000
    H42      H        0.44990    0.04260    0.21710    1.000
    C80      C        0.58820    0.10600    0.30770    1.000
    C81      C        0.47150    0.62070    0.43940    1.000
    C82      C        0.59710    0.53690    0.49250    1.000
    C83      C        0.48610    0.55790    0.47090    1.000
    C84      C        0.38910    0.52230    0.47670    1.000
    C85      C        0.26760    0.54290    0.45810    1.000
    H43      H        0.25780    0.58180    0.43710    1.000
    C86      C        0.16400    0.50850    0.46950    1.000
    H44      H        0.08980    0.52490    0.45240    1.000
    C87      C        0.79140    0.76160    0.52230    1.000
    C88      C        0.91390    0.75980    0.49050    1.000
    C89      C        0.96870    0.70800    0.47930    1.000
    H45      H        0.92680    0.67240    0.48870    1.000
    C90      C        0.08510    0.70390    0.45460    1.000
    H46      H        0.12100    0.66630    0.44840    1.000
    C91      C        0.14700    0.75480    0.43920    1.000
    C92      C        0.09360    0.81070    0.44770    1.000
    C93      C        0.97460    0.81390    0.47360    1.000
    C94      C        0.91960    0.87020    0.48060    1.000
    H47      H        0.84150    0.87280    0.49880    1.000
    C95      C        0.97910    0.92070    0.46120    1.000
    H48      H        0.94180    0.95810    0.46600    1.000
    C96      C        0.09580    0.91770    0.43410    1.000
    H49      H        0.13540    0.95290    0.41950    1.000
    C97      C        0.15140    0.86450    0.42880    1.000
    H50      H        0.23050    0.86340    0.41220    1.000
    C98      C        0.26990    0.74940    0.40890    1.000
    C99      C        0.43800    0.73780    0.62720    1.000
    H51      H        0.40160    0.70630    0.59760    1.000
    C100     C        0.64440    0.75080    0.30500    1.000
    H52      H        0.69510    0.77860    0.33180    1.000
    O29      O        0.56660    0.83580    0.44780    1.000
    O30      O        0.61550    0.88760    0.55710    1.000
    O31      O        0.49200    0.13380    0.28990    1.000
    O32      O        0.68510    0.12670    0.28650    1.000
    O33      O        0.42190    0.62680    0.37220    1.000
    O34      O        0.51350    0.66080    0.48360    1.000
    O35      O        0.71430    0.73350    0.48220    1.000
    O36      O        0.77760    0.78890    0.58580    1.000
    O37      O        0.27570    0.73070    0.33750    1.000
    O38      O        0.35470    0.76240    0.45450    1.000
    O39      O        0.51730    0.76520    0.59230    1.000
    O40      O        0.40080    0.74680    0.69610    1.000
    O41      O        0.55290    0.73500    0.34170    1.000
    O42      O        0.67290    0.73360    0.23890    1.000
    Mg7      Mg       0.53590    0.74944    0.46785    1.000
    Mg8      Mg       0.41430    0.69156    0.28593    1.000
    Mg9      Mg       0.63980    0.82571    0.64569    1.000
    H53      H        0.70250    0.60880    0.46280    1.000
    C101     C        0.71160    0.56920    0.48130    1.000
    H54      H        0.90340    0.57240    0.48080    1.000
    C102     C        0.83580    0.55010    0.49410    1.000
    C103     C        0.41400    0.38310    0.01510    1.000
    C104     C        0.42060    0.44030    0.06470    1.000
    C105     C        0.35380    0.48650    0.03840    1.000
    H55      H        0.30870    0.48240    0.98940    1.000
    C106     C        0.34870    0.53990    0.08040    1.000
    H56      H        0.29860    0.57080    0.06080    1.000
    C107     C        0.41490    0.54790    0.14930    1.000
    C108     C        0.48930    0.50080    0.18070    1.000
    C109     C        0.49250    0.44610    0.13750    1.000
    C110     C        0.56740    0.40110    0.17040    1.000
    H57      H        0.57380    0.36490    0.14180    1.000
    C111     C        0.62910    0.40760    0.23990    1.000
    H58      H        0.67730    0.37610    0.25990    1.000
    C112     C        0.62300    0.46140    0.28400    1.000
    H59      H        0.66610    0.46600    0.33370    1.000
    C113     C        0.55400    0.50650    0.25370    1.000
    H60      H        0.55010    0.54260    0.28290    1.000
    C114     C        0.41180    0.60600    0.19230    1.000
    C115     C        0.52850    0.12070    0.06060    1.000
    C116     C        0.40290    0.03690    0.00750    1.000
    C117     C        0.51390    0.05790    0.02910    1.000
    C118     C        0.61090    0.02230    0.02330    1.000
    C119     C        0.73240    0.04290    0.04190    1.000
    H61      H        0.74220    0.08180    0.06290    1.000
    C120     C        0.83600    0.00850    0.03050    1.000
    H62      H        0.91020    0.02490    0.04760    1.000
    C121     C        0.20860    0.26160    0.97770    1.000
    C122     C        0.08610    0.25980    0.00950    1.000
    C123     C        0.03130    0.20800    0.02070    1.000
    H63      H        0.07320    0.17240    0.01130    1.000
    C124     C        0.91490    0.20390    0.04540    1.000
    H64      H        0.87900    0.16630    0.05160    1.000
    C125     C        0.85300    0.25480    0.06080    1.000
    C126     C        0.90640    0.31070    0.05230    1.000
    C127     C        0.02540    0.31390    0.02640    1.000
    C128     C        0.08040    0.37020    0.01940    1.000
    H65      H        0.15850    0.37280    0.00120    1.000
    C129     C        0.02090    0.42070    0.03880    1.000
    H66      H        0.05820    0.45810    0.03400    1.000
    C130     C        0.90420    0.41770    0.06590    1.000
    H67      H        0.86460    0.45290    0.08050    1.000
    C131     C        0.84860    0.36450    0.07120    1.000
    H68      H        0.76950    0.36340    0.08780    1.000
    C132     C        0.73010    0.24940    0.09110    1.000
    C133     C        0.56200    0.23780    0.87280    1.000
    H69      H        0.59840    0.20630    0.90240    1.000
    C134     C        0.35560    0.25080    0.19500    1.000
    H70      H        0.30490    0.27860    0.16820    1.000
    O43      O        0.43340    0.33580    0.05220    1.000
    O44      O        0.38450    0.38760    0.94290    1.000
    O45      O        0.50800    0.63380    0.21010    1.000
    O46      O        0.31490    0.62670    0.21350    1.000
    O47      O        0.57810    0.12680    0.12780    1.000
    O48      O        0.48650    0.16080    0.01640    1.000
    O49      O        0.28570    0.23350    0.01780    1.000
    O50      O        0.22240    0.28890    0.91420    1.000
    O51      O        0.72430    0.23070    0.16250    1.000
    O52      O        0.64530    0.26240    0.04550    1.000
    O53      O        0.48270    0.26520    0.90770    1.000
    O54      O        0.59920    0.24680    0.80390    1.000
    O55      O        0.44710    0.23500    0.15830    1.000
    O56      O        0.32710    0.23360    0.26110    1.000
    Mg10     Mg       0.46410    0.24944    0.03215    1.000
    Mg11     Mg       0.58570    0.19156    0.21407    1.000
    Mg12     Mg       0.36020    0.32571    0.85431    1.000
    H71      H        0.29750    0.10880    0.03720    1.000
    C135     C        0.28840    0.06920    0.01870    1.000
    H72      H        0.09660    0.07240    0.01920    1.000
    C136     C        0.16420    0.05010    0.00590    1.000
