data_functionalizedCrystal
_audit_creation_method	'EQeq! by Chris Wilmer'
_symmetry_space_group_name_H-M	'P1'
_symmetry_Int_Tables_number	1
_symmetry_cell_setting	triclinic
loop_
_symmetry_equiv_pos_as_xyz
  x,y,z
_cell_length_a	20.713
_cell_length_b	20.713
_cell_length_c	20.713
_cell_angle_alpha	90
_cell_angle_beta	90
_cell_angle_gamma	90
loop_
_atom_site_label
_atom_site_type_symbol
_atom_site_fract_x
_atom_site_fract_y
_atom_site_fract_z
_atom_site_charge
Mof_Zn	Zn	0.60043	0.85257	0.8266	1.239
Mof_Zn	Zn	0.44045	0.73624	0.99184	1.226
Mof_Zn	Zn	0.84851	0.88132	0.96617	1.193
Mof_H 	H 	0.61378	0.69139	0.87572	0.035
Mof_H 	H 	0.65129	0.6905	0.00181	0.057
Mof_H 	H 	0.68746	0.79784	0.00799	0.06
Mof_H 	H 	0.76559	0.79757	0.88305	0.027
Mof_C 	C 	0.6301	0.7331	0.9077	-0.013
Mof_C 	C 	0.5708	0.7658	0.9372	0.329
Mof_C 	C 	0.6776	0.7084	0.9569	-0.088
Mof_C 	C 	0.7164	0.6534	0.9259	0.415
Mof_C 	C 	0.7171	0.7681	0.9724	-0.111
Mof_C 	C 	0.7819	0.7548	0.0048	0.417
Mof_C 	C 	0.7174	0.8056	0.9084	-0.029
Mof_C 	C 	0.7066	0.8778	0.9172	0.348
Mof_O 	O 	0.6663	0.7787	0.8693	-0.265
Mof_O 	O 	0.5518	0.8173	0.9132	-0.358
Mof_O 	O 	0.5429	0.7365	0.9825	-0.412
Mof_O 	O 	0.6975	0.5986	0.9372	-0.513
Mof_O 	O 	0.762	0.6668	0.8882	-0.444
Mof_O 	O 	0.7789	0.7177	0.0514	-0.467
Mof_O 	O 	0.8317	0.7829	0.9857	-0.583
Mof_O 	O 	0.7481	0.907	0.9499	-0.553
Mof_O 	O 	0.6573	0.9043	0.8934	-0.374
Mof_O 	O 	0.5352	0.9235	0.827	-0.432
Mof_O 	O 	0.4433	0.6425	0.0232	-0.796
Mof_H 	H 	0.97492	0.4433	0.6425	0.121
Mof_H 	H 	0.0232	0.49158	0.6425	0.104
Mof_H 	H 	0.18158	0.3667	0.6333	0.135
Mof_Zn	Zn	0.8266	0.60043	0.85257	1.24
Mof_Zn	Zn	0.99184	0.44045	0.73624	1.228
Mof_Zn	Zn	0.96617	0.84851	0.88132	1.196
Mof_H 	H 	0.87572	0.61378	0.69139	0.036
Mof_H 	H 	0.00181	0.65129	0.6905	0.058
Mof_H 	H 	0.00799	0.68746	0.79784	0.06
Mof_H 	H 	0.88305	0.76559	0.79757	0.037
Mof_C 	C 	0.9077	0.6301	0.7331	-0.012
Mof_C 	C 	0.9372	0.5708	0.7658	0.33
Mof_C 	C 	0.9569	0.6776	0.7084	-0.088
Mof_C 	C 	0.9259	0.7164	0.6534	0.416
Mof_C 	C 	0.9724	0.7171	0.7681	-0.107
Mof_C 	C 	0.0048	0.7819	0.7548	0.416
Mof_C 	C 	0.9084	0.7174	0.8056	-0.031
Mof_C 	C 	0.9172	0.7066	0.8778	0.349
Mof_O 	O 	0.8693	0.6663	0.7787	-0.264
Mof_O 	O 	0.9132	0.5518	0.8173	-0.358
Mof_O 	O 	0.9825	0.5429	0.7365	-0.412
Mof_O 	O 	0.9372	0.6975	0.5986	-0.513
Mof_O 	O 	0.8882	0.762	0.6668	-0.443
Mof_O 	O 	0.0514	0.7789	0.7177	-0.467
Mof_O 	O 	0.9857	0.8317	0.7829	-0.574
Mof_O 	O 	0.9499	0.7481	0.907	-0.552
Mof_O 	O 	0.8934	0.6573	0.9043	-0.375
Mof_O 	O 	0.827	0.5352	0.9235	-0.432
Mof_O 	O 	0.0232	0.4433	0.6425	-0.791
Mof_H 	H 	0.6425	0.97492	0.4433	0.122
Mof_H 	H 	0.6425	0.0232	0.49158	0.105
Mof_H 	H 	0.6333	0.18158	0.3667	0.135
Mof_Zn	Zn	0.85257	0.8266	0.60043	1.24
Mof_Zn	Zn	0.73624	0.99184	0.44045	1.227
Mof_Zn	Zn	0.88132	0.96617	0.84851	1.199
Mof_H 	H 	0.69139	0.87572	0.61378	0.036
Mof_H 	H 	0.6905	0.00181	0.65129	0.058
Mof_H 	H 	0.79784	0.00799	0.68746	0.061
Mof_H 	H 	0.79757	0.88305	0.76559	0.042
Mof_C 	C 	0.7331	0.9077	0.6301	-0.012
Mof_C 	C 	0.7658	0.9372	0.5708	0.33
Mof_C 	C 	0.7084	0.9569	0.6776	-0.088
Mof_C 	C 	0.6534	0.9259	0.7164	0.416
Mof_C 	C 	0.7681	0.9724	0.7171	-0.108
Mof_C 	C 	0.7548	0.0048	0.7819	0.417
Mof_C 	C 	0.8056	0.9084	0.7174	-0.029
Mof_C 	C 	0.8778	0.9172	0.7066	0.356
Mof_O 	O 	0.7787	0.8693	0.6663	-0.264
Mof_O 	O 	0.8173	0.9132	0.5518	-0.358
Mof_O 	O 	0.7365	0.9825	0.5429	-0.412
Mof_O 	O 	0.5986	0.9372	0.6975	-0.513
Mof_O 	O 	0.6668	0.8882	0.762	-0.444
Mof_O 	O 	0.7177	0.0514	0.7789	-0.467
Mof_O 	O 	0.7829	0.9857	0.8317	-0.579
Mof_O 	O 	0.907	0.9499	0.7481	-0.545
Mof_O 	O 	0.9043	0.8934	0.6573	-0.375
Mof_O 	O 	0.9235	0.827	0.5352	-0.432
Mof_O 	O 	0.6425	0.0232	0.4433	-0.795
Mof_H 	H 	0.4433	0.6425	0.97492	0.122
Mof_H 	H 	0.49158	0.6425	0.0232	0.105
Mof_O 	O 	0.8667	0.8667	0.8667	-0.758
Mof_Zn	Zn	0.89957	0.14743	0.3266	1.239
Mof_Zn	Zn	0.05955	0.26376	0.49184	1.227
Mof_Zn	Zn	0.65149	0.11868	0.46617	1.193
Mof_H 	H 	0.88622	0.30861	0.37572	0.036
Mof_H 	H 	0.84871	0.3095	0.50181	0.059
Mof_H 	H 	0.81254	0.20216	0.50799	0.065
Mof_H 	H 	0.73441	0.20243	0.38305	0.028
Mof_C 	C 	0.8699	0.2669	0.4077	-0.012
Mof_C 	C 	0.9292	0.2342	0.4372	0.329
Mof_C 	C 	0.8224	0.2916	0.4569	-0.088
Mof_C 	C 	0.7836	0.3466	0.4259	0.416
Mof_C 	C 	0.7829	0.2319	0.4724	-0.119
Mof_C 	C 	0.7181	0.2452	0.5048	0.429
Mof_C 	C 	0.7826	0.1944	0.4084	-0.026
Mof_C 	C 	0.7934	0.1222	0.4172	0.347
Mof_O 	O 	0.8337	0.2213	0.3693	-0.265
Mof_O 	O 	0.9482	0.1827	0.4132	-0.359
Mof_O 	O 	0.9571	0.2635	0.4825	-0.414
Mof_O 	O 	0.8025	0.4014	0.4372	-0.514
Mof_O 	O 	0.738	0.3332	0.3882	-0.445
Mof_O 	O 	0.7211	0.2823	0.5514	-0.469
Mof_O 	O 	0.6683	0.2171	0.4857	-0.589
Mof_O 	O 	0.7519	0.093	0.4499	-0.555
Mof_O 	O 	0.8427	0.0957	0.3934	-0.376
Mof_O 	O 	0.9648	0.0765	0.327	-0.435
Mof_O 	O 	0.0567	0.3575	0.5232	-0.796
Mof_H 	H 	0.52508	0.5567	0.1425	0.121
Mof_H 	H 	0.4768	0.50842	0.1425	0.104
Mof_H 	H 	0.31842	0.6333	0.1333	0.135
Mof_Zn	Zn	0.6734	0.39957	0.35257	1.239
Mof_Zn	Zn	0.50816	0.55955	0.23624	1.228
Mof_Zn	Zn	0.53383	0.15149	0.38132	1.196
Mof_H 	H 	0.62428	0.38622	0.19139	0.036
Mof_H 	H 	0.49819	0.34871	0.1905	0.06
Mof_H 	H 	0.49201	0.31254	0.29784	0.065
Mof_H 	H 	0.61695	0.23441	0.29757	0.037
Mof_C 	C 	0.5923	0.3699	0.2331	-0.012
Mof_C 	C 	0.5628	0.4292	0.2658	0.329
Mof_C 	C 	0.5431	0.3224	0.2084	-0.088
Mof_C 	C 	0.5741	0.2836	0.1534	0.415
Mof_C 	C 	0.5276	0.2829	0.2681	-0.116
Mof_C 	C 	0.4952	0.2181	0.2548	0.427
Mof_C 	C 	0.5916	0.2826	0.3056	-0.029
Mof_C 	C 	0.5828	0.2934	0.3778	0.348
Mof_O 	O 	0.6307	0.3337	0.2787	-0.264
Mof_O 	O 	0.5868	0.4482	0.3173	-0.358
Mof_O 	O 	0.5175	0.4571	0.2365	-0.413
Mof_O 	O 	0.5628	0.3025	0.0986	-0.514
Mof_O 	O 	0.6118	0.238	0.1668	-0.443
Mof_O 	O 	0.4486	0.2211	0.2177	-0.469
Mof_O 	O 	0.5143	0.1683	0.2829	-0.58
Mof_O 	O 	0.5501	0.2519	0.407	-0.554
Mof_O 	O 	0.6066	0.3427	0.4043	-0.376
Mof_O 	O 	0.673	0.4648	0.4235	-0.433
Mof_O 	O 	0.4768	0.5567	0.1425	-0.79
Mof_H 	H 	0.8575	0.02508	0.9433	0.117
Mof_H 	H 	0.8575	0.9768	0.99158	0.107
Mof_H 	H 	0.8667	0.81842	0.8667	0.135
Mof_Zn	Zn	0.64743	0.1734	0.10043	1.24
Mof_Zn	Zn	0.76376	0.00816	0.94045	1.225
Mof_Zn	Zn	0.61868	0.03383	0.34851	1.199
Mof_H 	H 	0.80861	0.12428	0.11378	0.036
Mof_H 	H 	0.8095	0.99819	0.15129	0.059
Mof_H 	H 	0.70216	0.99201	0.18746	0.064
Mof_H 	H 	0.70243	0.11695	0.26559	0.042
Mof_C 	C 	0.7669	0.0923	0.1301	-0.012
Mof_C 	C 	0.7342	0.0628	0.0708	0.33
Mof_C 	C 	0.7916	0.0431	0.1776	-0.088
Mof_C 	C 	0.8466	0.0741	0.2164	0.416
Mof_C 	C 	0.7319	0.0276	0.2171	-0.116
Mof_C 	C 	0.7452	0.9952	0.2819	0.428
Mof_C 	C 	0.6944	0.0916	0.2174	-0.027
Mof_C 	C 	0.6222	0.0828	0.2066	0.356
Mof_O 	O 	0.7213	0.1307	0.1663	-0.264
Mof_O 	O 	0.6827	0.0868	0.0518	-0.358
Mof_O 	O 	0.7635	0.0175	0.0429	-0.413
Mof_O 	O 	0.9014	0.0628	0.1975	-0.515
Mof_O 	O 	0.8332	0.1118	0.262	-0.445
Mof_O 	O 	0.7823	0.9486	0.2789	-0.469
Mof_O 	O 	0.7171	0.0143	0.3317	-0.586
Mof_O 	O 	0.593	0.0501	0.2481	-0.546
Mof_O 	O 	0.5957	0.1066	0.1573	-0.376
Mof_O 	O 	0.5765	0.173	0.0352	-0.432
Mof_O 	O 	0.8575	0.9768	0.9433	-0.79
Mof_H 	H 	0.0567	0.3575	0.47492	0.122
Mof_H 	H 	0.00842	0.3575	0.5232	0.106
Mof_O 	O 	0.6333	0.1333	0.3667	-0.758
Mof_Zn	Zn	0.39957	0.35257	0.6734	1.24
Mof_Zn	Zn	0.55955	0.23624	0.50816	1.227
Mof_Zn	Zn	0.15149	0.38132	0.53383	1.193
Mof_H 	H 	0.38622	0.19139	0.62428	0.036
Mof_H 	H 	0.34871	0.1905	0.49819	0.06
Mof_H 	H 	0.31254	0.29784	0.49201	0.065
Mof_H 	H 	0.23441	0.29757	0.61695	0.028
Mof_C 	C 	0.3699	0.2331	0.5923	-0.012
Mof_C 	C 	0.4292	0.2658	0.5628	0.329
Mof_C 	C 	0.3224	0.2084	0.5431	-0.088
Mof_C 	C 	0.2836	0.1534	0.5741	0.416
Mof_C 	C 	0.2829	0.2681	0.5276	-0.119
Mof_C 	C 	0.2181	0.2548	0.4952	0.429
Mof_C 	C 	0.2826	0.3056	0.5916	-0.026
Mof_C 	C 	0.2934	0.3778	0.5828	0.347
Mof_O 	O 	0.3337	0.2787	0.6307	-0.265
Mof_O 	O 	0.4482	0.3173	0.5868	-0.358
Mof_O 	O 	0.4571	0.2365	0.5175	-0.413
Mof_O 	O 	0.3025	0.0986	0.5628	-0.514
Mof_O 	O 	0.238	0.1668	0.6118	-0.445
Mof_O 	O 	0.2211	0.2177	0.4486	-0.469
Mof_O 	O 	0.1683	0.2829	0.5143	-0.589
Mof_O 	O 	0.2519	0.407	0.5501	-0.554
Mof_O 	O 	0.3427	0.4043	0.6066	-0.375
Mof_O 	O 	0.4648	0.4235	0.673	-0.433
Mof_O 	O 	0.5567	0.1425	0.4768	-0.796
Mof_H 	H 	0.02508	0.9433	0.8575	0.116
Mof_H 	H 	0.9768	0.99158	0.8575	0.107
Mof_H 	H 	0.81842	0.8667	0.8667	0.135
Mof_Zn	Zn	0.1734	0.10043	0.64743	1.24
Mof_Zn	Zn	0.00816	0.94045	0.76376	1.226
Mof_Zn	Zn	0.03383	0.34851	0.61868	1.196
Mof_H 	H 	0.12428	0.11378	0.80861	0.036
Mof_H 	H 	0.99819	0.15129	0.8095	0.059
Mof_H 	H 	0.99201	0.18746	0.70216	0.064
Mof_H 	H 	0.11695	0.26559	0.70243	0.037
Mof_C 	C 	0.0923	0.1301	0.7669	-0.012
Mof_C 	C 	0.0628	0.0708	0.7342	0.33
Mof_C 	C 	0.0431	0.1776	0.7916	-0.088
Mof_C 	C 	0.0741	0.2164	0.8466	0.415
Mof_C 	C 	0.0276	0.2171	0.7319	-0.115
Mof_C 	C 	0.9952	0.2819	0.7452	0.427
Mof_C 	C 	0.0916	0.2174	0.6944	-0.029
Mof_C 	C 	0.0828	0.2066	0.6222	0.348
Mof_O 	O 	0.1307	0.1663	0.7213	-0.264
Mof_O 	O 	0.0868	0.0518	0.6827	-0.357
Mof_O 	O 	0.0175	0.0429	0.7635	-0.413
Mof_O 	O 	0.0628	0.1975	0.9014	-0.515
Mof_O 	O 	0.1118	0.262	0.8332	-0.443
Mof_O 	O 	0.9486	0.2789	0.7823	-0.469
Mof_O 	O 	0.0143	0.3317	0.7171	-0.581
Mof_O 	O 	0.0501	0.2481	0.593	-0.554
Mof_O 	O 	0.1066	0.1573	0.5957	-0.376
Mof_O 	O 	0.173	0.0352	0.5765	-0.432
Mof_O 	O 	0.9768	0.9433	0.8575	-0.785
Mof_H 	H 	0.3575	0.47492	0.0567	0.122
Mof_H 	H 	0.3575	0.5232	0.00842	0.106
Mof_H 	H 	0.3667	0.68158	0.1333	0.135
Mof_Zn	Zn	0.14743	0.3266	0.89957	1.239
Mof_Zn	Zn	0.26376	0.49184	0.05955	1.227
Mof_Zn	Zn	0.11868	0.46617	0.65149	1.199
Mof_H 	H 	0.30861	0.37572	0.88622	0.036
Mof_H 	H 	0.3095	0.50181	0.84871	0.06
Mof_H 	H 	0.20216	0.50799	0.81254	0.065
Mof_H 	H 	0.20243	0.38305	0.73441	0.042
Mof_C 	C 	0.2669	0.4077	0.8699	-0.013
Mof_C 	C 	0.2342	0.4372	0.9292	0.33
Mof_C 	C 	0.2916	0.4569	0.8224	-0.088
Mof_C 	C 	0.3466	0.4259	0.7836	0.416
Mof_C 	C 	0.2319	0.4724	0.7829	-0.117
Mof_C 	C 	0.2452	0.5048	0.7181	0.428
Mof_C 	C 	0.1944	0.4084	0.7826	-0.027
Mof_C 	C 	0.1222	0.4172	0.7934	0.356
Mof_O 	O 	0.2213	0.3693	0.8337	-0.264
Mof_O 	O 	0.1827	0.4132	0.9482	-0.359
Mof_O 	O 	0.2635	0.4825	0.9571	-0.414
Mof_O 	O 	0.4014	0.4372	0.8025	-0.514
Mof_O 	O 	0.3332	0.3882	0.738	-0.445
Mof_O 	O 	0.2823	0.5514	0.7211	-0.469
Mof_O 	O 	0.2171	0.4857	0.6683	-0.585
Mof_O 	O 	0.093	0.4499	0.7519	-0.547
Mof_O 	O 	0.0957	0.3934	0.8427	-0.377
Mof_O 	O 	0.0765	0.327	0.9648	-0.435
Mof_O 	O 	0.3575	0.5232	0.0567	-0.795
Mof_H 	H 	0.5567	0.1425	0.52508	0.122
Mof_H 	H 	0.50842	0.1425	0.4768	0.105
Mof_O 	O 	0.1333	0.3667	0.6333	-0.758
Mof_Zn	Zn	0.10043	0.64743	0.1734	1.24
Mof_Zn	Zn	0.94045	0.76376	0.00816	1.225
Mof_Zn	Zn	0.34851	0.61868	0.03383	1.193
Mof_H 	H 	0.11378	0.80861	0.12428	0.036
Mof_H 	H 	0.15129	0.8095	0.99819	0.059
Mof_H 	H 	0.18746	0.70216	0.99201	0.064
Mof_H 	H 	0.26559	0.70243	0.11695	0.028
Mof_C 	C 	0.1301	0.7669	0.0923	-0.012
Mof_C 	C 	0.0708	0.7342	0.0628	0.33
Mof_C 	C 	0.1776	0.7916	0.0431	-0.088
Mof_C 	C 	0.2164	0.8466	0.0741	0.416
Mof_C 	C 	0.2171	0.7319	0.0276	-0.118
Mof_C 	C 	0.2819	0.7452	0.9952	0.429
Mof_C 	C 	0.2174	0.6944	0.0916	-0.026
Mof_C 	C 	0.2066	0.6222	0.0828	0.347
Mof_O 	O 	0.1663	0.7213	0.1307	-0.265
Mof_O 	O 	0.0518	0.6827	0.0868	-0.357
Mof_O 	O 	0.0429	0.7635	0.0175	-0.413
Mof_O 	O 	0.1975	0.9014	0.0628	-0.515
Mof_O 	O 	0.262	0.8332	0.1118	-0.445
Mof_O 	O 	0.2789	0.7823	0.9486	-0.469
Mof_O 	O 	0.3317	0.7171	0.0143	-0.59
Mof_O 	O 	0.2481	0.593	0.0501	-0.554
Mof_O 	O 	0.1573	0.5957	0.1066	-0.375
Mof_O 	O 	0.0352	0.5765	0.173	-0.432
Mof_O 	O 	0.9433	0.8575	0.9768	-0.791
Mof_H 	H 	0.47492	0.0567	0.3575	0.121
Mof_H 	H 	0.5232	0.00842	0.3575	0.105
Mof_H 	H 	0.68158	0.1333	0.3667	0.135
Mof_Zn	Zn	0.3266	0.89957	0.14743	1.239
Mof_Zn	Zn	0.49184	0.05955	0.26376	1.228
Mof_Zn	Zn	0.46617	0.65149	0.11868	1.196
Mof_H 	H 	0.37572	0.88622	0.30861	0.036
Mof_H 	H 	0.50181	0.84871	0.3095	0.06
Mof_H 	H 	0.50799	0.81254	0.20216	0.064
Mof_H 	H 	0.38305	0.73441	0.20243	0.037
Mof_C 	C 	0.4077	0.8699	0.2669	-0.012
Mof_C 	C 	0.4372	0.9292	0.2342	0.329
Mof_C 	C 	0.4569	0.8224	0.2916	-0.088
Mof_C 	C 	0.4259	0.7836	0.3466	0.415
Mof_C 	C 	0.4724	0.7829	0.2319	-0.116
Mof_C 	C 	0.5048	0.7181	0.2452	0.426
Mof_C 	C 	0.4084	0.7826	0.1944	-0.029
Mof_C 	C 	0.4172	0.7934	0.1222	0.348
Mof_O 	O 	0.3693	0.8337	0.2213	-0.264
Mof_O 	O 	0.4132	0.9482	0.1827	-0.359
Mof_O 	O 	0.4825	0.9571	0.2635	-0.414
Mof_O 	O 	0.4372	0.8025	0.4014	-0.514
Mof_O 	O 	0.3882	0.738	0.3332	-0.443
Mof_O 	O 	0.5514	0.7211	0.2823	-0.469
Mof_O 	O 	0.4857	0.6683	0.2171	-0.58
Mof_O 	O 	0.4499	0.7519	0.093	-0.555
Mof_O 	O 	0.3934	0.8427	0.0957	-0.377
Mof_O 	O 	0.327	0.9648	0.0765	-0.435
Mof_O 	O 	0.5232	0.0567	0.3575	-0.79
Mof_H 	H 	0.1425	0.52508	0.5567	0.122
Mof_H 	H 	0.1425	0.4768	0.50842	0.105
Mof_H 	H 	0.1333	0.31842	0.6333	0.135
Mof_Zn	Zn	0.35257	0.6734	0.39957	1.24
Mof_Zn	Zn	0.23624	0.50816	0.55955	1.227
Mof_Zn	Zn	0.38132	0.53383	0.15149	1.199
Mof_H 	H 	0.19139	0.62428	0.38622	0.036
Mof_H 	H 	0.1905	0.49819	0.34871	0.06
Mof_H 	H 	0.29784	0.49201	0.31254	0.065
Mof_H 	H 	0.29757	0.61695	0.23441	0.042
Mof_C 	C 	0.2331	0.5923	0.3699	-0.012
Mof_C 	C 	0.2658	0.5628	0.4292	0.329
Mof_C 	C 	0.2084	0.5431	0.3224	-0.088
Mof_C 	C 	0.1534	0.5741	0.2836	0.416
Mof_C 	C 	0.2681	0.5276	0.2829	-0.117
Mof_C 	C 	0.2548	0.4952	0.2181	0.428
Mof_C 	C 	0.3056	0.5916	0.2826	-0.027
Mof_C 	C 	0.3778	0.5828	0.2934	0.356
Mof_O 	O 	0.2787	0.6307	0.3337	-0.264
Mof_O 	O 	0.3173	0.5868	0.4482	-0.358
Mof_O 	O 	0.2365	0.5175	0.4571	-0.413
Mof_O 	O 	0.0986	0.5628	0.3025	-0.514
Mof_O 	O 	0.1668	0.6118	0.238	-0.445
Mof_O 	O 	0.2177	0.4486	0.2211	-0.469
Mof_O 	O 	0.2829	0.5143	0.1683	-0.585
Mof_O 	O 	0.407	0.5501	0.2519	-0.547
Mof_O 	O 	0.4043	0.6066	0.3427	-0.376
Mof_O 	O 	0.4235	0.673	0.4648	-0.433
Mof_O 	O 	0.1425	0.4768	0.5567	-0.795
Mof_H 	H 	0.9433	0.8575	0.02508	0.117
Mof_H 	H 	0.99158	0.8575	0.9768	0.107
Mof_O 	O 	0.3667	0.6333	0.1333	-0.758
Mof_Zn	Zn	0.39957	0.14743	0.1734	1.24
Mof_Zn	Zn	0.55955	0.26376	0.00816	1.227
Mof_Zn	Zn	0.15149	0.11868	0.03383	1.194
Mof_H 	H 	0.38622	0.30861	0.12428	0.036
Mof_H 	H 	0.34871	0.3095	0.99819	0.058
Mof_H 	H 	0.31254	0.20216	0.99201	0.061
Mof_H 	H 	0.23441	0.20243	0.11695	0.028
Mof_C 	C 	0.3699	0.2669	0.0923	-0.012
Mof_C 	C 	0.4292	0.2342	0.0628	0.33
Mof_C 	C 	0.3224	0.2916	0.0431	-0.087
Mof_C 	C 	0.2836	0.3466	0.0741	0.416
Mof_C 	C 	0.2829	0.2319	0.0276	-0.11
Mof_C 	C 	0.2181	0.2452	0.9952	0.418
Mof_C 	C 	0.2826	0.1944	0.0916	-0.028
Mof_C 	C 	0.2934	0.1222	0.0828	0.348
Mof_O 	O 	0.3337	0.2213	0.1307	-0.265
Mof_O 	O 	0.4482	0.1827	0.0868	-0.358
Mof_O 	O 	0.4571	0.2635	0.0175	-0.412
Mof_O 	O 	0.3025	0.4014	0.0628	-0.513
Mof_O 	O 	0.238	0.3332	0.1118	-0.444
Mof_O 	O 	0.2211	0.2823	0.9486	-0.467
Mof_O 	O 	0.1683	0.2171	0.0143	-0.583
Mof_O 	O 	0.2519	0.093	0.0501	-0.553
Mof_O 	O 	0.3427	0.0957	0.1066	-0.374
Mof_O 	O 	0.4648	0.0765	0.173	-0.432
Mof_O 	O 	0.5567	0.3575	0.9768	-0.796
Mof_H 	H 	0.02508	0.5567	0.3575	0.121
Mof_H 	H 	0.9768	0.50842	0.3575	0.104
Mof_H 	H 	0.81842	0.6333	0.3667	0.135
Mof_Zn	Zn	0.1734	0.39957	0.14743	1.24
Mof_Zn	Zn	0.00816	0.55955	0.26376	1.228
Mof_Zn	Zn	0.03383	0.15149	0.11868	1.196
Mof_H 	H 	0.12428	0.38622	0.30861	0.036
Mof_H 	H 	0.99819	0.34871	0.3095	0.058
Mof_H 	H 	0.99201	0.31254	0.20216	0.06
Mof_H 	H 	0.11695	0.23441	0.20243	0.037
Mof_C 	C 	0.0923	0.3699	0.2669	-0.012
Mof_C 	C 	0.0628	0.4292	0.2342	0.33
Mof_C 	C 	0.0431	0.3224	0.2916	-0.088
Mof_C 	C 	0.0741	0.2836	0.3466	0.416
Mof_C 	C 	0.0276	0.2829	0.2319	-0.107
Mof_C 	C 	0.9952	0.2181	0.2452	0.416
Mof_C 	C 	0.0916	0.2826	0.1944	-0.031
Mof_C 	C 	0.0828	0.2934	0.1222	0.349
Mof_O 	O 	0.1307	0.3337	0.2213	-0.264
Mof_O 	O 	0.0868	0.4482	0.1827	-0.358
Mof_O 	O 	0.0175	0.4571	0.2635	-0.412
Mof_O 	O 	0.0628	0.3025	0.4014	-0.513
Mof_O 	O 	0.1118	0.238	0.3332	-0.443
Mof_O 	O 	0.9486	0.2211	0.2823	-0.467
Mof_O 	O 	0.0143	0.1683	0.2171	-0.574
Mof_O 	O 	0.0501	0.2519	0.093	-0.552
Mof_O 	O 	0.1066	0.3427	0.0957	-0.375
Mof_O 	O 	0.173	0.4648	0.0765	-0.432
Mof_O 	O 	0.9768	0.5567	0.3575	-0.791
Mof_H 	H 	0.3575	0.02508	0.5567	0.122
Mof_H 	H 	0.3575	0.9768	0.50842	0.105
Mof_H 	H 	0.3667	0.81842	0.6333	0.135
Mof_Zn	Zn	0.14743	0.1734	0.39957	1.24
Mof_Zn	Zn	0.26376	0.00816	0.55955	1.227
Mof_Zn	Zn	0.11868	0.03383	0.15149	1.199
Mof_H 	H 	0.30861	0.12428	0.38622	0.036
Mof_H 	H 	0.3095	0.99819	0.34871	0.058
Mof_H 	H 	0.20216	0.99201	0.31254	0.061
Mof_H 	H 	0.20243	0.11695	0.23441	0.042
Mof_C 	C 	0.2669	0.0923	0.3699	-0.012
Mof_C 	C 	0.2342	0.0628	0.4292	0.33
Mof_C 	C 	0.2916	0.0431	0.3224	-0.088
Mof_C 	C 	0.3466	0.0741	0.2836	0.416
Mof_C 	C 	0.2319	0.0276	0.2829	-0.108
Mof_C 	C 	0.2452	0.9952	0.2181	0.417
Mof_C 	C 	0.1944	0.0916	0.2826	-0.029
Mof_C 	C 	0.1222	0.0828	0.2934	0.356
Mof_O 	O 	0.2213	0.1307	0.3337	-0.264
Mof_O 	O 	0.1827	0.0868	0.4482	-0.358
Mof_O 	O 	0.2635	0.0175	0.4571	-0.412
Mof_O 	O 	0.4014	0.0628	0.3025	-0.513
Mof_O 	O 	0.3332	0.1118	0.238	-0.444
Mof_O 	O 	0.2823	0.9486	0.2211	-0.467
Mof_O 	O 	0.2171	0.0143	0.1683	-0.579
Mof_O 	O 	0.093	0.0501	0.2519	-0.545
Mof_O 	O 	0.0957	0.1066	0.3427	-0.375
Mof_O 	O 	0.0765	0.173	0.4648	-0.432
Mof_O 	O 	0.3575	0.9768	0.5567	-0.795
Mof_H 	H 	0.5567	0.3575	0.02508	0.122
Mof_H 	H 	0.50842	0.3575	0.9768	0.105
Mof_O 	O 	0.1333	0.1333	0.1333	-0.758
Mof_Zn	Zn	0.10043	0.85257	0.6734	1.239
Mof_Zn	Zn	0.94045	0.73624	0.50816	1.227
Mof_Zn	Zn	0.34851	0.88132	0.53383	1.193
Mof_H 	H 	0.11378	0.69139	0.62428	0.036
Mof_H 	H 	0.15129	0.6905	0.49819	0.059
Mof_H 	H 	0.18746	0.79784	0.49201	0.065
Mof_H 	H 	0.26559	0.79757	0.61695	0.028
Mof_C 	C 	0.1301	0.7331	0.5923	-0.012
Mof_C 	C 	0.0708	0.7658	0.5628	0.329
Mof_C 	C 	0.1776	0.7084	0.5431	-0.088
Mof_C 	C 	0.2164	0.6534	0.5741	0.416
Mof_C 	C 	0.2171	0.7681	0.5276	-0.119
Mof_C 	C 	0.2819	0.7548	0.4952	0.429
Mof_C 	C 	0.2174	0.8056	0.5916	-0.026
Mof_C 	C 	0.2066	0.8778	0.5828	0.347
Mof_O 	O 	0.1663	0.7787	0.6307	-0.265
Mof_O 	O 	0.0518	0.8173	0.5868	-0.359
Mof_O 	O 	0.0429	0.7365	0.5175	-0.414
Mof_O 	O 	0.1975	0.5986	0.5628	-0.514
Mof_O 	O 	0.262	0.6668	0.6118	-0.445
Mof_O 	O 	0.2789	0.7177	0.4486	-0.469
Mof_O 	O 	0.3317	0.7829	0.5143	-0.589
Mof_O 	O 	0.2481	0.907	0.5501	-0.555
Mof_O 	O 	0.1573	0.9043	0.6066	-0.376
Mof_O 	O 	0.0352	0.9235	0.673	-0.435
Mof_O 	O 	0.9433	0.6425	0.4768	-0.796
Mof_H 	H 	0.47492	0.4433	0.8575	0.121
Mof_H 	H 	0.5232	0.49158	0.8575	0.104
Mof_H 	H 	0.68158	0.3667	0.8667	0.135
Mof_Zn	Zn	0.3266	0.60043	0.64743	1.239
Mof_Zn	Zn	0.49184	0.44045	0.76376	1.228
Mof_Zn	Zn	0.46617	0.84851	0.61868	1.196
Mof_H 	H 	0.37572	0.61378	0.80861	0.036
Mof_H 	H 	0.50181	0.65129	0.8095	0.06
Mof_H 	H 	0.50799	0.68746	0.70216	0.065
Mof_H 	H 	0.38305	0.76559	0.70243	0.037
Mof_C 	C 	0.4077	0.6301	0.7669	-0.012
Mof_C 	C 	0.4372	0.5708	0.7342	0.329
Mof_C 	C 	0.4569	0.6776	0.7916	-0.088
Mof_C 	C 	0.4259	0.7164	0.8466	0.415
Mof_C 	C 	0.4724	0.7171	0.7319	-0.116
Mof_C 	C 	0.5048	0.7819	0.7452	0.427
Mof_C 	C 	0.4084	0.7174	0.6944	-0.029
Mof_C 	C 	0.4172	0.7066	0.6222	0.348
Mof_O 	O 	0.3693	0.6663	0.7213	-0.264
Mof_O 	O 	0.4132	0.5518	0.6827	-0.358
Mof_O 	O 	0.4825	0.5429	0.7635	-0.413
Mof_O 	O 	0.4372	0.6975	0.9014	-0.514
Mof_O 	O 	0.3882	0.762	0.8332	-0.443
Mof_O 	O 	0.5514	0.7789	0.7823	-0.469
Mof_O 	O 	0.4857	0.8317	0.7171	-0.58
Mof_O 	O 	0.4499	0.7481	0.593	-0.554
Mof_O 	O 	0.3934	0.6573	0.5957	-0.376
Mof_O 	O 	0.327	0.5352	0.5765	-0.433
Mof_O 	O 	0.5232	0.4433	0.8575	-0.79
Mof_H 	H 	0.1425	0.97492	0.0567	0.117
Mof_H 	H 	0.1425	0.0232	0.00842	0.107
Mof_H 	H 	0.1333	0.18158	0.1333	0.135
Mof_Zn	Zn	0.35257	0.8266	0.89957	1.24
Mof_Zn	Zn	0.23624	0.99184	0.05955	1.225
Mof_Zn	Zn	0.38132	0.96617	0.65149	1.199
Mof_H 	H 	0.19139	0.87572	0.88622	0.036
Mof_H 	H 	0.1905	0.00181	0.84871	0.059
Mof_H 	H 	0.29784	0.00799	0.81254	0.064
Mof_H 	H 	0.29757	0.88305	0.73441	0.042
Mof_C 	C 	0.2331	0.9077	0.8699	-0.012
Mof_C 	C 	0.2658	0.9372	0.9292	0.33
Mof_C 	C 	0.2084	0.9569	0.8224	-0.088
Mof_C 	C 	0.1534	0.9259	0.7836	0.416
Mof_C 	C 	0.2681	0.9724	0.7829	-0.116
Mof_C 	C 	0.2548	0.0048	0.7181	0.428
Mof_C 	C 	0.3056	0.9084	0.7826	-0.027
Mof_C 	C 	0.3778	0.9172	0.7934	0.356
Mof_O 	O 	0.2787	0.8693	0.8337	-0.264
Mof_O 	O 	0.3173	0.9132	0.9482	-0.358
Mof_O 	O 	0.2365	0.9825	0.9571	-0.413
Mof_O 	O 	0.0986	0.9372	0.8025	-0.515
Mof_O 	O 	0.1668	0.8882	0.738	-0.445
Mof_O 	O 	0.2177	0.0514	0.7211	-0.469
Mof_O 	O 	0.2829	0.9857	0.6683	-0.586
Mof_O 	O 	0.407	0.9499	0.7519	-0.546
Mof_O 	O 	0.4043	0.8934	0.8427	-0.376
Mof_O 	O 	0.4235	0.827	0.9648	-0.432
Mof_O 	O 	0.1425	0.0232	0.0567	-0.79
Mof_H 	H 	0.9433	0.6425	0.52508	0.122
Mof_H 	H 	0.99158	0.6425	0.4768	0.106
Mof_O 	O 	0.3667	0.8667	0.6333	-0.758
Mof_Zn	Zn	0.60043	0.64743	0.3266	1.24
Mof_Zn	Zn	0.44045	0.76376	0.49184	1.227
Mof_Zn	Zn	0.84851	0.61868	0.46617	1.193
Mof_H 	H 	0.61378	0.80861	0.37572	0.036
Mof_H 	H 	0.65129	0.8095	0.50181	0.06
Mof_H 	H 	0.68746	0.70216	0.50799	0.065
Mof_H 	H 	0.76559	0.70243	0.38305	0.028
Mof_C 	C 	0.6301	0.7669	0.4077	-0.012
Mof_C 	C 	0.5708	0.7342	0.4372	0.329
Mof_C 	C 	0.6776	0.7916	0.4569	-0.088
Mof_C 	C 	0.7164	0.8466	0.4259	0.416
Mof_C 	C 	0.7171	0.7319	0.4724	-0.119
Mof_C 	C 	0.7819	0.7452	0.5048	0.429
Mof_C 	C 	0.7174	0.6944	0.4084	-0.026
Mof_C 	C 	0.7066	0.6222	0.4172	0.347
Mof_O 	O 	0.6663	0.7213	0.3693	-0.265
Mof_O 	O 	0.5518	0.6827	0.4132	-0.358
Mof_O 	O 	0.5429	0.7635	0.4825	-0.413
Mof_O 	O 	0.6975	0.9014	0.4372	-0.514
Mof_O 	O 	0.762	0.8332	0.3882	-0.445
Mof_O 	O 	0.7789	0.7823	0.5514	-0.469
Mof_O 	O 	0.8317	0.7171	0.4857	-0.589
Mof_O 	O 	0.7481	0.593	0.4499	-0.554
Mof_O 	O 	0.6573	0.5957	0.3934	-0.375
Mof_O 	O 	0.5352	0.5765	0.327	-0.433
Mof_O 	O 	0.4433	0.8575	0.5232	-0.796
Mof_H 	H 	0.97492	0.0567	0.1425	0.116
Mof_H 	H 	0.0232	0.00842	0.1425	0.107
Mof_H 	H 	0.18158	0.1333	0.1333	0.135
Mof_Zn	Zn	0.8266	0.89957	0.35257	1.24
Mof_Zn	Zn	0.99184	0.05955	0.23624	1.226
Mof_Zn	Zn	0.96617	0.65149	0.38132	1.196
Mof_H 	H 	0.87572	0.88622	0.19139	0.036
Mof_H 	H 	0.00181	0.84871	0.1905	0.059
Mof_H 	H 	0.00799	0.81254	0.29784	0.064
Mof_H 	H 	0.88305	0.73441	0.29757	0.037
Mof_C 	C 	0.9077	0.8699	0.2331	-0.012
Mof_C 	C 	0.9372	0.9292	0.2658	0.33
Mof_C 	C 	0.9569	0.8224	0.2084	-0.088
Mof_C 	C 	0.9259	0.7836	0.1534	0.415
Mof_C 	C 	0.9724	0.7829	0.2681	-0.115
Mof_C 	C 	0.0048	0.7181	0.2548	0.427
Mof_C 	C 	0.9084	0.7826	0.3056	-0.029
Mof_C 	C 	0.9172	0.7934	0.3778	0.348
Mof_O 	O 	0.8693	0.8337	0.2787	-0.264
Mof_O 	O 	0.9132	0.9482	0.3173	-0.357
Mof_O 	O 	0.9825	0.9571	0.2365	-0.413
Mof_O 	O 	0.9372	0.8025	0.0986	-0.515
Mof_O 	O 	0.8882	0.738	0.1668	-0.443
Mof_O 	O 	0.0514	0.7211	0.2177	-0.469
Mof_O 	O 	0.9857	0.6683	0.2829	-0.581
Mof_O 	O 	0.9499	0.7519	0.407	-0.554
Mof_O 	O 	0.8934	0.8427	0.4043	-0.376
Mof_O 	O 	0.827	0.9648	0.4235	-0.432
Mof_O 	O 	0.0232	0.0567	0.1425	-0.785
Mof_H 	H 	0.6425	0.52508	0.9433	0.122
Mof_H 	H 	0.6425	0.4768	0.99158	0.106
Mof_H 	H 	0.6333	0.31842	0.8667	0.135
Mof_Zn	Zn	0.85257	0.6734	0.10043	1.239
Mof_Zn	Zn	0.73624	0.50816	0.94045	1.227
Mof_Zn	Zn	0.88132	0.53383	0.34851	1.199
Mof_H 	H 	0.69139	0.62428	0.11378	0.036
Mof_H 	H 	0.6905	0.49819	0.15129	0.06
Mof_H 	H 	0.79784	0.49201	0.18746	0.065
Mof_H 	H 	0.79757	0.61695	0.26559	0.042
Mof_C 	C 	0.7331	0.5923	0.1301	-0.013
Mof_C 	C 	0.7658	0.5628	0.0708	0.33
Mof_C 	C 	0.7084	0.5431	0.1776	-0.088
Mof_C 	C 	0.6534	0.5741	0.2164	0.416
Mof_C 	C 	0.7681	0.5276	0.2171	-0.117
Mof_C 	C 	0.7548	0.4952	0.2819	0.428
Mof_C 	C 	0.8056	0.5916	0.2174	-0.027
Mof_C 	C 	0.8778	0.5828	0.2066	0.356
Mof_O 	O 	0.7787	0.6307	0.1663	-0.264
Mof_O 	O 	0.8173	0.5868	0.0518	-0.359
Mof_O 	O 	0.7365	0.5175	0.0429	-0.414
Mof_O 	O 	0.5986	0.5628	0.1975	-0.514
Mof_O 	O 	0.6668	0.6118	0.262	-0.445
Mof_O 	O 	0.7177	0.4486	0.2789	-0.469
Mof_O 	O 	0.7829	0.5143	0.3317	-0.585
Mof_O 	O 	0.907	0.5501	0.2481	-0.547
Mof_O 	O 	0.9043	0.6066	0.1573	-0.377
Mof_O 	O 	0.9235	0.673	0.0352	-0.435
Mof_O 	O 	0.6425	0.4768	0.9433	-0.795
Mof_H 	H 	0.4433	0.8575	0.47492	0.122
Mof_H 	H 	0.49158	0.8575	0.5232	0.105
Mof_O 	O 	0.8667	0.6333	0.3667	-0.758
Mof_Zn	Zn	0.89957	0.35257	0.8266	1.24
Mof_Zn	Zn	0.05955	0.23624	0.99184	1.225
Mof_Zn	Zn	0.65149	0.38132	0.96617	1.193
Mof_H 	H 	0.88622	0.19139	0.87572	0.036
Mof_H 	H 	0.84871	0.1905	0.00181	0.059
Mof_H 	H 	0.81254	0.29784	0.00799	0.064
Mof_H 	H 	0.73441	0.29757	0.88305	0.028
Mof_C 	C 	0.8699	0.2331	0.9077	-0.012
Mof_C 	C 	0.9292	0.2658	0.9372	0.33
Mof_C 	C 	0.8224	0.2084	0.9569	-0.088
Mof_C 	C 	0.7836	0.1534	0.9259	0.416
Mof_C 	C 	0.7829	0.2681	0.9724	-0.118
Mof_C 	C 	0.7181	0.2548	0.0048	0.429
Mof_C 	C 	0.7826	0.3056	0.9084	-0.026
Mof_C 	C 	0.7934	0.3778	0.9172	0.347
Mof_O 	O 	0.8337	0.2787	0.8693	-0.265
Mof_O 	O 	0.9482	0.3173	0.9132	-0.357
Mof_O 	O 	0.9571	0.2365	0.9825	-0.413
Mof_O 	O 	0.8025	0.0986	0.9372	-0.515
Mof_O 	O 	0.738	0.1668	0.8882	-0.445
Mof_O 	O 	0.7211	0.2177	0.0514	-0.469
Mof_O 	O 	0.6683	0.2829	0.9857	-0.59
Mof_O 	O 	0.7519	0.407	0.9499	-0.554
Mof_O 	O 	0.8427	0.4043	0.8934	-0.375
Mof_O 	O 	0.9648	0.4235	0.827	-0.432
Mof_O 	O 	0.0567	0.1425	0.0232	-0.791
Mof_H 	H 	0.52508	0.9433	0.6425	0.121
Mof_H 	H 	0.4768	0.99158	0.6425	0.105
Mof_H 	H 	0.31842	0.8667	0.6333	0.135
Mof_Zn	Zn	0.6734	0.10043	0.85257	1.239
Mof_Zn	Zn	0.50816	0.94045	0.73624	1.228
Mof_Zn	Zn	0.53383	0.34851	0.88132	1.196
Mof_H 	H 	0.62428	0.11378	0.69139	0.036
Mof_H 	H 	0.49819	0.15129	0.6905	0.06
Mof_H 	H 	0.49201	0.18746	0.79784	0.064
Mof_H 	H 	0.61695	0.26559	0.79757	0.037
Mof_C 	C 	0.5923	0.1301	0.7331	-0.012
Mof_C 	C 	0.5628	0.0708	0.7658	0.329
Mof_C 	C 	0.5431	0.1776	0.7084	-0.088
Mof_C 	C 	0.5741	0.2164	0.6534	0.415
Mof_C 	C 	0.5276	0.2171	0.7681	-0.116
Mof_C 	C 	0.4952	0.2819	0.7548	0.426
Mof_C 	C 	0.5916	0.2174	0.8056	-0.029
Mof_C 	C 	0.5828	0.2066	0.8778	0.348
Mof_O 	O 	0.6307	0.1663	0.7787	-0.264
Mof_O 	O 	0.5868	0.0518	0.8173	-0.359
Mof_O 	O 	0.5175	0.0429	0.7365	-0.414
Mof_O 	O 	0.5628	0.1975	0.5986	-0.514
Mof_O 	O 	0.6118	0.262	0.6668	-0.443
Mof_O 	O 	0.4486	0.2789	0.7177	-0.469
Mof_O 	O 	0.5143	0.3317	0.7829	-0.58
Mof_O 	O 	0.5501	0.2481	0.907	-0.555
Mof_O 	O 	0.6066	0.1573	0.9043	-0.377
Mof_O 	O 	0.673	0.0352	0.9235	-0.435
Mof_O 	O 	0.4768	0.9433	0.6425	-0.79
Mof_H 	H 	0.8575	0.47492	0.4433	0.122
Mof_H 	H 	0.8575	0.5232	0.49158	0.105
Mof_H 	H 	0.8667	0.68158	0.3667	0.135
Mof_Zn	Zn	0.64743	0.3266	0.60043	1.24
Mof_Zn	Zn	0.76376	0.49184	0.44045	1.227
Mof_Zn	Zn	0.61868	0.46617	0.84851	1.199
Mof_H 	H 	0.80861	0.37572	0.61378	0.036
Mof_H 	H 	0.8095	0.50181	0.65129	0.06
Mof_H 	H 	0.70216	0.50799	0.68746	0.065
Mof_H 	H 	0.70243	0.38305	0.76559	0.042
Mof_C 	C 	0.7669	0.4077	0.6301	-0.012
Mof_C 	C 	0.7342	0.4372	0.5708	0.329
Mof_C 	C 	0.7916	0.4569	0.6776	-0.088
Mof_C 	C 	0.8466	0.4259	0.7164	0.416
Mof_C 	C 	0.7319	0.4724	0.7171	-0.117
Mof_C 	C 	0.7452	0.5048	0.7819	0.428
Mof_C 	C 	0.6944	0.4084	0.7174	-0.027
Mof_C 	C 	0.6222	0.4172	0.7066	0.356
Mof_O 	O 	0.7213	0.3693	0.6663	-0.264
Mof_O 	O 	0.6827	0.4132	0.5518	-0.358
Mof_O 	O 	0.7635	0.4825	0.5429	-0.413
Mof_O 	O 	0.9014	0.4372	0.6975	-0.514
Mof_O 	O 	0.8332	0.3882	0.762	-0.445
Mof_O 	O 	0.7823	0.5514	0.7789	-0.469
Mof_O 	O 	0.7171	0.4857	0.8317	-0.585
Mof_O 	O 	0.593	0.4499	0.7481	-0.547
Mof_O 	O 	0.5957	0.3934	0.6573	-0.376
Mof_O 	O 	0.5765	0.327	0.5352	-0.433
Mof_O 	O 	0.8575	0.5232	0.4433	-0.795
Mof_H 	H 	0.0567	0.1425	0.97492	0.117
Mof_H 	H 	0.00842	0.1425	0.0232	0.107
Mof_O 	O 	0.6333	0.3667	0.8667	-0.758
_end
