data_functionalizedCrystal
_audit_creation_method	'EQeq! by Chris Wilmer'
_symmetry_space_group_name_H-M	'P1'
_symmetry_Int_Tables_number	1
_symmetry_cell_setting	triclinic
loop_
_symmetry_equiv_pos_as_xyz
  x,y,z
_cell_length_a	14.1545
_cell_length_b	14.1545
_cell_length_c	62.938
_cell_angle_alpha	90
_cell_angle_beta	90
_cell_angle_gamma	90
loop_
_atom_site_label
_atom_site_type_symbol
_atom_site_fract_x
_atom_site_fract_y
_atom_site_fract_z
_atom_site_charge
Mof_Dy	Dy	0.72283	0.48884	0.43889	1.916
Mof_O 	O 	0.7586	0.596	0.46489	-0.517
Mof_O 	O 	0.9108	0.6274	0.47057	-0.513
Mof_O 	O 	0.6138	0.7176	0.53226	-0.517
Mof_O 	O 	0.5918	0.8702	0.53473	-0.595
Mof_O 	O 	0.8242	0.6376	0.32775	-0.407
Mof_O 	O 	0.8214	0.5102	0.34732	-0.465
Mof_O 	O 	0.8689	0.5447	0.4287	-0.608
Mof_O 	O 	0.0081	0.6104	0.42981	-0.54
Mof_O 	O 	0.5698	0.5255	0.456	-0.382
Mof_C 	C 	0.8242	0.6472	0.47128	0.516
Mof_C 	C 	0.7959	0.739	0.48166	-0.232
Mof_C 	C 	0.7297	0.7341	0.49748	0.161
Mof_H 	H 	0.7035	0.6758	0.5009	0.004
Mof_C 	C 	0.7006	0.8134	0.50862	-0.229
Mof_C 	C 	0.739	0.9006	0.50324	0.146
Mof_H 	H 	0.721	0.9545	0.5107	-0.002
Mof_C 	C 	0.8028	0.9074	0.48716	-0.218
Mof_H 	H 	0.8265	0.9664	0.4835	0.121
Mof_C 	C 	0.8343	0.8255	0.47579	0.176
Mof_C 	C 	0.63	0.8001	0.52625	0.491
Mof_C 	C 	0.9018	0.8358	0.45761	-0.114
Mof_C 	C 	0.9861	0.8826	0.4599	0.223
Mof_H 	H 	0.0019	0.9092	0.4729	-0.077
Mof_C 	C 	0.0475	0.8904	0.44292	-0.219
Mof_H 	H 	0.1044	0.9224	0.4447	0.112
Mof_C 	C 	0.0255	0.8514	0.42336	-0.013
Mof_H 	H 	0.0675	0.8565	0.4121	0.021
Mof_C 	C 	0.9407	0.8048	0.42086	-0.01
Mof_C 	C 	0.8779	0.7981	0.43776	0.014
Mof_H 	H 	0.8198	0.7685	0.4359	0.035
Mof_C 	C 	0.9171	0.7538	0.4007	0.14
Mof_C 	C 	0.9036	0.7978	0.38148	-0.185
Mof_H 	H 	0.9127	0.8628	0.3805	0.109
Mof_C 	C 	0.8775	0.7495	0.36382	0.108
Mof_H 	H 	0.8661	0.7817	0.3512	0.013
Mof_C 	C 	0.8677	0.6527	0.3646	-0.159
Mof_C 	C 	0.8799	0.6065	0.38337	0.136
Mof_H 	H 	0.8701	0.5416	0.3841	-0.001
Mof_C 	C 	0.9067	0.6557	0.40136	-0.217
Mof_C 	C 	0.8363	0.5974	0.34544	0.354
Mof_C 	C 	0.9298	0.6017	0.42147	0.545
Mof_Dy	Dy	0.22283	0.98884	0.93889	2.107
Mof_O 	O 	0.2586	0.096	0.96489	-0.569
Mof_O 	O 	0.4108	0.1274	0.97057	-0.55
Mof_O 	O 	0.1138	0.2176	0.03226	-0.518
Mof_O 	O 	0.0918	0.3702	0.03473	-0.612
Mof_O 	O 	0.3242	0.1376	0.82775	-0.441
Mof_O 	O 	0.3214	0.0102	0.84732	-0.522
Mof_O 	O 	0.3689	0.0447	0.9287	-0.646
Mof_O 	O 	0.5081	0.1104	0.92981	-0.492
Mof_O 	O 	0.0698	0.0255	0.956	-0.403
Mof_C 	C 	0.3242	0.1472	0.97128	0.524
Mof_C 	C 	0.2959	0.239	0.98166	-0.228
Mof_C 	C 	0.2297	0.2341	0.99748	0.152
Mof_H 	H 	0.2035	0.1758	0.0009	-0.008
Mof_C 	C 	0.2006	0.3134	0.00862	-0.236
Mof_C 	C 	0.239	0.4006	0.00324	0.129
Mof_H 	H 	0.221	0.4545	0.0107	-0.015
Mof_C 	C 	0.3028	0.4074	0.98716	-0.199
Mof_H 	H 	0.3265	0.4664	0.9835	0.094
Mof_C 	C 	0.3343	0.3255	0.97579	0.122
Mof_C 	C 	0.13	0.3001	0.02625	0.486
Mof_C 	C 	0.4018	0.3358	0.95761	-0.009
Mof_C 	C 	0.4861	0.3826	0.9599	-0.058
Mof_H 	H 	0.5019	0.4092	0.9729	0.047
Mof_C 	C 	0.5475	0.3904	0.94292	-0.02
Mof_H 	H 	0.6044	0.4224	0.9447	0.035
Mof_C 	C 	0.5255	0.3514	0.92336	-0.059
Mof_H 	H 	0.5675	0.3565	0.9121	0.044
Mof_C 	C 	0.4407	0.3048	0.92086	-0.008
Mof_C 	C 	0.3779	0.2981	0.93776	-0.055
Mof_H 	H 	0.3198	0.2685	0.9359	0.053
Mof_C 	C 	0.4171	0.2538	0.9007	0.116
Mof_C 	C 	0.4036	0.2978	0.88148	-0.183
Mof_H 	H 	0.4127	0.3628	0.8805	0.087
Mof_C 	C 	0.3775	0.2495	0.86382	0.1
Mof_H 	H 	0.3661	0.2817	0.8512	0.003
Mof_C 	C 	0.3677	0.1527	0.8646	-0.172
Mof_C 	C 	0.3799	0.1065	0.88337	0.127
Mof_H 	H 	0.3701	0.0416	0.8841	-0.019
Mof_C 	C 	0.4067	0.1557	0.90136	-0.213
Mof_C 	C 	0.3363	0.0974	0.84544	0.359
Mof_C 	C 	0.4298	0.1017	0.92147	0.487
Mof_Dy	Dy	0.27717	0.51116	0.43889	1.901
Mof_O 	O 	0.2414	0.404	0.46489	-0.518
Mof_O 	O 	0.0892	0.3726	0.47057	-0.554
Mof_O 	O 	0.3862	0.2824	0.53226	-0.519
Mof_O 	O 	0.4082	0.1298	0.53473	-0.613
Mof_O 	O 	0.1758	0.3624	0.32775	-0.418
Mof_O 	O 	0.1786	0.4898	0.34732	-0.474
Mof_O 	O 	0.1311	0.4553	0.4287	-0.578
Mof_O 	O 	0.9919	0.3896	0.42981	-0.407
Mof_O 	O 	0.4302	0.4745	0.456	-0.382
Mof_C 	C 	0.1758	0.3528	0.47128	0.501
Mof_C 	C 	0.2041	0.261	0.48166	-0.19
Mof_C 	C 	0.2703	0.2659	0.49748	0.121
Mof_H 	H 	0.2965	0.3242	0.5009	0.012
Mof_C 	C 	0.2994	0.1866	0.50862	-0.213
Mof_C 	C 	0.261	0.0994	0.50324	0.096
Mof_H 	H 	0.279	0.0455	0.5107	-0.018
Mof_C 	C 	0.1972	0.0926	0.48716	-0.156
Mof_H 	H 	0.1735	0.0336	0.4835	0.061
Mof_C 	C 	0.1657	0.1745	0.47579	0.045
Mof_C 	C 	0.37	0.1999	0.52625	0.481
Mof_C 	C 	0.0982	0.1642	0.45761	0.125
Mof_C 	C 	0.0139	0.1174	0.4599	-0.382
Mof_H 	H 	0.9981	0.0908	0.4729	0.187
Mof_C 	C 	0.9525	0.1096	0.44292	0.212
Mof_H 	H 	0.8956	0.0776	0.4447	-0.058
Mof_C 	C 	0.9745	0.1486	0.42336	-0.129
Mof_H 	H 	0.9325	0.1435	0.4121	0.075
Mof_C 	C 	0.0593	0.1952	0.42086	0.017
Mof_C 	C 	0.1221	0.2019	0.43776	-0.15
Mof_H 	H 	0.1802	0.2315	0.4359	0.086
Mof_C 	C 	0.0829	0.2462	0.4007	0.064
Mof_C 	C 	0.0964	0.2022	0.38148	-0.148
Mof_H 	H 	0.0873	0.1372	0.3805	0.055
Mof_C 	C 	0.1225	0.2505	0.36382	0.059
Mof_H 	H 	0.1339	0.2183	0.3512	0.006
Mof_C 	C 	0.1323	0.3473	0.3646	-0.144
Mof_C 	C 	0.1201	0.3935	0.38337	0.083
Mof_H 	H 	0.1299	0.4584	0.3841	0.005
Mof_C 	C 	0.0933	0.3443	0.40136	-0.165
Mof_C 	C 	0.1637	0.4026	0.34544	0.339
Mof_C 	C 	0.0702	0.3983	0.42147	0.392
Mof_Dy	Dy	0.77717	0.01116	0.93889	1.732
Mof_O 	O 	0.7414	0.904	0.96489	-0.473
Mof_O 	O 	0.5892	0.8726	0.97057	-0.512
Mof_O 	O 	0.8862	0.7824	0.03226	-0.517
Mof_O 	O 	0.9082	0.6298	0.03473	-0.59
Mof_O 	O 	0.6758	0.8624	0.82775	-0.385
Mof_O 	O 	0.6786	0.9898	0.84732	-0.417
Mof_O 	O 	0.6311	0.9553	0.9287	-0.54
Mof_O 	O 	0.4919	0.8896	0.92981	-0.453
Mof_O 	O 	0.9302	0.9745	0.956	-0.237
Mof_C 	C 	0.6758	0.8528	0.97128	0.494
Mof_C 	C 	0.7041	0.761	0.98166	-0.196
Mof_C 	C 	0.7703	0.7659	0.99748	0.132
Mof_H 	H 	0.7965	0.8242	0.0009	0.023
Mof_C 	C 	0.7994	0.6866	0.00862	-0.206
Mof_C 	C 	0.761	0.5994	0.00324	0.115
Mof_H 	H 	0.779	0.5455	0.0107	-0.004
Mof_C 	C 	0.6972	0.5926	0.98716	-0.177
Mof_H 	H 	0.6735	0.5336	0.9835	0.09
Mof_C 	C 	0.6657	0.6745	0.97579	0.105
Mof_C 	C 	0.87	0.6999	0.02625	0.485
Mof_C 	C 	0.5982	0.6642	0.95761	0.01
Mof_C 	C 	0.5139	0.6174	0.9599	-0.076
Mof_H 	H 	0.4981	0.5908	0.9729	0.052
Mof_C 	C 	0.4525	0.6096	0.94292	-0.004
Mof_H 	H 	0.3956	0.5776	0.9447	0.024
Mof_C 	C 	0.4745	0.6486	0.92336	-0.077
Mof_H 	H 	0.4325	0.6435	0.9121	0.049
Mof_C 	C 	0.5593	0.6952	0.92086	0.013
Mof_C 	C 	0.6221	0.7019	0.93776	-0.073
Mof_H 	H 	0.6802	0.7315	0.9359	0.065
Mof_C 	C 	0.5829	0.7462	0.9007	0.09
Mof_C 	C 	0.5964	0.7022	0.88148	-0.152
Mof_H 	H 	0.5873	0.6372	0.8805	0.078
Mof_C 	C 	0.6225	0.7505	0.86382	0.069
Mof_H 	H 	0.6339	0.7183	0.8512	0.015
Mof_C 	C 	0.6323	0.8473	0.8646	-0.132
Mof_C 	C 	0.6201	0.8935	0.88337	0.093
Mof_H 	H 	0.6299	0.9584	0.8841	0.022
Mof_C 	C 	0.5933	0.8443	0.90136	-0.17
Mof_C 	C 	0.6637	0.9026	0.84544	0.335
Mof_C 	C 	0.5702	0.8983	0.92147	0.453
Mof_Dy	Dy	0.48884	0.27717	0.56111	1.894
Mof_O 	O 	0.596	0.2414	0.53511	-0.516
Mof_O 	O 	0.6274	0.0892	0.52943	-0.553
Mof_O 	O 	0.7176	0.3862	0.46774	-0.518
Mof_O 	O 	0.8702	0.4082	0.46527	-0.592
Mof_O 	O 	0.6376	0.1758	0.67225	-0.414
Mof_O 	O 	0.5102	0.1786	0.65268	-0.476
Mof_O 	O 	0.5447	0.1311	0.5713	-0.579
Mof_O 	O 	0.6104	0.9919	0.57019	-0.407
Mof_O 	O 	0.5255	0.4302	0.544	-0.381
Mof_C 	C 	0.6472	0.1758	0.52872	0.5
Mof_C 	C 	0.739	0.2041	0.51834	-0.188
Mof_C 	C 	0.7341	0.2703	0.50252	0.119
Mof_H 	H 	0.6758	0.2965	0.4991	0.014
Mof_C 	C 	0.8134	0.2994	0.49138	-0.199
Mof_C 	C 	0.9006	0.261	0.49676	0.093
Mof_H 	H 	0.9545	0.279	0.4893	0.016
Mof_C 	C 	0.9074	0.1972	0.51284	-0.151
Mof_H 	H 	0.9664	0.1735	0.5165	0.088
Mof_C 	C 	0.8255	0.1657	0.52421	0.053
Mof_C 	C 	0.8001	0.37	0.47375	0.478
Mof_C 	C 	0.8358	0.0982	0.54239	0.124
Mof_C 	C 	0.8826	0.0139	0.5401	-0.353
Mof_H 	H 	0.9092	0.9981	0.5271	0.197
Mof_C 	C 	0.8904	0.9525	0.55708	0.209
Mof_H 	H 	0.9224	0.8956	0.5553	-0.029
Mof_C 	C 	0.8514	0.9745	0.57664	-0.117
Mof_H 	H 	0.8565	0.9325	0.5879	0.086
Mof_C 	C 	0.8048	0.0593	0.57914	0.022
Mof_C 	C 	0.7981	0.1221	0.56224	-0.139
Mof_H 	H 	0.7685	0.1802	0.5641	0.088
Mof_C 	C 	0.7538	0.0829	0.5993	0.073
Mof_C 	C 	0.7978	0.0964	0.61852	-0.152
Mof_H 	H 	0.8628	0.0873	0.6195	0.076
Mof_C 	C 	0.7495	0.1225	0.63618	0.067
Mof_H 	H 	0.7817	0.1339	0.6488	0.014
Mof_C 	C 	0.6527	0.1323	0.6354	-0.145
Mof_C 	C 	0.6065	0.1201	0.61663	0.087
Mof_H 	H 	0.5416	0.1299	0.6159	0.003
Mof_C 	C 	0.6557	0.0933	0.59864	-0.167
Mof_C 	C 	0.5974	0.1637	0.65456	0.341
Mof_C 	C 	0.6017	0.0702	0.57853	0.394
Mof_Dy	Dy	0.98884	0.77717	0.06111	2.129
Mof_O 	O 	0.096	0.7414	0.03511	-0.565
Mof_O 	O 	0.1274	0.5892	0.02943	-0.55
Mof_O 	O 	0.2176	0.8862	0.96774	-0.531
Mof_O 	O 	0.3702	0.9082	0.96527	-0.591
Mof_O 	O 	0.1376	0.6758	0.17225	-0.441
Mof_O 	O 	0.0102	0.6786	0.15268	-0.519
Mof_O 	O 	0.0447	0.6311	0.0713	-0.648
Mof_O 	O 	0.1104	0.4919	0.07019	-0.493
Mof_O 	O 	0.0255	0.9302	0.044	-0.344
Mof_C 	C 	0.1472	0.6758	0.02872	0.524
Mof_C 	C 	0.239	0.7041	0.01834	-0.221
Mof_C 	C 	0.2341	0.7703	0.00252	0.15
Mof_H 	H 	0.1758	0.7965	0.9991	0.002
Mof_C 	C 	0.3134	0.7994	0.99138	-0.223
Mof_C 	C 	0.4006	0.761	0.99676	0.127
Mof_H 	H 	0.4545	0.779	0.9893	-0.009
Mof_C 	C 	0.4074	0.6972	0.01284	-0.191
Mof_H 	H 	0.4664	0.6735	0.0165	0.095
Mof_C 	C 	0.3255	0.6657	0.02421	0.12
Mof_C 	C 	0.3001	0.87	0.97375	0.49
Mof_C 	C 	0.3358	0.5982	0.04239	-0.005
Mof_C 	C 	0.3826	0.5139	0.0401	-0.062
Mof_H 	H 	0.4092	0.4981	0.0271	0.047
Mof_C 	C 	0.3904	0.4525	0.05708	-0.018
Mof_H 	H 	0.4224	0.3956	0.0553	0.029
Mof_C 	C 	0.3514	0.4745	0.07664	-0.061
Mof_H 	H 	0.3565	0.4325	0.0879	0.041
Mof_C 	C 	0.3048	0.5593	0.07914	-0.006
Mof_C 	C 	0.2981	0.6221	0.06224	-0.057
Mof_H 	H 	0.2685	0.6802	0.0641	0.058
Mof_C 	C 	0.2538	0.5829	0.0993	0.115
Mof_C 	C 	0.2978	0.5964	0.11852	-0.182
Mof_H 	H 	0.3628	0.5873	0.1195	0.088
Mof_C 	C 	0.2495	0.6225	0.13618	0.098
Mof_H 	H 	0.2817	0.6339	0.1488	0.004
Mof_C 	C 	0.1527	0.6323	0.1354	-0.171
Mof_C 	C 	0.1065	0.6201	0.11663	0.125
Mof_H 	H 	0.0416	0.6299	0.1159	-0.018
Mof_C 	C 	0.1557	0.5933	0.09864	-0.213
Mof_C 	C 	0.0974	0.6637	0.15456	0.357
Mof_C 	C 	0.1017	0.5702	0.07853	0.487
Mof_Dy	Dy	0.51116	0.72283	0.56111	1.923
Mof_O 	O 	0.404	0.7586	0.53511	-0.521
Mof_O 	O 	0.3726	0.9108	0.52943	-0.514
Mof_O 	O 	0.2824	0.6138	0.46774	-0.518
Mof_O 	O 	0.1298	0.5918	0.46527	-0.616
Mof_O 	O 	0.3624	0.8242	0.67225	-0.411
Mof_O 	O 	0.4898	0.8214	0.65268	-0.463
Mof_O 	O 	0.4553	0.8689	0.5713	-0.608
Mof_O 	O 	0.3896	0.0081	0.57019	-0.543
Mof_O 	O 	0.4745	0.5698	0.544	-0.384
Mof_C 	C 	0.3528	0.8242	0.52872	0.518
Mof_C 	C 	0.261	0.7959	0.51834	-0.238
Mof_C 	C 	0.2659	0.7297	0.50252	0.167
Mof_H 	H 	0.3242	0.7035	0.4991	0.001
Mof_C 	C 	0.1866	0.7006	0.49138	-0.245
Mof_C 	C 	0.0994	0.739	0.49676	0.153
Mof_H 	H 	0.0455	0.721	0.4893	-0.036
Mof_C 	C 	0.0926	0.8028	0.51284	-0.229
Mof_H 	H 	0.0336	0.8265	0.5165	0.098
Mof_C 	C 	0.1745	0.8343	0.52421	0.178
Mof_C 	C 	0.1999	0.63	0.47375	0.495
Mof_C 	C 	0.1642	0.9018	0.54239	-0.133
Mof_C 	C 	0.1174	0.9861	0.5401	0.24
Mof_H 	H 	0.0908	0.0019	0.5271	-0.108
Mof_C 	C 	0.1096	0.0475	0.55708	-0.25
Mof_H 	H 	0.0776	0.1044	0.5553	0.093
Mof_C 	C 	0.1486	0.0255	0.57664	-0.013
Mof_H 	H 	0.1435	0.0675	0.5879	0.005
Mof_C 	C 	0.1952	0.9407	0.57914	-0.019
Mof_C 	C 	0.2019	0.8779	0.56224	0.017
Mof_H 	H 	0.2315	0.8198	0.5641	0.029
Mof_C 	C 	0.2462	0.9171	0.5993	0.136
Mof_C 	C 	0.2022	0.9036	0.61852	-0.185
Mof_H 	H 	0.1372	0.9127	0.6195	0.091
Mof_C 	C 	0.2505	0.8775	0.63618	0.103
Mof_H 	H 	0.2183	0.8661	0.6488	0.005
Mof_C 	C 	0.3473	0.8677	0.6354	-0.159
Mof_C 	C 	0.3935	0.8799	0.61663	0.134
Mof_H 	H 	0.4584	0.8701	0.6159	0
Mof_C 	C 	0.3443	0.9067	0.59864	-0.217
Mof_C 	C 	0.4026	0.8363	0.65456	0.353
Mof_C 	C 	0.3983	0.9298	0.57853	0.547
Mof_Dy	Dy	0.01116	0.22283	0.06111	1.688
Mof_O 	O 	0.904	0.2586	0.03511	-0.473
Mof_O 	O 	0.8726	0.4108	0.02943	-0.511
Mof_O 	O 	0.7824	0.1138	0.96774	-0.504
Mof_O 	O 	0.6298	0.0918	0.96527	-0.611
Mof_O 	O 	0.8624	0.3242	0.17225	-0.384
Mof_O 	O 	0.9898	0.3214	0.15268	-0.417
Mof_O 	O 	0.9553	0.3689	0.0713	-0.535
Mof_O 	O 	0.8896	0.5081	0.07019	-0.451
Mof_O 	O 	0.9745	0.0698	0.044	-0.284
Mof_C 	C 	0.8528	0.3242	0.02872	0.493
Mof_C 	C 	0.761	0.2959	0.01834	-0.201
Mof_C 	C 	0.7659	0.2297	0.00252	0.133
Mof_H 	H 	0.8242	0.2035	0.9991	0.014
Mof_C 	C 	0.6866	0.2006	0.99138	-0.218
Mof_C 	C 	0.5994	0.239	0.99676	0.115
Mof_H 	H 	0.5455	0.221	0.9893	-0.01
Mof_C 	C 	0.5926	0.3028	0.01284	-0.184
Mof_H 	H 	0.5336	0.3265	0.0165	0.089
Mof_C 	C 	0.6745	0.3343	0.02421	0.106
Mof_C 	C 	0.6999	0.13	0.97375	0.48
Mof_C 	C 	0.6642	0.4018	0.04239	0.006
Mof_C 	C 	0.6174	0.4861	0.0401	-0.073
Mof_H 	H 	0.5908	0.5019	0.0271	0.052
Mof_C 	C 	0.6096	0.5475	0.05708	-0.006
Mof_H 	H 	0.5776	0.6044	0.0553	0.03
Mof_C 	C 	0.6486	0.5255	0.07664	-0.075
Mof_H 	H 	0.6435	0.5675	0.0879	0.052
Mof_C 	C 	0.6952	0.4407	0.07914	0.011
Mof_C 	C 	0.7019	0.3779	0.06224	-0.072
Mof_H 	H 	0.7315	0.3198	0.0641	0.061
Mof_C 	C 	0.7462	0.4171	0.0993	0.09
Mof_C 	C 	0.7022	0.4036	0.11852	-0.152
Mof_H 	H 	0.6372	0.4127	0.1195	0.077
Mof_C 	C 	0.7505	0.3775	0.13618	0.07
Mof_H 	H 	0.7183	0.3661	0.1488	0.014
Mof_C 	C 	0.8473	0.3677	0.1354	-0.132
Mof_C 	C 	0.8935	0.3799	0.11663	0.093
Mof_H 	H 	0.9584	0.3701	0.1159	0.022
Mof_C 	C 	0.8443	0.4067	0.09864	-0.169
Mof_C 	C 	0.9026	0.3363	0.15456	0.336
Mof_C 	C 	0.8983	0.4298	0.07853	0.451
Mof_Dy	Dy	0.77717	0.48884	0.31111	1.924
Mof_O 	O 	0.7414	0.596	0.28511	-0.522
Mof_O 	O 	0.5892	0.6274	0.27943	-0.555
Mof_O 	O 	0.8862	0.7176	0.21774	-0.52
Mof_O 	O 	0.9082	0.8702	0.21527	-0.558
Mof_O 	O 	0.6758	0.6376	0.42225	-0.412
Mof_O 	O 	0.6786	0.5102	0.40268	-0.471
Mof_O 	O 	0.6311	0.5447	0.3213	-0.605
Mof_O 	O 	0.4919	0.6104	0.32019	-0.491
Mof_O 	O 	0.9302	0.5255	0.294	-0.322
Mof_C 	C 	0.6758	0.6472	0.27872	0.515
Mof_C 	C 	0.7041	0.739	0.26834	-0.208
Mof_C 	C 	0.7703	0.7341	0.25252	0.137
Mof_H 	H 	0.7965	0.6758	0.2491	0.014
Mof_C 	C 	0.7994	0.8134	0.24138	-0.201
Mof_C 	C 	0.761	0.9006	0.24676	0.115
Mof_H 	H 	0.779	0.9545	0.2393	0.013
Mof_C 	C 	0.6972	0.9074	0.26284	-0.178
Mof_H 	H 	0.6735	0.9664	0.2665	0.105
Mof_C 	C 	0.6657	0.8255	0.27421	0.114
Mof_C 	C 	0.87	0.8001	0.22375	0.476
Mof_C 	C 	0.5982	0.8358	0.29239	0.007
Mof_C 	C 	0.5139	0.8826	0.2901	-0.066
Mof_H 	H 	0.4981	0.9092	0.2771	0.06
Mof_C 	C 	0.4525	0.8904	0.30708	-0.005
Mof_H 	H 	0.3956	0.9224	0.3053	0.039
Mof_C 	C 	0.4745	0.8514	0.32664	-0.066
Mof_H 	H 	0.4325	0.8565	0.3379	0.052
Mof_C 	C 	0.5593	0.8048	0.32914	0.006
Mof_C 	C 	0.6221	0.7981	0.31224	-0.063
Mof_H 	H 	0.6802	0.7685	0.3141	0.063
Mof_C 	C 	0.5829	0.7538	0.3493	0.107
Mof_C 	C 	0.5964	0.7978	0.36852	-0.169
Mof_H 	H 	0.5873	0.8628	0.3695	0.093
Mof_C 	C 	0.6225	0.7495	0.38618	0.088
Mof_H 	H 	0.6339	0.7817	0.3988	0.013
Mof_C 	C 	0.6323	0.6527	0.3854	-0.153
Mof_C 	C 	0.6201	0.6065	0.36663	0.112
Mof_H 	H 	0.6299	0.5416	0.3659	0
Mof_C 	C 	0.5933	0.6557	0.34864	-0.194
Mof_C 	C 	0.6637	0.5974	0.40456	0.346
Mof_C 	C 	0.5702	0.6017	0.32853	0.474
Mof_Dy	Dy	0.27717	0.98884	0.81111	2.112
Mof_O 	O 	0.2414	0.096	0.78511	-0.562
Mof_O 	O 	0.0892	0.1274	0.77943	-0.549
Mof_O 	O 	0.3862	0.2176	0.71774	-0.528
Mof_O 	O 	0.4082	0.3702	0.71527	-0.627
Mof_O 	O 	0.1758	0.1376	0.92225	-0.444
Mof_O 	O 	0.1786	0.0102	0.90268	-0.525
Mof_O 	O 	0.1311	0.0447	0.8213	-0.624
Mof_O 	O 	0.9919	0.1104	0.82019	-0.409
Mof_O 	O 	0.4302	0.0255	0.794	-0.406
Mof_C 	C 	0.1758	0.1472	0.77872	0.509
Mof_C 	C 	0.2041	0.239	0.76834	-0.201
Mof_C 	C 	0.2703	0.2341	0.75252	0.131
Mof_H 	H 	0.2965	0.1758	0.7491	0.001
Mof_C 	C 	0.2994	0.3134	0.74138	-0.221
Mof_C 	C 	0.261	0.4006	0.74676	0.105
Mof_H 	H 	0.279	0.4545	0.7393	-0.007
Mof_C 	C 	0.1972	0.4074	0.76284	-0.163
Mof_H 	H 	0.1735	0.4664	0.7665	0.078
Mof_C 	C 	0.1657	0.3255	0.77421	0.057
Mof_C 	C 	0.37	0.3001	0.72375	0.493
Mof_C 	C 	0.0982	0.3358	0.79239	0.117
Mof_C 	C 	0.0139	0.3826	0.7901	-0.359
Mof_H 	H 	0.9981	0.4092	0.7771	0.189
Mof_C 	C 	0.9525	0.3904	0.80708	0.203
Mof_H 	H 	0.8956	0.4224	0.8053	-0.041
Mof_C 	C 	0.9745	0.3514	0.82664	-0.115
Mof_H 	H 	0.9325	0.3565	0.8379	0.077
Mof_C 	C 	0.0593	0.3048	0.82914	0.011
Mof_C 	C 	0.1221	0.2981	0.81224	-0.136
Mof_H 	H 	0.1802	0.2685	0.8141	0.083
Mof_C 	C 	0.0829	0.2538	0.8493	0.08
Mof_C 	C 	0.0964	0.2978	0.86852	-0.164
Mof_H 	H 	0.0873	0.3628	0.8695	0.071
Mof_C 	C 	0.1225	0.2495	0.88618	0.077
Mof_H 	H 	0.1339	0.2817	0.8988	0.005
Mof_C 	C 	0.1323	0.1527	0.8854	-0.162
Mof_C 	C 	0.1201	0.1065	0.86663	0.101
Mof_H 	H 	0.1299	0.0416	0.8659	-0.015
Mof_C 	C 	0.0933	0.1557	0.84864	-0.187
Mof_C 	C 	0.1637	0.0974	0.90456	0.352
Mof_C 	C 	0.0702	0.1017	0.82853	0.408
Mof_Dy	Dy	0.22283	0.51116	0.31111	1.897
Mof_O 	O 	0.2586	0.404	0.28511	-0.526
Mof_O 	O 	0.4108	0.3726	0.27943	-0.555
Mof_O 	O 	0.1138	0.2824	0.21774	-0.508
Mof_O 	O 	0.0918	0.1298	0.21527	-0.599
Mof_O 	O 	0.3242	0.3624	0.42225	-0.416
Mof_O 	O 	0.3214	0.4898	0.40268	-0.471
Mof_O 	O 	0.3689	0.4553	0.3213	-0.602
Mof_O 	O 	0.5081	0.3896	0.32019	-0.49
Mof_O 	O 	0.0698	0.4745	0.294	-0.378
Mof_C 	C 	0.3242	0.3528	0.27872	0.516
Mof_C 	C 	0.2959	0.261	0.26834	-0.218
Mof_C 	C 	0.2297	0.2659	0.25252	0.143
Mof_H 	H 	0.2035	0.3242	0.2491	0.001
Mof_C 	C 	0.2006	0.1866	0.24138	-0.229
Mof_C 	C 	0.239	0.0994	0.24676	0.121
Mof_H 	H 	0.221	0.0455	0.2393	-0.026
Mof_C 	C 	0.3028	0.0926	0.26284	-0.194
Mof_H 	H 	0.3265	0.0336	0.2665	0.078
Mof_C 	C 	0.3343	0.1745	0.27421	0.112
Mof_C 	C 	0.13	0.1999	0.22375	0.475
Mof_C 	C 	0.4018	0.1642	0.29239	-0.007
Mof_C 	C 	0.4861	0.1174	0.2901	-0.069
Mof_H 	H 	0.5019	0.0908	0.2771	0.039
Mof_C 	C 	0.5475	0.1096	0.30708	-0.021
Mof_H 	H 	0.6044	0.0776	0.3053	0.021
Mof_C 	C 	0.5255	0.1486	0.32664	-0.069
Mof_H 	H 	0.5675	0.1435	0.3379	0.041
Mof_C 	C 	0.4407	0.1952	0.32914	-0.003
Mof_C 	C 	0.3779	0.2019	0.31224	-0.065
Mof_H 	H 	0.3198	0.2315	0.3141	0.055
Mof_C 	C 	0.4171	0.2462	0.3493	0.101
Mof_C 	C 	0.4036	0.2022	0.36852	-0.168
Mof_H 	H 	0.4127	0.1372	0.3695	0.073
Mof_C 	C 	0.3775	0.2505	0.38618	0.083
Mof_H 	H 	0.3661	0.2183	0.3988	0.004
Mof_C 	C 	0.3677	0.3473	0.3854	-0.153
Mof_C 	C 	0.3799	0.3935	0.36663	0.11
Mof_H 	H 	0.3701	0.4584	0.3659	0.001
Mof_C 	C 	0.4067	0.3443	0.34864	-0.192
Mof_C 	C 	0.3363	0.4026	0.40456	0.347
Mof_C 	C 	0.4298	0.3983	0.32853	0.472
Mof_Dy	Dy	0.72283	0.01116	0.81111	1.719
Mof_O 	O 	0.7586	0.904	0.78511	-0.469
Mof_O 	O 	0.9108	0.8726	0.77943	-0.471
Mof_O 	O 	0.6138	0.7824	0.71774	-0.514
Mof_O 	O 	0.5918	0.6298	0.71527	-0.628
Mof_O 	O 	0.8242	0.8624	0.92225	-0.381
Mof_O 	O 	0.8214	0.9898	0.90268	-0.412
Mof_O 	O 	0.8689	0.9553	0.8213	-0.542
Mof_O 	O 	0.0081	0.8896	0.82019	-0.5
Mof_O 	O 	0.5698	0.9745	0.794	-0.292
Mof_C 	C 	0.8242	0.8528	0.77872	0.495
Mof_C 	C 	0.7959	0.761	0.76834	-0.22
Mof_C 	C 	0.7297	0.7659	0.75252	0.156
Mof_H 	H 	0.7035	0.8242	0.7491	0.013
Mof_C 	C 	0.7006	0.6866	0.74138	-0.234
Mof_C 	C 	0.739	0.5994	0.74676	0.147
Mof_H 	H 	0.721	0.5455	0.7393	-0.02
Mof_C 	C 	0.8028	0.5926	0.76284	-0.218
Mof_H 	H 	0.8265	0.5336	0.7665	0.108
Mof_C 	C 	0.8343	0.6745	0.77421	0.169
Mof_C 	C 	0.63	0.6999	0.72375	0.5
Mof_C 	C 	0.9018	0.6642	0.79239	-0.114
Mof_C 	C 	0.9861	0.6174	0.7901	0.22
Mof_H 	H 	0.0019	0.5908	0.7771	-0.088
Mof_C 	C 	0.0475	0.6096	0.80708	-0.224
Mof_H 	H 	0.1044	0.5776	0.8053	0.099
Mof_C 	C 	0.0255	0.6486	0.82664	-0.021
Mof_H 	H 	0.0675	0.6435	0.8379	0.017
Mof_C 	C 	0.9407	0.6952	0.82914	-0.005
Mof_C 	C 	0.8779	0.7019	0.81224	0.006
Mof_H 	H 	0.8198	0.7315	0.8141	0.036
Mof_C 	C 	0.9171	0.7462	0.8493	0.123
Mof_C 	C 	0.9036	0.7022	0.86852	-0.168
Mof_H 	H 	0.9127	0.6372	0.8695	0.095
Mof_C 	C 	0.8775	0.7505	0.88618	0.09
Mof_H 	H 	0.8661	0.7183	0.8988	0.015
Mof_C 	C 	0.8677	0.8473	0.8854	-0.139
Mof_C 	C 	0.8799	0.8935	0.86663	0.116
Mof_H 	H 	0.8701	0.9584	0.8659	0.02
Mof_C 	C 	0.9067	0.8443	0.84864	-0.193
Mof_C 	C 	0.8363	0.9026	0.90456	0.343
Mof_C 	C 	0.9298	0.8983	0.82853	0.521
Mof_Dy	Dy	0.01116	0.27717	0.18889	1.692
Mof_O 	O 	0.904	0.2414	0.21489	-0.465
Mof_O 	O 	0.8726	0.0892	0.22057	-0.508
Mof_O 	O 	0.7824	0.3862	0.28226	-0.514
Mof_O 	O 	0.6298	0.4082	0.28473	-0.625
Mof_O 	O 	0.8624	0.1758	0.07775	-0.386
Mof_O 	O 	0.9898	0.1786	0.09732	-0.42
Mof_O 	O 	0.9553	0.1311	0.1787	-0.512
Mof_O 	O 	0.8896	0.9919	0.17981	-0.375
Mof_O 	O 	0.9745	0.4302	0.206	-0.29
Mof_C 	C 	0.8528	0.1758	0.22128	0.477
Mof_C 	C 	0.761	0.2041	0.23166	-0.174
Mof_C 	C 	0.7659	0.2703	0.24748	0.113
Mof_H 	H 	0.8242	0.2965	0.2509	0.024
Mof_C 	C 	0.6866	0.2994	0.25862	-0.204
Mof_C 	C 	0.5994	0.261	0.25324	0.092
Mof_H 	H 	0.5455	0.279	0.2607	-0.002
Mof_C 	C 	0.5926	0.1972	0.23716	-0.149
Mof_H 	H 	0.5336	0.1735	0.2335	0.073
Mof_C 	C 	0.6745	0.1657	0.22579	0.043
Mof_C 	C 	0.6999	0.37	0.27625	0.487
Mof_C 	C 	0.6642	0.0982	0.20761	0.129
Mof_C 	C 	0.6174	0.0139	0.2099	-0.366
Mof_H 	H 	0.5908	0.9981	0.2229	0.19
Mof_C 	C 	0.6096	0.9525	0.19292	0.212
Mof_H 	H 	0.5776	0.8956	0.1947	-0.044
Mof_C 	C 	0.6486	0.9745	0.17336	-0.132
Mof_H 	H 	0.6435	0.9325	0.1621	0.084
Mof_C 	C 	0.6952	0.0593	0.17086	0.031
Mof_C 	C 	0.7019	0.1221	0.18776	-0.152
Mof_H 	H 	0.7315	0.1802	0.1859	0.091
Mof_C 	C 	0.7462	0.0829	0.1507	0.055
Mof_C 	C 	0.7022	0.0964	0.13148	-0.134
Mof_H 	H 	0.6372	0.0873	0.1305	0.061
Mof_C 	C 	0.7505	0.1225	0.11382	0.049
Mof_H 	H 	0.7183	0.1339	0.1012	0.016
Mof_C 	C 	0.8473	0.1323	0.1146	-0.124
Mof_C 	C 	0.8935	0.1201	0.13337	0.068
Mof_H 	H 	0.9584	0.1299	0.1341	0.025
Mof_C 	C 	0.8443	0.0933	0.15136	-0.144
Mof_C 	C 	0.9026	0.1637	0.09544	0.329
Mof_C 	C 	0.8983	0.0702	0.17147	0.377
Mof_Dy	Dy	0.51116	0.77717	0.68889	1.931
Mof_O 	O 	0.404	0.7414	0.71489	-0.524
Mof_O 	O 	0.3726	0.5892	0.72057	-0.556
Mof_O 	O 	0.2824	0.8862	0.78226	-0.521
Mof_O 	O 	0.1298	0.9082	0.78473	-0.577
Mof_O 	O 	0.3624	0.6758	0.57775	-0.416
Mof_O 	O 	0.4898	0.6786	0.59732	-0.47
Mof_O 	O 	0.4553	0.6311	0.6787	-0.605
Mof_O 	O 	0.3896	0.4919	0.67981	-0.492
Mof_O 	O 	0.4745	0.9302	0.706	-0.323
Mof_C 	C 	0.3528	0.6758	0.72128	0.516
Mof_C 	C 	0.261	0.7041	0.73166	-0.212
Mof_C 	C 	0.2659	0.7703	0.74748	0.141
Mof_H 	H 	0.3242	0.7965	0.7509	0.012
Mof_C 	C 	0.1866	0.7994	0.75862	-0.215
Mof_C 	C 	0.0994	0.761	0.75324	0.12
Mof_H 	H 	0.0455	0.779	0.7607	-0.02
Mof_C 	C 	0.0926	0.6972	0.73716	-0.186
Mof_H 	H 	0.0336	0.6735	0.7335	0.079
Mof_C 	C 	0.1745	0.6657	0.72579	0.111
Mof_C 	C 	0.1999	0.87	0.77625	0.48
Mof_C 	C 	0.1642	0.5982	0.70761	-0.002
Mof_C 	C 	0.1174	0.5139	0.7099	-0.072
Mof_H 	H 	0.0908	0.4981	0.7229	0.039
Mof_C 	C 	0.1096	0.4525	0.69292	-0.018
Mof_H 	H 	0.0776	0.3956	0.6947	0.015
Mof_C 	C 	0.1486	0.4745	0.67336	-0.072
Mof_H 	H 	0.1435	0.4325	0.6621	0.038
Mof_C 	C 	0.1952	0.5593	0.67086	-0
Mof_C 	C 	0.2019	0.6221	0.68776	-0.067
Mof_H 	H 	0.2315	0.6802	0.6859	0.059
Mof_C 	C 	0.2462	0.5829	0.6507	0.1
Mof_C 	C 	0.2022	0.5964	0.63148	-0.167
Mof_H 	H 	0.1372	0.5873	0.6305	0.074
Mof_C 	C 	0.2505	0.6225	0.61382	0.081
Mof_H 	H 	0.2183	0.6339	0.6012	0.005
Mof_C 	C 	0.3473	0.6323	0.6146	-0.153
Mof_C 	C 	0.3935	0.6201	0.63337	0.109
Mof_H 	H 	0.4584	0.6299	0.6341	0.002
Mof_C 	C 	0.3443	0.5933	0.65136	-0.193
Mof_C 	C 	0.4026	0.6637	0.59544	0.345
Mof_C 	C 	0.3983	0.5702	0.67147	0.474
Mof_Dy	Dy	0.98884	0.72283	0.18889	2.124
Mof_O 	O 	0.096	0.7586	0.21489	-0.562
Mof_O 	O 	0.1274	0.9108	0.22057	-0.507
Mof_O 	O 	0.2176	0.6138	0.28226	-0.528
Mof_O 	O 	0.3702	0.5918	0.28473	-0.63
Mof_O 	O 	0.1376	0.8242	0.07775	-0.435
Mof_O 	O 	0.0102	0.8214	0.09732	-0.512
Mof_O 	O 	0.0447	0.8689	0.1787	-0.651
Mof_O 	O 	0.1104	0.0081	0.17981	-0.544
Mof_O 	O 	0.0255	0.5698	0.206	-0.406
Mof_C 	C 	0.1472	0.8242	0.22128	0.525
Mof_C 	C 	0.239	0.7959	0.23166	-0.246
Mof_C 	C 	0.2341	0.7297	0.24748	0.175
Mof_H 	H 	0.1758	0.7035	0.2509	-0.009
Mof_C 	C 	0.3134	0.7006	0.25862	-0.252
Mof_C 	C 	0.4006	0.739	0.25324	0.16
Mof_H 	H 	0.4545	0.721	0.2607	-0.025
Mof_C 	C 	0.4074	0.8028	0.23716	-0.233
Mof_H 	H 	0.4664	0.8265	0.2335	0.113
Mof_C 	C 	0.3255	0.8343	0.22579	0.185
Mof_C 	C 	0.3001	0.63	0.27625	0.506
Mof_C 	C 	0.3358	0.9018	0.20761	-0.13
Mof_C 	C 	0.3826	0.9861	0.2099	0.238
Mof_H 	H 	0.4092	0.0019	0.2229	-0.095
Mof_C 	C 	0.3904	0.0475	0.19292	-0.24
Mof_H 	H 	0.4224	0.1044	0.1947	0.104
Mof_C 	C 	0.3514	0.0255	0.17336	-0.006
Mof_H 	H 	0.3565	0.0675	0.1621	0.009
Mof_C 	C 	0.3048	0.9407	0.17086	-0.023
Mof_C 	C 	0.2981	0.8779	0.18776	0.023
Mof_H 	H 	0.2685	0.8198	0.1859	0.028
Mof_C 	C 	0.2538	0.9171	0.1507	0.149
Mof_C 	C 	0.2978	0.9036	0.13148	-0.199
Mof_H 	H 	0.3628	0.9127	0.1305	0.105
Mof_C 	C 	0.2495	0.8775	0.11382	0.119
Mof_H 	H 	0.2817	0.8661	0.1012	0.004
Mof_C 	C 	0.1527	0.8677	0.1146	-0.177
Mof_C 	C 	0.1065	0.8799	0.13337	0.15
Mof_H 	H 	0.0416	0.8701	0.1341	-0.019
Mof_C 	C 	0.1557	0.9067	0.15136	-0.237
Mof_C 	C 	0.0974	0.8363	0.09544	0.365
Mof_C 	C 	0.1017	0.9298	0.17147	0.561
Mof_Dy	Dy	0.48884	0.22283	0.68889	1.889
Mof_O 	O 	0.596	0.2586	0.71489	-0.523
Mof_O 	O 	0.6274	0.4108	0.72057	-0.555
Mof_O 	O 	0.7176	0.1138	0.78226	-0.508
Mof_O 	O 	0.8702	0.0918	0.78473	-0.578
Mof_O 	O 	0.6376	0.3242	0.57775	-0.411
Mof_O 	O 	0.5102	0.3214	0.59732	-0.473
Mof_O 	O 	0.5447	0.3689	0.6787	-0.601
Mof_O 	O 	0.6104	0.5081	0.67981	-0.489
Mof_O 	O 	0.5255	0.0698	0.706	-0.377
Mof_C 	C 	0.6472	0.3242	0.72128	0.515
Mof_C 	C 	0.739	0.2959	0.73166	-0.214
Mof_C 	C 	0.7341	0.2297	0.74748	0.139
Mof_H 	H 	0.6758	0.2035	0.7509	0.004
Mof_C 	C 	0.8134	0.2006	0.75862	-0.214
Mof_C 	C 	0.9006	0.239	0.75324	0.116
Mof_H 	H 	0.9545	0.221	0.7607	0.008
Mof_C 	C 	0.9074	0.3028	0.73716	-0.185
Mof_H 	H 	0.9664	0.3265	0.7335	0.104
Mof_C 	C 	0.8255	0.3343	0.72579	0.115
Mof_C 	C 	0.8001	0.13	0.77625	0.471
Mof_C 	C 	0.8358	0.4018	0.70761	0.003
Mof_C 	C 	0.8826	0.4861	0.7099	-0.062
Mof_H 	H 	0.9092	0.5019	0.7229	0.059
Mof_C 	C 	0.8904	0.5475	0.69292	-0.007
Mof_H 	H 	0.9224	0.6044	0.6947	0.045
Mof_C 	C 	0.8514	0.5255	0.67336	-0.063
Mof_H 	H 	0.8565	0.5675	0.6621	0.055
Mof_C 	C 	0.8048	0.4407	0.67086	0.004
Mof_C 	C 	0.7981	0.3779	0.68776	-0.062
Mof_H 	H 	0.7685	0.3198	0.6859	0.059
Mof_C 	C 	0.7538	0.4171	0.6507	0.107
Mof_C 	C 	0.7978	0.4036	0.63148	-0.17
Mof_H 	H 	0.8628	0.4127	0.6305	0.092
Mof_C 	C 	0.7495	0.3775	0.61382	0.089
Mof_H 	H 	0.7817	0.3661	0.6012	0.012
Mof_C 	C 	0.6527	0.3677	0.6146	-0.154
Mof_C 	C 	0.6065	0.3799	0.63337	0.113
Mof_H 	H 	0.5416	0.3701	0.6341	-0.001
Mof_C 	C 	0.6557	0.4067	0.65136	-0.194
Mof_C 	C 	0.5974	0.3363	0.59544	0.348
Mof_C 	C 	0.6017	0.4298	0.67147	0.472
Mof_Dy	Dy	-8.36177e-33	0.5	0.45908	1.988
Mof_Dy	Dy	0.5	3.20308e-32	0.95908	1.97
Mof_Dy	Dy	0.5	0	0.54092	1.988
Mof_Dy	Dy	6.82206e-34	0.5	0.04092	1.97
Mof_Dy	Dy	0.5	0.5	0.29092	2.133
Mof_Dy	Dy	1.3186e-32	0	0.79092	1.825
Mof_Dy	Dy	1.14934e-32	0	0.20908	1.825
Mof_Dy	Dy	0.5	0.5	0.70908	2.133
Mof_C 	C 	0.5	0.5	0.4439	0.347
Mof_H 	H 	0.5	0.5	0.4292	-0.157
Mof_C 	C 	4.77673e-32	3.20308e-32	0.9439	0.17
Mof_H 	H 	-1.65395e-32	-3.20308e-32	0.9292	-0.134
Mof_C 	C 	0.5	0.5	0.5561	0.346
Mof_H 	H 	0.5	0.5	0.5708	-0.157
Mof_C 	C 	9.35283e-34	-2.00193e-33	0.0561	0.162
Mof_H 	H 	-2.8235e-33	0	0.0708	-0.132
Mof_C 	C 	5.10321e-33	0.5	0.3061	0.258
Mof_H 	H 	-1.06671e-32	0.5	0.3208	-0.145
Mof_C 	C 	0.5	0	0.8061	0.254
Mof_H 	H 	0.5	0	0.8208	-0.145
Mof_C 	C 	3.23264e-33	0.5	0.1939	0.253
Mof_H 	H 	2.98757e-33	0.5	0.1792	-0.144
Mof_C 	C 	0.5	3.20308e-32	0.6939	0.257
Mof_H 	H 	0.5	0	0.6792	-0.145
_end
