# CIF file generated by openbabel 3.1.0, see https://openbabel.org
data_I
_chemical_name_common 'AKUHOD_clean'
_cell_length_a 10.527
_cell_length_b 10.527
_cell_length_c 10.8872
_cell_angle_alpha 101.098
_cell_angle_beta 117.544
_cell_angle_gamma 108.824
_space_group_name_H-M_alt 'P 1'
_space_group_name_Hall 'P 1'
loop_
    _symmetry_equiv_pos_as_xyz
    x,y,z
loop_
    _atom_site_label
    _atom_site_type_symbol
    _atom_site_fract_x
    _atom_site_fract_y
    _atom_site_fract_z
    _atom_site_occupancy
    Gd1      Gd       0.05206    0.36557    0.12041    1.000
    Gd2      Gd       0.74516    0.93165    0.37959    1.000
    Gd3      Gd       0.94794    0.63443    0.87959    1.000
    Gd4      Gd       0.25484    0.06835    0.62041    1.000
    H1       H        0.61700    0.48900    0.35200    1.000
    H2       H        0.43800    0.37800    0.17600    1.000
    H3       H        0.23400    0.37300    0.80300    1.000
    H4       H        0.63700    0.26500    0.14800    1.000
    H5       H        0.70200    0.26200    0.32400    1.000
    H6       H        0.07000    0.43100    0.69700    1.000
    H7       H        0.38300    0.51100    0.64800    1.000
    H8       H        0.56200    0.62200    0.82400    1.000
    H9       H        0.76600    0.62700    0.19700    1.000
    H10      H        0.36300    0.73500    0.85200    1.000
    H11      H        0.29800    0.73800    0.67600    1.000
    H12      H        0.93000    0.56900    0.30300    1.000
    C1       C        0.48830    0.44810    0.27920    1.000
    C2       C        0.45250    0.57288    0.25618    1.000
    C3       C        0.40250    0.35117    0.33147    1.000
    C4       C        0.99910    0.22328    0.62458    1.000
    C5       C        0.66890    0.20910    0.22080    1.000
    C6       C        0.81670    0.19632    0.24382    1.000
    C7       C        0.51970    0.07103    0.16853    1.000
    C8       C        0.09870    0.37452    0.87542    1.000
    C9       C        0.51170    0.55190    0.72080    1.000
    C10      C        0.54750    0.42712    0.74382    1.000
    C11      C        0.59750    0.64883    0.66853    1.000
    C12      C        0.00090    0.77672    0.37542    1.000
    C13      C        0.33110    0.79090    0.77920    1.000
    C14      C        0.18330    0.80368    0.75618    1.000
    C15      C        0.48030    0.92897    0.83147    1.000
    C16      C        0.90130    0.62548    0.12458    1.000
    C17      C        0.12490    0.37490    0.75000    1.000
    C18      C        0.87510    0.62510    0.25000    1.000
    O1       O        0.31316    0.55812    0.20722    1.000
    O2       O        0.25318    0.31023    0.27465    1.000
    O3       O        0.85147    0.18965    0.55844    1.000
    O4       O        0.48299    0.31207    0.42812    1.000
    O5       O        0.56843    0.68537    0.28454    1.000
    O6       O        0.04273    0.13041    0.59160    1.000
    O7       O        0.85090    0.10594    0.29278    1.000
    O8       O        0.53558    0.97853    0.22535    1.000
    O9       O        0.13121    0.29303    0.94156    1.000
    O10      O        0.38395    0.05487    0.07188    1.000
    O11      O        0.90083    0.28389    0.21546    1.000
    O12      O        0.03881    0.45113    0.90840    1.000
    O13      O        0.68684    0.44188    0.79278    1.000
    O14      O        0.74682    0.68977    0.72535    1.000
    O15      O        0.14853    0.81035    0.44156    1.000
    O16      O        0.51701    0.68793    0.57188    1.000
    O17      O        0.43157    0.31463    0.71546    1.000
    O18      O        0.95727    0.86959    0.40840    1.000
    O19      O        0.14910    0.89406    0.70722    1.000
    O20      O        0.46442    0.02147    0.77465    1.000
    O21      O        0.86879    0.70697    0.05844    1.000
    O22      O        0.61605    0.94513    0.92812    1.000
    O23      O        0.09917    0.71611    0.78454    1.000
    O24      O        0.96119    0.54887    0.09160    1.000
