# CIF file generated by openbabel 3.1.0, see https://openbabel.org
data_I
_chemical_name_common 'UKUBIM_clean'
_cell_length_a 12.2731
_cell_length_b 12.2731
_cell_length_c 25.135
_cell_angle_alpha 90
_cell_angle_beta 90
_cell_angle_gamma 90
_space_group_name_H-M_alt 'P 1'
_space_group_name_Hall 'P 1'
loop_
    _symmetry_equiv_pos_as_xyz
    x,y,z
loop_
    _atom_site_label
    _atom_site_type_symbol
    _atom_site_fract_x
    _atom_site_fract_y
    _atom_site_fract_z
    _atom_site_occupancy
    Cd1      Cd       0.75000    0.75000    0.92322    1.000
    Cd2      Cd       0.25000    0.25000    0.42322    1.000
    H1       H        0.91900    0.57300    0.86940    1.000
    H2       H        0.93520    0.43500    0.80810    1.000
    H3       H        0.63350    0.50460    0.75900    1.000
    H4       H        0.62600    0.63790    0.82290    1.000
    H5       H        0.64770    0.32470    0.72780    1.000
    H6       H        0.69320    0.40790    0.68560    1.000
    H7       H        0.60170    0.17350    0.66090    1.000
    H8       H        0.68150    0.15720    0.61240    1.000
    H9       H        0.41940    0.11370    0.49720    1.000
    H10      H        0.54030    0.12130    0.56730    1.000
    H11      H        0.49980    0.44360    0.56600    1.000
    H12      H        0.37830    0.42300    0.49770    1.000
    H13      H        0.50870    0.77080    0.94750    1.000
    H14      H        0.58100    0.92700    0.86940    1.000
    H15      H        0.56480    0.06500    0.80810    1.000
    H16      H        0.86650    0.99540    0.75900    1.000
    H17      H        0.87400    0.86210    0.82290    1.000
    H18      H        0.85230    0.17530    0.72780    1.000
    H19      H        0.80680    0.09210    0.68560    1.000
    H20      H        0.89830    0.32650    0.66090    1.000
    H21      H        0.81850    0.34280    0.61240    1.000
    H22      H        0.08060    0.38630    0.49720    1.000
    H23      H        0.95970    0.37870    0.56730    1.000
    H24      H        0.00020    0.05640    0.56600    1.000
    H25      H        0.12170    0.07700    0.49770    1.000
    H26      H        0.99130    0.72920    0.94750    1.000
    H27      H        0.42700    0.41900    0.36940    1.000
    H28      H        0.56500    0.43520    0.30810    1.000
    H29      H        0.49540    0.13350    0.25900    1.000
    H30      H        0.36210    0.12600    0.32290    1.000
    H31      H        0.67530    0.14770    0.22780    1.000
    H32      H        0.59210    0.19320    0.18560    1.000
    H33      H        0.82650    0.10170    0.16090    1.000
    H34      H        0.84280    0.18150    0.11240    1.000
    H35      H        0.88630    0.91940    0.99720    1.000
    H36      H        0.87870    0.04030    0.06730    1.000
    H37      H        0.55640    0.99980    0.06600    1.000
    H38      H        0.57700    0.87830    0.99770    1.000
    H39      H        0.22920    0.00870    0.44750    1.000
    H40      H        0.07300    0.08100    0.36940    1.000
    H41      H        0.93500    0.06480    0.30810    1.000
    H42      H        0.00460    0.36650    0.25900    1.000
    H43      H        0.13790    0.37400    0.32290    1.000
    H44      H        0.82470    0.35230    0.22780    1.000
    H45      H        0.90790    0.30680    0.18560    1.000
    H46      H        0.67350    0.39830    0.16090    1.000
    H47      H        0.65720    0.31850    0.11240    1.000
    H48      H        0.61370    0.58060    0.99720    1.000
    H49      H        0.62130    0.45970    0.06730    1.000
    H50      H        0.94360    0.50020    0.06600    1.000
    H51      H        0.92300    0.62170    0.99770    1.000
    H52      H        0.27080    0.49130    0.44750    1.000
    C1       C        0.85990    0.55790    0.84754    1.000
    C2       C        0.87110    0.47510    0.81030    1.000
    C3       C        0.78520    0.45390    0.77681    1.000
    C4       C        0.69260    0.51600    0.78140    1.000
    C5       C        0.68900    0.59620    0.82030    1.000
    C6       C        0.71170    0.34560    0.70753    1.000
    C7       C        0.65570    0.20910    0.63868    1.000
    C8       C        0.43560    0.18160    0.51160    1.000
    C9       C        0.51030    0.18470    0.55340    1.000
    C10      C        0.53730    0.28390    0.57272    1.000
    C11      C        0.48540    0.37460    0.55240    1.000
    C12      C        0.41180    0.36120    0.51150    1.000
    C13      C        0.64010    0.94210    0.84754    1.000
    C14      C        0.62890    0.02490    0.81030    1.000
    C15      C        0.71480    0.04610    0.77681    1.000
    C16      C        0.80740    0.98400    0.78140    1.000
    C17      C        0.81100    0.90380    0.82030    1.000
    C18      C        0.78830    0.15440    0.70753    1.000
    C19      C        0.84430    0.29090    0.63868    1.000
    C20      C        0.06440    0.31840    0.51160    1.000
    C21      C        0.98970    0.31530    0.55340    1.000
    C22      C        0.96270    0.21610    0.57272    1.000
    C23      C        0.01460    0.12540    0.55240    1.000
    C24      C        0.08820    0.13880    0.51150    1.000
    C25      C        0.44210    0.35990    0.34754    1.000
    C26      C        0.52490    0.37110    0.31030    1.000
    C27      C        0.54610    0.28520    0.27681    1.000
    C28      C        0.48400    0.19260    0.28140    1.000
    C29      C        0.40380    0.18900    0.32030    1.000
    C30      C        0.65440    0.21170    0.20753    1.000
    C31      C        0.79090    0.15570    0.13868    1.000
    C32      C        0.81840    0.93560    0.01160    1.000
    C33      C        0.81530    0.01030    0.05340    1.000
    C34      C        0.71610    0.03730    0.07272    1.000
    C35      C        0.62540    0.98540    0.05240    1.000
    C36      C        0.63880    0.91180    0.01150    1.000
    C37      C        0.05790    0.14010    0.34754    1.000
    C38      C        0.97510    0.12890    0.31030    1.000
    C39      C        0.95390    0.21480    0.27681    1.000
    C40      C        0.01600    0.30740    0.28140    1.000
    C41      C        0.09620    0.31100    0.32030    1.000
    C42      C        0.84560    0.28830    0.20753    1.000
    C43      C        0.70910    0.34430    0.13868    1.000
    C44      C        0.68160    0.56440    0.01160    1.000
    C45      C        0.68470    0.48970    0.05340    1.000
    C46      C        0.78390    0.46270    0.07272    1.000
    C47      C        0.87460    0.51460    0.05240    1.000
    C48      C        0.86120    0.58820    0.01150    1.000
    C49      C        0.75000    0.25000    0.67250    1.000
    C50      C        0.75000    0.25000    0.17250    1.000
    S1       S        0.54178    0.72386    0.92154    1.000
    S2       S        0.95822    0.77614    0.92154    1.000
    S3       S        0.27614    0.04178    0.42154    1.000
    S4       S        0.22386    0.45822    0.42154    1.000
    N1       N        0.76980    0.61720    0.85394    1.000
    N2       N        0.38620    0.26680    0.49086    1.000
    N3       N        0.73020    0.88280    0.85394    1.000
    N4       N        0.11380    0.23320    0.49086    1.000
    N5       N        0.38280    0.26980    0.35394    1.000
    N6       N        0.73320    0.88620    0.99086    1.000
    N7       N        0.11720    0.23020    0.35394    1.000
    N8       N        0.76680    0.61380    0.99086    1.000
    O1       O        0.79930    0.37230    0.74258    1.000
    O2       O        0.60920    0.30250    0.61290    1.000
    O3       O        0.70070    0.12770    0.74258    1.000
    O4       O        0.89080    0.19750    0.61290    1.000
    O5       O        0.62770    0.29930    0.24258    1.000
    O6       O        0.69750    0.10920    0.11290    1.000
    O7       O        0.87230    0.20070    0.24258    1.000
    O8       O        0.80250    0.39080    0.11290    1.000
    Cd3      Cd       0.25000    0.25000    0.07678    1.000
    Cd4      Cd       0.75000    0.75000    0.57678    1.000
    H53      H        0.08100    0.42700    0.13060    1.000
    H54      H        0.06480    0.56500    0.19190    1.000
    H55      H        0.36650    0.49540    0.24100    1.000
    H56      H        0.37400    0.36210    0.17710    1.000
    H57      H        0.35230    0.67530    0.27220    1.000
    H58      H        0.30680    0.59210    0.31440    1.000
    H59      H        0.39830    0.82650    0.33910    1.000
    H60      H        0.31850    0.84280    0.38760    1.000
    H61      H        0.58060    0.88630    0.50280    1.000
    H62      H        0.45970    0.87870    0.43270    1.000
    H63      H        0.50020    0.55640    0.43400    1.000
    H64      H        0.62170    0.57700    0.50230    1.000
    H65      H        0.49130    0.22920    0.05250    1.000
    H66      H        0.41900    0.07300    0.13060    1.000
    H67      H        0.43520    0.93500    0.19190    1.000
    H68      H        0.13350    0.00460    0.24100    1.000
    H69      H        0.12600    0.13790    0.17710    1.000
    H70      H        0.14770    0.82470    0.27220    1.000
    H71      H        0.19320    0.90790    0.31440    1.000
    H72      H        0.10170    0.67350    0.33910    1.000
    H73      H        0.18150    0.65720    0.38760    1.000
    H74      H        0.91940    0.61370    0.50280    1.000
    H75      H        0.04030    0.62130    0.43270    1.000
    H76      H        0.99980    0.94360    0.43400    1.000
    H77      H        0.87830    0.92300    0.50230    1.000
    H78      H        0.00870    0.27080    0.05250    1.000
    H79      H        0.57300    0.58100    0.63060    1.000
    H80      H        0.43500    0.56480    0.69190    1.000
    H81      H        0.50460    0.86650    0.74100    1.000
    H82      H        0.63790    0.87400    0.67710    1.000
    H83      H        0.32470    0.85230    0.77220    1.000
    H84      H        0.40790    0.80680    0.81440    1.000
    H85      H        0.17350    0.89830    0.83910    1.000
    H86      H        0.15720    0.81850    0.88760    1.000
    H87      H        0.11370    0.08060    0.00280    1.000
    H88      H        0.12130    0.95970    0.93270    1.000
    H89      H        0.44360    0.00020    0.93400    1.000
    H90      H        0.42300    0.12170    0.00230    1.000
    H91      H        0.77080    0.99130    0.55250    1.000
    H92      H        0.92700    0.91900    0.63060    1.000
    H93      H        0.06500    0.93520    0.69190    1.000
    H94      H        0.99540    0.63350    0.74100    1.000
    H95      H        0.86210    0.62600    0.67710    1.000
    H96      H        0.17530    0.64770    0.77220    1.000
    H97      H        0.09210    0.69320    0.81440    1.000
    H98      H        0.32650    0.60170    0.83910    1.000
    H99      H        0.34280    0.68150    0.88760    1.000
    H100     H        0.38630    0.41940    0.00280    1.000
    H101     H        0.37870    0.54030    0.93270    1.000
    H102     H        0.05640    0.49980    0.93400    1.000
    H103     H        0.07700    0.37830    0.00230    1.000
    H104     H        0.72920    0.50870    0.55250    1.000
    C51      C        0.14010    0.44210    0.15246    1.000
    C52      C        0.12890    0.52490    0.18970    1.000
    C53      C        0.21480    0.54610    0.22319    1.000
    C54      C        0.30740    0.48400    0.21860    1.000
    C55      C        0.31100    0.40380    0.17970    1.000
    C56      C        0.28830    0.65440    0.29247    1.000
    C57      C        0.34430    0.79090    0.36132    1.000
    C58      C        0.56440    0.81840    0.48840    1.000
    C59      C        0.48970    0.81530    0.44660    1.000
    C60      C        0.46270    0.71610    0.42728    1.000
    C61      C        0.51460    0.62540    0.44760    1.000
    C62      C        0.58820    0.63880    0.48850    1.000
    C63      C        0.35990    0.05790    0.15246    1.000
    C64      C        0.37110    0.97510    0.18970    1.000
    C65      C        0.28520    0.95390    0.22319    1.000
    C66      C        0.19260    0.01600    0.21860    1.000
    C67      C        0.18900    0.09620    0.17970    1.000
    C68      C        0.21170    0.84560    0.29247    1.000
    C69      C        0.15570    0.70910    0.36132    1.000
    C70      C        0.93560    0.68160    0.48840    1.000
    C71      C        0.01030    0.68470    0.44660    1.000
    C72      C        0.03730    0.78390    0.42728    1.000
    C73      C        0.98540    0.87460    0.44760    1.000
    C74      C        0.91180    0.86120    0.48850    1.000
    C75      C        0.55790    0.64010    0.65246    1.000
    C76      C        0.47510    0.62890    0.68970    1.000
    C77      C        0.45390    0.71480    0.72319    1.000
    C78      C        0.51600    0.80740    0.71860    1.000
    C79      C        0.59620    0.81100    0.67970    1.000
    C80      C        0.34560    0.78830    0.79247    1.000
    C81      C        0.20910    0.84430    0.86132    1.000
    C82      C        0.18160    0.06440    0.98840    1.000
    C83      C        0.18470    0.98970    0.94660    1.000
    C84      C        0.28390    0.96270    0.92728    1.000
    C85      C        0.37460    0.01460    0.94760    1.000
    C86      C        0.36120    0.08820    0.98850    1.000
    C87      C        0.94210    0.85990    0.65246    1.000
    C88      C        0.02490    0.87110    0.68970    1.000
    C89      C        0.04610    0.78520    0.72319    1.000
    C90      C        0.98400    0.69260    0.71860    1.000
    C91      C        0.90380    0.68900    0.67970    1.000
    C92      C        0.15440    0.71170    0.79247    1.000
    C93      C        0.29090    0.65570    0.86132    1.000
    C94      C        0.31840    0.43560    0.98840    1.000
    C95      C        0.31530    0.51030    0.94660    1.000
    C96      C        0.21610    0.53730    0.92728    1.000
    C97      C        0.12540    0.48540    0.94760    1.000
    C98      C        0.13880    0.41180    0.98850    1.000
    C99      C        0.25000    0.75000    0.32750    1.000
    C100     C        0.25000    0.75000    0.82750    1.000
    S5       S        0.45822    0.27614    0.07846    1.000
    S6       S        0.04178    0.22386    0.07846    1.000
    S7       S        0.72386    0.95822    0.57846    1.000
    S8       S        0.77614    0.54178    0.57846    1.000
    N9       N        0.23020    0.38280    0.14606    1.000
    N10      N        0.61380    0.73320    0.50914    1.000
    N11      N        0.26980    0.11720    0.14606    1.000
    N12      N        0.88620    0.76680    0.50914    1.000
    N13      N        0.61720    0.73020    0.64606    1.000
    N14      N        0.26680    0.11380    0.00914    1.000
    N15      N        0.88280    0.76980    0.64606    1.000
    N16      N        0.23320    0.38620    0.00914    1.000
    O9       O        0.20070    0.62770    0.25742    1.000
    O10      O        0.39080    0.69750    0.38710    1.000
    O11      O        0.29930    0.87230    0.25742    1.000
    O12      O        0.10920    0.80250    0.38710    1.000
    O13      O        0.37230    0.70070    0.75742    1.000
    O14      O        0.30250    0.89080    0.88710    1.000
    O15      O        0.12770    0.79930    0.75742    1.000
    O16      O        0.19750    0.60920    0.88710    1.000
