# CIF file generated by openbabel 3.1.0, see https://openbabel.org
data_I
_chemical_name_common 'image0'
_cell_length_a 8.13
_cell_length_b 22.358
_cell_length_c 10.538
_cell_angle_alpha 90
_cell_angle_beta 112.357
_cell_angle_gamma 90
_space_group_name_H-M_alt 'P 1'
_space_group_name_Hall 'P 1'
loop_
    _symmetry_equiv_pos_as_xyz
    x,y,z
loop_
    _atom_site_label
    _atom_site_type_symbol
    _atom_site_fract_x
    _atom_site_fract_y
    _atom_site_fract_z
    _atom_site_occupancy
    Zn1      Zn       0.84223    0.19393    0.41381    1.000
    Zn2      Zn       0.28353    0.03194    0.33221    1.000
    Cl1      Cl       0.30358    0.97535    0.15615    1.000
    P1       P        0.00350    0.14788    0.20862    1.000
    P2       P        0.69687    0.07216    0.46679    1.000
    P3       P        0.48756    0.22974    0.19198    1.000
    O1       O        0.10030    0.08990    0.24960    1.000
    O2       O        0.04820    0.18120    0.09890    1.000
    O3       O        0.02950    0.18758    0.33270    1.000
    O4       O        0.78720    0.01704    0.54670    1.000
    O5       O        0.79090    0.13018    0.53140    1.000
    O6       O        0.49930    0.07634    0.44410    1.000
    O7       O        0.31010    0.24580    0.20450    1.000
    H1       H        0.23490    0.22060    0.16410    1.000
    O8       O        0.63540    0.24919    0.32540    1.000
    O9       O        0.50160    0.25526    0.06550    1.000
    N1       N        0.69030    0.12899    0.23860    1.000
    C1       C        0.76460    0.13410    0.13110    1.000
    H2       H        0.70670    0.16670    0.06950    1.000
    H3       H        0.74210    0.09750    0.07790    1.000
    C2       C        0.71820    0.06870    0.30130    1.000
    H4       H        0.83560    0.05420    0.31320    1.000
    H5       H        0.63090    0.04110    0.24140    1.000
    C3       C        0.50060    0.14840    0.18650    1.000
    H6       H        0.43990    0.13460    0.09300    1.000
    H7       H        0.44200    0.13090    0.24250    1.000
    Zn3      Zn       0.65777    0.69393    0.08619    1.000
    Zn4      Zn       0.21647    0.53194    0.16779    1.000
    Cl2      Cl       0.19642    0.47535    0.34385    1.000
    P4       P        0.49650    0.64788    0.29138    1.000
    P5       P        0.80313    0.57216    0.03321    1.000
    P6       P        0.01244    0.72974    0.30802    1.000
    O10      O        0.39970    0.58990    0.25040    1.000
    O11      O        0.45180    0.68120    0.40110    1.000
    O12      O        0.47050    0.68758    0.16730    1.000
    O13      O        0.71280    0.51704    0.95330    1.000
    O14      O        0.70910    0.63018    0.96860    1.000
    O15      O        0.00070    0.57634    0.05590    1.000
    O16      O        0.18990    0.74580    0.29550    1.000
    H8       H        0.26510    0.72060    0.33590    1.000
    O17      O        0.86460    0.74919    0.17460    1.000
    O18      O        0.99840    0.75526    0.43450    1.000
    N2       N        0.80970    0.62899    0.26140    1.000
    C4       C        0.73540    0.63410    0.36890    1.000
    H9       H        0.79330    0.66670    0.43050    1.000
    H10      H        0.75790    0.59750    0.42210    1.000
    C5       C        0.78180    0.56870    0.19870    1.000
    H11      H        0.66440    0.55420    0.18680    1.000
    H12      H        0.86910    0.54110    0.25860    1.000
    C6       C        0.99940    0.64840    0.31350    1.000
    H13      H        0.06010    0.63460    0.40700    1.000
    H14      H        0.05800    0.63090    0.25750    1.000
    Zn5      Zn       0.15777    0.80607    0.58619    1.000
    Zn6      Zn       0.71647    0.96806    0.66779    1.000
    Cl3      Cl       0.69642    0.02465    0.84385    1.000
    P7       P        0.99650    0.85212    0.79138    1.000
    P8       P        0.30313    0.92784    0.53321    1.000
    P9       P        0.51244    0.77026    0.80802    1.000
    O19      O        0.89970    0.91010    0.75040    1.000
    O20      O        0.95180    0.81880    0.90110    1.000
    O21      O        0.97050    0.81242    0.66730    1.000
    O22      O        0.21280    0.98296    0.45330    1.000
    O23      O        0.20910    0.86982    0.46860    1.000
    O24      O        0.50070    0.92366    0.55590    1.000
    O25      O        0.68990    0.75420    0.79550    1.000
    H15      H        0.76510    0.77940    0.83590    1.000
    O26      O        0.36460    0.75081    0.67460    1.000
    O27      O        0.49840    0.74474    0.93450    1.000
    N3       N        0.30970    0.87101    0.76140    1.000
    C7       C        0.23540    0.86590    0.86890    1.000
    H16      H        0.29330    0.83330    0.93050    1.000
    H17      H        0.25790    0.90250    0.92210    1.000
    C8       C        0.28180    0.93130    0.69870    1.000
    H18      H        0.16440    0.94580    0.68680    1.000
    H19      H        0.36910    0.95890    0.75860    1.000
    C9       C        0.49940    0.85160    0.81350    1.000
    H20      H        0.56010    0.86540    0.90700    1.000
    H21      H        0.55800    0.86910    0.75750    1.000
    Zn7      Zn       0.34223    0.30607    0.91381    1.000
    Zn8      Zn       0.78353    0.46806    0.83221    1.000
    Cl4      Cl       0.80358    0.52465    0.65615    1.000
    P10      P        0.50350    0.35212    0.70862    1.000
    P11      P        0.19687    0.42784    0.96679    1.000
    P12      P        0.98756    0.27026    0.69198    1.000
    O28      O        0.60030    0.41010    0.74960    1.000
    O29      O        0.54820    0.31880    0.59890    1.000
    O30      O        0.52950    0.31242    0.83270    1.000
    O31      O        0.28720    0.48296    0.04670    1.000
    O32      O        0.29090    0.36982    0.03140    1.000
    O33      O        0.99930    0.42366    0.94410    1.000
    O34      O        0.81010    0.25420    0.70450    1.000
    H22      H        0.73490    0.27940    0.66410    1.000
    O35      O        0.13540    0.25081    0.82540    1.000
    O36      O        0.00160    0.24474    0.56550    1.000
    N4       N        0.19030    0.37101    0.73860    1.000
    C10      C        0.26460    0.36590    0.63110    1.000
    H23      H        0.20670    0.33330    0.56950    1.000
    H24      H        0.24210    0.40250    0.57790    1.000
    C11      C        0.21820    0.43130    0.80130    1.000
    H25      H        0.33560    0.44580    0.81320    1.000
    H26      H        0.13090    0.45890    0.74140    1.000
    C12      C        0.00060    0.35160    0.68650    1.000
    H27      H        0.93990    0.36540    0.59300    1.000
    H28      H        0.94200    0.36910    0.74250    1.000
