data_functionalizedCrystal
_audit_creation_method	'EQeq! by Chris Wilmer'
_symmetry_space_group_name_H-M	'P1'
_symmetry_Int_Tables_number	1
_symmetry_cell_setting	triclinic
loop_
_symmetry_equiv_pos_as_xyz
  x,y,z
_cell_length_a	28.54
_cell_length_b	12.983
_cell_length_c	15.834
_cell_angle_alpha	90
_cell_angle_beta	106.104
_cell_angle_gamma	90
loop_
_atom_site_label
_atom_site_type_symbol
_atom_site_fract_x
_atom_site_fract_y
_atom_site_fract_z
_atom_site_charge
Mof_Zn	Zn	0.31811	0.36395	0.08244	1.226
Mof_Zn	Zn	0.30689	0.10905	0.06775	1.225
Mof_C 	C 	0.41965	0.2115	0.0026	-0.111
Mof_C 	C 	0.43076	0.1154	0.9741	0.052
Mof_H 	H 	0.4307	0.0581	0.0093	0.036
Mof_C 	C 	0.44184	0.1026	0.8954	-0.11
Mof_C 	C 	0.4402	0.1868	0.8426	0.071
Mof_H 	H 	0.4471	0.179	0.7889	0.057
Mof_C 	C 	0.4286	0.2833	0.8677	-0.123
Mof_C 	C 	0.41823	0.2945	0.9478	0.063
Mof_H 	H 	0.4102	0.3592	0.9647	0.037
Mof_C 	C 	0.4554	0.9974	0.8687	0.374
Mof_C 	C 	0.4278	0.374	0.8104	0.403
Mof_C 	C 	0.28622	0.2531	0.7974	-0.054
Mof_C 	C 	0.2884	0.1673	0.7472	0.016
Mof_H 	H 	0.2836	0.1022	0.7679	0.064
Mof_C 	C 	0.29762	0.1773	0.666	-0.069
Mof_C 	C 	0.30391	0.2745	0.6348	0.021
Mof_H 	H 	0.3095	0.2816	0.5799	0.067
Mof_C 	C 	0.30195	0.3611	0.6845	-0.061
Mof_C 	C 	0.29273	0.3498	0.7648	0.007
Mof_H 	H 	0.2908	0.408	0.7979	0.069
Mof_C 	C 	0.30083	0.0837	0.6127	0.325
Mof_C 	C 	0.30967	0.4675	0.6537	0.305
Mof_O 	O 	0.45856	0.2116	0.1757	-0.406
Mof_O 	O 	0.38666	0.3253	0.1176	-0.417
Mof_O 	O 	0.37623	0.1297	0.1167	-0.454
Mof_O 	O 	0.44938	0.9201	0.9089	-0.272
Mof_O 	O 	0.47273	0.997	0.8042	-0.436
Mof_O 	O 	0.43356	0.3518	0.7337	-0.436
Mof_O 	O 	0.4231	0.4605	0.8323	-0.263
Mof_O 	O 	0.29834	0.337	0.95501	-0.474
Mof_O 	O 	0.2885	0.1414	0.94277	-0.484
Mof_O 	O 	0.21745	0.2583	0.88473	-0.563
Mof_O 	O 	0.28876	0.9986	0.639	-0.427
Mof_O 	O 	0.31544	0.0903	0.5461	-0.304
Mof_O 	O 	0.31593	0.4787	0.578	-0.397
Mof_O 	O 	0.31061	0.5436	0.7014	-0.338
Mof_P 	P 	0.40904	0.21937	0.10915	0.455
Mof_P 	P 	0.27331	0.24619	0.90248	0.431
Mof_H 	H 	0.434	0.402	0.698	0.269
Mof_Zn	Zn	0.81811	0.86395	0.08244	1.227
Mof_Zn	Zn	0.80689	0.60905	0.06775	1.226
Mof_C 	C 	0.91965	0.7115	0.0026	-0.101
Mof_C 	C 	0.93076	0.6154	0.9741	0.046
Mof_H 	H 	0.9307	0.5581	0.0093	0.044
Mof_C 	C 	0.94184	0.6026	0.8954	-0.096
Mof_C 	C 	0.9402	0.6868	0.8426	0.065
Mof_H 	H 	0.9471	0.679	0.7889	0.066
Mof_C 	C 	0.9286	0.7833	0.8677	-0.112
Mof_C 	C 	0.91823	0.7945	0.9478	0.059
Mof_H 	H 	0.9102	0.8592	0.9647	0.042
Mof_C 	C 	0.9554	0.4974	0.8687	0.37
Mof_C 	C 	0.9278	0.874	0.8104	0.403
Mof_C 	C 	0.78622	0.7531	0.7974	-0.054
Mof_C 	C 	0.7884	0.6673	0.7472	0.015
Mof_H 	H 	0.7836	0.6022	0.7679	0.064
Mof_C 	C 	0.79762	0.6773	0.666	-0.068
Mof_C 	C 	0.80391	0.7745	0.6348	0.021
Mof_H 	H 	0.8095	0.7816	0.5799	0.068
Mof_C 	C 	0.80195	0.8611	0.6845	-0.06
Mof_C 	C 	0.79273	0.8498	0.7648	0.006
Mof_H 	H 	0.7908	0.908	0.7979	0.07
Mof_C 	C 	0.80083	0.5837	0.6127	0.325
Mof_C 	C 	0.80967	0.9675	0.6537	0.305
Mof_O 	O 	0.95856	0.7116	0.1757	-0.385
Mof_O 	O 	0.88666	0.8253	0.1176	-0.413
Mof_O 	O 	0.87623	0.6297	0.1167	-0.452
Mof_O 	O 	0.94938	0.4201	0.9089	-0.257
Mof_O 	O 	0.97273	0.497	0.8042	-0.413
Mof_O 	O 	0.93356	0.8518	0.7337	-0.43
Mof_O 	O 	0.9231	0.9605	0.8323	-0.254
Mof_O 	O 	0.79834	0.837	0.95501	-0.474
Mof_O 	O 	0.7885	0.6414	0.94277	-0.484
Mof_O 	O 	0.71745	0.7583	0.88473	-0.562
Mof_O 	O 	0.78876	0.4986	0.639	-0.427
Mof_O 	O 	0.81544	0.5903	0.5461	-0.303
Mof_O 	O 	0.81593	0.9787	0.578	-0.395
Mof_O 	O 	0.81061	0.0436	0.7014	-0.337
Mof_P 	P 	0.90904	0.71937	0.10915	0.453
Mof_P 	P 	0.77331	0.74619	0.90248	0.431
Mof_H 	H 	0.934	0.902	0.698	0.274
Mof_Zn	Zn	0.68189	0.36395	0.41756	1.226
Mof_Zn	Zn	0.69311	0.10905	0.43225	1.225
Mof_C 	C 	0.58035	0.2115	0.4974	-0.115
Mof_C 	C 	0.56924	0.1154	0.5259	0.056
Mof_H 	H 	0.5693	0.0581	0.4907	0.033
Mof_C 	C 	0.55816	0.1026	0.6046	-0.112
Mof_C 	C 	0.5598	0.1868	0.6574	0.073
Mof_H 	H 	0.5529	0.179	0.7111	0.056
Mof_C 	C 	0.5714	0.2833	0.6323	-0.124
Mof_C 	C 	0.58177	0.2945	0.5522	0.066
Mof_H 	H 	0.5898	0.3592	0.5353	0.036
Mof_C 	C 	0.5446	0.9974	0.6313	0.375
Mof_C 	C 	0.5722	0.374	0.6896	0.404
Mof_C 	C 	0.71378	0.2531	0.7026	-0.054
Mof_C 	C 	0.7116	0.1673	0.7528	0.016
Mof_H 	H 	0.7164	0.1022	0.7321	0.064
Mof_C 	C 	0.70238	0.1773	0.834	-0.069
Mof_C 	C 	0.69609	0.2745	0.8652	0.021
Mof_H 	H 	0.6905	0.2816	0.9201	0.067
Mof_C 	C 	0.69805	0.3611	0.8155	-0.061
Mof_C 	C 	0.70727	0.3498	0.7352	0.007
Mof_H 	H 	0.7092	0.408	0.7021	0.069
Mof_C 	C 	0.69917	0.0837	0.8873	0.325
Mof_C 	C 	0.69033	0.4675	0.8463	0.305
Mof_O 	O 	0.54144	0.2116	0.3243	-0.406
Mof_O 	O 	0.61334	0.3253	0.3824	-0.417
Mof_O 	O 	0.62377	0.1297	0.3833	-0.455
Mof_O 	O 	0.55062	0.9201	0.5911	-0.272
Mof_O 	O 	0.52727	0.997	0.6958	-0.437
Mof_O 	O 	0.56644	0.3518	0.7663	-0.437
Mof_O 	O 	0.5769	0.4605	0.6677	-0.263
Mof_O 	O 	0.70166	0.337	0.54499	-0.474
Mof_O 	O 	0.7115	0.1414	0.55723	-0.483
Mof_O 	O 	0.78255	0.2583	0.61527	-0.562
Mof_O 	O 	0.71124	0.9986	0.861	-0.427
Mof_O 	O 	0.68456	0.0903	0.9539	-0.305
Mof_O 	O 	0.68407	0.4787	0.922	-0.397
Mof_O 	O 	0.68939	0.5436	0.7986	-0.338
Mof_P 	P 	0.59096	0.21937	0.39085	0.455
Mof_P 	P 	0.72669	0.24619	0.59752	0.431
Mof_H 	H 	0.566	0.402	0.802	0.269
Mof_Zn	Zn	0.18189	0.86395	0.41756	1.226
Mof_Zn	Zn	0.19311	0.60905	0.43225	1.225
Mof_C 	C 	0.08035	0.7115	0.4974	-0.123
Mof_C 	C 	0.06924	0.6154	0.5259	0.059
Mof_H 	H 	0.0693	0.5581	0.4907	0.027
Mof_C 	C 	0.05816	0.6026	0.6046	-0.124
Mof_C 	C 	0.0598	0.6868	0.6574	0.077
Mof_H 	H 	0.0529	0.679	0.7111	0.048
Mof_C 	C 	0.0714	0.7833	0.6323	-0.134
Mof_C 	C 	0.08177	0.7945	0.5522	0.069
Mof_H 	H 	0.0898	0.8592	0.5353	0.032
Mof_C 	C 	0.0446	0.4974	0.6313	0.377
Mof_C 	C 	0.0722	0.874	0.6896	0.404
Mof_C 	C 	0.21378	0.7531	0.7026	-0.055
Mof_C 	C 	0.2116	0.6673	0.7528	0.016
Mof_H 	H 	0.2164	0.6022	0.7321	0.064
Mof_C 	C 	0.20238	0.6773	0.834	-0.07
Mof_C 	C 	0.19609	0.7745	0.8652	0.022
Mof_H 	H 	0.1905	0.7816	0.9201	0.066
Mof_C 	C 	0.19805	0.8611	0.8155	-0.062
Mof_C 	C 	0.20727	0.8498	0.7352	0.008
Mof_H 	H 	0.2092	0.908	0.7021	0.069
Mof_C 	C 	0.19917	0.5837	0.8873	0.326
Mof_C 	C 	0.19033	0.9675	0.8463	0.306
Mof_O 	O 	0.04144	0.7116	0.3243	-0.421
Mof_O 	O 	0.11334	0.8253	0.3824	-0.42
Mof_O 	O 	0.12377	0.6297	0.3833	-0.456
Mof_O 	O 	0.05062	0.4201	0.5911	-0.286
Mof_O 	O 	0.02727	0.497	0.6958	-0.454
Mof_O 	O 	0.06644	0.8518	0.7663	-0.443
Mof_O 	O 	0.0769	0.9605	0.6677	-0.271
Mof_O 	O 	0.20166	0.837	0.54499	-0.474
Mof_O 	O 	0.2115	0.6414	0.55723	-0.483
Mof_O 	O 	0.28255	0.7583	0.61527	-0.562
Mof_O 	O 	0.21124	0.4986	0.861	-0.428
Mof_O 	O 	0.18456	0.5903	0.9539	-0.306
Mof_O 	O 	0.18407	0.9787	0.922	-0.398
Mof_O 	O 	0.18939	0.0436	0.7986	-0.339
Mof_P 	P 	0.09096	0.71937	0.39085	0.456
Mof_P 	P 	0.22669	0.74619	0.59752	0.431
Mof_H 	H 	0.066	0.902	0.802	0.263
Mof_Zn	Zn	0.68189	0.63605	0.91756	1.226
Mof_Zn	Zn	0.69311	0.89095	0.93225	1.225
Mof_C 	C 	0.58035	0.7885	0.9974	-0.115
Mof_C 	C 	0.56924	0.8846	0.0259	0.057
Mof_H 	H 	0.5693	0.9419	0.9907	0.033
Mof_C 	C 	0.55816	0.8974	0.1046	-0.112
Mof_C 	C 	0.5598	0.8132	0.1574	0.073
Mof_H 	H 	0.5529	0.821	0.2111	0.056
Mof_C 	C 	0.5714	0.7167	0.1323	-0.125
Mof_C 	C 	0.58177	0.7055	0.0522	0.067
Mof_H 	H 	0.5898	0.6408	0.0353	0.036
Mof_C 	C 	0.5446	0.0026	0.1313	0.375
Mof_C 	C 	0.5722	0.626	0.1896	0.404
Mof_C 	C 	0.71378	0.7469	0.2026	-0.054
Mof_C 	C 	0.7116	0.8327	0.2528	0.016
Mof_H 	H 	0.7164	0.8978	0.2321	0.064
Mof_C 	C 	0.70238	0.8227	0.334	-0.069
Mof_C 	C 	0.69609	0.7255	0.3652	0.021
Mof_H 	H 	0.6905	0.7184	0.4201	0.067
Mof_C 	C 	0.69805	0.6389	0.3155	-0.061
Mof_C 	C 	0.70727	0.6502	0.2352	0.007
Mof_H 	H 	0.7092	0.592	0.2021	0.069
Mof_C 	C 	0.69917	0.9163	0.3873	0.326
Mof_C 	C 	0.69033	0.5325	0.3463	0.305
Mof_O 	O 	0.54144	0.7884	0.8243	-0.406
Mof_O 	O 	0.61334	0.6747	0.8824	-0.417
Mof_O 	O 	0.62377	0.8703	0.8833	-0.455
Mof_O 	O 	0.55062	0.0799	0.0911	-0.272
Mof_O 	O 	0.52727	0.003	0.1958	-0.437
Mof_O 	O 	0.56644	0.6482	0.2663	-0.437
Mof_O 	O 	0.5769	0.5395	0.1677	-0.263
Mof_O 	O 	0.70166	0.663	0.04499	-0.474
Mof_O 	O 	0.7115	0.8586	0.05723	-0.483
Mof_O 	O 	0.78255	0.7417	0.11527	-0.562
Mof_O 	O 	0.71124	0.0014	0.361	-0.428
Mof_O 	O 	0.68456	0.9097	0.4539	-0.304
Mof_O 	O 	0.68407	0.5213	0.422	-0.397
Mof_O 	O 	0.68939	0.4564	0.2986	-0.338
Mof_P 	P 	0.59096	0.78063	0.89085	0.455
Mof_P 	P 	0.72669	0.75381	0.09752	0.431
Mof_H 	H 	0.566	0.598	0.302	0.269
Mof_Zn	Zn	0.18189	0.13605	0.91756	1.226
Mof_Zn	Zn	0.19311	0.39095	0.93225	1.225
Mof_C 	C 	0.08035	0.2885	0.9974	-0.129
Mof_C 	C 	0.06924	0.3846	0.0259	0.068
Mof_H 	H 	0.0693	0.4419	0.9907	0.023
Mof_C 	C 	0.05816	0.3974	0.1046	-0.128
Mof_C 	C 	0.0598	0.3132	0.1574	0.081
Mof_H 	H 	0.0529	0.321	0.2111	0.047
Mof_C 	C 	0.0714	0.2167	0.1323	-0.137
Mof_C 	C 	0.08177	0.2055	0.0522	0.075
Mof_H 	H 	0.0898	0.1408	0.0353	0.03
Mof_C 	C 	0.0446	0.5026	0.1313	0.379
Mof_C 	C 	0.0722	0.126	0.1896	0.405
Mof_C 	C 	0.21378	0.2469	0.2026	-0.054
Mof_C 	C 	0.2116	0.3327	0.2528	0.016
Mof_H 	H 	0.2164	0.3978	0.2321	0.064
Mof_C 	C 	0.20238	0.3227	0.334	-0.07
Mof_C 	C 	0.19609	0.2255	0.3652	0.022
Mof_H 	H 	0.1905	0.2184	0.4201	0.066
Mof_C 	C 	0.19805	0.1389	0.3155	-0.061
Mof_C 	C 	0.20727	0.1502	0.2352	0.007
Mof_H 	H 	0.2092	0.092	0.2021	0.069
Mof_C 	C 	0.19917	0.4163	0.3873	0.326
Mof_C 	C 	0.19033	0.0325	0.3463	0.306
Mof_O 	O 	0.04144	0.2884	0.8243	-0.421
Mof_O 	O 	0.11334	0.1747	0.8824	-0.421
Mof_O 	O 	0.12377	0.3703	0.8833	-0.456
Mof_O 	O 	0.05062	0.5799	0.0911	-0.286
Mof_O 	O 	0.02727	0.503	0.1958	-0.454
Mof_O 	O 	0.06644	0.1482	0.2663	-0.443
Mof_O 	O 	0.0769	0.0395	0.1677	-0.271
Mof_O 	O 	0.20166	0.163	0.04499	-0.473
Mof_O 	O 	0.2115	0.3586	0.05723	-0.483
Mof_O 	O 	0.28255	0.2417	0.11527	-0.562
Mof_O 	O 	0.21124	0.5014	0.361	-0.428
Mof_O 	O 	0.18456	0.4097	0.4539	-0.306
Mof_O 	O 	0.18407	0.0213	0.422	-0.398
Mof_O 	O 	0.18939	0.9564	0.2986	-0.339
Mof_P 	P 	0.09096	0.28063	0.89085	0.457
Mof_P 	P 	0.22669	0.25381	0.09752	0.431
Mof_H 	H 	0.066	0.098	0.302	0.263
Mof_Zn	Zn	0.31811	0.63605	0.58244	1.226
Mof_Zn	Zn	0.30689	0.89095	0.56775	1.225
Mof_C 	C 	0.41965	0.7885	0.5026	-0.115
Mof_C 	C 	0.43076	0.8846	0.4741	0.056
Mof_H 	H 	0.4307	0.9419	0.5093	0.034
Mof_C 	C 	0.44184	0.8974	0.3954	-0.112
Mof_C 	C 	0.4402	0.8132	0.3426	0.072
Mof_H 	H 	0.4471	0.821	0.2889	0.056
Mof_C 	C 	0.4286	0.7167	0.3677	-0.124
Mof_C 	C 	0.41823	0.7055	0.4478	0.066
Mof_H 	H 	0.4102	0.6408	0.4647	0.036
Mof_C 	C 	0.4554	0.0026	0.3687	0.375
Mof_C 	C 	0.4278	0.626	0.3104	0.404
Mof_C 	C 	0.28622	0.7469	0.2974	-0.054
Mof_C 	C 	0.2884	0.8327	0.2472	0.015
Mof_H 	H 	0.2836	0.8978	0.2679	0.064
Mof_C 	C 	0.29762	0.8227	0.166	-0.069
Mof_C 	C 	0.30391	0.7255	0.1348	0.021
Mof_H 	H 	0.3095	0.7184	0.0799	0.067
Mof_C 	C 	0.30195	0.6389	0.1845	-0.06
Mof_C 	C 	0.29273	0.6502	0.2648	0.007
Mof_H 	H 	0.2908	0.592	0.2979	0.07
Mof_C 	C 	0.30083	0.9163	0.1127	0.325
Mof_C 	C 	0.30967	0.5325	0.1537	0.305
Mof_O 	O 	0.45856	0.7884	0.6757	-0.406
Mof_O 	O 	0.38666	0.6747	0.6176	-0.417
Mof_O 	O 	0.37623	0.8703	0.6167	-0.454
Mof_O 	O 	0.44938	0.0799	0.4089	-0.272
Mof_O 	O 	0.47273	0.003	0.3042	-0.436
Mof_O 	O 	0.43356	0.6482	0.2337	-0.437
Mof_O 	O 	0.4231	0.5395	0.3323	-0.263
Mof_O 	O 	0.29834	0.663	0.45501	-0.474
Mof_O 	O 	0.2885	0.8586	0.44277	-0.483
Mof_O 	O 	0.21745	0.7417	0.38473	-0.562
Mof_O 	O 	0.28876	0.0014	0.139	-0.427
Mof_O 	O 	0.31544	0.9097	0.0461	-0.304
Mof_O 	O 	0.31593	0.5213	0.078	-0.396
Mof_O 	O 	0.31061	0.4564	0.2014	-0.338
Mof_P 	P 	0.40904	0.78063	0.60915	0.455
Mof_P 	P 	0.27331	0.75381	0.40248	0.431
Mof_H 	H 	0.434	0.598	0.198	0.269
Mof_Zn	Zn	0.81811	0.13605	0.58244	1.227
Mof_Zn	Zn	0.80689	0.39095	0.56775	1.225
Mof_C 	C 	0.91965	0.2885	0.5026	-0.105
Mof_C 	C 	0.93076	0.3846	0.4741	0.052
Mof_H 	H 	0.9307	0.4419	0.5093	0.041
Mof_C 	C 	0.94184	0.3974	0.3954	-0.098
Mof_C 	C 	0.9402	0.3132	0.3426	0.067
Mof_H 	H 	0.9471	0.321	0.2889	0.065
Mof_C 	C 	0.9286	0.2167	0.3677	-0.114
Mof_C 	C 	0.91823	0.2055	0.4478	0.062
Mof_H 	H 	0.9102	0.1408	0.4647	0.041
Mof_C 	C 	0.9554	0.5026	0.3687	0.371
Mof_C 	C 	0.9278	0.126	0.3104	0.403
Mof_C 	C 	0.78622	0.2469	0.2974	-0.054
Mof_C 	C 	0.7884	0.3327	0.2472	0.015
Mof_H 	H 	0.7836	0.3978	0.2679	0.064
Mof_C 	C 	0.79762	0.3227	0.166	-0.068
Mof_C 	C 	0.80391	0.2255	0.1348	0.02
Mof_H 	H 	0.8095	0.2184	0.0799	0.068
Mof_C 	C 	0.80195	0.1389	0.1845	-0.06
Mof_C 	C 	0.79273	0.1502	0.2648	0.006
Mof_H 	H 	0.7908	0.092	0.2979	0.07
Mof_C 	C 	0.80083	0.4163	0.1127	0.325
Mof_C 	C 	0.80967	0.0325	0.1537	0.305
Mof_O 	O 	0.95856	0.2884	0.6757	-0.385
Mof_O 	O 	0.88666	0.1747	0.6176	-0.413
Mof_O 	O 	0.87623	0.3703	0.6167	-0.452
Mof_O 	O 	0.94938	0.5799	0.4089	-0.257
Mof_O 	O 	0.97273	0.503	0.3042	-0.413
Mof_O 	O 	0.93356	0.1482	0.2337	-0.43
Mof_O 	O 	0.9231	0.0395	0.3323	-0.254
Mof_O 	O 	0.79834	0.163	0.45501	-0.474
Mof_O 	O 	0.7885	0.3586	0.44277	-0.483
Mof_O 	O 	0.71745	0.2417	0.38473	-0.562
Mof_O 	O 	0.78876	0.5014	0.139	-0.427
Mof_O 	O 	0.81544	0.4097	0.0461	-0.302
Mof_O 	O 	0.81593	0.0213	0.078	-0.395
Mof_O 	O 	0.81061	0.9564	0.2014	-0.337
Mof_P 	P 	0.90904	0.28063	0.60915	0.454
Mof_P 	P 	0.77331	0.25381	0.40248	0.431
Mof_H 	H 	0.934	0.098	0.198	0.274
Mof_Zn	Zn	0.5	0.11321	0.25	1.25
Mof_Zn	Zn	5.04215e-18	0.61321	0.25	1.236
Mof_Zn	Zn	0.5	0.88679	0.75	1.25
Mof_Zn	Zn	2.01686e-17	0.38679	0.75	1.236
_end
