data_functionalizedCrystal
_audit_creation_method	'EQeq! by Chris Wilmer'
_symmetry_space_group_name_H-M	'P1'
_symmetry_Int_Tables_number	1
_symmetry_cell_setting	triclinic
loop_
_symmetry_equiv_pos_as_xyz
  x,y,z
_cell_length_a	8.7142
_cell_length_b	10.8075
_cell_length_c	18.074
_cell_angle_alpha	90
_cell_angle_beta	90
_cell_angle_gamma	90
loop_
_atom_site_label
_atom_site_type_symbol
_atom_site_fract_x
_atom_site_fract_y
_atom_site_fract_z
_atom_site_charge
Mof_Co	Co	0.8402	0.67345	0.87976	1.125
Mof_Co	Co	0.8388	0.95076	0.95588	1.07
Mof_Cl	Cl	0.7108	0.8646	0.8461	-0.671
Mof_P 	P 	0.8417	0.2819	0.53307	0.448
Mof_N 	N 	0.7228	0.2975	0.6782	-0.107
Mof_H 	H 	0.8237	0.2864	0.6893	0.079
Mof_C 	C 	0.654	0.3779	0.7382	-0.141
Mof_H 	H 	0.5614	0.4181	0.7193	0.103
Mof_C 	C 	0.612	0.2908	0.7993	0.021
Mof_H 	H 	0.6839	0.2982	0.8399	-0.011
Mof_H 	H 	0.5098	0.31	0.8177	0.009
Mof_C 	C 	0.615	0.1628	0.7687	-0.165
Mof_H 	H 	0.518	0.1216	0.7779	0.08
Mof_H 	H 	0.6961	0.1152	0.7921	0.065
Mof_C 	C 	0.6437	0.1727	0.6863	-0.017
Mof_H 	H 	0.5481	0.1707	0.6589	0.047
Mof_H 	H 	0.7093	0.1061	0.6692	0.018
Mof_C 	C 	0.7654	0.4754	0.7649	0.323
Mof_C 	C 	0.715	0.3496	0.6024	-0.238
Mof_H 	H 	0.7374	0.4374	0.6055	0.082
Mof_H 	H 	0.6102	0.3415	0.5849	0.101
Mof_O 	O 	0.7132	0.547	0.8139	-0.426
Mof_O 	O 	0.9013	0.4758	0.7402	-0.329
Mof_O 	O 	0.0076	0.2965	0.5595	-0.538
Mof_O 	O 	0.7991	0.1459	0.526	-0.471
Mof_O 	O 	0.807	0.359	0.4645	-0.457
Mof_Co	Co	0.6598	0.32655	0.37976	1.126
Mof_Co	Co	0.6612	0.04924	0.45588	1.072
Mof_Cl	Cl	0.7892	0.1354	0.3461	-0.668
Mof_P 	P 	0.6583	0.7181	0.03307	0.446
Mof_N 	N 	0.7772	0.7025	0.1782	-0.107
Mof_H 	H 	0.6763	0.7136	0.1893	0.079
Mof_C 	C 	0.846	0.6221	0.2382	-0.142
Mof_H 	H 	0.9386	0.5819	0.2193	0.103
Mof_C 	C 	0.888	0.7092	0.2993	0.021
Mof_H 	H 	0.8161	0.7018	0.3399	-0.012
Mof_H 	H 	0.9902	0.69	0.3177	0.009
Mof_C 	C 	0.885	0.8372	0.2687	-0.165
Mof_H 	H 	0.982	0.8784	0.2779	0.08
Mof_H 	H 	0.8039	0.8848	0.2921	0.065
Mof_C 	C 	0.8563	0.8273	0.1863	-0.017
Mof_H 	H 	0.9519	0.8293	0.1589	0.047
Mof_H 	H 	0.7907	0.8939	0.1692	0.018
Mof_C 	C 	0.7346	0.5246	0.2649	0.323
Mof_C 	C 	0.785	0.6504	0.1024	-0.238
Mof_H 	H 	0.7626	0.5626	0.1055	0.082
Mof_H 	H 	0.8898	0.6585	0.0849	0.101
Mof_O 	O 	0.7868	0.453	0.3139	-0.425
Mof_O 	O 	0.5987	0.5242	0.2402	-0.329
Mof_O 	O 	0.4924	0.7035	0.0595	-0.537
Mof_O 	O 	0.7009	0.8541	0.026	-0.471
Mof_O 	O 	0.693	0.641	0.9645	-0.457
Mof_Co	Co	0.1598	0.17345	0.62024	1.125
Mof_Co	Co	0.1612	0.45076	0.54412	1.071
Mof_Cl	Cl	0.2892	0.3646	0.6539	-0.669
Mof_P 	P 	0.1583	0.7819	0.96693	0.448
Mof_N 	N 	0.2772	0.7975	0.8218	-0.107
Mof_H 	H 	0.1763	0.7864	0.8107	0.079
Mof_C 	C 	0.346	0.8779	0.7618	-0.141
Mof_H 	H 	0.4386	0.9181	0.7807	0.102
Mof_C 	C 	0.388	0.7908	0.7007	0.021
Mof_H 	H 	0.3161	0.7982	0.6601	-0.012
Mof_H 	H 	0.4902	0.81	0.6823	0.008
Mof_C 	C 	0.385	0.6628	0.7313	-0.164
Mof_H 	H 	0.482	0.6216	0.7221	0.08
Mof_H 	H 	0.3039	0.6152	0.7079	0.064
Mof_C 	C 	0.3563	0.6727	0.8137	-0.017
Mof_H 	H 	0.4519	0.6707	0.8411	0.047
Mof_H 	H 	0.2907	0.6061	0.8308	0.018
Mof_C 	C 	0.2346	0.9754	0.7351	0.322
Mof_C 	C 	0.285	0.8496	0.8976	-0.238
Mof_H 	H 	0.2626	0.9374	0.8945	0.082
Mof_H 	H 	0.3898	0.8415	0.9151	0.101
Mof_O 	O 	0.2868	0.047	0.6861	-0.425
Mof_O 	O 	0.0987	0.9758	0.7598	-0.329
Mof_O 	O 	0.9924	0.7965	0.9405	-0.538
Mof_O 	O 	0.2009	0.6459	0.974	-0.471
Mof_O 	O 	0.193	0.859	0.0355	-0.457
Mof_Co	Co	0.3402	0.82655	0.12024	1.126
Mof_Co	Co	0.3388	0.54924	0.04412	1.071
Mof_Cl	Cl	0.2108	0.6354	0.1539	-0.67
Mof_P 	P 	0.3417	0.2181	0.46693	0.446
Mof_N 	N 	0.2228	0.2025	0.3218	-0.107
Mof_H 	H 	0.3237	0.2136	0.3107	0.079
Mof_C 	C 	0.154	0.1221	0.2618	-0.141
Mof_H 	H 	0.0614	0.0819	0.2807	0.102
Mof_C 	C 	0.112	0.2092	0.2007	0.021
Mof_H 	H 	0.1839	0.2018	0.1601	-0.012
Mof_H 	H 	0.0098	0.19	0.1823	0.008
Mof_C 	C 	0.115	0.3372	0.2313	-0.165
Mof_H 	H 	0.018	0.3784	0.2221	0.079
Mof_H 	H 	0.1961	0.3848	0.2079	0.064
Mof_C 	C 	0.1437	0.3273	0.3137	-0.017
Mof_H 	H 	0.0481	0.3293	0.3411	0.047
Mof_H 	H 	0.2093	0.3939	0.3308	0.018
Mof_C 	C 	0.2654	0.0246	0.2351	0.32
Mof_C 	C 	0.215	0.1504	0.3976	-0.237
Mof_H 	H 	0.2374	0.0626	0.3945	0.081
Mof_H 	H 	0.1102	0.1585	0.4151	0.1
Mof_O 	O 	0.2132	0.953	0.1861	-0.423
Mof_O 	O 	0.4013	0.0242	0.2598	-0.328
Mof_O 	O 	0.5076	0.2035	0.4405	-0.537
Mof_O 	O 	0.2991	0.3541	0.474	-0.472
Mof_O 	O 	0.307	0.141	0.5355	-0.457
_end
