# CIF file generated by openbabel 3.1.0, see https://openbabel.org
data_I
_chemical_name_common 'OXALIJ_ion_b'
_cell_length_a 11.97
_cell_length_b 16.341
_cell_length_c 16.436
_cell_angle_alpha 107.913
_cell_angle_beta 103.4
_cell_angle_gamma 100.533
_space_group_name_H-M_alt 'P 1'
_space_group_name_Hall 'P 1'
loop_
    _symmetry_equiv_pos_as_xyz
    x,y,z
loop_
    _atom_site_label
    _atom_site_type_symbol
    _atom_site_fract_x
    _atom_site_fract_y
    _atom_site_fract_z
    _atom_site_occupancy
    Cd1      Cd       0.19441    0.88805    0.39255    1.000
    N2       N        0.06706    0.14812    0.47181    1.000
    C3       C        0.46137    0.34234    0.05829    1.000
    O4       O        0.48813    0.87959    0.41050    1.000
    C5       C        0.41457    0.41898    0.10263    1.000
    H6       H        0.31922    0.40889    0.08763    1.000
    O7       O        0.29308    0.81300    0.34809    1.000
    O8       O        0.67932    0.41267    0.13734    1.000
    O9       O        0.03195    0.82515    0.29475    1.000
    O10      O        0.09287    0.77594    0.39778    1.000
    C11      C        0.42126    0.72934    0.30241    1.000
    O12      O        0.41758    0.21020    0.92420    1.000
    C13      C        0.32444    0.65832    0.23768    1.000
    H14      H        0.23388    0.66432    0.22470    1.000
    O15      O        0.33362    0.94217    0.51098    1.000
    C16      C        0.34273    0.57781    0.18878    1.000
    H17      H        0.26565    0.52619    0.13940    1.000
    O18      O        0.16295    0.97265    0.49922    1.000
    C19      C        0.40050    0.81263    0.35640    1.000
    O20      O        0.35543    0.23805    0.11650    1.000
    C21      C        0.58766    0.38309    0.05192    1.000
    H22      H        0.61244    0.33171    0.00262    1.000
    H23      H        0.58162    0.43759    0.02551    1.000
    O24      O        0.22476    0.97264    0.32752    1.000
    C25      C        0.75485    0.50143    0.17900    1.000
    O26      O        0.41867    0.03877    0.40214    1.000
    C27      C        0.78782    0.55692    0.13253    1.000
    H28      H        0.75680    0.53307    0.05993    1.000
    C29      C        0.86763    0.64327    0.17992    1.000
    H30      H        0.89357    0.68327    0.14224    1.000
    C31      C        0.91864    0.67543    0.27426    1.000
    C32      C        0.88707    0.61884    0.31952    1.000
    H33      H        0.92543    0.64019    0.39157    1.000
    C34      C        0.80708    0.53333    0.27245    1.000
    H35      H        0.78530    0.49096    0.30908    1.000
    C36      C        0.01536    0.76189    0.32410    1.000
    C37      C        0.37539    0.28535    0.96158    1.000
    H38      H        0.37346    0.32716    0.91938    1.000
    H39      H        0.28316    0.26131    0.96342    1.000
    C40      C        0.37268    0.15863    0.83158    1.000
    C41      C        0.44139    0.10516    0.79654    1.000
    H42      H        0.52475    0.10566    0.84004    1.000
    C43      C        0.40454    0.05105    0.70603    1.000
    H44      H        0.45976    0.01113    0.68228    1.000
    C45      C        0.29817    0.04835    0.64703    1.000
    C46      C        0.22645    0.10080    0.68192    1.000
    H47      H        0.14161    0.09840    0.63876    1.000
    C48      C        0.26318    0.15546    0.77373    1.000
    H49      H        0.20533    0.19315    0.79930    1.000
    C50      C        0.26211    0.98904    0.55072    1.000
    C51      C        0.47103    0.28315    0.11684    1.000
    H52      H        0.51780    0.23267    0.09098    1.000
    H53      H        0.52512    0.32689    0.18701    1.000
    C54      C        0.35039    0.18580    0.17124    1.000
    C55      C        0.23771    0.14115    0.17089    1.000
    H56      H        0.15749    0.14603    0.12771    1.000
    C57      C        0.22731    0.09009    0.22552    1.000
    H58      H        0.13879    0.05674    0.22303    1.000
    C59      C        0.32992    0.08341    0.28295    1.000
    C60      C        0.44212    0.12872    0.28339    1.000
    H61      H        0.52308    0.12629    0.32670    1.000
    C62      C        0.45264    0.17731    0.22758    1.000
    H63      H        0.54184    0.20797    0.22977    1.000
    C64      C        0.32329    0.02909    0.34128    1.000
    C65      C        0.01008    0.12352    0.37557    1.000
    O66      O        0.49096    0.49066    0.15933    1.000
    C67      C        0.45908    0.56668    0.20478    1.000
    C68      C        0.53598    0.71792    0.31724    1.000
    H69      H        0.61154    0.77048    0.36717    1.000
    C70      C        0.55404    0.63778    0.26897    1.000
    H71      H        0.64356    0.63080    0.28191    1.000
    Cd72     Cd       0.80594    0.11109    0.60924    1.000
    N73      N        0.91033    0.84910    0.52921    1.000
    C74      C        0.53878    0.65747    0.94217    1.000
    O75      O        0.50954    0.12169    0.58756    1.000
    C76      C        0.58533    0.58064    0.89753    1.000
    H77      H        0.68061    0.59053    0.91238    1.000
    O78      O        0.70459    0.18323    0.65618    1.000
    O79      O        0.32090    0.58712    0.86308    1.000
    O80      O        0.97290    0.17240    0.70212    1.000
    O81      O        0.89762    0.22859    0.60900    1.000
    C82      C        0.57765    0.27020    0.69825    1.000
    O83      O        0.58272    0.78976    0.07652    1.000
    C84      C        0.67460    0.34111    0.76248    1.000
    H85      H        0.76472    0.33425    0.77495    1.000
    O86      O        0.66878    0.05786    0.49007    1.000
    C87      C        0.65664    0.42178    0.81092    1.000
    H88      H        0.73393    0.47311    0.85978    1.000
    O89      O        0.83813    0.02387    0.50314    1.000
    C90      C        0.59736    0.18658    0.64448    1.000
    O91      O        0.64411    0.76133    0.88338    1.000
    C92      C        0.41248    0.61679    0.94855    1.000
    H93      H        0.38779    0.66838    0.99768    1.000
    H94      H        0.41853    0.56240    0.97511    1.000
    O95      O        0.77629    0.02926    0.67653    1.000
    C96      C        0.24487    0.49853    0.82160    1.000
    O97      O        0.58332    0.96038    0.60012    1.000
    C98      C        0.21198    0.44319    0.86824    1.000
    H99      H        0.24370    0.46696    0.94083    1.000
    C100     C        0.13139    0.35713    0.82101    1.000
    H101     H        0.10559    0.31715    0.85877    1.000
    C102     C        0.07927    0.32535    0.72685    1.000
    C103     C        0.11092    0.38166    0.68137    1.000
    H104     H        0.07218    0.36017    0.60936    1.000
    C105     C        0.19205    0.46675    0.72821    1.000
    H106     H        0.21425    0.50885    0.69146    1.000
    C107     C        0.98208    0.23927    0.67757    1.000
    C108     C        0.62501    0.71461    0.03884    1.000
    H109     H        0.71699    0.73888    0.03679    1.000
    H110     H        0.62741    0.67289    0.08108    1.000
    C111     C        0.62885    0.84181    0.16902    1.000
    C112     C        0.56080    0.89558    0.20462    1.000
    H113     H        0.47687    0.89504    0.16156    1.000
    C114     C        0.59823    0.94938    0.29528    1.000
    H115     H        0.54302    0.98912    0.31935    1.000
    C116     C        0.70428    0.95106    0.35417    1.000
    C117     C        0.77651    0.89999    0.31833    1.000
    H118     H        0.86161    0.90257    0.36120    1.000
    C119     C        0.73899    0.84528    0.22638    1.000
    H120     H        0.79644    0.80743    0.20068    1.000
    C121     C        0.73961    0.00940    0.45095    1.000
    C122     C        0.52881    0.71649    0.88348    1.000
    H123     H        0.47442    0.67267    0.81342    1.000
    H124     H        0.48230    0.76706    0.90952    1.000
    C125     C        0.64911    0.81407    0.82927    1.000
    C126     C        0.76183    0.85960    0.83116    1.000
    H127     H        0.84160    0.85444    0.87384    1.000
    C128     C        0.77305    0.91211    0.77848    1.000
    H129     H        0.86106    0.94792    0.78323    1.000
    C130     C        0.67109    0.91730    0.71961    1.000
    C131     C        0.55813    0.87141    0.71738    1.000
    H132     H        0.47709    0.87356    0.67311    1.000
    C133     C        0.54699    0.82231    0.77258    1.000
    H134     H        0.45794    0.79072    0.76950    1.000
    C135     C        0.67877    0.97171    0.66205    1.000
    C136     C        0.98955    0.87614    0.62079    1.000
    O137     O        0.50884    0.50919    0.84054    1.000
    C138     C        0.54034    0.43307    0.79502    1.000
    C139     C        0.46299    0.28194    0.68278    1.000
    H140     H        0.38708    0.22942    0.63291    1.000
    C141     C        0.44514    0.36219    0.73073    1.000
    H142     H        0.35551    0.36925    0.71749    1.000
    Cd143    Cd       0.50022    0.99957    0.50054    1.000
    H144     H        0.10082    0.09694    0.48292    1.000
    H145     H        0.00455    0.15782    0.50603    1.000
    H146     H        0.00796    0.05347    0.33787    1.000
    H147     H        0.06028    0.16876    0.34977    1.000
    H148     H        0.91666    0.12878    0.36251    1.000
    H149     H        0.95629    0.87386    0.49118    1.000
    H150     H        0.83630    0.87440    0.53020    1.000
    H151     H        0.06474    0.93525    0.63621    1.000
    H152     H        0.02674    0.82069    0.62941    1.000
    H153     H        0.93988    0.89421    0.66973    1.000
    H154     H        0.88056    0.77934    0.49960    1.000
    H155     H        0.13728    0.20663    0.49726    1.000
