# CIF file generated by openbabel 3.1.0, see https://openbabel.org
data_I
_chemical_name_common 'image0'
_cell_length_a 11.5714
_cell_length_b 11.7015
_cell_length_c 11.8399
_cell_angle_alpha 65.118
_cell_angle_beta 78.616
_cell_angle_gamma 71.985
_space_group_name_H-M_alt 'P 1'
_space_group_name_Hall 'P 1'
loop_
    _symmetry_equiv_pos_as_xyz
    x,y,z
loop_
    _atom_site_label
    _atom_site_type_symbol
    _atom_site_fract_x
    _atom_site_fract_y
    _atom_site_fract_z
    _atom_site_occupancy
    O1       O        0.04640    0.40190    0.37780    1.000
    O2       O        0.03830    0.42790    0.18430    1.000
    O3       O        0.04940    0.86090    0.91580    1.000
    O4       O        0.07800    0.65280    0.95220    1.000
    C1       C        0.03400    0.47380    0.26400    1.000
    C2       C        0.01140    0.61600    0.23100    1.000
    C3       C        0.01270    0.72490    0.12180    1.000
    C4       C        0.04820    0.74580    0.98810    1.000
    C5       C        0.96260    0.78620    0.27790    1.000
    C6       C        0.92630    0.87110    0.35080    1.000
    C7       C        0.79660    0.95430    0.33930    1.000
    H1       H        0.79330    0.03340    0.26640    1.000
    H2       H        0.76880    0.97490    0.41210    1.000
    H3       H        0.74520    0.90750    0.33220    1.000
    C8       C        0.71800    0.59970    0.49660    1.000
    H4       H        0.73690    0.67330    0.49210    1.000
    C9       C        0.59740    0.60600    0.49440    1.000
    H5       H        0.53760    0.68230    0.48840    1.000
    C10      C        0.56540    0.49870    0.50100    1.000
    C11      C        0.65840    0.39380    0.50480    1.000
    H6       H        0.64280    0.31970    0.50660    1.000
    C12      C        0.77720    0.39640    0.50610    1.000
    H7       H        0.83910    0.32270    0.50800    1.000
    C13      C        0.74630    0.57980    0.12880    1.000
    H8       H        0.77460    0.50080    0.19360    1.000
    C14      C        0.62590    0.64750    0.13900    1.000
    H9       H        0.57550    0.61400    0.20950    1.000
    C15      C        0.58050    0.76550    0.04410    1.000
    C16      C        0.66350    0.81190    0.94680    1.000
    H10      H        0.63940    0.89310    0.88320    1.000
    C17      C        0.78180    0.73830    0.94340    1.000
    H11      H        0.83540    0.77180    0.87620    1.000
    C18      C        0.24460    0.85840    0.13740    1.000
    H12      H        0.19260    0.83280    0.20880    1.000
    C19      C        0.36800    0.80050    0.14580    1.000
    H13      H        0.39620    0.73780    0.22170    1.000
    C20      C        0.44900    0.83410    0.04420    1.000
    C21      C        0.39940    0.93290    0.93900    1.000
    H14      H        0.44970    0.96370    0.86740    1.000
    C22      C        0.27560    0.98670    0.93890    1.000
    H15      H        0.24550    0.05540    0.86670    1.000
    N1       N        0.98160    0.83200    0.15250    1.000
    N2       N        0.97990    0.65670    0.32880    1.000
    N3       N        0.80810    0.49520    0.50480    1.000
    N4       N        0.82330    0.62210    0.03110    1.000
    N5       N        0.19670    0.94730    0.03470    1.000
    C23      C        0.79600    0.88000    0.41300    1.000
    H16      H        0.79490    0.80230    0.48650    1.000
    H17      H        0.74290    0.88810    0.35560    1.000
    H18      H        0.76950    0.95430    0.43510    1.000
    O5       O        0.95360    0.59810    0.62220    1.000
    O6       O        0.96170    0.57210    0.81570    1.000
    O7       O        0.95060    0.13910    0.08420    1.000
    O8       O        0.92200    0.34720    0.04780    1.000
    C24      C        0.96600    0.52620    0.73600    1.000
    C25      C        0.98860    0.38400    0.76900    1.000
    C26      C        0.98730    0.27510    0.87820    1.000
    C27      C        0.95180    0.25420    0.01190    1.000
    C28      C        0.03740    0.21380    0.72210    1.000
    C29      C        0.07370    0.12890    0.64920    1.000
    C30      C        0.20340    0.04570    0.66070    1.000
    H19      H        0.20670    0.96660    0.73360    1.000
    H20      H        0.23120    0.02510    0.58790    1.000
    H21      H        0.25480    0.09250    0.66780    1.000
    C31      C        0.28200    0.40030    0.50340    1.000
    H22      H        0.26310    0.32670    0.50790    1.000
    C32      C        0.40260    0.39400    0.50560    1.000
    H23      H        0.46240    0.31770    0.51160    1.000
    C33      C        0.43460    0.50130    0.49900    1.000
    C34      C        0.34160    0.60620    0.49520    1.000
    H24      H        0.35720    0.68030    0.49340    1.000
    C35      C        0.22280    0.60360    0.49390    1.000
    H25      H        0.16090    0.67730    0.49200    1.000
    C36      C        0.25370    0.42020    0.87120    1.000
    H26      H        0.22540    0.49920    0.80640    1.000
    C37      C        0.37410    0.35250    0.86100    1.000
    H27      H        0.42450    0.38600    0.79050    1.000
    C38      C        0.41950    0.23450    0.95590    1.000
    C39      C        0.33650    0.18810    0.05320    1.000
    H28      H        0.36060    0.10690    0.11680    1.000
    C40      C        0.21820    0.26170    0.05660    1.000
    H29      H        0.16460    0.22820    0.12380    1.000
    C41      C        0.75540    0.14160    0.86260    1.000
    H30      H        0.80740    0.16720    0.79120    1.000
    C42      C        0.63200    0.19950    0.85420    1.000
    H31      H        0.60380    0.26220    0.77830    1.000
    C43      C        0.55100    0.16590    0.95580    1.000
    C44      C        0.60060    0.06710    0.06100    1.000
    H32      H        0.55030    0.03630    0.13260    1.000
    C45      C        0.72440    0.01330    0.06110    1.000
    H33      H        0.75450    0.94460    0.13330    1.000
    N6       N        0.01840    0.16800    0.84750    1.000
    N7       N        0.02010    0.34330    0.67120    1.000
    N8       N        0.19190    0.50480    0.49520    1.000
    N9       N        0.17670    0.37790    0.96890    1.000
    N10      N        0.80330    0.05270    0.96530    1.000
    C46      C        0.20400    0.12000    0.58700    1.000
    H34      H        0.20510    0.19770    0.51350    1.000
    H35      H        0.25710    0.11190    0.64440    1.000
    H36      H        0.23050    0.04570    0.56490    1.000
    Co1      Co       0.00000    0.00000    0.00000    1.000
    Co2      Co       0.00000    0.50000    0.50000    1.000
    Co3      Co       0.00000    0.50000    0.00000    1.000
