data_functionalizedCrystal
_audit_creation_method	'EQeq! by Chris Wilmer'
_symmetry_space_group_name_H-M	'P1'
_symmetry_Int_Tables_number	1
_symmetry_cell_setting	triclinic
loop_
_symmetry_equiv_pos_as_xyz
  x,y,z
_cell_length_a	12.7708
_cell_length_b	14.5298
_cell_length_c	18.8587
_cell_angle_alpha	82.784
_cell_angle_beta	72.179
_cell_angle_gamma	79.385
loop_
_atom_site_label
_atom_site_type_symbol
_atom_site_fract_x
_atom_site_fract_y
_atom_site_fract_z
_atom_site_charge
Mof_U 	U 	0.44747	0.42254	0.10254	0.012
Mof_U 	U 	0.53863	0.83537	0.10276	0.022
Mof_U 	U 	0.28638	0.05132	0.26346	0.018
Mof_U 	U 	0.18149	0.83431	0.464	0.017
Mof_U 	U 	0.13028	0.4165	0.42757	0.006
Mof_U 	U 	0.55253	0.57746	0.89746	0.012
Mof_U 	U 	0.46137	0.16463	0.89724	0.022
Mof_U 	U 	0.71362	0.94868	0.73654	0.018
Mof_U 	U 	0.81851	0.16569	0.536	0.018
Mof_U 	U 	0.86972	0.58351	0.57243	0.007
Mof_Mn	Mn	0.61878	0.47025	0.24818	1.028
Mof_Mn	Mn	0.43715	0.48159	0.43087	0.922
Mof_Mn	Mn	0.38122	0.52975	0.75182	1.028
Mof_Mn	Mn	0.56285	0.51841	0.56913	0.922
Mof_P 	P 	0.60251	0.57485	0.08495	0.471
Mof_P 	P 	0.41353	0.35979	0.30446	0.465
Mof_P 	P 	0.35642	0.20032	0.09422	0.437
Mof_P 	P 	0.41046	0.82434	0.2983	0.463
Mof_P 	P 	0.06904	0.19813	0.38649	0.439
Mof_P 	P 	0.82062	0.42557	0.49303	0.479
Mof_P 	P 	0.39749	0.42515	0.91505	0.471
Mof_P 	P 	0.58647	0.64021	0.69554	0.465
Mof_P 	P 	0.64358	0.79968	0.90578	0.437
Mof_P 	P 	0.58954	0.17566	0.7017	0.463
Mof_P 	P 	0.93096	0.80187	0.61351	0.439
Mof_P 	P 	0.17938	0.57443	0.50697	0.479
Mof_H 	H 	0.7822	0.5794	0.0085	0.212
Mof_H 	H 	0.7676	0.4742	0.0424	0.2
Mof_H 	H 	0.4784	0.2016	0.3215	0.19
Mof_H 	H 	0.5355	0.2622	0.36	0.164
Mof_H 	H 	0.5031	0.1625	0.1481	0.196
Mof_H 	H 	0.5513	0.1703	0.0588	0.201
Mof_H 	H 	0.5166	0.7847	0.3805	0.186
Mof_H 	H 	0.5946	0.7791	0.2961	0.199
Mof_H 	H 	0.1135	0.1668	0.4999	0.188
Mof_H 	H 	0.2252	0.1615	0.4314	0.178
Mof_H 	H 	0.8605	0.4223	0.3655	0.225
Mof_H 	H 	0.8104	0.5266	0.39	0.199
Mof_H 	H 	0.2178	0.4206	0.9915	0.212
Mof_H 	H 	0.2324	0.5258	0.9576	0.2
Mof_H 	H 	0.5216	0.7984	0.6785	0.19
Mof_H 	H 	0.4645	0.7378	0.64	0.164
Mof_H 	H 	0.4969	0.8375	0.8519	0.196
Mof_H 	H 	0.4487	0.8297	0.9412	0.201
Mof_H 	H 	0.4834	0.2153	0.6195	0.186
Mof_H 	H 	0.4054	0.2209	0.7039	0.199
Mof_H 	H 	0.8865	0.8332	0.5001	0.188
Mof_H 	H 	0.7748	0.8385	0.5686	0.178
Mof_H 	H 	0.1395	0.5777	0.6345	0.225
Mof_H 	H 	0.1896	0.4734	0.61	0.199
Mof_C 	C 	0.7503	0.5407	0.0545	-0.462
Mof_C 	C 	0.8042	0.5526	0.115	0.441
Mof_C 	C 	0.5136	0.2587	0.3146	-0.461
Mof_C 	C 	0.6175	0.2497	0.2478	0.427
Mof_C 	C 	0.4932	0.146	0.1014	-0.417
Mof_C 	C 	0.5065	0.042	0.1014	0.39
Mof_C 	C 	0.5237	0.7634	0.3311	-0.46
Mof_C 	C 	0.5268	0.6571	0.3381	0.479
Mof_C 	C 	0.1498	0.1435	0.4497	-0.404
Mof_C 	C 	0.1594	0.0389	0.4551	0.381
Mof_C 	C 	0.8015	0.4597	0.4029	-0.514
Mof_C 	C 	0.6895	0.4471	0.3976	0.51
Mof_C 	C 	0.2497	0.4593	0.9455	-0.462
Mof_C 	C 	0.1958	0.4474	0.885	0.441
Mof_C 	C 	0.4864	0.7413	0.6854	-0.461
Mof_C 	C 	0.3825	0.7503	0.7522	0.427
Mof_C 	C 	0.5068	0.854	0.8986	-0.417
Mof_C 	C 	0.4935	0.958	0.8986	0.39
Mof_C 	C 	0.4763	0.2366	0.6689	-0.46
Mof_C 	C 	0.4732	0.3429	0.6619	0.479
Mof_C 	C 	0.8502	0.8565	0.5503	-0.404
Mof_C 	C 	0.8406	0.9611	0.5449	0.381
Mof_C 	C 	0.1985	0.5403	0.5971	-0.514
Mof_C 	C 	0.3105	0.5529	0.6024	0.51
Mof_O 	O 	0.5789	0.6759	0.0999	-0.181
Mof_O 	O 	0.5535	0.5511	0.0256	-0.157
Mof_O 	O 	0.5527	0.51	0.1537	-0.286
Mof_O 	O 	0.7772	0.5047	0.1759	-0.349
Mof_O 	O 	0.8749	0.6087	0.1	-0.226
Mof_O 	O 	0.4086	0.3678	0.2242	-0.183
Mof_O 	O 	0.302	0.3475	0.3618	-0.206
Mof_O 	O 	0.4565	0.4452	0.3199	-0.419
Mof_O 	O 	0.6538	0.1713	0.2217	-0.24
Mof_O 	O 	0.6614	0.3243	0.2187	-0.328
Mof_O 	O 	0.3452	0.3053	0.1009	-0.17
Mof_O 	O 	0.2726	0.1534	0.1586	-0.149
Mof_O 	O 	0.3445	0.1776	0.0175	-0.144
Mof_O 	O 	0.5779	0.9974	0.0501	-0.188
Mof_O 	O 	0.4419	0.9959	0.1545	-0.175
Mof_O 	O 	0.3019	0.7983	0.3503	-0.159
Mof_O 	O 	0.4277	0.7973	0.2199	-0.158
Mof_O 	O 	0.4136	0.9293	0.2988	-0.167
Mof_O 	O 	0.4616	0.6226	0.3954	-0.388
Mof_O 	O 	0.5938	0.6106	0.2852	-0.385
Mof_O 	O 	0.0746	0.3031	0.3782	-0.173
Mof_O 	O 	0.124	0.1524	0.3125	-0.151
Mof_O 	O 	0.9481	0.1782	0.419	-0.153
Mof_O 	O 	0.1183	0.9928	0.5137	-0.199
Mof_O 	O 	0.2115	0.9947	0.3953	-0.176
Mof_O 	O 	0.8057	0.3248	0.5134	-0.183
Mof_O 	O 	0.9347	0.448	0.4893	-0.164
Mof_O 	O 	0.7398	0.494	0.549	-0.294
Mof_O 	O 	0.6034	0.4708	0.4502	-0.469
Mof_O 	O 	0.6873	0.4131	0.3396	-0.408
Mof_O 	O 	0.4211	0.3241	0.9001	-0.181
Mof_O 	O 	0.4465	0.4489	0.9744	-0.157
Mof_O 	O 	0.4473	0.49	0.8463	-0.286
Mof_O 	O 	0.2228	0.4953	0.8241	-0.349
Mof_O 	O 	0.1251	0.3913	0.9	-0.226
Mof_O 	O 	0.5914	0.6322	0.7758	-0.183
Mof_O 	O 	0.698	0.6525	0.6382	-0.206
Mof_O 	O 	0.5435	0.5548	0.6801	-0.419
Mof_O 	O 	0.3462	0.8287	0.7783	-0.24
Mof_O 	O 	0.3386	0.6757	0.7813	-0.328
Mof_O 	O 	0.6548	0.6947	0.8991	-0.17
Mof_O 	O 	0.7274	0.8466	0.8414	-0.149
Mof_O 	O 	0.6555	0.8224	0.9825	-0.144
Mof_O 	O 	0.4221	0.0026	0.9499	-0.188
Mof_O 	O 	0.5581	0.0041	0.8455	-0.175
Mof_O 	O 	0.6981	0.2017	0.6497	-0.159
Mof_O 	O 	0.5723	0.2027	0.7801	-0.158
Mof_O 	O 	0.5864	0.0707	0.7012	-0.167
Mof_O 	O 	0.5384	0.3774	0.6046	-0.388
Mof_O 	O 	0.4062	0.3894	0.7148	-0.385
Mof_O 	O 	0.9254	0.6969	0.6218	-0.173
Mof_O 	O 	0.876	0.8476	0.6875	-0.151
Mof_O 	O 	0.0519	0.8218	0.581	-0.153
Mof_O 	O 	0.8817	0.0072	0.4863	-0.199
Mof_O 	O 	0.7885	0.0053	0.6047	-0.176
Mof_O 	O 	0.1943	0.6752	0.4866	-0.183
Mof_O 	O 	0.0653	0.552	0.5107	-0.164
Mof_O 	O 	0.2602	0.506	0.451	-0.294
Mof_O 	O 	0.3966	0.5292	0.5498	-0.469
Mof_O 	O 	0.3127	0.5869	0.6604	-0.408
_end
