# CIF file generated by openbabel 3.1.0, see https://openbabel.org
data_I
_chemical_name_common 'image0'
_cell_length_a 9.4778
_cell_length_b 11.0657
_cell_length_c 12.6936
_cell_angle_alpha 101.544
_cell_angle_beta 92.0654
_cell_angle_gamma 100.591
_space_group_name_H-M_alt 'P 1'
_space_group_name_Hall 'P 1'
loop_
    _symmetry_equiv_pos_as_xyz
    x,y,z
loop_
    _atom_site_label
    _atom_site_type_symbol
    _atom_site_fract_x
    _atom_site_fract_y
    _atom_site_fract_z
    _atom_site_occupancy
    Ni1      Ni       0.16762    0.26634    0.45472    1.000
    O1       O        0.17891    0.33750    0.33319    1.000
    O2       O        0.94241    0.32701    0.34025    1.000
    O3       O        0.98271    0.42277    0.57072    1.000
    O4       O        0.84994    0.13530    0.39358    1.000
    N1       N        0.39763    0.27416    0.46495    1.000
    C1       C        0.47585    0.38077    0.55282    1.000
    C2       C        0.43346    0.15698    0.49226    1.000
    C3       C        0.46190    0.28903    0.36587    1.000
    C4       C        0.05472    0.33326    0.28688    1.000
    C5       C        0.02585    0.30700    0.16880    1.000
    C6       C        0.13788    0.30878    0.09943    1.000
    C7       C        0.10805    0.28107    0.98662    1.000
    C8       C        0.21885    0.27357    0.91693    1.000
    C9       C        0.88354    0.28607    0.12371    1.000
    C10      C        0.10459    0.47049    0.54628    1.000
    C11      C        0.09296    0.59148    0.51038    1.000
    C12      C        0.97726    0.64690    0.53471    1.000
    C13      C        0.96685    0.75185    0.49904    1.000
    C14      C        0.84413    0.80617    0.51735    1.000
    C15      C        0.21003    0.64331    0.46055    1.000
    Ni2      Ni       0.90480    0.27367    0.47709    1.000
    O5       O        0.89928    0.20551    0.59732    1.000
    O6       O        0.13389    0.20893    0.58925    1.000
    O7       O        0.07654    0.11792    0.35972    1.000
    O8       O        0.20942    0.40232    0.54307    1.000
    N2       N        0.68241    0.27989    0.47625    1.000
    C16      C        0.63982    0.38541    0.56091    1.000
    C17      C        0.59511    0.16591    0.49853    1.000
    C18      C        0.62228    0.29490    0.37034    1.000
    C19      C        0.02195    0.20694    0.64311    1.000
    C20      C        0.04759    0.23516    0.76090    1.000
    C21      C        0.93504    0.23866    0.83009    1.000
    C22      C        0.96457    0.26022    0.94254    1.000
    C23      C        0.85347    0.26307    0.01186    1.000
    C24      C        0.18887    0.25014    0.80551    1.000
    C25      C        0.95221    0.08188    0.38866    1.000
    C26      C        0.94533    0.95598    0.42108    1.000
    C27      C        0.06543    0.90795    0.40294    1.000
    C28      C        0.08061    0.80479    0.44328    1.000
    C29      C        0.20049    0.74998    0.42246    1.000
    C30      C        0.83122    0.90868    0.47533    1.000
    H1       H        0.24731    0.32445    0.13339    1.000
    H2       H        0.32876    0.28590    0.94832    1.000
    H3       H        0.79504    0.28629    0.17470    1.000
    H4       H        0.82540    0.22791    0.79666    1.000
    H5       H        0.74303    0.24300    0.97901    1.000
    H6       H        0.27664    0.24580    0.75412    1.000
    H7       H        0.89144    0.60419    0.58449    1.000
    H8       H        0.75691    0.76471    0.56671    1.000
    H9       H        0.30869    0.59768    0.45250    1.000
    H10      H        0.15169    0.95324    0.35486    1.000
    H11      H        0.28977    0.79176    0.37486    1.000
    H12      H        0.73298    0.95489    0.48321    1.000
    H13      H        0.43175    0.36886    0.63328    1.000
    H14      H        0.45701    0.47402    0.53559    1.000
    H15      H        0.38063    0.07214    0.42730    1.000
    H16      H        0.39154    0.14542    0.57344    1.000
    H17      H        0.43893    0.37910    0.34436    1.000
    H18      H        0.41147    0.20615    0.29831    1.000
    H19      H        0.69802    0.48042    0.54791    1.000
    H20      H        0.67305    0.37467    0.64524    1.000
    H21      H        0.63097    0.15647    0.58271    1.000
    H22      H        0.61484    0.08056    0.43817    1.000
    H23      H        0.64700    0.21735    0.30399    1.000
    H24      H        0.67530    0.38997    0.35428    1.000
