# CIF file generated by openbabel 3.1.0, see https://openbabel.org
data_I
_chemical_name_common 'image0'
_cell_length_a 9.3803
_cell_length_b 10.1395
_cell_length_c 10.9816
_cell_angle_alpha 87.659
_cell_angle_beta 81.273
_cell_angle_gamma 63.599
_space_group_name_H-M_alt 'P 1'
_space_group_name_Hall 'P 1'
loop_
    _symmetry_equiv_pos_as_xyz
    x,y,z
loop_
    _atom_site_label
    _atom_site_type_symbol
    _atom_site_fract_x
    _atom_site_fract_y
    _atom_site_fract_z
    _atom_site_occupancy
    Cd1      Cd       0.20189    0.37602    0.37999    1.000
    Cd2      Cd       0.40147    0.10063    0.15032    1.000
    C1       C        0.97216    0.06691    0.34456    1.000
    C2       C        0.02899    0.91501    0.34987    1.000
    H1       H        0.14040    0.85380    0.33680    1.000
    C3       C        0.92212    0.85260    0.37436    1.000
    C4       C        0.75657    0.94353    0.38615    1.000
    H2       H        0.68390    0.90200    0.39880    1.000
    C5       C        0.69931    0.09563    0.37913    1.000
    C6       C        0.80733    0.15757    0.36346    1.000
    H3       H        0.76850    0.26050    0.36570    1.000
    C7       C        0.09148    0.12950    0.31092    1.000
    C8       C        0.98678    0.68901    0.38585    1.000
    C9       C        0.52289    0.19233    0.38266    1.000
    O1       O        0.21803    0.04463    0.24434    1.000
    O2       O        0.05511    0.25630    0.34903    1.000
    O3       O        0.89057    0.63273    0.41712    1.000
    O4       O        0.13660    0.61285    0.36056    1.000
    O5       O        0.46400    0.32602    0.41155    1.000
    O6       O        0.43587    0.13482    0.35384    1.000
    Cl1      Cl       0.29976    0.37051    0.12957    1.000
    Cl2      Cl       0.68164    0.94563    0.06398    1.000
    Cd3      Cd       0.79811    0.62398    0.62001    1.000
    Cd4      Cd       0.59853    0.89937    0.84968    1.000
    C10      C        0.02784    0.93309    0.65544    1.000
    C11      C        0.97101    0.08499    0.65013    1.000
    H4       H        0.85960    0.14620    0.66320    1.000
    C12      C        0.07788    0.14740    0.62564    1.000
    C13      C        0.24343    0.05647    0.61385    1.000
    H5       H        0.31610    0.09800    0.60120    1.000
    C14      C        0.30069    0.90437    0.62087    1.000
    C15      C        0.19267    0.84243    0.63654    1.000
    H6       H        0.23150    0.73950    0.63430    1.000
    C16      C        0.90852    0.87050    0.68908    1.000
    C17      C        0.01322    0.31099    0.61415    1.000
    C18      C        0.47711    0.80767    0.61734    1.000
    O7       O        0.78197    0.95537    0.75566    1.000
    O8       O        0.94489    0.74370    0.65097    1.000
    O9       O        0.10943    0.36727    0.58288    1.000
    O10      O        0.86340    0.38715    0.63944    1.000
    O11      O        0.53600    0.67398    0.58845    1.000
    O12      O        0.56413    0.86518    0.64616    1.000
    Cl3      Cl       0.70024    0.62949    0.87043    1.000
    Cl4      Cl       0.31836    0.05437    0.93602    1.000
