data_functionalizedCrystal
_audit_creation_method	'EQeq! by Chris Wilmer'
_symmetry_space_group_name_H-M	'P1'
_symmetry_Int_Tables_number	1
_symmetry_cell_setting	triclinic
loop_
_symmetry_equiv_pos_as_xyz
  x,y,z
_cell_length_a	20.014
_cell_length_b	37.956
_cell_length_c	25.085
_cell_angle_alpha	90
_cell_angle_beta	109.384
_cell_angle_gamma	90
loop_
_atom_site_label
_atom_site_type_symbol
_atom_site_fract_x
_atom_site_fract_y
_atom_site_fract_z
_atom_site_charge
Mof_Cu	Cu	0.53865	0.12826	0.33196	0.764
Mof_Cu	Cu	0.55307	0.97457	0.36768	0.825
Mof_Cu	Cu	0.093	0.25492	0.49668	0.815
Mof_Cu	Cu	0.79502	0.21825	0.38115	0.827
Mof_Cu	Cu	0.00634	0.32893	0.43232	0.812
Mof_Cu	Cu	0.3169	0.20605	0.38771	0.836
Mof_Cu	Cu	0.1524	0.33112	0.41289	0.818
Mof_Cu	Cu	0.60893	0.09461	0.24641	0.779
Mof_Cl	Cl	0.12511	0.31878	0.50799	-0.797
Mof_N 	N 	0.55012	0.07755	0.32777	-0.279
Mof_N 	N 	0.5534	0.01956	0.33808	-0.288
Mof_N 	N 	0.59146	0.06399	0.29842	-0.266
Mof_N 	N 	0.27897	0.20438	0.58386	-0.284
Mof_N 	N 	0.22367	0.25427	0.58871	-0.243
Mof_N 	N 	0.18237	0.23589	0.54165	-0.246
Mof_N 	N 	0.99482	0.25465	0.45217	-0.248
Mof_N 	N 	0.95906	0.28523	0.42782	-0.252
Mof_N 	N 	0.88142	0.24169	0.41105	-0.286
Mof_N 	N 	0.53355	0.87367	0.41139	-0.247
Mof_N 	N 	0.59514	0.87236	0.39774	-0.254
Mof_N 	N 	0.56071	0.92786	0.39313	-0.29
Mof_N 	N 	0.38568	0.13066	0.30225	-0.271
Mof_N 	N 	0.44753	0.14824	0.33091	-0.277
Mof_N 	N 	0.35886	0.17459	0.34936	-0.276
Mof_N 	N 	0.70591	0.1976	0.35084	-0.289
Mof_N 	N 	0.61398	0.16198	0.33571	-0.268
Mof_N 	N 	0.59319	0.19055	0.29998	-0.272
Mof_N 	N 	0.6756	0.3758	0.3051	-0.328
Mof_H 	H 	0.6817	0.3923	0.2836	0.134
Mof_H 	H 	0.6369	0.3748	0.3129	0.132
Mof_N 	N 	0.6317	0.33283	0.1766	-0.329
Mof_H 	H 	0.5963	0.3469	0.1705	0.133
Mof_H 	H 	0.6629	0.3366	0.1606	0.138
Mof_N 	N 	0.3248	0.08512	0.4538	-0.33
Mof_H 	H 	0.3333	0.1021	0.4778	0.153
Mof_H 	H 	0.2855	0.0738	0.4453	0.141
Mof_N 	N 	0.7415	0.94861	0.1917	-0.327
Mof_H 	H 	0.724	0.9291	0.1756	0.145
Mof_H 	H 	0.781	0.9562	0.1896	0.136
Mof_N 	N 	0.6455	0.27249	0.4615	-0.318
Mof_H 	H 	0.6845	0.2657	0.4863	0.112
Mof_H 	H 	0.6403	0.2941	0.4507	0.133
Mof_N 	N 	0.0766	0.09369	0.3989	-0.323
Mof_H 	H 	0.0829	0.0725	0.4119	0.128
Mof_H 	H 	0.0467	0.0977	0.3659	0.13
Mof_N 	N 	0.0091	0.08704	0.5096	-0.344
Mof_H 	H 	0.0414	0.0824	0.5412	0.141
Mof_H 	H 	0.9872	0.0702	0.4878	0.143
Mof_N 	N 	0.4782	0.27397	0.82545	-0.319
Mof_H 	H 	0.4836	0.2957	0.8355	0.136
Mof_H 	H 	0.5027	0.2579	0.8477	0.118
Mof_N 	N 	0.8519	0.07688	0.5389	-0.327
Mof_H 	H 	0.8722	0.0852	0.5723	0.133
Mof_H 	H 	0.8568	0.055	0.5321	0.128
Mof_N 	N 	0.8666	0.94291	0.3556	-0.328
Mof_H 	H 	0.8841	0.9299	0.3355	0.131
Mof_H 	H 	0.8894	0.9611	0.3727	0.132
Mof_N 	N 	0.2947	0.96467	0.4763	-0.341
Mof_H 	H 	0.2957	0.9867	0.4846	0.132
Mof_H 	H 	0.2597	0.9518	0.477	0.146
Mof_N 	N 	0.0679	0.0807	0.2188	-0.317
Mof_H 	H 	0.0537	0.0747	0.1838	0.125
Mof_H 	H 	0.0424	0.0758	0.2395	0.121
Mof_C 	C 	0.21649	0.20606	0.54039	0.123
Mof_C 	C 	0.1422	0.18353	0.44551	0.096
Mof_H 	H 	0.1359	0.2064	0.4314	-0.057
Mof_C 	C 	0.1147	0.12147	0.4316	0.207
Mof_C 	C 	0.1622	0.11498	0.4843	-0.234
Mof_H 	H 	0.1714	0.0919	0.4971	0.099
Mof_C 	C 	0.18673	0.17743	0.50038	-0.174
Mof_C 	C 	0.1971	0.14267	0.51906	0.099
Mof_H 	H 	0.2277	0.1378	0.5553	-0.054
Mof_C 	C 	0.1069	0.15587	0.4113	-0.233
Mof_H 	H 	0.0778	0.1604	0.3745	0.096
Mof_C 	C 	0.28098	0.23462	0.61307	0.117
Mof_C 	C 	0.3352	0.24498	0.66641	-0.182
Mof_C 	C 	0.3757	0.2198	0.7042	0.09
Mof_H 	H 	0.3712	0.1961	0.6941	-0.063
Mof_C 	C 	0.4224	0.22975	0.7563	-0.228
Mof_H 	H 	0.4493	0.2126	0.7805	0.077
Mof_C 	C 	0.3432	0.28015	0.6839	0.102
Mof_H 	H 	0.3168	0.2975	0.6598	-0.06
Mof_C 	C 	0.4298	0.26468	0.7731	0.2
Mof_C 	C 	0.3896	0.28976	0.7364	-0.246
Mof_H 	H 	0.3938	0.3133	0.747	0.105
Mof_C 	C 	0.60996	0.905	0.38748	0.126
Mof_C 	C 	0.674	0.91539	0.37586	-0.194
Mof_C 	C 	0.7014	0.89592	0.3418	0.11
Mof_H 	H 	0.6775	0.8759	0.3238	-0.051
Mof_C 	C 	0.7645	0.90564	0.3339	-0.251
Mof_H 	H 	0.7817	0.8924	0.3102	0.101
Mof_C 	C 	0.7113	0.94517	0.4021	0.107
Mof_H 	H 	0.6935	0.959	0.4249	-0.06
Mof_C 	C 	0.8014	0.93445	0.3607	0.219
Mof_C 	C 	0.7741	0.95454	0.3948	-0.246
Mof_H 	H 	0.7984	0.9744	0.4129	0.096
Mof_C 	C 	0.51493	0.90737	0.40922	0.146
Mof_C 	C 	0.4574	0.9567	0.4426	0.159
Mof_H 	H 	0.4944	0.9713	0.4419	-0.084
Mof_C 	C 	0.4048	0.97014	0.4602	-0.289
Mof_H 	H 	0.4072	0.9936	0.4714	0.117
Mof_C 	C 	0.4566	0.92145	0.42574	-0.21
Mof_C 	C 	0.4019	0.9008	0.4302	0.154
Mof_H 	H 	0.401	0.877	0.4212	-0.07
Mof_C 	C 	0.3492	0.91423	0.4474	-0.281
Mof_H 	H 	0.3131	0.8996	0.4498	0.121
Mof_C 	C 	0.349	0.95009	0.4616	0.244
Mof_C 	C 	0.72524	0.14306	0.41061	-0.192
Mof_C 	C 	0.7612	0.15571	0.464	0.103
Mof_H 	H 	0.7571	0.1794	0.472	-0.048
Mof_C 	C 	0.7317	0.10786	0.4008	0.118
Mof_H 	H 	0.7069	0.0984	0.3656	-0.061
Mof_C 	C 	0.68172	0.16685	0.36582	0.127
Mof_C 	C 	0.8033	0.13379	0.5062	-0.246
Mof_H 	H 	0.8264	0.1429	0.542	0.099
Mof_C 	C 	0.7749	0.08608	0.4429	-0.255
Mof_H 	H 	0.7793	0.0624	0.4351	0.099
Mof_C 	C 	0.8111	0.09902	0.4955	0.213
Mof_C 	C 	0.64844	0.2442	0.27895	-0.185
Mof_C 	C 	0.6994	0.25122	0.25416	0.097
Mof_H 	H 	0.7371	0.2357	0.2596	-0.053
Mof_C 	C 	0.6948	0.28078	0.2217	-0.25
Mof_H 	H 	0.73	0.2853	0.206	0.101
Mof_C 	C 	0.5934	0.26824	0.27086	0.099
Mof_H 	H 	0.5594	0.2643	0.288	-0.038
Mof_C 	C 	0.64922	0.21131	0.30991	0.131
Mof_C 	C 	0.6383	0.30409	0.21197	0.212
Mof_C 	C 	0.5887	0.29744	0.23819	-0.24
Mof_H 	H 	0.5516	0.3132	0.2334	0.095
Mof_C 	C 	0.59299	0.02938	0.30547	0.121
Mof_C 	C 	0.6333	0.00662	0.27999	-0.18
Mof_C 	C 	0.6064	0.97464	0.25413	0.089
Mof_H 	H 	0.5641	0.966	0.2566	-0.067
Mof_C 	C 	0.7057	0.96788	0.2214	0.206
Mof_C 	C 	0.6979	0.01808	0.2771	0.096
Mof_H 	H 	0.717	0.0391	0.2946	-0.041
Mof_C 	C 	0.642	0.95575	0.225	-0.241
Mof_H 	H 	0.6231	0.9347	0.2076	0.091
Mof_C 	C 	0.7341	0.99926	0.2492	-0.234
Mof_H 	H 	0.7777	0.0073	0.2486	0.098
Mof_C 	C 	0.4144	0.03805	0.368	0.065
Mof_H 	H 	0.4061	0.019	0.3432	-0.025
Mof_C 	C 	0.438	0.09405	0.44198	-0.224
Mof_H 	H 	0.4463	0.1131	0.4665	0.096
Mof_C 	C 	0.4779	0.05615	0.38114	-0.183
Mof_C 	C 	0.52742	0.05063	0.35043	0.108
Mof_C 	C 	0.489	0.08429	0.41957	0.083
Mof_H 	H 	0.5318	0.0965	0.4299	-0.04
Mof_C 	C 	0.3745	0.07608	0.4288	0.2
Mof_C 	C 	0.3632	0.04766	0.3908	-0.227
Mof_H 	H 	0.3208	0.0352	0.381	0.096
Mof_C 	C 	0.9618	0.19244	0.45944	-0.179
Mof_C 	C 	0.0125	0.18391	0.51115	0.111
Mof_H 	H 	0.0372	0.2019	0.5347	-0.064
Mof_C 	C 	0.9263	0.16467	0.4251	0.115
Mof_H 	H 	0.892	0.1695	0.3904	-0.065
Mof_C 	C 	0.9417	0.13011	0.4419	-0.248
Mof_H 	H 	0.9177	0.112	0.4183	0.104
Mof_C 	C 	0.9468	0.22912	0.44171	0.134
Mof_C 	C 	0.027	0.14928	0.52814	-0.26
Mof_H 	H 	0.0605	0.1443	0.5632	0.105
Mof_C 	C 	0.9922	0.12186	0.4935	0.239
Mof_C 	C 	0.8918	0.27642	0.40382	0.13
Mof_C 	C 	0.7705	0.30004	0.38537	0.113
Mof_H 	H 	0.7627	0.2824	0.4084	-0.063
Mof_C 	C 	0.718	0.32441	0.3617	-0.246
Mof_H 	H 	0.6755	0.3231	0.369	0.101
Mof_C 	C 	0.728	0.3509	0.3271	0.221
Mof_C 	C 	0.7906	0.35173	0.3156	-0.252
Mof_H 	H 	0.7973	0.3689	0.2915	0.103
Mof_C 	C 	0.8436	0.32746	0.33912	0.115
Mof_H 	H 	0.8855	0.3285	0.3307	-0.058
Mof_C 	C 	0.83489	0.3013	0.37546	-0.193
Mof_C 	C 	0.33383	0.14706	0.31374	0.136
Mof_C 	C 	0.26076	0.13408	0.28937	-0.17
Mof_C 	C 	0.2368	0.12445	0.2336	0.081
Mof_H 	H 	0.2637	0.1301	0.2109	-0.052
Mof_C 	C 	0.2195	0.12705	0.3226	0.089
Mof_H 	H 	0.2344	0.134	0.3602	-0.022
Mof_C 	C 	0.1736	0.10645	0.21	-0.237
Mof_H 	H 	0.159	0.0998	0.1722	0.095
Mof_C 	C 	0.1331	0.0986	0.2425	0.189
Mof_C 	C 	0.1556	0.1094	0.2992	-0.223
Mof_H 	H 	0.1274	0.1048	0.3213	0.095
Mof_C 	C 	0.4823	0.20002	0.39056	-0.185
Mof_C 	C 	0.4744	0.23541	0.37543	0.046
Mof_H 	H 	0.4322	0.2431	0.349	-0.028
Mof_C 	C 	0.5279	0.25933	0.3989	-0.222
Mof_H 	H 	0.522	0.2829	0.388	0.093
Mof_C 	C 	0.598	0.21359	0.4558	-0.225
Mof_H 	H 	0.6393	0.2063	0.4837	0.091
Mof_C 	C 	0.5902	0.24829	0.4388	0.186
Mof_C 	C 	0.42948	0.17422	0.35828	0.11
Mof_C 	C 	0.5445	0.18936	0.4316	0.068
Mof_H 	H 	0.5504	0.1659	0.443	-0.037
Mof_Cu	Cu	0.03865	0.62826	0.33196	0.763
Mof_Cu	Cu	0.05307	0.47457	0.36768	0.824
Mof_Cu	Cu	0.593	0.75492	0.49668	0.817
Mof_Cu	Cu	0.29502	0.71825	0.38115	0.827
Mof_Cu	Cu	0.50634	0.82893	0.43232	0.816
Mof_Cu	Cu	0.8169	0.70605	0.38771	0.836
Mof_Cu	Cu	0.6524	0.83112	0.41289	0.819
Mof_Cu	Cu	0.10893	0.59461	0.24641	0.778
Mof_Cl	Cl	0.62511	0.81878	0.50799	-0.795
Mof_N 	N 	0.05012	0.57755	0.32777	-0.28
Mof_N 	N 	0.0534	0.51956	0.33808	-0.288
Mof_N 	N 	0.09146	0.56399	0.29842	-0.267
Mof_N 	N 	0.77897	0.70438	0.58386	-0.284
Mof_N 	N 	0.72367	0.75427	0.58871	-0.243
Mof_N 	N 	0.68237	0.73589	0.54165	-0.246
Mof_N 	N 	0.49482	0.75465	0.45217	-0.252
Mof_N 	N 	0.45906	0.78523	0.42782	-0.255
Mof_N 	N 	0.38142	0.74169	0.41105	-0.286
Mof_N 	N 	0.03355	0.37367	0.41139	-0.247
Mof_N 	N 	0.09514	0.37236	0.39774	-0.255
Mof_N 	N 	0.06071	0.42786	0.39313	-0.289
Mof_N 	N 	0.88568	0.63066	0.30225	-0.271
Mof_N 	N 	0.94753	0.64824	0.33091	-0.274
Mof_N 	N 	0.85886	0.67459	0.34936	-0.276
Mof_N 	N 	0.20591	0.6976	0.35084	-0.289
Mof_N 	N 	0.11398	0.66198	0.33571	-0.269
Mof_N 	N 	0.09319	0.69055	0.29998	-0.273
Mof_N 	N 	0.1756	0.8758	0.3051	-0.328
Mof_H 	H 	0.1817	0.8923	0.2836	0.133
Mof_H 	H 	0.1369	0.8748	0.3129	0.131
Mof_N 	N 	0.1317	0.83283	0.1766	-0.329
Mof_H 	H 	0.0963	0.8469	0.1705	0.132
Mof_H 	H 	0.1629	0.8366	0.1606	0.137
Mof_N 	N 	0.8248	0.58512	0.4538	-0.332
Mof_H 	H 	0.8333	0.6021	0.4778	0.153
Mof_H 	H 	0.7855	0.5738	0.4453	0.141
Mof_N 	N 	0.2415	0.44861	0.1917	-0.327
Mof_H 	H 	0.224	0.4291	0.1756	0.144
Mof_H 	H 	0.281	0.4562	0.1896	0.135
Mof_N 	N 	0.1455	0.77249	0.4615	-0.318
Mof_H 	H 	0.1845	0.7657	0.4863	0.112
Mof_H 	H 	0.1403	0.7941	0.4507	0.132
Mof_N 	N 	0.5766	0.59369	0.3989	-0.324
Mof_H 	H 	0.5829	0.5725	0.4119	0.13
Mof_H 	H 	0.5467	0.5977	0.3659	0.133
Mof_N 	N 	0.5091	0.58704	0.5096	-0.327
Mof_H 	H 	0.5414	0.5824	0.5412	0.139
Mof_H 	H 	0.4872	0.5702	0.4878	0.133
Mof_N 	N 	0.9782	0.77397	0.82545	-0.309
Mof_H 	H 	0.9836	0.7957	0.8355	0.137
Mof_H 	H 	0.0027	0.7579	0.8477	0.107
Mof_N 	N 	0.3519	0.57688	0.5389	-0.326
Mof_H 	H 	0.3722	0.5852	0.5723	0.132
Mof_H 	H 	0.3568	0.555	0.5321	0.127
Mof_N 	N 	0.3666	0.44291	0.3556	-0.328
Mof_H 	H 	0.3841	0.4299	0.3355	0.13
Mof_H 	H 	0.3894	0.4611	0.3727	0.13
Mof_N 	N 	0.7947	0.46467	0.4763	-0.339
Mof_H 	H 	0.7957	0.4867	0.4846	0.132
Mof_H 	H 	0.7597	0.4518	0.477	0.146
Mof_N 	N 	0.5679	0.5807	0.2188	-0.318
Mof_H 	H 	0.5537	0.5747	0.1838	0.127
Mof_H 	H 	0.5424	0.5758	0.2395	0.123
Mof_C 	C 	0.71649	0.70606	0.54039	0.123
Mof_C 	C 	0.6422	0.68353	0.44551	0.098
Mof_H 	H 	0.6359	0.7064	0.4314	-0.057
Mof_C 	C 	0.6147	0.62147	0.4316	0.21
Mof_C 	C 	0.6622	0.61498	0.4843	-0.236
Mof_H 	H 	0.6714	0.5919	0.4971	0.1
Mof_C 	C 	0.68673	0.67743	0.50038	-0.175
Mof_C 	C 	0.6971	0.64267	0.51906	0.1
Mof_H 	H 	0.7277	0.6378	0.5553	-0.054
Mof_C 	C 	0.6069	0.65587	0.4113	-0.234
Mof_H 	H 	0.5778	0.6604	0.3745	0.098
Mof_C 	C 	0.78098	0.73462	0.61307	0.117
Mof_C 	C 	0.8352	0.74498	0.66641	-0.181
Mof_C 	C 	0.8757	0.7198	0.7042	0.09
Mof_H 	H 	0.8712	0.6961	0.6941	-0.062
Mof_C 	C 	0.9224	0.72975	0.7563	-0.226
Mof_H 	H 	0.9493	0.7126	0.7805	0.08
Mof_C 	C 	0.8432	0.78015	0.6839	0.102
Mof_H 	H 	0.8168	0.7975	0.6598	-0.06
Mof_C 	C 	0.9298	0.76468	0.7731	0.2
Mof_C 	C 	0.8896	0.78976	0.7364	-0.245
Mof_H 	H 	0.8938	0.8133	0.747	0.105
Mof_C 	C 	0.10996	0.405	0.38748	0.126
Mof_C 	C 	0.174	0.41539	0.37586	-0.194
Mof_C 	C 	0.2014	0.39592	0.3418	0.11
Mof_H 	H 	0.1775	0.3759	0.3238	-0.052
Mof_C 	C 	0.2645	0.40564	0.3339	-0.25
Mof_H 	H 	0.2817	0.3924	0.3102	0.1
Mof_C 	C 	0.2113	0.44517	0.4021	0.107
Mof_H 	H 	0.1935	0.459	0.4249	-0.06
Mof_C 	C 	0.3014	0.43445	0.3607	0.218
Mof_C 	C 	0.2741	0.45454	0.3948	-0.246
Mof_H 	H 	0.2984	0.4744	0.4129	0.095
Mof_C 	C 	0.01493	0.40737	0.40922	0.134
Mof_C 	C 	0.9574	0.4567	0.4426	0.15
Mof_H 	H 	0.9944	0.4713	0.4419	-0.077
Mof_C 	C 	0.9048	0.47014	0.4602	-0.281
Mof_H 	H 	0.9072	0.4936	0.4714	0.116
Mof_C 	C 	0.9566	0.42145	0.42574	-0.194
Mof_C 	C 	0.9019	0.4008	0.4302	0.144
Mof_H 	H 	0.901	0.377	0.4212	-0.065
Mof_C 	C 	0.8492	0.41423	0.4474	-0.273
Mof_H 	H 	0.8131	0.3996	0.4498	0.118
Mof_C 	C 	0.849	0.45009	0.4616	0.239
Mof_C 	C 	0.22524	0.64306	0.41061	-0.191
Mof_C 	C 	0.2612	0.65571	0.464	0.102
Mof_H 	H 	0.2571	0.6794	0.472	-0.048
Mof_C 	C 	0.2317	0.60786	0.4008	0.118
Mof_H 	H 	0.2069	0.5984	0.3656	-0.06
Mof_C 	C 	0.18172	0.66685	0.36582	0.127
Mof_C 	C 	0.3033	0.63379	0.5062	-0.246
Mof_H 	H 	0.3264	0.6429	0.542	0.098
Mof_C 	C 	0.2749	0.58608	0.4429	-0.254
Mof_H 	H 	0.2793	0.5624	0.4351	0.098
Mof_C 	C 	0.3111	0.59902	0.4955	0.212
Mof_C 	C 	0.14844	0.7442	0.27895	-0.185
Mof_C 	C 	0.1994	0.75122	0.25416	0.096
Mof_H 	H 	0.2371	0.7357	0.2596	-0.052
Mof_C 	C 	0.1948	0.78078	0.2217	-0.25
Mof_H 	H 	0.23	0.7853	0.206	0.101
Mof_C 	C 	0.0934	0.76824	0.27086	0.098
Mof_H 	H 	0.0594	0.7643	0.288	-0.04
Mof_C 	C 	0.14922	0.71131	0.30991	0.131
Mof_C 	C 	0.1383	0.80409	0.21197	0.211
Mof_C 	C 	0.0887	0.79744	0.23819	-0.24
Mof_H 	H 	0.0516	0.8132	0.2334	0.093
Mof_C 	C 	0.09299	0.52938	0.30547	0.12
Mof_C 	C 	0.1333	0.50662	0.27999	-0.18
Mof_C 	C 	0.1064	0.47464	0.25413	0.089
Mof_H 	H 	0.0641	0.466	0.2566	-0.069
Mof_C 	C 	0.2057	0.46788	0.2214	0.205
Mof_C 	C 	0.1979	0.51808	0.2771	0.096
Mof_H 	H 	0.217	0.5391	0.2946	-0.041
Mof_C 	C 	0.142	0.45575	0.225	-0.242
Mof_H 	H 	0.1231	0.4347	0.2076	0.091
Mof_C 	C 	0.2341	0.49926	0.2492	-0.234
Mof_H 	H 	0.2777	0.5073	0.2486	0.097
Mof_C 	C 	0.9144	0.53805	0.368	0.067
Mof_H 	H 	0.9061	0.519	0.3432	-0.024
Mof_C 	C 	0.938	0.59405	0.44198	-0.235
Mof_H 	H 	0.9463	0.6131	0.4665	0.102
Mof_C 	C 	0.9779	0.55615	0.38114	-0.182
Mof_C 	C 	0.02742	0.55063	0.35043	0.102
Mof_C 	C 	0.989	0.58429	0.41957	0.104
Mof_H 	H 	0.0318	0.5965	0.4299	-0.053
Mof_C 	C 	0.8745	0.57608	0.4288	0.205
Mof_C 	C 	0.8632	0.54766	0.3908	-0.23
Mof_H 	H 	0.8208	0.5352	0.381	0.097
Mof_C 	C 	0.4618	0.69244	0.45944	-0.185
Mof_C 	C 	0.5125	0.68391	0.51115	0.115
Mof_H 	H 	0.5372	0.7019	0.5347	-0.062
Mof_C 	C 	0.4263	0.66467	0.4251	0.11
Mof_H 	H 	0.392	0.6695	0.3904	-0.063
Mof_C 	C 	0.4417	0.63011	0.4419	-0.238
Mof_H 	H 	0.4177	0.612	0.4183	0.099
Mof_C 	C 	0.4468	0.72912	0.44171	0.134
Mof_C 	C 	0.527	0.64928	0.52814	-0.241
Mof_H 	H 	0.5605	0.6443	0.5632	0.1
Mof_C 	C 	0.4922	0.62186	0.4935	0.215
Mof_C 	C 	0.3918	0.77642	0.40382	0.13
Mof_C 	C 	0.2705	0.80004	0.38537	0.113
Mof_H 	H 	0.2627	0.7824	0.4084	-0.064
Mof_C 	C 	0.218	0.82441	0.3617	-0.246
Mof_H 	H 	0.1755	0.8231	0.369	0.1
Mof_C 	C 	0.228	0.8509	0.3271	0.221
Mof_C 	C 	0.2906	0.85173	0.3156	-0.252
Mof_H 	H 	0.2973	0.8689	0.2915	0.102
Mof_C 	C 	0.3436	0.82746	0.33912	0.115
Mof_H 	H 	0.3855	0.8285	0.3307	-0.06
Mof_C 	C 	0.33489	0.8013	0.37546	-0.194
Mof_C 	C 	0.83383	0.64706	0.31374	0.136
Mof_C 	C 	0.76076	0.63408	0.28937	-0.171
Mof_C 	C 	0.7368	0.62445	0.2336	0.082
Mof_H 	H 	0.7637	0.6301	0.2109	-0.053
Mof_C 	C 	0.7195	0.62705	0.3226	0.089
Mof_H 	H 	0.7344	0.634	0.3602	-0.023
Mof_C 	C 	0.6736	0.60645	0.21	-0.238
Mof_H 	H 	0.659	0.5998	0.1722	0.095
Mof_C 	C 	0.6331	0.5986	0.2425	0.191
Mof_C 	C 	0.6556	0.6094	0.2992	-0.223
Mof_H 	H 	0.6274	0.6048	0.3213	0.096
Mof_C 	C 	0.9823	0.70002	0.39056	-0.177
Mof_C 	C 	0.9744	0.73541	0.37543	0.058
Mof_H 	H 	0.9322	0.7431	0.349	-0.031
Mof_C 	C 	0.0279	0.75933	0.3989	-0.235
Mof_H 	H 	0.022	0.7829	0.388	0.095
Mof_C 	C 	0.098	0.71359	0.4558	-0.222
Mof_H 	H 	0.1393	0.7063	0.4837	0.09
Mof_C 	C 	0.0902	0.74829	0.4388	0.188
Mof_C 	C 	0.92948	0.67422	0.35828	0.11
Mof_C 	C 	0.0445	0.68936	0.4316	0.057
Mof_H 	H 	0.0504	0.6659	0.443	-0.035
Mof_Cu	Cu	0.46135	0.12826	0.16804	0.765
Mof_Cu	Cu	0.44693	0.97457	0.13232	0.826
Mof_Cu	Cu	0.907	0.25492	0.00332	0.818
Mof_Cu	Cu	0.20498	0.21825	0.11885	0.827
Mof_Cu	Cu	0.99366	0.32893	0.06768	0.819
Mof_Cu	Cu	0.6831	0.20605	0.11229	0.836
Mof_Cu	Cu	0.8476	0.33112	0.08711	0.819
Mof_Cu	Cu	0.39107	0.09461	0.25359	0.779
Mof_Cl	Cl	0.87489	0.31878	0.99201	-0.793
Mof_N 	N 	0.44988	0.07755	0.17223	-0.279
Mof_N 	N 	0.4466	0.01956	0.16192	-0.287
Mof_N 	N 	0.40854	0.06399	0.20158	-0.266
Mof_N 	N 	0.72103	0.20438	0.91614	-0.284
Mof_N 	N 	0.77633	0.25427	0.91129	-0.243
Mof_N 	N 	0.81763	0.23589	0.95835	-0.245
Mof_N 	N 	0.00518	0.25465	0.04783	-0.254
Mof_N 	N 	0.04094	0.28523	0.07218	-0.257
Mof_N 	N 	0.11858	0.24169	0.08895	-0.286
Mof_N 	N 	0.46645	0.87367	0.08861	-0.247
Mof_N 	N 	0.40486	0.87236	0.10226	-0.254
Mof_N 	N 	0.43929	0.92786	0.10687	-0.29
Mof_N 	N 	0.61432	0.13066	0.19775	-0.271
Mof_N 	N 	0.55247	0.14824	0.16909	-0.277
Mof_N 	N 	0.64114	0.17459	0.15064	-0.276
Mof_N 	N 	0.29409	0.1976	0.14916	-0.289
Mof_N 	N 	0.38602	0.16198	0.16429	-0.269
Mof_N 	N 	0.40681	0.19055	0.20002	-0.272
Mof_N 	N 	0.3244	0.3758	0.1949	-0.329
Mof_H 	H 	0.3183	0.3923	0.2164	0.134
Mof_H 	H 	0.3631	0.3748	0.1871	0.132
Mof_N 	N 	0.3683	0.33283	0.3234	-0.329
Mof_H 	H 	0.4037	0.3469	0.3295	0.133
Mof_H 	H 	0.3371	0.3366	0.3394	0.137
Mof_N 	N 	0.6752	0.08512	0.0462	-0.33
Mof_H 	H 	0.6667	0.1021	0.0222	0.153
Mof_H 	H 	0.7145	0.0738	0.0547	0.141
Mof_N 	N 	0.2585	0.94861	0.3083	-0.327
Mof_H 	H 	0.276	0.9291	0.3244	0.144
Mof_H 	H 	0.219	0.9562	0.3104	0.135
Mof_N 	N 	0.3545	0.27249	0.0385	-0.318
Mof_H 	H 	0.3155	0.2657	0.0137	0.113
Mof_H 	H 	0.3597	0.2941	0.0493	0.133
Mof_N 	N 	0.9234	0.09369	0.1011	-0.325
Mof_H 	H 	0.9171	0.0725	0.0881	0.132
Mof_H 	H 	0.9533	0.0977	0.1341	0.136
Mof_N 	N 	0.9909	0.08704	0.9904	-0.312
Mof_H 	H 	0.9586	0.0824	0.9588	0.137
Mof_H 	H 	0.0128	0.0702	0.0122	0.124
Mof_N 	N 	0.5218	0.27397	0.67455	-0.319
Mof_H 	H 	0.5164	0.2957	0.6645	0.136
Mof_H 	H 	0.4973	0.2579	0.6523	0.118
Mof_N 	N 	0.1481	0.07688	0.9611	-0.329
Mof_H 	H 	0.1278	0.0852	0.9277	0.13
Mof_H 	H 	0.1432	0.055	0.9679	0.125
Mof_N 	N 	0.1334	0.94291	0.1444	-0.327
Mof_H 	H 	0.1159	0.9299	0.1645	0.129
Mof_H 	H 	0.1106	0.9611	0.1273	0.129
Mof_N 	N 	0.7053	0.96467	0.0237	-0.341
Mof_H 	H 	0.7043	0.9867	0.0154	0.132
Mof_H 	H 	0.7403	0.9518	0.023	0.146
Mof_N 	N 	0.9321	0.0807	0.2812	-0.319
Mof_H 	H 	0.9463	0.0747	0.3162	0.13
Mof_H 	H 	0.9576	0.0758	0.2605	0.127
Mof_C 	C 	0.78351	0.20606	0.95961	0.123
Mof_C 	C 	0.8578	0.18353	0.05449	0.098
Mof_H 	H 	0.8641	0.2064	0.0686	-0.056
Mof_C 	C 	0.8853	0.12147	0.0684	0.212
Mof_C 	C 	0.8378	0.11498	0.0157	-0.238
Mof_H 	H 	0.8286	0.0919	0.0029	0.101
Mof_C 	C 	0.81327	0.17743	0.99962	-0.175
Mof_C 	C 	0.8029	0.14267	0.98094	0.102
Mof_H 	H 	0.7723	0.1378	0.9447	-0.055
Mof_C 	C 	0.8931	0.15587	0.0887	-0.234
Mof_H 	H 	0.9222	0.1604	0.1255	0.1
Mof_C 	C 	0.71902	0.23462	0.88693	0.117
Mof_C 	C 	0.6648	0.24498	0.83359	-0.182
Mof_C 	C 	0.6243	0.2198	0.7958	0.09
Mof_H 	H 	0.6288	0.1961	0.8059	-0.063
Mof_C 	C 	0.5776	0.22975	0.7437	-0.228
Mof_H 	H 	0.5507	0.2126	0.7195	0.077
Mof_C 	C 	0.6568	0.28015	0.8161	0.102
Mof_H 	H 	0.6832	0.2975	0.8402	-0.06
Mof_C 	C 	0.5702	0.26468	0.7269	0.2
Mof_C 	C 	0.6104	0.28976	0.7636	-0.246
Mof_H 	H 	0.6062	0.3133	0.753	0.105
Mof_C 	C 	0.39004	0.905	0.11252	0.126
Mof_C 	C 	0.326	0.91539	0.12414	-0.193
Mof_C 	C 	0.2986	0.89592	0.1582	0.109
Mof_H 	H 	0.3225	0.8759	0.1762	-0.051
Mof_C 	C 	0.2355	0.90564	0.1661	-0.25
Mof_H 	H 	0.2183	0.8924	0.1898	0.1
Mof_C 	C 	0.2887	0.94517	0.0979	0.106
Mof_H 	H 	0.3065	0.959	0.0751	-0.059
Mof_C 	C 	0.1986	0.93445	0.1393	0.217
Mof_C 	C 	0.2259	0.95454	0.1052	-0.245
Mof_H 	H 	0.2016	0.9744	0.0871	0.095
Mof_C 	C 	0.48507	0.90737	0.09078	0.146
Mof_C 	C 	0.5426	0.9567	0.0574	0.159
Mof_H 	H 	0.5056	0.9713	0.0581	-0.084
Mof_C 	C 	0.5952	0.97014	0.0398	-0.289
Mof_H 	H 	0.5928	0.9936	0.0286	0.117
Mof_C 	C 	0.5434	0.92145	0.07426	-0.21
Mof_C 	C 	0.5981	0.9008	0.0698	0.154
Mof_H 	H 	0.599	0.877	0.0788	-0.07
Mof_C 	C 	0.6508	0.91423	0.0526	-0.281
Mof_H 	H 	0.6869	0.8996	0.0502	0.121
Mof_C 	C 	0.651	0.95009	0.0384	0.244
Mof_C 	C 	0.27476	0.14306	0.08939	-0.198
Mof_C 	C 	0.2388	0.15571	0.036	0.114
Mof_H 	H 	0.2429	0.1794	0.028	-0.051
Mof_C 	C 	0.2683	0.10786	0.0992	0.125
Mof_H 	H 	0.2931	0.0984	0.1344	-0.063
Mof_C 	C 	0.31828	0.16685	0.13418	0.129
Mof_C 	C 	0.1967	0.13379	0.9938	-0.26
Mof_H 	H 	0.1736	0.1429	0.958	0.102
Mof_C 	C 	0.2251	0.08608	0.0571	-0.262
Mof_H 	H 	0.2207	0.0624	0.0649	0.101
Mof_C 	C 	0.1889	0.09902	0.0045	0.223
Mof_C 	C 	0.35156	0.2442	0.22105	-0.185
Mof_C 	C 	0.3006	0.25122	0.24584	0.097
Mof_H 	H 	0.2629	0.2357	0.2404	-0.053
Mof_C 	C 	0.3052	0.28078	0.2783	-0.25
Mof_H 	H 	0.27	0.2853	0.294	0.101
Mof_C 	C 	0.4066	0.26824	0.22914	0.099
Mof_H 	H 	0.4406	0.2643	0.212	-0.038
Mof_C 	C 	0.35078	0.21131	0.19009	0.131
Mof_C 	C 	0.3617	0.30409	0.28803	0.212
Mof_C 	C 	0.4113	0.29744	0.26181	-0.24
Mof_H 	H 	0.4484	0.3132	0.2666	0.095
Mof_C 	C 	0.40701	0.02938	0.19453	0.121
Mof_C 	C 	0.3667	0.00662	0.22001	-0.179
Mof_C 	C 	0.3936	0.97464	0.24587	0.089
Mof_H 	H 	0.4359	0.966	0.2434	-0.067
Mof_C 	C 	0.2943	0.96788	0.2786	0.205
Mof_C 	C 	0.3021	0.01808	0.2229	0.095
Mof_H 	H 	0.283	0.0391	0.2054	-0.04
Mof_C 	C 	0.358	0.95575	0.275	-0.241
Mof_H 	H 	0.3769	0.9347	0.2924	0.091
Mof_C 	C 	0.2659	0.99926	0.2508	-0.233
Mof_H 	H 	0.2223	0.0073	0.2514	0.097
Mof_C 	C 	0.5856	0.03805	0.132	0.065
Mof_H 	H 	0.5939	0.019	0.1568	-0.025
Mof_C 	C 	0.562	0.09405	0.05802	-0.224
Mof_H 	H 	0.5537	0.1131	0.0335	0.097
Mof_C 	C 	0.5221	0.05615	0.11886	-0.183
Mof_C 	C 	0.47258	0.05063	0.14957	0.109
Mof_C 	C 	0.511	0.08429	0.08043	0.083
Mof_H 	H 	0.4682	0.0965	0.0701	-0.04
Mof_C 	C 	0.6255	0.07608	0.0712	0.2
Mof_C 	C 	0.6368	0.04766	0.1092	-0.227
Mof_H 	H 	0.6792	0.0352	0.119	0.097
Mof_C 	C 	0.0382	0.19244	0.04056	-0.191
Mof_C 	C 	0.9875	0.18391	0.98885	0.12
Mof_H 	H 	0.9628	0.2019	0.9653	-0.061
Mof_C 	C 	0.0737	0.16467	0.0749	0.107
Mof_H 	H 	0.108	0.1695	0.1096	-0.062
Mof_C 	C 	0.0583	0.13011	0.0581	-0.23
Mof_H 	H 	0.0823	0.112	0.0817	0.096
Mof_C 	C 	0.0532	0.22912	0.05829	0.134
Mof_C 	C 	0.973	0.14928	0.97186	-0.226
Mof_H 	H 	0.9395	0.1443	0.9368	0.096
Mof_C 	C 	0.0078	0.12186	0.0065	0.197
Mof_C 	C 	0.1082	0.27642	0.09618	0.13
Mof_C 	C 	0.2295	0.30004	0.11463	0.114
Mof_H 	H 	0.2373	0.2824	0.0916	-0.064
Mof_C 	C 	0.282	0.32441	0.1383	-0.247
Mof_H 	H 	0.3245	0.3231	0.131	0.101
Mof_C 	C 	0.272	0.3509	0.1729	0.222
Mof_C 	C 	0.2094	0.35173	0.1844	-0.253
Mof_H 	H 	0.2027	0.3689	0.2085	0.103
Mof_C 	C 	0.1564	0.32746	0.16088	0.116
Mof_H 	H 	0.1145	0.3285	0.1693	-0.061
Mof_C 	C 	0.16511	0.3013	0.12454	-0.195
Mof_C 	C 	0.66617	0.14706	0.18626	0.136
Mof_C 	C 	0.73924	0.13408	0.21063	-0.171
Mof_C 	C 	0.7632	0.12445	0.2664	0.083
Mof_H 	H 	0.7363	0.1301	0.2891	-0.053
Mof_C 	C 	0.7805	0.12705	0.1774	0.09
Mof_H 	H 	0.7656	0.134	0.1398	-0.023
Mof_C 	C 	0.8264	0.10645	0.29	-0.239
Mof_H 	H 	0.841	0.0998	0.3278	0.096
Mof_C 	C 	0.8669	0.0986	0.2575	0.193
Mof_C 	C 	0.8444	0.1094	0.2008	-0.224
Mof_H 	H 	0.8726	0.1048	0.1787	0.097
Mof_C 	C 	0.5177	0.20002	0.10944	-0.185
Mof_C 	C 	0.5256	0.23541	0.12457	0.046
Mof_H 	H 	0.5678	0.2431	0.151	-0.028
Mof_C 	C 	0.4721	0.25933	0.1011	-0.222
Mof_H 	H 	0.478	0.2829	0.112	0.093
Mof_C 	C 	0.402	0.21359	0.0442	-0.225
Mof_H 	H 	0.3607	0.2063	0.0163	0.092
Mof_C 	C 	0.4098	0.24829	0.0612	0.187
Mof_C 	C 	0.57052	0.17422	0.14172	0.11
Mof_C 	C 	0.4555	0.18936	0.0684	0.069
Mof_H 	H 	0.4496	0.1659	0.057	-0.037
Mof_Cu	Cu	0.96135	0.62826	0.16804	0.768
Mof_Cu	Cu	0.94693	0.47457	0.13232	0.828
Mof_Cu	Cu	0.407	0.75492	0.00332	0.818
Mof_Cu	Cu	0.70498	0.71825	0.11885	0.827
Mof_Cu	Cu	0.49366	0.82893	0.06768	0.816
Mof_Cu	Cu	0.1831	0.70605	0.11229	0.836
Mof_Cu	Cu	0.3476	0.83112	0.08711	0.819
Mof_Cu	Cu	0.89107	0.59461	0.25359	0.78
Mof_Cl	Cl	0.37489	0.81878	0.99201	-0.797
Mof_N 	N 	0.94988	0.57755	0.17223	-0.279
Mof_N 	N 	0.9466	0.51956	0.16192	-0.287
Mof_N 	N 	0.90854	0.56399	0.20158	-0.266
Mof_N 	N 	0.22103	0.70438	0.91614	-0.284
Mof_N 	N 	0.27633	0.75427	0.91129	-0.243
Mof_N 	N 	0.31763	0.73589	0.95835	-0.246
Mof_N 	N 	0.50518	0.75465	0.04783	-0.251
Mof_N 	N 	0.54094	0.78523	0.07218	-0.255
Mof_N 	N 	0.61858	0.74169	0.08895	-0.286
Mof_N 	N 	0.96645	0.37367	0.08861	-0.248
Mof_N 	N 	0.90486	0.37236	0.10226	-0.254
Mof_N 	N 	0.93929	0.42786	0.10687	-0.29
Mof_N 	N 	0.11432	0.63066	0.19775	-0.272
Mof_N 	N 	0.05247	0.64824	0.16909	-0.279
Mof_N 	N 	0.14114	0.67459	0.15064	-0.276
Mof_N 	N 	0.79409	0.6976	0.14916	-0.289
Mof_N 	N 	0.88602	0.66198	0.16429	-0.268
Mof_N 	N 	0.90681	0.69055	0.20002	-0.27
Mof_N 	N 	0.8244	0.8758	0.1949	-0.329
Mof_H 	H 	0.8183	0.8923	0.2164	0.134
Mof_H 	H 	0.8631	0.8748	0.1871	0.133
Mof_N 	N 	0.8683	0.83283	0.3234	-0.33
Mof_H 	H 	0.9037	0.8469	0.3295	0.135
Mof_H 	H 	0.8371	0.8366	0.3394	0.138
Mof_N 	N 	0.1752	0.58512	0.0462	-0.33
Mof_H 	H 	0.1667	0.6021	0.0222	0.153
Mof_H 	H 	0.2145	0.5738	0.0547	0.141
Mof_N 	N 	0.7585	0.44861	0.3083	-0.327
Mof_H 	H 	0.776	0.4291	0.3244	0.145
Mof_H 	H 	0.719	0.4562	0.3104	0.135
Mof_N 	N 	0.8545	0.77249	0.0385	-0.317
Mof_H 	H 	0.8155	0.7657	0.0137	0.112
Mof_H 	H 	0.8597	0.7941	0.0493	0.133
Mof_N 	N 	0.4234	0.59369	0.1011	-0.324
Mof_H 	H 	0.4171	0.5725	0.0881	0.13
Mof_H 	H 	0.4533	0.5977	0.1341	0.133
Mof_N 	N 	0.4909	0.58704	0.9904	-0.329
Mof_H 	H 	0.4586	0.5824	0.9588	0.139
Mof_H 	H 	0.5128	0.5702	0.0122	0.134
Mof_N 	N 	0.0218	0.77397	0.67455	-0.328
Mof_H 	H 	0.0164	0.7957	0.6645	0.136
Mof_H 	H 	0.9973	0.7579	0.6523	0.129
Mof_N 	N 	0.6481	0.57688	0.9611	-0.326
Mof_H 	H 	0.6278	0.5852	0.9277	0.132
Mof_H 	H 	0.6432	0.555	0.9679	0.127
Mof_N 	N 	0.6334	0.44291	0.1444	-0.328
Mof_H 	H 	0.6159	0.4299	0.1645	0.13
Mof_H 	H 	0.6106	0.4611	0.1273	0.13
Mof_N 	N 	0.2053	0.46467	0.0237	-0.342
Mof_H 	H 	0.2043	0.4867	0.0154	0.133
Mof_H 	H 	0.2403	0.4518	0.023	0.147
Mof_N 	N 	0.4321	0.5807	0.2812	-0.318
Mof_H 	H 	0.4463	0.5747	0.3162	0.127
Mof_H 	H 	0.4576	0.5758	0.2605	0.123
Mof_C 	C 	0.28351	0.70606	0.95961	0.123
Mof_C 	C 	0.3578	0.68353	0.05449	0.1
Mof_H 	H 	0.3641	0.7064	0.0686	-0.057
Mof_C 	C 	0.3853	0.62147	0.0684	0.209
Mof_C 	C 	0.3378	0.61498	0.0157	-0.233
Mof_H 	H 	0.3286	0.5919	0.0029	0.1
Mof_C 	C 	0.31327	0.67743	0.99962	-0.176
Mof_C 	C 	0.3029	0.64267	0.98094	0.098
Mof_H 	H 	0.2723	0.6378	0.9447	-0.053
Mof_C 	C 	0.3931	0.65587	0.0887	-0.234
Mof_H 	H 	0.4222	0.6604	0.1255	0.098
Mof_C 	C 	0.21902	0.73462	0.88693	0.117
Mof_C 	C 	0.1648	0.74498	0.83359	-0.182
Mof_C 	C 	0.1243	0.7198	0.7958	0.09
Mof_H 	H 	0.1288	0.6961	0.8059	-0.063
Mof_C 	C 	0.0776	0.72975	0.7437	-0.229
Mof_H 	H 	0.0507	0.7126	0.7195	0.075
Mof_C 	C 	0.1568	0.78015	0.8161	0.102
Mof_H 	H 	0.1832	0.7975	0.8402	-0.06
Mof_C 	C 	0.0702	0.76468	0.7269	0.199
Mof_C 	C 	0.1104	0.78976	0.7636	-0.247
Mof_H 	H 	0.1062	0.8133	0.753	0.104
Mof_C 	C 	0.89004	0.405	0.11252	0.126
Mof_C 	C 	0.826	0.41539	0.12414	-0.193
Mof_C 	C 	0.7986	0.39592	0.1582	0.109
Mof_H 	H 	0.8225	0.3759	0.1762	-0.051
Mof_C 	C 	0.7355	0.40564	0.1661	-0.25
Mof_H 	H 	0.7183	0.3924	0.1898	0.1
Mof_C 	C 	0.7887	0.44517	0.0979	0.106
Mof_H 	H 	0.8065	0.459	0.0751	-0.059
Mof_C 	C 	0.6986	0.43445	0.1393	0.217
Mof_C 	C 	0.7259	0.45454	0.1052	-0.246
Mof_H 	H 	0.7016	0.4744	0.0871	0.095
Mof_C 	C 	0.98507	0.40737	0.09078	0.156
Mof_C 	C 	0.0426	0.4567	0.0574	0.167
Mof_H 	H 	0.0056	0.4713	0.0581	-0.09
Mof_C 	C 	0.0952	0.47014	0.0398	-0.297
Mof_H 	H 	0.0928	0.4936	0.0286	0.119
Mof_C 	C 	0.0434	0.42145	0.07426	-0.224
Mof_C 	C 	0.0981	0.4008	0.0698	0.163
Mof_H 	H 	0.099	0.377	0.0788	-0.074
Mof_C 	C 	0.1508	0.41423	0.0526	-0.288
Mof_H 	H 	0.1869	0.3996	0.0502	0.123
Mof_C 	C 	0.151	0.45009	0.0384	0.249
Mof_C 	C 	0.77476	0.64306	0.08939	-0.191
Mof_C 	C 	0.7388	0.65571	0.036	0.102
Mof_H 	H 	0.7429	0.6794	0.028	-0.048
Mof_C 	C 	0.7683	0.60786	0.0992	0.117
Mof_H 	H 	0.7931	0.5984	0.1344	-0.06
Mof_C 	C 	0.81828	0.66685	0.13418	0.127
Mof_C 	C 	0.6967	0.63379	0.9938	-0.245
Mof_H 	H 	0.6736	0.6429	0.958	0.098
Mof_C 	C 	0.7251	0.58608	0.0571	-0.254
Mof_H 	H 	0.7207	0.5624	0.0649	0.098
Mof_C 	C 	0.6889	0.59902	0.0045	0.212
Mof_C 	C 	0.85156	0.7442	0.22105	-0.185
Mof_C 	C 	0.8006	0.75122	0.24584	0.097
Mof_H 	H 	0.7629	0.7357	0.2404	-0.053
Mof_C 	C 	0.8052	0.78078	0.2783	-0.251
Mof_H 	H 	0.77	0.7853	0.294	0.102
Mof_C 	C 	0.9066	0.76824	0.22914	0.1
Mof_H 	H 	0.9406	0.7643	0.212	-0.036
Mof_C 	C 	0.85078	0.71131	0.19009	0.131
Mof_C 	C 	0.8617	0.80409	0.28803	0.213
Mof_C 	C 	0.9113	0.79744	0.26181	-0.24
Mof_H 	H 	0.9484	0.8132	0.2666	0.098
Mof_C 	C 	0.90701	0.52938	0.19453	0.122
Mof_C 	C 	0.8667	0.50662	0.22001	-0.179
Mof_C 	C 	0.8936	0.47464	0.24587	0.089
Mof_H 	H 	0.9359	0.466	0.2434	-0.065
Mof_C 	C 	0.7943	0.46788	0.2786	0.205
Mof_C 	C 	0.8021	0.51808	0.2229	0.095
Mof_H 	H 	0.783	0.5391	0.2054	-0.04
Mof_C 	C 	0.858	0.45575	0.275	-0.24
Mof_H 	H 	0.8769	0.4347	0.2924	0.092
Mof_C 	C 	0.7659	0.49926	0.2508	-0.233
Mof_H 	H 	0.7223	0.5073	0.2514	0.097
Mof_C 	C 	0.0856	0.53805	0.132	0.065
Mof_H 	H 	0.0939	0.519	0.1568	-0.026
Mof_C 	C 	0.062	0.59405	0.05802	-0.216
Mof_H 	H 	0.0537	0.6131	0.0335	0.093
Mof_C 	C 	0.0221	0.55615	0.11886	-0.186
Mof_C 	C 	0.97258	0.55063	0.14957	0.115
Mof_C 	C 	0.011	0.58429	0.08043	0.068
Mof_H 	H 	0.9682	0.5965	0.0701	-0.031
Mof_C 	C 	0.1255	0.57608	0.0712	0.196
Mof_C 	C 	0.1368	0.54766	0.1092	-0.225
Mof_H 	H 	0.1792	0.5352	0.119	0.096
Mof_C 	C 	0.5382	0.69244	0.04056	-0.185
Mof_C 	C 	0.4875	0.68391	0.98885	0.114
Mof_H 	H 	0.4628	0.7019	0.9653	-0.063
Mof_C 	C 	0.5737	0.66467	0.0749	0.111
Mof_H 	H 	0.608	0.6695	0.1096	-0.064
Mof_C 	C 	0.5583	0.63011	0.0581	-0.239
Mof_H 	H 	0.5823	0.612	0.0817	0.1
Mof_C 	C 	0.5532	0.72912	0.05829	0.134
Mof_C 	C 	0.473	0.64928	0.97186	-0.243
Mof_H 	H 	0.4395	0.6443	0.9368	0.101
Mof_C 	C 	0.5078	0.62186	0.0065	0.218
Mof_C 	C 	0.6082	0.77642	0.09618	0.13
Mof_C 	C 	0.7295	0.80004	0.11463	0.114
Mof_H 	H 	0.7373	0.7824	0.0916	-0.064
Mof_C 	C 	0.782	0.82441	0.1383	-0.247
Mof_H 	H 	0.8245	0.8231	0.131	0.101
Mof_C 	C 	0.772	0.8509	0.1729	0.222
Mof_C 	C 	0.7094	0.85173	0.1844	-0.253
Mof_H 	H 	0.7027	0.8689	0.2085	0.103
Mof_C 	C 	0.6564	0.82746	0.16088	0.116
Mof_H 	H 	0.6145	0.8285	0.1693	-0.06
Mof_C 	C 	0.66511	0.8013	0.12454	-0.194
Mof_C 	C 	0.16617	0.64706	0.18626	0.136
Mof_C 	C 	0.23924	0.63408	0.21063	-0.171
Mof_C 	C 	0.2632	0.62445	0.2664	0.082
Mof_H 	H 	0.2363	0.6301	0.2891	-0.053
Mof_C 	C 	0.2805	0.62705	0.1774	0.089
Mof_H 	H 	0.2656	0.634	0.1398	-0.022
Mof_C 	C 	0.3264	0.60645	0.29	-0.238
Mof_H 	H 	0.341	0.5998	0.3278	0.095
Mof_C 	C 	0.3669	0.5986	0.2575	0.191
Mof_C 	C 	0.3444	0.6094	0.2008	-0.223
Mof_H 	H 	0.3726	0.6048	0.1787	0.096
Mof_C 	C 	0.0177	0.70002	0.10944	-0.19
Mof_C 	C 	0.0256	0.73541	0.12457	0.036
Mof_H 	H 	0.0678	0.7431	0.151	-0.026
Mof_C 	C 	0.9721	0.75933	0.1011	-0.21
Mof_H 	H 	0.978	0.7829	0.112	0.092
Mof_C 	C 	0.902	0.71359	0.0442	-0.226
Mof_H 	H 	0.8607	0.7063	0.0163	0.092
Mof_C 	C 	0.9098	0.74829	0.0612	0.184
Mof_C 	C 	0.07052	0.67422	0.14172	0.111
Mof_C 	C 	0.9555	0.68936	0.0684	0.078
Mof_H 	H 	0.9496	0.6659	0.057	-0.039
Mof_Cu	Cu	0.46135	0.87174	0.66804	0.765
Mof_Cu	Cu	0.44693	0.02543	0.63232	0.826
Mof_Cu	Cu	0.907	0.74508	0.50332	0.819
Mof_Cu	Cu	0.20498	0.78175	0.61885	0.827
Mof_Cu	Cu	0.99366	0.67107	0.56768	0.82
Mof_Cu	Cu	0.6831	0.79395	0.61229	0.836
Mof_Cu	Cu	0.8476	0.66888	0.58711	0.819
Mof_Cu	Cu	0.39107	0.90539	0.75359	0.779
Mof_Cl	Cl	0.87489	0.68122	0.49201	-0.794
Mof_N 	N 	0.44988	0.92245	0.67223	-0.279
Mof_N 	N 	0.4466	0.98044	0.66192	-0.288
Mof_N 	N 	0.40854	0.93601	0.70158	-0.266
Mof_N 	N 	0.72103	0.79562	0.41614	-0.284
Mof_N 	N 	0.77633	0.74573	0.41129	-0.243
Mof_N 	N 	0.81763	0.76411	0.45835	-0.245
Mof_N 	N 	0.00518	0.74535	0.54783	-0.255
Mof_N 	N 	0.04094	0.71477	0.57218	-0.258
Mof_N 	N 	0.11858	0.75831	0.58895	-0.286
Mof_N 	N 	0.46645	0.12633	0.58861	-0.247
Mof_N 	N 	0.40486	0.12764	0.60226	-0.254
Mof_N 	N 	0.43929	0.07214	0.60687	-0.29
Mof_N 	N 	0.61432	0.86934	0.69775	-0.271
Mof_N 	N 	0.55247	0.85176	0.66909	-0.277
Mof_N 	N 	0.64114	0.82541	0.65064	-0.276
Mof_N 	N 	0.29409	0.8024	0.64916	-0.289
Mof_N 	N 	0.38602	0.83802	0.66429	-0.268
Mof_N 	N 	0.40681	0.80945	0.70002	-0.272
Mof_N 	N 	0.3244	0.6242	0.6949	-0.329
Mof_H 	H 	0.3183	0.6077	0.7164	0.134
Mof_H 	H 	0.3631	0.6252	0.6871	0.132
Mof_N 	N 	0.3683	0.66717	0.8234	-0.329
Mof_H 	H 	0.4037	0.6531	0.8295	0.133
Mof_H 	H 	0.3371	0.6634	0.8394	0.137
Mof_N 	N 	0.6752	0.91488	0.5462	-0.33
Mof_H 	H 	0.6667	0.8979	0.5222	0.153
Mof_H 	H 	0.7145	0.9262	0.5547	0.141
Mof_N 	N 	0.2585	0.05139	0.8083	-0.327
Mof_H 	H 	0.276	0.0709	0.8244	0.144
Mof_H 	H 	0.219	0.0438	0.8104	0.134
Mof_N 	N 	0.3545	0.72751	0.5385	-0.318
Mof_H 	H 	0.3155	0.7343	0.5137	0.112
Mof_H 	H 	0.3597	0.7059	0.5493	0.133
Mof_N 	N 	0.9234	0.90631	0.6011	-0.326
Mof_H 	H 	0.9171	0.9275	0.5881	0.133
Mof_H 	H 	0.9533	0.9023	0.6341	0.137
Mof_N 	N 	0.9909	0.91296	0.4904	-0.31
Mof_H 	H 	0.9586	0.9176	0.4588	0.137
Mof_H 	H 	0.0128	0.9298	0.5122	0.123
Mof_N 	N 	0.5218	0.72603	0.17455	-0.319
Mof_H 	H 	0.5164	0.7043	0.1645	0.136
Mof_H 	H 	0.4973	0.7421	0.1523	0.118
Mof_N 	N 	0.1481	0.92312	0.4611	-0.325
Mof_H 	H 	0.1278	0.9148	0.4277	0.13
Mof_H 	H 	0.1432	0.945	0.4679	0.126
Mof_N 	N 	0.1334	0.05709	0.6444	-0.327
Mof_H 	H 	0.1159	0.0701	0.6645	0.128
Mof_H 	H 	0.1106	0.0389	0.6273	0.128
Mof_N 	N 	0.7053	0.03533	0.5237	-0.341
Mof_H 	H 	0.7043	0.0133	0.5154	0.132
Mof_H 	H 	0.7403	0.0482	0.523	0.147
Mof_N 	N 	0.9321	0.9193	0.7812	-0.32
Mof_H 	H 	0.9463	0.9253	0.8162	0.13
Mof_H 	H 	0.9576	0.9242	0.7605	0.127
Mof_C 	C 	0.78351	0.79394	0.45961	0.123
Mof_C 	C 	0.8578	0.81647	0.55449	0.1
Mof_H 	H 	0.8641	0.7936	0.5686	-0.056
Mof_C 	C 	0.8853	0.87853	0.5684	0.213
Mof_C 	C 	0.8378	0.88502	0.5157	-0.237
Mof_H 	H 	0.8286	0.9081	0.5029	0.101
Mof_C 	C 	0.81327	0.82257	0.49962	-0.176
Mof_C 	C 	0.8029	0.85733	0.48094	0.102
Mof_H 	H 	0.7723	0.8622	0.4447	-0.054
Mof_C 	C 	0.8931	0.84413	0.5887	-0.235
Mof_H 	H 	0.9222	0.8396	0.6255	0.101
Mof_C 	C 	0.71902	0.76538	0.38693	0.117
Mof_C 	C 	0.6648	0.75502	0.33359	-0.182
Mof_C 	C 	0.6243	0.7802	0.2958	0.09
Mof_H 	H 	0.6288	0.8039	0.3059	-0.063
Mof_C 	C 	0.5776	0.77025	0.2437	-0.228
Mof_H 	H 	0.5507	0.7874	0.2195	0.077
Mof_C 	C 	0.6568	0.71985	0.3161	0.102
Mof_H 	H 	0.6832	0.7025	0.3402	-0.06
Mof_C 	C 	0.5702	0.73532	0.2269	0.2
Mof_C 	C 	0.6104	0.71024	0.2636	-0.246
Mof_H 	H 	0.6062	0.6867	0.253	0.105
Mof_C 	C 	0.39004	0.095	0.61252	0.126
Mof_C 	C 	0.326	0.08461	0.62414	-0.193
Mof_C 	C 	0.2986	0.10408	0.6582	0.109
Mof_H 	H 	0.3225	0.1241	0.6762	-0.051
Mof_C 	C 	0.2355	0.09436	0.6661	-0.249
Mof_H 	H 	0.2183	0.1076	0.6898	0.1
Mof_C 	C 	0.2887	0.05483	0.5979	0.106
Mof_H 	H 	0.3065	0.041	0.5751	-0.059
Mof_C 	C 	0.1986	0.06555	0.6393	0.216
Mof_C 	C 	0.2259	0.04546	0.6052	-0.245
Mof_H 	H 	0.2016	0.0256	0.5871	0.095
Mof_C 	C 	0.48507	0.09263	0.59078	0.146
Mof_C 	C 	0.5426	0.0433	0.5574	0.159
Mof_H 	H 	0.5056	0.0287	0.5581	-0.084
Mof_C 	C 	0.5952	0.02986	0.5398	-0.289
Mof_H 	H 	0.5928	0.0064	0.5286	0.117
Mof_C 	C 	0.5434	0.07855	0.57426	-0.21
Mof_C 	C 	0.5981	0.0992	0.5698	0.154
Mof_H 	H 	0.599	0.123	0.5788	-0.07
Mof_C 	C 	0.6508	0.08577	0.5526	-0.281
Mof_H 	H 	0.6869	0.1004	0.5502	0.121
Mof_C 	C 	0.651	0.04991	0.5384	0.244
Mof_C 	C 	0.27476	0.85694	0.58939	-0.191
Mof_C 	C 	0.2388	0.84429	0.536	0.102
Mof_H 	H 	0.2429	0.8206	0.528	-0.048
Mof_C 	C 	0.2683	0.89214	0.5992	0.117
Mof_H 	H 	0.2931	0.9016	0.6344	-0.06
Mof_C 	C 	0.31828	0.83315	0.63418	0.127
Mof_C 	C 	0.1967	0.86621	0.4938	-0.245
Mof_H 	H 	0.1736	0.8571	0.458	0.097
Mof_C 	C 	0.2251	0.91392	0.5571	-0.253
Mof_H 	H 	0.2207	0.9376	0.5649	0.098
Mof_C 	C 	0.1889	0.90098	0.5045	0.211
Mof_C 	C 	0.35156	0.7558	0.72105	-0.185
Mof_C 	C 	0.3006	0.74878	0.74584	0.097
Mof_H 	H 	0.2629	0.7643	0.7404	-0.053
Mof_C 	C 	0.3052	0.71922	0.7783	-0.25
Mof_H 	H 	0.27	0.7147	0.794	0.101
Mof_C 	C 	0.4066	0.73176	0.72914	0.099
Mof_H 	H 	0.4406	0.7357	0.712	-0.038
Mof_C 	C 	0.35078	0.78869	0.69009	0.131
Mof_C 	C 	0.3617	0.69591	0.78803	0.212
Mof_C 	C 	0.4113	0.70256	0.76181	-0.24
Mof_H 	H 	0.4484	0.6868	0.7666	0.095
Mof_C 	C 	0.40701	0.97062	0.69453	0.121
Mof_C 	C 	0.3667	0.99338	0.72001	-0.179
Mof_C 	C 	0.3936	0.02536	0.74587	0.089
Mof_H 	H 	0.4359	0.034	0.7434	-0.067
Mof_C 	C 	0.2943	0.03212	0.7786	0.205
Mof_C 	C 	0.3021	0.98192	0.7229	0.095
Mof_H 	H 	0.283	0.9609	0.7054	-0.041
Mof_C 	C 	0.358	0.04425	0.775	-0.241
Mof_H 	H 	0.3769	0.0653	0.7924	0.091
Mof_C 	C 	0.2659	0.00074	0.7508	-0.233
Mof_H 	H 	0.2223	0.9927	0.7514	0.097
Mof_C 	C 	0.5856	0.96195	0.632	0.065
Mof_H 	H 	0.5939	0.981	0.6568	-0.025
Mof_C 	C 	0.562	0.90595	0.55802	-0.224
Mof_H 	H 	0.5537	0.8869	0.5335	0.096
Mof_C 	C 	0.5221	0.94385	0.61886	-0.184
Mof_C 	C 	0.47258	0.94937	0.64957	0.108
Mof_C 	C 	0.511	0.91571	0.58043	0.083
Mof_H 	H 	0.4682	0.9035	0.5701	-0.04
Mof_C 	C 	0.6255	0.92392	0.5712	0.2
Mof_C 	C 	0.6368	0.95234	0.6092	-0.227
Mof_H 	H 	0.6792	0.9648	0.619	0.097
Mof_C 	C 	0.0382	0.80756	0.54056	-0.191
Mof_C 	C 	0.9875	0.81609	0.48885	0.119
Mof_H 	H 	0.9628	0.7981	0.4653	-0.062
Mof_C 	C 	0.0737	0.83533	0.5749	0.106
Mof_H 	H 	0.108	0.8305	0.6096	-0.062
Mof_C 	C 	0.0583	0.86989	0.5581	-0.229
Mof_H 	H 	0.0823	0.888	0.5817	0.095
Mof_C 	C 	0.0532	0.77088	0.55829	0.133
Mof_C 	C 	0.973	0.85072	0.47186	-0.224
Mof_H 	H 	0.9395	0.8557	0.4368	0.096
Mof_C 	C 	0.0078	0.87814	0.5065	0.193
Mof_C 	C 	0.1082	0.72358	0.59618	0.129
Mof_C 	C 	0.2295	0.69996	0.61463	0.114
Mof_H 	H 	0.2373	0.7176	0.5916	-0.064
Mof_C 	C 	0.282	0.67559	0.6383	-0.247
Mof_H 	H 	0.3245	0.6769	0.631	0.101
Mof_C 	C 	0.272	0.6491	0.6729	0.222
Mof_C 	C 	0.2094	0.64827	0.6844	-0.253
Mof_H 	H 	0.2027	0.6311	0.7085	0.103
Mof_C 	C 	0.1564	0.67254	0.66088	0.116
Mof_H 	H 	0.1145	0.6715	0.6693	-0.062
Mof_C 	C 	0.16511	0.6987	0.62454	-0.195
Mof_C 	C 	0.66617	0.85294	0.68626	0.136
Mof_C 	C 	0.73924	0.86592	0.71063	-0.172
Mof_C 	C 	0.7632	0.87555	0.7664	0.083
Mof_H 	H 	0.7363	0.8699	0.7891	-0.053
Mof_C 	C 	0.7805	0.87295	0.6774	0.091
Mof_H 	H 	0.7656	0.866	0.6398	-0.023
Mof_C 	C 	0.8264	0.89355	0.79	-0.239
Mof_H 	H 	0.841	0.9002	0.8278	0.096
Mof_C 	C 	0.8669	0.9014	0.7575	0.193
Mof_C 	C 	0.8444	0.8906	0.7008	-0.224
Mof_H 	H 	0.8726	0.8952	0.6787	0.097
Mof_C 	C 	0.5177	0.79998	0.60944	-0.185
Mof_C 	C 	0.5256	0.76459	0.62457	0.046
Mof_H 	H 	0.5678	0.7569	0.651	-0.028
Mof_C 	C 	0.4721	0.74067	0.6011	-0.222
Mof_H 	H 	0.478	0.7171	0.612	0.093
Mof_C 	C 	0.402	0.78641	0.5442	-0.225
Mof_H 	H 	0.3607	0.7937	0.5163	0.091
Mof_C 	C 	0.4098	0.75171	0.5612	0.186
Mof_C 	C 	0.57052	0.82578	0.64172	0.11
Mof_C 	C 	0.4555	0.81064	0.5684	0.068
Mof_H 	H 	0.4496	0.8341	0.557	-0.037
Mof_Cu	Cu	0.96135	0.37174	0.66804	0.768
Mof_Cu	Cu	0.94693	0.52543	0.63232	0.828
Mof_Cu	Cu	0.407	0.24508	0.50332	0.817
Mof_Cu	Cu	0.70498	0.28175	0.61885	0.827
Mof_Cu	Cu	0.49366	0.17107	0.56768	0.816
Mof_Cu	Cu	0.1831	0.29395	0.61229	0.836
Mof_Cu	Cu	0.3476	0.16888	0.58711	0.819
Mof_Cu	Cu	0.89107	0.40539	0.75359	0.78
Mof_Cl	Cl	0.37489	0.18122	0.49201	-0.795
Mof_N 	N 	0.94988	0.42245	0.67223	-0.279
Mof_N 	N 	0.9466	0.48044	0.66192	-0.287
Mof_N 	N 	0.90854	0.43601	0.70158	-0.266
Mof_N 	N 	0.22103	0.29562	0.41614	-0.284
Mof_N 	N 	0.27633	0.24573	0.41129	-0.243
Mof_N 	N 	0.31763	0.26411	0.45835	-0.246
Mof_N 	N 	0.50518	0.24535	0.54783	-0.252
Mof_N 	N 	0.54094	0.21477	0.57218	-0.255
Mof_N 	N 	0.61858	0.25831	0.58895	-0.286
Mof_N 	N 	0.96645	0.62633	0.58861	-0.248
Mof_N 	N 	0.90486	0.62764	0.60226	-0.254
Mof_N 	N 	0.93929	0.57214	0.60687	-0.29
Mof_N 	N 	0.11432	0.36934	0.69775	-0.272
Mof_N 	N 	0.05247	0.35176	0.66909	-0.279
Mof_N 	N 	0.14114	0.32541	0.65064	-0.277
Mof_N 	N 	0.79409	0.3024	0.64916	-0.289
Mof_N 	N 	0.88602	0.33802	0.66429	-0.267
Mof_N 	N 	0.90681	0.30945	0.70002	-0.27
Mof_N 	N 	0.8244	0.1242	0.6949	-0.329
Mof_H 	H 	0.8183	0.1077	0.7164	0.134
Mof_H 	H 	0.8631	0.1252	0.6871	0.133
Mof_N 	N 	0.8683	0.16717	0.8234	-0.33
Mof_H 	H 	0.9037	0.1531	0.8295	0.135
Mof_H 	H 	0.8371	0.1634	0.8394	0.138
Mof_N 	N 	0.1752	0.41488	0.5462	-0.329
Mof_H 	H 	0.1667	0.3979	0.5222	0.152
Mof_H 	H 	0.2145	0.4262	0.5547	0.14
Mof_N 	N 	0.7585	0.55139	0.8083	-0.327
Mof_H 	H 	0.776	0.5709	0.8244	0.145
Mof_H 	H 	0.719	0.5438	0.8104	0.135
Mof_N 	N 	0.8545	0.22751	0.5385	-0.317
Mof_H 	H 	0.8155	0.2343	0.5137	0.112
Mof_H 	H 	0.8597	0.2059	0.5493	0.133
Mof_N 	N 	0.4234	0.40631	0.6011	-0.324
Mof_H 	H 	0.4171	0.4275	0.5881	0.13
Mof_H 	H 	0.4533	0.4023	0.6341	0.133
Mof_N 	N 	0.4909	0.41296	0.4904	-0.327
Mof_H 	H 	0.4586	0.4176	0.4588	0.139
Mof_H 	H 	0.5128	0.4298	0.5122	0.133
Mof_N 	N 	0.0218	0.22603	0.17455	-0.326
Mof_H 	H 	0.0164	0.2043	0.1645	0.136
Mof_H 	H 	0.9973	0.2421	0.1523	0.126
Mof_N 	N 	0.6481	0.42312	0.4611	-0.326
Mof_H 	H 	0.6278	0.4148	0.4277	0.132
Mof_H 	H 	0.6432	0.445	0.4679	0.127
Mof_N 	N 	0.6334	0.55709	0.6444	-0.328
Mof_H 	H 	0.6159	0.5701	0.6645	0.13
Mof_H 	H 	0.6106	0.5389	0.6273	0.13
Mof_N 	N 	0.2053	0.53533	0.5237	-0.342
Mof_H 	H 	0.2043	0.5133	0.5154	0.132
Mof_H 	H 	0.2403	0.5482	0.523	0.147
Mof_N 	N 	0.4321	0.4193	0.7812	-0.318
Mof_H 	H 	0.4463	0.4253	0.8162	0.127
Mof_H 	H 	0.4576	0.4242	0.7605	0.123
Mof_C 	C 	0.28351	0.29394	0.45961	0.123
Mof_C 	C 	0.3578	0.31647	0.55449	0.098
Mof_H 	H 	0.3641	0.2936	0.5686	-0.057
Mof_C 	C 	0.3853	0.37853	0.5684	0.21
Mof_C 	C 	0.3378	0.38502	0.5157	-0.236
Mof_H 	H 	0.3286	0.4081	0.5029	0.1
Mof_C 	C 	0.31327	0.32257	0.49962	-0.175
Mof_C 	C 	0.3029	0.35733	0.48094	0.1
Mof_H 	H 	0.2723	0.3622	0.4447	-0.054
Mof_C 	C 	0.3931	0.34413	0.5887	-0.234
Mof_H 	H 	0.4222	0.3396	0.6255	0.098
Mof_C 	C 	0.21902	0.26538	0.38693	0.117
Mof_C 	C 	0.1648	0.25502	0.33359	-0.182
Mof_C 	C 	0.1243	0.2802	0.2958	0.09
Mof_H 	H 	0.1288	0.3039	0.3059	-0.063
Mof_C 	C 	0.0776	0.27025	0.2437	-0.229
Mof_H 	H 	0.0507	0.2874	0.2195	0.075
Mof_C 	C 	0.1568	0.21985	0.3161	0.102
Mof_H 	H 	0.1832	0.2025	0.3402	-0.06
Mof_C 	C 	0.0702	0.23532	0.2269	0.199
Mof_C 	C 	0.1104	0.21024	0.2636	-0.247
Mof_H 	H 	0.1062	0.1867	0.253	0.104
Mof_C 	C 	0.89004	0.595	0.61252	0.126
Mof_C 	C 	0.826	0.58461	0.62414	-0.192
Mof_C 	C 	0.7986	0.60408	0.6582	0.109
Mof_H 	H 	0.8225	0.6241	0.6762	-0.051
Mof_C 	C 	0.7355	0.59436	0.6661	-0.25
Mof_H 	H 	0.7183	0.6076	0.6898	0.1
Mof_C 	C 	0.7887	0.55483	0.5979	0.106
Mof_H 	H 	0.8065	0.541	0.5751	-0.059
Mof_C 	C 	0.6986	0.56555	0.6393	0.217
Mof_C 	C 	0.7259	0.54546	0.6052	-0.245
Mof_H 	H 	0.7016	0.5256	0.5871	0.095
Mof_C 	C 	0.98507	0.59263	0.59078	0.159
Mof_C 	C 	0.0426	0.5433	0.5574	0.17
Mof_H 	H 	0.0056	0.5287	0.5581	-0.092
Mof_C 	C 	0.0952	0.52986	0.5398	-0.299
Mof_H 	H 	0.0928	0.5064	0.5286	0.119
Mof_C 	C 	0.0434	0.57855	0.57426	-0.228
Mof_C 	C 	0.0981	0.5992	0.5698	0.165
Mof_H 	H 	0.099	0.623	0.5788	-0.076
Mof_C 	C 	0.1508	0.58577	0.5526	-0.29
Mof_H 	H 	0.1869	0.6004	0.5502	0.124
Mof_C 	C 	0.151	0.54991	0.5384	0.249
Mof_C 	C 	0.77476	0.35694	0.58939	-0.191
Mof_C 	C 	0.7388	0.34429	0.536	0.102
Mof_H 	H 	0.7429	0.3206	0.528	-0.048
Mof_C 	C 	0.7683	0.39214	0.5992	0.118
Mof_H 	H 	0.7931	0.4016	0.6344	-0.06
Mof_C 	C 	0.81828	0.33315	0.63418	0.127
Mof_C 	C 	0.6967	0.36621	0.4938	-0.245
Mof_H 	H 	0.6736	0.3571	0.458	0.098
Mof_C 	C 	0.7251	0.41392	0.5571	-0.254
Mof_H 	H 	0.7207	0.4376	0.5649	0.098
Mof_C 	C 	0.6889	0.40098	0.5045	0.212
Mof_C 	C 	0.85156	0.2558	0.72105	-0.185
Mof_C 	C 	0.8006	0.24878	0.74584	0.097
Mof_H 	H 	0.7629	0.2643	0.7404	-0.053
Mof_C 	C 	0.8052	0.21922	0.7783	-0.251
Mof_H 	H 	0.77	0.2147	0.794	0.102
Mof_C 	C 	0.9066	0.23176	0.72914	0.1
Mof_H 	H 	0.9406	0.2357	0.712	-0.036
Mof_C 	C 	0.85078	0.28869	0.69009	0.131
Mof_C 	C 	0.8617	0.19591	0.78803	0.213
Mof_C 	C 	0.9113	0.20256	0.76181	-0.24
Mof_H 	H 	0.9484	0.1868	0.7666	0.098
Mof_C 	C 	0.90701	0.47062	0.69453	0.122
Mof_C 	C 	0.8667	0.49338	0.72001	-0.179
Mof_C 	C 	0.8936	0.52536	0.74587	0.089
Mof_H 	H 	0.9359	0.534	0.7434	-0.064
Mof_C 	C 	0.7943	0.53212	0.7786	0.205
Mof_C 	C 	0.8021	0.48192	0.7229	0.095
Mof_H 	H 	0.783	0.4609	0.7054	-0.04
Mof_C 	C 	0.858	0.54425	0.775	-0.24
Mof_H 	H 	0.8769	0.5653	0.7924	0.092
Mof_C 	C 	0.7659	0.50074	0.7508	-0.233
Mof_H 	H 	0.7223	0.4927	0.7514	0.097
Mof_C 	C 	0.0856	0.46195	0.632	0.064
Mof_H 	H 	0.0939	0.481	0.6568	-0.026
Mof_C 	C 	0.062	0.40595	0.55802	-0.213
Mof_H 	H 	0.0537	0.3869	0.5335	0.091
Mof_C 	C 	0.0221	0.44385	0.61886	-0.186
Mof_C 	C 	0.97258	0.44937	0.64957	0.117
Mof_C 	C 	0.011	0.41571	0.58043	0.061
Mof_H 	H 	0.9682	0.4035	0.5701	-0.027
Mof_C 	C 	0.1255	0.42392	0.5712	0.194
Mof_C 	C 	0.1368	0.45234	0.6092	-0.224
Mof_H 	H 	0.1792	0.4648	0.619	0.096
Mof_C 	C 	0.5382	0.30756	0.54056	-0.185
Mof_C 	C 	0.4875	0.31609	0.48885	0.115
Mof_H 	H 	0.4628	0.2981	0.4653	-0.062
Mof_C 	C 	0.5737	0.33533	0.5749	0.11
Mof_H 	H 	0.608	0.3305	0.6096	-0.063
Mof_C 	C 	0.5583	0.36989	0.5581	-0.238
Mof_H 	H 	0.5823	0.388	0.5817	0.099
Mof_C 	C 	0.5532	0.27088	0.55829	0.134
Mof_C 	C 	0.473	0.35072	0.47186	-0.241
Mof_H 	H 	0.4395	0.3557	0.4368	0.1
Mof_C 	C 	0.5078	0.37814	0.5065	0.215
Mof_C 	C 	0.6082	0.22358	0.59618	0.13
Mof_C 	C 	0.7295	0.19996	0.61463	0.114
Mof_H 	H 	0.7373	0.2176	0.5916	-0.064
Mof_C 	C 	0.782	0.17559	0.6383	-0.247
Mof_H 	H 	0.8245	0.1769	0.631	0.102
Mof_C 	C 	0.772	0.1491	0.6729	0.222
Mof_C 	C 	0.7094	0.14827	0.6844	-0.253
Mof_H 	H 	0.7027	0.1311	0.7085	0.103
Mof_C 	C 	0.6564	0.17254	0.66088	0.116
Mof_H 	H 	0.6145	0.1715	0.6693	-0.06
Mof_C 	C 	0.66511	0.1987	0.62454	-0.194
Mof_C 	C 	0.16617	0.35294	0.68626	0.136
Mof_C 	C 	0.23924	0.36592	0.71063	-0.171
Mof_C 	C 	0.2632	0.37555	0.7664	0.082
Mof_H 	H 	0.2363	0.3699	0.7891	-0.053
Mof_C 	C 	0.2805	0.37295	0.6774	0.089
Mof_H 	H 	0.2656	0.366	0.6398	-0.023
Mof_C 	C 	0.3264	0.39355	0.79	-0.238
Mof_H 	H 	0.341	0.4002	0.8278	0.095
Mof_C 	C 	0.3669	0.4014	0.7575	0.191
Mof_C 	C 	0.3444	0.3906	0.7008	-0.223
Mof_H 	H 	0.3726	0.3952	0.6787	0.096
Mof_C 	C 	0.0177	0.29998	0.60944	-0.192
Mof_C 	C 	0.0256	0.26459	0.62457	0.032
Mof_H 	H 	0.0678	0.2569	0.651	-0.025
Mof_C 	C 	0.9721	0.24067	0.6011	-0.206
Mof_H 	H 	0.978	0.2171	0.612	0.091
Mof_C 	C 	0.902	0.28641	0.5442	-0.227
Mof_H 	H 	0.8607	0.2937	0.5163	0.092
Mof_C 	C 	0.9098	0.25171	0.5612	0.184
Mof_C 	C 	0.07052	0.32578	0.64172	0.111
Mof_C 	C 	0.9555	0.31064	0.5684	0.081
Mof_H 	H 	0.9496	0.3341	0.557	-0.039
Mof_Cu	Cu	0.53865	0.87174	0.83196	0.765
Mof_Cu	Cu	0.55307	0.02543	0.86768	0.826
Mof_Cu	Cu	0.093	0.74508	0.99668	0.813
Mof_Cu	Cu	0.79502	0.78175	0.88115	0.827
Mof_Cu	Cu	0.00634	0.67107	0.93232	0.811
Mof_Cu	Cu	0.3169	0.79395	0.88771	0.836
Mof_Cu	Cu	0.1524	0.66888	0.91289	0.818
Mof_Cu	Cu	0.60893	0.90539	0.74641	0.779
Mof_Cl	Cl	0.12511	0.68122	0.00799	-0.795
Mof_N 	N 	0.55012	0.92245	0.82777	-0.279
Mof_N 	N 	0.5534	0.98044	0.83808	-0.288
Mof_N 	N 	0.59146	0.93601	0.79842	-0.266
Mof_N 	N 	0.27897	0.79562	0.08386	-0.283
Mof_N 	N 	0.22367	0.74573	0.08871	-0.243
Mof_N 	N 	0.18237	0.76411	0.04165	-0.245
Mof_N 	N 	0.99482	0.74535	0.95217	-0.247
Mof_N 	N 	0.95906	0.71477	0.92782	-0.252
Mof_N 	N 	0.88142	0.75831	0.91105	-0.286
Mof_N 	N 	0.53355	0.12633	0.91139	-0.247
Mof_N 	N 	0.59514	0.12764	0.89774	-0.254
Mof_N 	N 	0.56071	0.07214	0.89313	-0.29
Mof_N 	N 	0.38568	0.86934	0.80225	-0.271
Mof_N 	N 	0.44753	0.85176	0.83091	-0.277
Mof_N 	N 	0.35886	0.82541	0.84936	-0.276
Mof_N 	N 	0.70591	0.8024	0.85084	-0.289
Mof_N 	N 	0.61398	0.83802	0.83571	-0.268
Mof_N 	N 	0.59319	0.80945	0.79998	-0.272
Mof_N 	N 	0.6756	0.6242	0.8051	-0.328
Mof_H 	H 	0.6817	0.6077	0.7836	0.134
Mof_H 	H 	0.6369	0.6252	0.8129	0.132
Mof_N 	N 	0.6317	0.66717	0.6766	-0.329
Mof_H 	H 	0.5963	0.6531	0.6705	0.133
Mof_H 	H 	0.6629	0.6634	0.6606	0.137
Mof_N 	N 	0.3248	0.91488	0.9538	-0.33
Mof_H 	H 	0.3333	0.8979	0.9778	0.152
Mof_H 	H 	0.2855	0.9262	0.9453	0.14
Mof_N 	N 	0.7415	0.05139	0.6917	-0.327
Mof_H 	H 	0.724	0.0709	0.6756	0.145
Mof_H 	H 	0.781	0.0438	0.6896	0.136
Mof_N 	N 	0.6455	0.72751	0.9615	-0.318
Mof_H 	H 	0.6845	0.7343	0.9863	0.112
Mof_H 	H 	0.6403	0.7059	0.9507	0.133
Mof_N 	N 	0.0766	0.90631	0.8989	-0.323
Mof_H 	H 	0.0829	0.9275	0.9119	0.127
Mof_H 	H 	0.0467	0.9023	0.8659	0.129
Mof_N 	N 	0.0091	0.91296	0.0096	-0.342
Mof_H 	H 	0.0414	0.9176	0.0412	0.141
Mof_H 	H 	0.9872	0.9298	0.9878	0.143
Mof_N 	N 	0.4782	0.72603	0.32545	-0.319
Mof_H 	H 	0.4836	0.7043	0.3355	0.136
Mof_H 	H 	0.5027	0.7421	0.3477	0.118
Mof_N 	N 	0.8519	0.92312	0.0389	-0.327
Mof_H 	H 	0.8722	0.9148	0.0723	0.133
Mof_H 	H 	0.8568	0.945	0.0321	0.127
Mof_N 	N 	0.8666	0.05709	0.8556	-0.329
Mof_H 	H 	0.8841	0.0701	0.8355	0.132
Mof_H 	H 	0.8894	0.0389	0.8727	0.132
Mof_N 	N 	0.2947	0.03533	0.9763	-0.34
Mof_H 	H 	0.2957	0.0133	0.9846	0.131
Mof_H 	H 	0.2597	0.0482	0.977	0.146
Mof_N 	N 	0.0679	0.9193	0.7188	-0.317
Mof_H 	H 	0.0537	0.9253	0.6838	0.124
Mof_H 	H 	0.0424	0.9242	0.7395	0.12
Mof_C 	C 	0.21649	0.79394	0.04039	0.122
Mof_C 	C 	0.1422	0.81647	0.94551	0.092
Mof_H 	H 	0.1359	0.7936	0.9314	-0.056
Mof_C 	C 	0.1147	0.87853	0.9316	0.207
Mof_C 	C 	0.1622	0.88502	0.9843	-0.238
Mof_H 	H 	0.1714	0.9081	0.9971	0.1
Mof_C 	C 	0.18673	0.82257	0.00038	-0.171
Mof_C 	C 	0.1971	0.85733	0.01906	0.102
Mof_H 	H 	0.2277	0.8622	0.0553	-0.054
Mof_C 	C 	0.1069	0.84413	0.9113	-0.232
Mof_H 	H 	0.0778	0.8396	0.8745	0.095
Mof_C 	C 	0.28098	0.76538	0.11307	0.117
Mof_C 	C 	0.3352	0.75502	0.16641	-0.182
Mof_C 	C 	0.3757	0.7802	0.2042	0.09
Mof_H 	H 	0.3712	0.8039	0.1941	-0.063
Mof_C 	C 	0.4224	0.77025	0.2563	-0.228
Mof_H 	H 	0.4493	0.7874	0.2805	0.077
Mof_C 	C 	0.3432	0.71985	0.1839	0.102
Mof_H 	H 	0.3168	0.7025	0.1598	-0.06
Mof_C 	C 	0.4298	0.73532	0.2731	0.2
Mof_C 	C 	0.3896	0.71024	0.2364	-0.246
Mof_H 	H 	0.3938	0.6867	0.247	0.105
Mof_C 	C 	0.60996	0.095	0.88748	0.126
Mof_C 	C 	0.674	0.08461	0.87586	-0.194
Mof_C 	C 	0.7014	0.10408	0.8418	0.11
Mof_H 	H 	0.6775	0.1241	0.8238	-0.051
Mof_C 	C 	0.7645	0.09436	0.8339	-0.251
Mof_H 	H 	0.7817	0.1076	0.8102	0.101
Mof_C 	C 	0.7113	0.05483	0.9021	0.107
Mof_H 	H 	0.6935	0.041	0.9249	-0.06
Mof_C 	C 	0.8014	0.06555	0.8607	0.219
Mof_C 	C 	0.7741	0.04546	0.8948	-0.247
Mof_H 	H 	0.7984	0.0256	0.9129	0.096
Mof_C 	C 	0.51493	0.09263	0.90922	0.146
Mof_C 	C 	0.4574	0.0433	0.9426	0.159
Mof_H 	H 	0.4944	0.0287	0.9419	-0.084
Mof_C 	C 	0.4048	0.02986	0.9602	-0.289
Mof_H 	H 	0.4072	0.0064	0.9714	0.117
Mof_C 	C 	0.4566	0.07855	0.92574	-0.21
Mof_C 	C 	0.4019	0.0992	0.9302	0.154
Mof_H 	H 	0.401	0.123	0.9212	-0.07
Mof_C 	C 	0.3492	0.08577	0.9474	-0.281
Mof_H 	H 	0.3131	0.1004	0.9498	0.12
Mof_C 	C 	0.349	0.04991	0.9616	0.243
Mof_C 	C 	0.72524	0.85694	0.91061	-0.193
Mof_C 	C 	0.7612	0.84429	0.964	0.106
Mof_H 	H 	0.7571	0.8206	0.972	-0.049
Mof_C 	C 	0.7317	0.89214	0.9008	0.12
Mof_H 	H 	0.7069	0.9016	0.8656	-0.061
Mof_C 	C 	0.68172	0.83315	0.86582	0.128
Mof_C 	C 	0.8033	0.86621	0.0062	-0.25
Mof_H 	H 	0.8264	0.8571	0.042	0.1
Mof_C 	C 	0.7749	0.91392	0.9429	-0.257
Mof_H 	H 	0.7793	0.9376	0.9351	0.1
Mof_C 	C 	0.8111	0.90098	0.9955	0.216
Mof_C 	C 	0.64844	0.7558	0.77895	-0.185
Mof_C 	C 	0.6994	0.74878	0.75416	0.097
Mof_H 	H 	0.7371	0.7643	0.7596	-0.053
Mof_C 	C 	0.6948	0.71922	0.7217	-0.25
Mof_H 	H 	0.73	0.7147	0.706	0.101
Mof_C 	C 	0.5934	0.73176	0.77086	0.099
Mof_H 	H 	0.5594	0.7357	0.788	-0.038
Mof_C 	C 	0.64922	0.78869	0.80991	0.131
Mof_C 	C 	0.6383	0.69591	0.71197	0.212
Mof_C 	C 	0.5887	0.70256	0.73819	-0.24
Mof_H 	H 	0.5516	0.6868	0.7334	0.095
Mof_C 	C 	0.59299	0.97062	0.80547	0.121
Mof_C 	C 	0.6333	0.99338	0.77999	-0.18
Mof_C 	C 	0.6064	0.02536	0.75413	0.089
Mof_H 	H 	0.5641	0.034	0.7566	-0.067
Mof_C 	C 	0.7057	0.03212	0.7214	0.206
Mof_C 	C 	0.6979	0.98192	0.7771	0.096
Mof_H 	H 	0.717	0.9609	0.7946	-0.041
Mof_C 	C 	0.642	0.04425	0.725	-0.241
Mof_H 	H 	0.6231	0.0653	0.7076	0.091
Mof_C 	C 	0.7341	0.00074	0.7492	-0.234
Mof_H 	H 	0.7777	0.9927	0.7486	0.098
Mof_C 	C 	0.4144	0.96195	0.868	0.065
Mof_H 	H 	0.4061	0.981	0.8432	-0.025
Mof_C 	C 	0.438	0.90595	0.94198	-0.224
Mof_H 	H 	0.4463	0.8869	0.9665	0.096
Mof_C 	C 	0.4779	0.94385	0.88114	-0.183
Mof_C 	C 	0.52742	0.94937	0.85043	0.108
Mof_C 	C 	0.489	0.91571	0.91957	0.083
Mof_H 	H 	0.5318	0.9035	0.9299	-0.04
Mof_C 	C 	0.3745	0.92392	0.9288	0.199
Mof_C 	C 	0.3632	0.95234	0.8908	-0.226
Mof_H 	H 	0.3208	0.9648	0.881	0.096
Mof_C 	C 	0.9618	0.80756	0.95944	-0.18
Mof_C 	C 	0.0125	0.81609	0.01115	0.112
Mof_H 	H 	0.0372	0.7981	0.0347	-0.063
Mof_C 	C 	0.9263	0.83533	0.9251	0.115
Mof_H 	H 	0.892	0.8305	0.8904	-0.065
Mof_C 	C 	0.9417	0.86989	0.9419	-0.247
Mof_H 	H 	0.9177	0.888	0.9183	0.103
Mof_C 	C 	0.9468	0.77088	0.94171	0.134
Mof_C 	C 	0.027	0.85072	0.02814	-0.258
Mof_H 	H 	0.0605	0.8557	0.0632	0.105
Mof_C 	C 	0.9922	0.87814	0.9935	0.237
Mof_C 	C 	0.8918	0.72358	0.90382	0.13
Mof_C 	C 	0.7705	0.69996	0.88537	0.112
Mof_H 	H 	0.7627	0.7176	0.9084	-0.063
Mof_C 	C 	0.718	0.67559	0.8617	-0.246
Mof_H 	H 	0.6755	0.6769	0.869	0.101
Mof_C 	C 	0.728	0.6491	0.8271	0.221
Mof_C 	C 	0.7906	0.64827	0.8156	-0.252
Mof_H 	H 	0.7973	0.6311	0.7915	0.103
Mof_C 	C 	0.8436	0.67254	0.83912	0.115
Mof_H 	H 	0.8855	0.6715	0.8307	-0.058
Mof_C 	C 	0.83489	0.6987	0.87546	-0.193
Mof_C 	C 	0.33383	0.85294	0.81374	0.136
Mof_C 	C 	0.26076	0.86592	0.78937	-0.17
Mof_C 	C 	0.2368	0.87555	0.7336	0.081
Mof_H 	H 	0.2637	0.8699	0.7109	-0.052
Mof_C 	C 	0.2195	0.87295	0.8226	0.088
Mof_H 	H 	0.2344	0.866	0.8602	-0.022
Mof_C 	C 	0.1736	0.89355	0.71	-0.237
Mof_H 	H 	0.159	0.9002	0.6722	0.094
Mof_C 	C 	0.1331	0.9014	0.7425	0.189
Mof_C 	C 	0.1556	0.8906	0.7992	-0.222
Mof_H 	H 	0.1274	0.8952	0.8213	0.095
Mof_C 	C 	0.4823	0.79998	0.89056	-0.185
Mof_C 	C 	0.4744	0.76459	0.87543	0.046
Mof_H 	H 	0.4322	0.7569	0.849	-0.028
Mof_C 	C 	0.5279	0.74067	0.8989	-0.222
Mof_H 	H 	0.522	0.7171	0.888	0.093
Mof_C 	C 	0.598	0.78641	0.9558	-0.225
Mof_H 	H 	0.6393	0.7937	0.9837	0.091
Mof_C 	C 	0.5902	0.75171	0.9388	0.186
Mof_C 	C 	0.42948	0.82578	0.85828	0.11
Mof_C 	C 	0.5445	0.81064	0.9316	0.068
Mof_H 	H 	0.5504	0.8341	0.943	-0.037
Mof_Cu	Cu	0.03865	0.37174	0.83196	0.762
Mof_Cu	Cu	0.05307	0.52543	0.86768	0.823
Mof_Cu	Cu	0.593	0.24508	0.99668	0.817
Mof_Cu	Cu	0.29502	0.28175	0.88115	0.827
Mof_Cu	Cu	0.50634	0.17107	0.93232	0.816
Mof_Cu	Cu	0.8169	0.29395	0.88771	0.836
Mof_Cu	Cu	0.6524	0.16888	0.91289	0.819
Mof_Cu	Cu	0.10893	0.40539	0.74641	0.778
Mof_Cl	Cl	0.62511	0.18122	0.00799	-0.795
Mof_N 	N 	0.05012	0.42245	0.82777	-0.28
Mof_N 	N 	0.0534	0.48044	0.83808	-0.288
Mof_N 	N 	0.09146	0.43601	0.79842	-0.267
Mof_N 	N 	0.77897	0.29562	0.08386	-0.284
Mof_N 	N 	0.72367	0.24573	0.08871	-0.243
Mof_N 	N 	0.68237	0.26411	0.04165	-0.245
Mof_N 	N 	0.49482	0.24535	0.95217	-0.252
Mof_N 	N 	0.45906	0.21477	0.92782	-0.255
Mof_N 	N 	0.38142	0.25831	0.91105	-0.286
Mof_N 	N 	0.03355	0.62633	0.91139	-0.247
Mof_N 	N 	0.09514	0.62764	0.89774	-0.255
Mof_N 	N 	0.06071	0.57214	0.89313	-0.289
Mof_N 	N 	0.88568	0.36934	0.80225	-0.271
Mof_N 	N 	0.94753	0.35176	0.83091	-0.273
Mof_N 	N 	0.85886	0.32541	0.84936	-0.276
Mof_N 	N 	0.20591	0.3024	0.85084	-0.289
Mof_N 	N 	0.11398	0.33802	0.83571	-0.269
Mof_N 	N 	0.09319	0.30945	0.79998	-0.273
Mof_N 	N 	0.1756	0.1242	0.8051	-0.328
Mof_H 	H 	0.1817	0.1077	0.7836	0.133
Mof_H 	H 	0.1369	0.1252	0.8129	0.13
Mof_N 	N 	0.1317	0.16717	0.6766	-0.329
Mof_H 	H 	0.0963	0.1531	0.6705	0.132
Mof_H 	H 	0.1629	0.1634	0.6606	0.137
Mof_N 	N 	0.8248	0.41488	0.9538	-0.332
Mof_H 	H 	0.8333	0.3979	0.9778	0.153
Mof_H 	H 	0.7855	0.4262	0.9453	0.141
Mof_N 	N 	0.2415	0.55139	0.6917	-0.327
Mof_H 	H 	0.224	0.5709	0.6756	0.144
Mof_H 	H 	0.281	0.5438	0.6896	0.135
Mof_N 	N 	0.1455	0.22751	0.9615	-0.318
Mof_H 	H 	0.1845	0.2343	0.9863	0.111
Mof_H 	H 	0.1403	0.2059	0.9507	0.132
Mof_N 	N 	0.5766	0.40631	0.8989	-0.324
Mof_H 	H 	0.5829	0.4275	0.9119	0.13
Mof_H 	H 	0.5467	0.4023	0.8659	0.133
Mof_N 	N 	0.5091	0.41296	0.0096	-0.325
Mof_H 	H 	0.5414	0.4176	0.0412	0.139
Mof_H 	H 	0.4872	0.4298	0.9878	0.132
Mof_N 	N 	0.9782	0.22603	0.32545	-0.311
Mof_H 	H 	0.9836	0.2043	0.3355	0.137
Mof_H 	H 	0.0027	0.2421	0.3477	0.11
Mof_N 	N 	0.3519	0.42312	0.0389	-0.323
Mof_H 	H 	0.3722	0.4148	0.0723	0.131
Mof_H 	H 	0.3568	0.445	0.0321	0.127
Mof_N 	N 	0.3666	0.55709	0.8556	-0.328
Mof_H 	H 	0.3841	0.5701	0.8355	0.13
Mof_H 	H 	0.3894	0.5389	0.8727	0.13
Mof_N 	N 	0.7947	0.53533	0.9763	-0.339
Mof_H 	H 	0.7957	0.5133	0.9846	0.132
Mof_H 	H 	0.7597	0.5482	0.977	0.146
Mof_N 	N 	0.5679	0.4193	0.7188	-0.318
Mof_H 	H 	0.5537	0.4253	0.6838	0.127
Mof_H 	H 	0.5424	0.4242	0.7395	0.123
Mof_C 	C 	0.71649	0.29394	0.04039	0.123
Mof_C 	C 	0.6422	0.31647	0.94551	0.098
Mof_H 	H 	0.6359	0.2936	0.9314	-0.057
Mof_C 	C 	0.6147	0.37853	0.9316	0.21
Mof_C 	C 	0.6622	0.38502	0.9843	-0.236
Mof_H 	H 	0.6714	0.4081	0.9971	0.1
Mof_C 	C 	0.68673	0.32257	0.00038	-0.175
Mof_C 	C 	0.6971	0.35733	0.01906	0.1
Mof_H 	H 	0.7277	0.3622	0.0553	-0.054
Mof_C 	C 	0.6069	0.34413	0.9113	-0.234
Mof_H 	H 	0.5778	0.3396	0.8745	0.098
Mof_C 	C 	0.78098	0.26538	0.11307	0.117
Mof_C 	C 	0.8352	0.25502	0.16641	-0.181
Mof_C 	C 	0.8757	0.2802	0.2042	0.09
Mof_H 	H 	0.8712	0.3039	0.1941	-0.062
Mof_C 	C 	0.9224	0.27025	0.2563	-0.226
Mof_H 	H 	0.9493	0.2874	0.2805	0.079
Mof_C 	C 	0.8432	0.21985	0.1839	0.102
Mof_H 	H 	0.8168	0.2025	0.1598	-0.06
Mof_C 	C 	0.9298	0.23532	0.2731	0.2
Mof_C 	C 	0.8896	0.21024	0.2364	-0.245
Mof_H 	H 	0.8938	0.1867	0.247	0.105
Mof_C 	C 	0.10996	0.595	0.88748	0.125
Mof_C 	C 	0.174	0.58461	0.87586	-0.194
Mof_C 	C 	0.2014	0.60408	0.8418	0.11
Mof_H 	H 	0.1775	0.6241	0.8238	-0.052
Mof_C 	C 	0.2645	0.59436	0.8339	-0.251
Mof_H 	H 	0.2817	0.6076	0.8102	0.101
Mof_C 	C 	0.2113	0.55483	0.9021	0.107
Mof_H 	H 	0.1935	0.541	0.9249	-0.06
Mof_C 	C 	0.3014	0.56555	0.8607	0.218
Mof_C 	C 	0.2741	0.54546	0.8948	-0.246
Mof_H 	H 	0.2984	0.5256	0.9129	0.095
Mof_C 	C 	0.01493	0.59263	0.90922	0.13
Mof_C 	C 	0.9574	0.5433	0.9426	0.147
Mof_H 	H 	0.9944	0.5287	0.9419	-0.076
Mof_C 	C 	0.9048	0.52986	0.9602	-0.279
Mof_H 	H 	0.9072	0.5064	0.9714	0.115
Mof_C 	C 	0.9566	0.57855	0.92574	-0.189
Mof_C 	C 	0.9019	0.5992	0.9302	0.141
Mof_H 	H 	0.901	0.623	0.9212	-0.064
Mof_C 	C 	0.8492	0.58577	0.9474	-0.271
Mof_H 	H 	0.8131	0.6004	0.9498	0.118
Mof_C 	C 	0.849	0.54991	0.9616	0.237
Mof_C 	C 	0.22524	0.35694	0.91061	-0.186
Mof_C 	C 	0.2612	0.34429	0.964	0.093
Mof_H 	H 	0.2571	0.3206	0.972	-0.045
Mof_C 	C 	0.2317	0.39214	0.9008	0.112
Mof_H 	H 	0.2069	0.4016	0.8656	-0.058
Mof_C 	C 	0.18172	0.33315	0.86582	0.125
Mof_C 	C 	0.3033	0.36621	0.0062	-0.234
Mof_H 	H 	0.3264	0.3571	0.042	0.094
Mof_C 	C 	0.2749	0.41392	0.9429	-0.248
Mof_H 	H 	0.2793	0.4376	0.9351	0.096
Mof_C 	C 	0.3111	0.40098	0.9955	0.203
Mof_C 	C 	0.14844	0.2558	0.77895	-0.185
Mof_C 	C 	0.1994	0.24878	0.75416	0.096
Mof_H 	H 	0.2371	0.2643	0.7596	-0.052
Mof_C 	C 	0.1948	0.21922	0.7217	-0.25
Mof_H 	H 	0.23	0.2147	0.706	0.101
Mof_C 	C 	0.0934	0.23176	0.77086	0.098
Mof_H 	H 	0.0594	0.2357	0.788	-0.04
Mof_C 	C 	0.14922	0.28869	0.80991	0.131
Mof_C 	C 	0.1383	0.19591	0.71197	0.211
Mof_C 	C 	0.0887	0.20256	0.73819	-0.24
Mof_H 	H 	0.0516	0.1868	0.7334	0.093
Mof_C 	C 	0.09299	0.47062	0.80547	0.12
Mof_C 	C 	0.1333	0.49338	0.77999	-0.181
Mof_C 	C 	0.1064	0.52536	0.75413	0.089
Mof_H 	H 	0.0641	0.534	0.7566	-0.07
Mof_C 	C 	0.2057	0.53212	0.7214	0.205
Mof_C 	C 	0.1979	0.48192	0.7771	0.096
Mof_H 	H 	0.217	0.4609	0.7946	-0.041
Mof_C 	C 	0.142	0.54425	0.725	-0.242
Mof_H 	H 	0.1231	0.5653	0.7076	0.09
Mof_C 	C 	0.2341	0.50074	0.7492	-0.234
Mof_H 	H 	0.2777	0.4927	0.7486	0.097
Mof_C 	C 	0.9144	0.46195	0.868	0.068
Mof_H 	H 	0.9061	0.481	0.8432	-0.024
Mof_C 	C 	0.938	0.40595	0.94198	-0.238
Mof_H 	H 	0.9463	0.3869	0.9665	0.104
Mof_C 	C 	0.9779	0.44385	0.88114	-0.181
Mof_C 	C 	0.02742	0.44937	0.85043	0.1
Mof_C 	C 	0.989	0.41571	0.91957	0.109
Mof_H 	H 	0.0318	0.4035	0.9299	-0.056
Mof_C 	C 	0.8745	0.42392	0.9288	0.206
Mof_C 	C 	0.8632	0.45234	0.8908	-0.231
Mof_H 	H 	0.8208	0.4648	0.881	0.098
Mof_C 	C 	0.4618	0.30756	0.95944	-0.186
Mof_C 	C 	0.5125	0.31609	0.01115	0.115
Mof_H 	H 	0.5372	0.2981	0.0347	-0.062
Mof_C 	C 	0.4263	0.33533	0.9251	0.11
Mof_H 	H 	0.392	0.3305	0.8904	-0.063
Mof_C 	C 	0.4417	0.36989	0.9419	-0.237
Mof_H 	H 	0.4177	0.388	0.9183	0.099
Mof_C 	C 	0.4468	0.27088	0.94171	0.133
Mof_C 	C 	0.527	0.35072	0.02814	-0.24
Mof_H 	H 	0.5605	0.3557	0.0632	0.1
Mof_C 	C 	0.4922	0.37814	0.9935	0.213
Mof_C 	C 	0.3918	0.22358	0.90382	0.129
Mof_C 	C 	0.2705	0.19996	0.88537	0.113
Mof_H 	H 	0.2627	0.2176	0.9084	-0.064
Mof_C 	C 	0.218	0.17559	0.8617	-0.246
Mof_H 	H 	0.1755	0.1769	0.869	0.1
Mof_C 	C 	0.228	0.1491	0.8271	0.221
Mof_C 	C 	0.2906	0.14827	0.8156	-0.252
Mof_H 	H 	0.2973	0.1311	0.7915	0.102
Mof_C 	C 	0.3436	0.17254	0.83912	0.115
Mof_H 	H 	0.3855	0.1715	0.8307	-0.06
Mof_C 	C 	0.33489	0.1987	0.87546	-0.194
Mof_C 	C 	0.83383	0.35294	0.81374	0.136
Mof_C 	C 	0.76076	0.36592	0.78937	-0.171
Mof_C 	C 	0.7368	0.37555	0.7336	0.082
Mof_H 	H 	0.7637	0.3699	0.7109	-0.053
Mof_C 	C 	0.7195	0.37295	0.8226	0.089
Mof_H 	H 	0.7344	0.366	0.8602	-0.023
Mof_C 	C 	0.6736	0.39355	0.71	-0.238
Mof_H 	H 	0.659	0.4002	0.6722	0.095
Mof_C 	C 	0.6331	0.4014	0.7425	0.191
Mof_C 	C 	0.6556	0.3906	0.7992	-0.223
Mof_H 	H 	0.6274	0.3952	0.8213	0.096
Mof_C 	C 	0.9823	0.29998	0.89056	-0.175
Mof_C 	C 	0.9744	0.26459	0.87543	0.061
Mof_H 	H 	0.9322	0.2569	0.849	-0.032
Mof_C 	C 	0.0279	0.24067	0.8989	-0.239
Mof_H 	H 	0.022	0.2171	0.888	0.095
Mof_C 	C 	0.098	0.28641	0.9558	-0.221
Mof_H 	H 	0.1393	0.2937	0.9837	0.089
Mof_C 	C 	0.0902	0.25171	0.9388	0.188
Mof_C 	C 	0.92948	0.32578	0.85828	0.11
Mof_C 	C 	0.0445	0.31064	0.9316	0.053
Mof_H 	H 	0.0504	0.3341	0.943	-0.035
Mof_Cu	Cu	0.5	0.19193	0.25	0.772
Mof_Cu	Cu	1.2649e-17	0.69193	0.25	0.769
Mof_Cu	Cu	0.5	0.80807	0.75	0.772
Mof_Cu	Cu	4.69433e-33	0.30807	0.75	0.768
_end
