data_functionalizedCrystal
_audit_creation_method	'EQeq! by Chris Wilmer'
_symmetry_space_group_name_H-M	'P1'
_symmetry_Int_Tables_number	1
_symmetry_cell_setting	triclinic
loop_
_symmetry_equiv_pos_as_xyz
  x,y,z
_cell_length_a	9.477
_cell_length_b	34.8
_cell_length_c	25.01
_cell_angle_alpha	90
_cell_angle_beta	90
_cell_angle_gamma	90
loop_
_atom_site_label
_atom_site_type_symbol
_atom_site_fract_x
_atom_site_fract_y
_atom_site_fract_z
_atom_site_charge
Mof_N 	N 	0.1554	0.92291	0.0081	-0.306
Mof_N 	N 	0.3335	0.92487	0.9494	-0.291
Mof_C 	C 	0.2626	0.9039	0.9863	0.111
Mof_H 	H 	0.2865	0.8788	0.9954	-0.048
Mof_N 	N 	0.1571	0.95849	0.9845	-0.219
Mof_C 	C 	0.2609	0.9579	0.9504	0.117
Mof_H 	H 	0.2829	0.9787	0.9286	-0.013
Mof_N 	N 	0.6554	0.42291	0.5081	-0.266
Mof_N 	N 	0.8335	0.42487	0.4494	-0.257
Mof_C 	C 	0.7626	0.4039	0.4863	0.096
Mof_H 	H 	0.7865	0.3788	0.4954	-0.013
Mof_N 	N 	0.6571	0.45849	0.4845	-0.226
Mof_C 	C 	0.7609	0.4579	0.4504	0.125
Mof_H 	H 	0.7829	0.4787	0.4286	0.004
Mof_N 	N 	0.8446	0.57709	0.0081	-0.267
Mof_N 	N 	0.6665	0.57513	0.9494	-0.286
Mof_C 	C 	0.7374	0.5961	0.9863	0.123
Mof_H 	H 	0.7135	0.6212	0.9954	-0.031
Mof_N 	N 	0.8429	0.54151	0.9845	-0.187
Mof_C 	C 	0.7391	0.5421	0.9504	0.127
Mof_H 	H 	0.7171	0.5213	0.9286	-0.001
Mof_N 	N 	0.3446	0.07709	0.5081	-0.271
Mof_N 	N 	0.1665	0.07513	0.4494	-0.293
Mof_C 	C 	0.2374	0.0961	0.4863	0.082
Mof_H 	H 	0.2135	0.1212	0.4954	-0.04
Mof_N 	N 	0.3429	0.04151	0.4845	-0.232
Mof_C 	C 	0.2391	0.0421	0.4504	0.111
Mof_H 	H 	0.2171	0.0213	0.4286	-0.025
Mof_N 	N 	0.8446	0.42291	0.9919	-0.218
Mof_N 	N 	0.6665	0.42487	0.0506	-0.281
Mof_C 	C 	0.7374	0.4039	0.0137	0.069
Mof_H 	H 	0.7135	0.3788	0.0046	-0.024
Mof_N 	N 	0.8429	0.45849	0.0155	-0.214
Mof_C 	C 	0.7391	0.4579	0.0496	0.123
Mof_H 	H 	0.7171	0.4787	0.0714	-0.006
Mof_N 	N 	0.3446	0.92291	0.4919	-0.271
Mof_N 	N 	0.1665	0.92487	0.5506	-0.293
Mof_C 	C 	0.2374	0.9039	0.5137	0.083
Mof_H 	H 	0.2135	0.8788	0.5046	-0.04
Mof_N 	N 	0.3429	0.95849	0.5155	-0.227
Mof_C 	C 	0.2391	0.9579	0.5496	0.114
Mof_H 	H 	0.2171	0.9787	0.5714	-0.019
Mof_N 	N 	0.1554	0.07709	0.9919	-0.255
Mof_N 	N 	0.3335	0.07513	0.0506	-0.286
Mof_C 	C 	0.2626	0.0961	0.0137	0.054
Mof_H 	H 	0.2865	0.1212	0.0046	-0.04
Mof_N 	N 	0.1571	0.04151	0.0155	-0.251
Mof_C 	C 	0.2609	0.0421	0.0496	0.11
Mof_H 	H 	0.2829	0.0213	0.0714	-0.023
Mof_N 	N 	0.6554	0.57709	0.4919	-0.265
Mof_N 	N 	0.8335	0.57513	0.5506	-0.256
Mof_C 	C 	0.7626	0.5961	0.5137	0.097
Mof_H 	H 	0.7865	0.6212	0.5046	-0.013
Mof_N 	N 	0.6571	0.54151	0.5155	-0.226
Mof_C 	C 	0.7609	0.5421	0.5496	0.124
Mof_H 	H 	0.7829	0.5213	0.5714	0.004
Mof_N 	N 	0.8446	0.07709	0.9919	-0.218
Mof_N 	N 	0.6665	0.07513	0.0506	-0.281
Mof_C 	C 	0.7374	0.0961	0.0137	0.068
Mof_H 	H 	0.7135	0.1212	0.0046	-0.024
Mof_N 	N 	0.8429	0.04151	0.0155	-0.216
Mof_C 	C 	0.7391	0.0421	0.0496	0.121
Mof_H 	H 	0.7171	0.0213	0.0714	-0.009
Mof_N 	N 	0.3446	0.57709	0.4919	-0.271
Mof_N 	N 	0.1665	0.57513	0.5506	-0.293
Mof_C 	C 	0.2374	0.5961	0.5137	0.083
Mof_H 	H 	0.2135	0.6212	0.5046	-0.04
Mof_N 	N 	0.3429	0.54151	0.5155	-0.23
Mof_C 	C 	0.2391	0.5421	0.5496	0.112
Mof_H 	H 	0.2171	0.5213	0.5714	-0.022
Mof_N 	N 	0.1554	0.42291	0.9919	-0.254
Mof_N 	N 	0.3335	0.42487	0.0506	-0.285
Mof_C 	C 	0.2626	0.4039	0.0137	0.055
Mof_H 	H 	0.2865	0.3788	0.0046	-0.04
Mof_N 	N 	0.1571	0.45849	0.0155	-0.249
Mof_C 	C 	0.2609	0.4579	0.0496	0.111
Mof_H 	H 	0.2829	0.4787	0.0714	-0.02
Mof_N 	N 	0.6554	0.92291	0.4919	-0.265
Mof_N 	N 	0.8335	0.92487	0.5506	-0.256
Mof_C 	C 	0.7626	0.9039	0.5137	0.097
Mof_H 	H 	0.7865	0.8788	0.5046	-0.013
Mof_N 	N 	0.6571	0.95849	0.5155	-0.223
Mof_C 	C 	0.7609	0.9579	0.5496	0.126
Mof_H 	H 	0.7829	0.9787	0.5714	0.006
Mof_N 	N 	0.1554	0.57709	0.0081	-0.306
Mof_N 	N 	0.3335	0.57513	0.9494	-0.291
Mof_C 	C 	0.2626	0.5961	0.9863	0.111
Mof_H 	H 	0.2865	0.6212	0.9954	-0.047
Mof_N 	N 	0.1571	0.54151	0.9845	-0.22
Mof_C 	C 	0.2609	0.5421	0.9504	0.117
Mof_H 	H 	0.2829	0.5213	0.9286	-0.015
Mof_N 	N 	0.6554	0.07709	0.5081	-0.266
Mof_N 	N 	0.8335	0.07513	0.4494	-0.257
Mof_C 	C 	0.7626	0.0961	0.4863	0.096
Mof_H 	H 	0.7865	0.1212	0.4954	-0.012
Mof_N 	N 	0.6571	0.04151	0.4845	-0.228
Mof_C 	C 	0.7609	0.0421	0.4504	0.123
Mof_H 	H 	0.7829	0.0213	0.4286	0.001
Mof_N 	N 	0.8446	0.92291	0.0081	-0.266
Mof_N 	N 	0.6665	0.92487	0.9494	-0.285
Mof_C 	C 	0.7374	0.9039	0.9863	0.124
Mof_H 	H 	0.7135	0.8788	0.9954	-0.031
Mof_N 	N 	0.8429	0.95849	0.9845	-0.184
Mof_C 	C 	0.7391	0.9579	0.9504	0.129
Mof_H 	H 	0.7171	0.9787	0.9286	0.001
Mof_N 	N 	0.3446	0.42291	0.5081	-0.271
Mof_N 	N 	0.1665	0.42487	0.4494	-0.293
Mof_C 	C 	0.2374	0.4039	0.4863	0.083
Mof_H 	H 	0.2135	0.3788	0.4954	-0.04
Mof_N 	N 	0.3429	0.45849	0.4845	-0.23
Mof_C 	C 	0.2391	0.4579	0.4504	0.113
Mof_H 	H 	0.2171	0.4787	0.4286	-0.022
Mof_Zn	Zn	-2.08766e-32	0.90543	0.05524	1.135
Mof_Zn	Zn	4.04082e-33	0.09144	0.40838	1.2
Mof_O 	O 	3.68183e-33	0.0174	0.3721	-0.364
Mof_O 	O 	-2.01963e-32	0.9302	0.124	-0.581
Mof_O 	O 	-6.19043e-32	0.9859	0.0844	-0.546
Mof_C 	C 	2.7547e-33	0.0218	0.2784	-0.069
Mof_O 	O 	3.2999e-33	0.0745	0.3335	-0.466
Mof_C 	C 	-3.24371e-32	0.9662	0.1241	0.471
Mof_O 	O 	-8.28592e-33	0.1483	0.3998	-0.541
Mof_C 	C 	-4.3834e-33	0.9852	0.1756	-0.17
Mof_C 	C 	8.32151e-33	0.9659	0.2224	0.036
Mof_H 	H 	1.44296e-32	0.9392	0.2211	0.006
Mof_C 	C 	-2.8329e-33	0.0381	0.3323	0.317
Mof_C 	C 	-4.31414e-33	0.0235	0.1826	0.027
Mof_H 	H 	7.62888e-33	0.0391	0.1524	0.005
Mof_C 	C 	-3.82633e-33	0.0409	0.2319	-0.06
Mof_H 	H 	-3.81445e-33	0.0676	0.2331	0.05
Mof_O 	O 	4.78213e-33	0.156	0.4833	-0.373
Mof_C 	C 	4.19438e-33	0.211	0.4239	-0.116
Mof_C 	C 	-2.17903e-32	0.9833	0.2722	-0.052
Mof_H 	H 	-1.53696e-32	0.9678	0.3025	0.044
Mof_C 	C 	4.6723e-33	0.2302	0.4722	-0.03
Mof_H 	H 	-7.25291e-33	0.2166	0.5042	0.029
Mof_C 	C 	1.59553e-32	0.2296	0.3753	-0.016
Mof_H 	H 	-8.84398e-33	0.2159	0.3434	0.032
Mof_C 	C 	-2.01844e-32	0.1683	0.4345	0.429
Mof_Zn	Zn	0.5	0.40543	0.55524	1.159
Mof_Zn	Zn	0.5	0.59144	0.90838	1.215
Mof_O 	O 	0.5	0.5174	0.8721	-0.316
Mof_O 	O 	0.5	0.4302	0.624	-0.553
Mof_O 	O 	0.5	0.4859	0.5844	-0.525
Mof_C 	C 	0.5	0.5218	0.7784	0.011
Mof_O 	O 	0.5	0.5745	0.8335	-0.435
Mof_C 	C 	0.5	0.4662	0.6241	0.494
Mof_O 	O 	0.5	0.6483	0.8998	-0.519
Mof_C 	C 	0.5	0.4852	0.6756	-0.207
Mof_C 	C 	0.5	0.4659	0.7224	0.1
Mof_H 	H 	0.5	0.4392	0.7211	0.006
Mof_C 	C 	0.5	0.5381	0.8323	0.297
Mof_C 	C 	0.5	0.5235	0.6826	0.105
Mof_H 	H 	0.5	0.5391	0.6524	0.003
Mof_C 	C 	0.5	0.5409	0.7319	-0.109
Mof_H 	H 	0.5	0.5676	0.7331	0.088
Mof_O 	O 	0.5	0.656	0.9833	-0.336
Mof_C 	C 	0.5	0.711	0.9239	-0.113
Mof_C 	C 	0.5	0.4833	0.7722	-0.109
Mof_H 	H 	0.5	0.4678	0.8025	0.084
Mof_C 	C 	0.5	0.7302	0.9722	0.009
Mof_H 	H 	0.5	0.7166	0.0042	0.007
Mof_C 	C 	0.5	0.7296	0.8753	-0.007
Mof_H 	H 	0.5	0.7159	0.8434	0.047
Mof_C 	C 	0.5	0.6683	0.9345	0.432
Mof_Zn	Zn	-4.53603e-32	0.59457	0.05524	1.135
Mof_Zn	Zn	-8.20102e-33	0.40856	0.40838	1.2
Mof_O 	O 	1.59237e-32	0.4826	0.3721	-0.354
Mof_O 	O 	-2.01963e-32	0.5698	0.124	-0.588
Mof_O 	O 	-1.2937e-32	0.5141	0.0844	-0.56
Mof_C 	C 	-1.56081e-32	0.4782	0.2784	-0.01
Mof_O 	O 	-8.94194e-33	0.4255	0.3335	-0.461
Mof_C 	C 	1.65302e-32	0.5338	0.1241	0.495
Mof_O 	O 	1.61978e-32	0.3517	0.3998	-0.542
Mof_C 	C 	-2.88671e-32	0.5148	0.1756	-0.231
Mof_C 	C 	3.28052e-32	0.5341	0.2224	0.093
Mof_H 	H 	1.44296e-32	0.5608	0.2211	-0.014
Mof_C 	C 	9.40894e-33	0.4619	0.3323	0.295
Mof_C 	C 	-1.6556e-32	0.4765	0.1826	0.098
Mof_H 	H 	1.37498e-32	0.4609	0.1524	-0.017
Mof_C 	C 	2.06573e-32	0.4591	0.2319	-0.12
Mof_H 	H 	-1.60563e-32	0.4324	0.2331	0.071
Mof_O 	O 	-7.45971e-33	0.344	0.4833	-0.373
Mof_C 	C 	4.19438e-33	0.289	0.4239	-0.116
Mof_C 	C 	2.69335e-33	0.5167	0.2722	-0.12
Mof_H 	H 	9.11408e-33	0.5322	0.3025	0.064
Mof_C 	C 	-7.56954e-33	0.2698	0.4722	-0.029
Mof_H 	H 	-7.25291e-33	0.2834	0.5042	0.029
Mof_C 	C 	-8.52834e-33	0.2704	0.3753	-0.016
Mof_H 	H 	-8.84398e-33	0.2841	0.3434	0.032
Mof_C 	C 	-7.94257e-33	0.3317	0.4345	0.429
Mof_Zn	Zn	0.5	0.09457	0.55524	1.159
Mof_Zn	Zn	0.5	0.90856	0.90838	1.215
Mof_O 	O 	0.5	0.9826	0.8721	-0.306
Mof_O 	O 	0.5	0.0698	0.624	-0.56
Mof_O 	O 	0.5	0.0141	0.5844	-0.537
Mof_C 	C 	0.5	0.9782	0.7784	0.07
Mof_O 	O 	0.5	0.9255	0.8335	-0.43
Mof_C 	C 	0.5	0.0338	0.6241	0.518
Mof_O 	O 	0.5	0.8517	0.8998	-0.52
Mof_C 	C 	0.5	0.0148	0.6756	-0.268
Mof_C 	C 	0.5	0.0341	0.7224	0.156
Mof_H 	H 	0.5	0.0608	0.7211	-0.014
Mof_C 	C 	0.5	0.9619	0.8323	0.275
Mof_C 	C 	0.5	0.9765	0.6826	0.175
Mof_H 	H 	0.5	0.9609	0.6524	-0.019
Mof_C 	C 	0.5	0.9591	0.7319	-0.167
Mof_H 	H 	0.5	0.9324	0.7331	0.108
Mof_O 	O 	0.5	0.844	0.9833	-0.336
Mof_C 	C 	0.5	0.789	0.9239	-0.113
Mof_C 	C 	0.5	0.0167	0.7722	-0.176
Mof_H 	H 	0.5	0.0322	0.8025	0.104
Mof_C 	C 	0.5	0.7698	0.9722	0.009
Mof_H 	H 	0.5	0.7834	0.0042	0.007
Mof_C 	C 	0.5	0.7704	0.8753	-0.007
Mof_H 	H 	0.5	0.7841	0.8434	0.047
Mof_C 	C 	0.5	0.8317	0.9345	0.432
Mof_Zn	Zn	-1.51355e-32	0.40543	0.94476	1.142
Mof_Zn	Zn	1.80958e-32	0.59144	0.59162	1.2
Mof_O 	O 	-6.02893e-33	0.5174	0.6279	-0.354
Mof_O 	O 	8.66779e-33	0.4302	0.876	-0.578
Mof_O 	O 	-1.5424e-32	0.4859	0.9156	-0.548
Mof_C 	C 	7.14005e-33	0.5218	0.7216	-0.013
Mof_O 	O 	1.88367e-32	0.5745	0.6665	-0.461
Mof_C 	C 	8.66681e-33	0.4662	0.8759	0.491
Mof_O 	O 	-3.07867e-32	0.6483	0.6002	-0.541
Mof_C 	C 	8.15723e-33	0.4852	0.8244	-0.224
Mof_C 	C 	7.69415e-33	0.4659	0.7776	0.088
Mof_H 	H 	-4.12603e-32	0.4392	0.7789	-0.01
Mof_C 	C 	-5.63512e-33	0.5381	0.6677	0.296
Mof_C 	C 	-4.08794e-32	0.5235	0.8174	0.092
Mof_H 	H 	8.38678e-33	0.5391	0.8476	-0.014
Mof_C 	C 	7.60015e-33	0.5409	0.7681	-0.115
Mof_H 	H 	7.58828e-33	0.5676	0.7669	0.07
Mof_O 	O 	2.95963e-32	0.656	0.5167	-0.374
Mof_C 	C 	-3.10251e-32	0.711	0.5761	-0.116
Mof_C 	C 	7.20139e-33	0.4833	0.7278	-0.115
Mof_H 	H 	6.90158e-33	0.4678	0.6975	0.063
Mof_C 	C 	-1.92612e-32	0.7302	0.5278	-0.03
Mof_H 	H 	1.71477e-32	0.7166	0.4958	0.028
Mof_C 	C 	1.84231e-32	0.7296	0.6247	-0.016
Mof_H 	H 	-5.74495e-33	0.7159	0.6566	0.032
Mof_C 	C 	4.2321e-32	0.6683	0.5655	0.429
Mof_Zn	Zn	0.5	0.90543	0.44476	1.159
Mof_Zn	Zn	0.5	0.09144	0.09162	1.214
Mof_O 	O 	0.5	0.0174	0.1279	-0.333
Mof_O 	O 	0.5	0.9302	0.376	-0.548
Mof_O 	O 	0.5	0.9859	0.4156	-0.511
Mof_C 	C 	0.5	0.0218	0.2216	-0.052
Mof_O 	O 	0.5	0.0745	0.1665	-0.442
Mof_C 	C 	0.5	0.9662	0.3759	0.469
Mof_O 	O 	0.5	0.1483	0.1002	-0.517
Mof_C 	C 	0.5	0.9852	0.3244	-0.145
Mof_C 	C 	0.5	0.9659	0.2776	0.041
Mof_H 	H 	0.5	0.9392	0.2789	0.024
Mof_C 	C 	0.5	0.0381	0.1677	0.322
Mof_C 	C 	0.5	0.0235	0.3174	0.032
Mof_H 	H 	0.5	0.0391	0.3476	0.025
Mof_C 	C 	0.5	0.0409	0.2681	-0.046
Mof_H 	H 	0.5	0.0676	0.2669	0.067
Mof_O 	O 	0.5	0.156	0.0167	-0.352
Mof_C 	C 	0.5	0.211	0.0761	-0.091
Mof_C 	C 	0.5	0.9833	0.2278	-0.038
Mof_H 	H 	0.5	0.9678	0.1975	0.059
Mof_C 	C 	0.5	0.2302	0.0278	-0.06
Mof_H 	H 	0.5	0.2166	0.9958	0.074
Mof_C 	C 	0.5	0.2296	0.1247	-0.015
Mof_H 	H 	0.5	0.2159	0.1566	0.048
Mof_C 	C 	0.5	0.1683	0.0655	0.421
Mof_Zn	Zn	9.34816e-33	0.09457	0.94476	1.142
Mof_Zn	Zn	1.80958e-32	0.90856	0.59162	1.2
Mof_O 	O 	1.84547e-32	0.9826	0.6279	-0.344
Mof_O 	O 	8.66779e-33	0.0698	0.876	-0.585
Mof_O 	O 	3.35433e-32	0.0141	0.9156	-0.56
Mof_C 	C 	-1.73436e-32	0.9782	0.7216	0.046
Mof_O 	O 	-5.46143e-32	0.9255	0.6665	-0.456
Mof_C 	C 	8.66681e-33	0.0338	0.8759	0.514
Mof_O 	O 	-3.07867e-32	0.8517	0.6002	-0.542
Mof_C 	C 	8.15723e-33	0.0148	0.8244	-0.284
Mof_C 	C 	7.69415e-33	0.0341	0.7776	0.143
Mof_H 	H 	7.70702e-33	0.0608	0.7789	-0.029
Mof_C 	C 	-3.01188e-32	0.9619	0.6677	0.274
Mof_C 	C 	8.08796e-33	0.9765	0.8174	0.162
Mof_H 	H 	8.38678e-33	0.9609	0.8476	-0.035
Mof_C 	C 	-1.68835e-32	0.9591	0.7681	-0.174
Mof_H 	H 	-1.68954e-32	0.9324	0.7669	0.09
Mof_O 	O 	5.11261e-33	0.844	0.5167	-0.374
Mof_C 	C 	1.79422e-32	0.789	0.5761	-0.116
Mof_C 	C 	-1.72823e-32	0.0167	0.7278	-0.183
Mof_H 	H 	6.90158e-33	0.0322	0.6975	0.083
Mof_C 	C 	-1.92612e-32	0.7698	0.5278	-0.03
Mof_H 	H 	-3.18197e-32	0.7834	0.4958	0.028
Mof_C 	C 	-3.05443e-32	0.7704	0.6247	-0.016
Mof_H 	H 	4.32224e-32	0.7841	0.6566	0.032
Mof_C 	C 	-3.113e-32	0.8317	0.5655	0.429
Mof_Zn	Zn	0.5	0.59457	0.44476	1.159
Mof_Zn	Zn	0.5	0.40856	0.09162	1.214
Mof_O 	O 	0.5	0.4826	0.1279	-0.323
Mof_O 	O 	0.5	0.5698	0.376	-0.555
Mof_O 	O 	0.5	0.5141	0.4156	-0.525
Mof_C 	C 	0.5	0.4782	0.2216	0.007
Mof_O 	O 	0.5	0.4255	0.1665	-0.436
Mof_C 	C 	0.5	0.5338	0.3759	0.494
Mof_O 	O 	0.5	0.3517	0.1002	-0.517
Mof_C 	C 	0.5	0.5148	0.3244	-0.206
Mof_C 	C 	0.5	0.5341	0.2776	0.098
Mof_H 	H 	0.5	0.5608	0.2789	0.005
Mof_C 	C 	0.5	0.4619	0.1677	0.3
Mof_C 	C 	0.5	0.4765	0.3174	0.103
Mof_H 	H 	0.5	0.4609	0.3476	0.003
Mof_C 	C 	0.5	0.4591	0.2681	-0.106
Mof_H 	H 	0.5	0.4324	0.2669	0.087
Mof_O 	O 	0.5	0.344	0.0167	-0.352
Mof_C 	C 	0.5	0.289	0.0761	-0.091
Mof_C 	C 	0.5	0.5167	0.2278	-0.106
Mof_H 	H 	0.5	0.5322	0.1975	0.079
Mof_C 	C 	0.5	0.2698	0.0278	-0.06
Mof_H 	H 	0.5	0.2834	0.9958	0.074
Mof_C 	C 	0.5	0.2704	0.1247	-0.015
Mof_H 	H 	0.5	0.2841	0.1566	0.048
Mof_C 	C 	0.5	0.3317	0.0655	0.421
Mof_Zn	Zn	-0	0	-0	1.166
Mof_Zn	Zn	0.5	0.5	0.5	1.196
Mof_Zn	Zn	-0	0.5	-0	1.169
Mof_Zn	Zn	0.5	0	0.5	1.192
_end
