# CIF file generated by openbabel 3.1.0, see https://openbabel.org
data_I
_chemical_name_common 'image0'
_cell_length_a 18.0939
_cell_length_b 13.3115
_cell_length_c 8.5775
_cell_angle_alpha 90
_cell_angle_beta 90
_cell_angle_gamma 90
_space_group_name_H-M_alt 'P 1'
_space_group_name_Hall 'P 1'
loop_
    _symmetry_equiv_pos_as_xyz
    x,y,z
loop_
    _atom_site_label
    _atom_site_type_symbol
    _atom_site_fract_x
    _atom_site_fract_y
    _atom_site_fract_z
    _atom_site_occupancy
    Er1      Er       0.60102    0.37458    0.25264    1.000
    Er2      Er       0.39380    0.12491    0.75236    1.000
    O1       O        0.56390    0.29410    0.48110    1.000
    O2       O        0.49710    0.21080    0.65210    1.000
    O3       O        0.64800    0.20570    0.23330    1.000
    O4       O        0.64780    0.04150    0.28190    1.000
    O5       O        0.70320    0.38640    0.42050    1.000
    O6       O        0.79570    0.38110    0.58150    1.000
    O7       O        0.70110    0.36600    0.09100    1.000
    O8       O        0.79150    0.36780    0.92390    1.000
    O9       O        0.64770    0.54330    0.23820    1.000
    O10      O        0.64750    0.70760    0.19590    1.000
    O11      O        0.50340    0.46710    0.33840    1.000
    O12      O        0.43430    0.55320    0.50770    1.000
    O13      O        0.50180    0.27980    0.15330    1.000
    O14      O        0.42710    0.21590    0.97310    1.000
    O15      O        0.49710    0.04060    0.84960    1.000
    O16      O        0.57190    0.96280    0.01640    1.000
    C1       C        0.51020    0.24680    0.52060    1.000
    H1       H        0.47370    0.23570    0.44280    1.000
    C2       C        0.61550    0.11860    0.26290    1.000
    H2       H        0.56310    0.11750    0.26940    1.000
    C3       C        0.73250    0.35420    0.52500    1.000
    H3       H        0.70790    0.30120    0.57780    1.000
    C4       C        0.73300    0.39520    0.96090    1.000
    H4       H        0.70730    0.44050    0.89450    1.000
    C5       C        0.61650    0.62170    0.21410    1.000
    H5       H        0.56410    0.61980    0.20810    1.000
    C6       C        0.49320    0.50690    0.46720    1.000
    H6       H        0.53200    0.50280    0.54150    1.000
    C7       C        0.48810    0.24860    0.02030    1.000
    H7       H        0.52750    0.24960    0.94720    1.000
    C8       C        0.51050    0.00090    0.97490    1.000
    H8       H        0.47130    0.99830    0.04840    1.000
    Er3      Er       0.39898    0.62542    0.75264    1.000
    Er4      Er       0.60620    0.87509    0.25236    1.000
    O17      O        0.43610    0.70590    0.98110    1.000
    O18      O        0.50290    0.78920    0.15210    1.000
    O19      O        0.35200    0.79430    0.73330    1.000
    O20      O        0.35220    0.95850    0.78190    1.000
    O21      O        0.29680    0.61360    0.92050    1.000
    O22      O        0.20430    0.61890    0.08150    1.000
    O23      O        0.29890    0.63400    0.59100    1.000
    O24      O        0.20850    0.63220    0.42390    1.000
    O25      O        0.35230    0.45670    0.73820    1.000
    O26      O        0.35250    0.29240    0.69590    1.000
    O27      O        0.49660    0.53290    0.83840    1.000
    O28      O        0.56570    0.44680    0.00770    1.000
    O29      O        0.49820    0.72020    0.65330    1.000
    O30      O        0.57290    0.78410    0.47310    1.000
    O31      O        0.50290    0.95940    0.34960    1.000
    O32      O        0.42810    0.03720    0.51640    1.000
    C9       C        0.48980    0.75320    0.02060    1.000
    H9       H        0.52630    0.76430    0.94280    1.000
    C10      C        0.38450    0.88140    0.76290    1.000
    H10      H        0.43690    0.88250    0.76940    1.000
    C11      C        0.26750    0.64580    0.02500    1.000
    H11      H        0.29210    0.69880    0.07780    1.000
    C12      C        0.26700    0.60480    0.46090    1.000
    H12      H        0.29270    0.55950    0.39450    1.000
    C13      C        0.38350    0.37830    0.71410    1.000
    H13      H        0.43590    0.38020    0.70810    1.000
    C14      C        0.50680    0.49310    0.96720    1.000
    H14      H        0.46800    0.49720    0.04150    1.000
    C15      C        0.51190    0.75140    0.52030    1.000
    H15      H        0.47250    0.75040    0.44720    1.000
    C16      C        0.48950    0.99910    0.47490    1.000
    H16      H        0.52870    0.00170    0.54840    1.000
    Er5      Er       0.10102    0.12542    0.25264    1.000
    Er6      Er       0.89380    0.37509    0.75236    1.000
    O33      O        0.06390    0.20590    0.48110    1.000
    O34      O        0.99710    0.28920    0.65210    1.000
    O35      O        0.14800    0.29430    0.23330    1.000
    O36      O        0.14780    0.45850    0.28190    1.000
    O37      O        0.20320    0.11360    0.42050    1.000
    O38      O        0.29570    0.11890    0.58150    1.000
    O39      O        0.20110    0.13400    0.09100    1.000
    O40      O        0.29150    0.13220    0.92390    1.000
    O41      O        0.14770    0.95670    0.23820    1.000
    O42      O        0.14750    0.79240    0.19590    1.000
    O43      O        0.00340    0.03290    0.33840    1.000
    O44      O        0.93430    0.94680    0.50770    1.000
    O45      O        0.00180    0.22020    0.15330    1.000
    O46      O        0.92710    0.28410    0.97310    1.000
    O47      O        0.99710    0.45940    0.84960    1.000
    O48      O        0.07190    0.53720    0.01640    1.000
    C17      C        0.01020    0.25320    0.52060    1.000
    H17      H        0.97370    0.26430    0.44280    1.000
    C18      C        0.11550    0.38140    0.26290    1.000
    H18      H        0.06310    0.38250    0.26940    1.000
    C19      C        0.23250    0.14580    0.52500    1.000
    H19      H        0.20790    0.19880    0.57780    1.000
    C20      C        0.23300    0.10480    0.96090    1.000
    H20      H        0.20730    0.05950    0.89450    1.000
    C21      C        0.11650    0.87830    0.21410    1.000
    H21      H        0.06410    0.88020    0.20810    1.000
    C22      C        0.99320    0.99310    0.46720    1.000
    H22      H        0.03200    0.99720    0.54150    1.000
    C23      C        0.98810    0.25140    0.02030    1.000
    H23      H        0.02750    0.25040    0.94720    1.000
    C24      C        0.01050    0.49910    0.97490    1.000
    H24      H        0.97130    0.50170    0.04840    1.000
    Er7      Er       0.89898    0.87458    0.75264    1.000
    Er8      Er       0.10620    0.62491    0.25236    1.000
    O49      O        0.93610    0.79410    0.98110    1.000
    O50      O        0.00290    0.71080    0.15210    1.000
    O51      O        0.85200    0.70570    0.73330    1.000
    O52      O        0.85220    0.54150    0.78190    1.000
    O53      O        0.79680    0.88640    0.92050    1.000
    O54      O        0.70430    0.88110    0.08150    1.000
    O55      O        0.79890    0.86600    0.59100    1.000
    O56      O        0.70850    0.86780    0.42390    1.000
    O57      O        0.85230    0.04330    0.73820    1.000
    O58      O        0.85250    0.20760    0.69590    1.000
    O59      O        0.99660    0.96710    0.83840    1.000
    O60      O        0.06570    0.05320    0.00770    1.000
    O61      O        0.99820    0.77980    0.65330    1.000
    O62      O        0.07290    0.71590    0.47310    1.000
    O63      O        0.00290    0.54060    0.34960    1.000
    O64      O        0.92810    0.46280    0.51640    1.000
    C25      C        0.98980    0.74680    0.02060    1.000
    H25      H        0.02630    0.73570    0.94280    1.000
    C26      C        0.88450    0.61860    0.76290    1.000
    H26      H        0.93690    0.61750    0.76940    1.000
    C27      C        0.76750    0.85420    0.02500    1.000
    H27      H        0.79210    0.80120    0.07780    1.000
    C28      C        0.76700    0.89520    0.46090    1.000
    H28      H        0.79270    0.94050    0.39450    1.000
    C29      C        0.88350    0.12170    0.71410    1.000
    H29      H        0.93590    0.11980    0.70810    1.000
    C30      C        0.00680    0.00690    0.96720    1.000
    H30      H        0.96800    0.00280    0.04150    1.000
    C31      C        0.01190    0.74860    0.52030    1.000
    H31      H        0.97250    0.74960    0.44720    1.000
    C32      C        0.98950    0.50090    0.47490    1.000
    H32      H        0.02870    0.49830    0.54840    1.000
