data_functionalizedCrystal
_audit_creation_method	'EQeq! by Chris Wilmer'
_symmetry_space_group_name_H-M	'P1'
_symmetry_Int_Tables_number	1
_symmetry_cell_setting	triclinic
loop_
_symmetry_equiv_pos_as_xyz
  x,y,z
_cell_length_a	8.6326
_cell_length_b	28.1206
_cell_length_c	15.3462
_cell_angle_alpha	90
_cell_angle_beta	90
_cell_angle_gamma	90
loop_
_atom_site_label
_atom_site_type_symbol
_atom_site_fract_x
_atom_site_fract_y
_atom_site_fract_z
_atom_site_charge
Mof_Dy	Dy	0.94761	0.58672	0.20205	2.073
Mof_O 	O 	0.2067	0.62836	0.3045	-0.554
Mof_O 	O 	0.049	0.6632	0.2105	-0.492
Mof_O 	O 	0.0441	0.5227	0.2828	-0.513
Mof_O 	O 	0.2051	0.46592	0.4674	-0.146
Mof_O 	O 	0.1264	0.397	0.6551	-0.532
Mof_C 	C 	0.1472	0.5105	0.3353	0.468
Mof_C 	C 	0.1946	0.7112	0.3038	-0.019
Mof_C 	C 	0.1488	0.6646	0.2701	0.42
Mof_O 	O 	0.3384	0.4374	0.6195	-0.531
Mof_O 	O 	0.2846	0.52669	0.3381	-0.539
Mof_C 	C 	0.1308	0.4338	0.5222	-0.051
Mof_C 	C 	0.9719	0.4501	0.4124	-0.036
Mof_H 	H 	0.8861	0.4501	0.3758	0.05
Mof_C 	C 	0.1013	0.4745	0.4011	-0.025
Mof_C 	C 	0.2894	0.7246	0.3685	-0.013
Mof_H 	H 	0.3442	0.7048	0.406	0.027
Mof_C 	C 	0.2036	0.4218	0.6053	0.46
Mof_C 	C 	0.9884	0.4243	0.4891	0.005
Mof_H 	H 	0.9148	0.4042	0.5134	0.022
Mof_Dy	Dy	0.55239	0.41328	0.70205	2.094
Mof_O 	O 	0.2933	0.37164	0.8045	-0.556
Mof_O 	O 	0.451	0.3368	0.7105	-0.502
Mof_O 	O 	0.4559	0.4773	0.7828	-0.52
Mof_O 	O 	0.2949	0.53408	0.9674	-0.151
Mof_O 	O 	0.3736	0.603	0.1551	-0.53
Mof_C 	C 	0.3528	0.4895	0.8353	0.467
Mof_C 	C 	0.3054	0.2888	0.8038	-0.022
Mof_C 	C 	0.3512	0.3354	0.7701	0.419
Mof_O 	O 	0.1616	0.5626	0.1195	-0.526
Mof_O 	O 	0.2154	0.47331	0.8381	-0.538
Mof_C 	C 	0.3692	0.5662	0.0222	-0.042
Mof_C 	C 	0.5281	0.5499	0.9124	-0.032
Mof_H 	H 	0.6139	0.5499	0.8758	0.049
Mof_C 	C 	0.3987	0.5255	0.9011	-0.026
Mof_C 	C 	0.2106	0.2754	0.8685	-0.015
Mof_H 	H 	0.1558	0.2952	0.906	0.025
Mof_C 	C 	0.2964	0.5782	0.1053	0.456
Mof_C 	C 	0.5116	0.5757	0.9891	-0.004
Mof_H 	H 	0.5852	0.5958	0.0134	0.024
Mof_Dy	Dy	0.05239	0.08672	0.79795	2.069
Mof_O 	O 	0.7933	0.12836	0.6955	-0.554
Mof_O 	O 	0.951	0.1632	0.7895	-0.493
Mof_O 	O 	0.9559	0.0227	0.7172	-0.514
Mof_O 	O 	0.7949	0.96592	0.5326	-0.147
Mof_O 	O 	0.8736	0.897	0.3449	-0.533
Mof_C 	C 	0.8528	0.0105	0.6647	0.468
Mof_C 	C 	0.8054	0.2112	0.6962	-0.02
Mof_C 	C 	0.8512	0.1646	0.7299	0.419
Mof_O 	O 	0.6616	0.9374	0.3805	-0.533
Mof_O 	O 	0.7154	0.02669	0.6619	-0.539
Mof_C 	C 	0.8692	0.9338	0.4778	-0.053
Mof_C 	C 	0.0281	0.9501	0.5876	-0.033
Mof_H 	H 	0.1139	0.9501	0.6242	0.049
Mof_C 	C 	0.8987	0.9745	0.5989	-0.029
Mof_C 	C 	0.7106	0.2246	0.6315	-0.013
Mof_H 	H 	0.6558	0.2048	0.594	0.028
Mof_C 	C 	0.7964	0.9218	0.3947	0.46
Mof_C 	C 	0.0116	0.9243	0.5109	0.006
Mof_H 	H 	0.0852	0.9042	0.4866	0.022
Mof_Dy	Dy	0.44761	0.91328	0.29795	2.094
Mof_O 	O 	0.7067	0.87164	0.1955	-0.556
Mof_O 	O 	0.549	0.8368	0.2895	-0.502
Mof_O 	O 	0.5441	0.9773	0.2172	-0.52
Mof_O 	O 	0.7051	0.03408	0.0326	-0.15
Mof_O 	O 	0.6264	0.103	0.8449	-0.53
Mof_C 	C 	0.6472	0.9895	0.1647	0.466
Mof_C 	C 	0.6946	0.7888	0.1962	-0.022
Mof_C 	C 	0.6488	0.8354	0.2299	0.419
Mof_O 	O 	0.8384	0.0626	0.8805	-0.525
Mof_O 	O 	0.7846	0.97331	0.1619	-0.538
Mof_C 	C 	0.6308	0.0662	0.9778	-0.043
Mof_C 	C 	0.4719	0.0499	0.0876	-0.034
Mof_H 	H 	0.3861	0.0499	0.1242	0.049
Mof_C 	C 	0.6013	0.0255	0.0989	-0.025
Mof_C 	C 	0.7894	0.7754	0.1315	-0.015
Mof_H 	H 	0.8442	0.7952	0.094	0.025
Mof_C 	C 	0.7036	0.0782	0.8947	0.457
Mof_C 	C 	0.4884	0.0757	0.0109	-0.002
Mof_H 	H 	0.4148	0.0958	0.9866	0.023
Mof_Dy	Dy	0.05239	0.41328	0.79795	2.072
Mof_O 	O 	0.7933	0.37164	0.6955	-0.555
Mof_O 	O 	0.951	0.3368	0.7895	-0.493
Mof_O 	O 	0.9559	0.4773	0.7172	-0.514
Mof_O 	O 	0.7949	0.53408	0.5326	-0.147
Mof_O 	O 	0.8736	0.603	0.3449	-0.533
Mof_C 	C 	0.8528	0.4895	0.6647	0.467
Mof_C 	C 	0.8054	0.2888	0.6962	-0.02
Mof_C 	C 	0.8512	0.3354	0.7299	0.419
Mof_O 	O 	0.6616	0.5626	0.3805	-0.532
Mof_O 	O 	0.7154	0.47331	0.6619	-0.539
Mof_C 	C 	0.8692	0.5662	0.4778	-0.051
Mof_C 	C 	0.0281	0.5499	0.5876	-0.036
Mof_H 	H 	0.1139	0.5499	0.6242	0.05
Mof_C 	C 	0.8987	0.5255	0.5989	-0.025
Mof_C 	C 	0.7106	0.2754	0.6315	-0.013
Mof_H 	H 	0.6558	0.2952	0.594	0.027
Mof_C 	C 	0.7964	0.5782	0.3947	0.46
Mof_C 	C 	0.0116	0.5757	0.5109	0.005
Mof_H 	H 	0.0852	0.5958	0.4866	0.022
Mof_Dy	Dy	0.44761	0.58672	0.29795	2.094
Mof_O 	O 	0.7067	0.62836	0.1955	-0.556
Mof_O 	O 	0.549	0.6632	0.2895	-0.502
Mof_O 	O 	0.5441	0.5227	0.2172	-0.52
Mof_O 	O 	0.7051	0.46592	0.0326	-0.151
Mof_O 	O 	0.6264	0.397	0.8449	-0.53
Mof_C 	C 	0.6472	0.5105	0.1647	0.467
Mof_C 	C 	0.6946	0.7112	0.1962	-0.022
Mof_C 	C 	0.6488	0.6646	0.2299	0.419
Mof_O 	O 	0.8384	0.4374	0.8805	-0.526
Mof_O 	O 	0.7846	0.52669	0.1619	-0.538
Mof_C 	C 	0.6308	0.4338	0.9778	-0.042
Mof_C 	C 	0.4719	0.4501	0.0876	-0.032
Mof_H 	H 	0.3861	0.4501	0.1242	0.049
Mof_C 	C 	0.6013	0.4745	0.0989	-0.026
Mof_C 	C 	0.7894	0.7246	0.1315	-0.015
Mof_H 	H 	0.8442	0.7048	0.094	0.025
Mof_C 	C 	0.7036	0.4218	0.8947	0.456
Mof_C 	C 	0.4884	0.4243	0.0109	-0.004
Mof_H 	H 	0.4148	0.4042	0.9866	0.024
Mof_Dy	Dy	0.94761	0.91328	0.20205	2.069
Mof_O 	O 	0.2067	0.87164	0.3045	-0.554
Mof_O 	O 	0.049	0.8368	0.2105	-0.493
Mof_O 	O 	0.0441	0.9773	0.2828	-0.514
Mof_O 	O 	0.2051	0.03408	0.4674	-0.147
Mof_O 	O 	0.1264	0.103	0.6551	-0.533
Mof_C 	C 	0.1472	0.9895	0.3353	0.468
Mof_C 	C 	0.1946	0.7888	0.3038	-0.02
Mof_C 	C 	0.1488	0.8354	0.2701	0.419
Mof_O 	O 	0.3384	0.0626	0.6195	-0.533
Mof_O 	O 	0.2846	0.97331	0.3381	-0.539
Mof_C 	C 	0.1308	0.0662	0.5222	-0.053
Mof_C 	C 	0.9719	0.0499	0.4124	-0.033
Mof_H 	H 	0.8861	0.0499	0.3758	0.049
Mof_C 	C 	0.1013	0.0255	0.4011	-0.029
Mof_C 	C 	0.2894	0.7754	0.3685	-0.013
Mof_H 	H 	0.3442	0.7952	0.406	0.028
Mof_C 	C 	0.2036	0.0782	0.6053	0.46
Mof_C 	C 	0.9884	0.0757	0.4891	0.006
Mof_H 	H 	0.9148	0.0958	0.5134	0.022
Mof_Dy	Dy	0.55239	0.08672	0.70205	2.094
Mof_O 	O 	0.2933	0.12836	0.8045	-0.556
Mof_O 	O 	0.451	0.1632	0.7105	-0.502
Mof_O 	O 	0.4559	0.0227	0.7828	-0.52
Mof_O 	O 	0.2949	0.96592	0.9674	-0.15
Mof_O 	O 	0.3736	0.897	0.1551	-0.53
Mof_C 	C 	0.3528	0.0105	0.8353	0.466
Mof_C 	C 	0.3054	0.2112	0.8038	-0.022
Mof_C 	C 	0.3512	0.1646	0.7701	0.419
Mof_O 	O 	0.1616	0.9374	0.1195	-0.525
Mof_O 	O 	0.2154	0.02669	0.8381	-0.538
Mof_C 	C 	0.3692	0.9338	0.0222	-0.043
Mof_C 	C 	0.5281	0.9501	0.9124	-0.034
Mof_H 	H 	0.6139	0.9501	0.8758	0.049
Mof_C 	C 	0.3987	0.9745	0.9011	-0.025
Mof_C 	C 	0.2106	0.2246	0.8685	-0.015
Mof_H 	H 	0.1558	0.2048	0.906	0.025
Mof_C 	C 	0.2964	0.9218	0.1053	0.457
Mof_C 	C 	0.5116	0.9243	0.9891	-0.002
Mof_H 	H 	0.5852	0.9042	0.0134	0.023
Mof_O 	O 	0.1348	0.75	0.2625	-0.134
Mof_O 	O 	0.3652	0.25	0.7625	-0.136
Mof_O 	O 	0.8652	0.25	0.7375	-0.134
Mof_O 	O 	0.6348	0.75	0.2375	-0.136
_end
