data_functionalizedCrystal
_audit_creation_method	'EQeq! by Chris Wilmer'
_symmetry_space_group_name_H-M	'P1'
_symmetry_Int_Tables_number	1
_symmetry_cell_setting	triclinic
loop_
_symmetry_equiv_pos_as_xyz
  x,y,z
_cell_length_a	7.8719
_cell_length_b	7.9657
_cell_length_c	10.4754
_cell_angle_alpha	70.1635
_cell_angle_beta	67.9304
_cell_angle_gamma	60.3887
loop_
_atom_site_label
_atom_site_type_symbol
_atom_site_fract_x
_atom_site_fract_y
_atom_site_fract_z
_atom_site_charge
Mof_Th	Th	0.23758	0.25	0.75	0.041
Mof_Th	Th	0.76242	0.75	0.25	0.041
Mof_C 	C 	0.075	0.4207	0.0437	0.228
Mof_C 	C 	0.1013	0.9169	0.0121	0.228
Mof_C 	C 	0.5394	0.0793	0.4563	0.23
Mof_C 	C 	0.0303	0.5831	0.4879	0.23
Mof_C 	C 	0.925	0.5793	0.9563	0.228
Mof_C 	C 	0.8987	0.0831	0.9879	0.228
Mof_C 	C 	0.4606	0.9207	0.5437	0.23
Mof_C 	C 	0.9697	0.4169	0.5121	0.23
Mof_O 	O 	0.2569	0.9386	0.9382	-0.114
Mof_O 	O 	0.22046	0.28388	0.9842	-0.118
Mof_O 	O 	0.08901	0.77178	0.106	-0.123
Mof_O 	O 	0.04067	0.44186	0.1644	-0.122
Mof_O 	O 	0.1337	0.5614	0.5618	-0.116
Mof_O 	O 	0.48854	0.21612	0.5158	-0.12
Mof_O 	O 	0.96679	0.72822	0.394	-0.122
Mof_O 	O 	0.64693	0.05814	0.3356	-0.122
Mof_O 	O 	0.7431	0.0614	0.0618	-0.114
Mof_O 	O 	0.77954	0.71612	0.0158	-0.118
Mof_O 	O 	0.91099	0.22822	0.894	-0.123
Mof_O 	O 	0.95933	0.55814	0.8356	-0.122
Mof_O 	O 	0.8663	0.4386	0.4382	-0.116
Mof_O 	O 	0.51146	0.78388	0.4842	-0.12
Mof_O 	O 	0.03321	0.27178	0.606	-0.122
Mof_O 	O 	0.35307	0.94186	0.6644	-0.122
_end
