# CIF file generated by openbabel 3.1.0, see https://openbabel.org
data_I
_chemical_name_common 'image0'
_cell_length_a 12.2813
_cell_length_b 27.3205
_cell_length_c 16.465
_cell_angle_alpha 90
_cell_angle_beta 102.863
_cell_angle_gamma 90
_space_group_name_H-M_alt 'P 1'
_space_group_name_Hall 'P 1'
loop_
    _symmetry_equiv_pos_as_xyz
    x,y,z
loop_
    _atom_site_label
    _atom_site_type_symbol
    _atom_site_fract_x
    _atom_site_fract_y
    _atom_site_fract_z
    _atom_site_occupancy
    Zn1      Zn       0.05712    0.55143    0.00272    1.000
    Zn2      Zn       0.23132    0.46497    0.01287    1.000
    C1       C        0.27280    0.55537    0.93480    1.000
    C2       C        0.33410    0.58394    0.88100    1.000
    C3       C        0.44000    0.56984    0.87370    1.000
    H1       H        0.47520    0.54250    0.90440    1.000
    C4       C        0.49470    0.59529    0.82170    1.000
    H2       H        0.56720    0.58570    0.81670    1.000
    C5       C        0.44190    0.63484    0.77760    1.000
    C6       C        0.33820    0.65040    0.78560    1.000
    H3       H        0.30410    0.67810    0.75560    1.000
    C7       C        0.28410    0.62490    0.83790    1.000
    H4       H        0.21280    0.63550    0.84440    1.000
    C8       C        0.23050    0.51046    0.16270    1.000
    C9       C        0.26160    0.51853    0.25520    1.000
    C10      C        0.35470    0.49550    0.30490    1.000
    H5       H        0.39830    0.47350    0.28060    1.000
    C11      C        0.38330    0.50500    0.38970    1.000
    H6       H        0.44660    0.48960    0.42380    1.000
    C12      C        0.31930    0.53660    0.42390    1.000
    C13      C        0.22740    0.55880    0.37720    1.000
    H7       H        0.18350    0.58010    0.40250    1.000
    C14      C        0.19860    0.55010    0.29200    1.000
    H8       H        0.13510    0.56580    0.25880    1.000
    C15      C        0.75730    0.86620    0.53650    1.000
    C16      C        0.70870    0.81572    0.51650    1.000
    C17      C        0.59980    0.80990    0.47130    1.000
    H9       H        0.55490    0.83780    0.45290    1.000
    C18      C        0.55660    0.76330    0.45290    1.000
    H10      H        0.48150    0.75920    0.42310    1.000
    C19      C        0.62230    0.72360    0.47790    1.000
    C20      C        0.73200    0.72870    0.52200    1.000
    H11      H        0.77760    0.70070    0.53770    1.000
    C21      C        0.77410    0.77530    0.54270    1.000
    H12      H        0.84790    0.77930    0.57500    1.000
    C22      C        0.48330    0.64285    0.64470    1.000
    C23      C        0.42070    0.60183    0.61640    1.000
    H13      H        0.38440    0.58380    0.65210    1.000
    C24      C        0.41220    0.58762    0.53400    1.000
    C25      C        0.46500    0.61297    0.48110    1.000
    H14      H        0.45890    0.60280    0.42510    1.000
    C26      C        0.52760    0.65396    0.51290    1.000
    C27      C        0.53700    0.66985    0.59350    1.000
    H15      H        0.57880    0.69830    0.61350    1.000
    O1       O        0.18700    0.57485    0.95020    1.000
    O2       O        0.31270    0.51418    0.95960    1.000
    O3       O        0.49610    0.66070    0.72460    1.000
    O4       O        0.15490    0.53653    0.12190    1.000
    O5       O        0.28420    0.47794    0.13340    1.000
    O6       O        0.34910    0.54615    0.51010    1.000
    O7       O        0.84540    0.87044    0.58970    1.000
    O8       O        0.70290    0.90107    0.49510    1.000
    O9       O        0.57960    0.67666    0.45700    1.000
    O10      O        0.07730    0.47940    0.96065    1.000
    Zn3      Zn       0.94288    0.05143    0.49728    1.000
    Zn4      Zn       0.76868    0.96497    0.48713    1.000
    C28      C        0.72720    0.05537    0.56520    1.000
    C29      C        0.66590    0.08394    0.61900    1.000
    C30      C        0.56000    0.06984    0.62630    1.000
    H16      H        0.52480    0.04250    0.59560    1.000
    C31      C        0.50530    0.09529    0.67830    1.000
    H17      H        0.43280    0.08570    0.68330    1.000
    C32      C        0.55810    0.13484    0.72240    1.000
    C33      C        0.66180    0.15040    0.71440    1.000
    H18      H        0.69590    0.17810    0.74440    1.000
    C34      C        0.71590    0.12490    0.66210    1.000
    H19      H        0.78720    0.13550    0.65560    1.000
    C35      C        0.76950    0.01046    0.33730    1.000
    C36      C        0.73840    0.01853    0.24480    1.000
    C37      C        0.64530    0.99550    0.19510    1.000
    H20      H        0.60170    0.97350    0.21940    1.000
    C38      C        0.61670    0.00500    0.11030    1.000
    H21      H        0.55340    0.98960    0.07620    1.000
    C39      C        0.68070    0.03660    0.07610    1.000
    C40      C        0.77260    0.05880    0.12280    1.000
    H22      H        0.81650    0.08010    0.09750    1.000
    C41      C        0.80140    0.05010    0.20800    1.000
    H23      H        0.86490    0.06580    0.24120    1.000
    C42      C        0.24270    0.36620    0.96350    1.000
    C43      C        0.29130    0.31572    0.98350    1.000
    C44      C        0.40020    0.30990    0.02870    1.000
    H24      H        0.44510    0.33780    0.04710    1.000
    C45      C        0.44340    0.26330    0.04710    1.000
    H25      H        0.51850    0.25920    0.07690    1.000
    C46      C        0.37770    0.22360    0.02210    1.000
    C47      C        0.26800    0.22870    0.97800    1.000
    H26      H        0.22240    0.20070    0.96230    1.000
    C48      C        0.22590    0.27530    0.95730    1.000
    H27      H        0.15210    0.27930    0.92500    1.000
    C49      C        0.51670    0.14285    0.85530    1.000
    C50      C        0.57930    0.10183    0.88360    1.000
    H28      H        0.61560    0.08380    0.84790    1.000
    C51      C        0.58780    0.08762    0.96600    1.000
    C52      C        0.53500    0.11297    0.01890    1.000
    H29      H        0.54110    0.10280    0.07490    1.000
    C53      C        0.47240    0.15396    0.98710    1.000
    C54      C        0.46300    0.16985    0.90650    1.000
    H30      H        0.42120    0.19830    0.88650    1.000
    O11      O        0.81300    0.07485    0.54980    1.000
    O12      O        0.68730    0.01418    0.54040    1.000
    O13      O        0.50390    0.16070    0.77540    1.000
    O14      O        0.84510    0.03653    0.37810    1.000
    O15      O        0.71580    0.97794    0.36660    1.000
    O16      O        0.65090    0.04615    0.98990    1.000
    O17      O        0.15460    0.37044    0.91030    1.000
    O18      O        0.29710    0.40107    0.00490    1.000
    O19      O        0.42040    0.17666    0.04300    1.000
    O20      O        0.92270    0.97940    0.53935    1.000
    Zn5      Zn       0.94288    0.44857    0.99728    1.000
    Zn6      Zn       0.76868    0.53503    0.98713    1.000
    C55      C        0.72720    0.44463    0.06520    1.000
    C56      C        0.66590    0.41606    0.11900    1.000
    C57      C        0.56000    0.43016    0.12630    1.000
    H31      H        0.52480    0.45750    0.09560    1.000
    C58      C        0.50530    0.40471    0.17830    1.000
    H32      H        0.43280    0.41430    0.18330    1.000
    C59      C        0.55810    0.36516    0.22240    1.000
    C60      C        0.66180    0.34960    0.21440    1.000
    H33      H        0.69590    0.32190    0.24440    1.000
    C61      C        0.71590    0.37510    0.16210    1.000
    H34      H        0.78720    0.36450    0.15560    1.000
    C62      C        0.76950    0.48954    0.83730    1.000
    C63      C        0.73840    0.48147    0.74480    1.000
    C64      C        0.64530    0.50450    0.69510    1.000
    H35      H        0.60170    0.52650    0.71940    1.000
    C65      C        0.61670    0.49500    0.61030    1.000
    H36      H        0.55340    0.51040    0.57620    1.000
    C66      C        0.68070    0.46340    0.57610    1.000
    C67      C        0.77260    0.44120    0.62280    1.000
    H37      H        0.81650    0.41990    0.59750    1.000
    C68      C        0.80140    0.44990    0.70800    1.000
    H38      H        0.86490    0.43420    0.74120    1.000
    C69      C        0.24270    0.13380    0.46350    1.000
    C70      C        0.29130    0.18428    0.48350    1.000
    C71      C        0.40020    0.19010    0.52870    1.000
    H39      H        0.44510    0.16220    0.54710    1.000
    C72      C        0.44340    0.23670    0.54710    1.000
    H40      H        0.51850    0.24080    0.57690    1.000
    C73      C        0.37770    0.27640    0.52210    1.000
    C74      C        0.26800    0.27130    0.47800    1.000
    H41      H        0.22240    0.29930    0.46230    1.000
    C75      C        0.22590    0.22470    0.45730    1.000
    H42      H        0.15210    0.22070    0.42500    1.000
    C76      C        0.51670    0.35715    0.35530    1.000
    C77      C        0.57930    0.39817    0.38360    1.000
    H43      H        0.61560    0.41620    0.34790    1.000
    C78      C        0.58780    0.41238    0.46600    1.000
    C79      C        0.53500    0.38703    0.51890    1.000
    H44      H        0.54110    0.39720    0.57490    1.000
    C80      C        0.47240    0.34604    0.48710    1.000
    C81      C        0.46300    0.33015    0.40650    1.000
    H45      H        0.42120    0.30170    0.38650    1.000
    O21      O        0.81300    0.42515    0.04980    1.000
    O22      O        0.68730    0.48582    0.04040    1.000
    O23      O        0.50390    0.33930    0.27540    1.000
    O24      O        0.84510    0.46347    0.87810    1.000
    O25      O        0.71580    0.52206    0.86660    1.000
    O26      O        0.65090    0.45385    0.48990    1.000
    O27      O        0.15460    0.12956    0.41030    1.000
    O28      O        0.29710    0.09893    0.50490    1.000
    O29      O        0.42040    0.32334    0.54300    1.000
    O30      O        0.92270    0.52060    0.03935    1.000
    Zn7      Zn       0.05712    0.94857    0.50272    1.000
    Zn8      Zn       0.23132    0.03503    0.51287    1.000
    C82      C        0.27280    0.94463    0.43480    1.000
    C83      C        0.33410    0.91606    0.38100    1.000
    C84      C        0.44000    0.93016    0.37370    1.000
    H46      H        0.47520    0.95750    0.40440    1.000
    C85      C        0.49470    0.90471    0.32170    1.000
    H47      H        0.56720    0.91430    0.31670    1.000
    C86      C        0.44190    0.86516    0.27760    1.000
    C87      C        0.33820    0.84960    0.28560    1.000
    H48      H        0.30410    0.82190    0.25560    1.000
    C88      C        0.28410    0.87510    0.33790    1.000
    H49      H        0.21280    0.86450    0.34440    1.000
    C89      C        0.23050    0.98954    0.66270    1.000
    C90      C        0.26160    0.98147    0.75520    1.000
    C91      C        0.35470    0.00450    0.80490    1.000
    H50      H        0.39830    0.02650    0.78060    1.000
    C92      C        0.38330    0.99500    0.88970    1.000
    H51      H        0.44660    0.01040    0.92380    1.000
    C93      C        0.31930    0.96340    0.92390    1.000
    C94      C        0.22740    0.94120    0.87720    1.000
    H52      H        0.18350    0.91990    0.90250    1.000
    C95      C        0.19860    0.94990    0.79200    1.000
    H53      H        0.13510    0.93420    0.75880    1.000
    C96      C        0.75730    0.63380    0.03650    1.000
    C97      C        0.70870    0.68428    0.01650    1.000
    C98      C        0.59980    0.69010    0.97130    1.000
    H54      H        0.55490    0.66220    0.95290    1.000
    C99      C        0.55660    0.73670    0.95290    1.000
    H55      H        0.48150    0.74080    0.92310    1.000
    C100     C        0.62230    0.77640    0.97790    1.000
    C101     C        0.73200    0.77130    0.02200    1.000
    H56      H        0.77760    0.79930    0.03770    1.000
    C102     C        0.77410    0.72470    0.04270    1.000
    H57      H        0.84790    0.72070    0.07500    1.000
    C103     C        0.48330    0.85715    0.14470    1.000
    C104     C        0.42070    0.89817    0.11640    1.000
    H58      H        0.38440    0.91620    0.15210    1.000
    C105     C        0.41220    0.91238    0.03400    1.000
    C106     C        0.46500    0.88703    0.98110    1.000
    H59      H        0.45890    0.89720    0.92510    1.000
    C107     C        0.52760    0.84604    0.01290    1.000
    C108     C        0.53700    0.83015    0.09350    1.000
    H60      H        0.57880    0.80170    0.11350    1.000
    O31      O        0.18700    0.92515    0.45020    1.000
    O32      O        0.31270    0.98582    0.45960    1.000
    O33      O        0.49610    0.83930    0.22460    1.000
    O34      O        0.15490    0.96347    0.62190    1.000
    O35      O        0.28420    0.02206    0.63340    1.000
    O36      O        0.34910    0.95385    0.01010    1.000
    O37      O        0.84540    0.62956    0.08970    1.000
    O38      O        0.70290    0.59893    0.99510    1.000
    O39      O        0.57960    0.82334    0.95700    1.000
    O40      O        0.07730    0.02060    0.46065    1.000
