# CIF file generated by openbabel 3.1.0, see https://openbabel.org
data_I
_chemical_name_common 'image0'
_cell_length_a 13.2205
_cell_length_b 13.9973
_cell_length_c 14.9
_cell_angle_alpha 99.68
_cell_angle_beta 91.009
_cell_angle_gamma 117.103
_space_group_name_H-M_alt 'P 1'
_space_group_name_Hall 'P 1'
loop_
    _symmetry_equiv_pos_as_xyz
    x,y,z
loop_
    _atom_site_label
    _atom_site_type_symbol
    _atom_site_fract_x
    _atom_site_fract_y
    _atom_site_fract_z
    _atom_site_occupancy
    Eu1      Eu       0.48974    0.85323    0.45963    1.000
    Eu2      Eu       0.15523    0.14805    0.03869    1.000
    C1       C        0.64280    0.07650    0.36670    1.000
    C2       C        0.74100    0.12930    0.31200    1.000
    C3       C        0.81130    0.24370    0.33450    1.000
    H1       H        0.79410    0.28650    0.38010    1.000
    C4       C        0.90490    0.29110    0.28880    1.000
    C5       C        0.93110    0.22800    0.21900    1.000
    H2       H        0.99640    0.26040    0.18980    1.000
    C6       C        0.85840    0.11710    0.19430    1.000
    C7       C        0.76310    0.06720    0.24140    1.000
    H3       H        0.71500    0.99220    0.22490    1.000
    C8       C        0.87810    0.04790    0.11470    1.000
    C9       C        0.94780    0.47080    0.36770    1.000
    H4       H        0.94690    0.45330    0.42810    1.000
    H5       H        0.87220    0.45950    0.34810    1.000
    C10      C        0.03440    0.58740    0.37070    1.000
    H6       H        0.02890    0.63460    0.42390    1.000
    H7       H        0.11090    0.59450    0.37440    1.000
    C11      C        0.07560    0.72620    0.28210    1.000
    C12      C        0.03910    0.76200    0.21230    1.000
    H8       H        0.97430    0.71300    0.17250    1.000
    C13      C        0.09810    0.86970    0.20120    1.000
    C14      C        0.19440    0.94470    0.26310    1.000
    H9       H        0.23340    0.01770    0.25770    1.000
    C15      C        0.23000    0.90810    0.33190    1.000
    C16      C        0.17300    0.79920    0.34180    1.000
    H10      H        0.19950    0.77570    0.38740    1.000
    C17      C        0.33020    0.98820    0.39990    1.000
    C18      C        0.05850    0.91030    0.12700    1.000
    N1       N        0.34080    0.63960    0.50580    1.000
    N2       N        0.26230    0.36240    0.98370    1.000
    O1       O        0.44710    0.68710    0.52850    1.000
    O2       O        0.30510    0.68160    0.45220    1.000
    O3       O        0.27560    0.55760    0.53370    1.000
    O4       O        0.60900    0.97620    0.36890    1.000
    O5       O        0.60150    0.13540    0.40640    1.000
    O6       O        0.79970    0.95280    0.08420    1.000
    O7       O        0.97320    0.08930    0.08230    1.000
    O8       O        0.28990    0.28930    0.95470    1.000
    O9       O        0.19480    0.34410    0.04400    1.000
    O10      O        0.29960    0.44850    0.95470    1.000
    O11      O        0.97870    0.40250    0.30470    1.000
    O12      O        0.01130    0.61840    0.28780    1.000
    O13      O        0.95880    0.85040    0.08820    1.000
    O14      O        0.12790    0.00230    0.11160    1.000
    O15      O        0.38830    0.95350    0.44120    1.000
    O16      O        0.35320    0.08770    0.41880    1.000
    Eu3      Eu       0.51026    0.14677    0.54037    1.000
    Eu4      Eu       0.84477    0.85195    0.96131    1.000
    C19      C        0.35720    0.92350    0.63330    1.000
    C20      C        0.25900    0.87070    0.68800    1.000
    C21      C        0.18870    0.75630    0.66550    1.000
    H11      H        0.20590    0.71350    0.61990    1.000
    C22      C        0.09510    0.70890    0.71120    1.000
    C23      C        0.06890    0.77200    0.78100    1.000
    H12      H        0.00360    0.73960    0.81020    1.000
    C24      C        0.14160    0.88290    0.80570    1.000
    C25      C        0.23690    0.93280    0.75860    1.000
    H13      H        0.28500    0.00780    0.77510    1.000
    C26      C        0.12190    0.95210    0.88530    1.000
    C27      C        0.05220    0.52920    0.63230    1.000
    H14      H        0.05310    0.54670    0.57190    1.000
    H15      H        0.12780    0.54050    0.65190    1.000
    C28      C        0.96560    0.41260    0.62930    1.000
    H16      H        0.97110    0.36540    0.57610    1.000
    H17      H        0.88910    0.40550    0.62560    1.000
    C29      C        0.92440    0.27380    0.71790    1.000
    C30      C        0.96090    0.23800    0.78770    1.000
    H18      H        0.02570    0.28700    0.82750    1.000
    C31      C        0.90190    0.13030    0.79880    1.000
    C32      C        0.80560    0.05530    0.73690    1.000
    H19      H        0.76660    0.98230    0.74230    1.000
    C33      C        0.77000    0.09190    0.66810    1.000
    C34      C        0.82700    0.20080    0.65820    1.000
    H20      H        0.80050    0.22430    0.61260    1.000
    C35      C        0.66980    0.01180    0.60010    1.000
    C36      C        0.94150    0.08970    0.87300    1.000
    N3       N        0.65920    0.36040    0.49420    1.000
    N4       N        0.73770    0.63760    0.01630    1.000
    O17      O        0.55290    0.31290    0.47150    1.000
    O18      O        0.69490    0.31840    0.54780    1.000
    O19      O        0.72440    0.44240    0.46630    1.000
    O20      O        0.39100    0.02380    0.63110    1.000
    O21      O        0.39850    0.86460    0.59360    1.000
    O22      O        0.20030    0.04720    0.91580    1.000
    O23      O        0.02680    0.91070    0.91770    1.000
    O24      O        0.71010    0.71070    0.04530    1.000
    O25      O        0.80520    0.65590    0.95600    1.000
    O26      O        0.70040    0.55150    0.04530    1.000
    O27      O        0.02130    0.59750    0.69530    1.000
    O28      O        0.98870    0.38160    0.71220    1.000
    O29      O        0.04120    0.14960    0.91180    1.000
    O30      O        0.87210    0.99770    0.88840    1.000
    O31      O        0.61170    0.04650    0.55880    1.000
    O32      O        0.64680    0.91230    0.58120    1.000
