data_functionalizedCrystal
_audit_creation_method	'EQeq! by Chris Wilmer'
_symmetry_space_group_name_H-M	'P1'
_symmetry_Int_Tables_number	1
_symmetry_cell_setting	triclinic
loop_
_symmetry_equiv_pos_as_xyz
  x,y,z
_cell_length_a	26.3605
_cell_length_b	26.3605
_cell_length_c	26.3605
_cell_angle_alpha	90
_cell_angle_beta	90
_cell_angle_gamma	90
loop_
_atom_site_label
_atom_site_type_symbol
_atom_site_fract_x
_atom_site_fract_y
_atom_site_fract_z
_atom_site_charge
Mof_O 	O 	0.24365	0.05261	0.18245	-0.406
Mof_O 	O 	0.24365	0.55261	0.68245	-0.386
Mof_O 	O 	0.74365	0.05261	0.68245	-0.399
Mof_O 	O 	0.74365	0.55261	0.18245	-0.388
Mof_O 	O 	0.75635	0.94739	0.18245	-0.359
Mof_O 	O 	0.75635	0.44739	0.68245	-0.385
Mof_O 	O 	0.25635	0.94739	0.68245	-0.358
Mof_O 	O 	0.25635	0.44739	0.18245	-0.392
Mof_O 	O 	0.75635	0.05261	0.81755	-0.395
Mof_O 	O 	0.75635	0.55261	0.31755	-0.385
Mof_O 	O 	0.25635	0.05261	0.31755	-0.403
Mof_O 	O 	0.25635	0.55261	0.81755	-0.383
Mof_O 	O 	0.24365	0.94739	0.81755	-0.351
Mof_O 	O 	0.24365	0.44739	0.31755	-0.386
Mof_O 	O 	0.74365	0.94739	0.31755	-0.353
Mof_O 	O 	0.74365	0.44739	0.81755	-0.379
Mof_O 	O 	0.18245	0.24365	0.05261	-0.407
Mof_O 	O 	0.18245	0.74365	0.55261	-0.389
Mof_O 	O 	0.68245	0.24365	0.55261	-0.387
Mof_O 	O 	0.68245	0.74365	0.05261	-0.4
Mof_O 	O 	0.18245	0.75635	0.94739	-0.36
Mof_O 	O 	0.18245	0.25635	0.44739	-0.393
Mof_O 	O 	0.68245	0.75635	0.44739	-0.386
Mof_O 	O 	0.68245	0.25635	0.94739	-0.359
Mof_O 	O 	0.81755	0.75635	0.05261	-0.396
Mof_O 	O 	0.81755	0.25635	0.55261	-0.384
Mof_O 	O 	0.31755	0.75635	0.55261	-0.386
Mof_O 	O 	0.31755	0.25635	0.05261	-0.404
Mof_O 	O 	0.81755	0.24365	0.94739	-0.352
Mof_O 	O 	0.81755	0.74365	0.44739	-0.379
Mof_O 	O 	0.31755	0.24365	0.44739	-0.387
Mof_O 	O 	0.31755	0.74365	0.94739	-0.354
Mof_O 	O 	0.05261	0.18245	0.24365	-0.407
Mof_O 	O 	0.05261	0.68245	0.74365	-0.4
Mof_O 	O 	0.55261	0.18245	0.74365	-0.389
Mof_O 	O 	0.55261	0.68245	0.24365	-0.387
Mof_O 	O 	0.94739	0.18245	0.75635	-0.36
Mof_O 	O 	0.94739	0.68245	0.25635	-0.359
Mof_O 	O 	0.44739	0.18245	0.25635	-0.393
Mof_O 	O 	0.44739	0.68245	0.75635	-0.386
Mof_O 	O 	0.05261	0.81755	0.75635	-0.396
Mof_O 	O 	0.05261	0.31755	0.25635	-0.404
Mof_O 	O 	0.55261	0.81755	0.25635	-0.384
Mof_O 	O 	0.55261	0.31755	0.75635	-0.386
Mof_O 	O 	0.94739	0.81755	0.24365	-0.352
Mof_O 	O 	0.94739	0.31755	0.74365	-0.354
Mof_O 	O 	0.44739	0.81755	0.74365	-0.379
Mof_O 	O 	0.44739	0.31755	0.24365	-0.387
Mof_O 	O 	0.05261	0.24365	0.81755	-0.398
Mof_O 	O 	0.05261	0.74365	0.31755	-0.4
Mof_O 	O 	0.55261	0.24365	0.31755	-0.387
Mof_O 	O 	0.55261	0.74365	0.81755	-0.379
Mof_O 	O 	0.94739	0.75635	0.81755	-0.351
Mof_O 	O 	0.94739	0.25635	0.31755	-0.359
Mof_O 	O 	0.44739	0.75635	0.31755	-0.386
Mof_O 	O 	0.44739	0.25635	0.81755	-0.384
Mof_O 	O 	0.05261	0.75635	0.18245	-0.406
Mof_O 	O 	0.05261	0.25635	0.68245	-0.404
Mof_O 	O 	0.55261	0.75635	0.68245	-0.386
Mof_O 	O 	0.55261	0.25635	0.18245	-0.393
Mof_O 	O 	0.94739	0.24365	0.18245	-0.362
Mof_O 	O 	0.94739	0.74365	0.68245	-0.354
Mof_O 	O 	0.44739	0.24365	0.68245	-0.387
Mof_O 	O 	0.44739	0.74365	0.18245	-0.389
Mof_O 	O 	0.24365	0.18245	0.94739	-0.362
Mof_O 	O 	0.24365	0.68245	0.44739	-0.387
Mof_O 	O 	0.74365	0.18245	0.44739	-0.389
Mof_O 	O 	0.74365	0.68245	0.94739	-0.354
Mof_O 	O 	0.75635	0.18245	0.05261	-0.406
Mof_O 	O 	0.75635	0.68245	0.55261	-0.386
Mof_O 	O 	0.25635	0.18245	0.55261	-0.393
Mof_O 	O 	0.25635	0.68245	0.05261	-0.404
Mof_O 	O 	0.75635	0.81755	0.94739	-0.351
Mof_O 	O 	0.75635	0.31755	0.44739	-0.386
Mof_O 	O 	0.25635	0.81755	0.44739	-0.384
Mof_O 	O 	0.25635	0.31755	0.94739	-0.359
Mof_O 	O 	0.24365	0.81755	0.05261	-0.398
Mof_O 	O 	0.24365	0.31755	0.55261	-0.387
Mof_O 	O 	0.74365	0.81755	0.55261	-0.379
Mof_O 	O 	0.74365	0.31755	0.05261	-0.4
Mof_O 	O 	0.18245	0.05261	0.75635	-0.406
Mof_O 	O 	0.18245	0.55261	0.25635	-0.393
Mof_O 	O 	0.68245	0.05261	0.25635	-0.404
Mof_O 	O 	0.68245	0.55261	0.75635	-0.386
Mof_O 	O 	0.18245	0.94739	0.24365	-0.362
Mof_O 	O 	0.18245	0.44739	0.74365	-0.389
Mof_O 	O 	0.68245	0.94739	0.74365	-0.354
Mof_O 	O 	0.68245	0.44739	0.24365	-0.387
Mof_O 	O 	0.81755	0.05261	0.24365	-0.398
Mof_O 	O 	0.81755	0.55261	0.74365	-0.379
Mof_O 	O 	0.31755	0.05261	0.74365	-0.4
Mof_O 	O 	0.31755	0.55261	0.24365	-0.387
Mof_O 	O 	0.81755	0.94739	0.75635	-0.351
Mof_O 	O 	0.81755	0.44739	0.25635	-0.384
Mof_O 	O 	0.31755	0.94739	0.25635	-0.359
Mof_O 	O 	0.31755	0.44739	0.75635	-0.386
Mof_O 	O 	0.75635	0.94739	0.81755	-0.351
Mof_O 	O 	0.75635	0.44739	0.31755	-0.386
Mof_O 	O 	0.25635	0.94739	0.31755	-0.359
Mof_O 	O 	0.25635	0.44739	0.81755	-0.384
Mof_O 	O 	0.24365	0.05261	0.81755	-0.398
Mof_O 	O 	0.24365	0.55261	0.31755	-0.387
Mof_O 	O 	0.74365	0.05261	0.31755	-0.4
Mof_O 	O 	0.74365	0.55261	0.81755	-0.379
Mof_O 	O 	0.24365	0.94739	0.18245	-0.362
Mof_O 	O 	0.24365	0.44739	0.68245	-0.387
Mof_O 	O 	0.74365	0.94739	0.68245	-0.354
Mof_O 	O 	0.74365	0.44739	0.18245	-0.389
Mof_O 	O 	0.75635	0.05261	0.18245	-0.406
Mof_O 	O 	0.75635	0.55261	0.68245	-0.386
Mof_O 	O 	0.25635	0.05261	0.68245	-0.404
Mof_O 	O 	0.25635	0.55261	0.18245	-0.393
Mof_O 	O 	0.81755	0.75635	0.94739	-0.351
Mof_O 	O 	0.81755	0.25635	0.44739	-0.384
Mof_O 	O 	0.31755	0.75635	0.44739	-0.386
Mof_O 	O 	0.31755	0.25635	0.94739	-0.359
Mof_O 	O 	0.81755	0.24365	0.05261	-0.398
Mof_O 	O 	0.81755	0.74365	0.55261	-0.379
Mof_O 	O 	0.31755	0.24365	0.55261	-0.387
Mof_O 	O 	0.31755	0.74365	0.05261	-0.4
Mof_O 	O 	0.18245	0.24365	0.94739	-0.362
Mof_O 	O 	0.18245	0.74365	0.44739	-0.389
Mof_O 	O 	0.68245	0.24365	0.44739	-0.387
Mof_O 	O 	0.68245	0.74365	0.94739	-0.354
Mof_O 	O 	0.18245	0.75635	0.05261	-0.406
Mof_O 	O 	0.18245	0.25635	0.55261	-0.393
Mof_O 	O 	0.68245	0.75635	0.55261	-0.386
Mof_O 	O 	0.68245	0.25635	0.05261	-0.404
Mof_O 	O 	0.94739	0.81755	0.75635	-0.351
Mof_O 	O 	0.94739	0.31755	0.25635	-0.359
Mof_O 	O 	0.44739	0.81755	0.25635	-0.384
Mof_O 	O 	0.44739	0.31755	0.75635	-0.386
Mof_O 	O 	0.05261	0.81755	0.24365	-0.398
Mof_O 	O 	0.05261	0.31755	0.74365	-0.4
Mof_O 	O 	0.55261	0.81755	0.74365	-0.379
Mof_O 	O 	0.55261	0.31755	0.24365	-0.387
Mof_O 	O 	0.94739	0.18245	0.24365	-0.362
Mof_O 	O 	0.94739	0.68245	0.74365	-0.354
Mof_O 	O 	0.44739	0.18245	0.74365	-0.389
Mof_O 	O 	0.44739	0.68245	0.24365	-0.387
Mof_O 	O 	0.05261	0.18245	0.75635	-0.406
Mof_O 	O 	0.05261	0.68245	0.25635	-0.404
Mof_O 	O 	0.55261	0.18245	0.25635	-0.393
Mof_O 	O 	0.55261	0.68245	0.75635	-0.386
Mof_O 	O 	0.94739	0.75635	0.18245	-0.36
Mof_O 	O 	0.94739	0.25635	0.68245	-0.359
Mof_O 	O 	0.44739	0.75635	0.68245	-0.386
Mof_O 	O 	0.44739	0.25635	0.18245	-0.393
Mof_O 	O 	0.05261	0.24365	0.18245	-0.407
Mof_O 	O 	0.05261	0.74365	0.68245	-0.4
Mof_O 	O 	0.55261	0.24365	0.68245	-0.387
Mof_O 	O 	0.55261	0.74365	0.18245	-0.389
Mof_O 	O 	0.94739	0.24365	0.81755	-0.352
Mof_O 	O 	0.94739	0.74365	0.31755	-0.354
Mof_O 	O 	0.44739	0.24365	0.31755	-0.387
Mof_O 	O 	0.44739	0.74365	0.81755	-0.379
Mof_O 	O 	0.05261	0.75635	0.81755	-0.396
Mof_O 	O 	0.05261	0.25635	0.31755	-0.404
Mof_O 	O 	0.55261	0.75635	0.31755	-0.386
Mof_O 	O 	0.55261	0.25635	0.81755	-0.384
Mof_O 	O 	0.75635	0.81755	0.05261	-0.396
Mof_O 	O 	0.75635	0.31755	0.55261	-0.386
Mof_O 	O 	0.25635	0.81755	0.55261	-0.384
Mof_O 	O 	0.25635	0.31755	0.05261	-0.404
Mof_O 	O 	0.24365	0.81755	0.94739	-0.352
Mof_O 	O 	0.24365	0.31755	0.44739	-0.387
Mof_O 	O 	0.74365	0.81755	0.44739	-0.379
Mof_O 	O 	0.74365	0.31755	0.94739	-0.354
Mof_O 	O 	0.24365	0.18245	0.05261	-0.407
Mof_O 	O 	0.24365	0.68245	0.55261	-0.387
Mof_O 	O 	0.74365	0.18245	0.55261	-0.389
Mof_O 	O 	0.74365	0.68245	0.05261	-0.4
Mof_O 	O 	0.75635	0.18245	0.94739	-0.36
Mof_O 	O 	0.75635	0.68245	0.44739	-0.386
Mof_O 	O 	0.25635	0.18245	0.44739	-0.393
Mof_O 	O 	0.25635	0.68245	0.94739	-0.359
Mof_O 	O 	0.81755	0.94739	0.24365	-0.352
Mof_O 	O 	0.81755	0.44739	0.74365	-0.379
Mof_O 	O 	0.31755	0.94739	0.74365	-0.354
Mof_O 	O 	0.31755	0.44739	0.24365	-0.387
Mof_O 	O 	0.81755	0.05261	0.75635	-0.396
Mof_O 	O 	0.81755	0.55261	0.25635	-0.384
Mof_O 	O 	0.31755	0.05261	0.25635	-0.404
Mof_O 	O 	0.31755	0.55261	0.75635	-0.386
Mof_O 	O 	0.18245	0.94739	0.75635	-0.36
Mof_O 	O 	0.18245	0.44739	0.25635	-0.393
Mof_O 	O 	0.68245	0.94739	0.25635	-0.359
Mof_O 	O 	0.68245	0.44739	0.75635	-0.386
Mof_O 	O 	0.18245	0.05261	0.24365	-0.407
Mof_O 	O 	0.18245	0.55261	0.74365	-0.389
Mof_O 	O 	0.68245	0.05261	0.74365	-0.4
Mof_O 	O 	0.68245	0.55261	0.24365	-0.387
Mof_Cu	Cu	0.28592	2.75626e-33	0.21408	0.872
Mof_Cu	Cu	0.28592	0.5	0.71408	0.903
Mof_Cu	Cu	0.71408	2.75626e-33	0.21408	0.873
Mof_Cu	Cu	0.71408	0.5	0.71408	0.903
Mof_Cu	Cu	0.21408	0.5	0.21408	0.9
Mof_Cu	Cu	0.71408	1.1025e-32	0.78592	0.876
Mof_Cu	Cu	0.71408	0.5	0.28592	0.903
Mof_Cu	Cu	0.21408	0	0.28592	0.872
Mof_Cu	Cu	0.28592	1.1025e-32	0.78592	0.876
Mof_Cu	Cu	0.28592	0.5	0.28592	0.903
Mof_Cu	Cu	0.21408	0.28592	-0	0.872
Mof_Cu	Cu	0.21408	0.78592	0.5	0.903
Mof_Cu	Cu	0.21408	0.71408	-0	0.873
Mof_Cu	Cu	0.21408	0.21408	0.5	0.9
Mof_Cu	Cu	0.78592	0.71408	-0	0.876
Mof_Cu	Cu	0.78592	0.21408	0.5	0.903
Mof_Cu	Cu	0.28592	0.21408	-0	0.872
Mof_Cu	Cu	0.78592	0.28592	-0	0.876
Mof_Cu	Cu	0.78592	0.78592	0.5	0.907
Mof_Cu	Cu	0.28592	0.28592	0.5	0.903
Mof_Cu	Cu	-1.68423e-33	0.21408	0.28592	0.872
Mof_Cu	Cu	0.5	0.21408	0.78592	0.903
Mof_Cu	Cu	8.18988e-33	0.21408	0.71408	0.873
Mof_Cu	Cu	0.5	0.21408	0.21408	0.9
Mof_Cu	Cu	1.37024e-32	0.78592	0.71408	0.876
Mof_Cu	Cu	8.02671e-34	0.28592	0.21408	0.872
Mof_Cu	Cu	0.5	0.78592	0.21408	0.903
Mof_Cu	Cu	1.20971e-32	0.78592	0.28592	0.876
Mof_Cu	Cu	0.5	0.78592	0.78592	0.907
Mof_Cu	Cu	0.5	0.28592	0.28592	0.903
Mof_Cu	Cu	8.45924e-33	0.28592	0.78592	0.876
Mof_Cu	Cu	1.39718e-32	0.71408	0.78592	0.876
Mof_Cu	Cu	0.5	0.71408	0.28592	0.903
Mof_Cu	Cu	6.31518e-33	0.71408	0.21408	0.873
Mof_Cu	Cu	0.5	0.71408	0.71408	0.903
Mof_Cu	Cu	0.5	0.28592	0.71408	0.903
Mof_Cu	Cu	0.28592	0.71408	0.5	0.903
Mof_Cu	Cu	0.71408	0.21408	-0	0.873
Mof_Cu	Cu	0.71408	0.71408	0.5	0.903
Mof_Cu	Cu	0.71408	0.78592	-0	0.876
Mof_Cu	Cu	0.71408	0.28592	0.5	0.903
Mof_Cu	Cu	0.28592	0.78592	-0	0.876
Mof_Cu	Cu	0.21408	5.51251e-33	0.71408	0.873
Mof_Cu	Cu	0.21408	0.5	0.78592	0.903
Mof_Cu	Cu	0.78592	0	0.28592	0.876
Mof_Cu	Cu	0.78592	0.5	0.78592	0.907
Mof_Cu	Cu	0.78592	5.51251e-33	0.71408	0.876
Mof_Cu	Cu	0.78592	0.5	0.21408	0.903
Mof_C 	C 	0.20142	0.0683	0.20142	0.33
Mof_C 	C 	0.17813	0.11626	0.17813	-0.126
Mof_C 	C 	0.20142	0.5683	0.70142	0.336
Mof_C 	C 	0.17813	0.61626	0.67813	-0.128
Mof_C 	C 	0.70142	0.0683	0.70142	0.333
Mof_C 	C 	0.67813	0.11626	0.67813	-0.129
Mof_C 	C 	0.70142	0.5683	0.20142	0.336
Mof_C 	C 	0.67813	0.61626	0.17813	-0.128
Mof_C 	C 	0.79858	0.9317	0.20142	0.34
Mof_C 	C 	0.82187	0.88374	0.17813	-0.129
Mof_C 	C 	0.79858	0.4317	0.70142	0.34
Mof_C 	C 	0.82187	0.38374	0.67813	-0.131
Mof_C 	C 	0.29858	0.9317	0.70142	0.339
Mof_C 	C 	0.32187	0.88374	0.67813	-0.129
Mof_C 	C 	0.29858	0.4317	0.20142	0.337
Mof_C 	C 	0.32187	0.38374	0.17813	-0.128
Mof_C 	C 	0.79858	0.0683	0.79858	0.338
Mof_C 	C 	0.82187	0.11626	0.82187	-0.132
Mof_C 	C 	0.79858	0.5683	0.29858	0.341
Mof_C 	C 	0.82187	0.61626	0.32187	-0.131
Mof_C 	C 	0.29858	0.0683	0.29858	0.334
Mof_C 	C 	0.32187	0.11626	0.32187	-0.129
Mof_C 	C 	0.29858	0.5683	0.79858	0.341
Mof_C 	C 	0.32187	0.61626	0.82187	-0.131
Mof_C 	C 	0.20142	0.9317	0.79858	0.34
Mof_C 	C 	0.17813	0.88374	0.82187	-0.129
Mof_C 	C 	0.20142	0.4317	0.29858	0.337
Mof_C 	C 	0.17813	0.38374	0.32187	-0.128
Mof_C 	C 	0.70142	0.9317	0.29858	0.339
Mof_C 	C 	0.67813	0.88374	0.32187	-0.129
Mof_C 	C 	0.70142	0.4317	0.79858	0.34
Mof_C 	C 	0.67813	0.38374	0.82187	-0.131
Mof_C 	C 	0.20142	0.20142	0.0683	0.33
Mof_C 	C 	0.17813	0.17813	0.11626	-0.126
Mof_C 	C 	0.20142	0.70142	0.5683	0.336
Mof_C 	C 	0.17813	0.67813	0.61626	-0.128
Mof_C 	C 	0.70142	0.20142	0.5683	0.336
Mof_C 	C 	0.67813	0.17813	0.61626	-0.128
Mof_C 	C 	0.70142	0.70142	0.0683	0.333
Mof_C 	C 	0.67813	0.67813	0.11626	-0.129
Mof_C 	C 	0.20142	0.79858	0.9317	0.34
Mof_C 	C 	0.17813	0.82187	0.88374	-0.129
Mof_C 	C 	0.20142	0.29858	0.4317	0.337
Mof_C 	C 	0.17813	0.32187	0.38374	-0.128
Mof_C 	C 	0.70142	0.79858	0.4317	0.34
Mof_C 	C 	0.67813	0.82187	0.38374	-0.131
Mof_C 	C 	0.70142	0.29858	0.9317	0.339
Mof_C 	C 	0.67813	0.32187	0.88374	-0.129
Mof_C 	C 	0.79858	0.79858	0.0683	0.338
Mof_C 	C 	0.82187	0.82187	0.11626	-0.132
Mof_C 	C 	0.79858	0.29858	0.5683	0.341
Mof_C 	C 	0.82187	0.32187	0.61626	-0.131
Mof_C 	C 	0.29858	0.79858	0.5683	0.341
Mof_C 	C 	0.32187	0.82187	0.61626	-0.131
Mof_C 	C 	0.29858	0.29858	0.0683	0.334
Mof_C 	C 	0.32187	0.32187	0.11626	-0.129
Mof_C 	C 	0.79858	0.20142	0.9317	0.34
Mof_C 	C 	0.82187	0.17813	0.88374	-0.129
Mof_C 	C 	0.79858	0.70142	0.4317	0.34
Mof_C 	C 	0.82187	0.67813	0.38374	-0.131
Mof_C 	C 	0.29858	0.20142	0.4317	0.337
Mof_C 	C 	0.32187	0.17813	0.38374	-0.128
Mof_C 	C 	0.29858	0.70142	0.9317	0.339
Mof_C 	C 	0.32187	0.67813	0.88374	-0.129
Mof_C 	C 	0.0683	0.20142	0.20142	0.33
Mof_C 	C 	0.11626	0.17813	0.17813	-0.126
Mof_C 	C 	0.0683	0.70142	0.70142	0.333
Mof_C 	C 	0.11626	0.67813	0.67813	-0.129
Mof_C 	C 	0.5683	0.20142	0.70142	0.336
Mof_C 	C 	0.61626	0.17813	0.67813	-0.128
Mof_C 	C 	0.5683	0.70142	0.20142	0.336
Mof_C 	C 	0.61626	0.67813	0.17813	-0.128
Mof_C 	C 	0.9317	0.20142	0.79858	0.34
Mof_C 	C 	0.88374	0.17813	0.82187	-0.129
Mof_C 	C 	0.9317	0.70142	0.29858	0.339
Mof_C 	C 	0.88374	0.67813	0.32187	-0.129
Mof_C 	C 	0.4317	0.20142	0.29858	0.337
Mof_C 	C 	0.38374	0.17813	0.32187	-0.128
Mof_C 	C 	0.4317	0.70142	0.79858	0.34
Mof_C 	C 	0.38374	0.67813	0.82187	-0.131
Mof_C 	C 	0.0683	0.79858	0.79858	0.338
Mof_C 	C 	0.11626	0.82187	0.82187	-0.132
Mof_C 	C 	0.0683	0.29858	0.29858	0.334
Mof_C 	C 	0.11626	0.32187	0.32187	-0.129
Mof_C 	C 	0.5683	0.79858	0.29858	0.341
Mof_C 	C 	0.61626	0.82187	0.32187	-0.131
Mof_C 	C 	0.5683	0.29858	0.79858	0.341
Mof_C 	C 	0.61626	0.32187	0.82187	-0.131
Mof_C 	C 	0.9317	0.79858	0.20142	0.34
Mof_C 	C 	0.88374	0.82187	0.17813	-0.129
Mof_C 	C 	0.9317	0.29858	0.70142	0.339
Mof_C 	C 	0.88374	0.32187	0.67813	-0.129
Mof_C 	C 	0.4317	0.79858	0.70142	0.34
Mof_C 	C 	0.38374	0.82187	0.67813	-0.131
Mof_C 	C 	0.4317	0.29858	0.20142	0.337
Mof_C 	C 	0.38374	0.32187	0.17813	-0.128
Mof_C 	C 	0.0683	0.20142	0.79858	0.334
Mof_C 	C 	0.11626	0.17813	0.82187	-0.129
Mof_C 	C 	0.0683	0.70142	0.29858	0.334
Mof_C 	C 	0.11626	0.67813	0.32187	-0.129
Mof_C 	C 	0.5683	0.20142	0.29858	0.337
Mof_C 	C 	0.61626	0.17813	0.32187	-0.128
Mof_C 	C 	0.5683	0.70142	0.79858	0.341
Mof_C 	C 	0.61626	0.67813	0.82187	-0.131
Mof_C 	C 	0.9317	0.79858	0.79858	0.344
Mof_C 	C 	0.88374	0.82187	0.82187	-0.132
Mof_C 	C 	0.9317	0.29858	0.29858	0.34
Mof_C 	C 	0.88374	0.32187	0.32187	-0.129
Mof_C 	C 	0.4317	0.79858	0.29858	0.341
Mof_C 	C 	0.38374	0.82187	0.32187	-0.131
Mof_C 	C 	0.4317	0.29858	0.79858	0.341
Mof_C 	C 	0.38374	0.32187	0.82187	-0.131
Mof_C 	C 	0.0683	0.79858	0.20142	0.334
Mof_C 	C 	0.11626	0.82187	0.17813	-0.129
Mof_C 	C 	0.0683	0.29858	0.70142	0.334
Mof_C 	C 	0.11626	0.32187	0.67813	-0.129
Mof_C 	C 	0.5683	0.79858	0.70142	0.341
Mof_C 	C 	0.61626	0.82187	0.67813	-0.131
Mof_C 	C 	0.5683	0.29858	0.20142	0.337
Mof_C 	C 	0.61626	0.32187	0.17813	-0.128
Mof_C 	C 	0.9317	0.20142	0.20142	0.335
Mof_C 	C 	0.88374	0.17813	0.17813	-0.126
Mof_C 	C 	0.9317	0.70142	0.70142	0.339
Mof_C 	C 	0.88374	0.67813	0.67813	-0.129
Mof_C 	C 	0.4317	0.20142	0.70142	0.336
Mof_C 	C 	0.38374	0.17813	0.67813	-0.128
Mof_C 	C 	0.4317	0.70142	0.20142	0.336
Mof_C 	C 	0.38374	0.67813	0.17813	-0.128
Mof_C 	C 	0.20142	0.20142	0.9317	0.335
Mof_C 	C 	0.17813	0.17813	0.88374	-0.126
Mof_C 	C 	0.20142	0.70142	0.4317	0.336
Mof_C 	C 	0.17813	0.67813	0.38374	-0.128
Mof_C 	C 	0.70142	0.20142	0.4317	0.336
Mof_C 	C 	0.67813	0.17813	0.38374	-0.128
Mof_C 	C 	0.70142	0.70142	0.9317	0.339
Mof_C 	C 	0.67813	0.67813	0.88374	-0.129
Mof_C 	C 	0.79858	0.20142	0.0683	0.334
Mof_C 	C 	0.82187	0.17813	0.11626	-0.129
Mof_C 	C 	0.79858	0.70142	0.5683	0.341
Mof_C 	C 	0.82187	0.67813	0.61626	-0.131
Mof_C 	C 	0.29858	0.20142	0.5683	0.337
Mof_C 	C 	0.32187	0.17813	0.61626	-0.128
Mof_C 	C 	0.29858	0.70142	0.0683	0.334
Mof_C 	C 	0.32187	0.67813	0.11626	-0.129
Mof_C 	C 	0.79858	0.79858	0.9317	0.344
Mof_C 	C 	0.82187	0.82187	0.88374	-0.132
Mof_C 	C 	0.79858	0.29858	0.4317	0.341
Mof_C 	C 	0.82187	0.32187	0.38374	-0.131
Mof_C 	C 	0.29858	0.79858	0.4317	0.341
Mof_C 	C 	0.32187	0.82187	0.38374	-0.131
Mof_C 	C 	0.29858	0.29858	0.9317	0.34
Mof_C 	C 	0.32187	0.32187	0.88374	-0.129
Mof_C 	C 	0.20142	0.79858	0.0683	0.334
Mof_C 	C 	0.17813	0.82187	0.11626	-0.129
Mof_C 	C 	0.20142	0.29858	0.5683	0.337
Mof_C 	C 	0.17813	0.32187	0.61626	-0.128
Mof_C 	C 	0.70142	0.79858	0.5683	0.341
Mof_C 	C 	0.67813	0.82187	0.61626	-0.131
Mof_C 	C 	0.70142	0.29858	0.0683	0.334
Mof_C 	C 	0.67813	0.32187	0.11626	-0.129
Mof_C 	C 	0.20142	0.0683	0.79858	0.334
Mof_C 	C 	0.17813	0.11626	0.82187	-0.129
Mof_C 	C 	0.20142	0.5683	0.29858	0.337
Mof_C 	C 	0.17813	0.61626	0.32187	-0.128
Mof_C 	C 	0.70142	0.0683	0.29858	0.334
Mof_C 	C 	0.67813	0.11626	0.32187	-0.129
Mof_C 	C 	0.70142	0.5683	0.79858	0.341
Mof_C 	C 	0.67813	0.61626	0.82187	-0.131
Mof_C 	C 	0.20142	0.9317	0.20142	0.335
Mof_C 	C 	0.17813	0.88374	0.17813	-0.126
Mof_C 	C 	0.20142	0.4317	0.70142	0.336
Mof_C 	C 	0.17813	0.38374	0.67813	-0.128
Mof_C 	C 	0.70142	0.9317	0.70142	0.339
Mof_C 	C 	0.67813	0.88374	0.67813	-0.129
Mof_C 	C 	0.70142	0.4317	0.20142	0.336
Mof_C 	C 	0.67813	0.38374	0.17813	-0.128
Mof_C 	C 	0.79858	0.0683	0.20142	0.334
Mof_C 	C 	0.82187	0.11626	0.17813	-0.129
Mof_C 	C 	0.79858	0.5683	0.70142	0.341
Mof_C 	C 	0.82187	0.61626	0.67813	-0.131
Mof_C 	C 	0.29858	0.0683	0.70142	0.334
Mof_C 	C 	0.32187	0.11626	0.67813	-0.129
Mof_C 	C 	0.29858	0.5683	0.20142	0.337
Mof_C 	C 	0.32187	0.61626	0.17813	-0.128
Mof_C 	C 	0.79858	0.9317	0.79858	0.344
Mof_C 	C 	0.82187	0.88374	0.82187	-0.132
Mof_C 	C 	0.79858	0.4317	0.29858	0.341
Mof_C 	C 	0.82187	0.38374	0.32187	-0.131
Mof_C 	C 	0.29858	0.9317	0.29858	0.34
Mof_C 	C 	0.32187	0.88374	0.32187	-0.129
Mof_C 	C 	0.29858	0.4317	0.79858	0.341
Mof_C 	C 	0.32187	0.38374	0.82187	-0.131
Mof_C 	C 	0.13255	0.13255	0.19895	0.089
Mof_C 	C 	0.13255	0.63255	0.69895	0.104
Mof_C 	C 	0.63255	0.13255	0.69895	0.104
Mof_C 	C 	0.63255	0.63255	0.19895	0.108
Mof_C 	C 	0.86745	0.86745	0.19895	0.128
Mof_C 	C 	0.86745	0.36745	0.69895	0.124
Mof_C 	C 	0.36745	0.86745	0.69895	0.124
Mof_C 	C 	0.36745	0.36745	0.19895	0.108
Mof_C 	C 	0.86745	0.13255	0.80105	0.117
Mof_C 	C 	0.86745	0.63255	0.30105	0.121
Mof_C 	C 	0.36745	0.13255	0.30105	0.101
Mof_C 	C 	0.36745	0.63255	0.80105	0.117
Mof_C 	C 	0.13255	0.86745	0.80105	0.117
Mof_C 	C 	0.13255	0.36745	0.30105	0.101
Mof_C 	C 	0.63255	0.86745	0.30105	0.121
Mof_C 	C 	0.63255	0.36745	0.80105	0.117
Mof_C 	C 	0.19895	0.13255	0.13255	0.089
Mof_C 	C 	0.19895	0.63255	0.63255	0.108
Mof_C 	C 	0.69895	0.13255	0.63255	0.104
Mof_C 	C 	0.69895	0.63255	0.13255	0.104
Mof_C 	C 	0.19895	0.86745	0.86745	0.128
Mof_C 	C 	0.19895	0.36745	0.36745	0.108
Mof_C 	C 	0.69895	0.86745	0.36745	0.124
Mof_C 	C 	0.69895	0.36745	0.86745	0.124
Mof_C 	C 	0.80105	0.86745	0.13255	0.117
Mof_C 	C 	0.80105	0.36745	0.63255	0.117
Mof_C 	C 	0.30105	0.86745	0.63255	0.121
Mof_C 	C 	0.30105	0.36745	0.13255	0.101
Mof_C 	C 	0.80105	0.13255	0.86745	0.117
Mof_C 	C 	0.80105	0.63255	0.36745	0.117
Mof_C 	C 	0.30105	0.13255	0.36745	0.101
Mof_C 	C 	0.30105	0.63255	0.86745	0.121
Mof_C 	C 	0.13255	0.19895	0.13255	0.089
Mof_C 	C 	0.13255	0.69895	0.63255	0.104
Mof_C 	C 	0.63255	0.19895	0.63255	0.108
Mof_C 	C 	0.63255	0.69895	0.13255	0.104
Mof_C 	C 	0.86745	0.19895	0.86745	0.128
Mof_C 	C 	0.86745	0.69895	0.36745	0.124
Mof_C 	C 	0.36745	0.19895	0.36745	0.108
Mof_C 	C 	0.36745	0.69895	0.86745	0.124
Mof_C 	C 	0.13255	0.80105	0.86745	0.117
Mof_C 	C 	0.13255	0.30105	0.36745	0.101
Mof_C 	C 	0.63255	0.80105	0.36745	0.117
Mof_C 	C 	0.63255	0.30105	0.86745	0.121
Mof_C 	C 	0.86745	0.80105	0.13255	0.117
Mof_C 	C 	0.86745	0.30105	0.63255	0.121
Mof_C 	C 	0.36745	0.80105	0.63255	0.117
Mof_C 	C 	0.36745	0.30105	0.13255	0.101
Mof_C 	C 	0.13255	0.13255	0.80105	0.097
Mof_C 	C 	0.13255	0.63255	0.30105	0.101
Mof_C 	C 	0.63255	0.13255	0.30105	0.101
Mof_C 	C 	0.63255	0.63255	0.80105	0.117
Mof_C 	C 	0.86745	0.86745	0.80105	0.137
Mof_C 	C 	0.86745	0.36745	0.30105	0.121
Mof_C 	C 	0.36745	0.86745	0.30105	0.121
Mof_C 	C 	0.36745	0.36745	0.80105	0.117
Mof_C 	C 	0.13255	0.86745	0.19895	0.108
Mof_C 	C 	0.13255	0.36745	0.69895	0.104
Mof_C 	C 	0.63255	0.86745	0.69895	0.125
Mof_C 	C 	0.63255	0.36745	0.19895	0.108
Mof_C 	C 	0.86745	0.13255	0.19895	0.108
Mof_C 	C 	0.86745	0.63255	0.69895	0.125
Mof_C 	C 	0.36745	0.13255	0.69895	0.104
Mof_C 	C 	0.36745	0.63255	0.19895	0.108
Mof_C 	C 	0.13255	0.19895	0.86745	0.108
Mof_C 	C 	0.13255	0.69895	0.36745	0.104
Mof_C 	C 	0.63255	0.19895	0.36745	0.108
Mof_C 	C 	0.63255	0.69895	0.86745	0.125
Mof_C 	C 	0.86745	0.19895	0.13255	0.108
Mof_C 	C 	0.86745	0.69895	0.63255	0.125
Mof_C 	C 	0.36745	0.19895	0.63255	0.108
Mof_C 	C 	0.36745	0.69895	0.13255	0.104
Mof_C 	C 	0.86745	0.80105	0.86745	0.137
Mof_C 	C 	0.86745	0.30105	0.36745	0.121
Mof_C 	C 	0.36745	0.80105	0.36745	0.117
Mof_C 	C 	0.36745	0.30105	0.86745	0.121
Mof_C 	C 	0.13255	0.80105	0.13255	0.097
Mof_C 	C 	0.13255	0.30105	0.63255	0.101
Mof_C 	C 	0.63255	0.80105	0.63255	0.117
Mof_C 	C 	0.63255	0.30105	0.13255	0.101
Mof_C 	C 	0.19895	0.13255	0.86745	0.108
Mof_C 	C 	0.19895	0.63255	0.36745	0.108
Mof_C 	C 	0.69895	0.13255	0.36745	0.104
Mof_C 	C 	0.69895	0.63255	0.86745	0.125
Mof_C 	C 	0.19895	0.86745	0.13255	0.108
Mof_C 	C 	0.19895	0.36745	0.63255	0.108
Mof_C 	C 	0.69895	0.86745	0.63255	0.125
Mof_C 	C 	0.69895	0.36745	0.13255	0.104
Mof_C 	C 	0.80105	0.13255	0.13255	0.097
Mof_C 	C 	0.80105	0.63255	0.63255	0.117
Mof_C 	C 	0.30105	0.13255	0.63255	0.101
Mof_C 	C 	0.30105	0.63255	0.13255	0.101
Mof_C 	C 	0.80105	0.86745	0.86745	0.137
Mof_C 	C 	0.80105	0.36745	0.36745	0.117
Mof_C 	C 	0.30105	0.86745	0.36745	0.121
Mof_C 	C 	0.30105	0.36745	0.86745	0.121
_end
