data_functionalizedCrystal
_audit_creation_method	'EQeq! by Chris Wilmer'
_symmetry_space_group_name_H-M	'P1'
_symmetry_Int_Tables_number	1
_symmetry_cell_setting	triclinic
loop_
_symmetry_equiv_pos_as_xyz
  x,y,z
_cell_length_a	17.991
_cell_length_b	17.991
_cell_length_c	6.5371
_cell_angle_alpha	90
_cell_angle_beta	90
_cell_angle_gamma	120
loop_
_atom_site_label
_atom_site_type_symbol
_atom_site_fract_x
_atom_site_fract_y
_atom_site_fract_z
_atom_site_charge
Mof_O 	O 	0.4342	0.4105	0.262	-0.42
Mof_O 	O 	0.5207	0.631	0.002	-0.418
Mof_C 	C 	0.4462	0.3575	0.172	0.403
Mof_C 	C 	0.4198	0.2754	0.273	-0.158
Mof_C 	C 	0.3804	0.2566	0.466	0.02
Mof_H 	H 	0.3699	0.298	0.534	0.05
Mof_O 	O 	0.2934	0.0857	0.838	-0.104
Mof_C 	C 	0.2518	0.0574	0.038	-1.128
Mof_H 	H 	0.242	0.0014	0.0654	0.464
Mof_H 	H 	0.2879	0.096	0.1392	0.392
Mof_H 	H 	0.1988	0.0566	0.0343	0.342
Mof_O 	O 	0.5895	0.0237	0.262	-0.421
Mof_O 	O 	0.369	0.8897	0.002	-0.418
Mof_C 	C 	0.6425	0.0887	0.172	0.401
Mof_C 	C 	0.7246	0.1444	0.273	-0.158
Mof_C 	C 	0.7434	0.1238	0.466	0.018
Mof_H 	H 	0.702	0.0719	0.534	0.049
Mof_O 	O 	0.9143	0.2077	0.838	-0.104
Mof_C 	C 	0.9426	0.1944	0.038	-1.131
Mof_H 	H 	0.9986	0.2406	0.0654	0.465
Mof_H 	H 	0.904	0.1919	0.1392	0.392
Mof_H 	H 	0.9434	0.1422	0.0343	0.342
Mof_O 	O 	0.9763	0.5658	0.262	-0.421
Mof_O 	O 	0.1103	0.4793	0.002	-0.418
Mof_C 	C 	0.9113	0.5538	0.172	0.402
Mof_C 	C 	0.8556	0.5802	0.273	-0.159
Mof_C 	C 	0.8762	0.6196	0.466	0.019
Mof_H 	H 	0.9281	0.6301	0.534	0.049
Mof_O 	O 	0.7923	0.7066	0.838	-0.106
Mof_C 	C 	0.8056	0.7482	0.038	-1.122
Mof_H 	H 	0.7594	0.758	0.0654	0.461
Mof_H 	H 	0.8081	0.7121	0.1392	0.389
Mof_H 	H 	0.8578	0.8012	0.0343	0.339
Mof_O 	O 	0.4105	0.4342	0.738	-0.421
Mof_O 	O 	0.631	0.5207	0.998	-0.419
Mof_C 	C 	0.3575	0.4462	0.828	0.402
Mof_C 	C 	0.2754	0.4198	0.727	-0.159
Mof_C 	C 	0.2566	0.3804	0.534	0.019
Mof_H 	H 	0.298	0.3699	0.466	0.049
Mof_O 	O 	0.0857	0.2934	0.162	-0.105
Mof_C 	C 	0.0574	0.2518	0.962	-1.129
Mof_H 	H 	0.0014	0.242	0.9346	0.464
Mof_H 	H 	0.096	0.2879	0.8608	0.392
Mof_H 	H 	0.0566	0.1988	0.9657	0.342
Mof_O 	O 	0.0237	0.5895	0.738	-0.421
Mof_O 	O 	0.8897	0.369	0.998	-0.418
Mof_C 	C 	0.0887	0.6425	0.828	0.401
Mof_C 	C 	0.1444	0.7246	0.727	-0.158
Mof_C 	C 	0.1238	0.7434	0.534	0.018
Mof_H 	H 	0.0719	0.702	0.466	0.049
Mof_O 	O 	0.2077	0.9143	0.162	-0.104
Mof_C 	C 	0.1944	0.9426	0.962	-1.131
Mof_H 	H 	0.2406	0.9986	0.9346	0.465
Mof_H 	H 	0.1919	0.904	0.8608	0.392
Mof_H 	H 	0.1422	0.9434	0.9657	0.342
Mof_O 	O 	0.5658	0.9763	0.738	-0.421
Mof_O 	O 	0.4793	0.1103	0.998	-0.418
Mof_C 	C 	0.5538	0.9113	0.828	0.402
Mof_C 	C 	0.5802	0.8556	0.727	-0.159
Mof_C 	C 	0.6196	0.8762	0.534	0.019
Mof_H 	H 	0.6301	0.9281	0.466	0.049
Mof_O 	O 	0.7066	0.7923	0.162	-0.106
Mof_C 	C 	0.7482	0.8056	0.962	-1.122
Mof_H 	H 	0.758	0.7594	0.9346	0.461
Mof_H 	H 	0.7121	0.8081	0.8608	0.389
Mof_H 	H 	0.8012	0.8578	0.9657	0.339
Mof_O 	O 	0.5658	0.5895	0.738	-0.421
Mof_O 	O 	0.4793	0.369	0.998	-0.419
Mof_C 	C 	0.5538	0.6425	0.828	0.402
Mof_C 	C 	0.5802	0.7246	0.727	-0.159
Mof_C 	C 	0.6196	0.7434	0.534	0.019
Mof_H 	H 	0.6301	0.702	0.466	0.049
Mof_O 	O 	0.7066	0.9143	0.162	-0.105
Mof_C 	C 	0.7482	0.9426	0.962	-1.129
Mof_H 	H 	0.758	0.9986	0.9346	0.464
Mof_H 	H 	0.7121	0.904	0.8608	0.392
Mof_H 	H 	0.8012	0.9434	0.9657	0.342
Mof_O 	O 	0.4105	0.9763	0.738	-0.421
Mof_O 	O 	0.631	0.1103	0.998	-0.418
Mof_C 	C 	0.3575	0.9113	0.828	0.401
Mof_C 	C 	0.2754	0.8556	0.727	-0.158
Mof_C 	C 	0.2566	0.8762	0.534	0.018
Mof_H 	H 	0.298	0.9281	0.466	0.049
Mof_O 	O 	0.0857	0.7923	0.162	-0.104
Mof_C 	C 	0.0574	0.8056	0.962	-1.131
Mof_H 	H 	0.0014	0.7594	0.9346	0.465
Mof_H 	H 	0.096	0.8081	0.8608	0.392
Mof_H 	H 	0.0566	0.8578	0.9657	0.342
Mof_O 	O 	0.0237	0.4342	0.738	-0.421
Mof_O 	O 	0.8897	0.5207	0.998	-0.418
Mof_C 	C 	0.0887	0.4462	0.828	0.402
Mof_C 	C 	0.1444	0.4198	0.727	-0.159
Mof_C 	C 	0.1238	0.3804	0.534	0.019
Mof_H 	H 	0.0719	0.3699	0.466	0.049
Mof_O 	O 	0.2077	0.2934	0.162	-0.106
Mof_C 	C 	0.1944	0.2518	0.962	-1.122
Mof_H 	H 	0.2406	0.242	0.9346	0.461
Mof_H 	H 	0.1919	0.2879	0.8608	0.389
Mof_H 	H 	0.1422	0.1988	0.9657	0.339
Mof_O 	O 	0.5895	0.5658	0.262	-0.421
Mof_O 	O 	0.369	0.4793	0.002	-0.419
Mof_C 	C 	0.6425	0.5538	0.172	0.402
Mof_C 	C 	0.7246	0.5802	0.273	-0.159
Mof_C 	C 	0.7434	0.6196	0.466	0.019
Mof_H 	H 	0.702	0.6301	0.534	0.049
Mof_O 	O 	0.9143	0.7066	0.838	-0.105
Mof_C 	C 	0.9426	0.7482	0.038	-1.129
Mof_H 	H 	0.9986	0.758	0.0654	0.464
Mof_H 	H 	0.904	0.7121	0.1392	0.392
Mof_H 	H 	0.9434	0.8012	0.0343	0.342
Mof_O 	O 	0.9763	0.4105	0.262	-0.421
Mof_O 	O 	0.1103	0.631	0.002	-0.418
Mof_C 	C 	0.9113	0.3575	0.172	0.401
Mof_C 	C 	0.8556	0.2754	0.273	-0.158
Mof_C 	C 	0.8762	0.2566	0.466	0.018
Mof_H 	H 	0.9281	0.298	0.534	0.049
Mof_O 	O 	0.7923	0.0857	0.838	-0.104
Mof_C 	C 	0.8056	0.0574	0.038	-1.131
Mof_H 	H 	0.7594	0.0014	0.0654	0.465
Mof_H 	H 	0.8081	0.096	0.1392	0.392
Mof_H 	H 	0.8578	0.0566	0.0343	0.342
Mof_O 	O 	0.4342	0.0237	0.262	-0.421
Mof_O 	O 	0.5207	0.8897	0.002	-0.418
Mof_C 	C 	0.4462	0.0887	0.172	0.402
Mof_C 	C 	0.4198	0.1444	0.273	-0.159
Mof_C 	C 	0.3804	0.1238	0.466	0.019
Mof_H 	H 	0.3699	0.0719	0.534	0.049
Mof_O 	O 	0.2934	0.2077	0.838	-0.106
Mof_C 	C 	0.2518	0.1944	0.038	-1.122
Mof_H 	H 	0.242	0.2406	0.0654	0.461
Mof_H 	H 	0.2879	0.1919	0.1392	0.389
Mof_H 	H 	0.1988	0.1422	0.0343	0.339
Mof_Cu	Cu	0.47388	0.52612	0.1552	0.915
Mof_Cu	Cu	0.47388	0.94776	0.1552	0.916
Mof_Cu	Cu	0.05224	0.52612	0.1552	0.916
Mof_Cu	Cu	0.52612	0.47388	0.8448	0.915
Mof_Cu	Cu	0.94776	0.47388	0.8448	0.916
Mof_Cu	Cu	0.52612	0.05224	0.8448	0.916
Mof_C 	C 	0.4341	0.21705	0.18	0.068
Mof_C 	C 	0.3566	0.1783	0.556	-0.075
Mof_H 	H 	0.4561	0.22805	0.0444	0.047
Mof_C 	C 	0.3141	0.15705	0.762	0.175
Mof_C 	C 	0.78295	0.21705	0.18	0.067
Mof_C 	C 	0.8217	0.1783	0.556	-0.074
Mof_H 	H 	0.77195	0.22805	0.0444	0.047
Mof_C 	C 	0.84295	0.15705	0.762	0.173
Mof_C 	C 	0.78295	0.5659	0.18	0.068
Mof_C 	C 	0.8217	0.6434	0.556	-0.075
Mof_H 	H 	0.77195	0.5439	0.0444	0.047
Mof_C 	C 	0.84295	0.6859	0.762	0.175
Mof_C 	C 	0.21705	0.4341	0.82	0.068
Mof_C 	C 	0.1783	0.3566	0.444	-0.075
Mof_H 	H 	0.22805	0.4561	0.9556	0.047
Mof_C 	C 	0.15705	0.3141	0.238	0.175
Mof_C 	C 	0.21705	0.78295	0.82	0.067
Mof_C 	C 	0.1783	0.8217	0.444	-0.074
Mof_H 	H 	0.22805	0.77195	0.9556	0.047
Mof_C 	C 	0.15705	0.84295	0.238	0.173
Mof_C 	C 	0.5659	0.78295	0.82	0.068
Mof_C 	C 	0.6434	0.8217	0.444	-0.075
Mof_H 	H 	0.5439	0.77195	0.9556	0.047
Mof_C 	C 	0.6859	0.84295	0.238	0.175
_end
