data_functionalizedCrystal
_audit_creation_method	'EQeq! by Chris Wilmer'
_symmetry_space_group_name_H-M	'P1'
_symmetry_Int_Tables_number	1
_symmetry_cell_setting	triclinic
loop_
_symmetry_equiv_pos_as_xyz
  x,y,z
_cell_length_a	34.0297
_cell_length_b	34.0297
_cell_length_c	8.3643
_cell_angle_alpha	90
_cell_angle_beta	90
_cell_angle_gamma	120
loop_
_atom_site_label
_atom_site_type_symbol
_atom_site_fract_x
_atom_site_fract_y
_atom_site_fract_z
_atom_site_charge
Mof_Ag	Ag	0.14786	0.32077	0.50677	0.444
Mof_O 	O 	0.33501	0.32789	0.7796	-0.215
Mof_N 	N 	0.2066	0.33997	0.6616	-0.192
Mof_N 	N 	0.27824	0.19639	0.6113	-0.197
Mof_C 	C 	0.22036	0.37545	0.7608	0.053
Mof_H 	H 	0.2039	0.3913	0.7613	-0.016
Mof_C 	C 	0.25715	0.39023	0.8623	-0.12
Mof_H 	H 	0.2654	0.4153	0.9315	0.052
Mof_C 	C 	0.28159	0.36796	0.8612	0.008
Mof_H 	H 	0.3077	0.378	0.9267	0.043
Mof_C 	C 	0.26699	0.33006	0.7611	-0.068
Mof_C 	C 	0.22959	0.31716	0.665	0.043
Mof_H 	H 	0.2196	0.2912	0.5986	-0.001
Mof_C 	C 	0.29437	0.30682	0.7558	0.176
Mof_C 	C 	0.27121	0.25724	0.7239	-0.07
Mof_C 	C 	0.22811	0.22701	0.7808	0.012
Mof_H 	H 	0.2109	0.2374	0.8382	0.015
Mof_C 	C 	0.2108	0.18096	0.7512	-0.113
Mof_H 	H 	0.1815	0.1592	0.7887	0.054
Mof_C 	C 	0.23688	0.16719	0.6666	0.056
Mof_H 	H 	0.2248	0.1357	0.6471	-0.02
Mof_C 	C 	0.29508	0.24043	0.6406	0.052
Mof_H 	H 	0.3247	0.2613	0.6029	0.013
Mof_Ag	Ag	0.81452	0.6541	0.8401	0.442
Mof_O 	O 	0.00168	0.66122	0.11293	-0.216
Mof_N 	N 	0.87327	0.6733	0.99493	-0.193
Mof_N 	N 	0.94491	0.52972	0.94463	-0.198
Mof_C 	C 	0.88703	0.70878	0.09413	0.052
Mof_H 	H 	0.87057	0.72463	0.09463	-0.017
Mof_C 	C 	0.92382	0.72356	0.19563	-0.121
Mof_H 	H 	0.93207	0.74863	0.26483	0.05
Mof_C 	C 	0.94826	0.70129	0.19453	0.008
Mof_H 	H 	0.97437	0.71133	0.26003	0.043
Mof_C 	C 	0.93366	0.66339	0.09443	-0.068
Mof_C 	C 	0.89626	0.65049	0.99833	0.042
Mof_H 	H 	0.88627	0.62453	0.93193	-0.001
Mof_C 	C 	0.96104	0.64015	0.08913	0.175
Mof_C 	C 	0.93788	0.59057	0.05723	-0.069
Mof_C 	C 	0.89478	0.56034	0.11413	0.012
Mof_H 	H 	0.87757	0.57073	0.17153	0.015
Mof_C 	C 	0.87747	0.51429	0.08453	-0.112
Mof_H 	H 	0.84817	0.49253	0.12203	0.054
Mof_C 	C 	0.90355	0.50052	0.99993	0.055
Mof_H 	H 	0.89147	0.46903	0.98043	-0.02
Mof_C 	C 	0.96175	0.57376	0.97393	0.052
Mof_H 	H 	0.99137	0.59463	0.93623	0.013
Mof_Ag	Ag	0.48119	0.98744	0.17344	0.443
Mof_O 	O 	0.66834	0.99456	0.44627	-0.216
Mof_N 	N 	0.53993	0.00664	0.32827	-0.193
Mof_N 	N 	0.61157	0.86306	0.27797	-0.198
Mof_C 	C 	0.55369	0.04212	0.42747	0.052
Mof_H 	H 	0.53723	0.05797	0.42797	-0.017
Mof_C 	C 	0.59048	0.0569	0.52897	-0.121
Mof_H 	H 	0.59873	0.08197	0.59817	0.05
Mof_C 	C 	0.61492	0.03463	0.52787	0.008
Mof_H 	H 	0.64103	0.04467	0.59337	0.043
Mof_C 	C 	0.60032	0.99673	0.42777	-0.068
Mof_C 	C 	0.56292	0.98383	0.33167	0.043
Mof_H 	H 	0.55293	0.95787	0.26527	-0.001
Mof_C 	C 	0.6277	0.97349	0.42247	0.176
Mof_C 	C 	0.60454	0.92391	0.39057	-0.07
Mof_C 	C 	0.56144	0.89368	0.44747	0.012
Mof_H 	H 	0.54423	0.90407	0.50487	0.015
Mof_C 	C 	0.54413	0.84763	0.41787	-0.113
Mof_H 	H 	0.51483	0.82587	0.45537	0.054
Mof_C 	C 	0.57021	0.83386	0.33327	0.056
Mof_H 	H 	0.55813	0.80237	0.31377	-0.02
Mof_C 	C 	0.62841	0.9071	0.30727	0.052
Mof_H 	H 	0.65803	0.92797	0.26957	0.013
Mof_Ag	Ag	0.67923	0.82709	0.50677	0.443
Mof_O 	O 	0.67211	0.00712	0.7796	-0.216
Mof_N 	N 	0.66003	0.86663	0.6616	-0.193
Mof_N 	N 	0.80361	0.08185	0.6113	-0.198
Mof_C 	C 	0.62455	0.84491	0.7608	0.052
Mof_H 	H 	0.6087	0.8126	0.7613	-0.017
Mof_C 	C 	0.60977	0.86692	0.8623	-0.121
Mof_H 	H 	0.5847	0.8501	0.9315	0.051
Mof_C 	C 	0.63204	0.91363	0.8612	0.008
Mof_H 	H 	0.622	0.9297	0.9267	0.043
Mof_C 	C 	0.66994	0.93693	0.7611	-0.068
Mof_C 	C 	0.68284	0.91243	0.665	0.043
Mof_H 	H 	0.7088	0.9284	0.5986	-0.001
Mof_C 	C 	0.69318	0.98755	0.7558	0.176
Mof_C 	C 	0.74276	0.01397	0.7239	-0.07
Mof_C 	C 	0.77299	0.0011	0.7808	0.012
Mof_H 	H 	0.7626	0.9735	0.8382	0.015
Mof_C 	C 	0.81904	0.02984	0.7512	-0.113
Mof_H 	H 	0.8408	0.0223	0.7887	0.054
Mof_C 	C 	0.83281	0.06969	0.6666	0.056
Mof_H 	H 	0.8643	0.0891	0.6471	-0.02
Mof_C 	C 	0.75957	0.05465	0.6406	0.052
Mof_H 	H 	0.7387	0.0634	0.6029	0.013
Mof_Ag	Ag	0.3459	0.16042	0.8401	0.442
Mof_O 	O 	0.33878	0.34045	0.11293	-0.216
Mof_N 	N 	0.3267	0.19996	0.99493	-0.193
Mof_N 	N 	0.47028	0.41518	0.94463	-0.198
Mof_C 	C 	0.29122	0.17824	0.09413	0.052
Mof_H 	H 	0.27537	0.14593	0.09463	-0.017
Mof_C 	C 	0.27644	0.20025	0.19563	-0.121
Mof_H 	H 	0.25137	0.18343	0.26483	0.05
Mof_C 	C 	0.29871	0.24696	0.19453	0.008
Mof_H 	H 	0.28867	0.26303	0.26003	0.043
Mof_C 	C 	0.33661	0.27026	0.09443	-0.068
Mof_C 	C 	0.34951	0.24576	0.99833	0.042
Mof_H 	H 	0.37547	0.26173	0.93193	-0.001
Mof_C 	C 	0.35985	0.32088	0.08913	0.175
Mof_C 	C 	0.40943	0.3473	0.05723	-0.069
Mof_C 	C 	0.43966	0.33443	0.11413	0.012
Mof_H 	H 	0.42927	0.30683	0.17153	0.015
Mof_C 	C 	0.48571	0.36317	0.08453	-0.112
Mof_H 	H 	0.50747	0.35563	0.12203	0.054
Mof_C 	C 	0.49948	0.40302	0.99993	0.055
Mof_H 	H 	0.53097	0.42243	0.98043	-0.02
Mof_C 	C 	0.42624	0.38798	0.97393	0.052
Mof_H 	H 	0.40537	0.39673	0.93623	0.013
Mof_Ag	Ag	0.01256	0.49375	0.17344	0.443
Mof_O 	O 	0.00544	0.67379	0.44627	-0.216
Mof_N 	N 	0.99336	0.5333	0.32827	-0.193
Mof_N 	N 	0.13694	0.74852	0.27797	-0.198
Mof_C 	C 	0.95788	0.51158	0.42747	0.052
Mof_H 	H 	0.94203	0.47927	0.42797	-0.017
Mof_C 	C 	0.9431	0.53359	0.52897	-0.121
Mof_H 	H 	0.91803	0.51677	0.59817	0.05
Mof_C 	C 	0.96537	0.5803	0.52787	0.008
Mof_H 	H 	0.95533	0.59637	0.59337	0.043
Mof_C 	C 	0.00327	0.6036	0.42777	-0.068
Mof_C 	C 	0.01617	0.5791	0.33167	0.043
Mof_H 	H 	0.04213	0.59507	0.26527	-0.001
Mof_C 	C 	0.02651	0.65422	0.42247	0.176
Mof_C 	C 	0.07609	0.68064	0.39057	-0.07
Mof_C 	C 	0.10632	0.66777	0.44747	0.012
Mof_H 	H 	0.09593	0.64017	0.50487	0.015
Mof_C 	C 	0.15237	0.69651	0.41787	-0.113
Mof_H 	H 	0.17413	0.68897	0.45537	0.054
Mof_C 	C 	0.16614	0.73636	0.33327	0.056
Mof_H 	H 	0.19763	0.75577	0.31377	-0.02
Mof_C 	C 	0.0929	0.72132	0.30727	0.052
Mof_H 	H 	0.07203	0.73007	0.26957	0.013
Mof_Ag	Ag	0.17291	0.85214	0.50677	0.443
Mof_O 	O 	0.99288	0.66499	0.7796	-0.216
Mof_N 	N 	0.13337	0.7934	0.6616	-0.193
Mof_N 	N 	0.91815	0.72176	0.6113	-0.198
Mof_C 	C 	0.15509	0.77964	0.7608	0.052
Mof_H 	H 	0.1874	0.7961	0.7613	-0.017
Mof_C 	C 	0.13308	0.74285	0.8623	-0.121
Mof_H 	H 	0.1499	0.7346	0.9315	0.051
Mof_C 	C 	0.08637	0.71841	0.8612	0.008
Mof_H 	H 	0.0703	0.6923	0.9267	0.043
Mof_C 	C 	0.06307	0.73301	0.7611	-0.068
Mof_C 	C 	0.08757	0.77041	0.665	0.043
Mof_H 	H 	0.0716	0.7804	0.5986	-0.001
Mof_C 	C 	0.01245	0.70563	0.7558	0.175
Mof_C 	C 	0.98603	0.72879	0.7239	-0.07
Mof_C 	C 	0.9989	0.77189	0.7808	0.012
Mof_H 	H 	0.0265	0.7891	0.8382	0.015
Mof_C 	C 	0.97016	0.7892	0.7512	-0.113
Mof_H 	H 	0.9777	0.8185	0.7887	0.054
Mof_C 	C 	0.93031	0.76312	0.6666	0.056
Mof_H 	H 	0.9109	0.7752	0.6471	-0.02
Mof_C 	C 	0.94535	0.70492	0.6406	0.052
Mof_H 	H 	0.9366	0.6753	0.6029	0.013
Mof_Ag	Ag	0.83958	0.18548	0.8401	0.442
Mof_O 	O 	0.65955	0.99832	0.11293	-0.216
Mof_N 	N 	0.80004	0.12673	0.99493	-0.193
Mof_N 	N 	0.58482	0.05509	0.94463	-0.198
Mof_C 	C 	0.82176	0.11297	0.09413	0.052
Mof_H 	H 	0.85407	0.12943	0.09463	-0.017
Mof_C 	C 	0.79975	0.07618	0.19563	-0.121
Mof_H 	H 	0.81657	0.06793	0.26483	0.05
Mof_C 	C 	0.75304	0.05174	0.19453	0.008
Mof_H 	H 	0.73697	0.02563	0.26003	0.043
Mof_C 	C 	0.72974	0.06634	0.09443	-0.068
Mof_C 	C 	0.75424	0.10374	0.99833	0.042
Mof_H 	H 	0.73827	0.11373	0.93193	-0.001
Mof_C 	C 	0.67912	0.03896	0.08913	0.175
Mof_C 	C 	0.6527	0.06212	0.05723	-0.069
Mof_C 	C 	0.66557	0.10522	0.11413	0.012
Mof_H 	H 	0.69317	0.12243	0.17153	0.015
Mof_C 	C 	0.63683	0.12253	0.08453	-0.112
Mof_H 	H 	0.64437	0.15183	0.12203	0.054
Mof_C 	C 	0.59698	0.09645	0.99993	0.055
Mof_H 	H 	0.57757	0.10853	0.98043	-0.02
Mof_C 	C 	0.61202	0.03825	0.97393	0.052
Mof_H 	H 	0.60327	0.00863	0.93623	0.013
Mof_Ag	Ag	0.50625	0.51881	0.17344	0.443
Mof_O 	O 	0.32621	0.33166	0.44627	-0.216
Mof_N 	N 	0.4667	0.46007	0.32827	-0.193
Mof_N 	N 	0.25148	0.38843	0.27797	-0.198
Mof_C 	C 	0.48842	0.44631	0.42747	0.052
Mof_H 	H 	0.52073	0.46277	0.42797	-0.017
Mof_C 	C 	0.46641	0.40952	0.52897	-0.121
Mof_H 	H 	0.48323	0.40127	0.59817	0.05
Mof_C 	C 	0.4197	0.38508	0.52787	0.008
Mof_H 	H 	0.40363	0.35897	0.59337	0.043
Mof_C 	C 	0.3964	0.39968	0.42777	-0.068
Mof_C 	C 	0.4209	0.43708	0.33167	0.043
Mof_H 	H 	0.40493	0.44707	0.26527	-0.001
Mof_C 	C 	0.34578	0.3723	0.42247	0.176
Mof_C 	C 	0.31936	0.39546	0.39057	-0.07
Mof_C 	C 	0.33223	0.43856	0.44747	0.012
Mof_H 	H 	0.35983	0.45577	0.50487	0.015
Mof_C 	C 	0.30349	0.45587	0.41787	-0.113
Mof_H 	H 	0.31103	0.48517	0.45537	0.054
Mof_C 	C 	0.26364	0.42979	0.33327	0.056
Mof_H 	H 	0.24423	0.44187	0.31377	-0.02
Mof_C 	C 	0.27868	0.37159	0.30727	0.052
Mof_H 	H 	0.26993	0.34197	0.26957	0.013
Mof_Ag	Ag	0.85214	0.67923	0.49323	0.443
Mof_O 	O 	0.66499	0.67211	0.2204	-0.216
Mof_N 	N 	0.7934	0.66003	0.3384	-0.193
Mof_N 	N 	0.72176	0.80361	0.3887	-0.198
Mof_C 	C 	0.77964	0.62455	0.2392	0.052
Mof_H 	H 	0.7961	0.6087	0.2387	-0.017
Mof_C 	C 	0.74285	0.60977	0.1377	-0.121
Mof_H 	H 	0.7346	0.5847	0.0685	0.051
Mof_C 	C 	0.71841	0.63204	0.1388	0.008
Mof_H 	H 	0.6923	0.622	0.0733	0.043
Mof_C 	C 	0.73301	0.66994	0.2389	-0.068
Mof_C 	C 	0.77041	0.68284	0.335	0.043
Mof_H 	H 	0.7804	0.7088	0.4014	-0.001
Mof_C 	C 	0.70563	0.69318	0.2442	0.176
Mof_C 	C 	0.72879	0.74276	0.2761	-0.07
Mof_C 	C 	0.77189	0.77299	0.2192	0.012
Mof_H 	H 	0.7891	0.7626	0.1618	0.015
Mof_C 	C 	0.7892	0.81904	0.2488	-0.113
Mof_H 	H 	0.8185	0.8408	0.2113	0.054
Mof_C 	C 	0.76312	0.83281	0.3334	0.056
Mof_H 	H 	0.7752	0.8643	0.3529	-0.02
Mof_C 	C 	0.70492	0.75957	0.3594	0.052
Mof_H 	H 	0.6753	0.7387	0.3971	0.013
Mof_Ag	Ag	0.51881	0.01256	0.82656	0.443
Mof_O 	O 	0.33166	0.00544	0.55373	-0.216
Mof_N 	N 	0.46007	0.99336	0.67173	-0.193
Mof_N 	N 	0.38843	0.13694	0.72203	-0.198
Mof_C 	C 	0.44631	0.95788	0.57253	0.052
Mof_H 	H 	0.46277	0.94203	0.57203	-0.017
Mof_C 	C 	0.40952	0.9431	0.47103	-0.121
Mof_H 	H 	0.40127	0.91803	0.40183	0.05
Mof_C 	C 	0.38508	0.96537	0.47213	0.008
Mof_H 	H 	0.35897	0.95533	0.40663	0.043
Mof_C 	C 	0.39968	0.00327	0.57223	-0.068
Mof_C 	C 	0.43708	0.01617	0.66833	0.043
Mof_H 	H 	0.44707	0.04213	0.73473	-0.001
Mof_C 	C 	0.3723	0.02651	0.57753	0.176
Mof_C 	C 	0.39546	0.07609	0.60943	-0.07
Mof_C 	C 	0.43856	0.10632	0.55253	0.012
Mof_H 	H 	0.45577	0.09593	0.49513	0.015
Mof_C 	C 	0.45587	0.15237	0.58213	-0.113
Mof_H 	H 	0.48517	0.17413	0.54463	0.054
Mof_C 	C 	0.42979	0.16614	0.66673	0.056
Mof_H 	H 	0.44187	0.19763	0.68623	-0.02
Mof_C 	C 	0.37159	0.0929	0.69273	0.052
Mof_H 	H 	0.34197	0.07203	0.73043	0.013
Mof_Ag	Ag	0.18548	0.3459	0.1599	0.442
Mof_O 	O 	0.99832	0.33878	0.88707	-0.216
Mof_N 	N 	0.12673	0.3267	0.00507	-0.193
Mof_N 	N 	0.05509	0.47028	0.05537	-0.198
Mof_C 	C 	0.11297	0.29122	0.90587	0.052
Mof_H 	H 	0.12943	0.27537	0.90537	-0.017
Mof_C 	C 	0.07618	0.27644	0.80437	-0.121
Mof_H 	H 	0.06793	0.25137	0.73517	0.05
Mof_C 	C 	0.05174	0.29871	0.80547	0.008
Mof_H 	H 	0.02563	0.28867	0.73997	0.043
Mof_C 	C 	0.06634	0.33661	0.90557	-0.068
Mof_C 	C 	0.10374	0.34951	0.00167	0.042
Mof_H 	H 	0.11373	0.37547	0.06807	-0.001
Mof_C 	C 	0.03896	0.35985	0.91087	0.175
Mof_C 	C 	0.06212	0.40943	0.94277	-0.069
Mof_C 	C 	0.10522	0.43966	0.88587	0.012
Mof_H 	H 	0.12243	0.42927	0.82847	0.015
Mof_C 	C 	0.12253	0.48571	0.91547	-0.112
Mof_H 	H 	0.15183	0.50747	0.87797	0.054
Mof_C 	C 	0.09645	0.49948	7e-05	0.055
Mof_H 	H 	0.10853	0.53097	0.01957	-0.02
Mof_C 	C 	0.03825	0.42624	0.02607	0.052
Mof_H 	H 	0.00863	0.40537	0.06377	0.013
Mof_Ag	Ag	0.32077	0.17291	0.49323	0.443
Mof_O 	O 	0.32789	0.99288	0.2204	-0.216
Mof_N 	N 	0.33997	0.13337	0.3384	-0.193
Mof_N 	N 	0.19639	0.91815	0.3887	-0.198
Mof_C 	C 	0.37545	0.15509	0.2392	0.052
Mof_H 	H 	0.3913	0.1874	0.2387	-0.017
Mof_C 	C 	0.39023	0.13308	0.1377	-0.121
Mof_H 	H 	0.4153	0.1499	0.0685	0.051
Mof_C 	C 	0.36796	0.08637	0.1388	0.008
Mof_H 	H 	0.378	0.0703	0.0733	0.043
Mof_C 	C 	0.33006	0.06307	0.2389	-0.068
Mof_C 	C 	0.31716	0.08757	0.335	0.043
Mof_H 	H 	0.2912	0.0716	0.4014	-0.001
Mof_C 	C 	0.30682	0.01245	0.2442	0.176
Mof_C 	C 	0.25724	0.98603	0.2761	-0.07
Mof_C 	C 	0.22701	0.9989	0.2192	0.012
Mof_H 	H 	0.2374	0.0265	0.1618	0.015
Mof_C 	C 	0.18096	0.97016	0.2488	-0.113
Mof_H 	H 	0.1592	0.9777	0.2113	0.054
Mof_C 	C 	0.16719	0.93031	0.3334	0.056
Mof_H 	H 	0.1357	0.9109	0.3529	-0.02
Mof_C 	C 	0.24043	0.94535	0.3594	0.052
Mof_H 	H 	0.2613	0.9366	0.3971	0.013
Mof_Ag	Ag	0.98744	0.50625	0.82656	0.443
Mof_O 	O 	0.99456	0.32621	0.55373	-0.216
Mof_N 	N 	0.00664	0.4667	0.67173	-0.193
Mof_N 	N 	0.86306	0.25148	0.72203	-0.198
Mof_C 	C 	0.04212	0.48842	0.57253	0.052
Mof_H 	H 	0.05797	0.52073	0.57203	-0.017
Mof_C 	C 	0.0569	0.46641	0.47103	-0.121
Mof_H 	H 	0.08197	0.48323	0.40183	0.05
Mof_C 	C 	0.03463	0.4197	0.47213	0.008
Mof_H 	H 	0.04467	0.40363	0.40663	0.043
Mof_C 	C 	0.99673	0.3964	0.57223	-0.068
Mof_C 	C 	0.98383	0.4209	0.66833	0.043
Mof_H 	H 	0.95787	0.40493	0.73473	-0.001
Mof_C 	C 	0.97349	0.34578	0.57753	0.176
Mof_C 	C 	0.92391	0.31936	0.60943	-0.07
Mof_C 	C 	0.89368	0.33223	0.55253	0.012
Mof_H 	H 	0.90407	0.35983	0.49513	0.015
Mof_C 	C 	0.84763	0.30349	0.58213	-0.113
Mof_H 	H 	0.82587	0.31103	0.54463	0.054
Mof_C 	C 	0.83386	0.26364	0.66673	0.056
Mof_H 	H 	0.80237	0.24423	0.68623	-0.02
Mof_C 	C 	0.9071	0.27868	0.69273	0.052
Mof_H 	H 	0.92797	0.26993	0.73043	0.013
Mof_Ag	Ag	0.6541	0.83958	0.1599	0.442
Mof_O 	O 	0.66122	0.65955	0.88707	-0.216
Mof_N 	N 	0.6733	0.80004	0.00507	-0.193
Mof_N 	N 	0.52972	0.58482	0.05537	-0.198
Mof_C 	C 	0.70878	0.82176	0.90587	0.052
Mof_H 	H 	0.72463	0.85407	0.90537	-0.017
Mof_C 	C 	0.72356	0.79975	0.80437	-0.121
Mof_H 	H 	0.74863	0.81657	0.73517	0.05
Mof_C 	C 	0.70129	0.75304	0.80547	0.008
Mof_H 	H 	0.71133	0.73697	0.73997	0.043
Mof_C 	C 	0.66339	0.72974	0.90557	-0.068
Mof_C 	C 	0.65049	0.75424	0.00167	0.042
Mof_H 	H 	0.62453	0.73827	0.06807	-0.001
Mof_C 	C 	0.64015	0.67912	0.91087	0.175
Mof_C 	C 	0.59057	0.6527	0.94277	-0.069
Mof_C 	C 	0.56034	0.66557	0.88587	0.012
Mof_H 	H 	0.57073	0.69317	0.82847	0.015
Mof_C 	C 	0.51429	0.63683	0.91547	-0.112
Mof_H 	H 	0.49253	0.64437	0.87797	0.054
Mof_C 	C 	0.50052	0.59698	7e-05	0.055
Mof_H 	H 	0.46903	0.57757	0.01957	-0.02
Mof_C 	C 	0.57376	0.61202	0.02607	0.052
Mof_H 	H 	0.59463	0.60327	0.06377	0.013
Mof_Ag	Ag	0.82709	0.14786	0.49323	0.443
Mof_O 	O 	0.00712	0.33501	0.2204	-0.216
Mof_N 	N 	0.86663	0.2066	0.3384	-0.193
Mof_N 	N 	0.08185	0.27824	0.3887	-0.198
Mof_C 	C 	0.84491	0.22036	0.2392	0.052
Mof_H 	H 	0.8126	0.2039	0.2387	-0.017
Mof_C 	C 	0.86692	0.25715	0.1377	-0.121
Mof_H 	H 	0.8501	0.2654	0.0685	0.051
Mof_C 	C 	0.91363	0.28159	0.1388	0.008
Mof_H 	H 	0.9297	0.3077	0.0733	0.043
Mof_C 	C 	0.93693	0.26699	0.2389	-0.068
Mof_C 	C 	0.91243	0.22959	0.335	0.043
Mof_H 	H 	0.9284	0.2196	0.4014	-0.001
Mof_C 	C 	0.98755	0.29437	0.2442	0.175
Mof_C 	C 	0.01397	0.27121	0.2761	-0.07
Mof_C 	C 	0.0011	0.22811	0.2192	0.012
Mof_H 	H 	0.9735	0.2109	0.1618	0.015
Mof_C 	C 	0.02984	0.2108	0.2488	-0.113
Mof_H 	H 	0.0223	0.1815	0.2113	0.054
Mof_C 	C 	0.06969	0.23688	0.3334	0.056
Mof_H 	H 	0.0891	0.2248	0.3529	-0.02
Mof_C 	C 	0.05465	0.29508	0.3594	0.052
Mof_H 	H 	0.0634	0.3247	0.3971	0.013
Mof_Ag	Ag	0.49375	0.48119	0.82656	0.443
Mof_O 	O 	0.67379	0.66834	0.55373	-0.216
Mof_N 	N 	0.5333	0.53993	0.67173	-0.193
Mof_N 	N 	0.74852	0.61157	0.72203	-0.198
Mof_C 	C 	0.51158	0.55369	0.57253	0.052
Mof_H 	H 	0.47927	0.53723	0.57203	-0.017
Mof_C 	C 	0.53359	0.59048	0.47103	-0.121
Mof_H 	H 	0.51677	0.59873	0.40183	0.05
Mof_C 	C 	0.5803	0.61492	0.47213	0.008
Mof_H 	H 	0.59637	0.64103	0.40663	0.043
Mof_C 	C 	0.6036	0.60032	0.57223	-0.068
Mof_C 	C 	0.5791	0.56292	0.66833	0.043
Mof_H 	H 	0.59507	0.55293	0.73473	-0.001
Mof_C 	C 	0.65422	0.6277	0.57753	0.176
Mof_C 	C 	0.68064	0.60454	0.60943	-0.07
Mof_C 	C 	0.66777	0.56144	0.55253	0.012
Mof_H 	H 	0.64017	0.54423	0.49513	0.015
Mof_C 	C 	0.69651	0.54413	0.58213	-0.113
Mof_H 	H 	0.68897	0.51483	0.54463	0.054
Mof_C 	C 	0.73636	0.57021	0.66673	0.056
Mof_H 	H 	0.75577	0.55813	0.68623	-0.02
Mof_C 	C 	0.72132	0.62841	0.69273	0.052
Mof_H 	H 	0.73007	0.65803	0.73043	0.013
Mof_Ag	Ag	0.16042	0.81452	0.1599	0.442
Mof_O 	O 	0.34045	0.00168	0.88707	-0.216
Mof_N 	N 	0.19996	0.87327	0.00507	-0.193
Mof_N 	N 	0.41518	0.94491	0.05537	-0.198
Mof_C 	C 	0.17824	0.88703	0.90587	0.052
Mof_H 	H 	0.14593	0.87057	0.90537	-0.017
Mof_C 	C 	0.20025	0.92382	0.80437	-0.121
Mof_H 	H 	0.18343	0.93207	0.73517	0.05
Mof_C 	C 	0.24696	0.94826	0.80547	0.008
Mof_H 	H 	0.26303	0.97437	0.73997	0.043
Mof_C 	C 	0.27026	0.93366	0.90557	-0.068
Mof_C 	C 	0.24576	0.89626	0.00167	0.042
Mof_H 	H 	0.26173	0.88627	0.06807	-0.001
Mof_C 	C 	0.32088	0.96104	0.91087	0.175
Mof_C 	C 	0.3473	0.93788	0.94277	-0.069
Mof_C 	C 	0.33443	0.89478	0.88587	0.012
Mof_H 	H 	0.30683	0.87757	0.82847	0.015
Mof_C 	C 	0.36317	0.87747	0.91547	-0.112
Mof_H 	H 	0.35563	0.84817	0.87797	0.054
Mof_C 	C 	0.40302	0.90355	7e-05	0.055
Mof_H 	H 	0.42243	0.89147	0.01957	-0.02
Mof_C 	C 	0.38798	0.96175	0.02607	0.052
Mof_H 	H 	0.39673	0.99137	0.06377	0.013
_end
