# CIF file generated by openbabel 3.1.0, see https://openbabel.org
data_I
_chemical_name_common 'image0'
_cell_length_a 32.9116
_cell_length_b 34.7726
_cell_length_c 11.5106
_cell_angle_alpha 90
_cell_angle_beta 109.958
_cell_angle_gamma 90
_space_group_name_H-M_alt 'P 1'
_space_group_name_Hall 'P 1'
loop_
    _symmetry_equiv_pos_as_xyz
    x,y,z
loop_
    _atom_site_label
    _atom_site_type_symbol
    _atom_site_fract_x
    _atom_site_fract_y
    _atom_site_fract_z
    _atom_site_occupancy
    Zn1      Zn       0.96396    0.73842    0.70641    1.000
    O1       O        0.73952    0.54135    0.66902    1.000
    O2       O        0.77674    0.54223    0.86859    1.000
    O3       O        0.17596    0.54184    0.64657    1.000
    O4       O        0.76558    0.95856    0.64115    1.000
    O5       O        0.19310    0.93139    0.83912    1.000
    O6       O        0.76361    0.93166    0.81197    1.000
    O7       O        0.18782    0.54113    0.84682    1.000
    O8       O        0.14907    0.95835    0.67022    1.000
    N1       N        0.96040    0.79698    0.67160    1.000
    N2       N        0.89796    0.73834    0.67080    1.000
    N3       N        0.02178    0.73753    0.67390    1.000
    N4       N        0.96146    0.67933    0.69110    1.000
    C1       C        0.77034    0.55412    0.75950    1.000
    C2       C        0.80002    0.58370    0.73780    1.000
    C3       C        0.16718    0.55336    0.73860    1.000
    C4       C        0.77512    0.93115    0.71810    1.000
    C5       C        0.15939    0.93055    0.74560    1.000
    C6       C        0.13205    0.58232    0.72230    1.000
    C7       C        0.80116    0.89817    0.69890    1.000
    C8       C        0.99559    0.82007    0.68540    1.000
    C9       C        0.12941    0.89681    0.72430    1.000
    C10      C        0.88704    0.66873    0.68720    1.000
    C11      C        0.92778    0.82058    0.67650    1.000
    C12      C        0.03443    0.66767    0.68490    1.000
    C13      C        0.87250    0.70687    0.66620    1.000
    C14      C        0.04495    0.70564    0.66560    1.000
    C15      C        0.88601    0.80852    0.66610    1.000
    C16      C        0.06821    0.63761    0.69650    1.000
    C17      C        0.85611    0.63920    0.70220    1.000
    C18      C        0.79699    0.59455    0.62070    1.000
    H1       H        0.77570    0.58330    0.55120    1.000
    C19      C        0.92889    0.65624    0.70080    1.000
    C20      C        0.99564    0.65569    0.69880    1.000
    C21      C        0.09204    0.89631    0.62320    1.000
    H2       H        0.08650    0.91630    0.56370    1.000
    C22      C        0.03549    0.80737    0.68040    1.000
    C23      C        0.06937    0.83712    0.69290    1.000
    C24      C        0.81281    0.86861    0.78440    1.000
    H3       H        0.80280    0.86860    0.85250    1.000
    C25      C        0.87202    0.76996    0.65710    1.000
    C26      C        0.94333    0.61679    0.71670    1.000
    H4       H        0.92700    0.59520    0.72580    1.000
    C27      C        0.81516    0.89751    0.59760    1.000
    H5       H        0.80650    0.91730    0.53710    1.000
    C28      C        0.82511    0.62209    0.60380    1.000
    H6       H        0.82280    0.62930    0.52210    1.000
    C29      C        0.04590    0.76879    0.66620    1.000
    C30      C        0.08406    0.71752    0.64330    1.000
    H7       H        0.10520    0.70110    0.63040    1.000
    C31      C        0.85473    0.83875    0.67250    1.000
    C32      C        0.83918    0.83897    0.77090    1.000
    H8       H        0.84670    0.81860    0.82950    1.000
    C33      C        0.94331    0.85996    0.69640    1.000
    H9       H        0.92720    0.88190    0.70340    1.000
    C34      C        0.98442    0.61634    0.71630    1.000
    H10      H        0.00250    0.59440    0.72570    1.000
    C35      C        0.08445    0.75624    0.64440    1.000
    H11      H        0.10610    0.77230    0.63300    1.000
    C36      C        0.13800    0.86643    0.80770    1.000
    H12      H        0.16430    0.86600    0.87610    1.000
    C37      C        0.98486    0.85938    0.70300    1.000
    H13      H        0.00370    0.88090    0.71670    1.000
    C38      C        0.82813    0.75779    0.63810    1.000
    H14      H        0.80370    0.77400    0.62400    1.000
    C39      C        0.84174    0.86800    0.58490    1.000
    H15      H        0.85120    0.86780    0.51560    1.000
    C40      C        0.06237    0.86673    0.60770    1.000
    H16      H        0.03670    0.86680    0.53730    1.000
    C41      C        0.11113    0.59876    0.61060    1.000
    H17      H        0.11800    0.59110    0.54030    1.000
    C42      C        0.82999    0.60153    0.83670    1.000
    H18      H        0.83170    0.59500    0.91830    1.000
    C43      C        0.10841    0.83672    0.79150    1.000
    H19      H        0.11480    0.81590    0.84830    1.000
    C44      C        0.85778    0.62898    0.81880    1.000
    H20      H        0.87830    0.64090    0.88850    1.000
    C45      C        0.82850    0.71903    0.64440    1.000
    H21      H        0.80440    0.70280    0.63610    1.000
    O9       O        0.99627    0.74210    0.89700    1.000
    C46      C        0.07959    0.62670    0.59840    1.000
    H22      H        0.06580    0.63840    0.52020    1.000
    C47      C        0.11984    0.59192    0.82180    1.000
    H23      H        0.13280    0.57950    0.89920    1.000
    C48      C        0.08840    0.61997    0.80820    1.000
    H24      H        0.08070    0.62710    0.87770    1.000
    Na1      Na       0.74817    0.92220    0.98761    1.000
    O10      O        0.97740    0.74170    0.89780    1.000
    Zn2      Zn       0.46396    0.23842    0.70641    1.000
    O11      O        0.23952    0.04135    0.66902    1.000
    O12      O        0.27674    0.04223    0.86859    1.000
    O13      O        0.67596    0.04184    0.64657    1.000
    O14      O        0.26558    0.45856    0.64115    1.000
    O15      O        0.69310    0.43139    0.83912    1.000
    O16      O        0.26361    0.43166    0.81197    1.000
    O17      O        0.68782    0.04113    0.84682    1.000
    O18      O        0.64907    0.45835    0.67022    1.000
    N5       N        0.46040    0.29698    0.67160    1.000
    N6       N        0.39796    0.23834    0.67080    1.000
    N7       N        0.52178    0.23753    0.67390    1.000
    N8       N        0.46146    0.17933    0.69110    1.000
    C49      C        0.27034    0.05412    0.75950    1.000
    C50      C        0.30002    0.08370    0.73780    1.000
    C51      C        0.66718    0.05336    0.73860    1.000
    C52      C        0.27512    0.43115    0.71810    1.000
    C53      C        0.65939    0.43055    0.74560    1.000
    C54      C        0.63205    0.08232    0.72230    1.000
    C55      C        0.30116    0.39817    0.69890    1.000
    C56      C        0.49559    0.32007    0.68540    1.000
    C57      C        0.62941    0.39681    0.72430    1.000
    C58      C        0.38704    0.16873    0.68720    1.000
    C59      C        0.42778    0.32058    0.67650    1.000
    C60      C        0.53443    0.16767    0.68490    1.000
    C61      C        0.37250    0.20687    0.66620    1.000
    C62      C        0.54495    0.20564    0.66560    1.000
    C63      C        0.38601    0.30852    0.66610    1.000
    C64      C        0.56821    0.13761    0.69650    1.000
    C65      C        0.35611    0.13920    0.70220    1.000
    C66      C        0.29699    0.09455    0.62070    1.000
    H25      H        0.27570    0.08330    0.55120    1.000
    C67      C        0.42889    0.15624    0.70080    1.000
    C68      C        0.49564    0.15569    0.69880    1.000
    C69      C        0.59204    0.39631    0.62320    1.000
    H26      H        0.58650    0.41630    0.56370    1.000
    C70      C        0.53549    0.30737    0.68040    1.000
    C71      C        0.56937    0.33712    0.69290    1.000
    C72      C        0.31281    0.36861    0.78440    1.000
    H27      H        0.30280    0.36860    0.85250    1.000
    C73      C        0.37202    0.26996    0.65710    1.000
    C74      C        0.44333    0.11679    0.71670    1.000
    H28      H        0.42700    0.09520    0.72580    1.000
    C75      C        0.31516    0.39751    0.59760    1.000
    H29      H        0.30650    0.41730    0.53710    1.000
    C76      C        0.32511    0.12209    0.60380    1.000
    H30      H        0.32280    0.12930    0.52210    1.000
    C77      C        0.54590    0.26879    0.66620    1.000
    C78      C        0.58406    0.21752    0.64330    1.000
    H31      H        0.60520    0.20110    0.63040    1.000
    C79      C        0.35473    0.33875    0.67250    1.000
    C80      C        0.33918    0.33897    0.77090    1.000
    H32      H        0.34670    0.31860    0.82950    1.000
    C81      C        0.44331    0.35996    0.69640    1.000
    H33      H        0.42720    0.38190    0.70340    1.000
    C82      C        0.48442    0.11634    0.71630    1.000
    H34      H        0.50250    0.09440    0.72570    1.000
    C83      C        0.58445    0.25624    0.64440    1.000
    H35      H        0.60610    0.27230    0.63300    1.000
    C84      C        0.63800    0.36643    0.80770    1.000
    H36      H        0.66430    0.36600    0.87610    1.000
    C85      C        0.48486    0.35938    0.70300    1.000
    H37      H        0.50370    0.38090    0.71670    1.000
    C86      C        0.32813    0.25779    0.63810    1.000
    H38      H        0.30370    0.27400    0.62400    1.000
    C87      C        0.34174    0.36800    0.58490    1.000
    H39      H        0.35120    0.36780    0.51560    1.000
    C88      C        0.56237    0.36673    0.60770    1.000
    H40      H        0.53670    0.36680    0.53730    1.000
    C89      C        0.61113    0.09876    0.61060    1.000
    H41      H        0.61800    0.09110    0.54030    1.000
    C90      C        0.32999    0.10153    0.83670    1.000
    H42      H        0.33170    0.09500    0.91830    1.000
    C91      C        0.60841    0.33672    0.79150    1.000
    H43      H        0.61480    0.31590    0.84830    1.000
    C92      C        0.35778    0.12898    0.81880    1.000
    H44      H        0.37830    0.14090    0.88850    1.000
    C93      C        0.32850    0.21903    0.64440    1.000
    H45      H        0.30440    0.20280    0.63610    1.000
    O19      O        0.49627    0.24210    0.89700    1.000
    C94      C        0.57959    0.12670    0.59840    1.000
    H46      H        0.56580    0.13840    0.52020    1.000
    C95      C        0.61984    0.09192    0.82180    1.000
    H47      H        0.63280    0.07950    0.89920    1.000
    C96      C        0.58840    0.11997    0.80820    1.000
    H48      H        0.58070    0.12710    0.87770    1.000
    Na2      Na       0.24817    0.42220    0.98761    1.000
    O20      O        0.47740    0.24170    0.89780    1.000
    Zn3      Zn       0.03604    0.73842    0.29359    1.000
    O21      O        0.26048    0.54135    0.33098    1.000
    O22      O        0.22326    0.54223    0.13141    1.000
    O23      O        0.82404    0.54184    0.35343    1.000
    O24      O        0.23442    0.95856    0.35885    1.000
    O25      O        0.80690    0.93139    0.16088    1.000
    O26      O        0.23639    0.93166    0.18803    1.000
    O27      O        0.81218    0.54113    0.15318    1.000
    O28      O        0.85093    0.95835    0.32978    1.000
    N9       N        0.03960    0.79698    0.32840    1.000
    N10      N        0.10204    0.73834    0.32920    1.000
    N11      N        0.97822    0.73753    0.32610    1.000
    N12      N        0.03854    0.67933    0.30890    1.000
    C97      C        0.22966    0.55412    0.24050    1.000
    C98      C        0.19998    0.58370    0.26220    1.000
    C99      C        0.83282    0.55336    0.26140    1.000
    C100     C        0.22488    0.93115    0.28190    1.000
    C101     C        0.84061    0.93055    0.25440    1.000
    C102     C        0.86795    0.58232    0.27770    1.000
    C103     C        0.19884    0.89817    0.30110    1.000
    C104     C        0.00441    0.82007    0.31460    1.000
    C105     C        0.87059    0.89681    0.27570    1.000
    C106     C        0.11296    0.66873    0.31280    1.000
    C107     C        0.07222    0.82058    0.32350    1.000
    C108     C        0.96557    0.66767    0.31510    1.000
    C109     C        0.12750    0.70687    0.33380    1.000
    C110     C        0.95505    0.70564    0.33440    1.000
    C111     C        0.11399    0.80852    0.33390    1.000
    C112     C        0.93179    0.63761    0.30350    1.000
    C113     C        0.14389    0.63920    0.29780    1.000
    C114     C        0.20301    0.59455    0.37930    1.000
    H49      H        0.22430    0.58330    0.44880    1.000
    C115     C        0.07111    0.65624    0.29920    1.000
    C116     C        0.00436    0.65569    0.30120    1.000
    C117     C        0.90796    0.89631    0.37680    1.000
    H50      H        0.91350    0.91630    0.43630    1.000
    C118     C        0.96451    0.80737    0.31960    1.000
    C119     C        0.93063    0.83712    0.30710    1.000
    C120     C        0.18719    0.86861    0.21560    1.000
    H51      H        0.19720    0.86860    0.14750    1.000
    C121     C        0.12798    0.76996    0.34290    1.000
    C122     C        0.05667    0.61679    0.28330    1.000
    H52      H        0.07300    0.59520    0.27420    1.000
    C123     C        0.18484    0.89751    0.40240    1.000
    H53      H        0.19350    0.91730    0.46290    1.000
    C124     C        0.17489    0.62209    0.39620    1.000
    H54      H        0.17720    0.62930    0.47790    1.000
    C125     C        0.95410    0.76879    0.33380    1.000
    C126     C        0.91594    0.71752    0.35670    1.000
    H55      H        0.89480    0.70110    0.36960    1.000
    C127     C        0.14527    0.83875    0.32750    1.000
    C128     C        0.16082    0.83897    0.22910    1.000
    H56      H        0.15330    0.81860    0.17050    1.000
    C129     C        0.05669    0.85996    0.30360    1.000
    H57      H        0.07280    0.88190    0.29660    1.000
    C130     C        0.01558    0.61634    0.28370    1.000
    H58      H        0.99750    0.59440    0.27430    1.000
    C131     C        0.91555    0.75624    0.35560    1.000
    H59      H        0.89390    0.77230    0.36700    1.000
    C132     C        0.86200    0.86643    0.19230    1.000
    H60      H        0.83570    0.86600    0.12390    1.000
    C133     C        0.01514    0.85938    0.29700    1.000
    H61      H        0.99630    0.88090    0.28330    1.000
    C134     C        0.17187    0.75779    0.36190    1.000
    H62      H        0.19630    0.77400    0.37600    1.000
    C135     C        0.15826    0.86800    0.41510    1.000
    H63      H        0.14880    0.86780    0.48440    1.000
    C136     C        0.93763    0.86673    0.39230    1.000
    H64      H        0.96330    0.86680    0.46270    1.000
    C137     C        0.88887    0.59876    0.38940    1.000
    H65      H        0.88200    0.59110    0.45970    1.000
    C138     C        0.17001    0.60153    0.16330    1.000
    H66      H        0.16830    0.59500    0.08170    1.000
    C139     C        0.89159    0.83672    0.20850    1.000
    H67      H        0.88520    0.81590    0.15170    1.000
    C140     C        0.14222    0.62898    0.18120    1.000
    H68      H        0.12170    0.64090    0.11150    1.000
    C141     C        0.17150    0.71903    0.35560    1.000
    H69      H        0.19560    0.70280    0.36390    1.000
    O29      O        0.00373    0.74210    0.10300    1.000
    C142     C        0.92041    0.62670    0.40160    1.000
    H70      H        0.93420    0.63840    0.47980    1.000
    C143     C        0.88016    0.59192    0.17820    1.000
    H71      H        0.86720    0.57950    0.10080    1.000
    C144     C        0.91160    0.61997    0.19180    1.000
    H72      H        0.91930    0.62710    0.12230    1.000
    Na3      Na       0.25183    0.92220    0.01239    1.000
    O30      O        0.02260    0.74170    0.10220    1.000
    Zn4      Zn       0.53604    0.23842    0.29359    1.000
    O31      O        0.76048    0.04135    0.33098    1.000
    O32      O        0.72326    0.04223    0.13141    1.000
    O33      O        0.32404    0.04184    0.35343    1.000
    O34      O        0.73442    0.45856    0.35885    1.000
    O35      O        0.30690    0.43139    0.16088    1.000
    O36      O        0.73639    0.43166    0.18803    1.000
    O37      O        0.31218    0.04113    0.15318    1.000
    O38      O        0.35093    0.45835    0.32978    1.000
    N13      N        0.53960    0.29698    0.32840    1.000
    N14      N        0.60204    0.23834    0.32920    1.000
    N15      N        0.47822    0.23753    0.32610    1.000
    N16      N        0.53854    0.17933    0.30890    1.000
    C145     C        0.72966    0.05412    0.24050    1.000
    C146     C        0.69998    0.08370    0.26220    1.000
    C147     C        0.33282    0.05336    0.26140    1.000
    C148     C        0.72488    0.43115    0.28190    1.000
    C149     C        0.34061    0.43055    0.25440    1.000
    C150     C        0.36795    0.08232    0.27770    1.000
    C151     C        0.69884    0.39817    0.30110    1.000
    C152     C        0.50441    0.32007    0.31460    1.000
    C153     C        0.37059    0.39681    0.27570    1.000
    C154     C        0.61296    0.16873    0.31280    1.000
    C155     C        0.57222    0.32058    0.32350    1.000
    C156     C        0.46557    0.16767    0.31510    1.000
    C157     C        0.62750    0.20687    0.33380    1.000
    C158     C        0.45505    0.20564    0.33440    1.000
    C159     C        0.61399    0.30852    0.33390    1.000
    C160     C        0.43179    0.13761    0.30350    1.000
    C161     C        0.64389    0.13920    0.29780    1.000
    C162     C        0.70301    0.09455    0.37930    1.000
    H73      H        0.72430    0.08330    0.44880    1.000
    C163     C        0.57111    0.15624    0.29920    1.000
    C164     C        0.50436    0.15569    0.30120    1.000
    C165     C        0.40796    0.39631    0.37680    1.000
    H74      H        0.41350    0.41630    0.43630    1.000
    C166     C        0.46451    0.30737    0.31960    1.000
    C167     C        0.43063    0.33712    0.30710    1.000
    C168     C        0.68719    0.36861    0.21560    1.000
    H75      H        0.69720    0.36860    0.14750    1.000
    C169     C        0.62798    0.26996    0.34290    1.000
    C170     C        0.55667    0.11679    0.28330    1.000
    H76      H        0.57300    0.09520    0.27420    1.000
    C171     C        0.68484    0.39751    0.40240    1.000
    H77      H        0.69350    0.41730    0.46290    1.000
    C172     C        0.67489    0.12209    0.39620    1.000
    H78      H        0.67720    0.12930    0.47790    1.000
    C173     C        0.45410    0.26879    0.33380    1.000
    C174     C        0.41594    0.21752    0.35670    1.000
    H79      H        0.39480    0.20110    0.36960    1.000
    C175     C        0.64527    0.33875    0.32750    1.000
    C176     C        0.66082    0.33897    0.22910    1.000
    H80      H        0.65330    0.31860    0.17050    1.000
    C177     C        0.55669    0.35996    0.30360    1.000
    H81      H        0.57280    0.38190    0.29660    1.000
    C178     C        0.51558    0.11634    0.28370    1.000
    H82      H        0.49750    0.09440    0.27430    1.000
    C179     C        0.41555    0.25624    0.35560    1.000
    H83      H        0.39390    0.27230    0.36700    1.000
    C180     C        0.36200    0.36643    0.19230    1.000
    H84      H        0.33570    0.36600    0.12390    1.000
    C181     C        0.51514    0.35938    0.29700    1.000
    H85      H        0.49630    0.38090    0.28330    1.000
    C182     C        0.67187    0.25779    0.36190    1.000
    H86      H        0.69630    0.27400    0.37600    1.000
    C183     C        0.65826    0.36800    0.41510    1.000
    H87      H        0.64880    0.36780    0.48440    1.000
    C184     C        0.43763    0.36673    0.39230    1.000
    H88      H        0.46330    0.36680    0.46270    1.000
    C185     C        0.38887    0.09876    0.38940    1.000
    H89      H        0.38200    0.09110    0.45970    1.000
    C186     C        0.67001    0.10153    0.16330    1.000
    H90      H        0.66830    0.09500    0.08170    1.000
    C187     C        0.39159    0.33672    0.20850    1.000
    H91      H        0.38520    0.31590    0.15170    1.000
    C188     C        0.64222    0.12898    0.18120    1.000
    H92      H        0.62170    0.14090    0.11150    1.000
    C189     C        0.67150    0.21903    0.35560    1.000
    H93      H        0.69560    0.20280    0.36390    1.000
    O39      O        0.50373    0.24210    0.10300    1.000
    C190     C        0.42041    0.12670    0.40160    1.000
    H94      H        0.43420    0.13840    0.47980    1.000
    C191     C        0.38016    0.09192    0.17820    1.000
    H95      H        0.36720    0.07950    0.10080    1.000
    C192     C        0.41160    0.11997    0.19180    1.000
    H96      H        0.41930    0.12710    0.12230    1.000
    Na4      Na       0.75183    0.42220    0.01239    1.000
    O40      O        0.52260    0.24170    0.10220    1.000
    Zn5      Zn       0.03604    0.26158    0.29359    1.000
    O41      O        0.26048    0.45865    0.33098    1.000
    O42      O        0.22326    0.45777    0.13141    1.000
    O43      O        0.82404    0.45816    0.35343    1.000
    O44      O        0.23442    0.04144    0.35885    1.000
    O45      O        0.80690    0.06861    0.16088    1.000
    O46      O        0.23639    0.06834    0.18803    1.000
    O47      O        0.81218    0.45887    0.15318    1.000
    O48      O        0.85093    0.04165    0.32978    1.000
    N17      N        0.03960    0.20302    0.32840    1.000
    N18      N        0.10204    0.26166    0.32920    1.000
    N19      N        0.97822    0.26247    0.32610    1.000
    N20      N        0.03854    0.32067    0.30890    1.000
    C193     C        0.22966    0.44588    0.24050    1.000
    C194     C        0.19998    0.41630    0.26220    1.000
    C195     C        0.83282    0.44664    0.26140    1.000
    C196     C        0.22488    0.06885    0.28190    1.000
    C197     C        0.84061    0.06945    0.25440    1.000
    C198     C        0.86795    0.41768    0.27770    1.000
    C199     C        0.19884    0.10183    0.30110    1.000
    C200     C        0.00441    0.17993    0.31460    1.000
    C201     C        0.87059    0.10319    0.27570    1.000
    C202     C        0.11296    0.33127    0.31280    1.000
    C203     C        0.07222    0.17942    0.32350    1.000
    C204     C        0.96557    0.33233    0.31510    1.000
    C205     C        0.12750    0.29313    0.33380    1.000
    C206     C        0.95505    0.29436    0.33440    1.000
    C207     C        0.11399    0.19148    0.33390    1.000
    C208     C        0.93179    0.36239    0.30350    1.000
    C209     C        0.14389    0.36080    0.29780    1.000
    C210     C        0.20301    0.40545    0.37930    1.000
    H97      H        0.22430    0.41670    0.44880    1.000
    C211     C        0.07111    0.34376    0.29920    1.000
    C212     C        0.00436    0.34431    0.30120    1.000
    C213     C        0.90796    0.10369    0.37680    1.000
    H98      H        0.91350    0.08370    0.43630    1.000
    C214     C        0.96451    0.19263    0.31960    1.000
    C215     C        0.93063    0.16288    0.30710    1.000
    C216     C        0.18719    0.13139    0.21560    1.000
    H99      H        0.19720    0.13140    0.14750    1.000
    C217     C        0.12798    0.23004    0.34290    1.000
    C218     C        0.05667    0.38321    0.28330    1.000
    H100     H        0.07300    0.40480    0.27420    1.000
    C219     C        0.18484    0.10249    0.40240    1.000
    H101     H        0.19350    0.08270    0.46290    1.000
    C220     C        0.17489    0.37791    0.39620    1.000
    H102     H        0.17720    0.37070    0.47790    1.000
    C221     C        0.95410    0.23121    0.33380    1.000
    C222     C        0.91594    0.28248    0.35670    1.000
    H103     H        0.89480    0.29890    0.36960    1.000
    C223     C        0.14527    0.16125    0.32750    1.000
    C224     C        0.16082    0.16103    0.22910    1.000
    H104     H        0.15330    0.18140    0.17050    1.000
    C225     C        0.05669    0.14004    0.30360    1.000
    H105     H        0.07280    0.11810    0.29660    1.000
    C226     C        0.01558    0.38366    0.28370    1.000
    H106     H        0.99750    0.40560    0.27430    1.000
    C227     C        0.91555    0.24376    0.35560    1.000
    H107     H        0.89390    0.22770    0.36700    1.000
    C228     C        0.86200    0.13357    0.19230    1.000
    H108     H        0.83570    0.13400    0.12390    1.000
    C229     C        0.01514    0.14062    0.29700    1.000
    H109     H        0.99630    0.11910    0.28330    1.000
    C230     C        0.17187    0.24221    0.36190    1.000
    H110     H        0.19630    0.22600    0.37600    1.000
    C231     C        0.15826    0.13200    0.41510    1.000
    H111     H        0.14880    0.13220    0.48440    1.000
    C232     C        0.93763    0.13327    0.39230    1.000
    H112     H        0.96330    0.13320    0.46270    1.000
    C233     C        0.88887    0.40124    0.38940    1.000
    H113     H        0.88200    0.40890    0.45970    1.000
    C234     C        0.17001    0.39847    0.16330    1.000
    H114     H        0.16830    0.40500    0.08170    1.000
    C235     C        0.89159    0.16328    0.20850    1.000
    H115     H        0.88520    0.18410    0.15170    1.000
    C236     C        0.14222    0.37102    0.18120    1.000
    H116     H        0.12170    0.35910    0.11150    1.000
    C237     C        0.17150    0.28097    0.35560    1.000
    H117     H        0.19560    0.29720    0.36390    1.000
    O49      O        0.00373    0.25790    0.10300    1.000
    C238     C        0.92041    0.37330    0.40160    1.000
    H118     H        0.93420    0.36160    0.47980    1.000
    C239     C        0.88016    0.40808    0.17820    1.000
    H119     H        0.86720    0.42050    0.10080    1.000
    C240     C        0.91160    0.38003    0.19180    1.000
    H120     H        0.91930    0.37290    0.12230    1.000
    Na5      Na       0.25183    0.07780    0.01239    1.000
    O50      O        0.02260    0.25830    0.10220    1.000
    Zn6      Zn       0.53604    0.76158    0.29359    1.000
    O51      O        0.76048    0.95865    0.33098    1.000
    O52      O        0.72326    0.95777    0.13141    1.000
    O53      O        0.32404    0.95816    0.35343    1.000
    O54      O        0.73442    0.54144    0.35885    1.000
    O55      O        0.30690    0.56861    0.16088    1.000
    O56      O        0.73639    0.56834    0.18803    1.000
    O57      O        0.31218    0.95887    0.15318    1.000
    O58      O        0.35093    0.54165    0.32978    1.000
    N21      N        0.53960    0.70302    0.32840    1.000
    N22      N        0.60204    0.76166    0.32920    1.000
    N23      N        0.47822    0.76247    0.32610    1.000
    N24      N        0.53854    0.82067    0.30890    1.000
    C241     C        0.72966    0.94588    0.24050    1.000
    C242     C        0.69998    0.91630    0.26220    1.000
    C243     C        0.33282    0.94664    0.26140    1.000
    C244     C        0.72488    0.56885    0.28190    1.000
    C245     C        0.34061    0.56945    0.25440    1.000
    C246     C        0.36795    0.91768    0.27770    1.000
    C247     C        0.69884    0.60183    0.30110    1.000
    C248     C        0.50441    0.67993    0.31460    1.000
    C249     C        0.37059    0.60319    0.27570    1.000
    C250     C        0.61296    0.83127    0.31280    1.000
    C251     C        0.57222    0.67942    0.32350    1.000
    C252     C        0.46557    0.83233    0.31510    1.000
    C253     C        0.62750    0.79313    0.33380    1.000
    C254     C        0.45505    0.79436    0.33440    1.000
    C255     C        0.61399    0.69148    0.33390    1.000
    C256     C        0.43179    0.86239    0.30350    1.000
    C257     C        0.64389    0.86080    0.29780    1.000
    C258     C        0.70301    0.90545    0.37930    1.000
    H121     H        0.72430    0.91670    0.44880    1.000
    C259     C        0.57111    0.84376    0.29920    1.000
    C260     C        0.50436    0.84431    0.30120    1.000
    C261     C        0.40796    0.60369    0.37680    1.000
    H122     H        0.41350    0.58370    0.43630    1.000
    C262     C        0.46451    0.69263    0.31960    1.000
    C263     C        0.43063    0.66288    0.30710    1.000
    C264     C        0.68719    0.63139    0.21560    1.000
    H123     H        0.69720    0.63140    0.14750    1.000
    C265     C        0.62798    0.73004    0.34290    1.000
    C266     C        0.55667    0.88321    0.28330    1.000
    H124     H        0.57300    0.90480    0.27420    1.000
    C267     C        0.68484    0.60249    0.40240    1.000
    H125     H        0.69350    0.58270    0.46290    1.000
    C268     C        0.67489    0.87791    0.39620    1.000
    H126     H        0.67720    0.87070    0.47790    1.000
    C269     C        0.45410    0.73121    0.33380    1.000
    C270     C        0.41594    0.78248    0.35670    1.000
    H127     H        0.39480    0.79890    0.36960    1.000
    C271     C        0.64527    0.66125    0.32750    1.000
    C272     C        0.66082    0.66103    0.22910    1.000
    H128     H        0.65330    0.68140    0.17050    1.000
    C273     C        0.55669    0.64004    0.30360    1.000
    H129     H        0.57280    0.61810    0.29660    1.000
    C274     C        0.51558    0.88366    0.28370    1.000
    H130     H        0.49750    0.90560    0.27430    1.000
    C275     C        0.41555    0.74376    0.35560    1.000
    H131     H        0.39390    0.72770    0.36700    1.000
    C276     C        0.36200    0.63357    0.19230    1.000
    H132     H        0.33570    0.63400    0.12390    1.000
    C277     C        0.51514    0.64062    0.29700    1.000
    H133     H        0.49630    0.61910    0.28330    1.000
    C278     C        0.67187    0.74221    0.36190    1.000
    H134     H        0.69630    0.72600    0.37600    1.000
    C279     C        0.65826    0.63200    0.41510    1.000
    H135     H        0.64880    0.63220    0.48440    1.000
    C280     C        0.43763    0.63327    0.39230    1.000
    H136     H        0.46330    0.63320    0.46270    1.000
    C281     C        0.38887    0.90124    0.38940    1.000
    H137     H        0.38200    0.90890    0.45970    1.000
    C282     C        0.67001    0.89847    0.16330    1.000
    H138     H        0.66830    0.90500    0.08170    1.000
    C283     C        0.39159    0.66328    0.20850    1.000
    H139     H        0.38520    0.68410    0.15170    1.000
    C284     C        0.64222    0.87102    0.18120    1.000
    H140     H        0.62170    0.85910    0.11150    1.000
    C285     C        0.67150    0.78097    0.35560    1.000
    H141     H        0.69560    0.79720    0.36390    1.000
    O59      O        0.50373    0.75790    0.10300    1.000
    C286     C        0.42041    0.87330    0.40160    1.000
    H142     H        0.43420    0.86160    0.47980    1.000
    C287     C        0.38016    0.90808    0.17820    1.000
    H143     H        0.36720    0.92050    0.10080    1.000
    C288     C        0.41160    0.88003    0.19180    1.000
    H144     H        0.41930    0.87290    0.12230    1.000
    Na6      Na       0.75183    0.57780    0.01239    1.000
    O60      O        0.52260    0.75830    0.10220    1.000
    Zn7      Zn       0.96396    0.26158    0.70641    1.000
    O61      O        0.73952    0.45865    0.66902    1.000
    O62      O        0.77674    0.45777    0.86859    1.000
    O63      O        0.17596    0.45816    0.64657    1.000
    O64      O        0.76558    0.04144    0.64115    1.000
    O65      O        0.19310    0.06861    0.83912    1.000
    O66      O        0.76361    0.06834    0.81197    1.000
    O67      O        0.18782    0.45887    0.84682    1.000
    O68      O        0.14907    0.04165    0.67022    1.000
    N25      N        0.96040    0.20302    0.67160    1.000
    N26      N        0.89796    0.26166    0.67080    1.000
    N27      N        0.02178    0.26247    0.67390    1.000
    N28      N        0.96146    0.32067    0.69110    1.000
    C289     C        0.77034    0.44588    0.75950    1.000
    C290     C        0.80002    0.41630    0.73780    1.000
    C291     C        0.16718    0.44664    0.73860    1.000
    C292     C        0.77512    0.06885    0.71810    1.000
    C293     C        0.15939    0.06945    0.74560    1.000
    C294     C        0.13205    0.41768    0.72230    1.000
    C295     C        0.80116    0.10183    0.69890    1.000
    C296     C        0.99559    0.17993    0.68540    1.000
    C297     C        0.12941    0.10319    0.72430    1.000
    C298     C        0.88704    0.33127    0.68720    1.000
    C299     C        0.92778    0.17942    0.67650    1.000
    C300     C        0.03443    0.33233    0.68490    1.000
    C301     C        0.87250    0.29313    0.66620    1.000
    C302     C        0.04495    0.29436    0.66560    1.000
    C303     C        0.88601    0.19148    0.66610    1.000
    C304     C        0.06821    0.36239    0.69650    1.000
    C305     C        0.85611    0.36080    0.70220    1.000
    C306     C        0.79699    0.40545    0.62070    1.000
    H145     H        0.77570    0.41670    0.55120    1.000
    C307     C        0.92889    0.34376    0.70080    1.000
    C308     C        0.99564    0.34431    0.69880    1.000
    C309     C        0.09204    0.10369    0.62320    1.000
    H146     H        0.08650    0.08370    0.56370    1.000
    C310     C        0.03549    0.19263    0.68040    1.000
    C311     C        0.06937    0.16288    0.69290    1.000
    C312     C        0.81281    0.13139    0.78440    1.000
    H147     H        0.80280    0.13140    0.85250    1.000
    C313     C        0.87202    0.23004    0.65710    1.000
    C314     C        0.94333    0.38321    0.71670    1.000
    H148     H        0.92700    0.40480    0.72580    1.000
    C315     C        0.81516    0.10249    0.59760    1.000
    H149     H        0.80650    0.08270    0.53710    1.000
    C316     C        0.82511    0.37791    0.60380    1.000
    H150     H        0.82280    0.37070    0.52210    1.000
    C317     C        0.04590    0.23121    0.66620    1.000
    C318     C        0.08406    0.28248    0.64330    1.000
    H151     H        0.10520    0.29890    0.63040    1.000
    C319     C        0.85473    0.16125    0.67250    1.000
    C320     C        0.83918    0.16103    0.77090    1.000
    H152     H        0.84670    0.18140    0.82950    1.000
    C321     C        0.94331    0.14004    0.69640    1.000
    H153     H        0.92720    0.11810    0.70340    1.000
    C322     C        0.98442    0.38366    0.71630    1.000
    H154     H        0.00250    0.40560    0.72570    1.000
    C323     C        0.08445    0.24376    0.64440    1.000
    H155     H        0.10610    0.22770    0.63300    1.000
    C324     C        0.13800    0.13357    0.80770    1.000
    H156     H        0.16430    0.13400    0.87610    1.000
    C325     C        0.98486    0.14062    0.70300    1.000
    H157     H        0.00370    0.11910    0.71670    1.000
    C326     C        0.82813    0.24221    0.63810    1.000
    H158     H        0.80370    0.22600    0.62400    1.000
    C327     C        0.84174    0.13200    0.58490    1.000
    H159     H        0.85120    0.13220    0.51560    1.000
    C328     C        0.06237    0.13327    0.60770    1.000
    H160     H        0.03670    0.13320    0.53730    1.000
    C329     C        0.11113    0.40124    0.61060    1.000
    H161     H        0.11800    0.40890    0.54030    1.000
    C330     C        0.82999    0.39847    0.83670    1.000
    H162     H        0.83170    0.40500    0.91830    1.000
    C331     C        0.10841    0.16328    0.79150    1.000
    H163     H        0.11480    0.18410    0.84830    1.000
    C332     C        0.85778    0.37102    0.81880    1.000
    H164     H        0.87830    0.35910    0.88850    1.000
    C333     C        0.82850    0.28097    0.64440    1.000
    H165     H        0.80440    0.29720    0.63610    1.000
    O69      O        0.99627    0.25790    0.89700    1.000
    C334     C        0.07959    0.37330    0.59840    1.000
    H166     H        0.06580    0.36160    0.52020    1.000
    C335     C        0.11984    0.40808    0.82180    1.000
    H167     H        0.13280    0.42050    0.89920    1.000
    C336     C        0.08840    0.38003    0.80820    1.000
    H168     H        0.08070    0.37290    0.87770    1.000
    Na7      Na       0.74817    0.07780    0.98761    1.000
    O70      O        0.97740    0.25830    0.89780    1.000
    Zn8      Zn       0.46396    0.76158    0.70641    1.000
    O71      O        0.23952    0.95865    0.66902    1.000
    O72      O        0.27674    0.95777    0.86859    1.000
    O73      O        0.67596    0.95816    0.64657    1.000
    O74      O        0.26558    0.54144    0.64115    1.000
    O75      O        0.69310    0.56861    0.83912    1.000
    O76      O        0.26361    0.56834    0.81197    1.000
    O77      O        0.68782    0.95887    0.84682    1.000
    O78      O        0.64907    0.54165    0.67022    1.000
    N29      N        0.46040    0.70302    0.67160    1.000
    N30      N        0.39796    0.76166    0.67080    1.000
    N31      N        0.52178    0.76247    0.67390    1.000
    N32      N        0.46146    0.82067    0.69110    1.000
    C337     C        0.27034    0.94588    0.75950    1.000
    C338     C        0.30002    0.91630    0.73780    1.000
    C339     C        0.66718    0.94664    0.73860    1.000
    C340     C        0.27512    0.56885    0.71810    1.000
    C341     C        0.65939    0.56945    0.74560    1.000
    C342     C        0.63205    0.91768    0.72230    1.000
    C343     C        0.30116    0.60183    0.69890    1.000
    C344     C        0.49559    0.67993    0.68540    1.000
    C345     C        0.62941    0.60319    0.72430    1.000
    C346     C        0.38704    0.83127    0.68720    1.000
    C347     C        0.42778    0.67942    0.67650    1.000
    C348     C        0.53443    0.83233    0.68490    1.000
    C349     C        0.37250    0.79313    0.66620    1.000
    C350     C        0.54495    0.79436    0.66560    1.000
    C351     C        0.38601    0.69148    0.66610    1.000
    C352     C        0.56821    0.86239    0.69650    1.000
    C353     C        0.35611    0.86080    0.70220    1.000
    C354     C        0.29699    0.90545    0.62070    1.000
    H169     H        0.27570    0.91670    0.55120    1.000
    C355     C        0.42889    0.84376    0.70080    1.000
    C356     C        0.49564    0.84431    0.69880    1.000
    C357     C        0.59204    0.60369    0.62320    1.000
    H170     H        0.58650    0.58370    0.56370    1.000
    C358     C        0.53549    0.69263    0.68040    1.000
    C359     C        0.56937    0.66288    0.69290    1.000
    C360     C        0.31281    0.63139    0.78440    1.000
    H171     H        0.30280    0.63140    0.85250    1.000
    C361     C        0.37202    0.73004    0.65710    1.000
    C362     C        0.44333    0.88321    0.71670    1.000
    H172     H        0.42700    0.90480    0.72580    1.000
    C363     C        0.31516    0.60249    0.59760    1.000
    H173     H        0.30650    0.58270    0.53710    1.000
    C364     C        0.32511    0.87791    0.60380    1.000
    H174     H        0.32280    0.87070    0.52210    1.000
    C365     C        0.54590    0.73121    0.66620    1.000
    C366     C        0.58406    0.78248    0.64330    1.000
    H175     H        0.60520    0.79890    0.63040    1.000
    C367     C        0.35473    0.66125    0.67250    1.000
    C368     C        0.33918    0.66103    0.77090    1.000
    H176     H        0.34670    0.68140    0.82950    1.000
    C369     C        0.44331    0.64004    0.69640    1.000
    H177     H        0.42720    0.61810    0.70340    1.000
    C370     C        0.48442    0.88366    0.71630    1.000
    H178     H        0.50250    0.90560    0.72570    1.000
    C371     C        0.58445    0.74376    0.64440    1.000
    H179     H        0.60610    0.72770    0.63300    1.000
    C372     C        0.63800    0.63357    0.80770    1.000
    H180     H        0.66430    0.63400    0.87610    1.000
    C373     C        0.48486    0.64062    0.70300    1.000
    H181     H        0.50370    0.61910    0.71670    1.000
    C374     C        0.32813    0.74221    0.63810    1.000
    H182     H        0.30370    0.72600    0.62400    1.000
    C375     C        0.34174    0.63200    0.58490    1.000
    H183     H        0.35120    0.63220    0.51560    1.000
    C376     C        0.56237    0.63327    0.60770    1.000
    H184     H        0.53670    0.63320    0.53730    1.000
    C377     C        0.61113    0.90124    0.61060    1.000
    H185     H        0.61800    0.90890    0.54030    1.000
    C378     C        0.32999    0.89847    0.83670    1.000
    H186     H        0.33170    0.90500    0.91830    1.000
    C379     C        0.60841    0.66328    0.79150    1.000
    H187     H        0.61480    0.68410    0.84830    1.000
    C380     C        0.35778    0.87102    0.81880    1.000
    H188     H        0.37830    0.85910    0.88850    1.000
    C381     C        0.32850    0.78097    0.64440    1.000
    H189     H        0.30440    0.79720    0.63610    1.000
    O79      O        0.49627    0.75790    0.89700    1.000
    C382     C        0.57959    0.87330    0.59840    1.000
    H190     H        0.56580    0.86160    0.52020    1.000
    C383     C        0.61984    0.90808    0.82180    1.000
    H191     H        0.63280    0.92050    0.89920    1.000
    C384     C        0.58840    0.88003    0.80820    1.000
    H192     H        0.58070    0.87290    0.87770    1.000
    Na8      Na       0.24817    0.57780    0.98761    1.000
    O80      O        0.47740    0.75830    0.89780    1.000
    Gd1      Gd       0.20768    0.00000    0.79316    1.000
    Gd2      Gd       0.26305    0.00000    0.23244    1.000
    O81      O        0.22880    0.00000    0.01220    1.000
    O82      O        0.18470    0.00000    0.12040    1.000
    O83      O        0.15816    0.00000    0.91190    1.000
    N33      N        0.18855    0.00000    0.01550    1.000
    Na9      Na       0.76576    0.00000    0.49117    1.000
    Gd3      Gd       0.70768    0.50000    0.79316    1.000
    Gd4      Gd       0.76305    0.50000    0.23244    1.000
    O84      O        0.72880    0.50000    0.01220    1.000
    O85      O        0.68470    0.50000    0.12040    1.000
    O86      O        0.65816    0.50000    0.91190    1.000
    N34      N        0.68855    0.50000    0.01550    1.000
    Na10     Na       0.26576    0.50000    0.49117    1.000
    Gd5      Gd       0.79232    0.00000    0.20684    1.000
    Gd6      Gd       0.73695    0.00000    0.76756    1.000
    O87      O        0.77120    0.00000    0.98780    1.000
    O88      O        0.81530    0.00000    0.87960    1.000
    O89      O        0.84184    0.00000    0.08810    1.000
    N35      N        0.81145    0.00000    0.98450    1.000
    Na11     Na       0.23424    0.00000    0.50883    1.000
    Gd7      Gd       0.29232    0.50000    0.20684    1.000
    Gd8      Gd       0.23695    0.50000    0.76756    1.000
    O90      O        0.27120    0.50000    0.98780    1.000
    O91      O        0.31530    0.50000    0.87960    1.000
    O92      O        0.34184    0.50000    0.08810    1.000
    N36      N        0.31145    0.50000    0.98450    1.000
    Na12     Na       0.73424    0.50000    0.50883    1.000
    C385     C        0.00000    0.73714    0.00000    1.000
    C386     C        0.50000    0.23714    0.00000    1.000
    C387     C        0.00000    0.26286    0.00000    1.000
    C388     C        0.50000    0.76286    0.00000    1.000
    Na13     Na       0.82442    0.50000    0.00719    1.000
    Na14     Na       0.32442    0.00000    0.00719    1.000
    Na15     Na       0.17558    0.50000    0.99281    1.000
    Na16     Na       0.67558    0.00000    0.99281    1.000
