data_functionalizedCrystal
_audit_creation_method	'EQeq! by Chris Wilmer'
_symmetry_space_group_name_H-M	'P1'
_symmetry_Int_Tables_number	1
_symmetry_cell_setting	triclinic
loop_
_symmetry_equiv_pos_as_xyz
  x,y,z
_cell_length_a	21.85
_cell_length_b	21.85
_cell_length_c	21.85
_cell_angle_alpha	90
_cell_angle_beta	90
_cell_angle_gamma	90
loop_
_atom_site_label
_atom_site_type_symbol
_atom_site_fract_x
_atom_site_fract_y
_atom_site_fract_z
_atom_site_charge
Mof_Ag	Ag	0.03995	0.78245	0.16783	0.803
Mof_Ag	Ag	0.46005	0.21755	0.66783	0.804
Mof_Ag	Ag	0.96005	0.28245	0.33217	0.801
Mof_Ag	Ag	0.53995	0.71755	0.83217	0.804
Mof_Ag	Ag	0.16783	0.03995	0.78245	0.803
Mof_Ag	Ag	0.66783	0.46005	0.21755	0.804
Mof_Ag	Ag	0.33217	0.96005	0.28245	0.801
Mof_Ag	Ag	0.83217	0.53995	0.71755	0.804
Mof_Ag	Ag	0.78245	0.16783	0.03995	0.803
Mof_Ag	Ag	0.21755	0.66783	0.46005	0.804
Mof_Ag	Ag	0.28245	0.33217	0.96005	0.801
Mof_Ag	Ag	0.71755	0.83217	0.53995	0.804
Mof_Ag	Ag	0.96005	0.21755	0.83217	0.803
Mof_Ag	Ag	0.53995	0.78245	0.33217	0.804
Mof_Ag	Ag	0.03995	0.71755	0.66783	0.801
Mof_Ag	Ag	0.46005	0.28245	0.16783	0.804
Mof_Ag	Ag	0.83217	0.96005	0.21755	0.802
Mof_Ag	Ag	0.33217	0.53995	0.78245	0.803
Mof_Ag	Ag	0.66783	0.03995	0.71755	0.8
Mof_Ag	Ag	0.16783	0.46005	0.28245	0.803
Mof_Ag	Ag	0.21755	0.83217	0.96005	0.802
Mof_Ag	Ag	0.78245	0.33217	0.53995	0.803
Mof_Ag	Ag	0.71755	0.66783	0.03995	0.8
Mof_Ag	Ag	0.28245	0.16783	0.46005	0.803
Mof_Ag	Ag	0.69516	0.19516	0.30484	0.645
Mof_Ag	Ag	0.80484	0.80484	0.80484	0.646
Mof_Ag	Ag	0.30484	0.69516	0.19516	0.645
Mof_Ag	Ag	0.19516	0.30484	0.69516	0.645
Mof_Ag	Ag	0.30484	0.80484	0.69516	0.645
Mof_Ag	Ag	0.19516	0.19516	0.19516	0.646
Mof_Ag	Ag	0.69516	0.30484	0.80484	0.645
Mof_Ag	Ag	0.80484	0.69516	0.30484	0.645
Mof_H 	H 	0.9442	0.7214	0.2594	0.094
Mof_H 	H 	0.9038	0.7462	0.2053	0.086
Mof_H 	H 	0.8743	0.8046	0.3763	0.117
Mof_H 	H 	0.9273	0.7582	0.3625	0.11
Mof_H 	H 	0.884	0.9106	0.3431	0.157
Mof_H 	H 	0.9432	0.932	0.3082	0.138
Mof_H 	H 	0.822	0.8189	0.2254	0.026
Mof_H 	H 	0.8096	0.8417	0.2925	0.055
Mof_H 	H 	0.017	0.7913	0.3091	0.059
Mof_H 	H 	0.023	0.8591	0.2864	0.05
Mof_H 	H 	0.962	0.8959	0.2021	0.059
Mof_H 	H 	0.9146	0.8517	0.1708	0.073
Mof_H 	H 	0.5558	0.2786	0.7594	0.095
Mof_H 	H 	0.5962	0.2538	0.7053	0.086
Mof_H 	H 	0.6257	0.1954	0.8763	0.117
Mof_H 	H 	0.5727	0.2418	0.8625	0.11
Mof_H 	H 	0.616	0.0894	0.8431	0.157
Mof_H 	H 	0.5568	0.068	0.8082	0.138
Mof_H 	H 	0.678	0.1811	0.7254	0.026
Mof_H 	H 	0.6904	0.1583	0.7925	0.055
Mof_H 	H 	0.483	0.2087	0.8091	0.06
Mof_H 	H 	0.477	0.1409	0.7864	0.052
Mof_H 	H 	0.538	0.1041	0.7021	0.06
Mof_H 	H 	0.5854	0.1483	0.6708	0.073
Mof_H 	H 	0.0558	0.2214	0.2406	0.095
Mof_H 	H 	0.0962	0.2462	0.2947	0.087
Mof_H 	H 	0.1257	0.3046	0.1237	0.118
Mof_H 	H 	0.0727	0.2582	0.1375	0.111
Mof_H 	H 	0.116	0.4106	0.1569	0.157
Mof_H 	H 	0.0568	0.432	0.1918	0.139
Mof_H 	H 	0.178	0.3189	0.2746	0.026
Mof_H 	H 	0.1904	0.3417	0.2075	0.055
Mof_H 	H 	0.983	0.2913	0.1909	0.055
Mof_H 	H 	0.977	0.3591	0.2136	0.047
Mof_H 	H 	0.038	0.3959	0.2979	0.06
Mof_H 	H 	0.0854	0.3517	0.3292	0.073
Mof_H 	H 	0.4442	0.7786	0.7406	0.095
Mof_H 	H 	0.4038	0.7538	0.7947	0.086
Mof_H 	H 	0.3743	0.6954	0.6237	0.117
Mof_H 	H 	0.4273	0.7418	0.6375	0.11
Mof_H 	H 	0.384	0.5894	0.6569	0.157
Mof_H 	H 	0.4432	0.568	0.6918	0.138
Mof_H 	H 	0.322	0.6811	0.7746	0.026
Mof_H 	H 	0.3096	0.6583	0.7075	0.055
Mof_H 	H 	0.517	0.7087	0.6909	0.06
Mof_H 	H 	0.523	0.6409	0.7136	0.052
Mof_H 	H 	0.462	0.6041	0.7979	0.06
Mof_H 	H 	0.4146	0.6483	0.8292	0.073
Mof_H 	H 	0.2594	0.9442	0.7214	0.094
Mof_H 	H 	0.2053	0.9038	0.7462	0.086
Mof_H 	H 	0.3763	0.8743	0.8046	0.117
Mof_H 	H 	0.3625	0.9273	0.7582	0.11
Mof_H 	H 	0.3431	0.884	0.9106	0.157
Mof_H 	H 	0.3082	0.9432	0.932	0.138
Mof_H 	H 	0.2254	0.822	0.8189	0.026
Mof_H 	H 	0.2925	0.8096	0.8417	0.055
Mof_H 	H 	0.3091	0.017	0.7913	0.059
Mof_H 	H 	0.2864	0.023	0.8591	0.05
Mof_H 	H 	0.2021	0.962	0.8959	0.059
Mof_H 	H 	0.1708	0.9146	0.8517	0.073
Mof_H 	H 	0.7594	0.5558	0.2786	0.095
Mof_H 	H 	0.7053	0.5962	0.2538	0.086
Mof_H 	H 	0.8763	0.6257	0.1954	0.117
Mof_H 	H 	0.8625	0.5727	0.2418	0.11
Mof_H 	H 	0.8431	0.616	0.0894	0.157
Mof_H 	H 	0.8082	0.5568	0.068	0.138
Mof_H 	H 	0.7254	0.678	0.1811	0.026
Mof_H 	H 	0.7925	0.6904	0.1583	0.055
Mof_H 	H 	0.8091	0.483	0.2087	0.06
Mof_H 	H 	0.7864	0.477	0.1409	0.052
Mof_H 	H 	0.7021	0.538	0.1041	0.06
Mof_H 	H 	0.6708	0.5854	0.1483	0.073
Mof_H 	H 	0.2406	0.0558	0.2214	0.095
Mof_H 	H 	0.2947	0.0962	0.2462	0.087
Mof_H 	H 	0.1237	0.1257	0.3046	0.118
Mof_H 	H 	0.1375	0.0727	0.2582	0.111
Mof_H 	H 	0.1569	0.116	0.4106	0.157
Mof_H 	H 	0.1918	0.0568	0.432	0.139
Mof_H 	H 	0.2746	0.178	0.3189	0.026
Mof_H 	H 	0.2075	0.1904	0.3417	0.055
Mof_H 	H 	0.1909	0.983	0.2913	0.055
Mof_H 	H 	0.2136	0.977	0.3591	0.047
Mof_H 	H 	0.2979	0.038	0.3959	0.06
Mof_H 	H 	0.3292	0.0854	0.3517	0.073
Mof_H 	H 	0.7406	0.4442	0.7786	0.095
Mof_H 	H 	0.7947	0.4038	0.7538	0.086
Mof_H 	H 	0.6237	0.3743	0.6954	0.117
Mof_H 	H 	0.6375	0.4273	0.7418	0.11
Mof_H 	H 	0.6569	0.384	0.5894	0.157
Mof_H 	H 	0.6918	0.4432	0.568	0.138
Mof_H 	H 	0.7746	0.322	0.6811	0.026
Mof_H 	H 	0.7075	0.3096	0.6583	0.055
Mof_H 	H 	0.6909	0.517	0.7087	0.06
Mof_H 	H 	0.7136	0.523	0.6409	0.052
Mof_H 	H 	0.7979	0.462	0.6041	0.06
Mof_H 	H 	0.8292	0.4146	0.6483	0.073
Mof_H 	H 	0.7214	0.2594	0.9442	0.094
Mof_H 	H 	0.7462	0.2053	0.9038	0.086
Mof_H 	H 	0.8046	0.3763	0.8743	0.117
Mof_H 	H 	0.7582	0.3625	0.9273	0.11
Mof_H 	H 	0.9106	0.3431	0.884	0.157
Mof_H 	H 	0.932	0.3082	0.9432	0.138
Mof_H 	H 	0.8189	0.2254	0.822	0.026
Mof_H 	H 	0.8417	0.2925	0.8096	0.055
Mof_H 	H 	0.7913	0.3091	0.017	0.059
Mof_H 	H 	0.8591	0.2864	0.023	0.05
Mof_H 	H 	0.8959	0.2021	0.962	0.059
Mof_H 	H 	0.8517	0.1708	0.9146	0.073
Mof_H 	H 	0.2786	0.7594	0.5558	0.095
Mof_H 	H 	0.2538	0.7053	0.5962	0.086
Mof_H 	H 	0.1954	0.8763	0.6257	0.117
Mof_H 	H 	0.2418	0.8625	0.5727	0.11
Mof_H 	H 	0.0894	0.8431	0.616	0.157
Mof_H 	H 	0.068	0.8082	0.5568	0.138
Mof_H 	H 	0.1811	0.7254	0.678	0.026
Mof_H 	H 	0.1583	0.7925	0.6904	0.055
Mof_H 	H 	0.2087	0.8091	0.483	0.06
Mof_H 	H 	0.1409	0.7864	0.477	0.052
Mof_H 	H 	0.1041	0.7021	0.538	0.06
Mof_H 	H 	0.1483	0.6708	0.5854	0.073
Mof_H 	H 	0.2214	0.2406	0.0558	0.095
Mof_H 	H 	0.2462	0.2947	0.0962	0.087
Mof_H 	H 	0.3046	0.1237	0.1257	0.118
Mof_H 	H 	0.2582	0.1375	0.0727	0.111
Mof_H 	H 	0.4106	0.1569	0.116	0.157
Mof_H 	H 	0.432	0.1918	0.0568	0.139
Mof_H 	H 	0.3189	0.2746	0.178	0.026
Mof_H 	H 	0.3417	0.2075	0.1904	0.055
Mof_H 	H 	0.2913	0.1909	0.983	0.055
Mof_H 	H 	0.3591	0.2136	0.977	0.047
Mof_H 	H 	0.3959	0.2979	0.038	0.06
Mof_H 	H 	0.3517	0.3292	0.0854	0.073
Mof_H 	H 	0.7786	0.7406	0.4442	0.095
Mof_H 	H 	0.7538	0.7947	0.4038	0.086
Mof_H 	H 	0.6954	0.6237	0.3743	0.117
Mof_H 	H 	0.7418	0.6375	0.4273	0.11
Mof_H 	H 	0.5894	0.6569	0.384	0.157
Mof_H 	H 	0.568	0.6918	0.4432	0.138
Mof_H 	H 	0.6811	0.7746	0.322	0.026
Mof_H 	H 	0.6583	0.7075	0.3096	0.055
Mof_H 	H 	0.7087	0.6909	0.517	0.06
Mof_H 	H 	0.6409	0.7136	0.523	0.052
Mof_H 	H 	0.6041	0.7979	0.462	0.06
Mof_H 	H 	0.6483	0.8292	0.4146	0.073
Mof_H 	H 	0.0558	0.2786	0.7406	0.094
Mof_H 	H 	0.0962	0.2538	0.7947	0.086
Mof_H 	H 	0.1257	0.1954	0.6237	0.117
Mof_H 	H 	0.0727	0.2418	0.6375	0.11
Mof_H 	H 	0.116	0.0894	0.6569	0.157
Mof_H 	H 	0.0568	0.068	0.6918	0.138
Mof_H 	H 	0.178	0.1811	0.7746	0.026
Mof_H 	H 	0.1904	0.1583	0.7075	0.055
Mof_H 	H 	0.983	0.2087	0.6909	0.059
Mof_H 	H 	0.977	0.1409	0.7136	0.05
Mof_H 	H 	0.038	0.1041	0.7979	0.059
Mof_H 	H 	0.0854	0.1483	0.8292	0.073
Mof_H 	H 	0.4442	0.7214	0.2406	0.095
Mof_H 	H 	0.4038	0.7462	0.2947	0.086
Mof_H 	H 	0.3743	0.8046	0.1237	0.117
Mof_H 	H 	0.4273	0.7582	0.1375	0.11
Mof_H 	H 	0.384	0.9106	0.1569	0.157
Mof_H 	H 	0.4432	0.932	0.1918	0.138
Mof_H 	H 	0.322	0.8189	0.2746	0.026
Mof_H 	H 	0.3096	0.8417	0.2075	0.055
Mof_H 	H 	0.517	0.7913	0.1909	0.06
Mof_H 	H 	0.523	0.8591	0.2136	0.052
Mof_H 	H 	0.462	0.8959	0.2979	0.06
Mof_H 	H 	0.4146	0.8517	0.3292	0.073
Mof_H 	H 	0.9442	0.7786	0.7594	0.095
Mof_H 	H 	0.9038	0.7538	0.7053	0.087
Mof_H 	H 	0.8743	0.6954	0.8763	0.118
Mof_H 	H 	0.9273	0.7418	0.8625	0.111
Mof_H 	H 	0.884	0.5894	0.8431	0.157
Mof_H 	H 	0.9432	0.568	0.8082	0.139
Mof_H 	H 	0.822	0.6811	0.7254	0.026
Mof_H 	H 	0.8096	0.6583	0.7925	0.055
Mof_H 	H 	0.017	0.7087	0.8091	0.055
Mof_H 	H 	0.023	0.6409	0.7864	0.047
Mof_H 	H 	0.962	0.6041	0.7021	0.06
Mof_H 	H 	0.9146	0.6483	0.6708	0.073
Mof_H 	H 	0.5558	0.2214	0.2594	0.095
Mof_H 	H 	0.5962	0.2462	0.2053	0.086
Mof_H 	H 	0.6257	0.3046	0.3763	0.117
Mof_H 	H 	0.5727	0.2582	0.3625	0.11
Mof_H 	H 	0.616	0.4106	0.3431	0.157
Mof_H 	H 	0.5568	0.432	0.3082	0.138
Mof_H 	H 	0.678	0.3189	0.2254	0.026
Mof_H 	H 	0.6904	0.3417	0.2925	0.055
Mof_H 	H 	0.483	0.2913	0.3091	0.06
Mof_H 	H 	0.477	0.3591	0.2864	0.052
Mof_H 	H 	0.538	0.3959	0.2021	0.06
Mof_H 	H 	0.5854	0.3517	0.1708	0.073
Mof_H 	H 	0.7406	0.0558	0.2786	0.094
Mof_H 	H 	0.7947	0.0962	0.2538	0.086
Mof_H 	H 	0.6237	0.1257	0.1954	0.117
Mof_H 	H 	0.6375	0.0727	0.2418	0.11
Mof_H 	H 	0.6569	0.116	0.0894	0.157
Mof_H 	H 	0.6918	0.0568	0.068	0.138
Mof_H 	H 	0.7746	0.178	0.1811	0.026
Mof_H 	H 	0.7075	0.1904	0.1583	0.055
Mof_H 	H 	0.6909	0.983	0.2087	0.059
Mof_H 	H 	0.7136	0.977	0.1409	0.05
Mof_H 	H 	0.7979	0.038	0.1041	0.059
Mof_H 	H 	0.8292	0.0854	0.1483	0.073
Mof_H 	H 	0.2406	0.4442	0.7214	0.095
Mof_H 	H 	0.2947	0.4038	0.7462	0.086
Mof_H 	H 	0.1237	0.3743	0.8046	0.117
Mof_H 	H 	0.1375	0.4273	0.7582	0.11
Mof_H 	H 	0.1569	0.384	0.9106	0.157
Mof_H 	H 	0.1918	0.4432	0.932	0.138
Mof_H 	H 	0.2746	0.322	0.8189	0.026
Mof_H 	H 	0.2075	0.3096	0.8417	0.055
Mof_H 	H 	0.1909	0.517	0.7913	0.06
Mof_H 	H 	0.2136	0.523	0.8591	0.052
Mof_H 	H 	0.2979	0.462	0.8959	0.06
Mof_H 	H 	0.3292	0.4146	0.8517	0.073
Mof_H 	H 	0.7594	0.9442	0.7786	0.095
Mof_H 	H 	0.7053	0.9038	0.7538	0.087
Mof_H 	H 	0.8763	0.8743	0.6954	0.118
Mof_H 	H 	0.8625	0.9273	0.7418	0.111
Mof_H 	H 	0.8431	0.884	0.5894	0.157
Mof_H 	H 	0.8082	0.9432	0.568	0.139
Mof_H 	H 	0.7254	0.822	0.6811	0.026
Mof_H 	H 	0.7925	0.8096	0.6583	0.055
Mof_H 	H 	0.8091	0.017	0.7087	0.055
Mof_H 	H 	0.7864	0.023	0.6409	0.047
Mof_H 	H 	0.7021	0.962	0.6041	0.06
Mof_H 	H 	0.6708	0.9146	0.6483	0.073
Mof_H 	H 	0.2594	0.5558	0.2214	0.095
Mof_H 	H 	0.2053	0.5962	0.2462	0.086
Mof_H 	H 	0.3763	0.6257	0.3046	0.117
Mof_H 	H 	0.3625	0.5727	0.2582	0.11
Mof_H 	H 	0.3431	0.616	0.4106	0.157
Mof_H 	H 	0.3082	0.5568	0.432	0.138
Mof_H 	H 	0.2254	0.678	0.3189	0.026
Mof_H 	H 	0.2925	0.6904	0.3417	0.055
Mof_H 	H 	0.3091	0.483	0.2913	0.06
Mof_H 	H 	0.2864	0.477	0.3591	0.052
Mof_H 	H 	0.2021	0.538	0.3959	0.06
Mof_H 	H 	0.1708	0.5854	0.3517	0.073
Mof_H 	H 	0.2786	0.7406	0.0558	0.094
Mof_H 	H 	0.2538	0.7947	0.0962	0.086
Mof_H 	H 	0.1954	0.6237	0.1257	0.117
Mof_H 	H 	0.2418	0.6375	0.0727	0.11
Mof_H 	H 	0.0894	0.6569	0.116	0.157
Mof_H 	H 	0.068	0.6918	0.0568	0.138
Mof_H 	H 	0.1811	0.7746	0.178	0.026
Mof_H 	H 	0.1583	0.7075	0.1904	0.055
Mof_H 	H 	0.2087	0.6909	0.983	0.059
Mof_H 	H 	0.1409	0.7136	0.977	0.05
Mof_H 	H 	0.1041	0.7979	0.038	0.059
Mof_H 	H 	0.1483	0.8292	0.0854	0.073
Mof_H 	H 	0.7214	0.2406	0.4442	0.095
Mof_H 	H 	0.7462	0.2947	0.4038	0.086
Mof_H 	H 	0.8046	0.1237	0.3743	0.117
Mof_H 	H 	0.7582	0.1375	0.4273	0.11
Mof_H 	H 	0.9106	0.1569	0.384	0.157
Mof_H 	H 	0.932	0.1918	0.4432	0.138
Mof_H 	H 	0.8189	0.2746	0.322	0.026
Mof_H 	H 	0.8417	0.2075	0.3096	0.055
Mof_H 	H 	0.7913	0.1909	0.517	0.06
Mof_H 	H 	0.8591	0.2136	0.523	0.052
Mof_H 	H 	0.8959	0.2979	0.462	0.06
Mof_H 	H 	0.8517	0.3292	0.4146	0.073
Mof_H 	H 	0.7786	0.7594	0.9442	0.095
Mof_H 	H 	0.7538	0.7053	0.9038	0.087
Mof_H 	H 	0.6954	0.8763	0.8743	0.118
Mof_H 	H 	0.7418	0.8625	0.9273	0.111
Mof_H 	H 	0.5894	0.8431	0.884	0.157
Mof_H 	H 	0.568	0.8082	0.9432	0.139
Mof_H 	H 	0.6811	0.7254	0.822	0.026
Mof_H 	H 	0.6583	0.7925	0.8096	0.055
Mof_H 	H 	0.7087	0.8091	0.017	0.055
Mof_H 	H 	0.6409	0.7864	0.023	0.047
Mof_H 	H 	0.6041	0.7021	0.962	0.06
Mof_H 	H 	0.6483	0.6708	0.9146	0.073
Mof_H 	H 	0.2214	0.2594	0.5558	0.095
Mof_H 	H 	0.2462	0.2053	0.5962	0.086
Mof_H 	H 	0.3046	0.3763	0.6257	0.117
Mof_H 	H 	0.2582	0.3625	0.5727	0.11
Mof_H 	H 	0.4106	0.3431	0.616	0.157
Mof_H 	H 	0.432	0.3082	0.5568	0.138
Mof_H 	H 	0.3189	0.2254	0.678	0.026
Mof_H 	H 	0.3417	0.2925	0.6904	0.055
Mof_H 	H 	0.2913	0.3091	0.483	0.06
Mof_H 	H 	0.3591	0.2864	0.477	0.052
Mof_H 	H 	0.3959	0.2021	0.538	0.06
Mof_H 	H 	0.3517	0.1708	0.5854	0.073
Mof_C 	C 	0.9227	0.7571	0.244	-0.052
Mof_C 	C 	0.9052	0.7931	0.3465	-0.056
Mof_C 	C 	0.9151	0.8981	0.314	-0.085
Mof_C 	C 	0.8413	0.8294	0.2639	-0.027
Mof_C 	C 	0.9944	0.8259	0.2929	-0.015
Mof_C 	C 	0.9337	0.8625	0.2094	-0.038
Mof_C 	C 	0.5773	0.2429	0.744	-0.052
Mof_C 	C 	0.5948	0.2069	0.8465	-0.056
Mof_C 	C 	0.5849	0.1019	0.814	-0.085
Mof_C 	C 	0.6587	0.1706	0.7639	-0.027
Mof_C 	C 	0.5056	0.1741	0.7929	-0.017
Mof_C 	C 	0.5663	0.1375	0.7094	-0.039
Mof_C 	C 	0.0773	0.2571	0.256	-0.052
Mof_C 	C 	0.0948	0.2931	0.1535	-0.056
Mof_C 	C 	0.0849	0.3981	0.186	-0.085
Mof_C 	C 	0.1587	0.3294	0.2361	-0.027
Mof_C 	C 	0.0056	0.3259	0.2071	-0.007
Mof_C 	C 	0.0663	0.3625	0.2906	-0.039
Mof_C 	C 	0.4227	0.7429	0.756	-0.052
Mof_C 	C 	0.4052	0.7069	0.6535	-0.056
Mof_C 	C 	0.4151	0.6019	0.686	-0.085
Mof_C 	C 	0.3413	0.6706	0.7361	-0.027
Mof_C 	C 	0.4944	0.6741	0.7071	-0.018
Mof_C 	C 	0.4337	0.6375	0.7906	-0.039
Mof_C 	C 	0.244	0.9227	0.7571	-0.052
Mof_C 	C 	0.3465	0.9052	0.7931	-0.056
Mof_C 	C 	0.314	0.9151	0.8981	-0.085
Mof_C 	C 	0.2639	0.8413	0.8294	-0.027
Mof_C 	C 	0.2929	0.9944	0.8259	-0.015
Mof_C 	C 	0.2094	0.9337	0.8625	-0.038
Mof_C 	C 	0.744	0.5773	0.2429	-0.052
Mof_C 	C 	0.8465	0.5948	0.2069	-0.056
Mof_C 	C 	0.814	0.5849	0.1019	-0.085
Mof_C 	C 	0.7639	0.6587	0.1706	-0.027
Mof_C 	C 	0.7929	0.5056	0.1741	-0.017
Mof_C 	C 	0.7094	0.5663	0.1375	-0.039
Mof_C 	C 	0.256	0.0773	0.2571	-0.052
Mof_C 	C 	0.1535	0.0948	0.2931	-0.056
Mof_C 	C 	0.186	0.0849	0.3981	-0.085
Mof_C 	C 	0.2361	0.1587	0.3294	-0.027
Mof_C 	C 	0.2071	0.0056	0.3259	-0.007
Mof_C 	C 	0.2906	0.0663	0.3625	-0.039
Mof_C 	C 	0.756	0.4227	0.7429	-0.052
Mof_C 	C 	0.6535	0.4052	0.7069	-0.056
Mof_C 	C 	0.686	0.4151	0.6019	-0.085
Mof_C 	C 	0.7361	0.3413	0.6706	-0.027
Mof_C 	C 	0.7071	0.4944	0.6741	-0.018
Mof_C 	C 	0.7906	0.4337	0.6375	-0.039
Mof_C 	C 	0.7571	0.244	0.9227	-0.052
Mof_C 	C 	0.7931	0.3465	0.9052	-0.056
Mof_C 	C 	0.8981	0.314	0.9151	-0.085
Mof_C 	C 	0.8294	0.2639	0.8413	-0.027
Mof_C 	C 	0.8259	0.2929	0.9944	-0.015
Mof_C 	C 	0.8625	0.2094	0.9337	-0.038
Mof_C 	C 	0.2429	0.744	0.5773	-0.052
Mof_C 	C 	0.2069	0.8465	0.5948	-0.056
Mof_C 	C 	0.1019	0.814	0.5849	-0.085
Mof_C 	C 	0.1706	0.7639	0.6587	-0.027
Mof_C 	C 	0.1741	0.7929	0.5056	-0.017
Mof_C 	C 	0.1375	0.7094	0.5663	-0.039
Mof_C 	C 	0.2571	0.256	0.0773	-0.052
Mof_C 	C 	0.2931	0.1535	0.0948	-0.056
Mof_C 	C 	0.3981	0.186	0.0849	-0.085
Mof_C 	C 	0.3294	0.2361	0.1587	-0.027
Mof_C 	C 	0.3259	0.2071	0.0056	-0.007
Mof_C 	C 	0.3625	0.2906	0.0663	-0.039
Mof_C 	C 	0.7429	0.756	0.4227	-0.052
Mof_C 	C 	0.7069	0.6535	0.4052	-0.056
Mof_C 	C 	0.6019	0.686	0.4151	-0.085
Mof_C 	C 	0.6706	0.7361	0.3413	-0.027
Mof_C 	C 	0.6741	0.7071	0.4944	-0.018
Mof_C 	C 	0.6375	0.7906	0.4337	-0.039
Mof_C 	C 	0.0773	0.2429	0.756	-0.052
Mof_C 	C 	0.0948	0.2069	0.6535	-0.056
Mof_C 	C 	0.0849	0.1019	0.686	-0.085
Mof_C 	C 	0.1587	0.1706	0.7361	-0.027
Mof_C 	C 	0.0056	0.1741	0.7071	-0.015
Mof_C 	C 	0.0663	0.1375	0.7906	-0.038
Mof_C 	C 	0.4227	0.7571	0.256	-0.052
Mof_C 	C 	0.4052	0.7931	0.1535	-0.056
Mof_C 	C 	0.4151	0.8981	0.186	-0.085
Mof_C 	C 	0.3413	0.8294	0.2361	-0.027
Mof_C 	C 	0.4944	0.8259	0.2071	-0.017
Mof_C 	C 	0.4337	0.8625	0.2906	-0.039
Mof_C 	C 	0.9227	0.7429	0.744	-0.052
Mof_C 	C 	0.9052	0.7069	0.8465	-0.056
Mof_C 	C 	0.9151	0.6019	0.814	-0.085
Mof_C 	C 	0.8413	0.6706	0.7639	-0.027
Mof_C 	C 	0.9944	0.6741	0.7929	-0.007
Mof_C 	C 	0.9337	0.6375	0.7094	-0.039
Mof_C 	C 	0.5773	0.2571	0.244	-0.052
Mof_C 	C 	0.5948	0.2931	0.3465	-0.056
Mof_C 	C 	0.5849	0.3981	0.314	-0.085
Mof_C 	C 	0.6587	0.3294	0.2639	-0.027
Mof_C 	C 	0.5056	0.3259	0.2929	-0.018
Mof_C 	C 	0.5663	0.3625	0.2094	-0.039
Mof_C 	C 	0.756	0.0773	0.2429	-0.052
Mof_C 	C 	0.6535	0.0948	0.2069	-0.056
Mof_C 	C 	0.686	0.0849	0.1019	-0.085
Mof_C 	C 	0.7361	0.1587	0.1706	-0.027
Mof_C 	C 	0.7071	0.0056	0.1741	-0.015
Mof_C 	C 	0.7906	0.0663	0.1375	-0.038
Mof_C 	C 	0.256	0.4227	0.7571	-0.052
Mof_C 	C 	0.1535	0.4052	0.7931	-0.056
Mof_C 	C 	0.186	0.4151	0.8981	-0.085
Mof_C 	C 	0.2361	0.3413	0.8294	-0.027
Mof_C 	C 	0.2071	0.4944	0.8259	-0.017
Mof_C 	C 	0.2906	0.4337	0.8625	-0.039
Mof_C 	C 	0.744	0.9227	0.7429	-0.052
Mof_C 	C 	0.8465	0.9052	0.7069	-0.056
Mof_C 	C 	0.814	0.9151	0.6019	-0.085
Mof_C 	C 	0.7639	0.8413	0.6706	-0.027
Mof_C 	C 	0.7929	0.9944	0.6741	-0.007
Mof_C 	C 	0.7094	0.9337	0.6375	-0.039
Mof_C 	C 	0.244	0.5773	0.2571	-0.052
Mof_C 	C 	0.3465	0.5948	0.2931	-0.056
Mof_C 	C 	0.314	0.5849	0.3981	-0.085
Mof_C 	C 	0.2639	0.6587	0.3294	-0.027
Mof_C 	C 	0.2929	0.5056	0.3259	-0.018
Mof_C 	C 	0.2094	0.5663	0.3625	-0.039
Mof_C 	C 	0.2429	0.756	0.0773	-0.052
Mof_C 	C 	0.2069	0.6535	0.0948	-0.056
Mof_C 	C 	0.1019	0.686	0.0849	-0.085
Mof_C 	C 	0.1706	0.7361	0.1587	-0.027
Mof_C 	C 	0.1741	0.7071	0.0056	-0.015
Mof_C 	C 	0.1375	0.7906	0.0663	-0.038
Mof_C 	C 	0.7571	0.256	0.4227	-0.052
Mof_C 	C 	0.7931	0.1535	0.4052	-0.056
Mof_C 	C 	0.8981	0.186	0.4151	-0.085
Mof_C 	C 	0.8294	0.2361	0.3413	-0.027
Mof_C 	C 	0.8259	0.2071	0.4944	-0.017
Mof_C 	C 	0.8625	0.2906	0.4337	-0.039
Mof_C 	C 	0.7429	0.744	0.9227	-0.052
Mof_C 	C 	0.7069	0.8465	0.9052	-0.056
Mof_C 	C 	0.6019	0.814	0.9151	-0.085
Mof_C 	C 	0.6706	0.7639	0.8413	-0.027
Mof_C 	C 	0.6741	0.7929	0.9944	-0.007
Mof_C 	C 	0.6375	0.7094	0.9337	-0.039
Mof_C 	C 	0.2571	0.244	0.5773	-0.052
Mof_C 	C 	0.2931	0.3465	0.5948	-0.056
Mof_C 	C 	0.3981	0.314	0.5849	-0.085
Mof_C 	C 	0.3294	0.2639	0.6587	-0.027
Mof_C 	C 	0.3259	0.2929	0.5056	-0.018
Mof_C 	C 	0.3625	0.2094	0.5663	-0.039
Mof_N 	N 	0.9484	0.845	0.3379	-0.043
Mof_N 	N 	0.8857	0.8821	0.2543	-0.139
Mof_N 	N 	0.8747	0.7756	0.2884	-0.134
Mof_N 	N 	0.9673	0.8087	0.2344	-0.145
Mof_N 	N 	0.5516	0.155	0.8379	-0.043
Mof_N 	N 	0.6143	0.1179	0.7543	-0.139
Mof_N 	N 	0.6253	0.2244	0.7884	-0.134
Mof_N 	N 	0.5327	0.1913	0.7344	-0.145
Mof_N 	N 	0.0516	0.345	0.1621	-0.044
Mof_N 	N 	0.1143	0.3821	0.2457	-0.139
Mof_N 	N 	0.1253	0.2756	0.2116	-0.134
Mof_N 	N 	0.0327	0.3087	0.2656	-0.145
Mof_N 	N 	0.4484	0.655	0.6621	-0.043
Mof_N 	N 	0.3857	0.6179	0.7457	-0.139
Mof_N 	N 	0.3747	0.7244	0.7116	-0.133
Mof_N 	N 	0.4673	0.6913	0.7656	-0.145
Mof_N 	N 	0.3379	0.9484	0.845	-0.043
Mof_N 	N 	0.2543	0.8857	0.8821	-0.139
Mof_N 	N 	0.2884	0.8747	0.7756	-0.134
Mof_N 	N 	0.2344	0.9673	0.8087	-0.145
Mof_N 	N 	0.8379	0.5516	0.155	-0.043
Mof_N 	N 	0.7543	0.6143	0.1179	-0.139
Mof_N 	N 	0.7884	0.6253	0.2244	-0.134
Mof_N 	N 	0.7344	0.5327	0.1913	-0.145
Mof_N 	N 	0.1621	0.0516	0.345	-0.044
Mof_N 	N 	0.2457	0.1143	0.3821	-0.139
Mof_N 	N 	0.2116	0.1253	0.2756	-0.134
Mof_N 	N 	0.2656	0.0327	0.3087	-0.145
Mof_N 	N 	0.6621	0.4484	0.655	-0.043
Mof_N 	N 	0.7457	0.3857	0.6179	-0.139
Mof_N 	N 	0.7116	0.3747	0.7244	-0.133
Mof_N 	N 	0.7656	0.4673	0.6913	-0.145
Mof_N 	N 	0.845	0.3379	0.9484	-0.043
Mof_N 	N 	0.8821	0.2543	0.8857	-0.139
Mof_N 	N 	0.7756	0.2884	0.8747	-0.134
Mof_N 	N 	0.8087	0.2344	0.9673	-0.145
Mof_N 	N 	0.155	0.8379	0.5516	-0.043
Mof_N 	N 	0.1179	0.7543	0.6143	-0.139
Mof_N 	N 	0.2244	0.7884	0.6253	-0.134
Mof_N 	N 	0.1913	0.7344	0.5327	-0.145
Mof_N 	N 	0.345	0.1621	0.0516	-0.044
Mof_N 	N 	0.3821	0.2457	0.1143	-0.139
Mof_N 	N 	0.2756	0.2116	0.1253	-0.134
Mof_N 	N 	0.3087	0.2656	0.0327	-0.145
Mof_N 	N 	0.655	0.6621	0.4484	-0.043
Mof_N 	N 	0.6179	0.7457	0.3857	-0.139
Mof_N 	N 	0.7244	0.7116	0.3747	-0.133
Mof_N 	N 	0.6913	0.7656	0.4673	-0.145
Mof_N 	N 	0.0516	0.155	0.6621	-0.043
Mof_N 	N 	0.1143	0.1179	0.7457	-0.139
Mof_N 	N 	0.1253	0.2244	0.7116	-0.134
Mof_N 	N 	0.0327	0.1913	0.7656	-0.145
Mof_N 	N 	0.4484	0.845	0.1621	-0.043
Mof_N 	N 	0.3857	0.8821	0.2457	-0.139
Mof_N 	N 	0.3747	0.7756	0.2116	-0.134
Mof_N 	N 	0.4673	0.8087	0.2656	-0.145
Mof_N 	N 	0.9484	0.655	0.8379	-0.044
Mof_N 	N 	0.8857	0.6179	0.7543	-0.139
Mof_N 	N 	0.8747	0.7244	0.7884	-0.134
Mof_N 	N 	0.9673	0.6913	0.7344	-0.145
Mof_N 	N 	0.5516	0.345	0.3379	-0.043
Mof_N 	N 	0.6143	0.3821	0.2543	-0.139
Mof_N 	N 	0.6253	0.2756	0.2884	-0.133
Mof_N 	N 	0.5327	0.3087	0.2344	-0.145
Mof_N 	N 	0.6621	0.0516	0.155	-0.043
Mof_N 	N 	0.7457	0.1143	0.1179	-0.139
Mof_N 	N 	0.7116	0.1253	0.2244	-0.134
Mof_N 	N 	0.7656	0.0327	0.1913	-0.145
Mof_N 	N 	0.1621	0.4484	0.845	-0.043
Mof_N 	N 	0.2457	0.3857	0.8821	-0.139
Mof_N 	N 	0.2116	0.3747	0.7756	-0.134
Mof_N 	N 	0.2656	0.4673	0.8087	-0.145
Mof_N 	N 	0.8379	0.9484	0.655	-0.044
Mof_N 	N 	0.7543	0.8857	0.6179	-0.139
Mof_N 	N 	0.7884	0.8747	0.7244	-0.134
Mof_N 	N 	0.7344	0.9673	0.6913	-0.145
Mof_N 	N 	0.3379	0.5516	0.345	-0.043
Mof_N 	N 	0.2543	0.6143	0.3821	-0.139
Mof_N 	N 	0.2884	0.6253	0.2756	-0.133
Mof_N 	N 	0.2344	0.5327	0.3087	-0.145
Mof_N 	N 	0.155	0.6621	0.0516	-0.043
Mof_N 	N 	0.1179	0.7457	0.1143	-0.139
Mof_N 	N 	0.2244	0.7116	0.1253	-0.134
Mof_N 	N 	0.1913	0.7656	0.0327	-0.145
Mof_N 	N 	0.845	0.1621	0.4484	-0.043
Mof_N 	N 	0.8821	0.2457	0.3857	-0.139
Mof_N 	N 	0.7756	0.2116	0.3747	-0.134
Mof_N 	N 	0.8087	0.2656	0.4673	-0.145
Mof_N 	N 	0.655	0.8379	0.9484	-0.044
Mof_N 	N 	0.6179	0.7543	0.8857	-0.139
Mof_N 	N 	0.7244	0.7884	0.8747	-0.134
Mof_N 	N 	0.6913	0.7344	0.9673	-0.145
Mof_N 	N 	0.345	0.3379	0.5516	-0.043
Mof_N 	N 	0.3821	0.2543	0.6143	-0.139
Mof_N 	N 	0.2756	0.2884	0.6253	-0.133
Mof_N 	N 	0.3087	0.2344	0.5327	-0.145
Mof_P 	P 	0.9093	0.7598	0.5397	1.171
Mof_F 	F 	0.9657	0.7782	0.4991	-0.386
Mof_F 	F 	0.8551	0.7428	0.5812	-0.453
Mof_F 	F 	0.9512	0.7098	0.5706	-0.438
Mof_F 	F 	0.8876	0.7147	0.4895	-0.406
Mof_F 	F 	0.9314	0.808	0.5894	-0.392
Mof_F 	F 	0.8702	0.8106	0.5083	-0.404
Mof_P 	P 	0.5907	0.2402	0.0397	1.172
Mof_F 	F 	0.5343	0.2218	0.9991	-0.387
Mof_F 	F 	0.6449	0.2572	0.0812	-0.453
Mof_F 	F 	0.5488	0.2902	0.0706	-0.439
Mof_F 	F 	0.6124	0.2853	0.9895	-0.407
Mof_F 	F 	0.5686	0.192	0.0894	-0.393
Mof_F 	F 	0.6298	0.1894	0.0083	-0.404
Mof_P 	P 	0.0907	0.2598	0.9603	1.167
Mof_F 	F 	0.0343	0.2782	0.0009	-0.383
Mof_F 	F 	0.1449	0.2428	0.9188	-0.453
Mof_F 	F 	0.0488	0.2098	0.9294	-0.44
Mof_F 	F 	0.1124	0.2147	0.0105	-0.404
Mof_F 	F 	0.0686	0.308	0.9106	-0.393
Mof_F 	F 	0.1298	0.3106	0.9917	-0.405
Mof_P 	P 	0.4093	0.7402	0.4603	1.171
Mof_F 	F 	0.4657	0.7218	0.5009	-0.386
Mof_F 	F 	0.3551	0.7572	0.4188	-0.453
Mof_F 	F 	0.4512	0.7902	0.4294	-0.439
Mof_F 	F 	0.3876	0.7853	0.5105	-0.406
Mof_F 	F 	0.4314	0.692	0.4106	-0.393
Mof_F 	F 	0.3702	0.6894	0.4917	-0.404
Mof_P 	P 	0.5397	0.9093	0.7598	1.171
Mof_F 	F 	0.4991	0.9657	0.7782	-0.386
Mof_F 	F 	0.5812	0.8551	0.7428	-0.453
Mof_F 	F 	0.5706	0.9512	0.7098	-0.438
Mof_F 	F 	0.4895	0.8876	0.7147	-0.406
Mof_F 	F 	0.5894	0.9314	0.808	-0.392
Mof_F 	F 	0.5083	0.8702	0.8106	-0.404
Mof_P 	P 	0.0397	0.5907	0.2402	1.172
Mof_F 	F 	0.9991	0.5343	0.2218	-0.387
Mof_F 	F 	0.0812	0.6449	0.2572	-0.453
Mof_F 	F 	0.0706	0.5488	0.2902	-0.439
Mof_F 	F 	0.9895	0.6124	0.2853	-0.407
Mof_F 	F 	0.0894	0.5686	0.192	-0.393
Mof_F 	F 	0.0083	0.6298	0.1894	-0.404
Mof_P 	P 	0.9603	0.0907	0.2598	1.167
Mof_F 	F 	0.0009	0.0343	0.2782	-0.383
Mof_F 	F 	0.9188	0.1449	0.2428	-0.453
Mof_F 	F 	0.9294	0.0488	0.2098	-0.44
Mof_F 	F 	0.0105	0.1124	0.2147	-0.404
Mof_F 	F 	0.9106	0.0686	0.308	-0.393
Mof_F 	F 	0.9917	0.1298	0.3106	-0.405
Mof_P 	P 	0.4603	0.4093	0.7402	1.171
Mof_F 	F 	0.5009	0.4657	0.7218	-0.386
Mof_F 	F 	0.4188	0.3551	0.7572	-0.453
Mof_F 	F 	0.4294	0.4512	0.7902	-0.439
Mof_F 	F 	0.5105	0.3876	0.7853	-0.406
Mof_F 	F 	0.4106	0.4314	0.692	-0.393
Mof_F 	F 	0.4917	0.3702	0.6894	-0.404
Mof_P 	P 	0.7598	0.5397	0.9093	1.171
Mof_F 	F 	0.7782	0.4991	0.9657	-0.386
Mof_F 	F 	0.7428	0.5812	0.8551	-0.453
Mof_F 	F 	0.7098	0.5706	0.9512	-0.438
Mof_F 	F 	0.7147	0.4895	0.8876	-0.406
Mof_F 	F 	0.808	0.5894	0.9314	-0.392
Mof_F 	F 	0.8106	0.5083	0.8702	-0.404
Mof_P 	P 	0.2402	0.0397	0.5907	1.172
Mof_F 	F 	0.2218	0.9991	0.5343	-0.387
Mof_F 	F 	0.2572	0.0812	0.6449	-0.453
Mof_F 	F 	0.2902	0.0706	0.5488	-0.439
Mof_F 	F 	0.2853	0.9895	0.6124	-0.407
Mof_F 	F 	0.192	0.0894	0.5686	-0.393
Mof_F 	F 	0.1894	0.0083	0.6298	-0.404
Mof_P 	P 	0.2598	0.9603	0.0907	1.167
Mof_F 	F 	0.2782	0.0009	0.0343	-0.383
Mof_F 	F 	0.2428	0.9188	0.1449	-0.453
Mof_F 	F 	0.2098	0.9294	0.0488	-0.44
Mof_F 	F 	0.2147	0.0105	0.1124	-0.404
Mof_F 	F 	0.308	0.9106	0.0686	-0.393
Mof_F 	F 	0.3106	0.9917	0.1298	-0.405
Mof_P 	P 	0.7402	0.4603	0.4093	1.171
Mof_F 	F 	0.7218	0.5009	0.4657	-0.386
Mof_F 	F 	0.7572	0.4188	0.3551	-0.453
Mof_F 	F 	0.7902	0.4294	0.4512	-0.439
Mof_F 	F 	0.7853	0.5105	0.3876	-0.406
Mof_F 	F 	0.692	0.4106	0.4314	-0.393
Mof_F 	F 	0.6894	0.4917	0.3702	-0.404
Mof_P 	P 	0.0907	0.2402	0.4603	1.171
Mof_F 	F 	0.0343	0.2218	0.5009	-0.386
Mof_F 	F 	0.1449	0.2572	0.4188	-0.453
Mof_F 	F 	0.0488	0.2902	0.4294	-0.438
Mof_F 	F 	0.1124	0.2853	0.5105	-0.406
Mof_F 	F 	0.0686	0.192	0.4106	-0.392
Mof_F 	F 	0.1298	0.1894	0.4917	-0.404
Mof_P 	P 	0.4093	0.7598	0.9603	1.172
Mof_F 	F 	0.4657	0.7782	0.0009	-0.387
Mof_F 	F 	0.3551	0.7428	0.9188	-0.453
Mof_F 	F 	0.4512	0.7098	0.9294	-0.439
Mof_F 	F 	0.3876	0.7147	0.0105	-0.407
Mof_F 	F 	0.4314	0.808	0.9106	-0.393
Mof_F 	F 	0.3702	0.8106	0.9917	-0.404
Mof_P 	P 	0.9093	0.7402	0.0397	1.167
Mof_F 	F 	0.9657	0.7218	0.9991	-0.383
Mof_F 	F 	0.8551	0.7572	0.0812	-0.453
Mof_F 	F 	0.9512	0.7902	0.0706	-0.44
Mof_F 	F 	0.8876	0.7853	0.9895	-0.404
Mof_F 	F 	0.9314	0.692	0.0894	-0.393
Mof_F 	F 	0.8702	0.6894	0.0083	-0.405
Mof_P 	P 	0.5907	0.2598	0.5397	1.171
Mof_F 	F 	0.5343	0.2782	0.4991	-0.386
Mof_F 	F 	0.6449	0.2428	0.5812	-0.453
Mof_F 	F 	0.5488	0.2098	0.5706	-0.439
Mof_F 	F 	0.6124	0.2147	0.4895	-0.406
Mof_F 	F 	0.5686	0.308	0.5894	-0.393
Mof_F 	F 	0.6298	0.3106	0.5083	-0.404
Mof_P 	P 	0.4603	0.0907	0.2402	1.171
Mof_F 	F 	0.5009	0.0343	0.2218	-0.386
Mof_F 	F 	0.4188	0.1449	0.2572	-0.453
Mof_F 	F 	0.4294	0.0488	0.2902	-0.438
Mof_F 	F 	0.5105	0.1124	0.2853	-0.406
Mof_F 	F 	0.4106	0.0686	0.192	-0.392
Mof_F 	F 	0.4917	0.1298	0.1894	-0.404
Mof_P 	P 	0.9603	0.4093	0.7598	1.172
Mof_F 	F 	0.0009	0.4657	0.7782	-0.387
Mof_F 	F 	0.9188	0.3551	0.7428	-0.453
Mof_F 	F 	0.9294	0.4512	0.7098	-0.439
Mof_F 	F 	0.0105	0.3876	0.7147	-0.407
Mof_F 	F 	0.9106	0.4314	0.808	-0.393
Mof_F 	F 	0.9917	0.3702	0.8106	-0.404
Mof_P 	P 	0.0397	0.9093	0.7402	1.167
Mof_F 	F 	0.9991	0.9657	0.7218	-0.383
Mof_F 	F 	0.0812	0.8551	0.7572	-0.453
Mof_F 	F 	0.0706	0.9512	0.7902	-0.44
Mof_F 	F 	0.9895	0.8876	0.7853	-0.404
Mof_F 	F 	0.0894	0.9314	0.692	-0.393
Mof_F 	F 	0.0083	0.8702	0.6894	-0.405
Mof_P 	P 	0.5397	0.5907	0.2598	1.171
Mof_F 	F 	0.4991	0.5343	0.2782	-0.386
Mof_F 	F 	0.5812	0.6449	0.2428	-0.453
Mof_F 	F 	0.5706	0.5488	0.2098	-0.439
Mof_F 	F 	0.4895	0.6124	0.2147	-0.406
Mof_F 	F 	0.5894	0.5686	0.308	-0.393
Mof_F 	F 	0.5083	0.6298	0.3106	-0.404
Mof_P 	P 	0.2402	0.4603	0.0907	1.171
Mof_F 	F 	0.2218	0.5009	0.0343	-0.386
Mof_F 	F 	0.2572	0.4188	0.1449	-0.453
Mof_F 	F 	0.2902	0.4294	0.0488	-0.438
Mof_F 	F 	0.2853	0.5105	0.1124	-0.406
Mof_F 	F 	0.192	0.4106	0.0686	-0.392
Mof_F 	F 	0.1894	0.4917	0.1298	-0.404
Mof_P 	P 	0.7598	0.9603	0.4093	1.172
Mof_F 	F 	0.7782	0.0009	0.4657	-0.387
Mof_F 	F 	0.7428	0.9188	0.3551	-0.453
Mof_F 	F 	0.7098	0.9294	0.4512	-0.439
Mof_F 	F 	0.7147	0.0105	0.3876	-0.407
Mof_F 	F 	0.808	0.9106	0.4314	-0.393
Mof_F 	F 	0.8106	0.9917	0.3702	-0.404
Mof_P 	P 	0.7402	0.0397	0.9093	1.167
Mof_F 	F 	0.7218	0.9991	0.9657	-0.383
Mof_F 	F 	0.7572	0.0812	0.8551	-0.453
Mof_F 	F 	0.7902	0.0706	0.9512	-0.44
Mof_F 	F 	0.7853	0.9895	0.8876	-0.404
Mof_F 	F 	0.692	0.0894	0.9314	-0.393
Mof_F 	F 	0.6894	0.0083	0.8702	-0.405
Mof_P 	P 	0.2598	0.5397	0.5907	1.171
Mof_F 	F 	0.2782	0.4991	0.5343	-0.386
Mof_F 	F 	0.2428	0.5812	0.6449	-0.453
Mof_F 	F 	0.2098	0.5706	0.5488	-0.439
Mof_F 	F 	0.2147	0.4895	0.6124	-0.406
Mof_F 	F 	0.308	0.5894	0.5686	-0.393
Mof_F 	F 	0.3106	0.5083	0.6298	-0.404
_end
