data_functionalizedCrystal
_audit_creation_method	'EQeq! by Chris Wilmer'
_symmetry_space_group_name_H-M	'P1'
_symmetry_Int_Tables_number	1
_symmetry_cell_setting	triclinic
loop_
_symmetry_equiv_pos_as_xyz
  x,y,z
_cell_length_a	18.1111
_cell_length_b	18.1111
_cell_length_c	11.2507
_cell_angle_alpha	90
_cell_angle_beta	90
_cell_angle_gamma	90
loop_
_atom_site_label
_atom_site_type_symbol
_atom_site_fract_x
_atom_site_fract_y
_atom_site_fract_z
_atom_site_charge
Mof_Zn	Zn	0.21145	0.42349	0.16977	1.192
Mof_C 	C 	0.2858	0.3467	0.3834	0.529
Mof_C 	C 	0.2202	0.3638	0.461	-0.617
Mof_H 	H 	0.1871	0.3217	0.4595	0.215
Mof_H 	H 	0.2376	0.3693	0.5421	0.21
Mof_C 	C 	0.1768	0.4312	0.4295	0.282
Mof_C 	C 	0.1082	0.5276	0.4458	0.11
Mof_C 	C 	0.0634	0.5868	0.4978	0.032
Mof_C 	C 	0.0439	0.5874	0.6169	-0.122
Mof_H 	H 	0.0579	0.5488	0.6665	0.059
Mof_C 	C 	0.0033	0.6461	0.6614	0.068
Mof_H 	H 	0.9913	0.6464	0.7418	-0.026
Mof_C 	C 	0.9978	0.7	0.4794	0.068
Mof_H 	H 	0.9813	0.7382	0.4309	-0.034
Mof_C 	C 	0.0385	0.6442	0.4279	-0.13
Mof_H 	H 	0.0489	0.6452	0.347	0.064
Mof_N 	N 	0.1677	0.4599	0.3236	-0.283
Mof_N 	N 	0.124	0.5222	0.3332	-0.13
Mof_N 	N 	0.1399	0.4722	0.5066	-0.262
Mof_H 	H 	0.1372	0.465	0.582	0.125
Mof_N 	N 	0.9813	0.7023	0.5942	-0.274
Mof_O 	O 	0.28962	0.36657	0.2781	-0.53
Mof_O 	O 	0.33578	0.30831	0.4324	-0.533
Mof_Zn	Zn	0.28855	0.07651	0.16977	1.191
Mof_C 	C 	0.2142	0.1533	0.3834	0.528
Mof_C 	C 	0.2798	0.1362	0.461	-0.618
Mof_H 	H 	0.3129	0.1783	0.4595	0.214
Mof_H 	H 	0.2624	0.1307	0.5421	0.209
Mof_C 	C 	0.3232	0.0688	0.4295	0.281
Mof_C 	C 	0.3918	0.9724	0.4458	0.109
Mof_C 	C 	0.4366	0.9132	0.4978	0.031
Mof_C 	C 	0.4561	0.9126	0.6169	-0.123
Mof_H 	H 	0.4421	0.9512	0.6665	0.059
Mof_C 	C 	0.4967	0.8539	0.6614	0.068
Mof_H 	H 	0.5087	0.8536	0.7418	-0.027
Mof_C 	C 	0.5022	0.8	0.4794	0.067
Mof_H 	H 	0.5187	0.7618	0.4309	-0.035
Mof_C 	C 	0.4615	0.8558	0.4279	-0.13
Mof_H 	H 	0.4511	0.8548	0.347	0.064
Mof_N 	N 	0.3323	0.0401	0.3236	-0.283
Mof_N 	N 	0.376	0.9778	0.3332	-0.13
Mof_N 	N 	0.3601	0.0278	0.5066	-0.262
Mof_H 	H 	0.3628	0.035	0.582	0.125
Mof_N 	N 	0.5187	0.7977	0.5942	-0.275
Mof_O 	O 	0.21038	0.13343	0.2781	-0.53
Mof_O 	O 	0.16422	0.19169	0.4324	-0.533
Mof_Zn	Zn	0.57651	0.71145	0.66977	1.191
Mof_C 	C 	0.6533	0.7858	0.8834	0.527
Mof_C 	C 	0.6362	0.7202	0.961	-0.617
Mof_H 	H 	0.6783	0.6871	0.9595	0.214
Mof_H 	H 	0.6307	0.7376	0.0421	0.208
Mof_C 	C 	0.5688	0.6768	0.9295	0.28
Mof_C 	C 	0.4724	0.6082	0.9458	0.109
Mof_C 	C 	0.4132	0.5634	0.9978	0.03
Mof_C 	C 	0.4126	0.5439	0.1169	-0.123
Mof_H 	H 	0.4512	0.5579	0.1665	0.058
Mof_C 	C 	0.3539	0.5033	0.1614	0.067
Mof_H 	H 	0.3536	0.4913	0.2418	-0.027
Mof_C 	C 	0.3	0.4978	0.9794	0.066
Mof_H 	H 	0.2618	0.4813	0.9309	-0.035
Mof_C 	C 	0.3558	0.5385	0.9279	-0.13
Mof_H 	H 	0.3548	0.5489	0.847	0.064
Mof_N 	N 	0.5401	0.6677	0.8236	-0.283
Mof_N 	N 	0.4778	0.624	0.8332	-0.13
Mof_N 	N 	0.5278	0.6399	0.0066	-0.263
Mof_H 	H 	0.535	0.6372	0.082	0.126
Mof_N 	N 	0.2977	0.4813	0.0942	-0.274
Mof_O 	O 	0.63343	0.78962	0.7781	-0.53
Mof_O 	O 	0.69169	0.83578	0.9324	-0.532
Mof_Zn	Zn	0.92349	0.78855	0.66977	1.191
Mof_C 	C 	0.8467	0.7142	0.8834	0.527
Mof_C 	C 	0.8638	0.7798	0.961	-0.617
Mof_H 	H 	0.8217	0.8129	0.9595	0.214
Mof_H 	H 	0.8693	0.7624	0.0421	0.208
Mof_C 	C 	0.9312	0.8232	0.9295	0.281
Mof_C 	C 	0.0276	0.8918	0.9458	0.11
Mof_C 	C 	0.0868	0.9366	0.9978	0.03
Mof_C 	C 	0.0874	0.9561	0.1169	-0.122
Mof_H 	H 	0.0488	0.9421	0.1665	0.058
Mof_C 	C 	0.1461	0.9967	0.1614	0.067
Mof_H 	H 	0.1464	0.0087	0.2418	-0.027
Mof_C 	C 	0.2	0.0022	0.9794	0.064
Mof_H 	H 	0.2382	0.0187	0.9309	-0.034
Mof_C 	C 	0.1442	0.9615	0.9279	-0.128
Mof_H 	H 	0.1452	0.9511	0.847	0.063
Mof_N 	N 	0.9599	0.8323	0.8236	-0.283
Mof_N 	N 	0.0222	0.876	0.8332	-0.13
Mof_N 	N 	0.9722	0.8601	0.0066	-0.263
Mof_H 	H 	0.965	0.8628	0.082	0.125
Mof_N 	N 	0.2023	0.0187	0.0942	-0.274
Mof_O 	O 	0.86657	0.71038	0.7781	-0.53
Mof_O 	O 	0.80831	0.66422	0.9324	-0.532
Mof_Zn	Zn	0.78855	0.57651	0.83023	1.191
Mof_C 	C 	0.7142	0.6533	0.6166	0.528
Mof_C 	C 	0.7798	0.6362	0.539	-0.618
Mof_H 	H 	0.8129	0.6783	0.5405	0.214
Mof_H 	H 	0.7624	0.6307	0.4579	0.209
Mof_C 	C 	0.8232	0.5688	0.5705	0.281
Mof_C 	C 	0.8918	0.4724	0.5542	0.109
Mof_C 	C 	0.9366	0.4132	0.5022	0.031
Mof_C 	C 	0.9561	0.4126	0.3831	-0.123
Mof_H 	H 	0.9421	0.4512	0.3335	0.058
Mof_C 	C 	0.9967	0.3539	0.3386	0.067
Mof_H 	H 	0.0087	0.3536	0.2582	-0.027
Mof_C 	C 	0.0022	0.3	0.5206	0.067
Mof_H 	H 	0.0187	0.2618	0.5691	-0.035
Mof_C 	C 	0.9615	0.3558	0.5721	-0.13
Mof_H 	H 	0.9511	0.3548	0.653	0.064
Mof_N 	N 	0.8323	0.5401	0.6764	-0.283
Mof_N 	N 	0.876	0.4778	0.6668	-0.13
Mof_N 	N 	0.8601	0.5278	0.4934	-0.262
Mof_H 	H 	0.8628	0.535	0.418	0.125
Mof_N 	N 	0.0187	0.2977	0.4058	-0.274
Mof_O 	O 	0.71038	0.63343	0.7219	-0.53
Mof_O 	O 	0.66422	0.69169	0.5676	-0.533
Mof_Zn	Zn	0.71145	0.92349	0.83023	1.191
Mof_C 	C 	0.7858	0.8467	0.6166	0.528
Mof_C 	C 	0.7202	0.8638	0.539	-0.618
Mof_H 	H 	0.6871	0.8217	0.5405	0.214
Mof_H 	H 	0.7376	0.8693	0.4579	0.209
Mof_C 	C 	0.6768	0.9312	0.5705	0.281
Mof_C 	C 	0.6082	0.0276	0.5542	0.109
Mof_C 	C 	0.5634	0.0868	0.5022	0.031
Mof_C 	C 	0.5439	0.0874	0.3831	-0.123
Mof_H 	H 	0.5579	0.0488	0.3335	0.059
Mof_C 	C 	0.5033	0.1461	0.3386	0.068
Mof_H 	H 	0.4913	0.1464	0.2582	-0.027
Mof_C 	C 	0.4978	0.2	0.5206	0.067
Mof_H 	H 	0.4813	0.2382	0.5691	-0.035
Mof_C 	C 	0.5385	0.1442	0.5721	-0.13
Mof_H 	H 	0.5489	0.1452	0.653	0.064
Mof_N 	N 	0.6677	0.9599	0.6764	-0.283
Mof_N 	N 	0.624	0.0222	0.6668	-0.13
Mof_N 	N 	0.6399	0.9722	0.4934	-0.262
Mof_H 	H 	0.6372	0.965	0.418	0.125
Mof_N 	N 	0.4813	0.2023	0.4058	-0.275
Mof_O 	O 	0.78962	0.86657	0.7219	-0.53
Mof_O 	O 	0.83578	0.80831	0.5676	-0.533
Mof_Zn	Zn	0.42349	0.28855	0.33023	1.191
Mof_C 	C 	0.3467	0.2142	0.1166	0.527
Mof_C 	C 	0.3638	0.2798	0.039	-0.617
Mof_H 	H 	0.3217	0.3129	0.0405	0.214
Mof_H 	H 	0.3693	0.2624	0.9579	0.208
Mof_C 	C 	0.4312	0.3232	0.0705	0.28
Mof_C 	C 	0.5276	0.3918	0.0542	0.109
Mof_C 	C 	0.5868	0.4366	0.0022	0.03
Mof_C 	C 	0.5874	0.4561	0.8831	-0.123
Mof_H 	H 	0.5488	0.4421	0.8335	0.058
Mof_C 	C 	0.6461	0.4967	0.8386	0.067
Mof_H 	H 	0.6464	0.5087	0.7582	-0.027
Mof_C 	C 	0.7	0.5022	0.0206	0.066
Mof_H 	H 	0.7382	0.5187	0.0691	-0.035
Mof_C 	C 	0.6442	0.4615	0.0721	-0.13
Mof_H 	H 	0.6452	0.4511	0.153	0.064
Mof_N 	N 	0.4599	0.3323	0.1764	-0.283
Mof_N 	N 	0.5222	0.376	0.1668	-0.13
Mof_N 	N 	0.4722	0.3601	0.9934	-0.263
Mof_H 	H 	0.465	0.3628	0.918	0.126
Mof_N 	N 	0.7023	0.5187	0.9058	-0.274
Mof_O 	O 	0.36657	0.21038	0.2219	-0.53
Mof_O 	O 	0.30831	0.16422	0.0676	-0.532
Mof_Zn	Zn	0.07651	0.21145	0.33023	1.191
Mof_C 	C 	0.1533	0.2858	0.1166	0.527
Mof_C 	C 	0.1362	0.2202	0.039	-0.617
Mof_H 	H 	0.1783	0.1871	0.0405	0.214
Mof_H 	H 	0.1307	0.2376	0.9579	0.208
Mof_C 	C 	0.0688	0.1768	0.0705	0.281
Mof_C 	C 	0.9724	0.1082	0.0542	0.11
Mof_C 	C 	0.9132	0.0634	0.0022	0.03
Mof_C 	C 	0.9126	0.0439	0.8831	-0.122
Mof_H 	H 	0.9512	0.0579	0.8335	0.058
Mof_C 	C 	0.8539	0.0033	0.8386	0.067
Mof_H 	H 	0.8536	0.9913	0.7582	-0.027
Mof_C 	C 	0.8	0.9978	0.0206	0.064
Mof_H 	H 	0.7618	0.9813	0.0691	-0.034
Mof_C 	C 	0.8558	0.0385	0.0721	-0.128
Mof_H 	H 	0.8548	0.0489	0.153	0.063
Mof_N 	N 	0.0401	0.1677	0.1764	-0.283
Mof_N 	N 	0.9778	0.124	0.1668	-0.13
Mof_N 	N 	0.0278	0.1399	0.9934	-0.263
Mof_H 	H 	0.035	0.1372	0.918	0.125
Mof_N 	N 	0.7977	0.9813	0.9058	-0.274
Mof_O 	O 	0.13343	0.28962	0.2219	-0.53
Mof_O 	O 	0.19169	0.33578	0.0676	-0.532
_end
