data_functionalizedCrystal
_audit_creation_method	'EQeq! by Chris Wilmer'
_symmetry_space_group_name_H-M	'P1'
_symmetry_Int_Tables_number	1
_symmetry_cell_setting	triclinic
loop_
_symmetry_equiv_pos_as_xyz
  x,y,z
_cell_length_a	19.7451
_cell_length_b	20.1818
_cell_length_c	30.2868
_cell_angle_alpha	90
_cell_angle_beta	90
_cell_angle_gamma	90.688
loop_
_atom_site_label
_atom_site_type_symbol
_atom_site_fract_x
_atom_site_fract_y
_atom_site_fract_z
_atom_site_charge
Mof_Zn	Zn	0.55232	0.27224	0.82118	1.219
Mof_Zn	Zn	0.45187	0.31891	0.92594	1.25
Mof_Zn	Zn	0.05529	0.38718	0.17646	1.219
Mof_Zn	Zn	0.05232	0.27224	0.67882	1.22
Mof_Zn	Zn	0.55529	0.38718	0.32354	1.219
Mof_Zn	Zn	0.9511	0.3391	0.07348	1.218
Mof_Zn	Zn	0.4511	0.3391	0.42652	1.218
Mof_Zn	Zn	0.95187	0.31891	0.57406	1.252
Mof_H 	H 	0.1077	0.0564	0.1754	0.136
Mof_H 	H 	0.1489	0.735	0.6568	0.066
Mof_H 	H 	0.8714	0.8959	0.5788	0.024
Mof_H 	H 	0.0349	0.8736	0.0213	0.067
Mof_H 	H 	0.5441	0.1963	0.9538	-0.018
Mof_H 	H 	0.8764	0.2239	0.1184	0.012
Mof_H 	H 	0.0463	0.4566	0.046	-0.018
Mof_H 	H 	0.1662	0.8544	0.1607	0.036
Mof_H 	H 	0.7294	0.2865	0.8869	0.05
Mof_H 	H 	0.9524	0.1485	0.6881	-0.017
Mof_H 	H 	0.3585	0.2011	0.9114	-0.017
Mof_H 	H 	0.5456	0.1009	0.43	0.086
Mof_H 	H 	0.9089	0.0086	0.0945	0.134
Mof_H 	H 	0.341	0.8007	0.4118	0.069
Mof_H 	H 	0.4031	0.9868	0.9263	0.14
Mof_H 	H 	0.9703	0.2615	0.2118	-0.01
Mof_H 	H 	0.8313	0.2955	0.9244	0.073
Mof_H 	H 	0.0456	0.1009	0.07	0.076
Mof_H 	H 	0.8606	0.4594	0.0901	-0.017
Mof_H 	H 	0.3676	0.1108	0.3784	0.051
Mof_H 	H 	0.1419	0.9659	0.1664	0.02
Mof_H 	H 	0.0492	0.5477	0.5425	0.118
Mof_H 	H 	0.9326	0.8041	0.6892	0.056
Mof_H 	H 	0.0245	0.2171	0.0338	0.006
Mof_H 	H 	0.6662	0.8544	0.3393	0.035
Mof_H 	H 	0.8455	0.7835	0.5852	0.07
Mof_H 	H 	0.8786	0.801	0.124	0.03
Mof_H 	H 	0.855	0.1091	0.0951	0.051
Mof_H 	H 	0.3297	0.3605	0.076	0.085
Mof_H 	H 	0.355	0.1091	0.4049	0.05
Mof_H 	H 	0.3727	0.5518	0.8926	0.12
Mof_H 	H 	0.2356	0.3249	0.4621	0.076
Mof_H 	H 	0.6376	0.155	0.8516	-0.015
Mof_H 	H 	0.8735	0.3865	0.2552	0.048
Mof_H 	H 	0.4727	0.1491	0.2862	0.134
Mof_H 	H 	0.1435	0.5076	0.1527	-0.012
Mof_H 	H 	0.368	0.9144	0.4113	0.046
Mof_H 	H 	0.1438	0.0441	0.6473	0.12
Mof_H 	H 	0.5492	0.5477	0.9575	0.118
Mof_H 	H 	0.2294	0.2865	0.6131	0.05
Mof_H 	H 	0.9794	0.8076	0.1954	0.038
Mof_H 	H 	0.0626	0.8543	0.5521	0.045
Mof_H 	H 	0.8297	0.3605	0.424	0.085
Mof_H 	H 	0.1368	0.8559	0.1288	0.045
Mof_H 	H 	0.0441	0.1963	0.5462	-0.018
Mof_H 	H 	0.2875	0.3497	0.3626	0.047
Mof_H 	H 	0.9031	0.9868	0.5737	0.138
Mof_H 	H 	0.2581	0.2425	0.719	0.074
Mof_H 	H 	0.3764	0.2239	0.3816	0.013
Mof_H 	H 	0.6435	0.5076	0.3473	-0.012
Mof_H 	H 	0.5468	0.2136	0.4365	0.024
Mof_H 	H 	0.3606	0.4594	0.4099	-0.018
Mof_H 	H 	0.1333	0.3122	0.9988	0.042
Mof_H 	H 	0.7581	0.2425	0.781	0.074
Mof_H 	H 	0.9519	0.0352	0.6886	0.145
Mof_H 	H 	0.4703	0.2615	0.2882	-0.011
Mof_H 	H 	0.0468	0.2136	0.0635	0.017
Mof_H 	H 	0.6103	0.9665	0.3622	0.037
Mof_H 	H 	0.9709	0.9184	0.2286	0.033
Mof_H 	H 	0.4916	0.808	0.2797	0.018
Mof_H 	H 	0.8512	0.0889	0.5871	0.115
Mof_H 	H 	0.4709	0.9184	0.2714	0.031
Mof_H 	H 	0.6456	0.6233	0.3466	0.142
Mof_H 	H 	0.636	0.3946	0.8475	-0.017
Mof_H 	H 	0.7678	0.3889	0.2881	0.074
Mof_H 	H 	0.7369	0.3054	0.5357	0.079
Mof_H 	H 	0.5398	0.7428	0.9409	0.081
Mof_H 	H 	0.9572	0.6927	0.6852	0.067
Mof_H 	H 	0.8711	0.4394	0.6068	0.017
Mof_H 	H 	0.1301	0.5094	0.6472	0.139
Mof_H 	H 	0.4537	0.9188	0.2953	0.038
Mof_H 	H 	0.1323	0.3222	0.4986	0.048
Mof_H 	H 	0.1806	0.2965	0.8358	0.078
Mof_H 	H 	0.868	0.9144	0.0887	0.042
Mof_H 	H 	0.136	0.3946	0.6525	-0.017
Mof_H 	H 	0.9048	0.9123	0.1201	0.01
Mof_H 	H 	0.9916	0.808	0.2203	0.017
Mof_H 	H 	0.4502	0.6161	0.3106	0.134
Mof_H 	H 	0.3313	0.2955	0.5756	0.072
Mof_H 	H 	0.7885	0.3053	0.6348	0.044
Mof_H 	H 	0.3735	0.3865	0.2448	0.048
Mof_H 	H 	0.8727	0.5518	0.6074	0.12
Mof_H 	H 	0.7875	0.3497	0.1374	0.047
Mof_H 	H 	0.6806	0.2965	0.6642	0.079
Mof_H 	H 	0.5609	0.8712	0.4347	0.032
Mof_H 	H 	0.5033	0.6681	0.4443	0.16
Mof_H 	H 	0.0609	0.8712	0.0653	0.024
Mof_H 	H 	0.3711	0.4394	0.8932	0.017
Mof_H 	H 	0.5626	0.8543	0.9479	0.045
Mof_H 	H 	0.0041	0.7152	0.1865	0.162
Mof_H 	H 	0.4536	0.5031	0.3121	-0.013
Mof_H 	H 	0.0513	0.5693	0.0438	0.127
Mof_H 	H 	0.0965	0.9412	0.6662	0.141
Mof_H 	H 	0.4794	0.8076	0.3046	0.04
Mof_H 	H 	0.0398	0.7428	0.5591	0.08
Mof_H 	H 	0.1456	0.6233	0.1534	0.143
Mof_H 	H 	0.6301	0.5094	0.8528	0.14
Mof_H 	H 	0.0373	0.7628	0.0671	0.027
Mof_H 	H 	0.5965	0.9412	0.8338	0.141
Mof_H 	H 	0.1264	0.8476	0.6644	0.03
Mof_H 	H 	0.7356	0.3249	0.0379	0.077
Mof_H 	H 	0.4326	0.8041	0.8108	0.056
Mof_H 	H 	0.1815	0.362	0.3312	0.075
Mof_H 	H 	0.3512	0.0889	0.9129	0.115
Mof_H 	H 	0.996	0.6003	0.6951	0.165
Mof_H 	H 	0.4524	0.1485	0.8119	-0.018
Mof_H 	H 	0.496	0.6003	0.8049	0.166
Mof_H 	H 	0.4572	0.6927	0.8148	0.067
Mof_H 	H 	0.1376	0.155	0.6484	-0.015
Mof_H 	H 	0.9502	0.6161	0.1894	0.134
Mof_H 	H 	0.6489	0.735	0.8432	0.066
Mof_H 	H 	0.5463	0.4566	0.454	-0.018
Mof_H 	H 	0.4048	0.9123	0.3799	0.008
Mof_H 	H 	0.2263	0.3691	0.1115	0.044
Mof_H 	H 	0.6438	0.0441	0.8527	0.122
Mof_H 	H 	0.2885	0.3053	0.8652	0.044
Mof_H 	H 	0.6077	0.0564	0.3246	0.137
Mof_H 	H 	0.0256	0.1035	0.0321	0.08
Mof_H 	H 	0.9536	0.5031	0.1879	-0.014
Mof_H 	H 	0.5139	0.765	0.471	0.058
Mof_H 	H 	0.4089	0.0086	0.4055	0.134
Mof_H 	H 	0.4572	0.3818	0.9215	-0.221
Mof_H 	H 	0.3455	0.7835	0.9148	0.07
Mof_H 	H 	0.7263	0.3691	0.3885	0.044
Mof_H 	H 	0.0434	0.0833	0.545	0.147
Mof_H 	H 	0.5373	0.7628	0.4329	0.029
Mof_H 	H 	0.8585	0.2011	0.5886	-0.017
Mof_H 	H 	0.9695	0.3854	0.7205	-0.013
Mof_H 	H 	0.6419	0.9659	0.3336	0.018
Mof_H 	H 	0.5434	0.0833	0.955	0.147
Mof_H 	H 	0.0434	0.4355	0.544	0.026
Mof_H 	H 	0.6333	0.3122	0.5012	0.044
Mof_H 	H 	0.4519	0.0352	0.8114	0.146
Mof_H 	H 	0.3562	0.2157	0.4035	0.009
Mof_H 	H 	0.9593	0.4982	0.7196	0.124
Mof_H 	H 	0.5256	0.1035	0.4679	0.071
Mof_H 	H 	0.6264	0.8476	0.8356	0.03
Mof_H 	H 	0.841	0.8007	0.0882	0.065
Mof_H 	H 	0.5513	0.5693	0.4562	0.127
Mof_H 	H 	0.6323	0.3222	0.0014	0.047
Mof_H 	H 	0.6368	0.8559	0.3712	0.046
Mof_H 	H 	0.3654	0.2464	0.7491	0.044
Mof_H 	H 	0.3786	0.801	0.376	0.026
Mof_H 	H 	0.9572	0.3818	0.5785	-0.221
Mof_H 	H 	0.5349	0.8736	0.4787	0.058
Mof_H 	H 	0.1103	0.9665	0.1378	0.037
Mof_H 	H 	0.3603	0.5721	0.4094	0.142
Mof_H 	H 	0.0033	0.6681	0.0557	0.16
Mof_H 	H 	0.4593	0.4982	0.7804	0.125
Mof_H 	H 	0.9537	0.9188	0.2047	0.035
Mof_H 	H 	0.8562	0.2157	0.0965	0.01
Mof_H 	H 	0.5434	0.4355	0.956	0.026
Mof_H 	H 	0.6815	0.362	0.1688	0.074
Mof_H 	H 	0.2369	0.3054	0.9643	0.08
Mof_H 	H 	0.4695	0.3854	0.7795	-0.014
Mof_H 	H 	0.5245	0.2171	0.4662	-0.002
Mof_H 	H 	0.9727	0.1491	0.2138	0.136
Mof_H 	H 	0.2678	0.3889	0.2119	0.074
Mof_H 	H 	0.3714	0.8959	0.9212	0.024
Mof_H 	H 	0.5041	0.7152	0.3135	0.161
Mof_H 	H 	0.8676	0.1108	0.1216	0.049
Mof_H 	H 	0.0139	0.765	0.029	0.063
Mof_H 	H 	0.8654	0.2464	0.7509	0.044
Mof_H 	H 	0.8603	0.5721	0.0906	0.142
Mof_C 	C 	0.9767	0.7911	0.6831	-0.008
Mof_C 	C 	0.1681	0.3436	0.0584	-0.114
Mof_C 	C 	0.4071	0.199	0.3977	0.031
Mof_C 	C 	0.4908	0.795	0.4533	-0.074
Mof_C 	C 	0.7834	0.3594	0.1673	0.01
Mof_C 	C 	0.5899	0.9345	0.3444	-0.03
Mof_C 	C 	0.6043	0.5299	0.3395	0.132
Mof_C 	C 	0.9488	0.0917	0.0822	0.18
Mof_C 	C 	0.7909	0.3005	0.9398	-0.053
Mof_C 	C 	0.0064	0.9096	0.6784	0.246
Mof_C 	C 	0.3986	0.5498	0.4187	-0.247
Mof_C 	C 	0.5219	0.025	0.3062	0.237
Mof_C 	C 	0.4968	0.1263	0.4492	-0.076
Mof_C 	C 	0.6693	0.3025	0.9404	-0.105
Mof_C 	C 	0.8894	0.7976	0.5788	-0.071
Mof_C 	C 	0.9263	0.8833	0.101	0.042
Mof_C 	C 	0.5123	0.5263	0.9446	-0.172
Mof_C 	C 	0.909	0.2849	0.6732	0.41
Mof_C 	C 	0.7083	0.2699	0.7259	-0.038
Mof_C 	C 	0.3618	0.3305	0.9935	0.298
Mof_C 	C 	0.0158	0.8585	0.069	0.053
Mof_C 	C 	0.3407	0.368	0.3065	-0.104
Mof_C 	C 	0.4434	0.7502	0.9267	0.002
Mof_C 	C 	0.0087	0.4592	0.5572	0.056
Mof_C 	C 	0.6681	0.3436	0.4416	-0.113
Mof_C 	C 	0.5772	0.6318	0.8342	0.231
Mof_C 	C 	0.0439	0.9536	0.189	-0.045
Mof_C 	C 	0.2299	0.295	0.583	0.01
Mof_C 	C 	0.8851	0.8161	0.0836	-0.085
Mof_C 	C 	0.9471	0.0722	0.5652	0.241
Mof_C 	C 	0.0772	0.6318	0.6658	0.231
Mof_C 	C 	0.995	0.4784	0.7049	-0.233
Mof_C 	C 	0.5086	0.4803	0.4451	0.137
Mof_C 	C 	0.0088	0.1726	0.2014	-0.216
Mof_C 	C 	0.4921	0.127	0.8196	0.149
Mof_C 	C 	0.3912	0.11	0.9214	-0.241
Mof_C 	C 	0.3961	0.1303	0.4107	-0.077
Mof_C 	C 	0.4052	0.8649	0.9257	0.011
Mof_C 	C 	0.5553	0.7036	0.8278	-0.022
Mof_C 	C 	0.5047	0.106	0.9465	-0.252
Mof_C 	C 	0.8618	0.3305	0.5065	0.299
Mof_C 	C 	0.4903	0.5949	0.3178	-0.242
Mof_C 	C 	0.4471	0.0722	0.9348	0.239
Mof_C 	C 	0.361	0.3216	0.4932	0.306
Mof_C 	C 	0.7934	0.313	0.9837	-0.034
Mof_C 	C 	0.9908	0.795	0.0467	-0.085
Mof_C 	C 	0.7299	0.295	0.917	0.012
Mof_C 	C 	0.9927	0.5272	0.1811	0.134
Mof_C 	C 	0.2909	0.3005	0.5602	-0.051
Mof_C 	C 	0.72	0.3657	0.1864	-0.049
Mof_C 	C 	0.0121	0.548	0.0537	-0.244
Mof_C 	C 	0.005	0.7728	0.5632	-0.072
Mof_C 	C 	0.3959	0.194	0.4109	0.031
Mof_C 	C 	0.6092	0.1796	0.3412	0.091
Mof_C 	C 	0.0123	0.5263	0.5554	-0.171
Mof_C 	C 	0.22	0.3657	0.3136	-0.049
Mof_C 	C 	0.4915	0.724	0.8192	-0.053
Mof_C 	C 	0.6092	0.9341	0.3268	-0.004
Mof_C 	C 	0.5966	0.4855	0.8379	-0.236
Mof_C 	C 	0.9108	0.8157	0.1038	0.029
Mof_C 	C 	0.9078	0.4613	0.594	0.072
Mof_C 	C 	0.9015	0.8837	0.0827	-0.069
Mof_C 	C 	0.9424	0.7708	0.0769	-0.045
Mof_C 	C 	0.6445	0.3857	0.2518	0.325
Mof_C 	C 	0.7826	0.2921	0.664	0.02
Mof_C 	C 	0.9921	0.127	0.6804	0.149
Mof_C 	C 	0.6721	0.3156	0.9857	0.014
Mof_C 	C 	0.718	0.2876	0.6819	-0.06
Mof_C 	C 	0.4927	0.5272	0.3189	0.134
Mof_C 	C 	0.8912	0.11	0.5786	-0.241
Mof_C 	C 	0.0482	0.0244	0.669	0.243
Mof_C 	C 	0.1726	0.3229	0.0143	0.025
Mof_C 	C 	0.5187	0.8402	0.9414	0.008
Mof_C 	C 	0.59	0.7479	0.3335	0.235
Mof_C 	C 	0.1445	0.3857	0.2482	0.325
Mof_C 	C 	0.2715	0.3832	0.2423	-0.046
Mof_C 	C 	0.0045	0.1742	0.5546	0.147
Mof_C 	C 	0.9969	0.907	0.1957	-0.022
Mof_C 	C 	0.4104	0.3655	0.3267	0.402
Mof_C 	C 	0.92	0.6801	0.5819	0.195
Mof_C 	C 	0.9018	0.1306	0.105	-0.083
Mof_C 	C 	0.6139	0.2466	0.3234	-0.067
Mof_C 	C 	0.9434	0.7502	0.5733	0.001
Mof_C 	C 	0.8986	0.5498	0.0813	-0.247
Mof_C 	C 	0.0499	0.6324	0.1723	0.244
Mof_C 	C 	0.5045	0.1742	0.9454	0.147
Mof_C 	C 	0.5044	0.8588	0.4574	-0.058
Mof_C 	C 	0.1092	0.9341	0.1732	-0.008
Mof_C 	C 	0.8961	0.1303	0.0893	-0.079
Mof_C 	C 	0.1092	0.1796	0.1588	0.103
Mof_C 	C 	0.0044	0.8588	0.0426	-0.078
Mof_C 	C 	0.9911	0.0582	0.6806	-0.252
Mof_C 	C 	0.0086	0.4803	0.0549	0.137
Mof_C 	C 	0.6229	0.8678	0.3317	-0.004
Mof_C 	C 	0.713	0.3775	0.2315	-0.042
Mof_C 	C 	0.4078	0.4613	0.906	0.072
Mof_C 	C 	0.0986	0.4159	0.6643	0.127
Mof_C 	C 	0.5158	0.8585	0.431	0.027
Mof_C 	C 	0.4488	0.0917	0.4178	0.186
Mof_C 	C 	0.6371	0.2691	0.7453	0.332
Mof_C 	C 	0.5128	0.8392	0.3109	-0.042
Mof_C 	C 	0.3894	0.7976	0.9212	-0.071
Mof_C 	C 	0.0966	0.4855	0.6621	-0.236
Mof_C 	C 	0.2934	0.313	0.5163	-0.037
Mof_C 	C 	0.6038	0.064	0.8437	-0.251
Mof_C 	C 	0.0553	0.7036	0.6722	-0.022
Mof_C 	C 	0.0047	0.106	0.5535	-0.254
Mof_C 	C 	0.5087	0.4592	0.9428	0.057
Mof_C 	C 	0.7899	0.3512	0.4394	-0.068
Mof_C 	C 	0.4882	0.9577	0.94	0.252
Mof_C 	C 	0.4108	0.8157	0.3962	0.044
Mof_C 	C 	0.0899	0.9345	0.1556	-0.028
Mof_C 	C 	0.1139	0.2466	0.1766	-0.074
Mof_C 	C 	0.5088	0.1726	0.2986	-0.214
Mof_C 	C 	0.1371	0.2691	0.7547	0.333
Mof_C 	C 	0.0219	0.025	0.1938	0.233
Mof_C 	C 	0.5061	0.1929	0.429	-0.018
Mof_C 	C 	0.5986	0.4159	0.8357	0.127
Mof_C 	C 	0.0056	0.1241	0.0739	-0.077
Mof_C 	C 	0.2826	0.2921	0.836	0.02
Mof_C 	C 	0.8958	0.1772	0.5792	0.13
Mof_C 	C 	0.5121	0.548	0.4463	-0.246
Mof_C 	C 	0.0913	0.8169	0.668	-0.006
Mof_C 	C 	0.3283	0.2575	0.7664	0.02
Mof_C 	C 	0.4947	0.1942	0.4478	0.078
Mof_C 	C 	0.0273	0.8397	0.6765	-0.063
Mof_C 	C 	0.5022	0.7926	0.4294	0.022
Mof_C 	C 	0.1045	0.8684	0.1495	-0.041
Mof_C 	C 	0.0128	0.8392	0.1891	-0.037
Mof_C 	C 	0.1057	0.7488	0.6644	-0.054
Mof_C 	C 	0.4559	0.5852	0.4326	0.238
Mof_C 	C 	0.5999	0.3515	0.4211	0.4
Mof_C 	C 	0.5997	0.1306	0.8428	0.149
Mof_C 	C 	0.1693	0.3025	0.5596	-0.103
Mof_C 	C 	0.3958	0.1772	0.9208	0.129
Mof_C 	C 	0.044	0.5175	0.6825	0.231
Mof_C 	C 	0.0693	0.8189	0.1752	-0.047
Mof_C 	C 	0.9704	0.9075	0.0724	-0.075
Mof_C 	C 	0.8959	0.194	0.0891	0.028
Mof_C 	C 	0.2281	0.3568	0.0819	0.025
Mof_C 	C 	0.4424	0.7708	0.4231	-0.045
Mof_C 	C 	0.0022	0.7926	0.0706	0.029
Mof_C 	C 	0.1022	0.2993	0.582	0.396
Mof_C 	C 	0.4767	0.7911	0.8169	-0.007
Mof_C 	C 	0.2834	0.3594	0.3327	0.01
Mof_C 	C 	0.1073	0.2474	0.1611	0.122
Mof_C 	C 	0.4182	0.6988	0.4184	0.222
Mof_C 	C 	0.4018	0.1306	0.395	-0.087
Mof_C 	C 	0.9882	0.9577	0.56	0.248
Mof_C 	C 	0.969	0.8864	0.5635	-0.077
Mof_C 	C 	0.0172	0.8393	0.2049	0.005
Mof_C 	C 	0.469	0.8864	0.9365	-0.078
Mof_C 	C 	0.8348	0.3802	0.2381	0.012
Mof_C 	C 	0.6045	0.8684	0.3505	-0.044
Mof_C 	C 	0.1062	0.6002	0.1609	-0.252
Mof_C 	C 	0.264	0.2546	0.7483	-0.054
Mof_C 	C 	0.5077	0.2406	0.3004	0.13
Mof_C 	C 	0.3993	0.4823	0.4189	0.133
Mof_C 	C 	0.0997	0.1306	0.6572	0.147
Mof_C 	C 	0.9903	0.5949	0.1822	-0.243
Mof_C 	C 	0.9586	0.5626	0.5737	0.181
Mof_C 	C 	0.2083	0.2699	0.7741	-0.038
Mof_C 	C 	0.5482	0.0244	0.831	0.247
Mof_C 	C 	0.4911	0.0582	0.8194	-0.256
Mof_C 	C 	0.5632	0.1397	0.315	0.173
Mof_C 	C 	0.0061	0.1929	0.071	0.005
Mof_C 	C 	0.42	0.6801	0.9181	0.195
Mof_C 	C 	0.09	0.7479	0.1665	0.236
Mof_C 	C 	0.5058	0.9053	0.29	-0.005
Mof_C 	C 	0.5273	0.8397	0.8235	-0.064
Mof_C 	C 	0.0187	0.8402	0.5586	0.009
Mof_C 	C 	0.7715	0.3832	0.2577	-0.046
Mof_C 	C 	0.5172	0.8393	0.2951	0.004
Mof_C 	C 	0.6057	0.7488	0.8356	-0.054
Mof_C 	C 	0.5056	0.1241	0.4261	-0.109
Mof_C 	C 	0.7281	0.3568	0.4181	0.024
Mof_C 	C 	0.9968	0.1263	0.0508	-0.106
Mof_C 	C 	0.9947	0.1942	0.0522	0.056
Mof_C 	C 	0.4077	0.529	0.9062	-0.189
Mof_C 	C 	0.2931	0.3319	0.0166	-0.019
Mof_C 	C 	0.4875	0.9776	0.4318	0.233
Mof_C 	C 	0.3348	0.3802	0.2619	0.012
Mof_C 	C 	0.1237	0.1786	0.176	-0.171
Mof_C 	C 	0.0632	0.1397	0.185	0.172
Mof_C 	C 	0.0009	0.4104	0.7046	0.133
Mof_C 	C 	0.5064	0.9096	0.8216	0.244
Mof_C 	C 	0.7931	0.3319	0.4834	-0.02
Mof_C 	C 	0.3851	0.8161	0.4164	-0.097
Mof_C 	C 	0.3385	0.2767	0.8101	-0.115
Mof_C 	C 	0.4969	0.907	0.3043	-0.029
Mof_C 	C 	0.495	0.4784	0.7951	-0.235
Mof_C 	C 	0.1229	0.8678	0.1683	-0.006
Mof_C 	C 	0.4015	0.8837	0.4173	-0.08
Mof_C 	C 	0.409	0.2849	0.8268	0.41
Mof_C 	C 	0.5693	0.8189	0.3248	-0.044
Mof_C 	C 	0.8993	0.4823	0.0811	0.133
Mof_C 	C 	0.6237	0.1786	0.324	-0.159
Mof_C 	C 	0.9182	0.6988	0.0816	0.221
Mof_C 	C 	0.9104	0.3655	0.1733	0.402
Mof_C 	C 	0.6062	0.6002	0.3391	-0.251
Mof_C 	C 	0.4704	0.9075	0.4276	-0.071
Mof_C 	C 	0.544	0.5175	0.8175	0.232
Mof_C 	C 	0.5009	0.4104	0.7954	0.135
Mof_C 	C 	0.9875	0.9776	0.0682	0.23
Mof_C 	C 	0.505	0.7728	0.9368	-0.074
Mof_C 	C 	0.9915	0.724	0.6808	-0.053
Mof_C 	C 	0.2341	0.3188	0.4925	-0.052
Mof_C 	C 	0.4586	0.5626	0.9263	0.181
Mof_C 	C 	0.0999	0.3515	0.0789	0.401
Mof_C 	C 	0.9077	0.529	0.5938	-0.189
Mof_C 	C 	0.7346	0.3181	0.5063	-0.063
Mof_C 	C 	0.4263	0.8833	0.399	0.052
Mof_C 	C 	0.9559	0.5852	0.0674	0.237
Mof_C 	C 	0.1721	0.3156	0.5143	0.012
Mof_C 	C 	0.6726	0.3229	0.4857	0.023
Mof_C 	C 	0.1038	0.064	0.6563	-0.249
Mof_C 	C 	0.861	0.3216	0.0068	0.305
Mof_C 	C 	0.6022	0.2993	0.918	0.397
Mof_C 	C 	0.8385	0.2767	0.6899	-0.115
Mof_C 	C 	0.5499	0.6324	0.3277	0.243
Mof_C 	C 	0.8407	0.368	0.1935	-0.104
Mof_C 	C 	0.9071	0.199	0.1023	0.033
Mof_C 	C 	0.5913	0.8169	0.832	-0.006
Mof_C 	C 	0.5439	0.9536	0.311	-0.049
Mof_C 	C 	0.8283	0.2575	0.7336	0.02
Mof_C 	C 	0.6073	0.2474	0.3389	0.115
Mof_C 	C 	0.7341	0.3188	0.0075	-0.054
Mof_C 	C 	0.2899	0.3512	0.0606	-0.069
Mof_C 	C 	0.0077	0.2406	0.1996	0.129
Mof_C 	C 	0.213	0.3775	0.2685	-0.042
Mof_C 	C 	0.9052	0.8649	0.5743	0.01
Mof_C 	C 	0.218	0.2876	0.8181	-0.06
Mof_C 	C 	0.2346	0.3181	0.9937	-0.065
Mof_C 	C 	0.1043	0.5299	0.1605	0.132
Mof_C 	C 	0.0058	0.9053	0.21	-0.015
Mof_C 	C 	0.764	0.2546	0.7517	-0.053
Mof_N 	N 	0.0494	0.3786	0.6826	-0.26
Mof_N 	N 	0.4525	0.2108	0.9334	-0.257
Mof_N 	N 	0.4541	0.4467	0.4317	-0.262
Mof_N 	N 	0.4658	0.653	0.4337	-0.266
Mof_N 	N 	0.069	0.0711	0.1837	-0.251
Mof_N 	N 	0.055	0.2786	0.1821	-0.237
Mof_N 	N 	0.9541	0.4467	0.0683	-0.262
Mof_N 	N 	0.5494	0.3786	0.8174	-0.26
Mof_N 	N 	0.555	0.2786	0.3179	-0.237
Mof_N 	N 	0.9453	0.0243	0.0827	-0.257
Mof_N 	N 	0.549	0.4937	0.3293	-0.255
Mof_N 	N 	0.4425	0.0023	0.9331	-0.27
Mof_N 	N 	0.0563	0.9558	0.6706	-0.263
Mof_N 	N 	0.5563	0.9558	0.8294	-0.264
Mof_N 	N 	0.0448	0.164	0.67	-0.254
Mof_N 	N 	0.5448	0.164	0.83	-0.253
Mof_N 	N 	0.0423	0.7014	0.1766	-0.271
Mof_N 	N 	0.5423	0.7014	0.3234	-0.271
Mof_N 	N 	0.9683	0.6334	0.5691	-0.146
Mof_N 	N 	0.0326	0.5862	0.6832	-0.267
Mof_N 	N 	0.9425	0.0023	0.5669	-0.267
Mof_N 	N 	0.4531	0.2315	0.4218	-0.222
Mof_N 	N 	0.9525	0.2108	0.5666	-0.256
Mof_N 	N 	0.4683	0.6334	0.9309	-0.146
Mof_N 	N 	0.4453	0.0243	0.4173	-0.259
Mof_N 	N 	0.049	0.4937	0.1707	-0.255
Mof_N 	N 	0.9658	0.653	0.0663	-0.267
Mof_N 	N 	0.9576	0.4243	0.577	-0.095
Mof_N 	N 	0.5326	0.5862	0.8168	-0.267
Mof_N 	N 	0.4576	0.4243	0.923	-0.095
Mof_N 	N 	0.9531	0.2315	0.0782	-0.223
Mof_N 	N 	0.569	0.0711	0.3163	-0.252
Mof_O 	O 	0.0477	0.974	0.552	-0.237
Mof_O 	O 	0.1295	0.6187	0.6479	-0.251
Mof_O 	O 	0.3575	0.3332	0.4512	-0.418
Mof_O 	O 	0.916	0.3419	0.1356	-0.499
Mof_O 	O 	0.3668	0.6647	0.9017	-0.24
Mof_O 	O 	0.4594	0.3858	0.3028	-0.473
Mof_O 	O 	0.6442	0.7351	0.3487	-0.257
Mof_O 	O 	0.5935	0.3878	0.228	-0.318
Mof_O 	O 	0.9488	0.9244	0.6867	-0.243
Mof_O 	O 	0.0935	0.3878	0.272	-0.318
Mof_O 	O 	0.5495	0.3331	0.4431	-0.479
Mof_O 	O 	0.3588	0.3187	0.9525	-0.41
Mof_O 	O 	0.6015	0.2758	0.8791	-0.474
Mof_O 	O 	0.5477	0.974	0.948	-0.24
Mof_O 	O 	0.416	0.3419	0.3644	-0.498
Mof_O 	O 	0.9143	0.3189	0.987	-0.34
Mof_O 	O 	0.0515	0.3187	0.5607	-0.462
Mof_O 	O 	0.9555	0.2658	0.6983	-0.474
Mof_O 	O 	0.0979	0.3797	0.1165	-0.482
Mof_O 	O 	0.9657	0.0387	0.2059	-0.241
Mof_O 	O 	0.1015	0.2758	0.6209	-0.474
Mof_O 	O 	0.364	0.6834	0.4031	-0.252
Mof_O 	O 	0.4141	0.3416	0.0146	-0.301
Mof_O 	O 	0.5882	0.2803	0.7214	-0.318
Mof_O 	O 	0.8575	0.3332	0.0488	-0.417
Mof_O 	O 	0.0495	0.3331	0.0569	-0.479
Mof_O 	O 	0.4488	0.9244	0.8133	-0.242
Mof_O 	O 	0.9594	0.3858	0.1972	-0.473
Mof_O 	O 	0.6352	0.2593	0.7863	-0.442
Mof_O 	O 	0.0882	0.2803	0.7786	-0.319
Mof_O 	O 	0.8588	0.3187	0.5475	-0.41
Mof_O 	O 	0.4167	0.311	0.8637	-0.488
Mof_O 	O 	0.4657	0.0387	0.2941	-0.243
Mof_O 	O 	0.864	0.6834	0.0969	-0.252
Mof_O 	O 	0.5979	0.3797	0.3835	-0.482
Mof_O 	O 	0.5515	0.3187	0.9393	-0.462
Mof_O 	O 	0.8668	0.6647	0.5983	-0.24
Mof_O 	O 	0.4143	0.3189	0.513	-0.341
Mof_O 	O 	0.4555	0.2658	0.8017	-0.475
Mof_O 	O 	0.9167	0.311	0.6363	-0.488
Mof_O 	O 	0.0431	0.9928	0.0519	-0.237
Mof_O 	O 	0.1352	0.2593	0.7137	-0.442
Mof_O 	O 	0.6295	0.6187	0.8521	-0.252
Mof_O 	O 	0.1442	0.7351	0.1513	-0.258
Mof_O 	O 	0.6444	0.3912	0.2933	-0.431
Mof_O 	O 	0.9141	0.3416	0.4854	-0.301
Mof_O 	O 	0.1444	0.3912	0.2067	-0.431
Mof_O 	O 	0.5431	0.9928	0.4481	-0.24
Mof_Zn	Zn	0.94471	0.61282	0.82354	1.219
Mof_Zn	Zn	0.0489	0.6609	0.92652	1.218
Mof_Zn	Zn	0.44471	0.61282	0.67646	1.219
Mof_Zn	Zn	0.94768	0.72776	0.32118	1.22
Mof_Zn	Zn	0.44768	0.72776	0.17882	1.22
Mof_Zn	Zn	0.54813	0.68109	0.07406	1.251
Mof_Zn	Zn	0.04813	0.68109	0.42594	1.252
Mof_Zn	Zn	0.5489	0.6609	0.57348	1.218
Mof_H 	H 	0.1346	0.7536	0.2491	0.044
Mof_H 	H 	0.9861	0.235	0.971	0.063
Mof_H 	H 	0.1324	0.8892	0.8784	0.049
Mof_H 	H 	0.2125	0.6503	0.8626	0.047
Mof_H 	H 	0.5206	0.1924	0.6954	0.04
Mof_H 	H 	0.5481	0.9648	0.1886	0.146
Mof_H 	H 	0.8667	0.6878	0.0012	0.042
Mof_H 	H 	0.9374	0.1457	0.4479	0.045
Mof_H 	H 	0.5428	0.6182	0.0785	-0.221
Mof_H 	H 	0.2322	0.6111	0.7119	0.074
Mof_H 	H 	0.159	0.1993	0.9118	0.065
Mof_H 	H 	0.0428	0.3073	0.3148	0.067
Mof_H 	H 	0.8581	0.0341	0.8336	0.02
Mof_H 	H 	0.9559	0.8037	0.4538	-0.018
Mof_H 	H 	0.2115	0.6947	0.3652	0.044
Mof_H 	H 	0.3194	0.7035	0.3358	0.079
Mof_H 	H 	0.0273	0.8509	0.7862	0.136
Mof_H 	H 	0.4602	0.2572	0.0591	0.081
Mof_H 	H 	0.6265	0.6135	0.7552	0.048
Mof_H 	H 	0.2737	0.6309	0.6115	0.044
Mof_H 	H 	0.4544	0.8991	0.57	0.086
Mof_H 	H 	0.5297	0.7385	0.7118	-0.011
Mof_H 	H 	0.3736	0.1524	0.1644	0.03
Mof_H 	H 	0.132	0.0856	0.9113	0.042
Mof_H 	H 	0.0463	0.0812	0.7953	0.035
Mof_H 	H 	0.8923	0.9436	0.8246	0.136
Mof_H 	H 	0.9755	0.7829	0.9662	0.006
Mof_H 	H 	0.632	0.0856	0.5887	0.046
Mof_H 	H 	0.0969	0.0132	0.4263	0.138
Mof_H 	H 	0.4035	0.0588	0.1662	0.141
Mof_H 	H 	0.0428	0.6182	0.4215	-0.221
Mof_H 	H 	0.3699	0.4906	0.1472	0.14
Mof_H 	H 	0.5084	0.192	0.7203	0.018
Mof_H 	H 	0.1394	0.5406	0.9099	-0.017
Mof_H 	H 	0.4744	0.8965	0.5321	0.071
Mof_H 	H 	0.5911	0.9914	0.5945	0.134
Mof_H 	H 	0.3624	0.845	0.1484	-0.015
Mof_H 	H 	0.5969	0.0132	0.0737	0.14
Mof_H 	H 	0.1265	0.6135	0.7448	0.048
Mof_H 	H 	0.0206	0.1924	0.8046	0.038
Mof_H 	H 	0.1286	0.1041	0.4212	0.024
Mof_H 	H 	0.9532	0.7864	0.9365	0.017
Mof_H 	H 	0.8897	0.0335	0.8622	0.037
Mof_H 	H 	0.0297	0.7385	0.7882	-0.01
Mof_H 	H 	0.2419	0.7575	0.219	0.074
Mof_H 	H 	0.1273	0.4482	0.3926	0.12
Mof_H 	H 	0.4566	0.5645	0.044	0.026
Mof_H 	H 	0.0952	0.0877	0.8799	0.01
Mof_H 	H 	0.5476	0.8515	0.1881	-0.018
Mof_H 	H 	0.8511	0.265	0.3432	0.066
Mof_H 	H 	0.9967	0.3319	0.9443	0.16
Mof_H 	H 	0.5305	0.6146	0.2205	-0.014
Mof_H 	H 	0.3562	0.9559	0.1473	0.122
Mof_H 	H 	0.5463	0.0812	0.7047	0.038
Mof_H 	H 	0.7419	0.7575	0.281	0.074
Mof_H 	H 	0.6289	0.5606	0.1068	0.017
Mof_H 	H 	0.4651	0.1264	0.5213	0.058
Mof_H 	H 	0.9391	0.1288	0.9347	0.024
Mof_H 	H 	0.6438	0.7843	0.5965	0.009
Mof_H 	H 	0.0464	0.4969	0.8121	-0.014
Mof_H 	H 	0.9744	0.8965	0.9679	0.08
Mof_H 	H 	0.4861	0.235	0.529	0.058
Mof_H 	H 	0.4559	0.8037	0.0462	-0.018
Mof_H 	H 	0.7115	0.6947	0.1348	0.044
Mof_H 	H 	0.7737	0.6309	0.8885	0.044
Mof_H 	H 	0.4508	0.4523	0.0425	0.118
Mof_H 	H 	0.6397	0.4279	0.5906	0.142
Mof_H 	H 	0.6415	0.7989	0.0886	-0.017
Mof_H 	H 	0.4967	0.3319	0.5557	0.16
Mof_H 	H 	0.3511	0.265	0.1568	0.066
Mof_H 	H 	0.7631	0.6946	0.0357	0.08
Mof_H 	H 	0.1236	0.7761	0.8816	0.012
Mof_H 	H 	0.3923	0.9436	0.6754	0.137
Mof_H 	H 	0.1545	0.2165	0.4148	0.07
Mof_H 	H 	0.9035	0.0588	0.3338	0.141
Mof_H 	H 	0.5428	0.3073	0.1852	0.067
Mof_H 	H 	0.8565	0.4924	0.8473	-0.012
Mof_H 	H 	0.9487	0.4307	0.9562	0.127
Mof_H 	H 	0.6236	0.7761	0.6184	0.013
Mof_H 	H 	0.8677	0.6778	0.5014	0.048
Mof_H 	H 	0.8194	0.7035	0.1642	0.078
Mof_H 	H 	0.0911	0.9914	0.9055	0.134
Mof_H 	H 	0.9959	0.2848	0.8135	0.162
Mof_H 	H 	0.8185	0.638	0.6688	0.075
Mof_H 	H 	0.9566	0.9167	0.455	0.147
Mof_H 	H 	0.3667	0.6878	0.4988	0.044
Mof_H 	H 	0.3544	0.3767	0.6534	0.142
Mof_H 	H 	0.145	0.8909	0.9049	0.051
Mof_H 	H 	0.0498	0.3839	0.8106	0.134
Mof_H 	H 	0.5952	0.0877	0.6201	0.008
Mof_H 	H 	0.5498	0.3839	0.6894	0.134
Mof_H 	H 	0.1397	0.4279	0.9094	0.142
Mof_H 	H 	0.504	0.3997	0.1951	0.166
Mof_H 	H 	0.6214	0.199	0.624	0.026
Mof_H 	H 	0.9627	0.2372	0.9329	0.027
Mof_H 	H 	0.4959	0.2848	0.6865	0.161
Mof_H 	H 	0.0084	0.192	0.7797	0.017
Mof_H 	H 	0.7644	0.6751	0.5379	0.076
Mof_H 	H 	0.4374	0.1457	0.0521	0.045
Mof_H 	H 	0.0291	0.0816	0.7714	0.033
Mof_H 	H 	0.9508	0.4523	0.4575	0.118
Mof_H 	H 	0.2631	0.6946	0.4643	0.079
Mof_H 	H 	0.4391	0.1288	0.5653	0.032
Mof_H 	H 	0.2706	0.7135	0.1131	0.05
Mof_H 	H 	0.9537	0.5434	0.954	-0.018
Mof_H 	H 	0.0305	0.6146	0.2795	-0.013
Mof_H 	H 	0.5291	0.0816	0.7286	0.031
Mof_H 	H 	0.8338	0.1456	0.8393	0.036
Mof_H 	H 	0.364	0.6054	0.1525	-0.017
Mof_H 	H 	0.0476	0.8515	0.3119	-0.017
Mof_H 	H 	0.3185	0.638	0.8312	0.074
Mof_H 	H 	0.6703	0.6395	0.924	0.085
Mof_H 	H 	0.6346	0.7536	0.2509	0.044
Mof_H 	H 	0.5407	0.5018	0.2196	0.125
Mof_H 	H 	0.3565	0.4924	0.6527	-0.012
Mof_H 	H 	0.4755	0.7829	0.5338	-0.002
Mof_H 	H 	0.3677	0.6778	0.9986	0.047
Mof_H 	H 	0.1703	0.6395	0.576	0.085
Mof_H 	H 	0.3581	0.0341	0.6664	0.018
Mof_H 	H 	0.864	0.6054	0.3475	-0.017
Mof_H 	H 	0.0481	0.9648	0.3114	0.145
Mof_H 	H 	0.8736	0.1524	0.3356	0.03
Mof_H 	H 	0.0407	0.5018	0.2804	0.124
Mof_H 	H 	0.6488	0.9111	0.0871	0.115
Mof_H 	H 	0.9602	0.2572	0.4409	0.08
Mof_H 	H 	0.2644	0.6751	0.9621	0.077
Mof_H 	H 	0.9651	0.1264	0.9787	0.067
Mof_H 	H 	0.0674	0.1959	0.3108	0.056
Mof_H 	H 	0.8632	0.1441	0.8712	0.045
Mof_H 	H 	0.645	0.8909	0.5951	0.05
Mof_H 	H 	0.1289	0.5606	0.3932	0.017
Mof_H 	H 	0.5273	0.8509	0.7138	0.134
Mof_H 	H 	0.3897	0.0335	0.6378	0.037
Mof_H 	H 	0.4532	0.7864	0.5635	0.024
Mof_H 	H 	0.6324	0.8892	0.6216	0.051
Mof_H 	H 	0.8624	0.845	0.3516	-0.015
Mof_H 	H 	0.6687	0.7045	0.4244	0.072
Mof_H 	H 	0.1687	0.7045	0.0756	0.073
Mof_H 	H 	0.1438	0.7843	0.9035	0.01
Mof_H 	H 	0.9544	0.8991	0.93	0.076
Mof_H 	H 	0.1488	0.9111	0.4129	0.115
Mof_H 	H 	0.3338	0.1456	0.6607	0.035
Mof_H 	H 	0.6394	0.5406	0.5901	-0.018
Mof_H 	H 	0.4627	0.2372	0.5671	0.029
Mof_H 	H 	0.659	0.1993	0.5882	0.069
Mof_H 	H 	0.6286	0.1041	0.0788	0.024
Mof_H 	H 	0.8562	0.9559	0.3527	0.12
Mof_H 	H 	0.004	0.3997	0.3049	0.165
Mof_H 	H 	0.4537	0.5434	0.546	-0.018
Mof_H 	H 	0.1415	0.7989	0.4114	-0.017
Mof_H 	H 	0.4566	0.9167	0.045	0.147
Mof_H 	H 	0.8544	0.3767	0.8466	0.143
Mof_H 	H 	0.1214	0.199	0.876	0.03
Mof_H 	H 	0.7706	0.7135	0.3869	0.05
Mof_H 	H 	0.5464	0.4969	0.6879	-0.013
Mof_H 	H 	0.5674	0.1959	0.1892	0.056
Mof_H 	H 	0.8699	0.4906	0.3528	0.139
Mof_H 	H 	0.7125	0.6503	0.6374	0.047
Mof_H 	H 	0.6273	0.4482	0.1074	0.12
Mof_H 	H 	0.7322	0.6111	0.7881	0.074
Mof_H 	H 	0.4487	0.4307	0.5438	0.127
Mof_H 	H 	0.9566	0.5645	0.456	0.026
Mof_H 	H 	0.3632	0.1441	0.6288	0.046
Mof_H 	H 	0.6545	0.2165	0.0852	0.07
Mof_C 	C 	0.6007	0.5177	0.5811	0.133
Mof_C 	C 	0.9877	0.4737	0.4446	-0.171
Mof_C 	C 	0.0053	0.8058	0.9478	0.056
Mof_C 	C 	0.8957	0.4701	0.8395	0.132
Mof_C 	C 	0.4101	0.0655	0.6556	-0.03
Mof_C 	C 	0.4942	0.0947	0.71	-0.005
Mof_C 	C 	0.0032	0.8737	0.9492	-0.106
Mof_C 	C 	0.4501	0.3676	0.6723	0.243
Mof_C 	C 	0.031	0.1136	0.4365	-0.077
Mof_C 	C 	0.6041	0.806	0.5891	0.031
Mof_C 	C 	0.5233	0.2089	0.1831	-0.007
Mof_C 	C 	0.4956	0.1412	0.5426	-0.058
Mof_C 	C 	0.5097	0.4051	0.6822	-0.242
Mof_C 	C 	0.4936	0.0904	0.1784	0.244
Mof_C 	C 	0.1149	0.1839	0.9164	-0.085
Mof_C 	C 	0.0566	0.2498	0.4267	0.001
Mof_C 	C 	0.2066	0.687	0.0163	-0.034
Mof_C 	C 	0.456	0.4825	0.1825	0.232
Mof_C 	C 	0.8555	0.6143	0.7518	0.325
Mof_C 	C 	0.8763	0.8214	0.824	-0.171
Mof_C 	C 	0.4877	0.4737	0.0554	-0.172
Mof_C 	C 	0.3955	0.1316	0.6495	-0.044
Mof_C 	C 	0.7659	0.6812	0.5075	-0.052
Mof_C 	C 	0.9447	0.2964	0.3278	-0.022
Mof_C 	C 	0.08	0.3199	0.4181	0.195
Mof_C 	C 	0.8629	0.7309	0.2453	0.333
Mof_C 	C 	0.9879	0.452	0.9463	-0.244
Mof_C 	C 	0.3943	0.2512	0.1644	-0.054
Mof_C 	C 	0.58	0.3199	0.0819	0.195
Mof_C 	C 	0.0929	0.801	0.8977	0.033
Mof_C 	C 	0.091	0.7151	0.3268	0.41
Mof_C 	C 	0.0118	0.0423	0.44	0.248
Mof_C 	C 	0.2659	0.6812	0.9925	-0.054
Mof_C 	C 	0.9978	0.2074	0.9294	0.029
Mof_C 	C 	0.0529	0.9278	0.4348	0.241
Mof_C 	C 	0.9944	0.8759	0.9261	-0.077
Mof_C 	C 	0.956	0.4825	0.3175	0.231
Mof_C 	C 	0.4447	0.2964	0.1722	-0.022
Mof_C 	C 	0.5296	0.0925	0.5724	-0.071
Mof_C 	C 	0.9001	0.6485	0.9211	0.401
Mof_C 	C 	0.4003	0.8694	0.1572	0.149
Mof_C 	C 	0.4879	0.452	0.5537	-0.246
Mof_C 	C 	0.8307	0.6975	0.4404	-0.103
Mof_C 	C 	0.5073	0.4728	0.6811	0.134
Mof_C 	C 	0.3319	0.6564	0.5584	-0.113
Mof_C 	C 	0.5922	0.5387	0.094	0.072
Mof_C 	C 	0.0922	0.5387	0.406	0.072
Mof_C 	C 	0.5414	0.4374	0.0737	0.181
Mof_C 	C 	0.1014	0.4502	0.9187	-0.247
Mof_C 	C 	0.5818	0.3012	0.5816	0.222
Mof_C 	C 	0.4034	0.5145	0.1621	-0.236
Mof_C 	C 	0.6615	0.7233	0.1899	-0.115
Mof_C 	C 	0.3771	0.1322	0.6683	-0.004
Mof_C 	C 	0.0073	0.4728	0.8189	0.134
Mof_C 	C 	0.0923	0.471	0.4062	-0.189
Mof_C 	C 	0.7654	0.6819	0.0063	-0.065
Mof_C 	C 	0.5092	0.205	0.5467	-0.074
Mof_C 	C 	0.2101	0.6488	0.5606	-0.068
Mof_C 	C 	0.5441	0.4148	0.5674	0.238
Mof_C 	C 	0.2719	0.6432	0.5819	0.024
Mof_C 	C 	0.6149	0.1839	0.5836	-0.097
Mof_C 	C 	0.9101	0.0655	0.8444	-0.028
Mof_C 	C 	0.9003	0.8694	0.3428	0.147
Mof_C 	C 	0.91	0.2521	0.8335	0.236
Mof_C 	C 	0.0818	0.3012	0.9184	0.221
Mof_C 	C 	0.0097	0.4051	0.8178	-0.243
Mof_C 	C 	0.1041	0.806	0.9109	0.028
Mof_C 	C 	0.6106	0.2024	0.0788	-0.071
Mof_C 	C 	0.7719	0.6432	0.9181	0.025
Mof_C 	C 	0.9936	0.0904	0.3216	0.246
Mof_C 	C 	0.7701	0.705	0.417	0.01
Mof_C 	C 	0.4912	0.8274	0.7014	-0.214
Mof_C 	C 	0.1652	0.6198	0.7619	0.012
Mof_C 	C 	0.6014	0.4502	0.5813	-0.247
Mof_C 	C 	0.0414	0.4374	0.4263	0.181
Mof_C 	C 	0.3555	0.6143	0.7482	0.325
Mof_C 	C 	0.2701	0.705	0.083	0.012
Mof_C 	C 	0.3763	0.8214	0.676	-0.159
Mof_C 	C 	0.1042	0.8228	0.4208	0.13
Mof_C 	C 	0.7285	0.6168	0.7577	-0.046
Mof_C 	C 	0.531	0.1136	0.0635	-0.078
Mof_C 	C 	0.8279	0.6844	0.4857	0.012
Mof_C 	C 	0.3938	0.3998	0.6609	-0.251
Mof_C 	C 	0.0512	0.9083	0.9178	0.18
Mof_C 	C 	0.5737	0.1167	0.601	0.052
Mof_C 	C 	0.1593	0.632	0.8065	-0.104
Mof_C 	C 	0.0737	0.1167	0.899	0.042
Mof_C 	C 	0.3908	0.8204	0.6588	0.091
Mof_C 	C 	0.9939	0.8071	0.929	0.005
Mof_C 	C 	0.4781	0.975	0.6938	0.237
Mof_C 	C 	0.9953	0.894	0.4465	-0.254
Mof_C 	C 	0.4939	0.8071	0.571	-0.018
Mof_C 	C 	0.9501	0.3676	0.8277	0.244
Mof_C 	C 	0.5576	0.2292	0.5769	-0.045
Mof_C 	C 	0.7091	0.6995	0.4398	-0.051
Mof_C 	C 	0.3861	0.7534	0.6766	-0.067
Mof_C 	C 	0.7917	0.7301	0.2259	-0.038
Mof_C 	C 	0.9813	0.1598	0.4414	0.009
Mof_C 	C 	0.6652	0.6198	0.7381	0.012
Mof_C 	C 	0.3978	0.7007	0.082	0.397
Mof_C 	C 	0.6717	0.7425	0.2336	0.02
Mof_C 	C 	0.8978	0.7007	0.418	0.396
Mof_C 	C 	0.639	0.6784	0.5068	0.306
Mof_C 	C 	0.736	0.7454	0.2517	-0.054
Mof_C 	C 	0.5125	0.0224	0.5682	0.233
Mof_C 	C 	0.9991	0.5896	0.2954	0.133
Mof_C 	C 	0.5032	0.8737	0.5508	-0.076
Mof_C 	C 	0.4307	0.1811	0.6752	-0.044
Mof_C 	C 	0.4727	0.1603	0.1765	-0.064
Mof_C 	C 	0.7101	0.6488	0.9394	-0.069
Mof_C 	C 	0.9087	0.1831	0.332	-0.006
Mof_C 	C 	0.0985	0.1163	0.9173	-0.069
Mof_C 	C 	0.7069	0.6681	0.9834	-0.019
Mof_C 	C 	0.9913	0.5408	0.4428	0.056
Mof_C 	C 	0.1615	0.7233	0.3101	-0.115
Mof_C 	C 	0.0092	0.205	0.9533	-0.085
Mof_C 	C 	0.7166	0.6406	0.6673	0.01
Mof_C 	C 	0.9034	0.5145	0.3379	-0.236
Mof_C 	C 	0.8274	0.6771	0.9857	0.025
Mof_C 	C 	0.4978	0.2074	0.5706	0.022
Mof_C 	C 	0.5079	0.873	0.1804	0.149
Mof_C 	C 	0.2069	0.6681	0.5166	-0.02
Mof_C 	C 	0.3307	0.6975	0.0596	-0.105
Mof_C 	C 	0.3279	0.6844	0.0143	0.014
Mof_C 	C 	0.5923	0.471	0.0938	-0.189
Mof_C 	C 	0.2654	0.6819	0.4937	-0.063
Mof_C 	C 	0.9518	0.9756	0.331	0.243
Mof_C 	C 	0.9912	0.8274	0.7986	-0.216
Mof_C 	C 	0.0031	0.093	0.8043	-0.022
Mof_C 	C 	0.5512	0.9083	0.5822	0.186
Mof_C 	C 	0.0089	0.9418	0.3194	-0.252
Mof_C 	C 	0.5529	0.9278	0.0652	0.239
Mof_C 	C 	0.9942	0.0947	0.79	-0.015
Mof_C 	C 	0.505	0.5216	0.2049	-0.235
Mof_C 	C 	0.495	0.2272	0.0632	-0.074
Mof_C 	C 	0.5948	0.1351	0.0743	0.011
Mof_C 	C 	0.5892	0.1843	0.6038	0.044
Mof_C 	C 	0.3962	0.936	0.1563	-0.251
Mof_C 	C 	0.4014	0.5841	0.1643	0.127
Mof_C 	C 	0.1717	0.7425	0.2664	0.02
Mof_C 	C 	0.2166	0.6406	0.8327	0.01
Mof_C 	C 	0.4087	0.1831	0.168	-0.006
Mof_C 	C 	0.7066	0.687	0.4837	-0.037
Mof_C 	C 	0.5982	0.8694	0.605	-0.087
Mof_C 	C 	0.8908	0.0659	0.8268	-0.008
Mof_C 	C 	0.0296	0.0925	0.9276	-0.075
Mof_C 	C 	0.8955	0.1316	0.8505	-0.041
Mof_C 	C 	0.4001	0.6485	0.5789	0.4
Mof_C 	C 	0.4872	0.1608	0.6891	-0.042
Mof_C 	C 	0.4228	0.3682	0.1658	0.231
Mof_C 	C 	0.8938	0.3998	0.8391	-0.252
Mof_C 	C 	0.4828	0.1607	0.7049	0.004
Mof_C 	C 	0.0892	0.1843	0.8962	0.029
Mof_C 	C 	0.236	0.7454	0.2483	-0.053
Mof_C 	C 	0.782	0.7124	0.1819	-0.06
Mof_C 	C 	0.6593	0.632	0.6935	-0.104
Mof_C 	C 	0.005	0.5216	0.2951	-0.233
Mof_C 	C 	0.5118	0.0423	0.06	0.252
Mof_C 	C 	0.3908	0.0659	0.6732	-0.004
Mof_C 	C 	0.5896	0.6345	0.6733	0.402
Mof_C 	C 	0.5089	0.9418	0.1806	-0.256
Mof_C 	C 	0.9561	0.0464	0.811	-0.045
Mof_C 	C 	0.4813	0.1598	0.0586	0.008
Mof_C 	C 	0.8861	0.7534	0.8234	-0.074
Mof_C 	C 	0.0982	0.8694	0.895	-0.083
Mof_C 	C 	0.287	0.6225	0.7685	-0.042
Mof_C 	C 	0.4368	0.8603	0.685	0.173
Mof_C 	C 	0.0441	0.4148	0.9326	0.237
Mof_C 	C 	0.8927	0.7526	0.8389	0.122
Mof_C 	C 	0.139	0.6784	0.9932	0.305
Mof_C 	C 	0.5085	0.276	0.1808	-0.053
Mof_C 	C 	0.9923	0.7594	0.8004	0.129
Mof_C 	C 	0.591	0.7151	0.1732	0.41
Mof_C 	C 	0.4842	0.1415	0.569	0.027
Mof_C 	C 	0.6042	0.8228	0.0792	0.129
Mof_C 	C 	0.1106	0.2024	0.4212	-0.071
Mof_C 	C 	0.787	0.6225	0.7315	-0.042
Mof_C 	C 	0.0576	0.2292	0.9231	-0.045
Mof_C 	C 	0.5929	0.801	0.6023	0.031
Mof_C 	C 	0.282	0.7124	0.3181	-0.06
Mof_C 	C 	0.5031	0.093	0.6957	-0.029
Mof_C 	C 	0.0085	0.276	0.3192	-0.053
Mof_C 	C 	0.5053	0.8058	0.5522	0.078
Mof_C 	C 	0.4953	0.894	0.0535	-0.252
Mof_C 	C 	0.2091	0.6995	0.0602	-0.053
Mof_C 	C 	0.9368	0.8603	0.815	0.172
Mof_C 	C 	0.9228	0.3682	0.3342	0.231
Mof_C 	C 	0.9727	0.1603	0.3235	-0.063
Mof_C 	C 	0.8962	0.936	0.3437	-0.249
Mof_C 	C 	0.4518	0.9756	0.169	0.247
Mof_C 	C 	0.4913	0.5408	0.0572	0.057
Mof_C 	C 	0.78	0.6343	0.6864	-0.049
Mof_C 	C 	0.9014	0.5841	0.3357	0.127
Mof_C 	C 	0.995	0.2272	0.4368	-0.072
Mof_C 	C 	0.1382	0.6695	0.4935	0.299
Mof_C 	C 	0.0233	0.2089	0.3169	-0.008
Mof_C 	C 	0.4955	0.8258	0.0546	0.147
Mof_C 	C 	0.6039	0.8697	0.5893	-0.077
Mof_C 	C 	0.3274	0.6771	0.5143	0.023
Mof_C 	C 	0.4914	0.5197	0.5549	0.137
Mof_C 	C 	0.9956	0.1412	0.9574	-0.078
Mof_C 	C 	0.4944	0.8759	0.5739	-0.109
Mof_C 	C 	0.9307	0.1811	0.8248	-0.047
Mof_C 	C 	0.2917	0.7301	0.2741	-0.038
Mof_C 	C 	0.0125	0.0224	0.9318	0.23
Mof_C 	C 	0.8319	0.6564	0.9416	-0.114
Mof_C 	C 	0.6088	0.89	0.0786	-0.241
Mof_C 	C 	0.1039	0.8697	0.9107	-0.079
Mof_C 	C 	0.1088	0.89	0.4214	-0.241
Mof_C 	C 	0.8771	0.1322	0.8317	-0.006
Mof_C 	C 	0.1007	0.5177	0.9189	0.133
Mof_C 	C 	0.0896	0.6345	0.8267	0.402
Mof_C 	C 	0.4561	0.0464	0.689	-0.049
Mof_C 	C 	0.2285	0.6168	0.7423	-0.046
Mof_C 	C 	0.9781	0.975	0.8062	0.233
Mof_C 	C 	0.8943	0.2512	0.3356	-0.054
Mof_C 	C 	0.3957	0.4701	0.6605	0.132
Mof_C 	C 	0.0079	0.873	0.3196	0.149
Mof_C 	C 	0.9872	0.1608	0.8109	-0.037
Mof_C 	C 	0.3927	0.7526	0.6611	0.115
Mof_C 	C 	0.6382	0.6695	0.0065	0.298
Mof_C 	C 	0.4991	0.5896	0.2046	0.135
Mof_C 	C 	0.4923	0.7594	0.6996	0.13
Mof_C 	C 	0.8908	0.8204	0.8412	0.103
Mof_C 	C 	0.2174	0.7079	0.336	0.02
Mof_C 	C 	0.9914	0.5197	0.9451	0.137
Mof_C 	C 	0.41	0.2521	0.6665	0.235
Mof_C 	C 	0.5985	0.1163	0.5827	-0.08
Mof_C 	C 	0.0948	0.1351	0.4257	0.01
Mof_C 	C 	0.5566	0.2498	0.0733	0.002
Mof_C 	C 	0.3629	0.7309	0.2547	0.332
Mof_C 	C 	0.7174	0.7079	0.164	0.02
Mof_C 	C 	0.9955	0.8258	0.4454	0.147
Mof_C 	C 	0.9828	0.1607	0.7951	0.005
Mof_C 	C 	0.9842	0.1415	0.931	0.053
Mof_C 	C 	0.28	0.6343	0.8136	-0.049
Mof_N 	N 	0.0459	0.5533	0.9317	-0.262
Mof_N 	N 	0.4437	0.0442	0.1706	-0.264
Mof_N 	N 	0.431	0.9289	0.6837	-0.252
Mof_N 	N 	0.9577	0.2986	0.8234	-0.271
Mof_N 	N 	0.5424	0.5757	0.077	-0.095
Mof_N 	N 	0.4506	0.6214	0.1826	-0.26
Mof_N 	N 	0.0317	0.3666	0.4309	-0.146
Mof_N 	N 	0.5475	0.7892	0.0666	-0.257
Mof_N 	N 	0.4552	0.836	0.17	-0.253
Mof_N 	N 	0.945	0.7214	0.8179	-0.237
Mof_N 	N 	0.0424	0.5757	0.423	-0.095
Mof_N 	N 	0.951	0.5063	0.8293	-0.255
Mof_N 	N 	0.931	0.9289	0.8163	-0.251
Mof_N 	N 	0.5342	0.347	0.5663	-0.266
Mof_N 	N 	0.0469	0.7685	0.9218	-0.223
Mof_N 	N 	0.5575	0.9977	0.0669	-0.27
Mof_N 	N 	0.0547	0.9757	0.9173	-0.257
Mof_N 	N 	0.4577	0.2986	0.6766	-0.271
Mof_N 	N 	0.0575	0.9977	0.4331	-0.267
Mof_N 	N 	0.445	0.7214	0.6821	-0.237
Mof_N 	N 	0.451	0.5063	0.6707	-0.255
Mof_N 	N 	0.0342	0.347	0.9337	-0.267
Mof_N 	N 	0.9437	0.0442	0.3294	-0.263
Mof_N 	N 	0.5317	0.3666	0.0691	-0.146
Mof_N 	N 	0.9674	0.4138	0.3168	-0.267
Mof_N 	N 	0.9506	0.6214	0.3174	-0.26
Mof_N 	N 	0.9552	0.836	0.33	-0.254
Mof_N 	N 	0.0475	0.7892	0.4334	-0.256
Mof_N 	N 	0.5469	0.7685	0.5782	-0.222
Mof_N 	N 	0.4674	0.4138	0.1832	-0.267
Mof_N 	N 	0.5547	0.9757	0.5827	-0.259
Mof_N 	N 	0.5459	0.5533	0.5683	-0.262
Mof_O 	O 	0.636	0.3166	0.5969	-0.252
Mof_O 	O 	0.4065	0.6122	0.772	-0.318
Mof_O 	O 	0.5343	0.9613	0.7059	-0.243
Mof_O 	O 	0.8985	0.7242	0.3791	-0.474
Mof_O 	O 	0.3556	0.6088	0.7067	-0.431
Mof_O 	O 	0.9505	0.6669	0.9431	-0.479
Mof_O 	O 	0.1332	0.3353	0.4017	-0.24
Mof_O 	O 	0.0445	0.7342	0.3017	-0.474
Mof_O 	O 	0.5406	0.6142	0.6972	-0.473
Mof_O 	O 	0.3705	0.3813	0.1479	-0.252
Mof_O 	O 	0.3648	0.7407	0.2137	-0.442
Mof_O 	O 	0.6425	0.6668	0.5488	-0.418
Mof_O 	O 	0.0512	0.0756	0.3133	-0.243
Mof_O 	O 	0.1425	0.6668	0.9512	-0.417
Mof_O 	O 	0.3558	0.2649	0.6513	-0.257
Mof_O 	O 	0.4485	0.6813	0.0607	-0.462
Mof_O 	O 	0.0406	0.6142	0.8028	-0.473
Mof_O 	O 	0.6412	0.6813	0.0475	-0.41
Mof_O 	O 	0.9021	0.6203	0.8835	-0.482
Mof_O 	O 	0.5857	0.6811	0.487	-0.341
Mof_O 	O 	0.8705	0.3813	0.3521	-0.251
Mof_O 	O 	0.9569	0.0072	0.9481	-0.237
Mof_O 	O 	0.0859	0.6584	0.5146	-0.301
Mof_O 	O 	0.0857	0.6811	0.013	-0.34
Mof_O 	O 	0.9065	0.6122	0.728	-0.318
Mof_O 	O 	0.4569	0.0072	0.5519	-0.24
Mof_O 	O 	0.9485	0.6813	0.4393	-0.462
Mof_O 	O 	0.8556	0.6088	0.7933	-0.431
Mof_O 	O 	0.4523	0.026	0.052	-0.24
Mof_O 	O 	0.9118	0.7197	0.2214	-0.319
Mof_O 	O 	0.4118	0.7197	0.2786	-0.318
Mof_O 	O 	0.0833	0.689	0.3637	-0.488
Mof_O 	O 	0.8558	0.2649	0.8487	-0.258
Mof_O 	O 	0.584	0.6581	0.6356	-0.498
Mof_O 	O 	0.6332	0.3353	0.0983	-0.24
Mof_O 	O 	0.4021	0.6203	0.6165	-0.482
Mof_O 	O 	0.5512	0.0756	0.1867	-0.242
Mof_O 	O 	0.5445	0.7342	0.1983	-0.475
Mof_O 	O 	0.084	0.6581	0.8644	-0.499
Mof_O 	O 	0.0343	0.9613	0.7941	-0.241
Mof_O 	O 	0.3985	0.7242	0.1209	-0.474
Mof_O 	O 	0.8648	0.7407	0.2863	-0.442
Mof_O 	O 	0.5859	0.6584	0.9854	-0.301
Mof_O 	O 	0.136	0.3166	0.9031	-0.252
Mof_O 	O 	0.5833	0.689	0.1363	-0.488
Mof_O 	O 	0.4505	0.6669	0.5569	-0.479
Mof_O 	O 	0.1412	0.6813	0.4525	-0.41
Mof_O 	O 	0.9523	0.026	0.448	-0.237
_end
