data_functionalizedCrystal
_audit_creation_method	'EQeq! by Chris Wilmer'
_symmetry_space_group_name_H-M	'P1'
_symmetry_Int_Tables_number	1
_symmetry_cell_setting	triclinic
loop_
_symmetry_equiv_pos_as_xyz
  x,y,z
_cell_length_a	37.6898
_cell_length_b	37.6898
_cell_length_c	14.2576
_cell_angle_alpha	90
_cell_angle_beta	90
_cell_angle_gamma	90
loop_
_atom_site_label
_atom_site_type_symbol
_atom_site_fract_x
_atom_site_fract_y
_atom_site_fract_z
_atom_site_charge
Mof_Cu	Cu	0.74181	0.71656	0.07992	0.711
Mof_Cu	Cu	0.74108	0.78402	0.04424	0.71
Mof_I 	I 	0.68093	0.75016	0.09254	-0.635
Mof_I 	I 	0.79855	0.75338	0.13481	-0.636
Mof_Mn	Mn	0.75107	0.00104	0.35318	1.202
Mof_Mo	Mo	0.70374	0.03959	0.18231	0.935
Mof_Mo	Mo	0.66257	0.00622	0.37134	0.913
Mof_Mo	Mo	0.70948	0.96718	0.54164	0.951
Mof_Mo	Mo	0.79225	0.03386	0.16307	0.927
Mof_Mo	Mo	0.83961	0.99571	0.3346	0.925
Mof_Mo	Mo	0.79781	0.96294	0.52487	0.933
Mof_O 	O 	0.71086	0.98806	0.2729	-0.506
Mof_O 	O 	0.74987	0.9564	0.4192	-0.514
Mof_O 	O 	0.75137	0.04629	0.2874	-0.516
Mof_O 	O 	0.71531	0.01839	0.4508	-0.498
Mof_O 	O 	0.7921	0.01426	0.4331	-0.511
Mof_O 	O 	0.67716	0.04643	0.2987	-0.563
Mof_O 	O 	0.74474	0.01941	0.1257	-0.56
Mof_O 	O 	0.67719	0.96473	0.4375	-0.574
Mof_O 	O 	0.82378	0.95685	0.408	-0.57
Mof_O 	O 	0.7557	0.98173	0.5797	-0.574
Mof_O 	O 	0.78732	0.98368	0.2555	-0.499
Mof_O 	O 	0.82499	0.03723	0.2674	-0.565
Mof_N 	N 	0.7371	0.8309	0.1086	-0.261
Mof_N 	N 	0.7596	0.1724	0.5902	-0.254
Mof_C 	C 	0.7559	0.07739	0.3436	0.252
Mof_H 	H 	0.7362	0.094	0.3297	-0.077
Mof_H 	H 	0.7783	0.0891	0.3252	-0.074
Mof_C 	C 	0.7567	0.0705	0.4513	-0.262
Mof_C 	C 	0.7114	0.9533	0.2288	0.228
Mof_H 	H 	0.7105	0.9562	0.1598	-0.074
Mof_H 	H 	0.6901	0.9398	0.2483	-0.076
Mof_C 	C 	0.7792	0.9488	0.2182	0.235
Mof_H 	H 	0.7995	0.9328	0.2318	-0.074
Mof_H 	H 	0.7771	0.9507	0.1492	-0.075
Mof_C 	C 	0.7888	0.0484	0.4771	0.256
Mof_H 	H 	0.8103	0.0624	0.462	-0.082
Mof_H 	H 	0.7885	0.0448	0.5459	-0.08
Mof_C 	C 	0.7231	0.0534	0.4888	0.24
Mof_H 	H 	0.7252	0.0515	0.5578	-0.074
Mof_H 	H 	0.7029	0.0693	0.4751	-0.075
Mof_C 	C 	0.7456	0.9319	0.2563	-0.237
Mof_C 	C 	0.7463	0.9243	0.3618	0.228
Mof_H 	H 	0.7241	0.9119	0.3795	-0.07
Mof_H 	H 	0.7664	0.9082	0.3757	-0.072
Mof_C 	C 	0.7589	0.1068	0.4974	0.161
Mof_C 	C 	0.7359	0.8628	0.0604	0.065
Mof_H 	H 	0.7337	0.8627	0.994	-0.026
Mof_C 	C 	0.7408	0.8963	0.2063	0.14
Mof_C 	C 	0.7376	0.8937	0.1064	-0.182
Mof_H 	H 	0.7367	0.9151	0.071	0.064
Mof_C 	C 	0.7357	0.1651	0.5232	0.078
Mof_H 	H 	0.7183	0.1824	0.5082	-0.026
Mof_C 	C 	0.7845	0.1151	0.5638	-0.2
Mof_H 	H 	0.8018	0.0979	0.5807	0.069
Mof_C 	C 	0.7356	0.1329	0.4747	-0.203
Mof_H 	H 	0.7191	0.1292	0.4254	0.077
Mof_C 	C 	0.7849	0.1482	0.6056	0.085
Mof_H 	H 	0.8039	0.154	0.6468	-0.039
Mof_C 	C 	0.7395	0.8328	0.1971	0.107
Mof_H 	H 	0.7402	0.8111	0.2308	-0.044
Mof_C 	C 	0.7413	0.8642	0.2495	-0.205
Mof_H 	H 	0.7428	0.863	0.316	0.076
Mof_Cu	Cu	0.25819	0.28344	0.57992	0.71
Mof_Cu	Cu	0.25892	0.21598	0.54424	0.709
Mof_I 	I 	0.31907	0.24984	0.59254	-0.635
Mof_I 	I 	0.20145	0.24662	0.63481	-0.636
Mof_Mn	Mn	0.24893	0.99896	0.85318	1.202
Mof_Mo	Mo	0.29626	0.96041	0.68231	0.935
Mof_Mo	Mo	0.33743	0.99378	0.87134	0.912
Mof_Mo	Mo	0.29052	0.03282	0.04164	0.95
Mof_Mo	Mo	0.20775	0.96614	0.66307	0.926
Mof_Mo	Mo	0.16039	0.00429	0.8346	0.925
Mof_Mo	Mo	0.20219	0.03706	0.02487	0.933
Mof_O 	O 	0.28914	0.01194	0.7729	-0.506
Mof_O 	O 	0.25013	0.0436	0.9192	-0.514
Mof_O 	O 	0.24863	0.95371	0.7874	-0.516
Mof_O 	O 	0.28469	0.98161	0.9508	-0.498
Mof_O 	O 	0.2079	0.98574	0.9331	-0.511
Mof_O 	O 	0.32284	0.95357	0.7987	-0.563
Mof_O 	O 	0.25526	0.98059	0.6257	-0.56
Mof_O 	O 	0.32281	0.03527	0.9375	-0.573
Mof_O 	O 	0.17622	0.04315	0.908	-0.57
Mof_O 	O 	0.2443	0.01827	0.0797	-0.574
Mof_O 	O 	0.21268	0.01632	0.7555	-0.499
Mof_O 	O 	0.17501	0.96277	0.7674	-0.565
Mof_N 	N 	0.2629	0.1691	0.6086	-0.261
Mof_N 	N 	0.2404	0.8276	0.0902	-0.254
Mof_C 	C 	0.2441	0.92261	0.8436	0.252
Mof_H 	H 	0.2638	0.906	0.8297	-0.077
Mof_H 	H 	0.2217	0.9109	0.8252	-0.074
Mof_C 	C 	0.2433	0.9295	0.9513	-0.262
Mof_C 	C 	0.2886	0.0467	0.7288	0.228
Mof_H 	H 	0.2895	0.0438	0.6598	-0.074
Mof_H 	H 	0.3099	0.0602	0.7483	-0.076
Mof_C 	C 	0.2208	0.0512	0.7182	0.235
Mof_H 	H 	0.2005	0.0672	0.7318	-0.074
Mof_H 	H 	0.2229	0.0493	0.6492	-0.075
Mof_C 	C 	0.2112	0.9516	0.9771	0.257
Mof_H 	H 	0.1897	0.9376	0.962	-0.082
Mof_H 	H 	0.2115	0.9552	0.0459	-0.08
Mof_C 	C 	0.2769	0.9466	0.9888	0.241
Mof_H 	H 	0.2748	0.9485	0.0578	-0.075
Mof_H 	H 	0.2971	0.9307	0.9751	-0.075
Mof_C 	C 	0.2544	0.0681	0.7563	-0.237
Mof_C 	C 	0.2537	0.0757	0.8618	0.228
Mof_H 	H 	0.2759	0.0881	0.8795	-0.07
Mof_H 	H 	0.2336	0.0918	0.8757	-0.072
Mof_C 	C 	0.2411	0.8932	0.9974	0.162
Mof_C 	C 	0.2641	0.1372	0.5604	0.064
Mof_H 	H 	0.2663	0.1373	0.494	-0.026
Mof_C 	C 	0.2592	0.1037	0.7063	0.139
Mof_C 	C 	0.2624	0.1063	0.6064	-0.182
Mof_H 	H 	0.2633	0.0849	0.571	0.064
Mof_C 	C 	0.2643	0.8349	0.0232	0.077
Mof_H 	H 	0.2817	0.8176	0.0082	-0.026
Mof_C 	C 	0.2155	0.8849	0.0638	-0.201
Mof_H 	H 	0.1982	0.9021	0.0807	0.069
Mof_C 	C 	0.2644	0.8671	0.9747	-0.202
Mof_H 	H 	0.2809	0.8708	0.9254	0.077
Mof_C 	C 	0.2151	0.8518	0.1056	0.086
Mof_H 	H 	0.1961	0.846	0.1468	-0.039
Mof_C 	C 	0.2605	0.1672	0.6971	0.107
Mof_H 	H 	0.2598	0.1889	0.7308	-0.044
Mof_C 	C 	0.2587	0.1358	0.7495	-0.204
Mof_H 	H 	0.2572	0.137	0.816	0.076
Mof_Cu	Cu	0.78344	0.24181	0.82992	0.71
Mof_Cu	Cu	0.71598	0.24108	0.79424	0.709
Mof_I 	I 	0.74984	0.18093	0.84254	-0.636
Mof_I 	I 	0.74662	0.29855	0.88481	-0.636
Mof_Mn	Mn	0.49896	0.25107	0.10318	1.201
Mof_Mo	Mo	0.46041	0.20374	0.93231	0.933
Mof_Mo	Mo	0.49378	0.16257	0.12134	0.913
Mof_Mo	Mo	0.53282	0.20948	0.29164	0.951
Mof_Mo	Mo	0.46614	0.29225	0.91307	0.925
Mof_Mo	Mo	0.50429	0.33961	0.0846	0.924
Mof_Mo	Mo	0.53706	0.29781	0.27487	0.933
Mof_O 	O 	0.51194	0.21086	0.0229	-0.505
Mof_O 	O 	0.5436	0.24987	0.1692	-0.514
Mof_O 	O 	0.45371	0.25137	0.0374	-0.516
Mof_O 	O 	0.48161	0.21531	0.2008	-0.498
Mof_O 	O 	0.48574	0.2921	0.1831	-0.511
Mof_O 	O 	0.45357	0.17716	0.0487	-0.562
Mof_O 	O 	0.48059	0.24474	0.8757	-0.56
Mof_O 	O 	0.53527	0.17719	0.1875	-0.574
Mof_O 	O 	0.54315	0.32378	0.158	-0.57
Mof_O 	O 	0.51827	0.2557	0.3297	-0.574
Mof_O 	O 	0.51632	0.28732	0.0055	-0.498
Mof_O 	O 	0.46277	0.32499	0.0174	-0.564
Mof_N 	N 	0.6691	0.2371	0.8586	-0.261
Mof_N 	N 	0.3276	0.2596	0.3402	-0.254
Mof_C 	C 	0.42261	0.2559	0.0936	0.252
Mof_H 	H 	0.406	0.2362	0.0797	-0.077
Mof_H 	H 	0.4109	0.2783	0.0752	-0.074
Mof_C 	C 	0.4295	0.2567	0.2013	-0.262
Mof_C 	C 	0.5467	0.2114	0.9788	0.225
Mof_H 	H 	0.5438	0.2105	0.9098	-0.073
Mof_H 	H 	0.5602	0.1901	0.9983	-0.076
Mof_C 	C 	0.5512	0.2792	0.9682	0.232
Mof_H 	H 	0.5672	0.2995	0.9818	-0.074
Mof_H 	H 	0.5493	0.2771	0.8992	-0.074
Mof_C 	C 	0.4516	0.2888	0.2271	0.256
Mof_H 	H 	0.4376	0.3103	0.212	-0.082
Mof_H 	H 	0.4552	0.2885	0.2959	-0.08
Mof_C 	C 	0.4466	0.2231	0.2388	0.24
Mof_H 	H 	0.4485	0.2252	0.3078	-0.074
Mof_H 	H 	0.4307	0.2029	0.2251	-0.075
Mof_C 	C 	0.5681	0.2456	0.0063	-0.234
Mof_C 	C 	0.5757	0.2463	0.1118	0.227
Mof_H 	H 	0.5881	0.2241	0.1295	-0.07
Mof_H 	H 	0.5918	0.2664	0.1257	-0.071
Mof_C 	C 	0.3932	0.2589	0.2474	0.161
Mof_C 	C 	0.6372	0.2359	0.8104	0.064
Mof_H 	H 	0.6373	0.2337	0.744	-0.025
Mof_C 	C 	0.6037	0.2408	0.9563	0.138
Mof_C 	C 	0.6063	0.2376	0.8564	-0.182
Mof_H 	H 	0.5849	0.2367	0.821	0.063
Mof_C 	C 	0.3349	0.2357	0.2732	0.078
Mof_H 	H 	0.3176	0.2183	0.2582	-0.026
Mof_C 	C 	0.3849	0.2845	0.3138	-0.2
Mof_H 	H 	0.4021	0.3018	0.3307	0.069
Mof_C 	C 	0.3671	0.2356	0.2247	-0.203
Mof_H 	H 	0.3708	0.2191	0.1754	0.077
Mof_C 	C 	0.3518	0.2849	0.3556	0.085
Mof_H 	H 	0.346	0.3039	0.3968	-0.039
Mof_C 	C 	0.6672	0.2395	0.9471	0.107
Mof_H 	H 	0.6889	0.2402	0.9808	-0.044
Mof_C 	C 	0.6358	0.2413	0.9995	-0.206
Mof_H 	H 	0.637	0.2428	0.066	0.077
Mof_Cu	Cu	0.21656	0.75819	0.32992	0.71
Mof_Cu	Cu	0.28402	0.75892	0.29424	0.709
Mof_I 	I 	0.25016	0.81907	0.34254	-0.635
Mof_I 	I 	0.25338	0.70145	0.38481	-0.636
Mof_Mn	Mn	0.50104	0.74893	0.60318	1.202
Mof_Mo	Mo	0.53959	0.79626	0.43231	0.935
Mof_Mo	Mo	0.50622	0.83743	0.62134	0.912
Mof_Mo	Mo	0.46718	0.79052	0.79164	0.951
Mof_Mo	Mo	0.53386	0.70775	0.41307	0.926
Mof_Mo	Mo	0.49571	0.66039	0.5846	0.924
Mof_Mo	Mo	0.46294	0.70219	0.77487	0.933
Mof_O 	O 	0.48806	0.78914	0.5229	-0.506
Mof_O 	O 	0.4564	0.75013	0.6692	-0.514
Mof_O 	O 	0.54629	0.74863	0.5374	-0.516
Mof_O 	O 	0.51839	0.78469	0.7008	-0.498
Mof_O 	O 	0.51426	0.7079	0.6831	-0.511
Mof_O 	O 	0.54643	0.82284	0.5487	-0.563
Mof_O 	O 	0.51941	0.75526	0.3757	-0.56
Mof_O 	O 	0.46473	0.82281	0.6875	-0.574
Mof_O 	O 	0.45685	0.67622	0.658	-0.57
Mof_O 	O 	0.48173	0.7443	0.8297	-0.574
Mof_O 	O 	0.48368	0.71268	0.5055	-0.499
Mof_O 	O 	0.53723	0.67501	0.5174	-0.565
Mof_N 	N 	0.3309	0.7629	0.3586	-0.261
Mof_N 	N 	0.6724	0.7404	0.8402	-0.254
Mof_C 	C 	0.57739	0.7441	0.5936	0.252
Mof_H 	H 	0.594	0.7638	0.5797	-0.077
Mof_H 	H 	0.5891	0.7217	0.5752	-0.074
Mof_C 	C 	0.5705	0.7433	0.7013	-0.262
Mof_C 	C 	0.4533	0.7886	0.4788	0.228
Mof_H 	H 	0.4562	0.7895	0.4098	-0.074
Mof_H 	H 	0.4398	0.8099	0.4983	-0.076
Mof_C 	C 	0.4488	0.7208	0.4682	0.235
Mof_H 	H 	0.4328	0.7005	0.4818	-0.074
Mof_H 	H 	0.4507	0.7229	0.3992	-0.075
Mof_C 	C 	0.5484	0.7112	0.7271	0.256
Mof_H 	H 	0.5624	0.6897	0.712	-0.082
Mof_H 	H 	0.5448	0.7115	0.7959	-0.08
Mof_C 	C 	0.5534	0.7769	0.7388	0.24
Mof_H 	H 	0.5515	0.7748	0.8078	-0.074
Mof_H 	H 	0.5693	0.7971	0.7251	-0.075
Mof_C 	C 	0.4319	0.7544	0.5063	-0.237
Mof_C 	C 	0.4243	0.7537	0.6118	0.228
Mof_H 	H 	0.4119	0.7759	0.6295	-0.07
Mof_H 	H 	0.4082	0.7336	0.6257	-0.072
Mof_C 	C 	0.6068	0.7411	0.7474	0.161
Mof_C 	C 	0.3628	0.7641	0.3104	0.064
Mof_H 	H 	0.3627	0.7663	0.244	-0.026
Mof_C 	C 	0.3963	0.7592	0.4563	0.139
Mof_C 	C 	0.3937	0.7624	0.3564	-0.182
Mof_H 	H 	0.4151	0.7633	0.321	0.063
Mof_C 	C 	0.6651	0.7643	0.7732	0.078
Mof_H 	H 	0.6824	0.7817	0.7582	-0.026
Mof_C 	C 	0.6151	0.7155	0.8138	-0.2
Mof_H 	H 	0.5979	0.6982	0.8307	0.069
Mof_C 	C 	0.6329	0.7644	0.7247	-0.203
Mof_H 	H 	0.6292	0.7809	0.6754	0.077
Mof_C 	C 	0.6482	0.7151	0.8556	0.085
Mof_H 	H 	0.654	0.6961	0.8968	-0.039
Mof_C 	C 	0.3328	0.7605	0.4471	0.107
Mof_H 	H 	0.3111	0.7598	0.4808	-0.044
Mof_C 	C 	0.3642	0.7587	0.4995	-0.204
Mof_H 	H 	0.363	0.7572	0.566	0.076
Mof_Cu	Cu	0.75819	0.21656	0.67008	0.71
Mof_Cu	Cu	0.75892	0.28402	0.70576	0.709
Mof_I 	I 	0.81907	0.25016	0.65746	-0.635
Mof_I 	I 	0.70145	0.25338	0.61519	-0.636
Mof_Mn	Mn	0.74893	0.50104	0.39682	1.202
Mof_Mo	Mo	0.79626	0.53959	0.56769	0.935
Mof_Mo	Mo	0.83743	0.50622	0.37866	0.912
Mof_Mo	Mo	0.79052	0.46718	0.20836	0.951
Mof_Mo	Mo	0.70775	0.53386	0.58693	0.926
Mof_Mo	Mo	0.66039	0.49571	0.4154	0.924
Mof_Mo	Mo	0.70219	0.46294	0.22513	0.933
Mof_O 	O 	0.78914	0.48806	0.4771	-0.506
Mof_O 	O 	0.75013	0.4564	0.3308	-0.514
Mof_O 	O 	0.74863	0.54629	0.4626	-0.516
Mof_O 	O 	0.78469	0.51839	0.2992	-0.498
Mof_O 	O 	0.7079	0.51426	0.3169	-0.511
Mof_O 	O 	0.82284	0.54643	0.4513	-0.563
Mof_O 	O 	0.75526	0.51941	0.6243	-0.56
Mof_O 	O 	0.82281	0.46473	0.3125	-0.574
Mof_O 	O 	0.67622	0.45685	0.342	-0.57
Mof_O 	O 	0.7443	0.48173	0.1703	-0.574
Mof_O 	O 	0.71268	0.48368	0.4945	-0.499
Mof_O 	O 	0.67501	0.53723	0.4826	-0.565
Mof_N 	N 	0.7629	0.3309	0.6414	-0.261
Mof_N 	N 	0.7404	0.6724	0.1598	-0.254
Mof_C 	C 	0.7441	0.57739	0.4064	0.252
Mof_H 	H 	0.7638	0.594	0.4203	-0.077
Mof_H 	H 	0.7217	0.5891	0.4248	-0.074
Mof_C 	C 	0.7433	0.5705	0.2987	-0.262
Mof_C 	C 	0.7886	0.4533	0.5212	0.228
Mof_H 	H 	0.7895	0.4562	0.5902	-0.074
Mof_H 	H 	0.8099	0.4398	0.5017	-0.076
Mof_C 	C 	0.7208	0.4488	0.5318	0.235
Mof_H 	H 	0.7005	0.4328	0.5182	-0.074
Mof_H 	H 	0.7229	0.4507	0.6008	-0.075
Mof_C 	C 	0.7112	0.5484	0.2729	0.256
Mof_H 	H 	0.6897	0.5624	0.288	-0.082
Mof_H 	H 	0.7115	0.5448	0.2041	-0.08
Mof_C 	C 	0.7769	0.5534	0.2612	0.24
Mof_H 	H 	0.7748	0.5515	0.1922	-0.074
Mof_H 	H 	0.7971	0.5693	0.2749	-0.075
Mof_C 	C 	0.7544	0.4319	0.4937	-0.237
Mof_C 	C 	0.7537	0.4243	0.3882	0.228
Mof_H 	H 	0.7759	0.4119	0.3705	-0.07
Mof_H 	H 	0.7336	0.4082	0.3743	-0.072
Mof_C 	C 	0.7411	0.6068	0.2526	0.161
Mof_C 	C 	0.7641	0.3628	0.6896	0.064
Mof_H 	H 	0.7663	0.3627	0.756	-0.026
Mof_C 	C 	0.7592	0.3963	0.5437	0.139
Mof_C 	C 	0.7624	0.3937	0.6436	-0.182
Mof_H 	H 	0.7633	0.4151	0.679	0.063
Mof_C 	C 	0.7643	0.6651	0.2268	0.078
Mof_H 	H 	0.7817	0.6824	0.2418	-0.026
Mof_C 	C 	0.7155	0.6151	0.1862	-0.2
Mof_H 	H 	0.6982	0.5979	0.1693	0.069
Mof_C 	C 	0.7644	0.6329	0.2753	-0.203
Mof_H 	H 	0.7809	0.6292	0.3246	0.077
Mof_C 	C 	0.7151	0.6482	0.1444	0.085
Mof_H 	H 	0.6961	0.654	0.1032	-0.039
Mof_C 	C 	0.7605	0.3328	0.5529	0.107
Mof_H 	H 	0.7598	0.3111	0.5192	-0.044
Mof_C 	C 	0.7587	0.3642	0.5005	-0.204
Mof_H 	H 	0.7572	0.363	0.434	0.076
Mof_Cu	Cu	0.24181	0.78344	0.17008	0.71
Mof_Cu	Cu	0.24108	0.71598	0.20576	0.709
Mof_I 	I 	0.18093	0.74984	0.15746	-0.636
Mof_I 	I 	0.29855	0.74662	0.11519	-0.636
Mof_Mn	Mn	0.25107	0.49896	0.89682	1.201
Mof_Mo	Mo	0.20374	0.46041	0.06769	0.933
Mof_Mo	Mo	0.16257	0.49378	0.87866	0.913
Mof_Mo	Mo	0.20948	0.53282	0.70836	0.951
Mof_Mo	Mo	0.29225	0.46614	0.08693	0.925
Mof_Mo	Mo	0.33961	0.50429	0.9154	0.924
Mof_Mo	Mo	0.29781	0.53706	0.72513	0.933
Mof_O 	O 	0.21086	0.51194	0.9771	-0.505
Mof_O 	O 	0.24987	0.5436	0.8308	-0.514
Mof_O 	O 	0.25137	0.45371	0.9626	-0.516
Mof_O 	O 	0.21531	0.48161	0.7992	-0.498
Mof_O 	O 	0.2921	0.48574	0.8169	-0.511
Mof_O 	O 	0.17716	0.45357	0.9513	-0.562
Mof_O 	O 	0.24474	0.48059	0.1243	-0.56
Mof_O 	O 	0.17719	0.53527	0.8125	-0.574
Mof_O 	O 	0.32378	0.54315	0.842	-0.57
Mof_O 	O 	0.2557	0.51827	0.6703	-0.574
Mof_O 	O 	0.28732	0.51632	0.9945	-0.498
Mof_O 	O 	0.32499	0.46277	0.9826	-0.564
Mof_N 	N 	0.2371	0.6691	0.1414	-0.261
Mof_N 	N 	0.2596	0.3276	0.6598	-0.254
Mof_C 	C 	0.2559	0.42261	0.9064	0.252
Mof_H 	H 	0.2362	0.406	0.9203	-0.077
Mof_H 	H 	0.2783	0.4109	0.9248	-0.074
Mof_C 	C 	0.2567	0.4295	0.7987	-0.262
Mof_C 	C 	0.2114	0.5467	0.0212	0.225
Mof_H 	H 	0.2105	0.5438	0.0902	-0.073
Mof_H 	H 	0.1901	0.5602	0.0017	-0.076
Mof_C 	C 	0.2792	0.5512	0.0318	0.232
Mof_H 	H 	0.2995	0.5672	0.0182	-0.074
Mof_H 	H 	0.2771	0.5493	0.1008	-0.074
Mof_C 	C 	0.2888	0.4516	0.7729	0.256
Mof_H 	H 	0.3103	0.4376	0.788	-0.082
Mof_H 	H 	0.2885	0.4552	0.7041	-0.08
Mof_C 	C 	0.2231	0.4466	0.7612	0.24
Mof_H 	H 	0.2252	0.4485	0.6922	-0.074
Mof_H 	H 	0.2029	0.4307	0.7749	-0.075
Mof_C 	C 	0.2456	0.5681	0.9937	-0.234
Mof_C 	C 	0.2463	0.5757	0.8882	0.227
Mof_H 	H 	0.2241	0.5881	0.8705	-0.07
Mof_H 	H 	0.2664	0.5918	0.8743	-0.071
Mof_C 	C 	0.2589	0.3932	0.7526	0.161
Mof_C 	C 	0.2359	0.6372	0.1896	0.064
Mof_H 	H 	0.2337	0.6373	0.256	-0.025
Mof_C 	C 	0.2408	0.6037	0.0437	0.138
Mof_C 	C 	0.2376	0.6063	0.1436	-0.182
Mof_H 	H 	0.2367	0.5849	0.179	0.063
Mof_C 	C 	0.2357	0.3349	0.7268	0.078
Mof_H 	H 	0.2183	0.3176	0.7418	-0.026
Mof_C 	C 	0.2845	0.3849	0.6862	-0.2
Mof_H 	H 	0.3018	0.4021	0.6693	0.069
Mof_C 	C 	0.2356	0.3671	0.7753	-0.203
Mof_H 	H 	0.2191	0.3708	0.8246	0.077
Mof_C 	C 	0.2849	0.3518	0.6444	0.085
Mof_H 	H 	0.3039	0.346	0.6032	-0.039
Mof_C 	C 	0.2395	0.6672	0.0529	0.107
Mof_H 	H 	0.2402	0.6889	0.0192	-0.044
Mof_C 	C 	0.2413	0.6358	0.0005	-0.206
Mof_H 	H 	0.2428	0.637	0.934	0.077
Mof_Cu	Cu	0.71656	0.74181	0.92008	0.71
Mof_Cu	Cu	0.78402	0.74108	0.95576	0.709
Mof_I 	I 	0.75016	0.68093	0.90746	-0.635
Mof_I 	I 	0.75338	0.79855	0.86519	-0.636
Mof_Mn	Mn	0.00104	0.75107	0.64682	1.202
Mof_Mo	Mo	0.03959	0.70374	0.81769	0.935
Mof_Mo	Mo	0.00622	0.66257	0.62866	0.913
Mof_Mo	Mo	0.96718	0.70948	0.45836	0.951
Mof_Mo	Mo	0.03386	0.79225	0.83693	0.927
Mof_Mo	Mo	0.99571	0.83961	0.6654	0.925
Mof_Mo	Mo	0.96294	0.79781	0.47513	0.933
Mof_O 	O 	0.98806	0.71086	0.7271	-0.506
Mof_O 	O 	0.9564	0.74987	0.5808	-0.514
Mof_O 	O 	0.04629	0.75137	0.7126	-0.516
Mof_O 	O 	0.01839	0.71531	0.5492	-0.498
Mof_O 	O 	0.01426	0.7921	0.5669	-0.511
Mof_O 	O 	0.04643	0.67716	0.7013	-0.563
Mof_O 	O 	0.01941	0.74474	0.8743	-0.56
Mof_O 	O 	0.96473	0.67719	0.5625	-0.574
Mof_O 	O 	0.95685	0.82378	0.592	-0.57
Mof_O 	O 	0.98173	0.7557	0.4203	-0.574
Mof_O 	O 	0.98368	0.78732	0.7445	-0.499
Mof_O 	O 	0.03723	0.82499	0.7326	-0.565
Mof_N 	N 	0.8309	0.7371	0.8914	-0.261
Mof_N 	N 	0.1724	0.7596	0.4098	-0.254
Mof_C 	C 	0.07739	0.7559	0.6564	0.252
Mof_H 	H 	0.094	0.7362	0.6703	-0.077
Mof_H 	H 	0.0891	0.7783	0.6748	-0.074
Mof_C 	C 	0.0705	0.7567	0.5487	-0.262
Mof_C 	C 	0.9533	0.7114	0.7712	0.228
Mof_H 	H 	0.9562	0.7105	0.8402	-0.074
Mof_H 	H 	0.9398	0.6901	0.7517	-0.076
Mof_C 	C 	0.9488	0.7792	0.7818	0.235
Mof_H 	H 	0.9328	0.7995	0.7682	-0.074
Mof_H 	H 	0.9507	0.7771	0.8508	-0.075
Mof_C 	C 	0.0484	0.7888	0.5229	0.256
Mof_H 	H 	0.0624	0.8103	0.538	-0.082
Mof_H 	H 	0.0448	0.7885	0.4541	-0.08
Mof_C 	C 	0.0534	0.7231	0.5112	0.24
Mof_H 	H 	0.0515	0.7252	0.4422	-0.074
Mof_H 	H 	0.0693	0.7029	0.5249	-0.075
Mof_C 	C 	0.9319	0.7456	0.7437	-0.237
Mof_C 	C 	0.9243	0.7463	0.6382	0.228
Mof_H 	H 	0.9119	0.7241	0.6205	-0.07
Mof_H 	H 	0.9082	0.7664	0.6243	-0.072
Mof_C 	C 	0.1068	0.7589	0.5026	0.161
Mof_C 	C 	0.8628	0.7359	0.9396	0.065
Mof_H 	H 	0.8627	0.7337	0.006	-0.026
Mof_C 	C 	0.8963	0.7408	0.7937	0.14
Mof_C 	C 	0.8937	0.7376	0.8936	-0.182
Mof_H 	H 	0.9151	0.7367	0.929	0.064
Mof_C 	C 	0.1651	0.7357	0.4768	0.078
Mof_H 	H 	0.1824	0.7183	0.4918	-0.026
Mof_C 	C 	0.1151	0.7845	0.4362	-0.2
Mof_H 	H 	0.0979	0.8018	0.4193	0.069
Mof_C 	C 	0.1329	0.7356	0.5253	-0.203
Mof_H 	H 	0.1292	0.7191	0.5746	0.077
Mof_C 	C 	0.1482	0.7849	0.3944	0.085
Mof_H 	H 	0.154	0.8039	0.3532	-0.039
Mof_C 	C 	0.8328	0.7395	0.8029	0.107
Mof_H 	H 	0.8111	0.7402	0.7692	-0.044
Mof_C 	C 	0.8642	0.7413	0.7505	-0.205
Mof_H 	H 	0.863	0.7428	0.684	0.076
Mof_Cu	Cu	0.28344	0.25819	0.42008	0.71
Mof_Cu	Cu	0.21598	0.25892	0.45576	0.709
Mof_I 	I 	0.24984	0.31907	0.40746	-0.635
Mof_I 	I 	0.24662	0.20145	0.36519	-0.636
Mof_Mn	Mn	0.99896	0.24893	0.14682	1.202
Mof_Mo	Mo	0.96041	0.29626	0.31769	0.935
Mof_Mo	Mo	0.99378	0.33743	0.12866	0.912
Mof_Mo	Mo	0.03282	0.29052	0.95836	0.95
Mof_Mo	Mo	0.96614	0.20775	0.33693	0.926
Mof_Mo	Mo	0.00429	0.16039	0.1654	0.925
Mof_Mo	Mo	0.03706	0.20219	0.97513	0.933
Mof_O 	O 	0.01194	0.28914	0.2271	-0.506
Mof_O 	O 	0.0436	0.25013	0.0808	-0.514
Mof_O 	O 	0.95371	0.24863	0.2126	-0.516
Mof_O 	O 	0.98161	0.28469	0.0492	-0.498
Mof_O 	O 	0.98574	0.2079	0.0669	-0.511
Mof_O 	O 	0.95357	0.32284	0.2013	-0.563
Mof_O 	O 	0.98059	0.25526	0.3743	-0.56
Mof_O 	O 	0.03527	0.32281	0.0625	-0.573
Mof_O 	O 	0.04315	0.17622	0.092	-0.57
Mof_O 	O 	0.01827	0.2443	0.9203	-0.574
Mof_O 	O 	0.01632	0.21268	0.2445	-0.499
Mof_O 	O 	0.96277	0.17501	0.2326	-0.565
Mof_N 	N 	0.1691	0.2629	0.3914	-0.261
Mof_N 	N 	0.8276	0.2404	0.9098	-0.254
Mof_C 	C 	0.92261	0.2441	0.1564	0.252
Mof_H 	H 	0.906	0.2638	0.1703	-0.077
Mof_H 	H 	0.9109	0.2217	0.1748	-0.074
Mof_C 	C 	0.9295	0.2433	0.0487	-0.262
Mof_C 	C 	0.0467	0.2886	0.2712	0.228
Mof_H 	H 	0.0438	0.2895	0.3402	-0.074
Mof_H 	H 	0.0602	0.3099	0.2517	-0.076
Mof_C 	C 	0.0512	0.2208	0.2818	0.235
Mof_H 	H 	0.0672	0.2005	0.2682	-0.074
Mof_H 	H 	0.0493	0.2229	0.3508	-0.075
Mof_C 	C 	0.9516	0.2112	0.0229	0.257
Mof_H 	H 	0.9376	0.1897	0.038	-0.082
Mof_H 	H 	0.9552	0.2115	0.9541	-0.08
Mof_C 	C 	0.9466	0.2769	0.0112	0.241
Mof_H 	H 	0.9485	0.2748	0.9422	-0.075
Mof_H 	H 	0.9307	0.2971	0.0249	-0.075
Mof_C 	C 	0.0681	0.2544	0.2437	-0.237
Mof_C 	C 	0.0757	0.2537	0.1382	0.228
Mof_H 	H 	0.0881	0.2759	0.1205	-0.07
Mof_H 	H 	0.0918	0.2336	0.1243	-0.072
Mof_C 	C 	0.8932	0.2411	0.0026	0.162
Mof_C 	C 	0.1372	0.2641	0.4396	0.064
Mof_H 	H 	0.1373	0.2663	0.506	-0.026
Mof_C 	C 	0.1037	0.2592	0.2937	0.139
Mof_C 	C 	0.1063	0.2624	0.3936	-0.182
Mof_H 	H 	0.0849	0.2633	0.429	0.064
Mof_C 	C 	0.8349	0.2643	0.9768	0.077
Mof_H 	H 	0.8176	0.2817	0.9918	-0.026
Mof_C 	C 	0.8849	0.2155	0.9362	-0.201
Mof_H 	H 	0.9021	0.1982	0.9193	0.069
Mof_C 	C 	0.8671	0.2644	0.0253	-0.202
Mof_H 	H 	0.8708	0.2809	0.0746	0.077
Mof_C 	C 	0.8518	0.2151	0.8944	0.086
Mof_H 	H 	0.846	0.1961	0.8532	-0.039
Mof_C 	C 	0.1672	0.2605	0.3029	0.107
Mof_H 	H 	0.1889	0.2598	0.2692	-0.044
Mof_C 	C 	0.1358	0.2587	0.2505	-0.204
Mof_H 	H 	0.137	0.2572	0.184	0.076
_end
