data_functionalizedCrystal
_audit_creation_method	'EQeq! by Chris Wilmer'
_symmetry_space_group_name_H-M	'P1'
_symmetry_Int_Tables_number	1
_symmetry_cell_setting	triclinic
loop_
_symmetry_equiv_pos_as_xyz
  x,y,z
_cell_length_a	12.9731
_cell_length_b	12.9731
_cell_length_c	14.781
_cell_angle_alpha	83.84
_cell_angle_beta	83.84
_cell_angle_gamma	62.2252
loop_
_atom_site_label
_atom_site_type_symbol
_atom_site_fract_x
_atom_site_fract_y
_atom_site_fract_z
_atom_site_charge
Mof_Tb	Tb	0.01177	0.64992	0.47276	1.943
Mof_Tb	Tb	0.98823	0.35008	0.52724	1.943
Mof_Tb	Tb	0.64992	0.01177	0.97276	1.919
Mof_Tb	Tb	0.35008	0.98823	0.02724	1.919
Mof_H 	H 	0.782	0.7356	0.2352	0.005
Mof_H 	H 	0.4761	0.7113	0.8385	0.058
Mof_H 	H 	0.7053	0.5185	0.6434	0.014
Mof_H 	H 	0.7356	0.782	0.7352	0.007
Mof_H 	H 	0.218	0.2644	0.7648	0.005
Mof_H 	H 	0.2887	0.5239	0.6615	0.057
Mof_H 	H 	0.5185	0.7053	0.1434	0.014
Mof_H 	H 	0.7113	0.4761	0.3385	0.057
Mof_H 	H 	0.4815	0.2947	0.8566	0.014
Mof_H 	H 	0.2947	0.4815	0.3566	0.014
Mof_H 	H 	0.2644	0.218	0.2648	0.007
Mof_H 	H 	0.5239	0.2887	0.1615	0.058
Mof_C 	C 	0.4381	0.1461	0.1371	0.492
Mof_C 	C 	0.5816	0.6014	0.7425	-0.023
Mof_C 	C 	0.6491	0.7339	0.177	-0.179
Mof_C 	C 	0.3062	0.4576	0.7007	0.028
Mof_C 	C 	0.3509	0.2661	0.823	-0.179
Mof_C 	C 	0.5328	0.521	0.2467	0.004
Mof_C 	C 	0.30363	0.26263	0.2635	0.104
Mof_C 	C 	0.5619	0.8539	0.8629	0.492
Mof_C 	C 	0.4576	0.3062	0.2007	0.026
Mof_C 	C 	0.3218	0.4202	0.3186	0.035
Mof_C 	C 	0.6938	0.5424	0.2993	0.028
Mof_C 	C 	0.2406	0.3982	0.7024	-0.169
Mof_C 	C 	0.8539	0.5619	0.3629	0.495
Mof_C 	C 	0.6014	0.5816	0.2425	-0.024
Mof_C 	C 	0.3982	0.2406	0.2024	-0.166
Mof_C 	C 	0.6018	0.7594	0.7976	-0.166
Mof_C 	C 	0.168	0.3664	0.3931	0.477
Mof_C 	C 	0.4202	0.3218	0.8186	0.035
Mof_C 	C 	0.69637	0.73737	0.7365	0.104
Mof_C 	C 	0.479	0.4672	0.2533	0.003
Mof_C 	C 	0.4184	0.3986	0.2575	-0.023
Mof_C 	C 	0.73737	0.69637	0.2365	0.106
Mof_C 	C 	0.6782	0.5798	0.6814	0.035
Mof_C 	C 	0.3664	0.168	0.8931	0.476
Mof_C 	C 	0.6336	0.832	0.1069	0.476
Mof_C 	C 	0.7339	0.6491	0.677	-0.178
Mof_C 	C 	0.4672	0.479	0.7533	0.004
Mof_C 	C 	0.521	0.5328	0.7467	0.003
Mof_C 	C 	0.5424	0.6938	0.7993	0.026
Mof_C 	C 	0.2661	0.3509	0.323	-0.178
Mof_C 	C 	0.3986	0.4184	0.7575	-0.024
Mof_C 	C 	0.5798	0.6782	0.1814	0.035
Mof_C 	C 	0.832	0.6336	0.6069	0.477
Mof_C 	C 	0.1461	0.4381	0.6371	0.495
Mof_C 	C 	0.7594	0.6018	0.2976	-0.169
Mof_C 	C 	0.26263	0.30363	0.7635	0.106
Mof_N 	N 	0.2759	0.8299	0.9674	0.076
Mof_N 	N 	0.7241	0.1701	0.0326	0.076
Mof_N 	N 	0.1701	0.7241	0.5326	0.073
Mof_N 	N 	0.8299	0.2759	0.4674	0.073
Mof_O 	O 	0.36433	0.11453	0.1208	-0.543
Mof_O 	O 	0.71471	0.85751	0.0896	-0.497
Mof_O 	O 	0.0621	0.7779	0.5486	-0.311
Mof_O 	O 	0.7779	0.0621	0.0486	-0.304
Mof_O 	O 	0.88547	0.63567	0.3792	-0.551
Mof_O 	O 	0.14249	0.28529	0.4104	-0.497
Mof_O 	O 	0.7439	0.2385	0.0698	-0.119
Mof_O 	O 	0.7615	0.2561	0.4302	-0.121
Mof_O 	O 	0.2561	0.7615	0.9302	-0.119
Mof_O 	O 	0.11453	0.36433	0.6208	-0.551
Mof_O 	O 	0.54078	0.88358	0.0664	-0.599
Mof_O 	O 	0.45922	0.11642	0.9336	-0.599
Mof_O 	O 	0.45859	0.89519	0.896	-0.481
Mof_O 	O 	0.2221	0.9379	0.9514	-0.304
Mof_O 	O 	0.11642	0.45922	0.4336	-0.601
Mof_O 	O 	0.88358	0.54078	0.5664	-0.601
Mof_O 	O 	0.10481	0.54141	0.604	-0.489
Mof_O 	O 	0.63567	0.88547	0.8792	-0.543
Mof_O 	O 	0.6451	0.2067	0.9775	-0.299
Mof_O 	O 	0.2067	0.6451	0.4775	-0.296
Mof_O 	O 	0.85751	0.71471	0.5896	-0.497
Mof_O 	O 	0.2385	0.7439	0.5698	-0.121
Mof_O 	O 	0.7933	0.3549	0.5225	-0.296
Mof_O 	O 	0.89519	0.45859	0.396	-0.489
Mof_O 	O 	0.3549	0.7933	0.0225	-0.299
Mof_O 	O 	0.28529	0.14249	0.9104	-0.497
Mof_O 	O 	0.54141	0.10481	0.104	-0.481
Mof_O 	O 	0.9379	0.2221	0.4514	-0.311
_end
