data_functionalizedCrystal
_audit_creation_method	'EQeq! by Chris Wilmer'
_symmetry_space_group_name_H-M	'P1'
_symmetry_Int_Tables_number	1
_symmetry_cell_setting	triclinic
loop_
_symmetry_equiv_pos_as_xyz
  x,y,z
_cell_length_a	16.134
_cell_length_b	16.134
_cell_length_c	4.5489
_cell_angle_alpha	90
_cell_angle_beta	90
_cell_angle_gamma	90
loop_
_atom_site_label
_atom_site_type_symbol
_atom_site_fract_x
_atom_site_fract_y
_atom_site_fract_z
_atom_site_charge
Mof_Cu	Cu	0.19906	0.53858	0.5016	0.987
Mof_O 	O 	0.0786	0.6933	0.173	-0.413
Mof_H 	H 	0.0455	0.6549	0.1808	0.287
Mof_O 	O 	0.1319	0.6184	0.754	-0.253
Mof_O 	O 	0.2197	0.6213	0.205	-0.286
Mof_O 	O 	0.424	0.9637	0.781	-0.233
Mof_O 	O 	0.4765	0.9023	0.272	-0.291
Mof_O 	O 	0.4549	0.81	0.826	-0.269
Mof_P 	P 	0.15928	0.66462	0.998	0.632
Mof_P 	P 	0.42488	0.8845	0.9995	0.603
Mof_C 	C 	0.2072	0.7606	0.894	0.054
Mof_C 	C 	0.2839	0.784	0.007	-0.09
Mof_H 	H 	0.3106	0.7523	0.1494	0.093
Mof_C 	C 	0.32	0.8586	0.897	0.051
Mof_C 	C 	0.2786	0.9088	0.695	-0.278
Mof_H 	H 	0.3025	0.9582	0.632	0.177
Mof_C 	C 	0.2006	0.8844	0.587	0.383
Mof_C 	C 	0.1667	0.812	0.681	-0.284
Mof_H 	H 	0.1159	0.7953	0.6047	0.141
Mof_C 	C 	0.153	0.9388	0.381	-0.919
Mof_H 	H 	0.101	0.913	0.3339	0.269
Mof_H 	H 	0.1844	0.9467	0.2037	0.323
Mof_H 	H 	0.1431	0.9915	0.472	0.301
Mof_O 	O 	0.221	0.621	0.782	-0.284
Mof_O 	O 	0.134	0.6092	0.283	-0.25
Mof_O 	O 	0.081	0.694	0.852	-0.175
Mof_O 	O 	0.4573	0.8051	0.172	-0.261
Mof_O 	O 	0.477	0.904	0.758	-0.274
Mof_O 	O 	0.4162	0.9615	0.207	-0.209
Mof_Cu	Cu	0.80094	0.46142	0.5016	0.988
Mof_O 	O 	0.9214	0.3067	0.173	-0.406
Mof_H 	H 	0.9545	0.3451	0.1808	0.332
Mof_O 	O 	0.8681	0.3816	0.754	-0.242
Mof_O 	O 	0.7803	0.3787	0.205	-0.286
Mof_O 	O 	0.576	0.0363	0.781	-0.282
Mof_O 	O 	0.5235	0.0977	0.272	-0.304
Mof_O 	O 	0.5451	0.19	0.826	-0.27
Mof_P 	P 	0.84072	0.33538	0.998	0.623
Mof_P 	P 	0.57512	0.1155	0.9995	0.619
Mof_C 	C 	0.7928	0.2394	0.894	0.05
Mof_C 	C 	0.7161	0.216	0.007	-0.08
Mof_H 	H 	0.6894	0.2477	0.1494	0.09
Mof_C 	C 	0.68	0.1414	0.897	0.032
Mof_C 	C 	0.7214	0.0912	0.695	-0.251
Mof_H 	H 	0.6975	0.0418	0.632	0.136
Mof_C 	C 	0.7994	0.1156	0.587	0.348
Mof_C 	C 	0.8333	0.188	0.681	-0.266
Mof_H 	H 	0.8841	0.2047	0.6047	0.158
Mof_C 	C 	0.847	0.0612	0.381	-0.844
Mof_H 	H 	0.899	0.087	0.3339	0.266
Mof_H 	H 	0.8156	0.0533	0.2037	0.283
Mof_H 	H 	0.8569	0.0085	0.472	0.243
Mof_O 	O 	0.779	0.379	0.782	-0.284
Mof_O 	O 	0.866	0.3908	0.283	-0.239
Mof_O 	O 	0.919	0.306	0.852	-0.136
Mof_O 	O 	0.5427	0.1949	0.172	-0.262
Mof_O 	O 	0.523	0.096	0.758	-0.284
Mof_O 	O 	0.5838	0.0385	0.207	-0.254
Mof_Cu	Cu	0.53858	0.80094	0.4984	0.988
Mof_O 	O 	0.6933	0.9214	0.827	-0.406
Mof_H 	H 	0.6549	0.9545	0.8192	0.332
Mof_O 	O 	0.6184	0.8681	0.246	-0.241
Mof_O 	O 	0.6213	0.7803	0.795	-0.286
Mof_O 	O 	0.9637	0.576	0.219	-0.233
Mof_O 	O 	0.9023	0.5235	0.728	-0.29
Mof_O 	O 	0.81	0.5451	0.174	-0.269
Mof_P 	P 	0.66462	0.84072	0.002	0.619
Mof_P 	P 	0.8845	0.57512	0.0005	0.6
Mof_C 	C 	0.7606	0.7928	0.106	0.075
Mof_C 	C 	0.784	0.7161	0.993	-0.107
Mof_H 	H 	0.7523	0.6894	0.8506	0.099
Mof_C 	C 	0.8586	0.68	0.103	0.065
Mof_C 	C 	0.9088	0.7214	0.305	-0.31
Mof_H 	H 	0.9582	0.6975	0.368	0.188
Mof_C 	C 	0.8844	0.7994	0.413	0.436
Mof_C 	C 	0.812	0.8333	0.319	-0.32
Mof_H 	H 	0.7953	0.8841	0.3953	0.176
Mof_C 	C 	0.9388	0.847	0.619	-1.014
Mof_H 	H 	0.913	0.899	0.6661	0.328
Mof_H 	H 	0.9467	0.8156	0.7963	0.355
Mof_H 	H 	0.9915	0.8569	0.528	0.337
Mof_O 	O 	0.621	0.779	0.218	-0.284
Mof_O 	O 	0.6092	0.866	0.717	-0.238
Mof_O 	O 	0.694	0.919	0.148	-0.137
Mof_O 	O 	0.8051	0.5427	0.828	-0.261
Mof_O 	O 	0.904	0.523	0.242	-0.273
Mof_O 	O 	0.9615	0.5838	0.793	-0.209
Mof_Cu	Cu	0.46142	0.19906	0.4984	0.988
Mof_O 	O 	0.3067	0.0786	0.827	-0.411
Mof_H 	H 	0.3451	0.0455	0.8192	0.287
Mof_O 	O 	0.3816	0.1319	0.246	-0.254
Mof_O 	O 	0.3787	0.2197	0.795	-0.286
Mof_O 	O 	0.0363	0.424	0.219	-0.282
Mof_O 	O 	0.0977	0.4765	0.728	-0.304
Mof_O 	O 	0.19	0.4549	0.174	-0.27
Mof_P 	P 	0.33538	0.15928	0.002	0.637
Mof_P 	P 	0.1155	0.42488	0.0005	0.622
Mof_C 	C 	0.2394	0.2072	0.106	0.029
Mof_C 	C 	0.216	0.2839	0.993	-0.063
Mof_H 	H 	0.2477	0.3106	0.8506	0.084
Mof_C 	C 	0.1414	0.32	0.103	0.017
Mof_C 	C 	0.0912	0.2786	0.305	-0.218
Mof_H 	H 	0.0418	0.3025	0.368	0.126
Mof_C 	C 	0.1156	0.2006	0.413	0.296
Mof_C 	C 	0.188	0.1667	0.319	-0.23
Mof_H 	H 	0.2047	0.1159	0.3953	0.123
Mof_C 	C 	0.0612	0.153	0.619	-0.749
Mof_H 	H 	0.087	0.101	0.6661	0.207
Mof_H 	H 	0.0533	0.1844	0.7963	0.251
Mof_H 	H 	0.0085	0.1431	0.528	0.208
Mof_O 	O 	0.379	0.221	0.218	-0.283
Mof_O 	O 	0.3908	0.134	0.717	-0.25
Mof_O 	O 	0.306	0.081	0.148	-0.174
Mof_O 	O 	0.1949	0.4573	0.828	-0.262
Mof_O 	O 	0.096	0.477	0.242	-0.285
Mof_O 	O 	0.0385	0.4162	0.793	-0.254
Mof_Cu	Cu	0.5	1.33242e-33	0.5005	0.985
Mof_Cu	Cu	-2.1368e-33	0.5	0.4995	0.985
_end
