# CIF file generated by openbabel 3.1.0, see https://openbabel.org
data_I
_chemical_name_common 'FEHCIG'
_cell_length_a 18.0802
_cell_length_b 18.0802
_cell_length_c 18.0802
_cell_angle_alpha 134.594
_cell_angle_beta 98.557
_cell_angle_gamma 98.5763
_space_group_name_H-M_alt 'P 1'
_space_group_name_Hall 'P 1'
loop_
    _symmetry_equiv_pos_as_xyz
    x,y,z
loop_
    _atom_site_label
    _atom_site_type_symbol
    _atom_site_fract_x
    _atom_site_fract_y
    _atom_site_fract_z
    _atom_site_occupancy
    Zn1      Zn       0.73328    0.88601    0.60425    1.000
    O2       O        0.79500    0.02790    0.66310    1.000
    O3       O        0.82460    0.84440    0.61220    1.000
    N4       N        0.19830    0.39060    0.71070    1.000
    N5       N        0.15300    0.79530    0.95570    1.000
    C6       C        0.91930    0.12810    0.65240    1.000
    H7       H        0.87820    0.06250    0.58310    1.000
    C8       C        0.98590    0.18900    0.65670    1.000
    H9       H        0.99250    0.15650    0.58940    1.000
    C10      C        0.14810    0.30670    0.68240    1.000
    C11      C        0.14600    0.19230    0.59930    1.000
    H12      H        0.18570    0.18720    0.56590    1.000
    H13      H        0.09250    0.14250    0.54120    1.000
    H14      H        0.15840    0.17060    0.63500    1.000
    C15      C        0.94500    0.84720    0.72960    1.000
    H16      H        0.94610    0.91470    0.75500    1.000
    C17      C        0.00500    0.84920    0.78980    1.000
    H18      H        0.04670    0.91760    0.85530    1.000
    C19      C        0.09590    0.82080    0.93050    1.000
    C20      C        0.07380    0.91550    0.02030    1.000
    H21      H        0.10710    0.95020    0.09250    1.000
    H22      H        0.01720    0.88810    0.00690    1.000
    H23      H        0.08290    0.97060    0.02070    1.000
    Zn24     Zn       0.78176    0.12903    0.89575    1.000
    O25      O        0.86480    0.13190    0.83690    1.000
    O26      O        0.73220    0.21240    0.88780    1.000
    N27      N        0.17990    0.48760    0.78930    1.000
    N28      N        0.33960    0.19730    0.54430    1.000
    C29      C        0.97570    0.26690    0.84760    1.000
    H30      H        0.97940    0.29510    0.91690    1.000
    C31      C        0.03230    0.32920    0.84330    1.000
    H32      H        0.06710    0.40310    0.91060    1.000
    C33      C        0.12430    0.46570    0.81760    1.000
    C34      C        0.09300    0.54670    0.90070    1.000
    H35      H        0.12130    0.61980    0.93410    1.000
    H36      H        0.10130    0.55130    0.95880    1.000
    H37      H        0.03560    0.52340    0.86500    1.000
    C38      C        0.61760    0.21540    0.77040    1.000
    H39      H        0.65970    0.19110    0.74500    1.000
    C40      C        0.55940    0.21520    0.71020    1.000
    H41      H        0.56230    0.19140    0.64470    1.000
    C42      C        0.39030    0.16540    0.56950    1.000
    C43      C        0.39520    0.05350    0.47970    1.000
    H44      H        0.35770    0.01460    0.40750    1.000
    H45      H        0.38120    0.01030    0.49310    1.000
    H46      H        0.44990    0.06220    0.47930    1.000
    Zn47     Zn       0.71824    0.61399    0.34727    1.000
    O48      O        0.63520    0.47210    0.26710    1.000
    O49      O        0.76780    0.65560    0.48020    1.000
    N50      N        0.32010    0.10940    0.30770    1.000
    N51      N        0.16040    0.70470    0.85770    1.000
    C52      C        0.52430    0.37190    0.29120    1.000
    H53      H        0.52060    0.43750    0.31570    1.000
    C54      C        0.46770    0.31100    0.29690    1.000
    H55      H        0.43290    0.34350    0.33600    1.000
    C56      C        0.37570    0.19330    0.34140    1.000
    C57      C        0.40700    0.30770    0.45370    1.000
    H58      H        0.37870    0.31280    0.49850    1.000
    H59      H        0.39870    0.35750    0.45000    1.000
    H60      H        0.46440    0.32940    0.48780    1.000
    C61      C        0.88240    0.65280    0.59780    1.000
    H62      H        0.84030    0.58530    0.53140    1.000
    C63      C        0.94060    0.65080    0.65580    1.000
    H64      H        0.93770    0.58240    0.62910    1.000
    C65      C        0.10970    0.67920    0.77510    1.000
    C66      C        0.10480    0.58450    0.65830    1.000
    H67      H        0.14230    0.54980    0.65690    1.000
    H68      H        0.11880    0.61190    0.62910    1.000
    H69      H        0.05010    0.52940    0.61230    1.000
    Zn70     Zn       0.76672    0.37097    0.15273    1.000
    O71      O        0.70500    0.36810    0.23290    1.000
    O72      O        0.67540    0.28760    0.01980    1.000
    N73      N        0.30170    0.01240    0.19230    1.000
    N74      N        0.34700    0.30270    0.64230    1.000
    C75      C        0.58070    0.23310    0.20880    1.000
    H76      H        0.62180    0.20490    0.18430    1.000
    C77      C        0.51410    0.17080    0.20310    1.000
    H78      H        0.50750    0.09690    0.16400    1.000
    C79      C        0.35190    0.03430    0.15860    1.000
    C80      C        0.35400    0.95330    0.04630    1.000
    H81      H        0.31430    0.88020    0.00150    1.000
    H82      H        0.40750    0.94870    0.05000    1.000
    H83      H        0.34160    0.97660    0.01220    1.000
    C84      C        0.55500    0.28460    0.90220    1.000
    H85      H        0.55390    0.30890    0.96860    1.000
    C86      C        0.49500    0.28480    0.84420    1.000
    H87      H        0.45330    0.30860    0.87090    1.000
    C88      C        0.40410    0.33460    0.72490    1.000
    C89      C        0.42620    0.44650    0.84170    1.000
    H90      H        0.39290    0.48540    0.84310    1.000
    H91      H        0.48280    0.48970    0.87090    1.000
    H92      H        0.41710    0.43780    0.88770    1.000
    Zn93     Zn       0.26672    0.11399    0.39575    1.000
    O94      O        0.20500    0.97210    0.33690    1.000
    O95      O        0.17540    0.15560    0.38780    1.000
    N96      N        0.80170    0.60940    0.28930    1.000
    N97      N        0.84700    0.20470    0.04430    1.000
    C98      C        0.08070    0.87190    0.34760    1.000
    H99      H        0.12180    0.93750    0.41690    1.000
    C100     C        0.01410    0.81100    0.34330    1.000
    H101     H        0.00750    0.84350    0.41060    1.000
    C102     C        0.85190    0.69330    0.31760    1.000
    C103     C        0.85400    0.80770    0.40070    1.000
    H104     H        0.81430    0.81280    0.43410    1.000
    H105     H        0.90750    0.85750    0.45880    1.000
    H106     H        0.84160    0.82940    0.36500    1.000
    C107     C        0.05500    0.15280    0.27040    1.000
    H108     H        0.05390    0.08530    0.24500    1.000
    C109     C        0.99500    0.15080    0.21020    1.000
    H110     H        0.95330    0.08240    0.14470    1.000
    C111     C        0.90410    0.17920    0.06950    1.000
    C112     C        0.92620    0.08450    0.97970    1.000
    H113     H        0.89290    0.04980    0.90750    1.000
    H114     H        0.98280    0.11190    0.99310    1.000
    H115     H        0.91710    0.02940    0.97930    1.000
    Zn116    Zn       0.21824    0.87097    0.10425    1.000
    O117     O        0.13520    0.86810    0.16310    1.000
    O118     O        0.26780    0.78760    0.11220    1.000
    N119     N        0.82010    0.51240    0.21070    1.000
    N120     N        0.66040    0.80270    0.45570    1.000
    C121     C        0.02430    0.73310    0.15240    1.000
    H122     H        0.02060    0.70490    0.08310    1.000
    C123     C        0.96770    0.67080    0.15670    1.000
    H124     H        0.93290    0.59690    0.08940    1.000
    C125     C        0.87570    0.53430    0.18240    1.000
    C126     C        0.90700    0.45330    0.09930    1.000
    H127     H        0.87870    0.38020    0.06590    1.000
    H128     H        0.89870    0.44870    0.04120    1.000
    H129     H        0.96440    0.47660    0.13500    1.000
    C130     C        0.38240    0.78460    0.22960    1.000
    H131     H        0.34030    0.80890    0.25500    1.000
    C132     C        0.44060    0.78480    0.28980    1.000
    H133     H        0.43770    0.80860    0.35530    1.000
    C134     C        0.60970    0.83460    0.43050    1.000
    C135     C        0.60480    0.94650    0.52030    1.000
    H136     H        0.64230    0.98540    0.59250    1.000
    H137     H        0.61880    0.98970    0.50690    1.000
    H138     H        0.55010    0.93780    0.52070    1.000
    Zn139    Zn       0.28176    0.38601    0.65273    1.000
    O140     O        0.36480    0.52790    0.73290    1.000
    O141     O        0.23220    0.34440    0.51980    1.000
    N142     N        0.67990    0.89060    0.69230    1.000
    N143     N        0.83960    0.29530    0.14230    1.000
    C144     C        0.47570    0.62810    0.70880    1.000
    H145     H        0.47940    0.56250    0.68430    1.000
    C146     C        0.53230    0.68900    0.70310    1.000
    H147     H        0.56710    0.65650    0.66400    1.000
    C148     C        0.62430    0.80670    0.65860    1.000
    C149     C        0.59300    0.69230    0.54630    1.000
    H150     H        0.62130    0.68720    0.50150    1.000
    H151     H        0.60130    0.64250    0.55000    1.000
    H152     H        0.53560    0.67060    0.51220    1.000
    C153     C        0.11760    0.34720    0.40220    1.000
    H154     H        0.15970    0.41470    0.46860    1.000
    C155     C        0.05940    0.34920    0.34420    1.000
    H156     H        0.06230    0.41760    0.37090    1.000
    C157     C        0.89030    0.32080    0.22490    1.000
    C158     C        0.89520    0.41550    0.34170    1.000
    H159     H        0.85770    0.45020    0.34310    1.000
    H160     H        0.88120    0.38810    0.37090    1.000
    H161     H        0.94990    0.47060    0.38770    1.000
    Zn162    Zn       0.23328    0.62903    0.84727    1.000
    O163     O        0.29500    0.63190    0.76710    1.000
    O164     O        0.32460    0.71240    0.98020    1.000
    N165     N        0.69830    0.98760    0.80770    1.000
    N166     N        0.65300    0.69730    0.35770    1.000
    C167     C        0.41930    0.76690    0.79120    1.000
    H168     H        0.37820    0.79510    0.81570    1.000
    C169     C        0.48590    0.82920    0.79690    1.000
    H170     H        0.49250    0.90310    0.83600    1.000
    C171     C        0.64810    0.96570    0.84140    1.000
    C172     C        0.64600    0.04670    0.95370    1.000
    H173     H        0.68570    0.11980    0.99850    1.000
    H174     H        0.59250    0.05130    0.95000    1.000
    H175     H        0.65840    0.02340    0.98780    1.000
    C176     C        0.44500    0.71540    0.09780    1.000
    H177     H        0.44610    0.69110    0.03140    1.000
    C178     C        0.50500    0.71520    0.15580    1.000
    H179     H        0.54670    0.69140    0.12910    1.000
    C180     C        0.59590    0.66540    0.27510    1.000
    C181     C        0.57380    0.55350    0.15830    1.000
    H182     H        0.60710    0.51460    0.15690    1.000
    H183     H        0.51720    0.51030    0.12910    1.000
    H184     H        0.58290    0.56220    0.11230    1.000
    C185     C        0.85390    0.10390    0.75000    1.000
    C186     C        0.91670    0.16670    0.75000    1.000
    C187     C        0.03600    0.28600    0.75000    1.000
    C188     C        0.09840    0.34840    0.75000    1.000
    C189     C        0.64610    0.39610    0.25000    1.000
    C190     C        0.58330    0.33330    0.25000    1.000
    C191     C        0.46400    0.21400    0.25000    1.000
    C192     C        0.40160    0.15160    0.25000    1.000
    C193     C        0.14610    0.89610    0.25000    1.000
    C194     C        0.08330    0.83330    0.25000    1.000
    C195     C        0.96400    0.71400    0.25000    1.000
    C196     C        0.90160    0.65160    0.25000    1.000
    C197     C        0.35390    0.60390    0.75000    1.000
    C198     C        0.41670    0.66670    0.75000    1.000
    C199     C        0.53600    0.78600    0.75000    1.000
    C200     C        0.59840    0.84840    0.75000    1.000
    C201     C        0.82200    0.75000    0.57200    1.000
    C202     C        0.88510    0.75000    0.63510    1.000
    C203     C        0.00410    0.75000    0.75410    1.000
    C204     C        0.06670    0.75000    0.81670    1.000
    C205     C        0.67800    0.25000    0.92800    1.000
    C206     C        0.61490    0.25000    0.86490    1.000
    C207     C        0.49590    0.25000    0.74590    1.000
    C208     C        0.43330    0.25000    0.68330    1.000
    C209     C        0.17800    0.25000    0.42800    1.000
    C210     C        0.11490    0.25000    0.36490    1.000
    C211     C        0.99590    0.25000    0.24590    1.000
    C212     C        0.93330    0.25000    0.18330    1.000
    C213     C        0.32200    0.75000    0.07200    1.000
    C214     C        0.38510    0.75000    0.13510    1.000
    C215     C        0.50410    0.75000    0.25410    1.000
    C216     C        0.56670    0.75000    0.31670    1.000
