data_functionalizedCrystal
_audit_creation_method	'EQeq! by Chris Wilmer'
_symmetry_space_group_name_H-M	'P1'
_symmetry_Int_Tables_number	1
_symmetry_cell_setting	triclinic
loop_
_symmetry_equiv_pos_as_xyz
  x,y,z
_cell_length_a	19.53
_cell_length_b	9.564
_cell_length_c	6.852
_cell_angle_alpha	90
_cell_angle_beta	110.75
_cell_angle_gamma	90
loop_
_atom_site_label
_atom_site_type_symbol
_atom_site_fract_x
_atom_site_fract_y
_atom_site_fract_z
_atom_site_charge
Mof_Ca	Ca	0.4805	0.1058	0.2309	1.383
Mof_O 	O 	0.578	0.256	0.169	-0.366
Mof_O 	O 	0.575	0.256	0.481	-0.359
Mof_C 	C 	0.605	0.291	0.35	0.384
Mof_C 	C 	0.674	0.373	0.423	-0.197
Mof_C 	C 	0.708	0.403	0.284	0.183
Mof_O 	O 	0.671	0.409	0.064	-0.143
Mof_O 	O 	0.671	0.409	0.774	-0.15
Mof_C 	C 	0.774	0.472	0.343	-0.072
Mof_C 	C 	0.807	0.52	0.559	0.08
Mof_N 	N 	0.378	0.917	0.126	-0.158
Mof_C 	C 	0.776	0.484	0.703	-0.073
Mof_C 	C 	0.707	0.411	0.634	0.183
Mof_O 	O 	0.447	0.088	0.54	-0.517
Mof_O 	O 	0.446	0.083	0.851	-0.516
Mof_C 	C 	0.427	0.139	0.677	0.441
Mof_C 	C 	0.374	0.267	0.625	-0.107
Mof_Ca	Ca	0.0195	0.6058	0.2691	1.382
Mof_O 	O 	0.922	0.756	0.331	-0.364
Mof_O 	O 	0.925	0.756	0.019	-0.354
Mof_C 	C 	0.895	0.791	0.15	0.382
Mof_C 	C 	0.826	0.873	0.077	-0.187
Mof_C 	C 	0.792	0.903	0.216	0.18
Mof_O 	O 	0.829	0.909	0.436	-0.142
Mof_O 	O 	0.829	0.909	0.726	-0.149
Mof_C 	C 	0.726	0.972	0.157	-0.068
Mof_C 	C 	0.693	0.02	0.941	0.078
Mof_N 	N 	0.122	0.417	0.374	-0.159
Mof_C 	C 	0.724	0.984	0.797	-0.071
Mof_C 	C 	0.793	0.911	0.866	0.176
Mof_O 	O 	0.053	0.588	0.96	-0.516
Mof_O 	O 	0.054	0.583	0.649	-0.517
Mof_C 	C 	0.073	0.639	0.823	0.441
Mof_C 	C 	0.126	0.767	0.875	-0.107
Mof_Ca	Ca	0.5195	0.8942	0.7691	1.382
Mof_O 	O 	0.422	0.744	0.831	-0.367
Mof_O 	O 	0.425	0.744	0.519	-0.359
Mof_C 	C 	0.395	0.709	0.65	0.384
Mof_C 	C 	0.326	0.627	0.577	-0.197
Mof_C 	C 	0.292	0.597	0.716	0.183
Mof_O 	O 	0.329	0.591	0.936	-0.143
Mof_O 	O 	0.329	0.591	0.226	-0.15
Mof_C 	C 	0.226	0.528	0.657	-0.072
Mof_C 	C 	0.193	0.48	0.441	0.08
Mof_N 	N 	0.622	0.083	0.874	-0.158
Mof_C 	C 	0.224	0.516	0.297	-0.073
Mof_C 	C 	0.293	0.589	0.366	0.183
Mof_O 	O 	0.553	0.912	0.46	-0.517
Mof_O 	O 	0.554	0.917	0.149	-0.516
Mof_C 	C 	0.573	0.861	0.323	0.441
Mof_C 	C 	0.626	0.733	0.375	-0.107
Mof_Ca	Ca	0.9805	0.3942	0.7309	1.382
Mof_O 	O 	0.078	0.244	0.669	-0.364
Mof_O 	O 	0.075	0.244	0.981	-0.354
Mof_C 	C 	0.105	0.209	0.85	0.382
Mof_C 	C 	0.174	0.127	0.923	-0.187
Mof_C 	C 	0.208	0.097	0.784	0.18
Mof_O 	O 	0.171	0.091	0.564	-0.142
Mof_O 	O 	0.171	0.091	0.274	-0.149
Mof_C 	C 	0.274	0.028	0.843	-0.068
Mof_C 	C 	0.307	0.98	0.059	0.078
Mof_N 	N 	0.878	0.583	0.626	-0.159
Mof_C 	C 	0.276	0.016	0.203	-0.071
Mof_C 	C 	0.207	0.089	0.134	0.176
Mof_O 	O 	0.947	0.412	0.04	-0.516
Mof_O 	O 	0.946	0.417	0.351	-0.517
Mof_C 	C 	0.927	0.361	0.177	0.441
Mof_C 	C 	0.874	0.233	0.125	-0.107
_end
