data_functionalizedCrystal
_audit_creation_method	'EQeq! by Chris Wilmer'
_symmetry_space_group_name_H-M	'P1'
_symmetry_Int_Tables_number	1
_symmetry_cell_setting	triclinic
loop_
_symmetry_equiv_pos_as_xyz
  x,y,z
_cell_length_a	10.8981
_cell_length_b	11.5452
_cell_length_c	13.4086
_cell_angle_alpha	69.399
_cell_angle_beta	79.959
_cell_angle_gamma	62.242
loop_
_atom_site_label
_atom_site_type_symbol
_atom_site_fract_x
_atom_site_fract_y
_atom_site_fract_z
_atom_site_charge
Mof_Nd	Nd	0.62032	0.21632	0.77591	1.701
Mof_Nd	Nd	0.37968	0.78368	0.22409	1.701
Mof_U 	U 	0.36923	0.29599	0.16749	-0.004
Mof_U 	U 	0.63077	0.70401	0.83251	-0.004
Mof_U 	U 	8.13586e-17	0.5	0.5	0.002
Mof_H 	H 	0.18441	0.09619	0.73261	0.043
Mof_H 	H 	0.70723	0.99898	0.41687	0.05
Mof_H 	H 	0.09665	0.36347	0.95335	0.064
Mof_H 	H 	0.81559	0.90381	0.26739	0.043
Mof_H 	H 	0.29277	0.00102	0.58313	0.05
Mof_H 	H 	0.90335	0.63653	0.04665	0.065
Mof_C 	C 	0.4191	0.029	0.8104	0.36
Mof_C 	C 	0.9193	0.2774	0.717	0.377
Mof_C 	C 	0.0332	0.258	0.7807	-0.066
Mof_C 	C 	0.278	0.1357	0.829	-0.084
Mof_C 	C 	0.0085	0.3378	0.8459	-0.042
Mof_C 	C 	0.2501	0.2156	0.8961	-0.089
Mof_C 	C 	0.1677	0.1546	0.7746	0.013
Mof_C 	C 	0.2575	0.2556	0.4967	0.277
Mof_C 	C 	0.5255	0.2526	0.3859	0.302
Mof_C 	C 	0.8732	0.457	0.8479	0.28
Mof_C 	C 	0.3549	0.2008	0.9633	0.358
Mof_C 	C 	0.6219	0.9995	0.4509	-0.007
Mof_C 	C 	0.3846	0.1246	0.4976	-0.04
Mof_C 	C 	0.5088	0.1244	0.4473	-0.046
Mof_C 	C 	0.116	0.3123	0.9049	-0.011
Mof_C 	C 	0.5809	0.971	0.1896	0.36
Mof_C 	C 	0.0807	0.7226	0.283	0.377
Mof_C 	C 	0.9668	0.742	0.2193	-0.066
Mof_C 	C 	0.722	0.8643	0.171	-0.084
Mof_C 	C 	0.9915	0.6622	0.1541	-0.041
Mof_C 	C 	0.7499	0.7844	0.1039	-0.089
Mof_C 	C 	0.8323	0.8454	0.2254	0.013
Mof_C 	C 	0.7425	0.7444	0.5033	0.277
Mof_C 	C 	0.4745	0.7474	0.6141	0.302
Mof_C 	C 	0.1268	0.543	0.1521	0.28
Mof_C 	C 	0.6451	0.7992	0.0367	0.358
Mof_C 	C 	0.3781	0.0005	0.5491	-0.007
Mof_C 	C 	0.6154	0.8754	0.5024	-0.04
Mof_C 	C 	0.4912	0.8756	0.5527	-0.046
Mof_C 	C 	0.884	0.6877	0.0951	-0.011
Mof_O 	O 	0.9005	0.3568	0.6225	-0.236
Mof_O 	O 	0.4947	0.307	0.2875	-0.212
Mof_O 	O 	0.3107	0.215	0.0545	-0.232
Mof_O 	O 	0.4272	0.9098	0.8277	-0.226
Mof_O 	O 	0.7738	0.4864	0.7937	-0.22
Mof_O 	O 	0.265	0.3678	0.4703	-0.208
Mof_O 	O 	0.8537	0.2085	0.7612	-0.488
Mof_O 	O 	0.1435	0.2503	0.5248	-0.206
Mof_O 	O 	0.517	0.0598	0.7787	-0.44
Mof_O 	O 	0.8566	0.5304	0.904	-0.208
Mof_O 	O 	0.4748	0.1791	0.9318	-0.47
Mof_O 	O 	0.577	0.2972	0.4296	-0.292
Mof_O 	O 	0.0995	0.6432	0.3775	-0.236
Mof_O 	O 	0.5053	0.693	0.7125	-0.212
Mof_O 	O 	0.6893	0.785	0.9455	-0.232
Mof_O 	O 	0.5728	0.0902	0.1723	-0.226
Mof_O 	O 	0.2262	0.5136	0.2063	-0.22
Mof_O 	O 	0.735	0.6322	0.5297	-0.208
Mof_O 	O 	0.1463	0.7915	0.2388	-0.488
Mof_O 	O 	0.8565	0.7497	0.4752	-0.206
Mof_O 	O 	0.483	0.9402	0.2213	-0.44
Mof_O 	O 	0.1434	0.4696	0.096	-0.208
Mof_O 	O 	0.5252	0.8209	0.0682	-0.47
Mof_O 	O 	0.423	0.7028	0.5704	-0.292
_end
