# CIF file generated by openbabel 3.1.0, see https://openbabel.org
data_I
_chemical_name_common 'ja076167asi20070815_063752_clean'
_cell_length_a 14.5154
_cell_length_b 39.356
_cell_length_c 21.629
_cell_angle_alpha 90
_cell_angle_beta 90
_cell_angle_gamma 90
_space_group_name_H-M_alt 'P 1'
_space_group_name_Hall 'P 1'
loop_
    _symmetry_equiv_pos_as_xyz
    x,y,z
loop_
    _atom_site_label
    _atom_site_type_symbol
    _atom_site_fract_x
    _atom_site_fract_y
    _atom_site_fract_z
    _atom_site_occupancy
    Zn1      Zn       0.10165    0.11053    0.58176    1.000
    Zn2      Zn       0.26639    0.15079    0.67029    1.000
    Zn3      Zn       0.19079    0.62691    0.47329    1.000
    Zn4      Zn       0.69079    0.87309    0.47329    1.000
    Zn5      Zn       0.60165    0.61053    0.91824    1.000
    Zn6      Zn       0.76639    0.34921    0.67029    1.000
    Zn7      Zn       0.80921    0.37309    0.52671    1.000
    Zn8      Zn       0.76639    0.65079    0.82971    1.000
    Zn9      Zn       0.73361    0.15079    0.17029    1.000
    Zn10     Zn       0.39835    0.61053    0.41824    1.000
    Zn11     Zn       0.89835    0.88947    0.41824    1.000
    Zn12     Zn       0.39835    0.38947    0.08176    1.000
    Zn13     Zn       0.19079    0.37309    0.02671    1.000
    Zn14     Zn       0.69079    0.12691    0.02671    1.000
    Zn15     Zn       0.80921    0.62691    0.97329    1.000
    Zn16     Zn       0.23361    0.34921    0.17029    1.000
    Zn17     Zn       0.26639    0.84921    0.82971    1.000
    Zn18     Zn       0.73361    0.84921    0.32971    1.000
    Zn19     Zn       0.23361    0.65079    0.32971    1.000
    Zn20     Zn       0.30921    0.12691    0.52671    1.000
    Zn21     Zn       0.60165    0.38947    0.58176    1.000
    Zn22     Zn       0.10165    0.88947    0.91824    1.000
    Zn23     Zn       0.30921    0.87309    0.97329    1.000
    Zn24     Zn       0.89835    0.11053    0.08176    1.000
    B1       B        0.49910    0.27390    0.02060    1.000
    B2       B        0.46100    0.02067    0.06330    1.000
    B3       B        0.52650    0.65935    0.67110    1.000
    B4       B        0.96100    0.52067    0.43670    1.000
    B5       B        0.06670    0.88193    0.65970    1.000
    B6       B        0.07310    0.84243    0.21870    1.000
    B7       B        0.41470    0.33754    0.86170    1.000
    B8       B        0.11810    0.09230    0.33460    1.000
    B9       B        0.53900    0.02067    0.56330    1.000
    B10      B        0.39500    0.25041    0.02870    1.000
    B11      B        0.57310    0.34243    0.28130    1.000
    B12      B        0.87450    0.74362    0.39080    1.000
    B13      B        0.03450    0.71934    0.86070    1.000
    B14      B        0.45430    0.03904    0.98790    1.000
    B15      B        0.62550    0.24362    0.60920    1.000
    B16      B        0.00060    0.72961    0.99090    1.000
    B17      B        0.91000    0.25083    0.55010    1.000
    B18      B        0.97350    0.84065    0.17110    1.000
    B19      B        0.45430    0.96096    0.51210    1.000
    B20      B        0.42690    0.34243    0.78130    1.000
    B21      B        0.99910    0.22610    0.02060    1.000
    B22      B        0.06040    0.49379    0.43410    1.000
    B23      B        0.50060    0.22961    0.50910    1.000
    B24      B        0.40500    0.38679    0.76400    1.000
    B25      B        0.53900    0.97933    0.93670    1.000
    B26      B        0.43150    0.75729    0.86880    1.000
    B27      B        0.99200    0.08946    0.80020    1.000
    B28      B        0.92690    0.15757    0.78130    1.000
    B29      B        0.11520    0.50355    0.99290    1.000
    B30      B        0.95770    0.78187    0.90370    1.000
    B31      B        0.58530    0.33754    0.36170    1.000
    B32      B        0.51850    0.59470    0.11920    1.000
    B33      B        0.61520    0.99645    0.99290    1.000
    B34      B        0.07760    0.71092    0.93690    1.000
    B35      B        0.95060    0.52412    0.05550    1.000
    B36      B        0.00090    0.77390    0.97940    1.000
    B37      B        0.87450    0.25638    0.10920    1.000
    B38      B        0.00800    0.91054    0.19980    1.000
    B39      B        0.11810    0.90770    0.16540    1.000
    B40      B        0.50800    0.58946    0.19980    1.000
    B41      B        0.48150    0.59470    0.61920    1.000
    B42      B        0.08530    0.16246    0.36170    1.000
    B43      B        0.09000    0.25083    0.05010    1.000
    B44      B        0.00250    0.86186    0.60100    1.000
    B45      B        0.03900    0.47933    0.56330    1.000
    B46      B        0.56850    0.75729    0.36880    1.000
    B47      B        0.98150    0.90530    0.61920    1.000
    B48      B        0.15910    0.86589    0.17790    1.000
    B49      B        0.65910    0.36589    0.32210    1.000
    B50      B        0.88480    0.49645    0.00710    1.000
    B51      B        0.50090    0.27390    0.52060    1.000
    B52      B        0.93960    0.49379    0.93410    1.000
    B53      B        0.03480    0.23646    0.65006    1.000
    B54      B        0.99750    0.86186    0.10100    1.000
    B55      B        0.01850    0.90530    0.11920    1.000
    B56      B        0.06670    0.11807    0.84030    1.000
    B57      B        0.95060    0.47588    0.44450    1.000
    B58      B        0.49750    0.63814    0.10100    1.000
    B59      B        0.09000    0.74917    0.44990    1.000
    B60      B        0.42690    0.65757    0.71870    1.000
    B61      B        0.02650    0.15935    0.82890    1.000
    B62      B        0.91470    0.83754    0.63830    1.000
    B63      B        0.49940    0.77039    0.49090    1.000
    B64      B        0.59000    0.75083    0.44990    1.000
    B65      B        0.99910    0.77390    0.47940    1.000
    B66      B        0.51850    0.40530    0.38080    1.000
    B67      B        0.15910    0.13411    0.32210    1.000
    B68      B        0.50250    0.36186    0.89900    1.000
    B69      B        0.60500    0.74959    0.97130    1.000
    B70      B        0.09500    0.88679    0.23600    1.000
    B71      B        0.93150    0.74271    0.86880    1.000
    B72      B        0.04940    0.52412    0.55550    1.000
    B73      B        0.93960    0.50621    0.56590    1.000
    B74      B        0.58530    0.66246    0.13830    1.000
    B75      B        0.93330    0.11807    0.34030    1.000
    B76      B        0.99750    0.13814    0.39900    1.000
    B77      B        0.47350    0.34065    0.32890    1.000
    B78      B        0.93150    0.25729    0.63120    1.000
    B79      B        0.46550    0.21934    0.13930    1.000
    B80      B        0.91000    0.74917    0.94990    1.000
    B81      B        0.50250    0.63814    0.60100    1.000
    B82      B        0.34090    0.63411    0.67790    1.000
    B83      B        0.84090    0.13411    0.82210    1.000
    B84      B        0.02650    0.84065    0.67110    1.000
    B85      B        0.53480    0.26354    0.65006    1.000
    B86      B        0.89500    0.75041    0.47130    1.000
    B87      B        0.49200    0.41054    0.80020    1.000
    B88      B        0.03450    0.28066    0.63930    1.000
    B89      B        0.38480    0.00355    0.00710    1.000
    B90      B        0.57760    0.78908    0.93690    1.000
    B91      B        0.04230    0.21813    0.09630    1.000
    B92      B        0.99940    0.72961    0.49090    1.000
    B93      B        0.56670    0.61807    0.65970    1.000
    B94      B        0.91470    0.16246    0.86170    1.000
    B95      B        0.54570    0.03904    0.48790    1.000
    B96      B        0.43330    0.61807    0.15970    1.000
    B97      B        0.46520    0.26354    0.15006    1.000
    B98      B        0.06040    0.50621    0.06590    1.000
    B99      B        0.95430    0.46096    0.98790    1.000
    B100     B        0.04570    0.53904    0.01210    1.000
    B101     B        0.00060    0.27039    0.50910    1.000
    B102     B        0.54940    0.97588    0.55550    1.000
    B103     B        0.59500    0.61321    0.23600    1.000
    B104     B        0.41000    0.75083    0.94990    1.000
    B105     B        0.45770    0.71813    0.90370    1.000
    B106     B        0.61810    0.40770    0.33460    1.000
    B107     B        0.00800    0.08946    0.30020    1.000
    B108     B        0.07760    0.28908    0.56310    1.000
    B109     B        0.90500    0.88679    0.73600    1.000
    B110     B        0.45770    0.28187    0.59630    1.000
    B111     B        0.38190    0.59230    0.66540    1.000
    B112     B        0.10500    0.75041    0.97130    1.000
    B113     B        0.03480    0.76354    0.84994    1.000
    B114     B        0.11520    0.49645    0.50710    1.000
    B115     B        0.88480    0.50355    0.49290    1.000
    B116     B        0.09500    0.11321    0.26400    1.000
    B117     B        0.00090    0.22610    0.52060    1.000
    B118     B        0.42240    0.78908    0.43690    1.000
    B119     B        0.10500    0.24959    0.52870    1.000
    B120     B        0.45060    0.97588    0.05550    1.000
    B121     B        0.93330    0.88193    0.15970    1.000
    B122     B        0.98150    0.09470    0.88080    1.000
    B123     B        0.03900    0.52067    0.93670    1.000
    B124     B        0.56040    0.00621    0.43410    1.000
    B125     B        0.96100    0.47933    0.06330    1.000
    B126     B        0.49200    0.58946    0.69980    1.000
    B127     B        0.38480    0.99645    0.49290    1.000
    B128     B        0.88190    0.90770    0.66540    1.000
    B129     B        0.06850    0.25729    0.13120    1.000
    B130     B        0.61810    0.59230    0.16540    1.000
    B131     B        0.59000    0.24917    0.05010    1.000
    B132     B        0.38190    0.40770    0.83460    1.000
    B133     B        0.84090    0.86589    0.67790    1.000
    B134     B        0.04940    0.47588    0.94450    1.000
    B135     B        0.92690    0.84243    0.71870    1.000
    B136     B        0.60500    0.25041    0.52870    1.000
    B137     B        0.90500    0.11321    0.76400    1.000
    B138     B        0.49910    0.72610    0.47940    1.000
    B139     B        0.43960    0.00621    0.93410    1.000
    B140     B        0.57310    0.65757    0.21870    1.000
    B141     B        0.57760    0.21092    0.56310    1.000
    B142     B        0.08530    0.83754    0.13830    1.000
    B143     B        0.65910    0.63411    0.17790    1.000
    B144     B        0.50090    0.72610    0.97940    1.000
    B145     B        0.96550    0.71934    0.36070    1.000
    B146     B        0.41000    0.24917    0.55010    1.000
    B147     B        0.95430    0.53904    0.51210    1.000
    B148     B        0.88190    0.09230    0.83460    1.000
    B149     B        0.89500    0.24959    0.02870    1.000
    B150     B        0.46520    0.73646    0.34994    1.000
    B151     B        0.49750    0.36186    0.39900    1.000
    B152     B        0.49940    0.22961    0.00910    1.000
    B153     B        0.39500    0.74959    0.47130    1.000
    B154     B        0.40500    0.61321    0.73600    1.000
    B155     B        0.92240    0.28908    0.06310    1.000
    B156     B        0.04570    0.46096    0.48790    1.000
    B157     B        0.59500    0.38679    0.26400    1.000
    B158     B        0.34090    0.36589    0.82210    1.000
    B159     B        0.04230    0.78187    0.40370    1.000
    B160     B        0.07310    0.15757    0.28130    1.000
    B161     B        0.06850    0.74271    0.36880    1.000
    B162     B        0.01850    0.09470    0.38080    1.000
    B163     B        0.47350    0.65935    0.17110    1.000
    B164     B        0.12550    0.74362    0.89080    1.000
    B165     B        0.56850    0.24271    0.13120    1.000
    B166     B        0.54230    0.28187    0.09630    1.000
    B167     B        0.52650    0.34065    0.82890    1.000
    B168     B        0.00250    0.13814    0.89900    1.000
    B169     B        0.37450    0.75638    0.39080    1.000
    B170     B        0.97350    0.15935    0.32890    1.000
    B171     B        0.99940    0.27039    0.00910    1.000
    B172     B        0.96520    0.23646    0.15006    1.000
    B173     B        0.54940    0.02412    0.94450    1.000
    B174     B        0.48150    0.40530    0.88080    1.000
    B175     B        0.54230    0.71813    0.40370    1.000
    B176     B        0.50060    0.77039    0.99090    1.000
    B177     B        0.43150    0.24271    0.63120    1.000
    B178     B        0.54570    0.96096    0.01210    1.000
    B179     B        0.99200    0.91054    0.69980    1.000
    B180     B        0.92240    0.71092    0.43690    1.000
    B181     B        0.62550    0.75638    0.89080    1.000
    B182     B        0.53450    0.21934    0.63930    1.000
    B183     B        0.53450    0.78066    0.86070    1.000
    B184     B        0.43330    0.38193    0.34030    1.000
    B185     B        0.96520    0.76354    0.34994    1.000
    B186     B        0.53480    0.73646    0.84994    1.000
    B187     B        0.45060    0.02412    0.44450    1.000
    B188     B        0.50800    0.41054    0.30020    1.000
    B189     B        0.37450    0.24362    0.10920    1.000
    B190     B        0.96550    0.28066    0.13930    1.000
    B191     B        0.56670    0.38193    0.84030    1.000
    B192     B        0.46100    0.97933    0.43670    1.000
    B193     B        0.42240    0.21092    0.06310    1.000
    B194     B        0.46550    0.78066    0.36070    1.000
    B195     B        0.12550    0.25638    0.60920    1.000
    B196     B        0.61520    0.00355    0.50710    1.000
    B197     B        0.41470    0.66246    0.63830    1.000
    B198     B        0.56040    0.99379    0.06590    1.000
    B199     B        0.95770    0.21813    0.59630    1.000
    B200     B        0.43960    0.99379    0.56590    1.000
    H1       H        0.02000    0.15290    0.94000    1.000
    H2       H        0.12700    0.26290    0.15900    1.000
    H3       H        0.92500    0.18010    0.31900    1.000
    H4       H        0.57500    0.31990    0.81900    1.000
    H5       H        0.18900    0.25250    0.63110    1.000
    H6       H        0.52000    0.65290    0.56000    1.000
    H7       H        0.33900    0.57330    0.65900    1.000
    H8       H        0.48100    0.21620    0.47000    1.000
    H9       H        0.99500    0.79410    0.01200    1.000
    H10      H        0.93500    0.46350    0.10700    1.000
    H11      H        0.07700    0.80360    0.39700    1.000
    H12      H        0.31100    0.24750    0.13110    1.000
    H13      H        0.43100    0.93740    0.51600    1.000
    H14      H        0.26000    0.36190    0.82400    1.000
    H15      H        0.95000    0.77480    0.31200    1.000
    H16      H        0.81100    0.25250    0.13110    1.000
    H17      H        0.51900    0.21620    0.97000    1.000
    H18      H        0.52000    0.34710    0.94000    1.000
    H19      H        0.83900    0.07330    0.84100    1.000
    H20      H        0.59700    0.81270    0.95600    1.000
    H21      H        0.06500    0.46350    0.60700    1.000
    H22      H        0.74000    0.63810    0.17600    1.000
    H23      H        0.87000    0.11740    0.34600    1.000
    H24      H        0.00500    0.20590    0.98800    1.000
    H25      H        0.49500    0.70590    0.01200    1.000
    H26      H        0.89800    0.81650    0.61200    1.000
    H27      H        0.60200    0.68350    0.11200    1.000
    H28      H        0.52700    0.57600    0.09400    1.000
    H29      H        0.00500    0.79410    0.51200    1.000
    H30      H        0.63000    0.38260    0.84600    1.000
    H31      H        0.88900    0.10430    0.72300    1.000
    H32      H        0.46200    0.79890    0.32700    1.000
    H33      H        0.90300    0.31270    0.04400    1.000
    H34      H        0.10200    0.18350    0.38800    1.000
    H35      H        0.11100    0.10430    0.22300    1.000
    H36      H        0.92300    0.80360    0.89700    1.000
    H37      H        0.37000    0.61740    0.15400    1.000
    H38      H        0.74000    0.36190    0.32400    1.000
    H39      H        0.37300    0.76290    0.84100    1.000
    H40      H        0.53800    0.79890    0.82700    1.000
    H41      H        0.58400    0.04010    0.91500    1.000
    H42      H        0.62700    0.23710    0.15900    1.000
    H43      H        0.33500    0.74340    0.50600    1.000
    H44      H        0.38900    0.39570    0.72300    1.000
    H45      H        0.24600    0.58900    0.39400    1.000
    H46      H        0.90300    0.68730    0.45600    1.000
    H47      H        0.57700    0.30360    0.10300    1.000
    H48      H        0.10200    0.81650    0.11200    1.000
    H49      H        0.50500    0.29410    0.98800    1.000
    H50      H        0.18900    0.74750    0.86890    1.000
    H51      H        0.56500    0.96350    0.89300    1.000
    H52      H        0.76000    0.13810    0.82400    1.000
    H53      H        0.09700    0.31270    0.54400    1.000
    H54      H        0.98100    0.28380    0.47000    1.000
    H55      H        0.41600    0.95990    0.08500    1.000
    H56      H        0.48100    0.78380    0.03000    1.000
    H57      H        0.55000    0.27480    0.68800    1.000
    H58      H        0.88900    0.89570    0.77700    1.000
    H59      H        0.61100    0.39570    0.22300    1.000
    H60      H        0.02200    0.93140    0.71300    1.000
    H61      H        0.08400    0.45990    0.91500    1.000
    H62      H        0.90700    0.82680    0.75200    1.000
    H63      H        0.91600    0.45990    0.41500    1.000
    H64      H        0.87300    0.26290    0.65900    1.000
    H65      H        0.60100    0.99560    0.11100    1.000
    H66      H        0.07500    0.81990    0.68100    1.000
    H67      H        0.57700    0.69640    0.39700    1.000
    H68      H        0.16100    0.92670    0.15900    1.000
    H69      H        0.99500    0.20590    0.48800    1.000
    H70      H        0.66100    0.24630    0.03480    1.000
    H71      H        0.83900    0.92670    0.65900    1.000
    H72      H        0.43100    0.06260    0.98400    1.000
    H73      H        0.47300    0.42400    0.90600    1.000
    H74      H        0.96200    0.29890    0.17300    1.000
    H75      H        0.24000    0.13810    0.32400    1.000
    H76      H        0.97800    0.93140    0.21300    1.000
    H77      H        0.74600    0.91100    0.39400    1.000
    H78      H        0.16100    0.25370    0.03480    1.000
    H79      H        0.59700    0.18730    0.54400    1.000
    H80      H        0.05000    0.22520    0.68800    1.000
    H81      H        0.60200    0.31650    0.38800    1.000
    H82      H        0.40300    0.18730    0.04400    1.000
    H83      H        0.87300    0.73710    0.84100    1.000
    H84      H        0.40700    0.67320    0.75200    1.000
    H85      H        0.25400    0.91100    0.89400    1.000
    H86      H        0.62700    0.76290    0.34100    1.000
    H87      H        0.39900    0.00440    0.88900    1.000
    H88      H        0.96200    0.70110    0.32700    1.000
    H89      H        0.66100    0.75370    0.46520    1.000
    H90      H        0.90700    0.17320    0.74800    1.000
    H91      H        0.59300    0.67320    0.25200    1.000
    H92      H        0.16100    0.74630    0.46520    1.000
    H93      H        0.13000    0.88260    0.65400    1.000
    H94      H        0.33900    0.24630    0.53480    1.000
    H95      H        0.47800    0.43140    0.28700    1.000
    H96      H        0.87000    0.88260    0.15400    1.000
    H97      H        0.51900    0.78380    0.53000    1.000
    H98      H        0.56900    0.93740    0.01600    1.000
    H99      H        0.46200    0.20110    0.17300    1.000
    H100     H        0.52700    0.42400    0.40600    1.000
    H101     H        0.31200    0.99780    0.49490    1.000
    H102     H        0.16100    0.07330    0.34100    1.000
    H103     H        0.50500    0.70590    0.51200    1.000
    H104     H        0.95000    0.22520    0.18800    1.000
    H105     H        0.09300    0.82680    0.25200    1.000
    H106     H        0.18800    0.49780    0.50510    1.000
    H107     H        0.56900    0.06260    0.48400    1.000
    H108     H        0.01900    0.28380    0.97000    1.000
    H109     H        0.33900    0.75370    0.96520    1.000
    H110     H        0.93100    0.43740    0.98400    1.000
    H111     H        0.09300    0.17320    0.24800    1.000
    H112     H        0.83900    0.25370    0.53480    1.000
    H113     H        0.38900    0.60430    0.77700    1.000
    H114     H        0.58400    0.95990    0.58500    1.000
    H115     H        0.59300    0.32680    0.24800    1.000
    H116     H        0.39900    0.99560    0.61100    1.000
    H117     H        0.31200    0.00220    0.00510    1.000
    H118     H        0.39800    0.31650    0.88800    1.000
    H119     H        0.97300    0.07600    0.90600    1.000
    H120     H        0.37300    0.23710    0.65900    1.000
    H121     H        0.09700    0.68730    0.95600    1.000
    H122     H        0.06500    0.53650    0.89300    1.000
    H123     H        0.91600    0.54010    0.08500    1.000
    H124     H        0.75400    0.41100    0.60600    1.000
    H125     H        0.43500    0.03650    0.10700    1.000
    H126     H        0.06900    0.43740    0.48400    1.000
    H127     H        0.92500    0.81990    0.18100    1.000
    H128     H        0.07700    0.19640    0.10300    1.000
    H129     H        0.03800    0.70110    0.82700    1.000
    H130     H        0.98000    0.15290    0.44000    1.000
    H131     H        0.05000    0.77480    0.81200    1.000
    H132     H        0.68900    0.24750    0.63110    1.000
    H133     H        0.81200    0.50220    0.49490    1.000
    H134     H        0.41600    0.04010    0.41500    1.000
    H135     H        0.02700    0.07600    0.40600    1.000
    H136     H        0.83500    0.75660    0.50600    1.000
    H137     H        0.02700    0.92400    0.09400    1.000
    H138     H        0.63000    0.61740    0.65400    1.000
    H139     H        0.66500    0.74340    0.00600    1.000
    H140     H        0.13000    0.11740    0.84600    1.000
    H141     H        0.45000    0.27480    0.18800    1.000
    H142     H        0.43500    0.96350    0.39300    1.000
    H143     H        0.98000    0.84710    0.06000    1.000
    H144     H        0.76000    0.86190    0.67600    1.000
    H145     H        0.33900    0.42670    0.84100    1.000
    H146     H        0.56500    0.03650    0.60700    1.000
    H147     H        0.26000    0.63810    0.67600    1.000
    H148     H        0.42300    0.30360    0.60300    1.000
    H149     H        0.68800    0.99780    0.99490    1.000
    H150     H        0.98100    0.71620    0.03000    1.000
    H151     H        0.47300    0.57600    0.59400    1.000
    H152     H        0.66500    0.25660    0.49400    1.000
    H153     H        0.48000    0.34710    0.44000    1.000
    H154     H        0.89800    0.18350    0.88800    1.000
    H155     H        0.10100    0.50440    0.11100    1.000
    H156     H        0.16500    0.24340    0.49400    1.000
    H157     H        0.24000    0.86190    0.17600    1.000
    H158     H        0.12700    0.73710    0.34100    1.000
    H159     H        0.49500    0.29410    0.48800    1.000
    H160     H        0.48000    0.65290    0.06000    1.000
    H161     H        0.42500    0.68010    0.18100    1.000
    H162     H        0.37000    0.38260    0.34600    1.000
    H163     H        0.81200    0.49780    0.00510    1.000
    H164     H        0.31100    0.75250    0.36890    1.000
    H165     H        0.01900    0.71620    0.53000    1.000
    H166     H        0.61100    0.60430    0.27700    1.000
    H167     H        0.52200    0.43140    0.78700    1.000
    H168     H        0.97300    0.92400    0.59400    1.000
    H169     H        0.06900    0.56260    0.01600    1.000
    H170     H        0.02200    0.06860    0.78700    1.000
    H171     H        0.10100    0.49560    0.38900    1.000
    H172     H        0.66100    0.42670    0.34100    1.000
    H173     H        0.39800    0.68350    0.61200    1.000
    H174     H        0.18800    0.50220    0.99490    1.000
    H175     H        0.11100    0.89570    0.27700    1.000
    H176     H        0.42500    0.31990    0.31900    1.000
    H177     H        0.83500    0.24340    0.99400    1.000
    H178     H        0.02000    0.84710    0.56000    1.000
    H179     H        0.52200    0.56860    0.71300    1.000
    H180     H        0.53800    0.20110    0.67300    1.000
    H181     H        0.93500    0.53650    0.39300    1.000
    H182     H        0.08400    0.54010    0.58500    1.000
    H183     H        0.89900    0.50440    0.61100    1.000
    H184     H        0.33500    0.25660    0.99400    1.000
    H185     H        0.66100    0.57330    0.15900    1.000
    H186     H        0.89900    0.49560    0.88900    1.000
    H187     H        0.25400    0.08900    0.60600    1.000
    H188     H        0.83900    0.74630    0.96520    1.000
    H189     H        0.93100    0.56260    0.51600    1.000
    H190     H        0.03800    0.29890    0.67300    1.000
    H191     H        0.81100    0.74750    0.36890    1.000
    H192     H        0.40300    0.81270    0.45600    1.000
    H193     H        0.16500    0.75660    0.00600    1.000
    H194     H        0.45000    0.72520    0.31200    1.000
    H195     H        0.60100    0.00440    0.38900    1.000
    H196     H        0.92300    0.19640    0.60300    1.000
    H197     H        0.68800    0.00220    0.50510    1.000
    H198     H        0.42300    0.69640    0.89700    1.000
    H199     H        0.40700    0.32680    0.74800    1.000
    H200     H        0.07500    0.18010    0.81900    1.000
    H201     H        0.47800    0.56860    0.21300    1.000
    H202     H        0.57500    0.68010    0.68100    1.000
    H203     H        0.97800    0.06860    0.28700    1.000
    H204     H        0.24600    0.41100    0.10600    1.000
    H205     H        0.75400    0.58900    0.89400    1.000
    H206     H        0.55000    0.72520    0.81200    1.000
    H207     H        0.74600    0.08900    0.10600    1.000
    H208     H        0.68900    0.75250    0.86890    1.000
    C1       C        0.55860    0.96954    0.47714    1.000
    C2       C        0.46170    0.21295    0.57736    1.000
    C3       C        0.98550    0.12912    0.27285    1.000
    C4       C        0.10660    0.12276    0.38928    1.000
    C5       C        0.51450    0.37088    0.77285    1.000
    C6       C        0.88330    0.56058    0.95378    1.000
    C7       C        0.60660    0.62276    0.11072    1.000
    C8       C        0.89340    0.12276    0.88928    1.000
    C9       C        0.46170    0.78705    0.92264    1.000
    C10      C        0.87080    0.81317    0.41296    1.000
    C11      C        0.38330    0.06058    0.54622    1.000
    C12      C        0.12920    0.81317    0.91296    1.000
    C13      C        0.55860    0.03046    0.02286    1.000
    C14      C        0.90730    0.67974    0.92210    1.000
    C15      C        0.57390    0.27982    0.58211    1.000
    C16      C        0.66480    0.61860    0.05203    1.000
    C17      C        0.03830    0.28705    0.07736    1.000
    C18      C        0.09270    0.67974    0.42210    1.000
    C19      C        0.57730    0.63086    0.78414    1.000
    C20      C        0.61670    0.06058    0.04622    1.000
    C21      C        0.66480    0.38140    0.44797    1.000
    C22      C        0.03830    0.71295    0.42264    1.000
    C23      C        0.33520    0.38140    0.94797    1.000
    C24      C        0.62920    0.68683    0.91296    1.000
    C25      C        0.92270    0.13086    0.21586    1.000
    C26      C        0.92610    0.22018    0.08211    1.000
    C27      C        0.53830    0.21295    0.07736    1.000
    C28      C        0.33520    0.61860    0.55203    1.000
    C29      C        0.38330    0.93942    0.95378    1.000
    C30      C        0.60660    0.37724    0.38928    1.000
    C31      C        0.83520    0.88140    0.55203    1.000
    C32      C        0.92270    0.86914    0.28414    1.000
    C33      C        0.37080    0.31317    0.08704    1.000
    C34      C        0.09270    0.32026    0.07790    1.000
    C35      C        0.07390    0.77982    0.91789    1.000
    C36      C        0.40730    0.17974    0.57790    1.000
    C37      C        0.40730    0.82026    0.92210    1.000
    C38      C        0.01450    0.12912    0.77285    1.000
    C39      C        0.39340    0.37724    0.88928    1.000
    C40      C        0.57390    0.72018    0.91789    1.000
    C41      C        0.48550    0.37088    0.27285    1.000
    C42      C        0.92610    0.77982    0.41789    1.000
    C43      C        0.62920    0.31317    0.58704    1.000
    C44      C        0.98550    0.87088    0.22715    1.000
    C45      C        0.87080    0.18683    0.08704    1.000
    C46      C        0.05860    0.53046    0.47714    1.000
    C47      C        0.89340    0.87724    0.61072    1.000
    C48      C        0.07390    0.22018    0.58211    1.000
    C49      C        0.57730    0.36914    0.71586    1.000
    C50      C        0.59270    0.17974    0.07790    1.000
    C51      C        0.83520    0.11860    0.94797    1.000
    C52      C        0.48550    0.62912    0.22715    1.000
    C53      C        0.94140    0.46954    0.52286    1.000
    C54      C        0.12920    0.18683    0.58704    1.000
    C55      C        0.11670    0.56058    0.45378    1.000
    C56      C        0.01450    0.87088    0.72715    1.000
    C57      C        0.07730    0.13086    0.71586    1.000
    C58      C        0.90730    0.32026    0.57790    1.000
    C59      C        0.42270    0.36914    0.21586    1.000
    C60      C        0.44140    0.03046    0.52286    1.000
    C61      C        0.42610    0.27982    0.08211    1.000
    C62      C        0.42610    0.72018    0.41789    1.000
    C63      C        0.16480    0.11860    0.44797    1.000
    C64      C        0.37080    0.68683    0.41296    1.000
    C65      C        0.07730    0.86914    0.78414    1.000
    C66      C        0.61670    0.93942    0.45378    1.000
    C67      C        0.94140    0.53046    0.97714    1.000
    C68      C        0.10660    0.87724    0.11072    1.000
    C69      C        0.16480    0.88140    0.05203    1.000
    C70      C        0.96170    0.71295    0.92264    1.000
    C71      C        0.88330    0.43942    0.54622    1.000
    C72      C        0.42270    0.63086    0.28414    1.000
    C73      C        0.11670    0.43942    0.04622    1.000
    C74      C        0.44140    0.96954    0.97714    1.000
    C75      C        0.39340    0.62276    0.61072    1.000
    C76      C        0.05860    0.46954    0.02286    1.000
    C77      C        0.51450    0.62912    0.72715    1.000
    C78      C        0.53830    0.78705    0.42264    1.000
    C79      C        0.59270    0.82026    0.42210    1.000
    C80      C        0.96170    0.28705    0.57736    1.000
    O1       O        0.61266    0.08680    0.01165    1.000
    O2       O        0.89308    0.33384    0.62858    1.000
    O3       O        0.88734    0.41320    0.51165    1.000
    O4       O        0.04730    0.11832    0.66850    1.000
    O5       O        0.10692    0.66616    0.37142    1.000
    O6       O        0.63420    0.59922    0.01153    1.000
    O7       O        0.26186    0.36478    0.95042    1.000
    O8       O        0.80070    0.18808    0.11850    1.000
    O9       O        0.13420    0.09922    0.48847    1.000
    O10      O        0.84840    0.85565    0.27660    1.000
    O11      O        0.09520    0.16176    0.55992    1.000
    O12      O        0.65160    0.64435    0.77660    1.000
    O13      O        0.19930    0.81192    0.88150    1.000
    O14      O        0.23970    0.88413    0.89780    1.000
    O15      O        0.54730    0.61832    0.83150    1.000
    O16      O        0.76186    0.13522    0.95042    1.000
    O17      O        0.30070    0.68808    0.38150    1.000
    O18      O        0.45270    0.38168    0.16850    1.000
    O19      O        0.09520    0.83824    0.94008    1.000
    O20      O        0.36580    0.59922    0.51153    1.000
    O21      O        0.88734    0.58680    0.98835    1.000
    O22      O        0.73970    0.38413    0.60220    1.000
    O23      O        0.80070    0.81192    0.38150    1.000
    O24      O        0.38194    0.83092    0.97423    1.000
    O25      O        0.60692    0.16616    0.12858    1.000
    O26      O        0.16050    0.55693    0.40668    1.000
    O27      O        0.59520    0.33824    0.55992    1.000
    O28      O        0.11806    0.66908    0.47423    1.000
    O29      O        0.95270    0.11832    0.16850    1.000
    O30      O        0.11266    0.58680    0.48835    1.000
    O31      O        0.36580    0.40078    0.98847    1.000
    O32      O        0.86580    0.09922    0.98847    1.000
    O33      O        0.83950    0.44307    0.59332    1.000
    O34      O        0.84840    0.14435    0.22340    1.000
    O35      O        0.30070    0.31192    0.11850    1.000
    O36      O        0.23814    0.86478    0.04958    1.000
    O37      O        0.19930    0.18808    0.61850    1.000
    O38      O        0.11266    0.41320    0.01165    1.000
    O39      O        0.38734    0.91320    0.98835    1.000
    O40      O        0.34840    0.35565    0.22340    1.000
    O41      O        0.04730    0.88168    0.83150    1.000
    O42      O        0.26030    0.38413    0.10220    1.000
    O43      O        0.73814    0.36478    0.45042    1.000
    O44      O        0.88194    0.33092    0.52577    1.000
    O45      O        0.13420    0.90078    0.01153    1.000
    O46      O        0.26186    0.63522    0.54958    1.000
    O47      O        0.89308    0.66616    0.87142    1.000
    O48      O        0.83950    0.55693    0.90668    1.000
    O49      O        0.59520    0.66176    0.94008    1.000
    O50      O        0.66050    0.94307    0.40668    1.000
    O51      O        0.23814    0.13522    0.45042    1.000
    O52      O        0.90480    0.83824    0.44008    1.000
    O53      O        0.38194    0.16908    0.52577    1.000
    O54      O        0.95270    0.88168    0.33150    1.000
    O55      O        0.11806    0.33092    0.02577    1.000
    O56      O        0.40480    0.33824    0.05992    1.000
    O57      O        0.23970    0.11587    0.60220    1.000
    O58      O        0.39308    0.16616    0.62858    1.000
    O59      O        0.76186    0.86478    0.54958    1.000
    O60      O        0.61266    0.91320    0.48835    1.000
    O61      O        0.61806    0.16908    0.02577    1.000
    O62      O        0.38734    0.08680    0.51165    1.000
    O63      O        0.69930    0.68808    0.88150    1.000
    O64      O        0.90480    0.16176    0.05992    1.000
    O65      O        0.34840    0.64435    0.27660    1.000
    O66      O        0.45270    0.61832    0.33150    1.000
    O67      O        0.65160    0.35565    0.72340    1.000
    O68      O        0.69930    0.31192    0.61850    1.000
    O69      O        0.60692    0.83384    0.37142    1.000
    O70      O        0.33950    0.94307    0.90668    1.000
    O71      O        0.73814    0.63522    0.04958    1.000
    O72      O        0.54730    0.38168    0.66850    1.000
    O73      O        0.16050    0.44307    0.09332    1.000
    O74      O        0.76030    0.11587    0.10220    1.000
    O75      O        0.10692    0.33384    0.12858    1.000
    O76      O        0.15160    0.14435    0.72340    1.000
    O77      O        0.15160    0.85565    0.77660    1.000
    O78      O        0.73970    0.61587    0.89780    1.000
    O79      O        0.61806    0.83092    0.47423    1.000
    O80      O        0.40480    0.66176    0.44008    1.000
    O81      O        0.66050    0.05693    0.09332    1.000
    O82      O        0.33950    0.05693    0.59332    1.000
    O83      O        0.26030    0.61587    0.39780    1.000
    O84      O        0.63420    0.40078    0.48847    1.000
    O85      O        0.88194    0.66908    0.97423    1.000
    O86      O        0.76030    0.88413    0.39780    1.000
    O87      O        0.86580    0.90078    0.51153    1.000
    O88      O        0.39308    0.83384    0.87142    1.000
