# CIF file generated by openbabel 3.1.0, see https://openbabel.org
data_I
_chemical_name_common 'image0'
_cell_length_a 10.241
_cell_length_b 13.769
_cell_length_c 13.326
_cell_angle_alpha 90
_cell_angle_beta 90.768
_cell_angle_gamma 90
_space_group_name_H-M_alt 'P 1'
_space_group_name_Hall 'P 1'
loop_
    _symmetry_equiv_pos_as_xyz
    x,y,z
loop_
    _atom_site_label
    _atom_site_type_symbol
    _atom_site_fract_x
    _atom_site_fract_y
    _atom_site_fract_z
    _atom_site_occupancy
    Cd1      Cd       0.14404    0.42412    0.06183    1.000
    O1       O        0.62268    0.54692    0.92271    1.000
    O2       O        0.71302    0.65649    0.82574    1.000
    O3       O        0.01745    0.64862    0.85162    1.000
    O4       O        0.43765    0.83245    0.57318    1.000
    O5       O        0.12753    0.54545    0.94673    1.000
    O6       O        0.23048    0.79380    0.55910    1.000
    C1       C        0.34970    0.73074    0.69893    1.000
    C2       C        0.24620    0.64335    0.83316    1.000
    C3       C        0.48110    0.64542    0.82233    1.000
    C4       C        0.12160    0.61041    0.88138    1.000
    C5       C        0.23730    0.70098    0.74706    1.000
    H1       H        0.15590    0.71940    0.72200    1.000
    C6       C        0.61410    0.61455    0.85938    1.000
    C7       C        0.36810    0.61487    0.86970    1.000
    H2       H        0.37410    0.57520    0.92610    1.000
    C8       C        0.47110    0.70474    0.73775    1.000
    H3       H        0.54640    0.72710    0.70710    1.000
    C9       C        0.33780    0.79026    0.60425    1.000
    Cd2      Cd       0.35597    0.92412    0.43817    1.000
    O7       O        0.87732    0.04692    0.57729    1.000
    O8       O        0.78698    0.15649    0.67426    1.000
    O9       O        0.48255    0.14862    0.64838    1.000
    O10      O        0.06235    0.33245    0.92682    1.000
    O11      O        0.37247    0.04545    0.55327    1.000
    O12      O        0.26952    0.29380    0.94090    1.000
    C10      C        0.15030    0.23074    0.80107    1.000
    C11      C        0.25380    0.14335    0.66684    1.000
    C12      C        0.01890    0.14542    0.67767    1.000
    C13      C        0.37840    0.11041    0.61862    1.000
    C14      C        0.26270    0.20098    0.75294    1.000
    H4       H        0.34410    0.21940    0.77800    1.000
    C15      C        0.88590    0.11455    0.64062    1.000
    C16      C        0.13190    0.11487    0.63030    1.000
    H5       H        0.12590    0.07520    0.57390    1.000
    C17      C        0.02890    0.20474    0.76225    1.000
    H6       H        0.95360    0.22710    0.79290    1.000
    C18      C        0.16220    0.29026    0.89575    1.000
    Cd3      Cd       0.85597    0.57588    0.93817    1.000
    O13      O        0.37732    0.45308    0.07729    1.000
    O14      O        0.28698    0.34351    0.17426    1.000
    O15      O        0.98255    0.35138    0.14838    1.000
    O16      O        0.56235    0.16755    0.42682    1.000
    O17      O        0.87247    0.45455    0.05327    1.000
    O18      O        0.76952    0.20620    0.44090    1.000
    C19      C        0.65030    0.26926    0.30107    1.000
    C20      C        0.75380    0.35665    0.16684    1.000
    C21      C        0.51890    0.35458    0.17767    1.000
    C22      C        0.87840    0.38959    0.11862    1.000
    C23      C        0.76270    0.29902    0.25294    1.000
    H7       H        0.84410    0.28060    0.27800    1.000
    C24      C        0.38590    0.38545    0.14062    1.000
    C25      C        0.63190    0.38513    0.13030    1.000
    H8       H        0.62590    0.42480    0.07390    1.000
    C26      C        0.52890    0.29526    0.26225    1.000
    H9       H        0.45360    0.27290    0.29290    1.000
    C27      C        0.66220    0.20974    0.39575    1.000
    Cd4      Cd       0.64404    0.07588    0.56183    1.000
    O19      O        0.12268    0.95308    0.42271    1.000
    O20      O        0.21302    0.84351    0.32574    1.000
    O21      O        0.51745    0.85138    0.35162    1.000
    O22      O        0.93765    0.66755    0.07318    1.000
    O23      O        0.62753    0.95455    0.44673    1.000
    O24      O        0.73048    0.70620    0.05910    1.000
    C28      C        0.84970    0.76926    0.19893    1.000
    C29      C        0.74620    0.85665    0.33316    1.000
    C30      C        0.98110    0.85458    0.32233    1.000
    C31      C        0.62160    0.88959    0.38138    1.000
    C32      C        0.73730    0.79902    0.24706    1.000
    H10      H        0.65590    0.78060    0.22200    1.000
    C33      C        0.11410    0.88545    0.35938    1.000
    C34      C        0.86810    0.88513    0.36970    1.000
    H11      H        0.87410    0.92480    0.42610    1.000
    C35      C        0.97110    0.79526    0.23775    1.000
    H12      H        0.04640    0.77290    0.20710    1.000
    C36      C        0.83780    0.70974    0.10425    1.000
