data_functionalizedCrystal
_audit_creation_method	'EQeq! by Chris Wilmer'
_symmetry_space_group_name_H-M	'P1'
_symmetry_Int_Tables_number	1
_symmetry_cell_setting	triclinic
loop_
_symmetry_equiv_pos_as_xyz
  x,y,z
_cell_length_a	28.655
_cell_length_b	28.655
_cell_length_c	28.655
_cell_angle_alpha	109.471
_cell_angle_beta	109.471
_cell_angle_gamma	109.471
loop_
_atom_site_label
_atom_site_type_symbol
_atom_site_fract_x
_atom_site_fract_y
_atom_site_fract_z
_atom_site_charge
Mof_Zn	Zn	0.5	0.5	0.5	1.184
Mof_Zn	Zn	-1.25533e-17	0	0.5	1.165
Mof_Zn	Zn	-0	0.5	-0	1.165
Mof_Zn	Zn	0.5	0	-0	1.165
Mof_Zn	Zn	1.25533e-17	0.2453	0.2453	1.137
Mof_Zn	Zn	-2.51066e-17	0.7547	0.7547	1.139
Mof_Zn	Zn	0.7547	5.02131e-17	0.7547	1.139
Mof_Zn	Zn	0.2453	0	0.2453	1.137
Mof_Zn	Zn	0.7547	0.7547	-0	1.139
Mof_Zn	Zn	0.2453	0.2453	-0	1.136
Mof_H 	H 	0.2819	0.3388	0.3963	0.17
Mof_H 	H 	0.2089	0.2983	0.3068	0.139
Mof_H 	H 	0.1775	0.3333	0.4384	0.14
Mof_H 	H 	0.3679	0.4209	0.4532	0.012
Mof_H 	H 	0.4556	0.3821	0.5919	0.067
Mof_H 	H 	0.357	0.3515	0.5529	0.048
Mof_H 	H 	0.1107	0.2576	0.2437	-0.038
Mof_H 	H 	0.0826	0.2963	0.3727	-0.053
Mof_H 	H 	0.9425	0.8856	0.6037	0.176
Mof_H 	H 	0.9915	0.9021	0.6932	0.166
Mof_H 	H 	0.8949	0.7391	0.5616	0.148
Mof_H 	H 	0.9677	0.9147	0.5468	0.024
Mof_H 	H 	0.7902	0.8637	0.4081	0.068
Mof_H 	H 	0.7986	0.8041	0.4471	0.048
Mof_H 	H 	0.0139	0.867	0.7563	-0.073
Mof_H 	H 	0.9236	0.7099	0.6273	-0.045
Mof_H 	H 	0.0575	0.6612	0.9431	0.17
Mof_H 	H 	0.0085	0.7017	0.9106	0.122
Mof_H 	H 	0.1051	0.6667	0.8442	0.137
Mof_H 	H 	0.0323	0.5791	0.947	0.001
Mof_H 	H 	0.2098	0.6179	0.0735	0.058
Mof_H 	H 	0.2014	0.6485	0.0055	0.055
Mof_H 	H 	0.9861	0.7424	0.8531	0.017
Mof_H 	H 	0.0764	0.7037	0.7863	-0.046
Mof_H 	H 	0.7181	0.1144	0.0569	0.164
Mof_H 	H 	0.7911	0.0979	0.0894	0.133
Mof_H 	H 	0.8225	0.2609	0.1558	0.142
Mof_H 	H 	0.6321	0.0853	0.053	0.012
Mof_H 	H 	0.5444	0.1363	0.9265	0.076
Mof_H 	H 	0.643	0.1959	0.9945	0.041
Mof_H 	H 	0.8893	0.133	0.1469	-0.033
Mof_H 	H 	0.9174	0.2901	0.2137	-0.037
Mof_H 	H 	0.9431	0.0575	0.6612	0.17
Mof_H 	H 	0.9106	0.0085	0.7017	0.122
Mof_H 	H 	0.8442	0.1051	0.6667	0.137
Mof_H 	H 	0.947	0.0323	0.5791	0.001
Mof_H 	H 	0.0735	0.2098	0.6179	0.058
Mof_H 	H 	0.0055	0.2014	0.6485	0.055
Mof_H 	H 	0.8531	0.9861	0.7424	0.017
Mof_H 	H 	0.7863	0.0764	0.7037	-0.046
Mof_H 	H 	0.0569	0.7181	0.1144	0.164
Mof_H 	H 	0.0894	0.7911	0.0979	0.133
Mof_H 	H 	0.1558	0.8225	0.2609	0.142
Mof_H 	H 	0.053	0.6321	0.0853	0.012
Mof_H 	H 	0.9265	0.5444	0.1363	0.076
Mof_H 	H 	0.9945	0.643	0.1959	0.041
Mof_H 	H 	0.1469	0.8893	0.133	-0.033
Mof_H 	H 	0.2137	0.9174	0.2901	-0.037
Mof_H 	H 	0.3963	0.2819	0.3388	0.17
Mof_H 	H 	0.3068	0.2089	0.2983	0.139
Mof_H 	H 	0.4384	0.1775	0.3333	0.14
Mof_H 	H 	0.4532	0.3679	0.4209	0.012
Mof_H 	H 	0.5919	0.4556	0.3821	0.067
Mof_H 	H 	0.5529	0.357	0.3515	0.048
Mof_H 	H 	0.2437	0.1107	0.2576	-0.038
Mof_H 	H 	0.3727	0.0826	0.2963	-0.053
Mof_H 	H 	0.6037	0.9425	0.8856	0.176
Mof_H 	H 	0.6932	0.9915	0.9021	0.166
Mof_H 	H 	0.5616	0.8949	0.7391	0.148
Mof_H 	H 	0.5468	0.9677	0.9147	0.024
Mof_H 	H 	0.4081	0.7902	0.8637	0.068
Mof_H 	H 	0.4471	0.7986	0.8041	0.048
Mof_H 	H 	0.7563	0.0139	0.867	-0.073
Mof_H 	H 	0.6273	0.9236	0.7099	-0.045
Mof_H 	H 	0.8856	0.6037	0.9425	0.176
Mof_H 	H 	0.9021	0.6932	0.9915	0.166
Mof_H 	H 	0.7391	0.5616	0.8949	0.148
Mof_H 	H 	0.9147	0.5468	0.9677	0.024
Mof_H 	H 	0.8637	0.4081	0.7902	0.068
Mof_H 	H 	0.8041	0.4471	0.7986	0.048
Mof_H 	H 	0.867	0.7563	0.0139	-0.073
Mof_H 	H 	0.7099	0.6273	0.9236	-0.045
Mof_H 	H 	0.3388	0.3963	0.2819	0.17
Mof_H 	H 	0.2983	0.3068	0.2089	0.139
Mof_H 	H 	0.3333	0.4384	0.1775	0.14
Mof_H 	H 	0.4209	0.4532	0.3679	0.012
Mof_H 	H 	0.3821	0.5919	0.4556	0.067
Mof_H 	H 	0.3515	0.5529	0.357	0.048
Mof_H 	H 	0.2576	0.2437	0.1107	-0.038
Mof_H 	H 	0.2963	0.3727	0.0826	-0.053
Mof_H 	H 	0.1144	0.0569	0.7181	0.164
Mof_H 	H 	0.0979	0.0894	0.7911	0.133
Mof_H 	H 	0.2609	0.1558	0.8225	0.142
Mof_H 	H 	0.0853	0.053	0.6321	0.012
Mof_H 	H 	0.1363	0.9265	0.5444	0.076
Mof_H 	H 	0.1959	0.9945	0.643	0.041
Mof_H 	H 	0.133	0.1469	0.8893	-0.033
Mof_H 	H 	0.2901	0.2137	0.9174	-0.037
Mof_H 	H 	0.6612	0.9431	0.0575	0.17
Mof_H 	H 	0.7017	0.9106	0.0085	0.122
Mof_H 	H 	0.6667	0.8442	0.1051	0.137
Mof_H 	H 	0.5791	0.947	0.0323	0.001
Mof_H 	H 	0.6179	0.0735	0.2098	0.058
Mof_H 	H 	0.6485	0.0055	0.2014	0.055
Mof_H 	H 	0.7424	0.8531	0.9861	0.017
Mof_H 	H 	0.7037	0.7863	0.0764	-0.046
Mof_H 	H 	0.6612	0.7181	0.6037	0.17
Mof_H 	H 	0.7017	0.7911	0.6932	0.141
Mof_H 	H 	0.6667	0.8225	0.5616	0.143
Mof_H 	H 	0.5791	0.6321	0.5468	0.012
Mof_H 	H 	0.6179	0.5444	0.4081	0.067
Mof_H 	H 	0.6485	0.643	0.4471	0.048
Mof_H 	H 	0.7424	0.8893	0.7563	-0.026
Mof_H 	H 	0.7037	0.9174	0.6273	-0.038
Mof_H 	H 	0.1144	0.0575	0.3963	0.164
Mof_H 	H 	0.0979	0.0085	0.3068	0.113
Mof_H 	H 	0.2609	0.1051	0.4384	0.135
Mof_H 	H 	0.0853	0.0323	0.4532	0.001
Mof_H 	H 	0.1363	0.2098	0.5919	0.067
Mof_H 	H 	0.1959	0.2014	0.5529	0.047
Mof_H 	H 	0.133	0.9861	0.2437	0.012
Mof_H 	H 	0.2901	0.0764	0.3727	-0.046
Mof_H 	H 	0.3388	0.9425	0.0569	0.17
Mof_H 	H 	0.2983	0.9915	0.0894	0.16
Mof_H 	H 	0.3333	0.8949	0.1558	0.147
Mof_H 	H 	0.4209	0.9677	0.053	0.024
Mof_H 	H 	0.3821	0.7902	0.9265	0.077
Mof_H 	H 	0.3515	0.7986	0.9945	0.041
Mof_H 	H 	0.2576	0.0139	0.1469	-0.082
Mof_H 	H 	0.2963	0.9236	0.2137	-0.045
Mof_H 	H 	0.8856	0.2819	0.9431	0.176
Mof_H 	H 	0.9021	0.2089	0.9106	0.148
Mof_H 	H 	0.7391	0.1775	0.8442	0.142
Mof_H 	H 	0.9147	0.3679	0.947	0.013
Mof_H 	H 	0.8637	0.4556	0.0735	0.058
Mof_H 	H 	0.8041	0.357	0.0055	0.056
Mof_H 	H 	0.867	0.1107	0.8531	-0.03
Mof_H 	H 	0.7099	0.0826	0.7863	-0.053
Mof_H 	H 	0.9425	0.0569	0.3388	0.17
Mof_H 	H 	0.9915	0.0894	0.2983	0.16
Mof_H 	H 	0.8949	0.1558	0.3333	0.147
Mof_H 	H 	0.9677	0.053	0.4209	0.024
Mof_H 	H 	0.7902	0.9265	0.3821	0.077
Mof_H 	H 	0.7986	0.9945	0.3515	0.041
Mof_H 	H 	0.0139	0.1469	0.2576	-0.082
Mof_H 	H 	0.9236	0.2137	0.2963	-0.045
Mof_H 	H 	0.2819	0.9431	0.8856	0.176
Mof_H 	H 	0.2089	0.9106	0.9021	0.148
Mof_H 	H 	0.1775	0.8442	0.7391	0.142
Mof_H 	H 	0.3679	0.947	0.9147	0.013
Mof_H 	H 	0.4556	0.0735	0.8637	0.058
Mof_H 	H 	0.357	0.0055	0.8041	0.056
Mof_H 	H 	0.1107	0.8531	0.867	-0.03
Mof_H 	H 	0.0826	0.7863	0.7099	-0.053
Mof_H 	H 	0.7181	0.6037	0.6612	0.17
Mof_H 	H 	0.7911	0.6932	0.7017	0.141
Mof_H 	H 	0.8225	0.5616	0.6667	0.143
Mof_H 	H 	0.6321	0.5468	0.5791	0.012
Mof_H 	H 	0.5444	0.4081	0.6179	0.067
Mof_H 	H 	0.643	0.4471	0.6485	0.048
Mof_H 	H 	0.8893	0.7563	0.7424	-0.026
Mof_H 	H 	0.9174	0.6273	0.7037	-0.038
Mof_H 	H 	0.0575	0.3963	0.1144	0.164
Mof_H 	H 	0.0085	0.3068	0.0979	0.113
Mof_H 	H 	0.1051	0.4384	0.2609	0.135
Mof_H 	H 	0.0323	0.4532	0.0853	0.001
Mof_H 	H 	0.2098	0.5919	0.1363	0.067
Mof_H 	H 	0.2014	0.5529	0.1959	0.047
Mof_H 	H 	0.9861	0.2437	0.133	0.012
Mof_H 	H 	0.0764	0.3727	0.2901	-0.046
Mof_H 	H 	0.3963	0.1144	0.0575	0.164
Mof_H 	H 	0.3068	0.0979	0.0085	0.113
Mof_H 	H 	0.4384	0.2609	0.1051	0.135
Mof_H 	H 	0.4532	0.0853	0.0323	0.001
Mof_H 	H 	0.5919	0.1363	0.2098	0.067
Mof_H 	H 	0.5529	0.1959	0.2014	0.047
Mof_H 	H 	0.2437	0.133	0.9861	0.012
Mof_H 	H 	0.3727	0.2901	0.0764	-0.046
Mof_H 	H 	0.6037	0.6612	0.7181	0.17
Mof_H 	H 	0.6932	0.7017	0.7911	0.141
Mof_H 	H 	0.5616	0.6667	0.8225	0.143
Mof_H 	H 	0.5468	0.5791	0.6321	0.012
Mof_H 	H 	0.4081	0.6179	0.5444	0.067
Mof_H 	H 	0.4471	0.6485	0.643	0.048
Mof_H 	H 	0.7563	0.7424	0.8893	-0.026
Mof_H 	H 	0.6273	0.7037	0.9174	-0.038
Mof_H 	H 	0.9431	0.8856	0.2819	0.176
Mof_H 	H 	0.9106	0.9021	0.2089	0.148
Mof_H 	H 	0.8442	0.7391	0.1775	0.142
Mof_H 	H 	0.947	0.9147	0.3679	0.013
Mof_H 	H 	0.0735	0.8637	0.4556	0.058
Mof_H 	H 	0.0055	0.8041	0.357	0.056
Mof_H 	H 	0.8531	0.867	0.1107	-0.03
Mof_H 	H 	0.7863	0.7099	0.0826	-0.053
Mof_H 	H 	0.0569	0.3388	0.9425	0.17
Mof_H 	H 	0.0894	0.2983	0.9915	0.16
Mof_H 	H 	0.1558	0.3333	0.8949	0.147
Mof_H 	H 	0.053	0.4209	0.9677	0.024
Mof_H 	H 	0.9265	0.3821	0.7902	0.077
Mof_H 	H 	0.9945	0.3515	0.7986	0.041
Mof_H 	H 	0.1469	0.2576	0.0139	-0.082
Mof_H 	H 	0.2137	0.2963	0.9236	-0.045
Mof_C 	C 	0.20281	0.3184	0.37749	0.252
Mof_C 	C 	0.18338	0.29762	0.3212	-0.235
Mof_C 	C 	0.46848	0.42518	0.54822	0.048
Mof_C 	C 	0.16499	0.31882	0.39879	-0.235
Mof_C 	C 	0.3859	0.4136	0.48228	0.062
Mof_C 	C 	0.43728	0.39114	0.56472	-0.09
Mof_C 	C 	0.28816	0.35721	0.46907	0.253
Mof_C 	C 	0.35284	0.38032	0.49684	-0.078
Mof_C 	C 	0.37873	0.37123	0.54	0.029
Mof_C 	C 	0.12515	0.2749	0.28377	0.127
Mof_C 	C 	0.10878	0.29709	0.35921	0.152
Mof_C 	C 	0.94091	0.82532	0.62251	0.274
Mof_C 	C 	0.97642	0.86218	0.6788	-0.269
Mof_C 	C 	0.87696	0.92026	0.45178	0.05
Mof_C 	C 	0.92003	0.7662	0.60121	-0.244
Mof_C 	C 	0.93132	0.90362	0.51772	0.065
Mof_C 	C 	0.82642	0.87256	0.43528	-0.087
Mof_C 	C 	0.88814	0.81909	0.53093	0.256
Mof_C 	C 	0.88348	0.856	0.50316	-0.075
Mof_C 	C 	0.83123	0.83873	0.46	0.029
Mof_C 	C 	0.99113	0.84138	0.71623	0.199
Mof_C 	C 	0.93788	0.74957	0.64079	0.164
Mof_C 	C 	0.05909	0.6816	0.88441	0.234
Mof_C 	C 	0.02358	0.70238	0.88576	-0.197
Mof_C 	C 	0.12304	0.57482	0.0433	0.035
Mof_C 	C 	0.07997	0.68118	0.84617	-0.221
Mof_C 	C 	0.06868	0.5864	0.9723	0.081
Mof_C 	C 	0.17358	0.60886	0.04614	-0.072
Mof_C 	C 	0.11186	0.64279	0.93095	0.246
Mof_C 	C 	0.11652	0.61968	0.97252	-0.039
Mof_C 	C 	0.16877	0.62877	0.0075	-0.026
Mof_C 	C 	0.00887	0.7251	0.85025	0.058
Mof_C 	C 	0.06212	0.70291	0.81169	0.142
Mof_C 	C 	0.79719	0.17468	0.11559	0.248
Mof_C 	C 	0.81662	0.13782	0.11424	-0.232
Mof_C 	C 	0.53152	0.07974	0.9567	0.062
Mof_C 	C 	0.83501	0.2338	0.15383	-0.229
Mof_C 	C 	0.6141	0.09638	0.0277	0.042
Mof_C 	C 	0.56272	0.12744	0.95386	-0.111
Mof_C 	C 	0.71184	0.18091	0.06905	0.258
Mof_C 	C 	0.64716	0.144	0.02748	-0.118
Mof_C 	C 	0.62127	0.16127	0.9925	0.083
Mof_C 	C 	0.87485	0.15862	0.14975	0.125
Mof_C 	C 	0.89122	0.25043	0.18831	0.151
Mof_C 	C 	0.88441	0.05909	0.6816	0.234
Mof_C 	C 	0.88576	0.02358	0.70238	-0.197
Mof_C 	C 	0.0433	0.12304	0.57482	0.035
Mof_C 	C 	0.84617	0.07997	0.68118	-0.221
Mof_C 	C 	0.9723	0.06868	0.5864	0.081
Mof_C 	C 	0.04614	0.17358	0.60886	-0.072
Mof_C 	C 	0.93095	0.11186	0.64279	0.246
Mof_C 	C 	0.97252	0.11652	0.61968	-0.039
Mof_C 	C 	0.0075	0.16877	0.62877	-0.026
Mof_C 	C 	0.85025	0.00887	0.7251	0.058
Mof_C 	C 	0.81169	0.06212	0.70291	0.142
Mof_C 	C 	0.11559	0.79719	0.17468	0.248
Mof_C 	C 	0.11424	0.81662	0.13782	-0.232
Mof_C 	C 	0.9567	0.53152	0.07974	0.062
Mof_C 	C 	0.15383	0.83501	0.2338	-0.229
Mof_C 	C 	0.0277	0.6141	0.09638	0.042
Mof_C 	C 	0.95386	0.56272	0.12744	-0.111
Mof_C 	C 	0.06905	0.71184	0.18091	0.258
Mof_C 	C 	0.02748	0.64716	0.144	-0.118
Mof_C 	C 	0.9925	0.62127	0.16127	0.083
Mof_C 	C 	0.14975	0.87485	0.15862	0.125
Mof_C 	C 	0.18831	0.89122	0.25043	0.151
Mof_C 	C 	0.37749	0.20281	0.3184	0.252
Mof_C 	C 	0.3212	0.18338	0.29762	-0.235
Mof_C 	C 	0.54822	0.46848	0.42518	0.048
Mof_C 	C 	0.39879	0.16499	0.31882	-0.235
Mof_C 	C 	0.48228	0.3859	0.4136	0.062
Mof_C 	C 	0.56472	0.43728	0.39114	-0.09
Mof_C 	C 	0.46907	0.28816	0.35721	0.253
Mof_C 	C 	0.49684	0.35284	0.38032	-0.078
Mof_C 	C 	0.54	0.37873	0.37123	0.029
Mof_C 	C 	0.28377	0.12515	0.2749	0.127
Mof_C 	C 	0.35921	0.10878	0.29709	0.152
Mof_C 	C 	0.62251	0.94091	0.82532	0.274
Mof_C 	C 	0.6788	0.97642	0.86218	-0.269
Mof_C 	C 	0.45178	0.87696	0.92026	0.05
Mof_C 	C 	0.60121	0.92003	0.7662	-0.244
Mof_C 	C 	0.51772	0.93132	0.90362	0.065
Mof_C 	C 	0.43528	0.82642	0.87256	-0.087
Mof_C 	C 	0.53093	0.88814	0.81909	0.256
Mof_C 	C 	0.50316	0.88348	0.856	-0.075
Mof_C 	C 	0.46	0.83123	0.83873	0.029
Mof_C 	C 	0.71623	0.99113	0.84138	0.199
Mof_C 	C 	0.64079	0.93788	0.74957	0.164
Mof_C 	C 	0.82532	0.62251	0.94091	0.274
Mof_C 	C 	0.86218	0.6788	0.97642	-0.269
Mof_C 	C 	0.92026	0.45178	0.87696	0.05
Mof_C 	C 	0.7662	0.60121	0.92003	-0.244
Mof_C 	C 	0.90362	0.51772	0.93132	0.065
Mof_C 	C 	0.87256	0.43528	0.82642	-0.087
Mof_C 	C 	0.81909	0.53093	0.88814	0.256
Mof_C 	C 	0.856	0.50316	0.88348	-0.075
Mof_C 	C 	0.83873	0.46	0.83123	0.029
Mof_C 	C 	0.84138	0.71623	0.99113	0.199
Mof_C 	C 	0.74957	0.64079	0.93788	0.164
Mof_C 	C 	0.3184	0.37749	0.20281	0.252
Mof_C 	C 	0.29762	0.3212	0.18338	-0.235
Mof_C 	C 	0.42518	0.54822	0.46848	0.048
Mof_C 	C 	0.31882	0.39879	0.16499	-0.235
Mof_C 	C 	0.4136	0.48228	0.3859	0.062
Mof_C 	C 	0.39114	0.56472	0.43728	-0.09
Mof_C 	C 	0.35721	0.46907	0.28816	0.253
Mof_C 	C 	0.38032	0.49684	0.35284	-0.078
Mof_C 	C 	0.37123	0.54	0.37873	0.029
Mof_C 	C 	0.2749	0.28377	0.12515	0.127
Mof_C 	C 	0.29709	0.35921	0.10878	0.152
Mof_C 	C 	0.17468	0.11559	0.79719	0.248
Mof_C 	C 	0.13782	0.11424	0.81662	-0.232
Mof_C 	C 	0.07974	0.9567	0.53152	0.062
Mof_C 	C 	0.2338	0.15383	0.83501	-0.229
Mof_C 	C 	0.09638	0.0277	0.6141	0.042
Mof_C 	C 	0.12744	0.95386	0.56272	-0.111
Mof_C 	C 	0.18091	0.06905	0.71184	0.258
Mof_C 	C 	0.144	0.02748	0.64716	-0.118
Mof_C 	C 	0.16127	0.9925	0.62127	0.083
Mof_C 	C 	0.15862	0.14975	0.87485	0.125
Mof_C 	C 	0.25043	0.18831	0.89122	0.151
Mof_C 	C 	0.6816	0.88441	0.05909	0.234
Mof_C 	C 	0.70238	0.88576	0.02358	-0.197
Mof_C 	C 	0.57482	0.0433	0.12304	0.035
Mof_C 	C 	0.68118	0.84617	0.07997	-0.221
Mof_C 	C 	0.5864	0.9723	0.06868	0.081
Mof_C 	C 	0.60886	0.04614	0.17358	-0.072
Mof_C 	C 	0.64279	0.93095	0.11186	0.246
Mof_C 	C 	0.61968	0.97252	0.11652	-0.039
Mof_C 	C 	0.62877	0.0075	0.16877	-0.026
Mof_C 	C 	0.7251	0.85025	0.00887	0.058
Mof_C 	C 	0.70291	0.81169	0.06212	0.142
Mof_C 	C 	0.6816	0.79719	0.62251	0.251
Mof_C 	C 	0.70238	0.81662	0.6788	-0.231
Mof_C 	C 	0.57482	0.53152	0.45178	0.048
Mof_C 	C 	0.68118	0.83501	0.60121	-0.23
Mof_C 	C 	0.5864	0.6141	0.51772	0.062
Mof_C 	C 	0.60886	0.56272	0.43528	-0.09
Mof_C 	C 	0.64279	0.71184	0.53093	0.253
Mof_C 	C 	0.61968	0.64716	0.50316	-0.077
Mof_C 	C 	0.62877	0.62127	0.46	0.028
Mof_C 	C 	0.7251	0.87485	0.71623	0.127
Mof_C 	C 	0.70291	0.89122	0.64079	0.153
Mof_C 	C 	0.17468	0.05909	0.37749	0.228
Mof_C 	C 	0.13782	0.02358	0.3212	-0.196
Mof_C 	C 	0.07974	0.12304	0.54822	0.048
Mof_C 	C 	0.2338	0.07997	0.39879	-0.22
Mof_C 	C 	0.09638	0.06868	0.48228	0.06
Mof_C 	C 	0.12744	0.17358	0.56472	-0.093
Mof_C 	C 	0.18091	0.11186	0.46907	0.25
Mof_C 	C 	0.144	0.11652	0.49684	-0.08
Mof_C 	C 	0.16127	0.16877	0.54	0.028
Mof_C 	C 	0.15862	0.00887	0.28377	0.052
Mof_C 	C 	0.25043	0.06212	0.35921	0.14
Mof_C 	C 	0.3184	0.94091	0.11559	0.271
Mof_C 	C 	0.29762	0.97642	0.11424	-0.272
Mof_C 	C 	0.42518	0.87696	0.9567	0.063
Mof_C 	C 	0.31882	0.92003	0.15383	-0.244
Mof_C 	C 	0.4136	0.93132	0.0277	0.045
Mof_C 	C 	0.39114	0.82642	0.95386	-0.108
Mof_C 	C 	0.35721	0.88814	0.06905	0.262
Mof_C 	C 	0.38032	0.88348	0.02748	-0.115
Mof_C 	C 	0.37123	0.83123	0.9925	0.082
Mof_C 	C 	0.2749	0.99113	0.14975	0.2
Mof_C 	C 	0.29709	0.93788	0.18831	0.163
Mof_C 	C 	0.82532	0.20281	0.88441	0.257
Mof_C 	C 	0.86218	0.18338	0.88576	-0.235
Mof_C 	C 	0.92026	0.46848	0.0433	0.036
Mof_C 	C 	0.7662	0.16499	0.84617	-0.235
Mof_C 	C 	0.90362	0.3859	0.9723	0.082
Mof_C 	C 	0.87256	0.43728	0.04614	-0.069
Mof_C 	C 	0.81909	0.28816	0.93095	0.249
Mof_C 	C 	0.856	0.35284	0.97252	-0.037
Mof_C 	C 	0.83873	0.37873	0.0075	-0.024
Mof_C 	C 	0.84138	0.12515	0.85025	0.13
Mof_C 	C 	0.74957	0.10878	0.81169	0.153
Mof_C 	C 	0.94091	0.11559	0.3184	0.271
Mof_C 	C 	0.97642	0.11424	0.29762	-0.272
Mof_C 	C 	0.87696	0.9567	0.42518	0.063
Mof_C 	C 	0.92003	0.15383	0.31882	-0.244
Mof_C 	C 	0.93132	0.0277	0.4136	0.045
Mof_C 	C 	0.82642	0.95386	0.39114	-0.108
Mof_C 	C 	0.88814	0.06905	0.35721	0.262
Mof_C 	C 	0.88348	0.02748	0.38032	-0.115
Mof_C 	C 	0.83123	0.9925	0.37123	0.082
Mof_C 	C 	0.99113	0.14975	0.2749	0.2
Mof_C 	C 	0.93788	0.18831	0.29709	0.163
Mof_C 	C 	0.20281	0.88441	0.82532	0.257
Mof_C 	C 	0.18338	0.88576	0.86218	-0.235
Mof_C 	C 	0.46848	0.0433	0.92026	0.036
Mof_C 	C 	0.16499	0.84617	0.7662	-0.235
Mof_C 	C 	0.3859	0.9723	0.90362	0.082
Mof_C 	C 	0.43728	0.04614	0.87256	-0.069
Mof_C 	C 	0.28816	0.93095	0.81909	0.249
Mof_C 	C 	0.35284	0.97252	0.856	-0.037
Mof_C 	C 	0.37873	0.0075	0.83873	-0.024
Mof_C 	C 	0.12515	0.85025	0.84138	0.13
Mof_C 	C 	0.10878	0.81169	0.74957	0.153
Mof_C 	C 	0.79719	0.62251	0.6816	0.251
Mof_C 	C 	0.81662	0.6788	0.70238	-0.231
Mof_C 	C 	0.53152	0.45178	0.57482	0.048
Mof_C 	C 	0.83501	0.60121	0.68118	-0.23
Mof_C 	C 	0.6141	0.51772	0.5864	0.062
Mof_C 	C 	0.56272	0.43528	0.60886	-0.09
Mof_C 	C 	0.71184	0.53093	0.64279	0.253
Mof_C 	C 	0.64716	0.50316	0.61968	-0.077
Mof_C 	C 	0.62127	0.46	0.62877	0.028
Mof_C 	C 	0.87485	0.71623	0.7251	0.127
Mof_C 	C 	0.89122	0.64079	0.70291	0.153
Mof_C 	C 	0.05909	0.37749	0.17468	0.228
Mof_C 	C 	0.02358	0.3212	0.13782	-0.196
Mof_C 	C 	0.12304	0.54822	0.07974	0.048
Mof_C 	C 	0.07997	0.39879	0.2338	-0.22
Mof_C 	C 	0.06868	0.48228	0.09638	0.06
Mof_C 	C 	0.17358	0.56472	0.12744	-0.093
Mof_C 	C 	0.11186	0.46907	0.18091	0.25
Mof_C 	C 	0.11652	0.49684	0.144	-0.08
Mof_C 	C 	0.16877	0.54	0.16127	0.028
Mof_C 	C 	0.00887	0.28377	0.15862	0.052
Mof_C 	C 	0.06212	0.35921	0.25043	0.14
Mof_C 	C 	0.37749	0.17468	0.05909	0.228
Mof_C 	C 	0.3212	0.13782	0.02358	-0.196
Mof_C 	C 	0.54822	0.07974	0.12304	0.048
Mof_C 	C 	0.39879	0.2338	0.07997	-0.22
Mof_C 	C 	0.48228	0.09638	0.06868	0.06
Mof_C 	C 	0.56472	0.12744	0.17358	-0.093
Mof_C 	C 	0.46907	0.18091	0.11186	0.25
Mof_C 	C 	0.49684	0.144	0.11652	-0.08
Mof_C 	C 	0.54	0.16127	0.16877	0.028
Mof_C 	C 	0.28377	0.15862	0.00887	0.052
Mof_C 	C 	0.35921	0.25043	0.06212	0.14
Mof_C 	C 	0.62251	0.6816	0.79719	0.251
Mof_C 	C 	0.6788	0.70238	0.81662	-0.231
Mof_C 	C 	0.45178	0.57482	0.53152	0.048
Mof_C 	C 	0.60121	0.68118	0.83501	-0.23
Mof_C 	C 	0.51772	0.5864	0.6141	0.062
Mof_C 	C 	0.43528	0.60886	0.56272	-0.09
Mof_C 	C 	0.53093	0.64279	0.71184	0.253
Mof_C 	C 	0.50316	0.61968	0.64716	-0.077
Mof_C 	C 	0.46	0.62877	0.62127	0.028
Mof_C 	C 	0.71623	0.7251	0.87485	0.127
Mof_C 	C 	0.64079	0.70291	0.89122	0.153
Mof_C 	C 	0.88441	0.82532	0.20281	0.257
Mof_C 	C 	0.88576	0.86218	0.18338	-0.235
Mof_C 	C 	0.0433	0.92026	0.46848	0.036
Mof_C 	C 	0.84617	0.7662	0.16499	-0.235
Mof_C 	C 	0.9723	0.90362	0.3859	0.082
Mof_C 	C 	0.04614	0.87256	0.43728	-0.069
Mof_C 	C 	0.93095	0.81909	0.28816	0.249
Mof_C 	C 	0.97252	0.856	0.35284	-0.037
Mof_C 	C 	0.0075	0.83873	0.37873	-0.024
Mof_C 	C 	0.85025	0.84138	0.12515	0.13
Mof_C 	C 	0.81169	0.74957	0.10878	0.153
Mof_C 	C 	0.11559	0.3184	0.94091	0.271
Mof_C 	C 	0.11424	0.29762	0.97642	-0.272
Mof_C 	C 	0.9567	0.42518	0.87696	0.063
Mof_C 	C 	0.15383	0.31882	0.92003	-0.244
Mof_C 	C 	0.0277	0.4136	0.93132	0.045
Mof_C 	C 	0.95386	0.39114	0.82642	-0.108
Mof_C 	C 	0.06905	0.35721	0.88814	0.262
Mof_C 	C 	0.02748	0.38032	0.88348	-0.115
Mof_C 	C 	0.9925	0.37123	0.83123	0.082
Mof_C 	C 	0.14975	0.2749	0.99113	0.2
Mof_C 	C 	0.18831	0.29709	0.93788	0.163
Mof_N 	N 	0.44276	0.43585	0.50813	-0.238
Mof_N 	N 	0.2611	0.33852	0.41294	-0.264
Mof_N 	N 	0.08924	0.27767	0.30479	-0.292
Mof_N 	N 	0.92772	0.93463	0.49187	-0.225
Mof_N 	N 	0.92558	0.84816	0.58706	-0.268
Mof_N 	N 	0.97288	0.78445	0.69521	-0.292
Mof_N 	N 	0.07228	0.56415	0.00691	-0.258
Mof_N 	N 	0.07442	0.66148	0.92258	-0.259
Mof_N 	N 	0.02712	0.72233	0.81157	-0.28
Mof_N 	N 	0.55724	0.06537	0.99309	-0.223
Mof_N 	N 	0.7389	0.15184	0.07742	-0.265
Mof_N 	N 	0.91076	0.21555	0.18843	-0.281
Mof_N 	N 	0.00691	0.07228	0.56415	-0.258
Mof_N 	N 	0.92258	0.07442	0.66148	-0.259
Mof_N 	N 	0.81157	0.02712	0.72233	-0.28
Mof_N 	N 	0.99309	0.55724	0.06537	-0.223
Mof_N 	N 	0.07742	0.7389	0.15184	-0.265
Mof_N 	N 	0.18843	0.91076	0.21555	-0.281
Mof_N 	N 	0.50813	0.44276	0.43585	-0.238
Mof_N 	N 	0.41294	0.2611	0.33852	-0.264
Mof_N 	N 	0.30479	0.08924	0.27767	-0.292
Mof_N 	N 	0.49187	0.92772	0.93463	-0.225
Mof_N 	N 	0.58706	0.92558	0.84816	-0.268
Mof_N 	N 	0.69521	0.97288	0.78445	-0.292
Mof_N 	N 	0.93463	0.49187	0.92772	-0.225
Mof_N 	N 	0.84816	0.58706	0.92558	-0.268
Mof_N 	N 	0.78445	0.69521	0.97288	-0.292
Mof_N 	N 	0.43585	0.50813	0.44276	-0.238
Mof_N 	N 	0.33852	0.41294	0.2611	-0.264
Mof_N 	N 	0.27767	0.30479	0.08924	-0.292
Mof_N 	N 	0.06537	0.99309	0.55724	-0.223
Mof_N 	N 	0.15184	0.07742	0.7389	-0.265
Mof_N 	N 	0.21555	0.18843	0.91076	-0.281
Mof_N 	N 	0.56415	0.00691	0.07228	-0.258
Mof_N 	N 	0.66148	0.92258	0.07442	-0.259
Mof_N 	N 	0.72233	0.81157	0.02712	-0.28
Mof_N 	N 	0.56415	0.55724	0.49187	-0.238
Mof_N 	N 	0.66148	0.7389	0.58706	-0.264
Mof_N 	N 	0.72233	0.91076	0.69521	-0.281
Mof_N 	N 	0.06537	0.07228	0.50813	-0.246
Mof_N 	N 	0.15184	0.07442	0.41294	-0.26
Mof_N 	N 	0.21555	0.02712	0.30479	-0.28
Mof_N 	N 	0.43585	0.92772	0.99309	-0.213
Mof_N 	N 	0.33852	0.92558	0.07742	-0.269
Mof_N 	N 	0.27767	0.97288	0.18843	-0.293
Mof_N 	N 	0.93463	0.44276	0.00691	-0.247
Mof_N 	N 	0.84816	0.2611	0.92258	-0.263
Mof_N 	N 	0.78445	0.08924	0.81157	-0.291
Mof_N 	N 	0.92772	0.99309	0.43585	-0.213
Mof_N 	N 	0.92558	0.07742	0.33852	-0.269
Mof_N 	N 	0.97288	0.18843	0.27767	-0.293
Mof_N 	N 	0.44276	0.00691	0.93463	-0.247
Mof_N 	N 	0.2611	0.92258	0.84816	-0.263
Mof_N 	N 	0.08924	0.81157	0.78445	-0.291
Mof_N 	N 	0.55724	0.49187	0.56415	-0.238
Mof_N 	N 	0.7389	0.58706	0.66148	-0.264
Mof_N 	N 	0.91076	0.69521	0.72233	-0.281
Mof_N 	N 	0.07228	0.50813	0.06537	-0.246
Mof_N 	N 	0.07442	0.41294	0.15184	-0.26
Mof_N 	N 	0.02712	0.30479	0.21555	-0.28
Mof_N 	N 	0.50813	0.06537	0.07228	-0.246
Mof_N 	N 	0.41294	0.15184	0.07442	-0.26
Mof_N 	N 	0.30479	0.21555	0.02712	-0.28
Mof_N 	N 	0.49187	0.56415	0.55724	-0.238
Mof_N 	N 	0.58706	0.66148	0.7389	-0.264
Mof_N 	N 	0.69521	0.72233	0.91076	-0.281
Mof_N 	N 	0.00691	0.93463	0.44276	-0.247
Mof_N 	N 	0.92258	0.84816	0.2611	-0.263
Mof_N 	N 	0.81157	0.78445	0.08924	-0.291
Mof_N 	N 	0.99309	0.43585	0.92772	-0.213
Mof_N 	N 	0.07742	0.33852	0.92558	-0.269
Mof_N 	N 	0.18843	0.27767	0.97288	-0.293
Mof_O 	O 	0.26595	0.3556	0.49901	-0.224
Mof_O 	O 	0.85659	0.76694	0.50099	-0.222
Mof_O 	O 	0.14341	0.6444	0.91035	-0.214
Mof_O 	O 	0.73405	0.23306	0.08965	-0.23
Mof_O 	O 	0.91035	0.14341	0.6444	-0.214
Mof_O 	O 	0.08965	0.73405	0.23306	-0.23
Mof_O 	O 	0.49901	0.26595	0.3556	-0.224
Mof_O 	O 	0.50099	0.85659	0.76694	-0.222
Mof_O 	O 	0.76694	0.50099	0.85659	-0.222
Mof_O 	O 	0.3556	0.49901	0.26595	-0.224
Mof_O 	O 	0.23306	0.08965	0.73405	-0.23
Mof_O 	O 	0.6444	0.91035	0.14341	-0.214
Mof_O 	O 	0.6444	0.73405	0.50099	-0.222
Mof_O 	O 	0.23306	0.14341	0.49901	-0.224
Mof_O 	O 	0.3556	0.85659	0.08965	-0.229
Mof_O 	O 	0.76694	0.26595	0.91035	-0.214
Mof_O 	O 	0.85659	0.08965	0.3556	-0.229
Mof_O 	O 	0.26595	0.91035	0.76694	-0.214
Mof_O 	O 	0.73405	0.50099	0.6444	-0.222
Mof_O 	O 	0.14341	0.49901	0.23306	-0.224
Mof_O 	O 	0.49901	0.23306	0.14341	-0.224
Mof_O 	O 	0.50099	0.6444	0.73405	-0.222
Mof_O 	O 	0.91035	0.76694	0.26595	-0.214
Mof_O 	O 	0.08965	0.3556	0.85659	-0.229
Mof_N 	N 	0.6639	0	-0	-0.003
Mof_O 	O 	0.68884	0.02337	0.05325	-0.156
Mof_O 	O 	0.66547	0.02988	0.97663	-0.128
Mof_O 	O 	0.63559	0.94675	0.97012	-0.098
Mof_N 	N 	2.51066e-17	0.6639	-0	-0.003
Mof_O 	O 	0.97012	0.63559	0.94675	-0.098
Mof_O 	O 	0.05325	0.68884	0.02337	-0.156
Mof_O 	O 	0.97663	0.66547	0.02988	-0.128
Mof_N 	N 	-1.25533e-17	0	0.6639	-0.003
Mof_O 	O 	0.02988	0.97663	0.66547	-0.128
Mof_O 	O 	0.94675	0.97012	0.63559	-0.098
Mof_O 	O 	0.02337	0.05325	0.68884	-0.156
Mof_N 	N 	0.3361	0.3361	0.3361	0.043
Mof_O 	O 	0.31116	0.36441	0.33453	-0.144
Mof_O 	O 	0.33453	0.31116	0.36441	-0.144
Mof_O 	O 	0.36441	0.33453	0.31116	-0.144
Mof_N 	N 	1.25533e-17	0.3361	-0	-0.003
Mof_O 	O 	0.97663	0.31116	0.94675	-0.098
Mof_O 	O 	0.97012	0.33453	0.02337	-0.125
Mof_O 	O 	0.05325	0.36441	0.02988	-0.158
Mof_N 	N 	0.3361	0	-0	-0.003
Mof_O 	O 	0.36441	0.02988	0.05325	-0.158
Mof_O 	O 	0.31116	0.94675	0.97663	-0.098
Mof_O 	O 	0.33453	0.02337	0.97012	-0.125
Mof_N 	N 	-0	0	0.3361	-0.003
Mof_O 	O 	0.02337	0.97012	0.33453	-0.125
Mof_O 	O 	0.02988	0.05325	0.36441	-0.158
Mof_O 	O 	0.94675	0.97663	0.31116	-0.098
Mof_N 	N 	0.6639	0.6639	0.6639	0.043
Mof_O 	O 	0.63559	0.68884	0.66547	-0.143
Mof_O 	O 	0.68884	0.66547	0.63559	-0.143
Mof_O 	O 	0.66547	0.63559	0.68884	-0.143
Mof_N 	N 	0.8087	1.25533e-17	0.1913	0.024
Mof_O 	O 	0.8301	0.9659	0.188	-0.084
Mof_O 	O 	0.812	0.0341	0.1699	-0.116
Mof_O 	O 	0.7812	0	0.2188	-0.103
Mof_N 	N 	0.8087	0.6174	0.8087	0.037
Mof_O 	O 	0.7779	0.6421	0.812	-0.105
Mof_O 	O 	0.8642	0.6421	0.8301	-0.1
Mof_O 	O 	0.7812	0.5624	0.7812	-0.089
Mof_N 	N 	0.1913	5.02131e-17	0.8087	0.024
Mof_O 	O 	0.2221	0.0341	0.8642	-0.111
Mof_O 	O 	0.1358	0.9659	0.7779	-0.088
Mof_O 	O 	0.2188	0	0.7812	-0.103
Mof_N 	N 	0.1913	0.3826	0.1913	0.038
Mof_O 	O 	0.1699	0.3579	0.1358	-0.115
Mof_O 	O 	0.188	0.3579	0.2221	-0.11
Mof_O 	O 	0.2188	0.4376	0.2188	-0.091
Mof_N 	N 	0.8087	0.1913	-0	0.024
Mof_O 	O 	0.8642	0.2221	0.0341	-0.111
Mof_O 	O 	0.7779	0.1358	0.9659	-0.088
Mof_O 	O 	0.7812	0.2188	-0	-0.103
Mof_N 	N 	0.1913	0.1913	0.3826	0.038
Mof_O 	O 	0.1358	0.1699	0.3579	-0.115
Mof_O 	O 	0.2221	0.188	0.3579	-0.11
Mof_O 	O 	0.2188	0.2188	0.4376	-0.091
Mof_N 	N 	0.1913	0.8087	-0	0.024
Mof_O 	O 	0.188	0.8301	0.9659	-0.084
Mof_O 	O 	0.1699	0.812	0.0341	-0.116
Mof_O 	O 	0.2188	0.7812	-0	-0.103
Mof_N 	N 	0.8087	0.8087	0.6174	0.037
Mof_O 	O 	0.812	0.7779	0.6421	-0.105
Mof_O 	O 	0.8301	0.8642	0.6421	-0.1
Mof_O 	O 	0.7812	0.7812	0.5624	-0.089
Mof_N 	N 	0.6174	0.8087	0.8087	0.037
Mof_O 	O 	0.6421	0.812	0.7779	-0.105
Mof_O 	O 	0.6421	0.8301	0.8642	-0.1
Mof_O 	O 	0.5624	0.7812	0.7812	-0.089
Mof_N 	N 	2.51066e-17	0.1913	0.8087	0.024
Mof_O 	O 	0.9659	0.188	0.8301	-0.084
Mof_O 	O 	0.0341	0.1699	0.812	-0.116
Mof_O 	O 	2.51066e-17	0.2188	0.7812	-0.103
Mof_N 	N 	0.3826	0.1913	0.1913	0.038
Mof_O 	O 	0.3579	0.1358	0.1699	-0.115
Mof_O 	O 	0.3579	0.2221	0.188	-0.11
Mof_O 	O 	0.4376	0.2188	0.2188	-0.091
Mof_N 	N 	-1.25533e-17	0.8087	0.1913	0.024
Mof_O 	O 	0.0341	0.8642	0.2221	-0.111
Mof_O 	O 	0.9659	0.7779	0.1358	-0.088
Mof_O 	O 	-6.27664e-18	0.7812	0.2188	-0.103
_end
