data_functionalizedCrystal
_audit_creation_method	'EQeq! by Chris Wilmer'
_symmetry_space_group_name_H-M	'P1'
_symmetry_Int_Tables_number	1
_symmetry_cell_setting	triclinic
loop_
_symmetry_equiv_pos_as_xyz
  x,y,z
_cell_length_a	26.446
_cell_length_b	26.446
_cell_length_c	26.446
_cell_angle_alpha	90
_cell_angle_beta	90
_cell_angle_gamma	90
loop_
_atom_site_label
_atom_site_type_symbol
_atom_site_fract_x
_atom_site_fract_y
_atom_site_fract_z
_atom_site_charge
Mof_O 	O 	0.18333	0.05268	0.25679	-0.426
Mof_O 	O 	0.18333	0.55268	0.75679	-0.406
Mof_O 	O 	0.68333	0.05268	0.75679	-0.417
Mof_O 	O 	0.68333	0.55268	0.25679	-0.404
Mof_O 	O 	0.81667	0.94732	0.25679	-0.368
Mof_O 	O 	0.81667	0.44732	0.75679	-0.396
Mof_O 	O 	0.31667	0.94732	0.75679	-0.37
Mof_O 	O 	0.31667	0.44732	0.25679	-0.405
Mof_O 	O 	0.81667	0.05268	0.74321	-0.411
Mof_O 	O 	0.81667	0.55268	0.24321	-0.398
Mof_O 	O 	0.31667	0.05268	0.24321	-0.421
Mof_O 	O 	0.31667	0.55268	0.74321	-0.4
Mof_O 	O 	0.18333	0.94732	0.74321	-0.374
Mof_O 	O 	0.18333	0.44732	0.24321	-0.409
Mof_O 	O 	0.68333	0.94732	0.24321	-0.372
Mof_O 	O 	0.68333	0.44732	0.74321	-0.4
Mof_O 	O 	0.25679	0.18333	0.05268	-0.426
Mof_O 	O 	0.25679	0.68333	0.55268	-0.404
Mof_O 	O 	0.75679	0.18333	0.55268	-0.407
Mof_O 	O 	0.75679	0.68333	0.05268	-0.418
Mof_O 	O 	0.25679	0.81667	0.94732	-0.369
Mof_O 	O 	0.25679	0.31667	0.44732	-0.406
Mof_O 	O 	0.75679	0.81667	0.44732	-0.397
Mof_O 	O 	0.75679	0.31667	0.94732	-0.371
Mof_O 	O 	0.74321	0.81667	0.05268	-0.412
Mof_O 	O 	0.74321	0.31667	0.55268	-0.401
Mof_O 	O 	0.24321	0.81667	0.55268	-0.399
Mof_O 	O 	0.24321	0.31667	0.05268	-0.422
Mof_O 	O 	0.74321	0.18333	0.94732	-0.375
Mof_O 	O 	0.74321	0.68333	0.44732	-0.401
Mof_O 	O 	0.24321	0.18333	0.44732	-0.41
Mof_O 	O 	0.24321	0.68333	0.94732	-0.373
Mof_O 	O 	0.05268	0.25679	0.18333	-0.427
Mof_O 	O 	0.05268	0.75679	0.68333	-0.418
Mof_O 	O 	0.55268	0.25679	0.68333	-0.405
Mof_O 	O 	0.55268	0.75679	0.18333	-0.407
Mof_O 	O 	0.94732	0.25679	0.81667	-0.369
Mof_O 	O 	0.94732	0.75679	0.31667	-0.371
Mof_O 	O 	0.44732	0.25679	0.31667	-0.406
Mof_O 	O 	0.44732	0.75679	0.81667	-0.397
Mof_O 	O 	0.05268	0.74321	0.81667	-0.412
Mof_O 	O 	0.05268	0.24321	0.31667	-0.422
Mof_O 	O 	0.55268	0.74321	0.31667	-0.401
Mof_O 	O 	0.55268	0.24321	0.81667	-0.399
Mof_O 	O 	0.94732	0.74321	0.18333	-0.375
Mof_O 	O 	0.94732	0.24321	0.68333	-0.373
Mof_O 	O 	0.44732	0.74321	0.68333	-0.401
Mof_O 	O 	0.44732	0.24321	0.18333	-0.41
Mof_O 	O 	0.05268	0.18333	0.74321	-0.423
Mof_O 	O 	0.05268	0.68333	0.24321	-0.421
Mof_O 	O 	0.55268	0.18333	0.24321	-0.41
Mof_O 	O 	0.55268	0.68333	0.74321	-0.401
Mof_O 	O 	0.94732	0.81667	0.74321	-0.365
Mof_O 	O 	0.94732	0.31667	0.24321	-0.374
Mof_O 	O 	0.44732	0.81667	0.24321	-0.4
Mof_O 	O 	0.44732	0.31667	0.74321	-0.402
Mof_O 	O 	0.05268	0.81667	0.25679	-0.417
Mof_O 	O 	0.05268	0.31667	0.75679	-0.419
Mof_O 	O 	0.55268	0.81667	0.75679	-0.396
Mof_O 	O 	0.55268	0.31667	0.25679	-0.406
Mof_O 	O 	0.94732	0.18333	0.25679	-0.379
Mof_O 	O 	0.94732	0.68333	0.75679	-0.37
Mof_O 	O 	0.44732	0.18333	0.75679	-0.407
Mof_O 	O 	0.44732	0.68333	0.25679	-0.405
Mof_O 	O 	0.18333	0.25679	0.94732	-0.379
Mof_O 	O 	0.18333	0.75679	0.44732	-0.407
Mof_O 	O 	0.68333	0.25679	0.44732	-0.405
Mof_O 	O 	0.68333	0.75679	0.94732	-0.37
Mof_O 	O 	0.81667	0.25679	0.05268	-0.417
Mof_O 	O 	0.81667	0.75679	0.55268	-0.396
Mof_O 	O 	0.31667	0.25679	0.55268	-0.406
Mof_O 	O 	0.31667	0.75679	0.05268	-0.419
Mof_O 	O 	0.81667	0.74321	0.94732	-0.365
Mof_O 	O 	0.81667	0.24321	0.44732	-0.4
Mof_O 	O 	0.31667	0.74321	0.44732	-0.402
Mof_O 	O 	0.31667	0.24321	0.94732	-0.374
Mof_O 	O 	0.18333	0.74321	0.05268	-0.423
Mof_O 	O 	0.18333	0.24321	0.55268	-0.41
Mof_O 	O 	0.68333	0.74321	0.55268	-0.401
Mof_O 	O 	0.68333	0.24321	0.05268	-0.421
Mof_O 	O 	0.25679	0.05268	0.81667	-0.417
Mof_O 	O 	0.25679	0.55268	0.31667	-0.406
Mof_O 	O 	0.75679	0.05268	0.31667	-0.419
Mof_O 	O 	0.75679	0.55268	0.81667	-0.396
Mof_O 	O 	0.25679	0.94732	0.18333	-0.379
Mof_O 	O 	0.25679	0.44732	0.68333	-0.405
Mof_O 	O 	0.75679	0.94732	0.68333	-0.37
Mof_O 	O 	0.75679	0.44732	0.18333	-0.407
Mof_O 	O 	0.74321	0.05268	0.18333	-0.423
Mof_O 	O 	0.74321	0.55268	0.68333	-0.401
Mof_O 	O 	0.24321	0.05268	0.68333	-0.421
Mof_O 	O 	0.24321	0.55268	0.18333	-0.41
Mof_O 	O 	0.74321	0.94732	0.81667	-0.365
Mof_O 	O 	0.74321	0.44732	0.31667	-0.402
Mof_O 	O 	0.24321	0.94732	0.31667	-0.374
Mof_O 	O 	0.24321	0.44732	0.81667	-0.4
Mof_O 	O 	0.81667	0.94732	0.74321	-0.365
Mof_O 	O 	0.81667	0.44732	0.24321	-0.4
Mof_O 	O 	0.31667	0.94732	0.24321	-0.374
Mof_O 	O 	0.31667	0.44732	0.74321	-0.402
Mof_O 	O 	0.18333	0.05268	0.74321	-0.423
Mof_O 	O 	0.18333	0.55268	0.24321	-0.41
Mof_O 	O 	0.68333	0.05268	0.24321	-0.421
Mof_O 	O 	0.68333	0.55268	0.74321	-0.401
Mof_O 	O 	0.18333	0.94732	0.25679	-0.379
Mof_O 	O 	0.18333	0.44732	0.75679	-0.407
Mof_O 	O 	0.68333	0.94732	0.75679	-0.37
Mof_O 	O 	0.68333	0.44732	0.25679	-0.405
Mof_O 	O 	0.81667	0.05268	0.25679	-0.417
Mof_O 	O 	0.81667	0.55268	0.75679	-0.396
Mof_O 	O 	0.31667	0.05268	0.75679	-0.419
Mof_O 	O 	0.31667	0.55268	0.25679	-0.406
Mof_O 	O 	0.74321	0.81667	0.94732	-0.365
Mof_O 	O 	0.74321	0.31667	0.44732	-0.402
Mof_O 	O 	0.24321	0.81667	0.44732	-0.4
Mof_O 	O 	0.24321	0.31667	0.94732	-0.374
Mof_O 	O 	0.74321	0.18333	0.05268	-0.423
Mof_O 	O 	0.74321	0.68333	0.55268	-0.401
Mof_O 	O 	0.24321	0.18333	0.55268	-0.41
Mof_O 	O 	0.24321	0.68333	0.05268	-0.421
Mof_O 	O 	0.25679	0.18333	0.94732	-0.379
Mof_O 	O 	0.25679	0.68333	0.44732	-0.405
Mof_O 	O 	0.75679	0.18333	0.44732	-0.407
Mof_O 	O 	0.75679	0.68333	0.94732	-0.37
Mof_O 	O 	0.25679	0.81667	0.05268	-0.417
Mof_O 	O 	0.25679	0.31667	0.55268	-0.406
Mof_O 	O 	0.75679	0.81667	0.55268	-0.396
Mof_O 	O 	0.75679	0.31667	0.05268	-0.419
Mof_O 	O 	0.94732	0.74321	0.81667	-0.365
Mof_O 	O 	0.94732	0.24321	0.31667	-0.374
Mof_O 	O 	0.44732	0.74321	0.31667	-0.402
Mof_O 	O 	0.44732	0.24321	0.81667	-0.4
Mof_O 	O 	0.05268	0.74321	0.18333	-0.423
Mof_O 	O 	0.05268	0.24321	0.68333	-0.421
Mof_O 	O 	0.55268	0.74321	0.68333	-0.401
Mof_O 	O 	0.55268	0.24321	0.18333	-0.41
Mof_O 	O 	0.94732	0.25679	0.18333	-0.379
Mof_O 	O 	0.94732	0.75679	0.68333	-0.37
Mof_O 	O 	0.44732	0.25679	0.68333	-0.405
Mof_O 	O 	0.44732	0.75679	0.18333	-0.407
Mof_O 	O 	0.05268	0.25679	0.81667	-0.417
Mof_O 	O 	0.05268	0.75679	0.31667	-0.419
Mof_O 	O 	0.55268	0.25679	0.31667	-0.406
Mof_O 	O 	0.55268	0.75679	0.81667	-0.396
Mof_O 	O 	0.94732	0.81667	0.25679	-0.369
Mof_O 	O 	0.94732	0.31667	0.75679	-0.371
Mof_O 	O 	0.44732	0.81667	0.75679	-0.397
Mof_O 	O 	0.44732	0.31667	0.25679	-0.406
Mof_O 	O 	0.05268	0.18333	0.25679	-0.427
Mof_O 	O 	0.05268	0.68333	0.75679	-0.418
Mof_O 	O 	0.55268	0.18333	0.75679	-0.407
Mof_O 	O 	0.55268	0.68333	0.25679	-0.405
Mof_O 	O 	0.94732	0.18333	0.74321	-0.375
Mof_O 	O 	0.94732	0.68333	0.24321	-0.373
Mof_O 	O 	0.44732	0.18333	0.24321	-0.41
Mof_O 	O 	0.44732	0.68333	0.74321	-0.401
Mof_O 	O 	0.05268	0.81667	0.74321	-0.412
Mof_O 	O 	0.05268	0.31667	0.24321	-0.422
Mof_O 	O 	0.55268	0.81667	0.24321	-0.399
Mof_O 	O 	0.55268	0.31667	0.74321	-0.401
Mof_O 	O 	0.81667	0.74321	0.05268	-0.412
Mof_O 	O 	0.81667	0.24321	0.55268	-0.399
Mof_O 	O 	0.31667	0.74321	0.55268	-0.401
Mof_O 	O 	0.31667	0.24321	0.05268	-0.422
Mof_O 	O 	0.18333	0.74321	0.94732	-0.375
Mof_O 	O 	0.18333	0.24321	0.44732	-0.41
Mof_O 	O 	0.68333	0.74321	0.44732	-0.401
Mof_O 	O 	0.68333	0.24321	0.94732	-0.373
Mof_O 	O 	0.18333	0.25679	0.05268	-0.427
Mof_O 	O 	0.18333	0.75679	0.55268	-0.407
Mof_O 	O 	0.68333	0.25679	0.55268	-0.405
Mof_O 	O 	0.68333	0.75679	0.05268	-0.418
Mof_O 	O 	0.81667	0.25679	0.94732	-0.369
Mof_O 	O 	0.81667	0.75679	0.44732	-0.397
Mof_O 	O 	0.31667	0.25679	0.44732	-0.406
Mof_O 	O 	0.31667	0.75679	0.94732	-0.371
Mof_O 	O 	0.74321	0.94732	0.18333	-0.375
Mof_O 	O 	0.74321	0.44732	0.68333	-0.401
Mof_O 	O 	0.24321	0.94732	0.68333	-0.373
Mof_O 	O 	0.24321	0.44732	0.18333	-0.41
Mof_O 	O 	0.74321	0.05268	0.81667	-0.412
Mof_O 	O 	0.74321	0.55268	0.31667	-0.401
Mof_O 	O 	0.24321	0.05268	0.31667	-0.422
Mof_O 	O 	0.24321	0.55268	0.81667	-0.399
Mof_O 	O 	0.25679	0.94732	0.81667	-0.369
Mof_O 	O 	0.25679	0.44732	0.31667	-0.406
Mof_O 	O 	0.75679	0.94732	0.31667	-0.371
Mof_O 	O 	0.75679	0.44732	0.81667	-0.397
Mof_O 	O 	0.25679	0.05268	0.18333	-0.427
Mof_O 	O 	0.25679	0.55268	0.68333	-0.405
Mof_O 	O 	0.75679	0.05268	0.68333	-0.418
Mof_O 	O 	0.75679	0.55268	0.18333	-0.407
Mof_Cu	Cu	0.21426	-2.72961e-33	0.21426	0.872
Mof_Cu	Cu	0.21426	0.5	0.71426	0.902
Mof_Cu	Cu	0.71426	0	0.71426	0.875
Mof_Cu	Cu	0.71426	0.5	0.21426	0.902
Mof_Cu	Cu	0.78574	-2.72961e-33	0.21426	0.876
Mof_Cu	Cu	0.78574	0.5	0.71426	0.906
Mof_Cu	Cu	0.28574	0	0.71426	0.875
Mof_Cu	Cu	0.28574	0.5	0.21426	0.902
Mof_Cu	Cu	0.78574	-5.45922e-33	0.78574	0.879
Mof_Cu	Cu	0.78574	0.5	0.28574	0.906
Mof_Cu	Cu	0.28574	-2.72961e-33	0.28574	0.875
Mof_Cu	Cu	0.28574	0.5	0.78574	0.906
Mof_Cu	Cu	0.21426	-5.45922e-33	0.78574	0.876
Mof_Cu	Cu	0.21426	0.5	0.28574	0.902
Mof_Cu	Cu	0.71426	-2.72961e-33	0.28574	0.875
Mof_Cu	Cu	0.71426	0.5	0.78574	0.906
Mof_Cu	Cu	0.21426	0.21426	-0	0.872
Mof_Cu	Cu	0.21426	0.71426	0.5	0.902
Mof_Cu	Cu	0.71426	0.21426	0.5	0.902
Mof_Cu	Cu	0.71426	0.71426	-0	0.875
Mof_Cu	Cu	0.21426	0.78574	-0	0.876
Mof_Cu	Cu	0.21426	0.28574	0.5	0.902
Mof_Cu	Cu	0.71426	0.78574	0.5	0.906
Mof_Cu	Cu	0.71426	0.28574	-0	0.875
Mof_Cu	Cu	0.78574	0.78574	-0	0.879
Mof_Cu	Cu	0.78574	0.28574	0.5	0.906
Mof_Cu	Cu	0.28574	0.78574	0.5	0.906
Mof_Cu	Cu	0.28574	0.28574	-0	0.875
Mof_Cu	Cu	0.78574	0.21426	-0	0.876
Mof_Cu	Cu	0.78574	0.71426	0.5	0.906
Mof_Cu	Cu	0.28574	0.21426	0.5	0.902
Mof_Cu	Cu	0.28574	0.71426	-0	0.875
Mof_Cu	Cu	-4.65587e-33	0.21426	0.21426	0.872
Mof_Cu	Cu	2.67805e-33	0.71426	0.71426	0.875
Mof_Cu	Cu	0.5	0.21426	0.71426	0.902
Mof_Cu	Cu	0.5	0.71426	0.21426	0.902
Mof_Cu	Cu	-7.97238e-33	0.21426	0.78574	0.876
Mof_Cu	Cu	1.07135e-33	0.71426	0.28574	0.875
Mof_Cu	Cu	0.5	0.21426	0.28574	0.902
Mof_Cu	Cu	0.5	0.71426	0.78574	0.906
Mof_Cu	Cu	-7.97238e-33	0.78574	0.78574	0.879
Mof_Cu	Cu	-7.11747e-33	0.28574	0.28574	0.875
Mof_Cu	Cu	0.5	0.78574	0.28574	0.906
Mof_Cu	Cu	0.5	0.28574	0.78574	0.906
Mof_Cu	Cu	-1.01151e-32	0.78574	0.21426	0.876
Mof_Cu	Cu	2.67805e-33	0.28574	0.71426	0.875
Mof_Cu	Cu	0.5	0.78574	0.71426	0.906
Mof_Cu	Cu	0.5	0.28574	0.21426	0.902
Mof_C 	C 	0.20338	0.06947	0.29662	0.371
Mof_C 	C 	0.17822	0.11374	0.32178	-0.134
Mof_C 	C 	0.20338	0.56947	0.79662	0.366
Mof_C 	C 	0.17822	0.61374	0.82178	-0.113
Mof_C 	C 	0.79662	0.93053	0.29662	0.359
Mof_C 	C 	0.82178	0.88626	0.32178	-0.095
Mof_C 	C 	0.79662	0.43053	0.79662	0.364
Mof_C 	C 	0.82178	0.38626	0.82178	-0.1
Mof_C 	C 	0.29662	0.43053	0.29662	0.369
Mof_C 	C 	0.32178	0.38626	0.32178	-0.119
Mof_C 	C 	0.79662	0.06947	0.70338	0.366
Mof_C 	C 	0.82178	0.11374	0.67822	-0.117
Mof_C 	C 	0.79662	0.56947	0.20338	0.366
Mof_C 	C 	0.82178	0.61374	0.17822	-0.113
Mof_C 	C 	0.29662	0.06947	0.20338	0.371
Mof_C 	C 	0.32178	0.11374	0.17822	-0.134
Mof_C 	C 	0.20338	0.93053	0.70338	0.361
Mof_C 	C 	0.17822	0.88626	0.67822	-0.107
Mof_C 	C 	0.20338	0.43053	0.20338	0.37
Mof_C 	C 	0.17822	0.38626	0.17822	-0.129
Mof_C 	C 	0.29662	0.20338	0.06947	0.371
Mof_C 	C 	0.32178	0.17822	0.11374	-0.134
Mof_C 	C 	0.29662	0.70338	0.56947	0.367
Mof_C 	C 	0.32178	0.67822	0.61374	-0.115
Mof_C 	C 	0.29662	0.79662	0.93053	0.359
Mof_C 	C 	0.32178	0.82178	0.88626	-0.095
Mof_C 	C 	0.29662	0.29662	0.43053	0.369
Mof_C 	C 	0.32178	0.32178	0.38626	-0.119
Mof_C 	C 	0.70338	0.79662	0.06947	0.366
Mof_C 	C 	0.67822	0.82178	0.11374	-0.117
Mof_C 	C 	0.70338	0.29662	0.56947	0.367
Mof_C 	C 	0.67822	0.32178	0.61374	-0.115
Mof_C 	C 	0.20338	0.29662	0.06947	0.371
Mof_C 	C 	0.17822	0.32178	0.11374	-0.134
Mof_C 	C 	0.70338	0.20338	0.93053	0.361
Mof_C 	C 	0.67822	0.17822	0.88626	-0.107
Mof_C 	C 	0.70338	0.70338	0.43053	0.366
Mof_C 	C 	0.67822	0.67822	0.38626	-0.113
Mof_C 	C 	0.20338	0.20338	0.43053	0.37
Mof_C 	C 	0.17822	0.17822	0.38626	-0.129
Mof_C 	C 	0.06947	0.29662	0.20338	0.371
Mof_C 	C 	0.11374	0.32178	0.17822	-0.134
Mof_C 	C 	0.56947	0.29662	0.70338	0.367
Mof_C 	C 	0.61374	0.32178	0.67822	-0.115
Mof_C 	C 	0.93053	0.29662	0.79662	0.359
Mof_C 	C 	0.88626	0.32178	0.82178	-0.095
Mof_C 	C 	0.43053	0.29662	0.29662	0.369
Mof_C 	C 	0.38626	0.32178	0.32178	-0.119
Mof_C 	C 	0.06947	0.70338	0.79662	0.366
Mof_C 	C 	0.11374	0.67822	0.82178	-0.117
Mof_C 	C 	0.06947	0.20338	0.29662	0.371
Mof_C 	C 	0.11374	0.17822	0.32178	-0.134
Mof_C 	C 	0.56947	0.70338	0.29662	0.367
Mof_C 	C 	0.61374	0.67822	0.32178	-0.115
Mof_C 	C 	0.93053	0.70338	0.20338	0.361
Mof_C 	C 	0.88626	0.67822	0.17822	-0.107
Mof_C 	C 	0.43053	0.70338	0.70338	0.366
Mof_C 	C 	0.38626	0.67822	0.67822	-0.113
Mof_C 	C 	0.43053	0.20338	0.20338	0.37
Mof_C 	C 	0.38626	0.17822	0.17822	-0.129
Mof_C 	C 	0.06947	0.20338	0.70338	0.369
Mof_C 	C 	0.11374	0.17822	0.67822	-0.131
Mof_C 	C 	0.56947	0.20338	0.20338	0.369
Mof_C 	C 	0.61374	0.17822	0.17822	-0.128
Mof_C 	C 	0.93053	0.79662	0.70338	0.358
Mof_C 	C 	0.88626	0.82178	0.67822	-0.092
Mof_C 	C 	0.93053	0.29662	0.20338	0.362
Mof_C 	C 	0.88626	0.32178	0.17822	-0.109
Mof_C 	C 	0.43053	0.79662	0.20338	0.367
Mof_C 	C 	0.38626	0.82178	0.17822	-0.115
Mof_C 	C 	0.06947	0.79662	0.29662	0.368
Mof_C 	C 	0.11374	0.82178	0.32178	-0.119
Mof_C 	C 	0.56947	0.79662	0.79662	0.363
Mof_C 	C 	0.61374	0.82178	0.82178	-0.099
Mof_C 	C 	0.56947	0.29662	0.29662	0.368
Mof_C 	C 	0.61374	0.32178	0.32178	-0.117
Mof_C 	C 	0.93053	0.20338	0.29662	0.362
Mof_C 	C 	0.88626	0.17822	0.32178	-0.109
Mof_C 	C 	0.43053	0.20338	0.79662	0.367
Mof_C 	C 	0.38626	0.17822	0.82178	-0.115
Mof_C 	C 	0.20338	0.29662	0.93053	0.362
Mof_C 	C 	0.17822	0.32178	0.88626	-0.109
Mof_C 	C 	0.20338	0.79662	0.43053	0.367
Mof_C 	C 	0.17822	0.82178	0.38626	-0.115
Mof_C 	C 	0.79662	0.29662	0.06947	0.368
Mof_C 	C 	0.82178	0.32178	0.11374	-0.119
Mof_C 	C 	0.79662	0.79662	0.56947	0.363
Mof_C 	C 	0.82178	0.82178	0.61374	-0.099
Mof_C 	C 	0.29662	0.29662	0.56947	0.368
Mof_C 	C 	0.32178	0.32178	0.61374	-0.117
Mof_C 	C 	0.79662	0.70338	0.93053	0.358
Mof_C 	C 	0.82178	0.67822	0.88626	-0.092
Mof_C 	C 	0.79662	0.20338	0.43053	0.367
Mof_C 	C 	0.82178	0.17822	0.38626	-0.115
Mof_C 	C 	0.29662	0.20338	0.93053	0.362
Mof_C 	C 	0.32178	0.17822	0.88626	-0.109
Mof_C 	C 	0.20338	0.70338	0.06947	0.369
Mof_C 	C 	0.17822	0.67822	0.11374	-0.131
Mof_C 	C 	0.20338	0.20338	0.56947	0.369
Mof_C 	C 	0.17822	0.17822	0.61374	-0.128
Mof_C 	C 	0.29662	0.06947	0.79662	0.368
Mof_C 	C 	0.32178	0.11374	0.82178	-0.119
Mof_C 	C 	0.29662	0.56947	0.29662	0.368
Mof_C 	C 	0.32178	0.61374	0.32178	-0.117
Mof_C 	C 	0.29662	0.93053	0.20338	0.362
Mof_C 	C 	0.32178	0.88626	0.17822	-0.109
Mof_C 	C 	0.29662	0.43053	0.70338	0.367
Mof_C 	C 	0.32178	0.38626	0.67822	-0.116
Mof_C 	C 	0.70338	0.06947	0.20338	0.369
Mof_C 	C 	0.67822	0.11374	0.17822	-0.131
Mof_C 	C 	0.70338	0.56947	0.70338	0.365
Mof_C 	C 	0.67822	0.61374	0.67822	-0.112
Mof_C 	C 	0.20338	0.56947	0.20338	0.369
Mof_C 	C 	0.17822	0.61374	0.17822	-0.128
Mof_C 	C 	0.70338	0.93053	0.79662	0.358
Mof_C 	C 	0.67822	0.88626	0.82178	-0.092
Mof_C 	C 	0.70338	0.43053	0.29662	0.367
Mof_C 	C 	0.67822	0.38626	0.32178	-0.116
Mof_C 	C 	0.20338	0.93053	0.29662	0.362
Mof_C 	C 	0.17822	0.88626	0.32178	-0.109
Mof_C 	C 	0.79662	0.93053	0.70338	0.358
Mof_C 	C 	0.82178	0.88626	0.67822	-0.092
Mof_C 	C 	0.79662	0.43053	0.20338	0.367
Mof_C 	C 	0.82178	0.38626	0.17822	-0.115
Mof_C 	C 	0.20338	0.06947	0.70338	0.369
Mof_C 	C 	0.17822	0.11374	0.67822	-0.131
Mof_C 	C 	0.20338	0.43053	0.79662	0.367
Mof_C 	C 	0.17822	0.38626	0.82178	-0.115
Mof_C 	C 	0.79662	0.06947	0.29662	0.368
Mof_C 	C 	0.82178	0.11374	0.32178	-0.119
Mof_C 	C 	0.79662	0.56947	0.79662	0.363
Mof_C 	C 	0.82178	0.61374	0.82178	-0.099
Mof_C 	C 	0.70338	0.79662	0.93053	0.358
Mof_C 	C 	0.67822	0.82178	0.88626	-0.092
Mof_C 	C 	0.70338	0.29662	0.43053	0.367
Mof_C 	C 	0.67822	0.32178	0.38626	-0.116
Mof_C 	C 	0.70338	0.20338	0.06947	0.369
Mof_C 	C 	0.67822	0.17822	0.11374	-0.131
Mof_C 	C 	0.70338	0.70338	0.56947	0.365
Mof_C 	C 	0.67822	0.67822	0.61374	-0.112
Mof_C 	C 	0.29662	0.70338	0.43053	0.367
Mof_C 	C 	0.32178	0.67822	0.38626	-0.116
Mof_C 	C 	0.29662	0.79662	0.06947	0.368
Mof_C 	C 	0.32178	0.82178	0.11374	-0.119
Mof_C 	C 	0.93053	0.70338	0.79662	0.358
Mof_C 	C 	0.88626	0.67822	0.82178	-0.092
Mof_C 	C 	0.43053	0.70338	0.29662	0.367
Mof_C 	C 	0.38626	0.67822	0.32178	-0.116
Mof_C 	C 	0.06947	0.70338	0.20338	0.369
Mof_C 	C 	0.11374	0.67822	0.17822	-0.131
Mof_C 	C 	0.56947	0.70338	0.70338	0.365
Mof_C 	C 	0.61374	0.67822	0.67822	-0.112
Mof_C 	C 	0.43053	0.29662	0.70338	0.367
Mof_C 	C 	0.38626	0.32178	0.67822	-0.116
Mof_C 	C 	0.06947	0.29662	0.79662	0.368
Mof_C 	C 	0.11374	0.32178	0.82178	-0.119
Mof_C 	C 	0.93053	0.79662	0.29662	0.359
Mof_C 	C 	0.88626	0.82178	0.32178	-0.095
Mof_C 	C 	0.43053	0.79662	0.79662	0.364
Mof_C 	C 	0.38626	0.82178	0.82178	-0.1
Mof_C 	C 	0.56947	0.20338	0.79662	0.366
Mof_C 	C 	0.61374	0.17822	0.82178	-0.113
Mof_C 	C 	0.93053	0.20338	0.70338	0.361
Mof_C 	C 	0.88626	0.17822	0.67822	-0.107
Mof_C 	C 	0.06947	0.79662	0.70338	0.366
Mof_C 	C 	0.11374	0.82178	0.67822	-0.117
Mof_C 	C 	0.56947	0.79662	0.20338	0.366
Mof_C 	C 	0.61374	0.82178	0.17822	-0.113
Mof_C 	C 	0.79662	0.70338	0.06947	0.366
Mof_C 	C 	0.82178	0.67822	0.11374	-0.117
Mof_C 	C 	0.79662	0.20338	0.56947	0.366
Mof_C 	C 	0.82178	0.17822	0.61374	-0.113
Mof_C 	C 	0.20338	0.70338	0.93053	0.361
Mof_C 	C 	0.17822	0.67822	0.88626	-0.107
Mof_C 	C 	0.20338	0.79662	0.56947	0.366
Mof_C 	C 	0.17822	0.82178	0.61374	-0.113
Mof_C 	C 	0.79662	0.29662	0.93053	0.359
Mof_C 	C 	0.82178	0.32178	0.88626	-0.095
Mof_C 	C 	0.79662	0.79662	0.43053	0.364
Mof_C 	C 	0.82178	0.82178	0.38626	-0.1
Mof_C 	C 	0.70338	0.93053	0.20338	0.361
Mof_C 	C 	0.67822	0.88626	0.17822	-0.107
Mof_C 	C 	0.70338	0.43053	0.70338	0.366
Mof_C 	C 	0.67822	0.38626	0.67822	-0.113
Mof_C 	C 	0.70338	0.06947	0.79662	0.366
Mof_C 	C 	0.67822	0.11374	0.82178	-0.117
Mof_C 	C 	0.70338	0.56947	0.29662	0.367
Mof_C 	C 	0.67822	0.61374	0.32178	-0.115
Mof_C 	C 	0.29662	0.93053	0.79662	0.359
Mof_C 	C 	0.32178	0.88626	0.82178	-0.095
Mof_C 	C 	0.29662	0.56947	0.70338	0.367
Mof_C 	C 	0.32178	0.61374	0.67822	-0.115
Mof_C 	C 	0.19939	0.13517	0.36483	0.068
Mof_H 	H 	0.2279	0.1206	0.3794	0.033
Mof_C 	C 	0.69939	0.13517	0.86483	0.057
Mof_H 	H 	0.7279	0.1206	0.8794	0.046
Mof_C 	C 	0.80061	0.86483	0.36483	0.051
Mof_H 	H 	0.7721	0.8794	0.3794	0.054
Mof_C 	C 	0.30061	0.86483	0.86483	0.049
Mof_H 	H 	0.2721	0.8794	0.8794	0.058
Mof_C 	C 	0.30061	0.36483	0.36483	0.063
Mof_H 	H 	0.2721	0.3794	0.3794	0.04
Mof_C 	C 	0.80061	0.13517	0.63517	0.059
Mof_H 	H 	0.7721	0.1206	0.6206	0.039
Mof_C 	C 	0.30061	0.13517	0.13517	0.07
Mof_H 	H 	0.2721	0.1206	0.1206	0.027
Mof_C 	C 	0.19939	0.86483	0.63517	0.056
Mof_H 	H 	0.2279	0.8794	0.6206	0.049
Mof_C 	C 	0.19939	0.36483	0.13517	0.068
Mof_H 	H 	0.2279	0.3794	0.1206	0.033
Mof_C 	C 	0.69939	0.86483	0.13517	0.057
Mof_H 	H 	0.7279	0.8794	0.1206	0.046
Mof_C 	C 	0.36483	0.19939	0.13517	0.068
Mof_H 	H 	0.3794	0.2279	0.1206	0.033
Mof_C 	C 	0.36483	0.69939	0.63517	0.059
Mof_H 	H 	0.3794	0.7279	0.6206	0.045
Mof_C 	C 	0.36483	0.80061	0.86483	0.051
Mof_H 	H 	0.3794	0.7721	0.8794	0.054
Mof_C 	C 	0.36483	0.30061	0.36483	0.063
Mof_H 	H 	0.3794	0.2721	0.3794	0.04
Mof_C 	C 	0.63517	0.80061	0.13517	0.059
Mof_H 	H 	0.6206	0.7721	0.1206	0.039
Mof_C 	C 	0.63517	0.30061	0.63517	0.06
Mof_H 	H 	0.6206	0.2721	0.6206	0.042
Mof_C 	C 	0.13517	0.30061	0.13517	0.07
Mof_H 	H 	0.1206	0.2721	0.1206	0.027
Mof_C 	C 	0.63517	0.19939	0.86483	0.056
Mof_H 	H 	0.6206	0.2279	0.8794	0.049
Mof_C 	C 	0.63517	0.69939	0.36483	0.059
Mof_H 	H 	0.6206	0.7279	0.3794	0.045
Mof_C 	C 	0.13517	0.19939	0.36483	0.068
Mof_H 	H 	0.1206	0.2279	0.3794	0.033
Mof_C 	C 	0.13517	0.36483	0.19939	0.068
Mof_H 	H 	0.1206	0.3794	0.2279	0.033
Mof_C 	C 	0.13517	0.86483	0.69939	0.057
Mof_H 	H 	0.1206	0.8794	0.7279	0.046
Mof_C 	C 	0.86483	0.36483	0.80061	0.051
Mof_H 	H 	0.8794	0.3794	0.7721	0.054
Mof_C 	C 	0.86483	0.86483	0.30061	0.049
Mof_H 	H 	0.8794	0.8794	0.2721	0.058
Mof_C 	C 	0.36483	0.36483	0.30061	0.063
Mof_H 	H 	0.3794	0.3794	0.2721	0.04
Mof_C 	C 	0.13517	0.63517	0.80061	0.059
Mof_H 	H 	0.1206	0.6206	0.7721	0.039
Mof_C 	C 	0.13517	0.13517	0.30061	0.07
Mof_H 	H 	0.1206	0.1206	0.2721	0.027
Mof_C 	C 	0.86483	0.63517	0.19939	0.056
Mof_H 	H 	0.8794	0.6206	0.2279	0.049
Mof_C 	C 	0.86483	0.13517	0.69939	0.057
Mof_H 	H 	0.8794	0.1206	0.7279	0.046
Mof_C 	C 	0.36483	0.13517	0.19939	0.068
Mof_H 	H 	0.3794	0.1206	0.2279	0.033
Mof_C 	C 	0.13517	0.19939	0.63517	0.067
Mof_H 	H 	0.1206	0.2279	0.6206	0.034
Mof_C 	C 	0.13517	0.69939	0.13517	0.067
Mof_H 	H 	0.1206	0.7279	0.1206	0.031
Mof_C 	C 	0.86483	0.80061	0.63517	0.049
Mof_H 	H 	0.8794	0.7721	0.6206	0.054
Mof_C 	C 	0.86483	0.30061	0.13517	0.059
Mof_H 	H 	0.8794	0.2721	0.1206	0.042
Mof_C 	C 	0.36483	0.80061	0.13517	0.061
Mof_H 	H 	0.3794	0.7721	0.1206	0.038
Mof_C 	C 	0.13517	0.80061	0.36483	0.061
Mof_H 	H 	0.1206	0.7721	0.3794	0.038
Mof_C 	C 	0.13517	0.30061	0.86483	0.059
Mof_H 	H 	0.1206	0.2721	0.8794	0.042
Mof_C 	C 	0.86483	0.19939	0.36483	0.058
Mof_H 	H 	0.8794	0.2279	0.3794	0.049
Mof_C 	C 	0.86483	0.69939	0.86483	0.047
Mof_H 	H 	0.8794	0.7279	0.8794	0.062
Mof_C 	C 	0.36483	0.69939	0.36483	0.061
Mof_H 	H 	0.3794	0.7279	0.3794	0.044
Mof_C 	C 	0.19939	0.36483	0.86483	0.058
Mof_H 	H 	0.2279	0.3794	0.8794	0.049
Mof_C 	C 	0.69939	0.36483	0.36483	0.061
Mof_H 	H 	0.7279	0.3794	0.3794	0.044
Mof_C 	C 	0.80061	0.36483	0.13517	0.061
Mof_H 	H 	0.7721	0.3794	0.1206	0.038
Mof_C 	C 	0.30061	0.36483	0.63517	0.061
Mof_H 	H 	0.2721	0.3794	0.6206	0.041
Mof_C 	C 	0.80061	0.63517	0.86483	0.049
Mof_H 	H 	0.7721	0.6206	0.8794	0.054
Mof_C 	C 	0.80061	0.13517	0.36483	0.061
Mof_H 	H 	0.7721	0.1206	0.3794	0.038
Mof_C 	C 	0.30061	0.63517	0.36483	0.061
Mof_H 	H 	0.2721	0.6206	0.3794	0.041
Mof_C 	C 	0.19939	0.63517	0.13517	0.067
Mof_H 	H 	0.2279	0.6206	0.1206	0.034
Mof_C 	C 	0.69939	0.63517	0.63517	0.057
Mof_H 	H 	0.7279	0.6206	0.6206	0.046
Mof_C 	C 	0.69939	0.13517	0.13517	0.067
Mof_H 	H 	0.7279	0.1206	0.1206	0.031
Mof_C 	C 	0.36483	0.13517	0.80061	0.061
Mof_H 	H 	0.3794	0.1206	0.7721	0.038
Mof_C 	C 	0.36483	0.63517	0.30061	0.061
Mof_H 	H 	0.3794	0.6206	0.2721	0.041
Mof_C 	C 	0.36483	0.86483	0.19939	0.058
Mof_H 	H 	0.3794	0.8794	0.2279	0.049
Mof_C 	C 	0.36483	0.36483	0.69939	0.061
Mof_H 	H 	0.3794	0.3794	0.7279	0.044
Mof_C 	C 	0.63517	0.13517	0.19939	0.067
Mof_H 	H 	0.6206	0.1206	0.2279	0.034
Mof_C 	C 	0.63517	0.63517	0.69939	0.057
Mof_H 	H 	0.6206	0.6206	0.7279	0.046
Mof_C 	C 	0.13517	0.13517	0.69939	0.067
Mof_H 	H 	0.1206	0.1206	0.7279	0.031
Mof_C 	C 	0.63517	0.86483	0.80061	0.049
Mof_H 	H 	0.6206	0.8794	0.7721	0.054
Mof_C 	C 	0.63517	0.36483	0.30061	0.061
Mof_H 	H 	0.6206	0.3794	0.2721	0.041
Mof_C 	C 	0.13517	0.36483	0.80061	0.061
Mof_H 	H 	0.1206	0.3794	0.7721	0.038
Mof_C 	C 	0.80061	0.86483	0.63517	0.049
Mof_H 	H 	0.7721	0.8794	0.6206	0.054
Mof_C 	C 	0.30061	0.86483	0.13517	0.059
Mof_H 	H 	0.2721	0.8794	0.1206	0.042
Mof_C 	C 	0.19939	0.13517	0.63517	0.067
Mof_H 	H 	0.2279	0.1206	0.6206	0.034
Mof_C 	C 	0.19939	0.86483	0.36483	0.058
Mof_H 	H 	0.2279	0.8794	0.3794	0.049
Mof_C 	C 	0.69939	0.86483	0.86483	0.047
Mof_H 	H 	0.7279	0.8794	0.8794	0.062
Mof_C 	C 	0.30061	0.13517	0.86483	0.059
Mof_H 	H 	0.2721	0.1206	0.8794	0.042
Mof_C 	C 	0.63517	0.80061	0.86483	0.049
Mof_H 	H 	0.6206	0.7721	0.8794	0.054
Mof_C 	C 	0.63517	0.30061	0.36483	0.061
Mof_H 	H 	0.6206	0.2721	0.3794	0.041
Mof_C 	C 	0.63517	0.19939	0.13517	0.067
Mof_H 	H 	0.6206	0.2279	0.1206	0.034
Mof_C 	C 	0.63517	0.69939	0.63517	0.057
Mof_H 	H 	0.6206	0.7279	0.6206	0.046
Mof_C 	C 	0.36483	0.19939	0.86483	0.058
Mof_H 	H 	0.3794	0.2279	0.8794	0.049
Mof_C 	C 	0.36483	0.30061	0.63517	0.061
Mof_H 	H 	0.3794	0.2721	0.6206	0.041
Mof_C 	C 	0.86483	0.63517	0.80061	0.049
Mof_H 	H 	0.8794	0.6206	0.7721	0.054
Mof_C 	C 	0.86483	0.13517	0.30061	0.059
Mof_H 	H 	0.8794	0.1206	0.2721	0.042
Mof_C 	C 	0.13517	0.63517	0.19939	0.067
Mof_H 	H 	0.1206	0.6206	0.2279	0.034
Mof_C 	C 	0.86483	0.36483	0.19939	0.058
Mof_H 	H 	0.8794	0.3794	0.2279	0.049
Mof_C 	C 	0.86483	0.86483	0.69939	0.047
Mof_H 	H 	0.8794	0.8794	0.7279	0.062
Mof_C 	C 	0.13517	0.86483	0.30061	0.059
Mof_H 	H 	0.1206	0.8794	0.2721	0.042
Mof_C 	C 	0.86483	0.80061	0.36483	0.051
Mof_H 	H 	0.8794	0.7721	0.3794	0.054
Mof_C 	C 	0.86483	0.30061	0.86483	0.049
Mof_H 	H 	0.8794	0.2721	0.8794	0.058
Mof_C 	C 	0.13517	0.69939	0.86483	0.057
Mof_H 	H 	0.1206	0.7279	0.8794	0.046
Mof_C 	C 	0.86483	0.19939	0.63517	0.056
Mof_H 	H 	0.8794	0.2279	0.6206	0.049
Mof_C 	C 	0.86483	0.69939	0.13517	0.057
Mof_H 	H 	0.8794	0.7279	0.1206	0.046
Mof_C 	C 	0.13517	0.80061	0.63517	0.059
Mof_H 	H 	0.1206	0.7721	0.6206	0.039
Mof_C 	C 	0.80061	0.63517	0.13517	0.059
Mof_H 	H 	0.7721	0.6206	0.1206	0.039
Mof_C 	C 	0.30061	0.63517	0.63517	0.06
Mof_H 	H 	0.2721	0.6206	0.6206	0.042
Mof_C 	C 	0.19939	0.63517	0.86483	0.056
Mof_H 	H 	0.2279	0.6206	0.8794	0.049
Mof_C 	C 	0.69939	0.63517	0.36483	0.059
Mof_H 	H 	0.7279	0.6206	0.3794	0.045
Mof_C 	C 	0.69939	0.36483	0.63517	0.059
Mof_H 	H 	0.7279	0.3794	0.6206	0.045
Mof_C 	C 	0.80061	0.36483	0.86483	0.051
Mof_H 	H 	0.7721	0.3794	0.8794	0.054
Mof_C 	C 	0.63517	0.86483	0.19939	0.056
Mof_H 	H 	0.6206	0.8794	0.2279	0.049
Mof_C 	C 	0.63517	0.36483	0.69939	0.059
Mof_H 	H 	0.6206	0.3794	0.7279	0.045
Mof_C 	C 	0.63517	0.13517	0.80061	0.059
Mof_H 	H 	0.6206	0.1206	0.7721	0.039
Mof_C 	C 	0.63517	0.63517	0.30061	0.06
Mof_H 	H 	0.6206	0.6206	0.2721	0.042
Mof_C 	C 	0.36483	0.86483	0.80061	0.051
Mof_H 	H 	0.3794	0.8794	0.7721	0.054
Mof_C 	C 	0.36483	0.63517	0.69939	0.059
Mof_H 	H 	0.3794	0.6206	0.7279	0.045
_end
