data_functionalizedCrystal
_audit_creation_method	'EQeq! by Chris Wilmer'
_symmetry_space_group_name_H-M	'P1'
_symmetry_Int_Tables_number	1
_symmetry_cell_setting	triclinic
loop_
_symmetry_equiv_pos_as_xyz
  x,y,z
_cell_length_a	13.377
_cell_length_b	13.377
_cell_length_c	14.462
_cell_angle_alpha	90
_cell_angle_beta	90
_cell_angle_gamma	120
loop_
_atom_site_label
_atom_site_type_symbol
_atom_site_fract_x
_atom_site_fract_y
_atom_site_fract_z
_atom_site_charge
Mof_Sm	Sm	0.66667	0.33334	0.33243	2.621
Mof_Sm	Sm	0.33333	0.66666	0.16757	2.622
Mof_Sm	Sm	0.33333	0.66666	0.66757	2.629
Mof_Sm	Sm	0.66667	0.33334	0.83243	2.63
Mof_Cu	Cu	0.5	0	0.5	0.899
Mof_Cu	Cu	0.5	0.5	0.5	0.928
Mof_Cu	Cu	-1.54725e-17	0.5	0.5	0.898
Mof_Cu	Cu	0.5	0	-0	0.872
Mof_Cu	Cu	-0	0.5	-0	0.871
Mof_Cu	Cu	0.5	0.5	-0	0.901
Mof_H 	H 	0.9608	0.2545	0.95	0.098
Mof_H 	H 	0.8624	0.1809	0.0211	0.024
Mof_H 	H 	0.8065	0.2672	0.1283	0.146
Mof_H 	H 	0.9143	0.3136	0.1935	0.161
Mof_H 	H 	0.0238	0.3498	0.0787	0.029
Mof_H 	H 	0.2937	0.0392	0.95	0.037
Mof_H 	H 	0.3185	0.1376	0.0211	-0.001
Mof_H 	H 	0.4607	0.1935	0.1283	0.14
Mof_H 	H 	0.3993	0.0857	0.1935	0.118
Mof_H 	H 	0.326	0.9762	0.0787	0.151
Mof_H 	H 	0.7455	0.7063	0.95	0.089
Mof_H 	H 	0.8191	0.6815	0.0211	0.044
Mof_H 	H 	0.7328	0.5393	0.1283	0.152
Mof_H 	H 	0.6864	0.6007	0.1935	0.15
Mof_H 	H 	0.6502	0.674	0.0787	0.097
Mof_H 	H 	0.7063	0.7455	0.55	0.136
Mof_H 	H 	0.6815	0.8191	0.4789	0.144
Mof_H 	H 	0.5393	0.7328	0.3717	0.164
Mof_H 	H 	0.6007	0.6864	0.3065	0.154
Mof_H 	H 	0.674	0.6502	0.4213	0.097
Mof_H 	H 	0.2545	0.9608	0.55	0.144
Mof_H 	H 	0.1809	0.8624	0.4789	0.124
Mof_H 	H 	0.2672	0.8065	0.3717	0.158
Mof_H 	H 	0.3136	0.9143	0.3065	0.163
Mof_H 	H 	0.3498	0.0238	0.4213	0.034
Mof_H 	H 	0.0392	0.2937	0.55	0.085
Mof_H 	H 	0.1376	0.3185	0.4789	0.104
Mof_H 	H 	0.1935	0.4607	0.3717	0.153
Mof_H 	H 	0.0857	0.3993	0.3065	0.121
Mof_H 	H 	0.9762	0.326	0.4213	0.154
Mof_H 	H 	0.0392	0.7455	0.05	0.145
Mof_H 	H 	0.1376	0.8191	0.9789	0.225
Mof_H 	H 	0.1935	0.7328	0.8717	0.171
Mof_H 	H 	0.0857	0.6864	0.8065	0.131
Mof_H 	H 	0.9762	0.6502	0.9213	0.158
Mof_H 	H 	0.7063	0.9608	0.05	0.204
Mof_H 	H 	0.6815	0.8624	0.9789	0.242
Mof_H 	H 	0.5393	0.8065	0.8717	0.175
Mof_H 	H 	0.6007	0.9143	0.8065	0.172
Mof_H 	H 	0.674	0.0238	0.9213	0.042
Mof_H 	H 	0.2545	0.2937	0.05	0.157
Mof_H 	H 	0.1809	0.3185	0.9789	0.212
Mof_H 	H 	0.2672	0.4607	0.8717	0.166
Mof_H 	H 	0.3136	0.3993	0.8065	0.143
Mof_H 	H 	0.3498	0.326	0.9213	0.092
Mof_H 	H 	0.2937	0.2545	0.45	0.108
Mof_H 	H 	0.3185	0.1809	0.5211	0.107
Mof_H 	H 	0.4607	0.2672	0.6283	0.154
Mof_H 	H 	0.3993	0.3136	0.6935	0.141
Mof_H 	H 	0.326	0.3498	0.5787	0.09
Mof_H 	H 	0.7455	0.0392	0.45	0.1
Mof_H 	H 	0.8191	0.1376	0.5211	0.125
Mof_H 	H 	0.7328	0.1935	0.6283	0.159
Mof_H 	H 	0.6864	0.0857	0.6935	0.13
Mof_H 	H 	0.6502	0.9762	0.5787	0.154
Mof_H 	H 	0.9608	0.7063	0.45	0.159
Mof_H 	H 	0.8624	0.6815	0.5211	0.144
Mof_H 	H 	0.8065	0.5393	0.6283	0.164
Mof_H 	H 	0.9143	0.6007	0.6935	0.172
Mof_H 	H 	0.0238	0.674	0.5787	0.035
Mof_C 	C 	0.7301	0.1838	0.4314	0.397
Mof_C 	C 	0.7456	0.0979	0.4899	-0.289
Mof_C 	C 	0.8757	0.4378	0.1599	0.522
Mof_C 	C 	0.8832	0.332	0.1398	-0.393
Mof_C 	C 	0.4537	0.2699	0.4314	0.399
Mof_C 	C 	0.3523	0.2544	0.4899	-0.289
Mof_C 	C 	0.5621	0.1243	0.1599	0.507
Mof_C 	C 	0.4488	0.1168	0.1398	-0.376
Mof_C 	C 	0.8162	0.5463	0.4314	0.418
Mof_C 	C 	0.9021	0.6477	0.4899	-0.323
Mof_C 	C 	0.5622	0.4379	0.1599	0.518
Mof_C 	C 	0.668	0.5512	0.1398	-0.394
Mof_C 	C 	0.5463	0.8162	0.0686	0.464
Mof_C 	C 	0.6477	0.9021	0.0101	-0.516
Mof_C 	C 	0.4379	0.5622	0.3401	0.525
Mof_C 	C 	0.5512	0.668	0.3602	-0.403
Mof_C 	C 	0.1838	0.7301	0.0686	0.444
Mof_C 	C 	0.0979	0.7456	0.0101	-0.489
Mof_C 	C 	0.4378	0.8757	0.3401	0.529
Mof_C 	C 	0.332	0.8832	0.3602	-0.402
Mof_C 	C 	0.2699	0.4537	0.0686	0.45
Mof_C 	C 	0.2544	0.3523	0.0101	-0.496
Mof_C 	C 	0.1243	0.5621	0.3401	0.514
Mof_C 	C 	0.1168	0.4488	0.3602	-0.385
Mof_C 	C 	0.2699	0.8162	0.5686	0.413
Mof_C 	C 	0.2544	0.9021	0.5101	-0.31
Mof_C 	C 	0.1243	0.5622	0.8401	0.522
Mof_C 	C 	0.1168	0.668	0.8602	-0.396
Mof_C 	C 	0.5463	0.7301	0.5686	0.41
Mof_C 	C 	0.6477	0.7456	0.5101	-0.313
Mof_C 	C 	0.4379	0.8757	0.8401	0.536
Mof_C 	C 	0.5512	0.8832	0.8602	-0.412
Mof_C 	C 	0.1838	0.4537	0.5686	0.391
Mof_C 	C 	0.0979	0.3523	0.5101	-0.276
Mof_C 	C 	0.4378	0.5621	0.8401	0.528
Mof_C 	C 	0.332	0.4488	0.8602	-0.401
Mof_C 	C 	0.4537	0.1838	0.9314	0.341
Mof_C 	C 	0.3523	0.0979	0.9899	-0.065
Mof_C 	C 	0.5621	0.4378	0.6599	0.522
Mof_C 	C 	0.4488	0.332	0.6398	-0.395
Mof_C 	C 	0.8162	0.2699	0.9314	0.366
Mof_C 	C 	0.9021	0.2544	0.9899	-0.109
Mof_C 	C 	0.5622	0.1243	0.6599	0.517
Mof_C 	C 	0.668	0.1168	0.6398	-0.392
Mof_C 	C 	0.7301	0.5463	0.9314	0.363
Mof_C 	C 	0.7456	0.6477	0.9899	-0.113
Mof_C 	C 	0.8757	0.4379	0.6599	0.531
Mof_C 	C 	0.8832	0.5512	0.6398	-0.408
Mof_N 	N 	0.6526	0.0419	0.5587	-0.205
Mof_N 	N 	0.3893	0.3474	0.5587	-0.156
Mof_N 	N 	0.9581	0.6107	0.5587	-0.09
Mof_N 	N 	0.6107	0.9581	0.9413	-0.043
Mof_N 	N 	0.0419	0.6526	0.9413	-0.152
Mof_N 	N 	0.3474	0.3893	0.9413	-0.1
Mof_N 	N 	0.3474	0.9581	0.4413	-0.096
Mof_N 	N 	0.6107	0.6526	0.4413	-0.151
Mof_N 	N 	0.0419	0.3893	0.4413	-0.211
Mof_N 	N 	0.3893	0.0419	0.0587	-0.26
Mof_N 	N 	0.9581	0.3474	0.0587	-0.141
Mof_N 	N 	0.6526	0.6107	0.0587	-0.199
Mof_O 	O 	0.6391	0.1879	0.4417	-0.583
Mof_O 	O 	0.7545	0.5595	0.373	-0.431
Mof_O 	O 	0.5977	0.0737	0.1077	-0.475
Mof_O 	O 	0.8171	0.4358	0.2284	-0.59
Mof_O 	O 	0.5488	0.3609	0.4417	-0.58
Mof_O 	O 	0.805	0.2455	0.373	-0.429
Mof_O 	O 	0.476	0.4023	0.1077	-0.458
Mof_O 	O 	0.6187	0.1829	0.2284	-0.604
Mof_O 	O 	0.8121	0.4512	0.4417	-0.572
Mof_O 	O 	0.4405	0.195	0.373	-0.442
Mof_O 	O 	0.9263	0.524	0.1077	-0.42
Mof_O 	O 	0.5642	0.3813	0.2284	-0.6
Mof_O 	O 	0.4512	0.8121	0.0583	-0.6
Mof_O 	O 	0.195	0.4405	0.127	-0.464
Mof_O 	O 	0.524	0.9263	0.3923	-0.414
Mof_O 	O 	0.3813	0.5642	0.2716	-0.599
Mof_O 	O 	0.1879	0.6391	0.0583	-0.611
Mof_O 	O 	0.5595	0.7545	0.127	-0.451
Mof_O 	O 	0.0737	0.5977	0.3923	-0.467
Mof_O 	O 	0.4358	0.8171	0.2716	-0.589
Mof_O 	O 	0.3609	0.5488	0.0583	-0.608
Mof_O 	O 	0.2455	0.805	0.127	-0.45
Mof_O 	O 	0.4023	0.476	0.3923	-0.449
Mof_O 	O 	0.1829	0.6187	0.2716	-0.603
Mof_O 	O 	0.3609	0.8121	0.5583	-0.573
Mof_O 	O 	0.2455	0.4405	0.627	-0.437
Mof_O 	O 	0.4023	0.9263	0.8923	-0.399
Mof_O 	O 	0.1829	0.5642	0.7716	-0.606
Mof_O 	O 	0.4512	0.6391	0.5583	-0.582
Mof_O 	O 	0.195	0.7545	0.627	-0.439
Mof_O 	O 	0.524	0.5977	0.8923	-0.426
Mof_O 	O 	0.3813	0.8171	0.7716	-0.592
Mof_O 	O 	0.1879	0.5488	0.5583	-0.583
Mof_O 	O 	0.5595	0.805	0.627	-0.426
Mof_O 	O 	0.0737	0.476	0.8923	-0.45
Mof_O 	O 	0.4358	0.6187	0.7716	-0.597
Mof_O 	O 	0.5488	0.1879	0.9417	-0.548
Mof_O 	O 	0.805	0.5595	0.873	-0.404
Mof_O 	O 	0.476	0.0737	0.6077	-0.468
Mof_O 	O 	0.6187	0.4358	0.7284	-0.598
Mof_O 	O 	0.8121	0.3609	0.9417	-0.54
Mof_O 	O 	0.4405	0.2455	0.873	-0.415
Mof_O 	O 	0.9263	0.4023	0.6077	-0.414
Mof_O 	O 	0.5642	0.1829	0.7284	-0.607
Mof_O 	O 	0.6391	0.4512	0.9417	-0.549
Mof_O 	O 	0.7545	0.195	0.873	-0.417
Mof_O 	O 	0.5977	0.524	0.6077	-0.444
Mof_O 	O 	0.8171	0.3813	0.7284	-0.593
_end
