# CIF file generated by openbabel 3.1.0, see https://openbabel.org
data_I
_chemical_name_common 'image0'
_cell_length_a 23.215
_cell_length_b 17.112
_cell_length_c 10.343
_cell_angle_alpha 90
_cell_angle_beta 94.529
_cell_angle_gamma 90
_space_group_name_H-M_alt 'P 1'
_space_group_name_Hall 'P 1'
loop_
    _symmetry_equiv_pos_as_xyz
    x,y,z
loop_
    _atom_site_label
    _atom_site_type_symbol
    _atom_site_fract_x
    _atom_site_fract_y
    _atom_site_fract_z
    _atom_site_occupancy
    Zn1      Zn       0.56617    0.33345    0.22032    1.000
    Zn2      Zn       0.95466    0.32323    0.13582    1.000
    Zn3      Zn       0.52405    0.66789    0.11824    1.000
    Zn4      Zn       0.95281    0.66860    0.15446    1.000
    P1       P        0.60042    0.26788    0.96952    1.000
    P2       P        0.92052    0.25443    0.87482    1.000
    P3       P        0.91127    0.50172    0.02700    1.000
    P4       P        0.59382    0.50852    0.11488    1.000
    P5       P        0.56229    0.78680    0.34694    1.000
    P6       P        0.91447    0.77466    0.37084    1.000
    O1       O        0.59882    0.25484    0.11540    1.000
    O2       O        0.58256    0.19205    0.90110    1.000
    O3       O        0.56057    0.33599    0.92350    1.000
    O4       O        0.92809    0.23940    0.02090    1.000
    O5       O        0.96618    0.30960    0.82910    1.000
    O6       O        0.92206    0.17580    0.80300    1.000
    O7       O        0.92302    0.41820    0.05920    1.000
    O8       O        0.94430    0.55680    0.12410    1.000
    O9       O        0.92670    0.51820    0.88420    1.000
    H1       H        0.91690    0.50380    0.80690    1.000
    O10      O        0.59878    0.43768    0.20290    1.000
    O11      O        0.59783    0.48340    0.97110    1.000
    H2       H        0.58580    0.43730    0.96100    1.000
    O12      O        0.53932    0.55498    0.13110    1.000
    O13      O        0.54700    0.70568    0.29090    1.000
    O14      O        0.51665    0.84781    0.30020    1.000
    O15      O        0.56883    0.78214    0.49410    1.000
    O16      O        0.92583    0.69160    0.32360    1.000
    O17      O        0.96092    0.83310    0.33050    1.000
    O18      O        0.91002    0.77470    0.51560    1.000
    C1       C        0.67300    0.29080    0.93730    1.000
    H3       H        0.67490    0.29650    0.84250    1.000
    H4       H        0.68370    0.34170    0.97790    1.000
    C2       C        0.71680    0.22950    0.98740    1.000
    H5       H        0.71000    0.18090    0.93660    1.000
    H6       H        0.71050    0.21750    0.07890    1.000
    C3       C        0.77960    0.25480    0.97960    1.000
    H7       H        0.78520    0.30700    0.01990    1.000
    H8       H        0.80530    0.21750    0.02940    1.000
    C4       C        0.79640    0.25830    0.83980    1.000
    H9       H        0.76510    0.28430    0.78530    1.000
    H10      H        0.80030    0.20440    0.80700    1.000
    C5       C        0.85310    0.30220    0.82620    1.000
    H11      H        0.85160    0.35120    0.87670    1.000
    H12      H        0.85410    0.31720    0.73390    1.000
    C6       C        0.83520    0.52100    0.03070    1.000
    H13      H        0.82470    0.56900    0.98100    1.000
    H14      H        0.81250    0.47700    0.99060    1.000
    C7       C        0.82100    0.53130    0.17420    1.000
    H15      H        0.82120    0.47940    0.21660    1.000
    H16      H        0.85150    0.56340    0.22050    1.000
    C8       C        0.76170    0.57050    0.18620    1.000
    H17      H        0.75650    0.57910    0.27920    1.000
    H18      H        0.76180    0.62230    0.14370    1.000
    C9       C        0.71080    0.52390    0.12700    1.000
    H19      H        0.70990    0.47150    0.16770    1.000
    H20      H        0.71390    0.51700    0.03270    1.000
    C10      C        0.65490    0.57000    0.15130    1.000
    H21      H        0.65190    0.61710    0.09560    1.000
    H22      H        0.65620    0.58700    0.24300    1.000
    C11      C        0.62900    0.81970    0.28890    1.000
    H23      H        0.62590    0.81550    0.19320    1.000
    H24      H        0.63400    0.87570    0.31110    1.000
    C12      C        0.68360    0.77540    0.34210    1.000
    H25      H        0.68800    0.78070    0.43770    1.000
    H26      H        0.67910    0.71920    0.32120    1.000
    C13      C        0.73740    0.80620    0.28560    1.000
    H27      H        0.73900    0.86350    0.29760    1.000
    H28      H        0.73430    0.79560    0.19120    1.000
    C14      C        0.79330    0.77090    0.34520    1.000
    H29      H        0.79310    0.71400    0.32780    1.000
    H30      H        0.79540    0.77830    0.44040    1.000
    C15      C        0.84690    0.80750    0.29200    1.000
    H31      H        0.84460    0.86500    0.30090    1.000
    H32      H        0.84640    0.79540    0.19830    1.000
    H33      H        0.69780    0.17770    0.98900    1.000
    H34      H        0.73170    0.24270    0.07710    1.000
    C16      C        0.76740    0.22620    0.89900    1.000
    H35      H        0.79230    0.18060    0.92300    1.000
    H36      H        0.75210    0.22000    0.80760    1.000
    C17      C        0.80310    0.30100    0.91400    1.000
    H37      H        0.77770    0.34690    0.89320    1.000
    H38      H        0.81880    0.30670    0.00570    1.000
    H39      H        0.86200    0.35760    0.80900    1.000
    H40      H        0.83840    0.27900    0.74230    1.000
    H41      H        0.82880    0.57820    0.03300    1.000
    H42      H        0.81450    0.50050    0.95040    1.000
    C18      C        0.80980    0.48300    0.14990    1.000
    H43      H        0.82270    0.42790    0.15450    1.000
    H44      H        0.82720    0.50950    0.22860    1.000
    C19      C        0.74440    0.48380    0.15600    1.000
    H45      H        0.72740    0.44010    0.10310    1.000
    H46      H        0.73540    0.47490    0.24690    1.000
    C20      C        0.71620    0.55990    0.10800    1.000
    H47      H        0.71450    0.56120    0.01200    1.000
    H48      H        0.74040    0.60440    0.14100    1.000
    H49      H        0.64240    0.62280    0.12130    1.000
    H50      H        0.65960    0.57290    0.24720    1.000
    Zn5      Zn       0.43383    0.83345    0.27968    1.000
    Zn6      Zn       0.04534    0.82323    0.36418    1.000
    Zn7      Zn       0.47595    0.16789    0.38176    1.000
    Zn8      Zn       0.04719    0.16860    0.34554    1.000
    P7       P        0.39958    0.76788    0.53048    1.000
    P8       P        0.07948    0.75443    0.62518    1.000
    P9       P        0.08873    0.00172    0.47300    1.000
    P10      P        0.40618    0.00852    0.38512    1.000
    P11      P        0.43771    0.28680    0.15306    1.000
    P12      P        0.08553    0.27466    0.12916    1.000
    O19      O        0.40118    0.75484    0.38460    1.000
    O20      O        0.41744    0.69205    0.59890    1.000
    O21      O        0.43943    0.83599    0.57650    1.000
    O22      O        0.07191    0.73940    0.47910    1.000
    O23      O        0.03382    0.80960    0.67090    1.000
    O24      O        0.07794    0.67580    0.69700    1.000
    O25      O        0.07698    0.91820    0.44080    1.000
    O26      O        0.05570    0.05680    0.37590    1.000
    O27      O        0.07330    0.01820    0.61580    1.000
    H51      H        0.08310    0.00380    0.69310    1.000
    O28      O        0.40122    0.93768    0.29710    1.000
    O29      O        0.40217    0.98340    0.52890    1.000
    H52      H        0.41420    0.93730    0.53900    1.000
    O30      O        0.46068    0.05498    0.36890    1.000
    O31      O        0.45300    0.20568    0.20910    1.000
    O32      O        0.48335    0.34781    0.19980    1.000
    O33      O        0.43117    0.28214    0.00590    1.000
    O34      O        0.07417    0.19160    0.17640    1.000
    O35      O        0.03908    0.33310    0.16950    1.000
    O36      O        0.08998    0.27470    0.98440    1.000
    C21      C        0.32700    0.79080    0.56270    1.000
    H53      H        0.32510    0.79650    0.65750    1.000
    H54      H        0.31630    0.84170    0.52210    1.000
    C22      C        0.28320    0.72950    0.51260    1.000
    H55      H        0.29000    0.68090    0.56340    1.000
    H56      H        0.28950    0.71750    0.42110    1.000
    C23      C        0.22040    0.75480    0.52040    1.000
    H57      H        0.21480    0.80700    0.48010    1.000
    H58      H        0.19470    0.71750    0.47060    1.000
    C24      C        0.20360    0.75830    0.66020    1.000
    H59      H        0.23490    0.78430    0.71470    1.000
    H60      H        0.19970    0.70440    0.69300    1.000
    C25      C        0.14690    0.80220    0.67380    1.000
    H61      H        0.14840    0.85120    0.62330    1.000
    H62      H        0.14590    0.81720    0.76610    1.000
    C26      C        0.16480    0.02100    0.46930    1.000
    H63      H        0.17530    0.06900    0.51900    1.000
    H64      H        0.18750    0.97700    0.50940    1.000
    C27      C        0.17900    0.03130    0.32580    1.000
    H65      H        0.17880    0.97940    0.28340    1.000
    H66      H        0.14850    0.06340    0.27950    1.000
    C28      C        0.23830    0.07050    0.31380    1.000
    H67      H        0.24350    0.07910    0.22080    1.000
    H68      H        0.23820    0.12230    0.35630    1.000
    C29      C        0.28920    0.02390    0.37300    1.000
    H69      H        0.29010    0.97150    0.33230    1.000
    H70      H        0.28610    0.01700    0.46730    1.000
    C30      C        0.34510    0.07000    0.34870    1.000
    H71      H        0.34810    0.11710    0.40440    1.000
    H72      H        0.34380    0.08700    0.25700    1.000
    C31      C        0.37100    0.31970    0.21110    1.000
    H73      H        0.37410    0.31550    0.30680    1.000
    H74      H        0.36600    0.37570    0.18890    1.000
    C32      C        0.31640    0.27540    0.15790    1.000
    H75      H        0.31200    0.28070    0.06230    1.000
    H76      H        0.32090    0.21920    0.17880    1.000
    C33      C        0.26260    0.30620    0.21440    1.000
    H77      H        0.26100    0.36350    0.20240    1.000
    H78      H        0.26570    0.29560    0.30880    1.000
    C34      C        0.20670    0.27090    0.15480    1.000
    H79      H        0.20690    0.21400    0.17220    1.000
    H80      H        0.20460    0.27830    0.05960    1.000
    C35      C        0.15310    0.30750    0.20800    1.000
    H81      H        0.15540    0.36500    0.19910    1.000
    H82      H        0.15360    0.29540    0.30170    1.000
    H83      H        0.30220    0.67770    0.51100    1.000
    H84      H        0.26830    0.74270    0.42290    1.000
    C36      C        0.23260    0.72620    0.60100    1.000
    H85      H        0.20770    0.68060    0.57700    1.000
    H86      H        0.24790    0.72000    0.69240    1.000
    C37      C        0.19690    0.80100    0.58600    1.000
    H87      H        0.22230    0.84690    0.60680    1.000
    H88      H        0.18120    0.80670    0.49430    1.000
    H89      H        0.13800    0.85760    0.69100    1.000
    H90      H        0.16160    0.77900    0.75770    1.000
    H91      H        0.17120    0.07820    0.46700    1.000
    H92      H        0.18550    0.00050    0.54960    1.000
    C38      C        0.19020    0.98300    0.35010    1.000
    H93      H        0.17730    0.92790    0.34550    1.000
    H94      H        0.17280    0.00950    0.27140    1.000
    C39      C        0.25560    0.98380    0.34400    1.000
    H95      H        0.27260    0.94010    0.39690    1.000
    H96      H        0.26460    0.97490    0.25310    1.000
    C40      C        0.28380    0.05990    0.39200    1.000
    H97      H        0.28550    0.06120    0.48800    1.000
    H98      H        0.25960    0.10440    0.35900    1.000
    H99      H        0.35760    0.12280    0.37870    1.000
    H100     H        0.34040    0.07290    0.25280    1.000
    Zn9      Zn       0.43383    0.66655    0.77968    1.000
    Zn10     Zn       0.04534    0.67677    0.86418    1.000
    Zn11     Zn       0.47595    0.33211    0.88176    1.000
    Zn12     Zn       0.04719    0.33140    0.84554    1.000
    P13      P        0.39958    0.73212    0.03048    1.000
    P14      P        0.07948    0.74557    0.12518    1.000
    P15      P        0.08873    0.49828    0.97300    1.000
    P16      P        0.40618    0.49148    0.88512    1.000
    P17      P        0.43771    0.21320    0.65306    1.000
    P18      P        0.08553    0.22534    0.62916    1.000
    O37      O        0.40118    0.74516    0.88460    1.000
    O38      O        0.41744    0.80795    0.09890    1.000
    O39      O        0.43943    0.66401    0.07650    1.000
    O40      O        0.07191    0.76060    0.97910    1.000
    O41      O        0.03382    0.69040    0.17090    1.000
    O42      O        0.07794    0.82420    0.19700    1.000
    O43      O        0.07698    0.58180    0.94080    1.000
    O44      O        0.05570    0.44320    0.87590    1.000
    O45      O        0.07330    0.48180    0.11580    1.000
    H101     H        0.08310    0.49620    0.19310    1.000
    O46      O        0.40122    0.56232    0.79710    1.000
    O47      O        0.40217    0.51660    0.02890    1.000
    H102     H        0.41420    0.56270    0.03900    1.000
    O48      O        0.46068    0.44502    0.86890    1.000
    O49      O        0.45300    0.29432    0.70910    1.000
    O50      O        0.48335    0.15219    0.69980    1.000
    O51      O        0.43117    0.21786    0.50590    1.000
    O52      O        0.07417    0.30840    0.67640    1.000
    O53      O        0.03908    0.16690    0.66950    1.000
    O54      O        0.08998    0.22530    0.48440    1.000
    C41      C        0.32700    0.70920    0.06270    1.000
    H103     H        0.32510    0.70350    0.15750    1.000
    H104     H        0.31630    0.65830    0.02210    1.000
    C42      C        0.28320    0.77050    0.01260    1.000
    H105     H        0.29000    0.81910    0.06340    1.000
    H106     H        0.28950    0.78250    0.92110    1.000
    C43      C        0.22040    0.74520    0.02040    1.000
    H107     H        0.21480    0.69300    0.98010    1.000
    H108     H        0.19470    0.78250    0.97060    1.000
    C44      C        0.20360    0.74170    0.16020    1.000
    H109     H        0.23490    0.71570    0.21470    1.000
    H110     H        0.19970    0.79560    0.19300    1.000
    C45      C        0.14690    0.69780    0.17380    1.000
    H111     H        0.14840    0.64880    0.12330    1.000
    H112     H        0.14590    0.68280    0.26610    1.000
    C46      C        0.16480    0.47900    0.96930    1.000
    H113     H        0.17530    0.43100    0.01900    1.000
    H114     H        0.18750    0.52300    0.00940    1.000
    C47      C        0.17900    0.46870    0.82580    1.000
    H115     H        0.17880    0.52060    0.78340    1.000
    H116     H        0.14850    0.43660    0.77950    1.000
    C48      C        0.23830    0.42950    0.81380    1.000
    H117     H        0.24350    0.42090    0.72080    1.000
    H118     H        0.23820    0.37770    0.85630    1.000
    C49      C        0.28920    0.47610    0.87300    1.000
    H119     H        0.29010    0.52850    0.83230    1.000
    H120     H        0.28610    0.48300    0.96730    1.000
    C50      C        0.34510    0.43000    0.84870    1.000
    H121     H        0.34810    0.38290    0.90440    1.000
    H122     H        0.34380    0.41300    0.75700    1.000
    C51      C        0.37100    0.18030    0.71110    1.000
    H123     H        0.37410    0.18450    0.80680    1.000
    H124     H        0.36600    0.12430    0.68890    1.000
    C52      C        0.31640    0.22460    0.65790    1.000
    H125     H        0.31200    0.21930    0.56230    1.000
    H126     H        0.32090    0.28080    0.67880    1.000
    C53      C        0.26260    0.19380    0.71440    1.000
    H127     H        0.26100    0.13650    0.70240    1.000
    H128     H        0.26570    0.20440    0.80880    1.000
    C54      C        0.20670    0.22910    0.65480    1.000
    H129     H        0.20690    0.28600    0.67220    1.000
    H130     H        0.20460    0.22170    0.55960    1.000
    C55      C        0.15310    0.19250    0.70800    1.000
    H131     H        0.15540    0.13500    0.69910    1.000
    H132     H        0.15360    0.20460    0.80170    1.000
    H133     H        0.30220    0.82230    0.01100    1.000
    H134     H        0.26830    0.75730    0.92290    1.000
    C56      C        0.23260    0.77380    0.10100    1.000
    H135     H        0.20770    0.81940    0.07700    1.000
    H136     H        0.24790    0.78000    0.19240    1.000
    C57      C        0.19690    0.69900    0.08600    1.000
    H137     H        0.22230    0.65310    0.10680    1.000
    H138     H        0.18120    0.69330    0.99430    1.000
    H139     H        0.13800    0.64240    0.19100    1.000
    H140     H        0.16160    0.72100    0.25770    1.000
    H141     H        0.17120    0.42180    0.96700    1.000
    H142     H        0.18550    0.49950    0.04960    1.000
    C58      C        0.19020    0.51700    0.85010    1.000
    H143     H        0.17730    0.57210    0.84550    1.000
    H144     H        0.17280    0.49050    0.77140    1.000
    C59      C        0.25560    0.51620    0.84400    1.000
    H145     H        0.27260    0.55990    0.89690    1.000
    H146     H        0.26460    0.52510    0.75310    1.000
    C60      C        0.28380    0.44010    0.89200    1.000
    H147     H        0.28550    0.43880    0.98800    1.000
    H148     H        0.25960    0.39560    0.85900    1.000
    H149     H        0.35760    0.37720    0.87870    1.000
    H150     H        0.34040    0.42710    0.75280    1.000
    Zn13     Zn       0.56617    0.16655    0.72032    1.000
    Zn14     Zn       0.95466    0.17677    0.63582    1.000
    Zn15     Zn       0.52405    0.83211    0.61824    1.000
    Zn16     Zn       0.95281    0.83140    0.65446    1.000
    P19      P        0.60042    0.23212    0.46952    1.000
    P20      P        0.92052    0.24557    0.37482    1.000
    P21      P        0.91127    0.99828    0.52700    1.000
    P22      P        0.59382    0.99148    0.61488    1.000
    P23      P        0.56229    0.71320    0.84694    1.000
    P24      P        0.91447    0.72534    0.87084    1.000
    O55      O        0.59882    0.24516    0.61540    1.000
    O56      O        0.58256    0.30795    0.40110    1.000
    O57      O        0.56057    0.16401    0.42350    1.000
    O58      O        0.92809    0.26060    0.52090    1.000
    O59      O        0.96618    0.19040    0.32910    1.000
    O60      O        0.92206    0.32420    0.30300    1.000
    O61      O        0.92302    0.08180    0.55920    1.000
    O62      O        0.94430    0.94320    0.62410    1.000
    O63      O        0.92670    0.98180    0.38420    1.000
    H151     H        0.91690    0.99620    0.30690    1.000
    O64      O        0.59878    0.06232    0.70290    1.000
    O65      O        0.59783    0.01660    0.47110    1.000
    H152     H        0.58580    0.06270    0.46100    1.000
    O66      O        0.53932    0.94502    0.63110    1.000
    O67      O        0.54700    0.79432    0.79090    1.000
    O68      O        0.51665    0.65219    0.80020    1.000
    O69      O        0.56883    0.71786    0.99410    1.000
    O70      O        0.92583    0.80840    0.82360    1.000
    O71      O        0.96092    0.66690    0.83050    1.000
    O72      O        0.91002    0.72530    0.01560    1.000
    C61      C        0.67300    0.20920    0.43730    1.000
    H153     H        0.67490    0.20350    0.34250    1.000
    H154     H        0.68370    0.15830    0.47790    1.000
    C62      C        0.71680    0.27050    0.48740    1.000
    H155     H        0.71000    0.31910    0.43660    1.000
    H156     H        0.71050    0.28250    0.57890    1.000
    C63      C        0.77960    0.24520    0.47960    1.000
    H157     H        0.78520    0.19300    0.51990    1.000
    H158     H        0.80530    0.28250    0.52940    1.000
    C64      C        0.79640    0.24170    0.33980    1.000
    H159     H        0.76510    0.21570    0.28530    1.000
    H160     H        0.80030    0.29560    0.30700    1.000
    C65      C        0.85310    0.19780    0.32620    1.000
    H161     H        0.85160    0.14880    0.37670    1.000
    H162     H        0.85410    0.18280    0.23390    1.000
    C66      C        0.83520    0.97900    0.53070    1.000
    H163     H        0.82470    0.93100    0.48100    1.000
    H164     H        0.81250    0.02300    0.49060    1.000
    C67      C        0.82100    0.96870    0.67420    1.000
    H165     H        0.82120    0.02060    0.71660    1.000
    H166     H        0.85150    0.93660    0.72050    1.000
    C68      C        0.76170    0.92950    0.68620    1.000
    H167     H        0.75650    0.92090    0.77920    1.000
    H168     H        0.76180    0.87770    0.64370    1.000
    C69      C        0.71080    0.97610    0.62700    1.000
    H169     H        0.70990    0.02850    0.66770    1.000
    H170     H        0.71390    0.98300    0.53270    1.000
    C70      C        0.65490    0.93000    0.65130    1.000
    H171     H        0.65190    0.88290    0.59560    1.000
    H172     H        0.65620    0.91300    0.74300    1.000
    C71      C        0.62900    0.68030    0.78890    1.000
    H173     H        0.62590    0.68450    0.69320    1.000
    H174     H        0.63400    0.62430    0.81110    1.000
    C72      C        0.68360    0.72460    0.84210    1.000
    H175     H        0.68800    0.71930    0.93770    1.000
    H176     H        0.67910    0.78080    0.82120    1.000
    C73      C        0.73740    0.69380    0.78560    1.000
    H177     H        0.73900    0.63650    0.79760    1.000
    H178     H        0.73430    0.70440    0.69120    1.000
    C74      C        0.79330    0.72910    0.84520    1.000
    H179     H        0.79310    0.78600    0.82780    1.000
    H180     H        0.79540    0.72170    0.94040    1.000
    C75      C        0.84690    0.69250    0.79200    1.000
    H181     H        0.84460    0.63500    0.80090    1.000
    H182     H        0.84640    0.70460    0.69830    1.000
    H183     H        0.69780    0.32230    0.48900    1.000
    H184     H        0.73170    0.25730    0.57710    1.000
    C76      C        0.76740    0.27380    0.39900    1.000
    H185     H        0.79230    0.31940    0.42300    1.000
    H186     H        0.75210    0.28000    0.30760    1.000
    C77      C        0.80310    0.19900    0.41400    1.000
    H187     H        0.77770    0.15310    0.39320    1.000
    H188     H        0.81880    0.19330    0.50570    1.000
    H189     H        0.86200    0.14240    0.30900    1.000
    H190     H        0.83840    0.22100    0.24230    1.000
    H191     H        0.82880    0.92180    0.53300    1.000
    H192     H        0.81450    0.99950    0.45040    1.000
    C78      C        0.80980    0.01700    0.64990    1.000
    H193     H        0.82270    0.07210    0.65450    1.000
    H194     H        0.82720    0.99050    0.72860    1.000
    C79      C        0.74440    0.01620    0.65600    1.000
    H195     H        0.72740    0.05990    0.60310    1.000
    H196     H        0.73540    0.02510    0.74690    1.000
    C80      C        0.71620    0.94010    0.60800    1.000
    H197     H        0.71450    0.93880    0.51200    1.000
    H198     H        0.74040    0.89560    0.64100    1.000
    H199     H        0.64240    0.87720    0.62130    1.000
    H200     H        0.65960    0.92710    0.74720    1.000
