data_functionalizedCrystal
_audit_creation_method	'EQeq! by Chris Wilmer'
_symmetry_space_group_name_H-M	'P1'
_symmetry_Int_Tables_number	1
_symmetry_cell_setting	triclinic
loop_
_symmetry_equiv_pos_as_xyz
  x,y,z
_cell_length_a	35.2795
_cell_length_b	35.2795
_cell_length_c	21.025
_cell_angle_alpha	90
_cell_angle_beta	90
_cell_angle_gamma	120
loop_
_atom_site_label
_atom_site_type_symbol
_atom_site_fract_x
_atom_site_fract_y
_atom_site_fract_z
_atom_site_charge
Mof_O 	O 	0.52443	0.55376	0.42849	-0.407
Mof_O 	O 	0.51116	0.56688	0.52894	-0.41
Mof_C 	C 	0.52304	0.57781	0.47227	0.355
Mof_C 	C 	0.53806	0.62479	0.45339	-0.119
Mof_C 	C 	0.53821	0.65383	0.49849	0.053
Mof_H 	H 	0.5287	0.6443	0.5407	0.024
Mof_C 	C 	0.55258	0.69717	0.48087	-0.141
Mof_H 	H 	0.5522	0.7169	0.5113	0.089
Mof_C 	C 	0.56716	0.71161	0.42047	0.109
Mof_C 	C 	0.56671	0.68224	0.37595	-0.142
Mof_H 	H 	0.5764	0.6918	0.3338	0.08
Mof_C 	C 	0.55211	0.63894	0.39273	0.059
Mof_H 	H 	0.5519	0.6191	0.362	0.026
Mof_C 	C 	0.58627	0.75868	0.40201	-0.073
Mof_C 	C 	0.62509	0.77895	0.36793	-0.038
Mof_H 	H 	0.6381	0.762	0.3563	0.043
Mof_H 	H 	0.488	0.7213	0.3896	-0.064
Mof_H 	H 	0.4517	0.7485	0.4881	0.22
Mof_O 	O 	0.1911	0.88709	0.76182	-0.406
Mof_O 	O 	0.17783	0.90021	0.86227	-0.409
Mof_C 	C 	0.18971	0.91114	0.8056	0.356
Mof_C 	C 	0.20473	0.95812	0.78672	-0.118
Mof_C 	C 	0.20488	0.98716	0.83182	0.054
Mof_H 	H 	0.19537	0.97763	0.87403	0.025
Mof_C 	C 	0.21925	0.0305	0.8142	-0.14
Mof_H 	H 	0.21887	0.05023	0.84463	0.089
Mof_C 	C 	0.23383	0.04494	0.7538	0.109
Mof_C 	C 	0.23338	0.01557	0.70928	-0.142
Mof_H 	H 	0.24307	0.02513	0.66713	0.08
Mof_C 	C 	0.21878	0.97227	0.72606	0.059
Mof_H 	H 	0.21857	0.95243	0.69533	0.026
Mof_C 	C 	0.25294	0.09201	0.73534	-0.073
Mof_C 	C 	0.29176	0.11228	0.70126	-0.038
Mof_H 	H 	0.30477	0.09533	0.68963	0.043
Mof_H 	H 	0.15467	0.05463	0.72293	-0.064
Mof_H 	H 	0.11837	0.08183	0.82143	0.22
Mof_O 	O 	0.85776	0.22043	0.09516	-0.406
Mof_O 	O 	0.84449	0.23355	0.19561	-0.409
Mof_C 	C 	0.85637	0.24448	0.13894	0.356
Mof_C 	C 	0.87139	0.29146	0.12006	-0.118
Mof_C 	C 	0.87154	0.3205	0.16516	0.054
Mof_H 	H 	0.86203	0.31097	0.20737	0.025
Mof_C 	C 	0.88591	0.36384	0.14754	-0.14
Mof_H 	H 	0.88553	0.38357	0.17797	0.089
Mof_C 	C 	0.90049	0.37828	0.08714	0.109
Mof_C 	C 	0.90004	0.34891	0.04262	-0.142
Mof_H 	H 	0.90973	0.35847	0.00047	0.08
Mof_C 	C 	0.88544	0.30561	0.0594	0.059
Mof_H 	H 	0.88523	0.28577	0.02867	0.026
Mof_C 	C 	0.9196	0.42535	0.06868	-0.073
Mof_C 	C 	0.95842	0.44562	0.0346	-0.038
Mof_H 	H 	0.97143	0.42867	0.02297	0.043
Mof_H 	H 	0.82133	0.38797	0.05627	-0.064
Mof_H 	H 	0.78503	0.41517	0.15477	0.22
Mof_O 	O 	0.44624	0.97067	0.42849	-0.406
Mof_O 	O 	0.43312	0.94428	0.52894	-0.409
Mof_C 	C 	0.42219	0.94523	0.47227	0.356
Mof_C 	C 	0.37521	0.91327	0.45339	-0.118
Mof_C 	C 	0.34617	0.88438	0.49849	0.054
Mof_H 	H 	0.3557	0.8844	0.5407	0.025
Mof_C 	C 	0.30283	0.85541	0.48087	-0.14
Mof_H 	H 	0.2831	0.8353	0.5113	0.089
Mof_C 	C 	0.28839	0.85555	0.42047	0.109
Mof_C 	C 	0.31776	0.88447	0.37595	-0.142
Mof_H 	H 	0.3082	0.8846	0.3338	0.08
Mof_C 	C 	0.36106	0.91317	0.39273	0.059
Mof_H 	H 	0.3809	0.9328	0.362	0.026
Mof_C 	C 	0.24132	0.82759	0.40201	-0.073
Mof_C 	C 	0.22105	0.84614	0.36793	-0.038
Mof_H 	H 	0.238	0.8761	0.3563	0.043
Mof_H 	H 	0.2787	0.7667	0.3896	-0.064
Mof_H 	H 	0.2515	0.7032	0.4881	0.22
Mof_O 	O 	0.11291	0.304	0.76182	-0.406
Mof_O 	O 	0.09979	0.27761	0.86227	-0.409
Mof_C 	C 	0.08886	0.27856	0.8056	0.356
Mof_C 	C 	0.04188	0.2466	0.78672	-0.117
Mof_C 	C 	0.01284	0.21771	0.83182	0.054
Mof_H 	H 	0.02237	0.21773	0.87403	0.025
Mof_C 	C 	0.9695	0.18874	0.8142	-0.14
Mof_H 	H 	0.94977	0.16863	0.84463	0.089
Mof_C 	C 	0.95506	0.18888	0.7538	0.109
Mof_C 	C 	0.98443	0.2178	0.70928	-0.142
Mof_H 	H 	0.97487	0.21793	0.66713	0.08
Mof_C 	C 	0.02773	0.2465	0.72606	0.059
Mof_H 	H 	0.04757	0.26613	0.69533	0.026
Mof_C 	C 	0.90799	0.16092	0.73534	-0.073
Mof_C 	C 	0.88772	0.17947	0.70126	-0.038
Mof_H 	H 	0.90467	0.20943	0.68963	0.043
Mof_H 	H 	0.94537	0.10003	0.72293	-0.064
Mof_H 	H 	0.91817	0.03653	0.82143	0.22
Mof_O 	O 	0.77957	0.63734	0.09516	-0.406
Mof_O 	O 	0.76645	0.61095	0.19561	-0.409
Mof_C 	C 	0.75552	0.6119	0.13894	0.356
Mof_C 	C 	0.70854	0.57994	0.12006	-0.118
Mof_C 	C 	0.6795	0.55105	0.16516	0.054
Mof_H 	H 	0.68903	0.55107	0.20737	0.025
Mof_C 	C 	0.63616	0.52208	0.14754	-0.14
Mof_H 	H 	0.61643	0.50197	0.17797	0.089
Mof_C 	C 	0.62172	0.52222	0.08714	0.109
Mof_C 	C 	0.65109	0.55114	0.04262	-0.142
Mof_H 	H 	0.64153	0.55127	0.00047	0.08
Mof_C 	C 	0.69439	0.57984	0.0594	0.059
Mof_H 	H 	0.71423	0.59947	0.02867	0.026
Mof_C 	C 	0.57465	0.49426	0.06868	-0.073
Mof_C 	C 	0.55438	0.51281	0.0346	-0.038
Mof_H 	H 	0.57133	0.54277	0.02297	0.043
Mof_H 	H 	0.61203	0.43337	0.05627	-0.064
Mof_H 	H 	0.58483	0.36987	0.15477	0.22
Mof_O 	O 	0.02933	0.47557	0.42849	-0.406
Mof_O 	O 	0.05572	0.48884	0.52894	-0.409
Mof_C 	C 	0.05477	0.47696	0.47227	0.356
Mof_C 	C 	0.08673	0.46194	0.45339	-0.118
Mof_C 	C 	0.11562	0.46179	0.49849	0.054
Mof_H 	H 	0.1156	0.4713	0.5407	0.025
Mof_C 	C 	0.14459	0.44742	0.48087	-0.14
Mof_H 	H 	0.1647	0.4478	0.5113	0.089
Mof_C 	C 	0.14445	0.43284	0.42047	0.109
Mof_C 	C 	0.11553	0.43329	0.37595	-0.142
Mof_H 	H 	0.1154	0.4236	0.3338	0.08
Mof_C 	C 	0.08683	0.44789	0.39273	0.059
Mof_H 	H 	0.0672	0.4481	0.362	0.026
Mof_C 	C 	0.17241	0.41373	0.40201	-0.073
Mof_C 	C 	0.15386	0.37491	0.36793	-0.038
Mof_H 	H 	0.1239	0.3619	0.3563	0.043
Mof_H 	H 	0.2333	0.512	0.3896	-0.064
Mof_H 	H 	0.2968	0.5483	0.4881	0.22
Mof_O 	O 	0.696	0.8089	0.76182	-0.406
Mof_O 	O 	0.72239	0.82217	0.86227	-0.409
Mof_C 	C 	0.72144	0.81029	0.8056	0.356
Mof_C 	C 	0.7534	0.79527	0.78672	-0.118
Mof_C 	C 	0.78229	0.79512	0.83182	0.054
Mof_H 	H 	0.78227	0.80463	0.87403	0.025
Mof_C 	C 	0.81126	0.78075	0.8142	-0.14
Mof_H 	H 	0.83137	0.78113	0.84463	0.089
Mof_C 	C 	0.81112	0.76617	0.7538	0.109
Mof_C 	C 	0.7822	0.76662	0.70928	-0.142
Mof_H 	H 	0.78207	0.75693	0.66713	0.08
Mof_C 	C 	0.7535	0.78122	0.72606	0.059
Mof_H 	H 	0.73387	0.78143	0.69533	0.026
Mof_C 	C 	0.83908	0.74706	0.73534	-0.073
Mof_C 	C 	0.82053	0.70824	0.70126	-0.038
Mof_H 	H 	0.79057	0.69523	0.68963	0.043
Mof_H 	H 	0.89997	0.84533	0.72293	-0.064
Mof_H 	H 	0.96347	0.88163	0.82143	0.22
Mof_O 	O 	0.36266	0.14224	0.09516	-0.406
Mof_O 	O 	0.38905	0.15551	0.19561	-0.409
Mof_C 	C 	0.3881	0.14363	0.13894	0.356
Mof_C 	C 	0.42006	0.12861	0.12006	-0.118
Mof_C 	C 	0.44895	0.12846	0.16516	0.054
Mof_H 	H 	0.44893	0.13797	0.20737	0.025
Mof_C 	C 	0.47792	0.11409	0.14754	-0.14
Mof_H 	H 	0.49803	0.11447	0.17797	0.089
Mof_C 	C 	0.47778	0.09951	0.08714	0.109
Mof_C 	C 	0.44886	0.09996	0.04262	-0.142
Mof_H 	H 	0.44873	0.09027	0.00047	0.08
Mof_C 	C 	0.42016	0.11456	0.0594	0.059
Mof_H 	H 	0.40053	0.11477	0.02867	0.026
Mof_C 	C 	0.50574	0.0804	0.06868	-0.073
Mof_C 	C 	0.48719	0.04158	0.0346	-0.038
Mof_H 	H 	0.45723	0.02857	0.02297	0.043
Mof_H 	H 	0.56663	0.17867	0.05627	-0.064
Mof_H 	H 	0.63013	0.21497	0.15477	0.22
Mof_O 	O 	0.55376	0.52443	0.57151	-0.406
Mof_O 	O 	0.56688	0.51116	0.47106	-0.409
Mof_C 	C 	0.57781	0.52304	0.52773	0.356
Mof_C 	C 	0.62479	0.53806	0.54661	-0.118
Mof_C 	C 	0.65383	0.53821	0.50151	0.054
Mof_H 	H 	0.6443	0.5287	0.4593	0.025
Mof_C 	C 	0.69717	0.55258	0.51913	-0.14
Mof_H 	H 	0.7169	0.5522	0.4887	0.089
Mof_C 	C 	0.71161	0.56716	0.57953	0.109
Mof_C 	C 	0.68224	0.56671	0.62405	-0.142
Mof_H 	H 	0.6918	0.5764	0.6662	0.08
Mof_C 	C 	0.63894	0.55211	0.60727	0.059
Mof_H 	H 	0.6191	0.5519	0.638	0.026
Mof_C 	C 	0.75868	0.58627	0.59799	-0.073
Mof_C 	C 	0.77895	0.62509	0.63207	-0.038
Mof_H 	H 	0.762	0.6381	0.6437	0.043
Mof_H 	H 	0.7213	0.488	0.6104	-0.064
Mof_H 	H 	0.7485	0.4517	0.5119	0.22
Mof_O 	O 	0.22043	0.85776	0.90484	-0.406
Mof_O 	O 	0.23355	0.84449	0.80439	-0.409
Mof_C 	C 	0.24448	0.85637	0.86106	0.356
Mof_C 	C 	0.29146	0.87139	0.87994	-0.118
Mof_C 	C 	0.3205	0.87154	0.83484	0.054
Mof_H 	H 	0.31097	0.86203	0.79263	0.025
Mof_C 	C 	0.36384	0.88591	0.85246	-0.14
Mof_H 	H 	0.38357	0.88553	0.82203	0.089
Mof_C 	C 	0.37828	0.90049	0.91286	0.109
Mof_C 	C 	0.34891	0.90004	0.95738	-0.142
Mof_H 	H 	0.35847	0.90973	0.99953	0.08
Mof_C 	C 	0.30561	0.88544	0.9406	0.059
Mof_H 	H 	0.28577	0.88523	0.97133	0.026
Mof_C 	C 	0.42535	0.9196	0.93132	-0.073
Mof_C 	C 	0.44562	0.95842	0.9654	-0.038
Mof_H 	H 	0.42867	0.97143	0.97703	0.043
Mof_H 	H 	0.38797	0.82133	0.94373	-0.064
Mof_H 	H 	0.41517	0.78503	0.84523	0.22
Mof_O 	O 	0.88709	0.1911	0.23818	-0.406
Mof_O 	O 	0.90021	0.17783	0.13773	-0.409
Mof_C 	C 	0.91114	0.18971	0.1944	0.356
Mof_C 	C 	0.95812	0.20473	0.21328	-0.118
Mof_C 	C 	0.98716	0.20488	0.16818	0.054
Mof_H 	H 	0.97763	0.19537	0.12597	0.025
Mof_C 	C 	0.0305	0.21925	0.1858	-0.14
Mof_H 	H 	0.05023	0.21887	0.15537	0.089
Mof_C 	C 	0.04494	0.23383	0.2462	0.109
Mof_C 	C 	0.01557	0.23338	0.29072	-0.142
Mof_H 	H 	0.02513	0.24307	0.33287	0.08
Mof_C 	C 	0.97227	0.21878	0.27394	0.059
Mof_H 	H 	0.95243	0.21857	0.30467	0.026
Mof_C 	C 	0.09201	0.25294	0.26466	-0.073
Mof_C 	C 	0.11228	0.29176	0.29874	-0.038
Mof_H 	H 	0.09533	0.30477	0.31037	0.043
Mof_H 	H 	0.05463	0.15467	0.27707	-0.064
Mof_H 	H 	0.08183	0.11837	0.17857	0.22
Mof_O 	O 	0.97067	0.44624	0.57151	-0.406
Mof_O 	O 	0.94428	0.43312	0.47106	-0.409
Mof_C 	C 	0.94523	0.42219	0.52773	0.356
Mof_C 	C 	0.91327	0.37521	0.54661	-0.118
Mof_C 	C 	0.88438	0.34617	0.50151	0.054
Mof_H 	H 	0.8844	0.3557	0.4593	0.025
Mof_C 	C 	0.85541	0.30283	0.51913	-0.14
Mof_H 	H 	0.8353	0.2831	0.4887	0.089
Mof_C 	C 	0.85555	0.28839	0.57953	0.109
Mof_C 	C 	0.88447	0.31776	0.62405	-0.142
Mof_H 	H 	0.8846	0.3082	0.6662	0.08
Mof_C 	C 	0.91317	0.36106	0.60727	0.059
Mof_H 	H 	0.9328	0.3809	0.638	0.026
Mof_C 	C 	0.82759	0.24132	0.59799	-0.073
Mof_C 	C 	0.84614	0.22105	0.63207	-0.038
Mof_H 	H 	0.8761	0.238	0.6437	0.043
Mof_H 	H 	0.7667	0.2787	0.6104	-0.064
Mof_H 	H 	0.7032	0.2515	0.5119	0.22
Mof_O 	O 	0.63734	0.77957	0.90484	-0.406
Mof_O 	O 	0.61095	0.76645	0.80439	-0.409
Mof_C 	C 	0.6119	0.75552	0.86106	0.356
Mof_C 	C 	0.57994	0.70854	0.87994	-0.118
Mof_C 	C 	0.55105	0.6795	0.83484	0.054
Mof_H 	H 	0.55107	0.68903	0.79263	0.025
Mof_C 	C 	0.52208	0.63616	0.85246	-0.14
Mof_H 	H 	0.50197	0.61643	0.82203	0.089
Mof_C 	C 	0.52222	0.62172	0.91286	0.109
Mof_C 	C 	0.55114	0.65109	0.95738	-0.142
Mof_H 	H 	0.55127	0.64153	0.99953	0.08
Mof_C 	C 	0.57984	0.69439	0.9406	0.059
Mof_H 	H 	0.59947	0.71423	0.97133	0.026
Mof_C 	C 	0.49426	0.57465	0.93132	-0.073
Mof_C 	C 	0.51281	0.55438	0.9654	-0.038
Mof_H 	H 	0.54277	0.57133	0.97703	0.043
Mof_H 	H 	0.43337	0.61203	0.94373	-0.064
Mof_H 	H 	0.36987	0.58483	0.84523	0.22
Mof_O 	O 	0.304	0.11291	0.23818	-0.406
Mof_O 	O 	0.27761	0.09979	0.13773	-0.409
Mof_C 	C 	0.27856	0.08886	0.1944	0.356
Mof_C 	C 	0.2466	0.04188	0.21328	-0.117
Mof_C 	C 	0.21771	0.01284	0.16818	0.054
Mof_H 	H 	0.21773	0.02237	0.12597	0.025
Mof_C 	C 	0.18874	0.9695	0.1858	-0.14
Mof_H 	H 	0.16863	0.94977	0.15537	0.089
Mof_C 	C 	0.18888	0.95506	0.2462	0.109
Mof_C 	C 	0.2178	0.98443	0.29072	-0.142
Mof_H 	H 	0.21793	0.97487	0.33287	0.08
Mof_C 	C 	0.2465	0.02773	0.27394	0.059
Mof_H 	H 	0.26613	0.04757	0.30467	0.026
Mof_C 	C 	0.16092	0.90799	0.26466	-0.073
Mof_C 	C 	0.17947	0.88772	0.29874	-0.038
Mof_H 	H 	0.20943	0.90467	0.31037	0.043
Mof_H 	H 	0.10003	0.94537	0.27707	-0.064
Mof_H 	H 	0.03653	0.91817	0.17857	0.22
Mof_O 	O 	0.47557	0.02933	0.57151	-0.406
Mof_O 	O 	0.48884	0.05572	0.47106	-0.409
Mof_C 	C 	0.47696	0.05477	0.52773	0.356
Mof_C 	C 	0.46194	0.08673	0.54661	-0.118
Mof_C 	C 	0.46179	0.11562	0.50151	0.054
Mof_H 	H 	0.4713	0.1156	0.4593	0.025
Mof_C 	C 	0.44742	0.14459	0.51913	-0.14
Mof_H 	H 	0.4478	0.1647	0.4887	0.089
Mof_C 	C 	0.43284	0.14445	0.57953	0.109
Mof_C 	C 	0.43329	0.11553	0.62405	-0.142
Mof_H 	H 	0.4236	0.1154	0.6662	0.08
Mof_C 	C 	0.44789	0.08683	0.60727	0.059
Mof_H 	H 	0.4481	0.0672	0.638	0.026
Mof_C 	C 	0.41373	0.17241	0.59799	-0.073
Mof_C 	C 	0.37491	0.15386	0.63207	-0.038
Mof_H 	H 	0.3619	0.1239	0.6437	0.043
Mof_H 	H 	0.512	0.2333	0.6104	-0.064
Mof_H 	H 	0.5483	0.2968	0.5119	0.22
Mof_O 	O 	0.14224	0.36266	0.90484	-0.406
Mof_O 	O 	0.15551	0.38905	0.80439	-0.409
Mof_C 	C 	0.14363	0.3881	0.86106	0.356
Mof_C 	C 	0.12861	0.42006	0.87994	-0.118
Mof_C 	C 	0.12846	0.44895	0.83484	0.054
Mof_H 	H 	0.13797	0.44893	0.79263	0.025
Mof_C 	C 	0.11409	0.47792	0.85246	-0.14
Mof_H 	H 	0.11447	0.49803	0.82203	0.089
Mof_C 	C 	0.09951	0.47778	0.91286	0.109
Mof_C 	C 	0.09996	0.44886	0.95738	-0.142
Mof_H 	H 	0.09027	0.44873	0.99953	0.08
Mof_C 	C 	0.11456	0.42016	0.9406	0.059
Mof_H 	H 	0.11477	0.40053	0.97133	0.026
Mof_C 	C 	0.0804	0.50574	0.93132	-0.073
Mof_C 	C 	0.04158	0.48719	0.9654	-0.038
Mof_H 	H 	0.02857	0.45723	0.97703	0.043
Mof_H 	H 	0.17867	0.56663	0.94373	-0.064
Mof_H 	H 	0.21497	0.63013	0.84523	0.22
Mof_O 	O 	0.8089	0.696	0.23818	-0.406
Mof_O 	O 	0.82217	0.72239	0.13773	-0.409
Mof_C 	C 	0.81029	0.72144	0.1944	0.356
Mof_C 	C 	0.79527	0.7534	0.21328	-0.118
Mof_C 	C 	0.79512	0.78229	0.16818	0.054
Mof_H 	H 	0.80463	0.78227	0.12597	0.025
Mof_C 	C 	0.78075	0.81126	0.1858	-0.14
Mof_H 	H 	0.78113	0.83137	0.15537	0.089
Mof_C 	C 	0.76617	0.81112	0.2462	0.109
Mof_C 	C 	0.76662	0.7822	0.29072	-0.142
Mof_H 	H 	0.75693	0.78207	0.33287	0.08
Mof_C 	C 	0.78122	0.7535	0.27394	0.059
Mof_H 	H 	0.78143	0.73387	0.30467	0.026
Mof_C 	C 	0.74706	0.83908	0.26466	-0.073
Mof_C 	C 	0.70824	0.82053	0.29874	-0.038
Mof_H 	H 	0.69523	0.79057	0.31037	0.043
Mof_H 	H 	0.84533	0.89997	0.27707	-0.064
Mof_H 	H 	0.88163	0.96347	0.17857	0.22
Mof_O 	O 	0.47557	0.44624	0.57151	-0.406
Mof_O 	O 	0.48884	0.43312	0.47106	-0.409
Mof_C 	C 	0.47696	0.42219	0.52773	0.356
Mof_C 	C 	0.46194	0.37521	0.54661	-0.118
Mof_C 	C 	0.46179	0.34617	0.50151	0.054
Mof_H 	H 	0.4713	0.3557	0.4593	0.025
Mof_C 	C 	0.44742	0.30283	0.51913	-0.14
Mof_H 	H 	0.4478	0.2831	0.4887	0.089
Mof_C 	C 	0.43284	0.28839	0.57953	0.109
Mof_C 	C 	0.43329	0.31776	0.62405	-0.142
Mof_H 	H 	0.4236	0.3082	0.6662	0.08
Mof_C 	C 	0.44789	0.36106	0.60727	0.059
Mof_H 	H 	0.4481	0.3809	0.638	0.026
Mof_C 	C 	0.41373	0.24132	0.59799	-0.073
Mof_C 	C 	0.37491	0.22105	0.63207	-0.038
Mof_H 	H 	0.3619	0.238	0.6437	0.043
Mof_H 	H 	0.512	0.2787	0.6104	-0.064
Mof_H 	H 	0.5483	0.2515	0.5119	0.22
Mof_O 	O 	0.14224	0.77957	0.90484	-0.406
Mof_O 	O 	0.15551	0.76645	0.80439	-0.409
Mof_C 	C 	0.14363	0.75552	0.86106	0.356
Mof_C 	C 	0.12861	0.70854	0.87994	-0.118
Mof_C 	C 	0.12846	0.6795	0.83484	0.054
Mof_H 	H 	0.13797	0.68903	0.79263	0.025
Mof_C 	C 	0.11409	0.63616	0.85246	-0.14
Mof_H 	H 	0.11447	0.61643	0.82203	0.089
Mof_C 	C 	0.09951	0.62172	0.91286	0.109
Mof_C 	C 	0.09996	0.65109	0.95738	-0.142
Mof_H 	H 	0.09027	0.64153	0.99953	0.08
Mof_C 	C 	0.11456	0.69439	0.9406	0.059
Mof_H 	H 	0.11477	0.71423	0.97133	0.026
Mof_C 	C 	0.0804	0.57465	0.93132	-0.073
Mof_C 	C 	0.04158	0.55438	0.9654	-0.038
Mof_H 	H 	0.02857	0.57133	0.97703	0.043
Mof_H 	H 	0.17867	0.61203	0.94373	-0.064
Mof_H 	H 	0.21497	0.58483	0.84523	0.22
Mof_O 	O 	0.8089	0.11291	0.23818	-0.406
Mof_O 	O 	0.82217	0.09979	0.13773	-0.409
Mof_C 	C 	0.81029	0.08886	0.1944	0.356
Mof_C 	C 	0.79527	0.04188	0.21328	-0.118
Mof_C 	C 	0.79512	0.01284	0.16818	0.054
Mof_H 	H 	0.80463	0.02237	0.12597	0.025
Mof_C 	C 	0.78075	0.9695	0.1858	-0.14
Mof_H 	H 	0.78113	0.94977	0.15537	0.089
Mof_C 	C 	0.76617	0.95506	0.2462	0.109
Mof_C 	C 	0.76662	0.98443	0.29072	-0.142
Mof_H 	H 	0.75693	0.97487	0.33287	0.08
Mof_C 	C 	0.78122	0.02773	0.27394	0.059
Mof_H 	H 	0.78143	0.04757	0.30467	0.026
Mof_C 	C 	0.74706	0.90799	0.26466	-0.073
Mof_C 	C 	0.70824	0.88772	0.29874	-0.038
Mof_H 	H 	0.69523	0.90467	0.31037	0.043
Mof_H 	H 	0.84533	0.94537	0.27707	-0.064
Mof_H 	H 	0.88163	0.91817	0.17857	0.22
Mof_O 	O 	0.55376	0.02933	0.57151	-0.406
Mof_O 	O 	0.56688	0.05572	0.47106	-0.409
Mof_C 	C 	0.57781	0.05477	0.52773	0.356
Mof_C 	C 	0.62479	0.08673	0.54661	-0.118
Mof_C 	C 	0.65383	0.11562	0.50151	0.054
Mof_H 	H 	0.6443	0.1156	0.4593	0.025
Mof_C 	C 	0.69717	0.14459	0.51913	-0.14
Mof_H 	H 	0.7169	0.1647	0.4887	0.089
Mof_C 	C 	0.71161	0.14445	0.57953	0.109
Mof_C 	C 	0.68224	0.11553	0.62405	-0.142
Mof_H 	H 	0.6918	0.1154	0.6662	0.08
Mof_C 	C 	0.63894	0.08683	0.60727	0.059
Mof_H 	H 	0.6191	0.0672	0.638	0.026
Mof_C 	C 	0.75868	0.17241	0.59799	-0.073
Mof_C 	C 	0.77895	0.15386	0.63207	-0.038
Mof_H 	H 	0.762	0.1239	0.6437	0.043
Mof_H 	H 	0.7213	0.2333	0.6104	-0.064
Mof_H 	H 	0.7485	0.2968	0.5119	0.22
Mof_O 	O 	0.22043	0.36266	0.90484	-0.406
Mof_O 	O 	0.23355	0.38905	0.80439	-0.409
Mof_C 	C 	0.24448	0.3881	0.86106	0.356
Mof_C 	C 	0.29146	0.42006	0.87994	-0.118
Mof_C 	C 	0.3205	0.44895	0.83484	0.054
Mof_H 	H 	0.31097	0.44893	0.79263	0.025
Mof_C 	C 	0.36384	0.47792	0.85246	-0.14
Mof_H 	H 	0.38357	0.49803	0.82203	0.089
Mof_C 	C 	0.37828	0.47778	0.91286	0.109
Mof_C 	C 	0.34891	0.44886	0.95738	-0.142
Mof_H 	H 	0.35847	0.44873	0.99953	0.08
Mof_C 	C 	0.30561	0.42016	0.9406	0.059
Mof_H 	H 	0.28577	0.40053	0.97133	0.026
Mof_C 	C 	0.42535	0.50574	0.93132	-0.073
Mof_C 	C 	0.44562	0.48719	0.9654	-0.038
Mof_H 	H 	0.42867	0.45723	0.97703	0.043
Mof_H 	H 	0.38797	0.56663	0.94373	-0.064
Mof_H 	H 	0.41517	0.63013	0.84523	0.22
Mof_O 	O 	0.88709	0.696	0.23818	-0.406
Mof_O 	O 	0.90021	0.72239	0.13773	-0.409
Mof_C 	C 	0.91114	0.72144	0.1944	0.356
Mof_C 	C 	0.95812	0.7534	0.21328	-0.117
Mof_C 	C 	0.98716	0.78229	0.16818	0.054
Mof_H 	H 	0.97763	0.78227	0.12597	0.025
Mof_C 	C 	0.0305	0.81126	0.1858	-0.14
Mof_H 	H 	0.05023	0.83137	0.15537	0.089
Mof_C 	C 	0.04494	0.81112	0.2462	0.109
Mof_C 	C 	0.01557	0.7822	0.29072	-0.142
Mof_H 	H 	0.02513	0.78207	0.33287	0.08
Mof_C 	C 	0.97227	0.7535	0.27394	0.059
Mof_H 	H 	0.95243	0.73387	0.30467	0.026
Mof_C 	C 	0.09201	0.83908	0.26466	-0.073
Mof_C 	C 	0.11228	0.82053	0.29874	-0.038
Mof_H 	H 	0.09533	0.79057	0.31037	0.043
Mof_H 	H 	0.05463	0.89997	0.27707	-0.064
Mof_H 	H 	0.08183	0.96347	0.17857	0.22
Mof_O 	O 	0.97067	0.52443	0.57151	-0.406
Mof_O 	O 	0.94428	0.51116	0.47106	-0.409
Mof_C 	C 	0.94523	0.52304	0.52773	0.356
Mof_C 	C 	0.91327	0.53806	0.54661	-0.118
Mof_C 	C 	0.88438	0.53821	0.50151	0.054
Mof_H 	H 	0.8844	0.5287	0.4593	0.025
Mof_C 	C 	0.85541	0.55258	0.51913	-0.14
Mof_H 	H 	0.8353	0.5522	0.4887	0.089
Mof_C 	C 	0.85555	0.56716	0.57953	0.109
Mof_C 	C 	0.88447	0.56671	0.62405	-0.142
Mof_H 	H 	0.8846	0.5764	0.6662	0.08
Mof_C 	C 	0.91317	0.55211	0.60727	0.059
Mof_H 	H 	0.9328	0.5519	0.638	0.026
Mof_C 	C 	0.82759	0.58627	0.59799	-0.073
Mof_C 	C 	0.84614	0.62509	0.63207	-0.038
Mof_H 	H 	0.8761	0.6381	0.6437	0.043
Mof_H 	H 	0.7667	0.488	0.6104	-0.064
Mof_H 	H 	0.7032	0.4517	0.5119	0.22
Mof_O 	O 	0.63734	0.85776	0.90484	-0.406
Mof_O 	O 	0.61095	0.84449	0.80439	-0.409
Mof_C 	C 	0.6119	0.85637	0.86106	0.356
Mof_C 	C 	0.57994	0.87139	0.87994	-0.118
Mof_C 	C 	0.55105	0.87154	0.83484	0.054
Mof_H 	H 	0.55107	0.86203	0.79263	0.025
Mof_C 	C 	0.52208	0.88591	0.85246	-0.14
Mof_H 	H 	0.50197	0.88553	0.82203	0.089
Mof_C 	C 	0.52222	0.90049	0.91286	0.109
Mof_C 	C 	0.55114	0.90004	0.95738	-0.142
Mof_H 	H 	0.55127	0.90973	0.99953	0.08
Mof_C 	C 	0.57984	0.88544	0.9406	0.059
Mof_H 	H 	0.59947	0.88523	0.97133	0.026
Mof_C 	C 	0.49426	0.9196	0.93132	-0.073
Mof_C 	C 	0.51281	0.95842	0.9654	-0.038
Mof_H 	H 	0.54277	0.97143	0.97703	0.043
Mof_H 	H 	0.43337	0.82133	0.94373	-0.064
Mof_H 	H 	0.36987	0.78503	0.84523	0.22
Mof_O 	O 	0.304	0.1911	0.23818	-0.406
Mof_O 	O 	0.27761	0.17783	0.13773	-0.409
Mof_C 	C 	0.27856	0.18971	0.1944	0.356
Mof_C 	C 	0.2466	0.20473	0.21328	-0.118
Mof_C 	C 	0.21771	0.20488	0.16818	0.054
Mof_H 	H 	0.21773	0.19537	0.12597	0.025
Mof_C 	C 	0.18874	0.21925	0.1858	-0.14
Mof_H 	H 	0.16863	0.21887	0.15537	0.089
Mof_C 	C 	0.18888	0.23383	0.2462	0.109
Mof_C 	C 	0.2178	0.23338	0.29072	-0.142
Mof_H 	H 	0.21793	0.24307	0.33287	0.08
Mof_C 	C 	0.2465	0.21878	0.27394	0.059
Mof_H 	H 	0.26613	0.21857	0.30467	0.026
Mof_C 	C 	0.16092	0.25294	0.26466	-0.073
Mof_C 	C 	0.17947	0.29176	0.29874	-0.038
Mof_H 	H 	0.20943	0.30477	0.31037	0.043
Mof_H 	H 	0.10003	0.15467	0.27707	-0.064
Mof_H 	H 	0.03653	0.11837	0.17857	0.22
Mof_O 	O 	0.44624	0.47557	0.42849	-0.406
Mof_O 	O 	0.43312	0.48884	0.52894	-0.409
Mof_C 	C 	0.42219	0.47696	0.47227	0.356
Mof_C 	C 	0.37521	0.46194	0.45339	-0.118
Mof_C 	C 	0.34617	0.46179	0.49849	0.054
Mof_H 	H 	0.3557	0.4713	0.5407	0.025
Mof_C 	C 	0.30283	0.44742	0.48087	-0.14
Mof_H 	H 	0.2831	0.4478	0.5113	0.089
Mof_C 	C 	0.28839	0.43284	0.42047	0.109
Mof_C 	C 	0.31776	0.43329	0.37595	-0.142
Mof_H 	H 	0.3082	0.4236	0.3338	0.08
Mof_C 	C 	0.36106	0.44789	0.39273	0.059
Mof_H 	H 	0.3809	0.4481	0.362	0.026
Mof_C 	C 	0.24132	0.41373	0.40201	-0.073
Mof_C 	C 	0.22105	0.37491	0.36793	-0.038
Mof_H 	H 	0.238	0.3619	0.3563	0.043
Mof_H 	H 	0.2787	0.512	0.3896	-0.064
Mof_H 	H 	0.2515	0.5483	0.4881	0.22
Mof_O 	O 	0.11291	0.8089	0.76182	-0.406
Mof_O 	O 	0.09979	0.82217	0.86227	-0.409
Mof_C 	C 	0.08886	0.81029	0.8056	0.356
Mof_C 	C 	0.04188	0.79527	0.78672	-0.118
Mof_C 	C 	0.01284	0.79512	0.83182	0.054
Mof_H 	H 	0.02237	0.80463	0.87403	0.025
Mof_C 	C 	0.9695	0.78075	0.8142	-0.14
Mof_H 	H 	0.94977	0.78113	0.84463	0.089
Mof_C 	C 	0.95506	0.76617	0.7538	0.109
Mof_C 	C 	0.98443	0.76662	0.70928	-0.142
Mof_H 	H 	0.97487	0.75693	0.66713	0.08
Mof_C 	C 	0.02773	0.78122	0.72606	0.059
Mof_H 	H 	0.04757	0.78143	0.69533	0.026
Mof_C 	C 	0.90799	0.74706	0.73534	-0.073
Mof_C 	C 	0.88772	0.70824	0.70126	-0.038
Mof_H 	H 	0.90467	0.69523	0.68963	0.043
Mof_H 	H 	0.94537	0.84533	0.72293	-0.064
Mof_H 	H 	0.91817	0.88163	0.82143	0.22
Mof_O 	O 	0.77957	0.14224	0.09516	-0.406
Mof_O 	O 	0.76645	0.15551	0.19561	-0.409
Mof_C 	C 	0.75552	0.14363	0.13894	0.356
Mof_C 	C 	0.70854	0.12861	0.12006	-0.118
Mof_C 	C 	0.6795	0.12846	0.16516	0.054
Mof_H 	H 	0.68903	0.13797	0.20737	0.025
Mof_C 	C 	0.63616	0.11409	0.14754	-0.14
Mof_H 	H 	0.61643	0.11447	0.17797	0.089
Mof_C 	C 	0.62172	0.09951	0.08714	0.109
Mof_C 	C 	0.65109	0.09996	0.04262	-0.142
Mof_H 	H 	0.64153	0.09027	0.00047	0.08
Mof_C 	C 	0.69439	0.11456	0.0594	0.059
Mof_H 	H 	0.71423	0.11477	0.02867	0.026
Mof_C 	C 	0.57465	0.0804	0.06868	-0.073
Mof_C 	C 	0.55438	0.04158	0.0346	-0.038
Mof_H 	H 	0.57133	0.02857	0.02297	0.043
Mof_H 	H 	0.61203	0.17867	0.05627	-0.064
Mof_H 	H 	0.58483	0.21497	0.15477	0.22
Mof_O 	O 	0.02933	0.55376	0.42849	-0.406
Mof_O 	O 	0.05572	0.56688	0.52894	-0.409
Mof_C 	C 	0.05477	0.57781	0.47227	0.356
Mof_C 	C 	0.08673	0.62479	0.45339	-0.118
Mof_C 	C 	0.11562	0.65383	0.49849	0.054
Mof_H 	H 	0.1156	0.6443	0.5407	0.025
Mof_C 	C 	0.14459	0.69717	0.48087	-0.14
Mof_H 	H 	0.1647	0.7169	0.5113	0.089
Mof_C 	C 	0.14445	0.71161	0.42047	0.109
Mof_C 	C 	0.11553	0.68224	0.37595	-0.142
Mof_H 	H 	0.1154	0.6918	0.3338	0.08
Mof_C 	C 	0.08683	0.63894	0.39273	0.059
Mof_H 	H 	0.0672	0.6191	0.362	0.026
Mof_C 	C 	0.17241	0.75868	0.40201	-0.073
Mof_C 	C 	0.15386	0.77895	0.36793	-0.038
Mof_H 	H 	0.1239	0.762	0.3563	0.043
Mof_H 	H 	0.2333	0.7213	0.3896	-0.064
Mof_H 	H 	0.2968	0.7485	0.4881	0.22
Mof_O 	O 	0.696	0.88709	0.76182	-0.406
Mof_O 	O 	0.72239	0.90021	0.86227	-0.409
Mof_C 	C 	0.72144	0.91114	0.8056	0.356
Mof_C 	C 	0.7534	0.95812	0.78672	-0.117
Mof_C 	C 	0.78229	0.98716	0.83182	0.054
Mof_H 	H 	0.78227	0.97763	0.87403	0.025
Mof_C 	C 	0.81126	0.0305	0.8142	-0.14
Mof_H 	H 	0.83137	0.05023	0.84463	0.089
Mof_C 	C 	0.81112	0.04494	0.7538	0.109
Mof_C 	C 	0.7822	0.01557	0.70928	-0.142
Mof_H 	H 	0.78207	0.02513	0.66713	0.08
Mof_C 	C 	0.7535	0.97227	0.72606	0.059
Mof_H 	H 	0.73387	0.95243	0.69533	0.026
Mof_C 	C 	0.83908	0.09201	0.73534	-0.073
Mof_C 	C 	0.82053	0.11228	0.70126	-0.038
Mof_H 	H 	0.79057	0.09533	0.68963	0.043
Mof_H 	H 	0.89997	0.05463	0.72293	-0.064
Mof_H 	H 	0.96347	0.08183	0.82143	0.22
Mof_O 	O 	0.36266	0.22043	0.09516	-0.406
Mof_O 	O 	0.38905	0.23355	0.19561	-0.409
Mof_C 	C 	0.3881	0.24448	0.13894	0.356
Mof_C 	C 	0.42006	0.29146	0.12006	-0.118
Mof_C 	C 	0.44895	0.3205	0.16516	0.054
Mof_H 	H 	0.44893	0.31097	0.20737	0.025
Mof_C 	C 	0.47792	0.36384	0.14754	-0.14
Mof_H 	H 	0.49803	0.38357	0.17797	0.089
Mof_C 	C 	0.47778	0.37828	0.08714	0.109
Mof_C 	C 	0.44886	0.34891	0.04262	-0.142
Mof_H 	H 	0.44873	0.35847	0.00047	0.08
Mof_C 	C 	0.42016	0.30561	0.0594	0.059
Mof_H 	H 	0.40053	0.28577	0.02867	0.026
Mof_C 	C 	0.50574	0.42535	0.06868	-0.073
Mof_C 	C 	0.48719	0.44562	0.0346	-0.038
Mof_H 	H 	0.45723	0.42867	0.02297	0.043
Mof_H 	H 	0.56663	0.38797	0.05627	-0.064
Mof_H 	H 	0.63013	0.41517	0.15477	0.22
Mof_O 	O 	0.52443	0.97067	0.42849	-0.406
Mof_O 	O 	0.51116	0.94428	0.52894	-0.409
Mof_C 	C 	0.52304	0.94523	0.47227	0.356
Mof_C 	C 	0.53806	0.91327	0.45339	-0.118
Mof_C 	C 	0.53821	0.88438	0.49849	0.054
Mof_H 	H 	0.5287	0.8844	0.5407	0.025
Mof_C 	C 	0.55258	0.85541	0.48087	-0.14
Mof_H 	H 	0.5522	0.8353	0.5113	0.089
Mof_C 	C 	0.56716	0.85555	0.42047	0.109
Mof_C 	C 	0.56671	0.88447	0.37595	-0.142
Mof_H 	H 	0.5764	0.8846	0.3338	0.08
Mof_C 	C 	0.55211	0.91317	0.39273	0.059
Mof_H 	H 	0.5519	0.9328	0.362	0.026
Mof_C 	C 	0.58627	0.82759	0.40201	-0.073
Mof_C 	C 	0.62509	0.84614	0.36793	-0.038
Mof_H 	H 	0.6381	0.8761	0.3563	0.043
Mof_H 	H 	0.488	0.7667	0.3896	-0.064
Mof_H 	H 	0.4517	0.7032	0.4881	0.22
Mof_O 	O 	0.1911	0.304	0.76182	-0.406
Mof_O 	O 	0.17783	0.27761	0.86227	-0.409
Mof_C 	C 	0.18971	0.27856	0.8056	0.356
Mof_C 	C 	0.20473	0.2466	0.78672	-0.118
Mof_C 	C 	0.20488	0.21771	0.83182	0.054
Mof_H 	H 	0.19537	0.21773	0.87403	0.025
Mof_C 	C 	0.21925	0.18874	0.8142	-0.14
Mof_H 	H 	0.21887	0.16863	0.84463	0.089
Mof_C 	C 	0.23383	0.18888	0.7538	0.109
Mof_C 	C 	0.23338	0.2178	0.70928	-0.142
Mof_H 	H 	0.24307	0.21793	0.66713	0.08
Mof_C 	C 	0.21878	0.2465	0.72606	0.059
Mof_H 	H 	0.21857	0.26613	0.69533	0.026
Mof_C 	C 	0.25294	0.16092	0.73534	-0.073
Mof_C 	C 	0.29176	0.17947	0.70126	-0.038
Mof_H 	H 	0.30477	0.20943	0.68963	0.043
Mof_H 	H 	0.15467	0.10003	0.72293	-0.064
Mof_H 	H 	0.11837	0.03653	0.82143	0.22
Mof_O 	O 	0.85776	0.63734	0.09516	-0.406
Mof_O 	O 	0.84449	0.61095	0.19561	-0.409
Mof_C 	C 	0.85637	0.6119	0.13894	0.356
Mof_C 	C 	0.87139	0.57994	0.12006	-0.118
Mof_C 	C 	0.87154	0.55105	0.16516	0.054
Mof_H 	H 	0.86203	0.55107	0.20737	0.025
Mof_C 	C 	0.88591	0.52208	0.14754	-0.14
Mof_H 	H 	0.88553	0.50197	0.17797	0.089
Mof_C 	C 	0.90049	0.52222	0.08714	0.109
Mof_C 	C 	0.90004	0.55114	0.04262	-0.142
Mof_H 	H 	0.90973	0.55127	0.00047	0.08
Mof_C 	C 	0.88544	0.57984	0.0594	0.059
Mof_H 	H 	0.88523	0.59947	0.02867	0.026
Mof_C 	C 	0.9196	0.49426	0.06868	-0.073
Mof_C 	C 	0.95842	0.51281	0.0346	-0.038
Mof_H 	H 	0.97143	0.54277	0.02297	0.043
Mof_H 	H 	0.82133	0.43337	0.05627	-0.064
Mof_H 	H 	0.78503	0.36987	0.15477	0.22
Mof_Cu	Cu	0.50764	0.49236	0.44182	0.903
Mof_Cu	Cu	0.17431	0.82569	0.77515	0.903
Mof_Cu	Cu	0.84097	0.15903	0.10849	0.903
Mof_Cu	Cu	0.50764	0.01528	0.44182	0.903
Mof_Cu	Cu	0.17431	0.34861	0.77515	0.903
Mof_Cu	Cu	0.84097	0.68195	0.10849	0.903
Mof_Cu	Cu	0.98472	0.49236	0.44182	0.903
Mof_Cu	Cu	0.65139	0.82569	0.77515	0.903
Mof_Cu	Cu	0.31805	0.15903	0.10849	0.903
Mof_Cu	Cu	0.49236	0.50764	0.55818	0.903
Mof_Cu	Cu	0.15903	0.84097	0.89151	0.903
Mof_Cu	Cu	0.82569	0.17431	0.22485	0.903
Mof_Cu	Cu	0.01528	0.50764	0.55818	0.903
Mof_Cu	Cu	0.68195	0.84097	0.89151	0.903
Mof_Cu	Cu	0.34861	0.17431	0.22485	0.903
Mof_Cu	Cu	0.49236	0.98472	0.55818	0.903
Mof_Cu	Cu	0.15903	0.31805	0.89151	0.903
Mof_Cu	Cu	0.82569	0.65139	0.22485	0.903
Mof_O 	O 	0.52768	0.76384	0.45365	-0.283
Mof_C 	C 	0.64628	0.82314	0.3495	0.003
Mof_C 	C 	0.56671	0.78336	0.4184	0.149
Mof_C 	C 	0.48895	0.74448	0.4171	0.338
Mof_C 	C 	0.4507	0.72535	0.4612	-0.659
Mof_H 	H 	0.4235	0.71175	0.4364	0.207
Mof_O 	O 	0.19435	0.09717	0.78698	-0.283
Mof_C 	C 	0.31295	0.15647	0.68283	0.003
Mof_C 	C 	0.23338	0.11669	0.75173	0.149
Mof_C 	C 	0.15562	0.07781	0.75043	0.338
Mof_C 	C 	0.11737	0.05868	0.79453	-0.659
Mof_H 	H 	0.09017	0.04508	0.76973	0.207
Mof_O 	O 	0.86101	0.43051	0.12032	-0.283
Mof_C 	C 	0.97961	0.48981	0.01617	0.003
Mof_C 	C 	0.90004	0.45002	0.08507	0.149
Mof_C 	C 	0.82228	0.41114	0.08377	0.338
Mof_C 	C 	0.78403	0.39202	0.12787	-0.659
Mof_H 	H 	0.75683	0.37842	0.10307	0.207
Mof_O 	O 	0.23616	0.76384	0.45365	-0.283
Mof_C 	C 	0.17686	0.82314	0.3495	0.003
Mof_C 	C 	0.21664	0.78336	0.4184	0.149
Mof_C 	C 	0.25552	0.74447	0.4171	0.338
Mof_C 	C 	0.27465	0.72535	0.4612	-0.659
Mof_H 	H 	0.28825	0.71175	0.4364	0.207
Mof_O 	O 	0.90283	0.09717	0.78698	-0.283
Mof_C 	C 	0.84353	0.15647	0.68283	0.003
Mof_C 	C 	0.88331	0.11669	0.75173	0.149
Mof_C 	C 	0.92219	0.07781	0.75043	0.338
Mof_C 	C 	0.94132	0.05868	0.79453	-0.659
Mof_H 	H 	0.95492	0.04508	0.76973	0.207
Mof_O 	O 	0.56949	0.43051	0.12032	-0.283
Mof_C 	C 	0.51019	0.48981	0.01617	0.003
Mof_C 	C 	0.54998	0.45002	0.08507	0.149
Mof_C 	C 	0.58886	0.41114	0.08377	0.339
Mof_C 	C 	0.60798	0.39202	0.12787	-0.659
Mof_H 	H 	0.62158	0.37842	0.10307	0.207
Mof_O 	O 	0.23616	0.47232	0.45365	-0.283
Mof_C 	C 	0.17686	0.35372	0.3495	0.003
Mof_C 	C 	0.21664	0.43329	0.4184	0.149
Mof_C 	C 	0.25553	0.51105	0.4171	0.338
Mof_C 	C 	0.27465	0.5493	0.4612	-0.659
Mof_H 	H 	0.28825	0.5765	0.4364	0.207
Mof_O 	O 	0.90283	0.80565	0.78698	-0.283
Mof_C 	C 	0.84353	0.68705	0.68283	0.003
Mof_C 	C 	0.88331	0.76662	0.75173	0.149
Mof_C 	C 	0.92219	0.84438	0.75043	0.338
Mof_C 	C 	0.94132	0.88263	0.79453	-0.659
Mof_H 	H 	0.95492	0.90983	0.76973	0.207
Mof_O 	O 	0.56949	0.13899	0.12032	-0.283
Mof_C 	C 	0.51019	0.02039	0.01617	0.003
Mof_C 	C 	0.54998	0.09996	0.08507	0.149
Mof_C 	C 	0.58886	0.17772	0.08377	0.338
Mof_C 	C 	0.60798	0.21597	0.12787	-0.659
Mof_H 	H 	0.62158	0.24317	0.10307	0.207
Mof_O 	O 	0.76384	0.52768	0.54635	-0.283
Mof_C 	C 	0.82314	0.64628	0.6505	0.003
Mof_C 	C 	0.78336	0.56671	0.5816	0.149
Mof_C 	C 	0.74447	0.48895	0.5829	0.338
Mof_C 	C 	0.72535	0.4507	0.5388	-0.659
Mof_H 	H 	0.71175	0.4235	0.5636	0.207
Mof_O 	O 	0.43051	0.86101	0.87968	-0.283
Mof_C 	C 	0.48981	0.97961	0.98383	0.003
Mof_C 	C 	0.45002	0.90004	0.91493	0.149
Mof_C 	C 	0.41114	0.82228	0.91623	0.338
Mof_C 	C 	0.39202	0.78403	0.87213	-0.659
Mof_H 	H 	0.37842	0.75683	0.89693	0.207
Mof_O 	O 	0.09717	0.19435	0.21302	-0.283
Mof_C 	C 	0.15647	0.31295	0.31717	0.003
Mof_C 	C 	0.11669	0.23338	0.24827	0.149
Mof_C 	C 	0.07781	0.15562	0.24957	0.338
Mof_C 	C 	0.05868	0.11737	0.20547	-0.659
Mof_H 	H 	0.04508	0.09017	0.23027	0.207
Mof_O 	O 	0.76384	0.23616	0.54635	-0.283
Mof_C 	C 	0.82314	0.17686	0.6505	0.003
Mof_C 	C 	0.78336	0.21664	0.5816	0.149
Mof_C 	C 	0.74447	0.25553	0.5829	0.339
Mof_C 	C 	0.72535	0.27465	0.5388	-0.659
Mof_H 	H 	0.71175	0.28825	0.5636	0.207
Mof_O 	O 	0.43051	0.56949	0.87968	-0.283
Mof_C 	C 	0.48981	0.51019	0.98383	0.003
Mof_C 	C 	0.45002	0.54998	0.91493	0.149
Mof_C 	C 	0.41114	0.58886	0.91623	0.339
Mof_C 	C 	0.39202	0.60798	0.87213	-0.659
Mof_H 	H 	0.37842	0.62158	0.89693	0.207
Mof_O 	O 	0.09717	0.90283	0.21302	-0.283
Mof_C 	C 	0.15647	0.84353	0.31717	0.003
Mof_C 	C 	0.11669	0.88331	0.24827	0.149
Mof_C 	C 	0.07781	0.92219	0.24957	0.338
Mof_C 	C 	0.05868	0.94132	0.20547	-0.659
Mof_H 	H 	0.04508	0.95492	0.23027	0.207
Mof_O 	O 	0.47232	0.23616	0.54635	-0.283
Mof_C 	C 	0.35372	0.17686	0.6505	0.003
Mof_C 	C 	0.43329	0.21664	0.5816	0.149
Mof_C 	C 	0.51105	0.25552	0.5829	0.338
Mof_C 	C 	0.5493	0.27465	0.5388	-0.659
Mof_H 	H 	0.5765	0.28825	0.5636	0.207
Mof_O 	O 	0.13899	0.56949	0.87968	-0.283
Mof_C 	C 	0.02039	0.51019	0.98383	0.003
Mof_C 	C 	0.09996	0.54998	0.91493	0.149
Mof_C 	C 	0.17772	0.58886	0.91623	0.338
Mof_C 	C 	0.21597	0.60798	0.87213	-0.659
Mof_H 	H 	0.24317	0.62158	0.89693	0.207
Mof_O 	O 	0.80565	0.90283	0.21302	-0.283
Mof_C 	C 	0.68705	0.84353	0.31717	0.003
Mof_C 	C 	0.76662	0.88331	0.24827	0.149
Mof_C 	C 	0.84438	0.92219	0.24957	0.338
Mof_C 	C 	0.88263	0.94132	0.20547	-0.659
Mof_H 	H 	0.90983	0.95492	0.23027	0.207
_end
