data_functionalizedCrystal
_audit_creation_method	'EQeq! by Chris Wilmer'
_symmetry_space_group_name_H-M	'P1'
_symmetry_Int_Tables_number	1
_symmetry_cell_setting	triclinic
loop_
_symmetry_equiv_pos_as_xyz
  x,y,z
_cell_length_a	32.985
_cell_length_b	8.9901
_cell_length_c	34.432
_cell_angle_alpha	90
_cell_angle_beta	115.591
_cell_angle_gamma	90
loop_
_atom_site_label
_atom_site_type_symbol
_atom_site_fract_x
_atom_site_fract_y
_atom_site_fract_z
_atom_site_charge
Mof_La	La	0.9964	0.6425	0.11903	1.862
Mof_O 	O 	0.04928	0.819	0.17394	-0.451
Mof_O 	O 	0.03234	0.6218	0.20213	-0.41
Mof_O 	O 	0.42873	0.0179	0.36586	-0.441
Mof_O 	O 	0.46766	0.0974	0.43149	-0.441
Mof_O 	O 	0.42924	0.9069	0.54928	-0.518
Mof_O 	O 	0.36753	0.7689	0.52932	-0.53
Mof_H 	H 	0.3782	0.7444	0.5547	0.313
Mof_O 	O 	0.06515	0.701	0.36154	-0.514
Mof_O 	O 	0.1333	0.7752	0.40144	-0.311
Mof_N 	N 	0.1717	0.0828	0.3008	-0.208
Mof_H 	H 	0.1852	0.1223	0.3259	0.122
Mof_N 	N 	0.3157	0.6578	0.3754	-0.206
Mof_H 	H 	0.2988	0.6126	0.3848	0.124
Mof_C 	C 	0.3082	0.628	0.33175	-0.009
Mof_H 	H 	0.3364	0.6031	0.3309	0.026
Mof_H 	H 	0.296	0.7158	0.3142	0.021
Mof_C 	C 	0.2754	0.4992	0.31402	-0.092
Mof_C 	C 	0.2293	0.5278	0.29424	0.088
Mof_C 	C 	0.1988	0.4092	0.27854	0.107
Mof_C 	C 	0.2156	0.2632	0.28328	-0.109
Mof_C 	C 	0.2622	0.2344	0.30426	0.114
Mof_C 	C 	0.2923	0.354	0.3195	0.081
Mof_C 	C 	0.1824	0.1362	0.26675	-0.003
Mof_H 	H 	0.1552	0.1698	0.2427	0.023
Mof_H 	H 	0.1953	0.0561	0.2568	0.018
Mof_C 	C 	0.1488	0.4377	0.2579	-0.61
Mof_H 	H 	0.1428	0.5308	0.268	0.207
Mof_H 	H 	0.1338	0.359	0.2655	0.211
Mof_H 	H 	0.138	0.4412	0.2272	0.204
Mof_C 	C 	0.2116	0.685	0.291	-0.576
Mof_H 	H 	0.2342	0.7542	0.292	0.194
Mof_H 	H 	0.2041	0.7038	0.3145	0.202
Mof_H 	H 	0.1852	0.6966	0.2642	0.188
Mof_C 	C 	0.3424	0.3222	0.3419	-0.558
Mof_H 	H 	0.3556	0.3401	0.3223	0.186
Mof_H 	H 	0.3471	0.2202	0.3511	0.188
Mof_H 	H 	0.3562	0.3861	0.3665	0.192
Mof_C 	C 	0.279	0.0768	0.3106	-0.61
Mof_H 	H 	0.2548	0.0111	0.2938	0.204
Mof_H 	H 	0.2902	0.0508	0.3405	0.206
Mof_H 	H 	0.3026	0.0676	0.3016	0.201
Mof_C 	C 	0.1409	0.9713	0.29484	0.095
Mof_C 	C 	0.1132	0.9141	0.25493	-0.1
Mof_H 	H 	0.1154	0.9501	0.2306	0.063
Mof_C 	C 	0.08213	0.8042	0.25046	-0.058
Mof_C 	C 	0.07773	0.749	0.28628	-0.006
Mof_H 	H 	0.0565	0.6764	0.2833	0.042
Mof_C 	C 	0.106	0.8055	0.32647	-0.092
Mof_C 	C 	0.1372	0.913	0.33062	-0.084
Mof_H 	H 	0.1563	0.9474	0.3579	0.067
Mof_C 	C 	0.05273	0.745	0.20613	0.303
Mof_C 	C 	0.43592	0.0211	0.40461	0.302
Mof_C 	C 	0.40731	0.9308	0.41928	-0.068
Mof_C 	C 	0.4161	0.9301	0.46256	0.007
Mof_H 	H 	0.4393	0.9871	0.4825	0.037
Mof_C 	C 	0.389	0.8411	0.47565	-0.105
Mof_C 	C 	0.3555	0.7553	0.44624	-0.069
Mof_H 	H 	0.3377	0.698	0.4553	0.074
Mof_C 	C 	0.3475	0.7519	0.40293	0.091
Mof_C 	C 	0.3738	0.842	0.38974	-0.091
Mof_H 	H 	0.3688	0.8424	0.361	0.06
Mof_C 	C 	0.3971	0.8413	0.52199	0.451
Mof_C 	C 	0.1	0.755	0.36512	0.403
Mof_La	La	0.4964	0.1425	0.11903	1.86
Mof_O 	O 	0.54928	0.319	0.17394	-0.452
Mof_O 	O 	0.53234	0.1218	0.20213	-0.412
Mof_O 	O 	0.92873	0.5179	0.36586	-0.442
Mof_O 	O 	0.96766	0.5974	0.43149	-0.443
Mof_O 	O 	0.92924	0.4069	0.54928	-0.519
Mof_O 	O 	0.86753	0.2689	0.52932	-0.531
Mof_H 	H 	0.8782	0.2444	0.5547	0.312
Mof_O 	O 	0.56515	0.201	0.36154	-0.514
Mof_O 	O 	0.6333	0.2752	0.40144	-0.311
Mof_N 	N 	0.6717	0.5828	0.3008	-0.207
Mof_H 	H 	0.6852	0.6223	0.3259	0.122
Mof_N 	N 	0.8157	0.1578	0.3754	-0.205
Mof_H 	H 	0.7988	0.1126	0.3848	0.123
Mof_C 	C 	0.8082	0.128	0.33175	-0.014
Mof_H 	H 	0.8364	0.1031	0.3309	0.028
Mof_H 	H 	0.796	0.2158	0.3142	0.023
Mof_C 	C 	0.7754	0.9992	0.31402	-0.084
Mof_C 	C 	0.7293	0.0278	0.29424	0.08
Mof_C 	C 	0.6988	0.9092	0.27854	0.112
Mof_C 	C 	0.7156	0.7632	0.28328	-0.112
Mof_C 	C 	0.7622	0.7344	0.30426	0.118
Mof_C 	C 	0.7923	0.854	0.3195	0.077
Mof_C 	C 	0.6824	0.6362	0.26675	-0.002
Mof_H 	H 	0.6552	0.6698	0.2427	0.023
Mof_H 	H 	0.6953	0.5561	0.2568	0.019
Mof_C 	C 	0.6488	0.9377	0.2579	-0.606
Mof_H 	H 	0.6428	0.0308	0.268	0.205
Mof_H 	H 	0.6338	0.859	0.2655	0.21
Mof_H 	H 	0.638	0.9412	0.2272	0.204
Mof_C 	C 	0.7116	0.185	0.291	-0.567
Mof_H 	H 	0.7342	0.2542	0.292	0.191
Mof_H 	H 	0.7041	0.2038	0.3145	0.199
Mof_H 	H 	0.6852	0.1966	0.2642	0.185
Mof_C 	C 	0.8424	0.8222	0.3419	-0.554
Mof_H 	H 	0.8556	0.8401	0.3223	0.185
Mof_H 	H 	0.8471	0.7202	0.3511	0.187
Mof_H 	H 	0.8562	0.8861	0.3665	0.191
Mof_C 	C 	0.779	0.5768	0.3106	-0.615
Mof_H 	H 	0.7548	0.5111	0.2938	0.207
Mof_H 	H 	0.7902	0.5508	0.3405	0.208
Mof_H 	H 	0.8026	0.5676	0.3016	0.203
Mof_C 	C 	0.6409	0.4713	0.29484	0.093
Mof_C 	C 	0.6132	0.4141	0.25493	-0.099
Mof_H 	H 	0.6154	0.4501	0.2306	0.062
Mof_C 	C 	0.58213	0.3042	0.25046	-0.059
Mof_C 	C 	0.57773	0.249	0.28628	-0.005
Mof_H 	H 	0.5565	0.1764	0.2833	0.041
Mof_C 	C 	0.606	0.3055	0.32647	-0.093
Mof_C 	C 	0.6372	0.413	0.33062	-0.083
Mof_H 	H 	0.6563	0.4474	0.3579	0.066
Mof_C 	C 	0.55273	0.245	0.20613	0.303
Mof_C 	C 	0.93592	0.5211	0.40461	0.303
Mof_C 	C 	0.90731	0.4308	0.41928	-0.07
Mof_C 	C 	0.9161	0.4301	0.46256	0.008
Mof_H 	H 	0.9393	0.4871	0.4825	0.037
Mof_C 	C 	0.889	0.3411	0.47565	-0.106
Mof_C 	C 	0.8555	0.2553	0.44624	-0.068
Mof_H 	H 	0.8377	0.198	0.4553	0.073
Mof_C 	C 	0.8475	0.2519	0.40293	0.09
Mof_C 	C 	0.8738	0.342	0.38974	-0.09
Mof_H 	H 	0.8688	0.3424	0.361	0.059
Mof_C 	C 	0.8971	0.3413	0.52199	0.451
Mof_C 	C 	0.6	0.255	0.36512	0.403
Mof_La	La	0.0036	0.6425	0.38097	1.864
Mof_O 	O 	0.95072	0.819	0.32606	-0.452
Mof_O 	O 	0.96766	0.6218	0.29787	-0.411
Mof_O 	O 	0.57127	0.0179	0.13414	-0.442
Mof_O 	O 	0.53234	0.0974	0.06851	-0.442
Mof_O 	O 	0.57076	0.9069	0.95072	-0.519
Mof_O 	O 	0.63247	0.7689	0.97068	-0.531
Mof_H 	H 	0.6218	0.7444	0.9453	0.312
Mof_O 	O 	0.93485	0.701	0.13846	-0.514
Mof_O 	O 	0.8667	0.7752	0.09856	-0.311
Mof_N 	N 	0.8283	0.0828	0.1992	-0.208
Mof_H 	H 	0.8148	0.1223	0.1741	0.122
Mof_N 	N 	0.6843	0.6578	0.1246	-0.206
Mof_H 	H 	0.7012	0.6126	0.1152	0.124
Mof_C 	C 	0.6918	0.628	0.16825	-0.009
Mof_H 	H 	0.6636	0.6031	0.1691	0.026
Mof_H 	H 	0.704	0.7158	0.1858	0.021
Mof_C 	C 	0.7246	0.4992	0.18598	-0.092
Mof_C 	C 	0.7707	0.5278	0.20576	0.088
Mof_C 	C 	0.8012	0.4092	0.22146	0.107
Mof_C 	C 	0.7844	0.2632	0.21672	-0.109
Mof_C 	C 	0.7378	0.2344	0.19574	0.114
Mof_C 	C 	0.7077	0.354	0.1805	0.081
Mof_C 	C 	0.8176	0.1362	0.23325	-0.003
Mof_H 	H 	0.8448	0.1698	0.2573	0.023
Mof_H 	H 	0.8047	0.0561	0.2432	0.018
Mof_C 	C 	0.8512	0.4377	0.2421	-0.61
Mof_H 	H 	0.8572	0.5308	0.232	0.207
Mof_H 	H 	0.8662	0.359	0.2345	0.211
Mof_H 	H 	0.862	0.4412	0.2728	0.204
Mof_C 	C 	0.7884	0.685	0.209	-0.576
Mof_H 	H 	0.7658	0.7542	0.208	0.194
Mof_H 	H 	0.7959	0.7038	0.1855	0.202
Mof_H 	H 	0.8148	0.6966	0.2358	0.188
Mof_C 	C 	0.6576	0.3222	0.1581	-0.558
Mof_H 	H 	0.6444	0.3401	0.1777	0.186
Mof_H 	H 	0.6529	0.2202	0.1489	0.188
Mof_H 	H 	0.6438	0.3861	0.1335	0.192
Mof_C 	C 	0.721	0.0768	0.1894	-0.61
Mof_H 	H 	0.7452	0.0111	0.2062	0.204
Mof_H 	H 	0.7098	0.0508	0.1595	0.205
Mof_H 	H 	0.6974	0.0676	0.1984	0.201
Mof_C 	C 	0.8591	0.9713	0.20516	0.095
Mof_C 	C 	0.8868	0.9141	0.24507	-0.1
Mof_H 	H 	0.8846	0.9501	0.2694	0.063
Mof_C 	C 	0.91787	0.8042	0.24954	-0.058
Mof_C 	C 	0.92227	0.749	0.21372	-0.006
Mof_H 	H 	0.9435	0.6764	0.2167	0.042
Mof_C 	C 	0.894	0.8055	0.17353	-0.092
Mof_C 	C 	0.8628	0.913	0.16938	-0.084
Mof_H 	H 	0.8437	0.9474	0.1421	0.066
Mof_C 	C 	0.94727	0.745	0.29387	0.303
Mof_C 	C 	0.56408	0.0211	0.09539	0.302
Mof_C 	C 	0.59269	0.9308	0.08072	-0.068
Mof_C 	C 	0.5839	0.9301	0.03744	0.007
Mof_H 	H 	0.5607	0.9871	0.0175	0.037
Mof_C 	C 	0.611	0.8411	0.02435	-0.106
Mof_C 	C 	0.6445	0.7553	0.05376	-0.069
Mof_H 	H 	0.6623	0.698	0.0447	0.073
Mof_C 	C 	0.6525	0.7519	0.09707	0.091
Mof_C 	C 	0.6262	0.842	0.11026	-0.091
Mof_H 	H 	0.6312	0.8424	0.139	0.06
Mof_C 	C 	0.6029	0.8413	0.97801	0.451
Mof_C 	C 	0.9	0.755	0.13488	0.403
Mof_La	La	0.5036	0.1425	0.38097	1.86
Mof_O 	O 	0.45072	0.319	0.32606	-0.452
Mof_O 	O 	0.46766	0.1218	0.29787	-0.412
Mof_O 	O 	0.07127	0.5179	0.13414	-0.442
Mof_O 	O 	0.03234	0.5974	0.06851	-0.442
Mof_O 	O 	0.07076	0.4069	0.95072	-0.518
Mof_O 	O 	0.13247	0.2689	0.97068	-0.531
Mof_H 	H 	0.1218	0.2444	0.9453	0.312
Mof_O 	O 	0.43485	0.201	0.13846	-0.514
Mof_O 	O 	0.3667	0.2752	0.09856	-0.311
Mof_N 	N 	0.3283	0.5828	0.1992	-0.207
Mof_H 	H 	0.3148	0.6223	0.1741	0.122
Mof_N 	N 	0.1843	0.1578	0.1246	-0.205
Mof_H 	H 	0.2012	0.1126	0.1152	0.123
Mof_C 	C 	0.1918	0.128	0.16825	-0.014
Mof_H 	H 	0.1636	0.1031	0.1691	0.028
Mof_H 	H 	0.204	0.2158	0.1858	0.023
Mof_C 	C 	0.2246	0.9992	0.18598	-0.084
Mof_C 	C 	0.2707	0.0278	0.20576	0.08
Mof_C 	C 	0.3012	0.9092	0.22146	0.112
Mof_C 	C 	0.2844	0.7632	0.21672	-0.112
Mof_C 	C 	0.2378	0.7344	0.19574	0.118
Mof_C 	C 	0.2077	0.854	0.1805	0.077
Mof_C 	C 	0.3176	0.6362	0.23325	-0.002
Mof_H 	H 	0.3448	0.6698	0.2573	0.023
Mof_H 	H 	0.3047	0.5561	0.2432	0.019
Mof_C 	C 	0.3512	0.9377	0.2421	-0.606
Mof_H 	H 	0.3572	0.0308	0.232	0.205
Mof_H 	H 	0.3662	0.859	0.2345	0.21
Mof_H 	H 	0.362	0.9412	0.2728	0.204
Mof_C 	C 	0.2884	0.185	0.209	-0.567
Mof_H 	H 	0.2658	0.2542	0.208	0.191
Mof_H 	H 	0.2959	0.2038	0.1855	0.199
Mof_H 	H 	0.3148	0.1966	0.2358	0.185
Mof_C 	C 	0.1576	0.8222	0.1581	-0.554
Mof_H 	H 	0.1444	0.8401	0.1777	0.185
Mof_H 	H 	0.1529	0.7202	0.1489	0.187
Mof_H 	H 	0.1438	0.8861	0.1335	0.191
Mof_C 	C 	0.221	0.5768	0.1894	-0.615
Mof_H 	H 	0.2452	0.5111	0.2062	0.207
Mof_H 	H 	0.2098	0.5508	0.1595	0.208
Mof_H 	H 	0.1974	0.5676	0.1984	0.203
Mof_C 	C 	0.3591	0.4713	0.20516	0.093
Mof_C 	C 	0.3868	0.4141	0.24507	-0.099
Mof_H 	H 	0.3846	0.4501	0.2694	0.062
Mof_C 	C 	0.41787	0.3042	0.24954	-0.059
Mof_C 	C 	0.42227	0.249	0.21372	-0.005
Mof_H 	H 	0.4435	0.1764	0.2167	0.041
Mof_C 	C 	0.394	0.3055	0.17353	-0.093
Mof_C 	C 	0.3628	0.413	0.16938	-0.083
Mof_H 	H 	0.3437	0.4474	0.1421	0.066
Mof_C 	C 	0.44727	0.245	0.29387	0.303
Mof_C 	C 	0.06408	0.5211	0.09539	0.303
Mof_C 	C 	0.09269	0.4308	0.08072	-0.07
Mof_C 	C 	0.0839	0.4301	0.03744	0.008
Mof_H 	H 	0.0607	0.4871	0.0175	0.037
Mof_C 	C 	0.111	0.3411	0.02435	-0.105
Mof_C 	C 	0.1445	0.2553	0.05376	-0.068
Mof_H 	H 	0.1623	0.198	0.0447	0.073
Mof_C 	C 	0.1525	0.2519	0.09707	0.091
Mof_C 	C 	0.1262	0.342	0.11026	-0.09
Mof_H 	H 	0.1312	0.3424	0.139	0.059
Mof_C 	C 	0.1029	0.3413	0.97801	0.45
Mof_C 	C 	0.4	0.255	0.13488	0.403
Mof_La	La	0.0036	0.3575	0.88097	1.861
Mof_O 	O 	0.95072	0.181	0.82606	-0.452
Mof_O 	O 	0.96766	0.3782	0.79787	-0.411
Mof_O 	O 	0.57127	0.9821	0.63414	-0.442
Mof_O 	O 	0.53234	0.9026	0.56851	-0.442
Mof_O 	O 	0.57076	0.0931	0.45072	-0.519
Mof_O 	O 	0.63247	0.2311	0.47068	-0.531
Mof_H 	H 	0.6218	0.2556	0.4453	0.312
Mof_O 	O 	0.93485	0.299	0.63846	-0.514
Mof_O 	O 	0.8667	0.2248	0.59856	-0.311
Mof_N 	N 	0.8283	0.9172	0.6992	-0.208
Mof_H 	H 	0.8148	0.8777	0.6741	0.122
Mof_N 	N 	0.6843	0.3422	0.6246	-0.206
Mof_H 	H 	0.7012	0.3874	0.6152	0.124
Mof_C 	C 	0.6918	0.372	0.66825	-0.009
Mof_H 	H 	0.6636	0.3969	0.6691	0.026
Mof_H 	H 	0.704	0.2842	0.6858	0.021
Mof_C 	C 	0.7246	0.5008	0.68598	-0.092
Mof_C 	C 	0.7707	0.4722	0.70576	0.088
Mof_C 	C 	0.8012	0.5908	0.72146	0.107
Mof_C 	C 	0.7844	0.7368	0.71672	-0.109
Mof_C 	C 	0.7378	0.7656	0.69574	0.114
Mof_C 	C 	0.7077	0.646	0.6805	0.081
Mof_C 	C 	0.8176	0.8638	0.73325	-0.003
Mof_H 	H 	0.8448	0.8302	0.7573	0.023
Mof_H 	H 	0.8047	0.9439	0.7432	0.018
Mof_C 	C 	0.8512	0.5623	0.7421	-0.61
Mof_H 	H 	0.8572	0.4692	0.732	0.207
Mof_H 	H 	0.8662	0.641	0.7345	0.211
Mof_H 	H 	0.862	0.5588	0.7728	0.204
Mof_C 	C 	0.7884	0.315	0.709	-0.576
Mof_H 	H 	0.7658	0.2458	0.708	0.194
Mof_H 	H 	0.7959	0.2962	0.6855	0.202
Mof_H 	H 	0.8148	0.3034	0.7358	0.188
Mof_C 	C 	0.6576	0.6778	0.6581	-0.558
Mof_H 	H 	0.6444	0.6599	0.6777	0.186
Mof_H 	H 	0.6529	0.7798	0.6489	0.188
Mof_H 	H 	0.6438	0.6139	0.6335	0.192
Mof_C 	C 	0.721	0.9232	0.6894	-0.61
Mof_H 	H 	0.7452	0.9889	0.7062	0.204
Mof_H 	H 	0.7098	0.9492	0.6595	0.206
Mof_H 	H 	0.6974	0.9324	0.6984	0.201
Mof_C 	C 	0.8591	0.0287	0.70516	0.095
Mof_C 	C 	0.8868	0.0859	0.74507	-0.1
Mof_H 	H 	0.8846	0.0499	0.7694	0.063
Mof_C 	C 	0.91787	0.1958	0.74954	-0.058
Mof_C 	C 	0.92227	0.251	0.71372	-0.006
Mof_H 	H 	0.9435	0.3236	0.7167	0.042
Mof_C 	C 	0.894	0.1945	0.67353	-0.092
Mof_C 	C 	0.8628	0.087	0.66938	-0.084
Mof_H 	H 	0.8437	0.0526	0.6421	0.067
Mof_C 	C 	0.94727	0.255	0.79387	0.303
Mof_C 	C 	0.56408	0.9789	0.59539	0.302
Mof_C 	C 	0.59269	0.0692	0.58072	-0.068
Mof_C 	C 	0.5839	0.0699	0.53744	0.007
Mof_H 	H 	0.5607	0.0129	0.5175	0.037
Mof_C 	C 	0.611	0.1589	0.52435	-0.105
Mof_C 	C 	0.6445	0.2447	0.55376	-0.069
Mof_H 	H 	0.6623	0.302	0.5447	0.074
Mof_C 	C 	0.6525	0.2481	0.59707	0.091
Mof_C 	C 	0.6262	0.158	0.61026	-0.091
Mof_H 	H 	0.6312	0.1576	0.639	0.06
Mof_C 	C 	0.6029	0.1587	0.47801	0.451
Mof_C 	C 	0.9	0.245	0.63488	0.403
Mof_La	La	0.5036	0.8575	0.88097	1.86
Mof_O 	O 	0.45072	0.681	0.82606	-0.452
Mof_O 	O 	0.46766	0.8782	0.79787	-0.412
Mof_O 	O 	0.07127	0.4821	0.63414	-0.442
Mof_O 	O 	0.03234	0.4026	0.56851	-0.443
Mof_O 	O 	0.07076	0.5931	0.45072	-0.519
Mof_O 	O 	0.13247	0.7311	0.47068	-0.531
Mof_H 	H 	0.1218	0.7556	0.4453	0.312
Mof_O 	O 	0.43485	0.799	0.63846	-0.514
Mof_O 	O 	0.3667	0.7248	0.59856	-0.311
Mof_N 	N 	0.3283	0.4172	0.6992	-0.207
Mof_H 	H 	0.3148	0.3777	0.6741	0.122
Mof_N 	N 	0.1843	0.8422	0.6246	-0.205
Mof_H 	H 	0.2012	0.8874	0.6152	0.123
Mof_C 	C 	0.1918	0.872	0.66825	-0.014
Mof_H 	H 	0.1636	0.8969	0.6691	0.028
Mof_H 	H 	0.204	0.7842	0.6858	0.023
Mof_C 	C 	0.2246	0.0008	0.68598	-0.084
Mof_C 	C 	0.2707	0.9722	0.70576	0.08
Mof_C 	C 	0.3012	0.0908	0.72146	0.112
Mof_C 	C 	0.2844	0.2368	0.71672	-0.112
Mof_C 	C 	0.2378	0.2656	0.69574	0.118
Mof_C 	C 	0.2077	0.146	0.6805	0.077
Mof_C 	C 	0.3176	0.3638	0.73325	-0.002
Mof_H 	H 	0.3448	0.3302	0.7573	0.023
Mof_H 	H 	0.3047	0.4439	0.7432	0.019
Mof_C 	C 	0.3512	0.0623	0.7421	-0.606
Mof_H 	H 	0.3572	0.9692	0.732	0.205
Mof_H 	H 	0.3662	0.141	0.7345	0.21
Mof_H 	H 	0.362	0.0588	0.7728	0.204
Mof_C 	C 	0.2884	0.815	0.709	-0.567
Mof_H 	H 	0.2658	0.7458	0.708	0.191
Mof_H 	H 	0.2959	0.7962	0.6855	0.199
Mof_H 	H 	0.3148	0.8034	0.7358	0.185
Mof_C 	C 	0.1576	0.1778	0.6581	-0.554
Mof_H 	H 	0.1444	0.1599	0.6777	0.185
Mof_H 	H 	0.1529	0.2798	0.6489	0.187
Mof_H 	H 	0.1438	0.1139	0.6335	0.191
Mof_C 	C 	0.221	0.4232	0.6894	-0.615
Mof_H 	H 	0.2452	0.4889	0.7062	0.207
Mof_H 	H 	0.2098	0.4492	0.6595	0.208
Mof_H 	H 	0.1974	0.4324	0.6984	0.203
Mof_C 	C 	0.3591	0.5287	0.70516	0.093
Mof_C 	C 	0.3868	0.5859	0.74507	-0.099
Mof_H 	H 	0.3846	0.5499	0.7694	0.062
Mof_C 	C 	0.41787	0.6958	0.74954	-0.059
Mof_C 	C 	0.42227	0.751	0.71372	-0.005
Mof_H 	H 	0.4435	0.8236	0.7167	0.041
Mof_C 	C 	0.394	0.6945	0.67353	-0.093
Mof_C 	C 	0.3628	0.587	0.66938	-0.083
Mof_H 	H 	0.3437	0.5526	0.6421	0.066
Mof_C 	C 	0.44727	0.755	0.79387	0.303
Mof_C 	C 	0.06408	0.4789	0.59539	0.303
Mof_C 	C 	0.09269	0.5692	0.58072	-0.07
Mof_C 	C 	0.0839	0.5699	0.53744	0.008
Mof_H 	H 	0.0607	0.5129	0.5175	0.037
Mof_C 	C 	0.111	0.6589	0.52435	-0.106
Mof_C 	C 	0.1445	0.7447	0.55376	-0.068
Mof_H 	H 	0.1623	0.802	0.5447	0.073
Mof_C 	C 	0.1525	0.7481	0.59707	0.09
Mof_C 	C 	0.1262	0.658	0.61026	-0.09
Mof_H 	H 	0.1312	0.6576	0.639	0.059
Mof_C 	C 	0.1029	0.6587	0.47801	0.451
Mof_C 	C 	0.4	0.745	0.63488	0.403
Mof_La	La	0.9964	0.3575	0.61903	1.864
Mof_O 	O 	0.04928	0.181	0.67394	-0.452
Mof_O 	O 	0.03234	0.3782	0.70213	-0.411
Mof_O 	O 	0.42873	0.9821	0.86586	-0.442
Mof_O 	O 	0.46766	0.9026	0.93149	-0.442
Mof_O 	O 	0.42924	0.0931	0.04928	-0.519
Mof_O 	O 	0.36753	0.2311	0.02932	-0.531
Mof_H 	H 	0.3782	0.2556	0.0547	0.312
Mof_O 	O 	0.06515	0.299	0.86154	-0.514
Mof_O 	O 	0.1333	0.2248	0.90144	-0.311
Mof_N 	N 	0.1717	0.9172	0.8008	-0.208
Mof_H 	H 	0.1852	0.8777	0.8259	0.122
Mof_N 	N 	0.3157	0.3422	0.8754	-0.206
Mof_H 	H 	0.2988	0.3874	0.8848	0.124
Mof_C 	C 	0.3082	0.372	0.83175	-0.009
Mof_H 	H 	0.3364	0.3969	0.8309	0.026
Mof_H 	H 	0.296	0.2842	0.8142	0.021
Mof_C 	C 	0.2754	0.5008	0.81402	-0.092
Mof_C 	C 	0.2293	0.4722	0.79424	0.088
Mof_C 	C 	0.1988	0.5908	0.77854	0.107
Mof_C 	C 	0.2156	0.7368	0.78328	-0.109
Mof_C 	C 	0.2622	0.7656	0.80426	0.114
Mof_C 	C 	0.2923	0.646	0.8195	0.081
Mof_C 	C 	0.1824	0.8638	0.76675	-0.003
Mof_H 	H 	0.1552	0.8302	0.7427	0.023
Mof_H 	H 	0.1953	0.9439	0.7568	0.018
Mof_C 	C 	0.1488	0.5623	0.7579	-0.61
Mof_H 	H 	0.1428	0.4692	0.768	0.207
Mof_H 	H 	0.1338	0.641	0.7655	0.211
Mof_H 	H 	0.138	0.5588	0.7272	0.204
Mof_C 	C 	0.2116	0.315	0.791	-0.576
Mof_H 	H 	0.2342	0.2458	0.792	0.194
Mof_H 	H 	0.2041	0.2962	0.8145	0.202
Mof_H 	H 	0.1852	0.3034	0.7642	0.188
Mof_C 	C 	0.3424	0.6778	0.8419	-0.558
Mof_H 	H 	0.3556	0.6599	0.8223	0.186
Mof_H 	H 	0.3471	0.7798	0.8511	0.188
Mof_H 	H 	0.3562	0.6139	0.8665	0.192
Mof_C 	C 	0.279	0.9232	0.8106	-0.61
Mof_H 	H 	0.2548	0.9889	0.7938	0.204
Mof_H 	H 	0.2902	0.9492	0.8405	0.205
Mof_H 	H 	0.3026	0.9324	0.8016	0.201
Mof_C 	C 	0.1409	0.0287	0.79484	0.095
Mof_C 	C 	0.1132	0.0859	0.75493	-0.1
Mof_H 	H 	0.1154	0.0499	0.7306	0.063
Mof_C 	C 	0.08213	0.1958	0.75046	-0.058
Mof_C 	C 	0.07773	0.251	0.78628	-0.006
Mof_H 	H 	0.0565	0.3236	0.7833	0.042
Mof_C 	C 	0.106	0.1945	0.82647	-0.092
Mof_C 	C 	0.1372	0.087	0.83062	-0.084
Mof_H 	H 	0.1563	0.0526	0.8579	0.066
Mof_C 	C 	0.05273	0.255	0.70613	0.303
Mof_C 	C 	0.43592	0.9789	0.90461	0.302
Mof_C 	C 	0.40731	0.0692	0.91928	-0.068
Mof_C 	C 	0.4161	0.0699	0.96256	0.007
Mof_H 	H 	0.4393	0.0129	0.9825	0.037
Mof_C 	C 	0.389	0.1589	0.97565	-0.106
Mof_C 	C 	0.3555	0.2447	0.94624	-0.069
Mof_H 	H 	0.3377	0.302	0.9553	0.073
Mof_C 	C 	0.3475	0.2481	0.90293	0.091
Mof_C 	C 	0.3738	0.158	0.88974	-0.091
Mof_H 	H 	0.3688	0.1576	0.861	0.06
Mof_C 	C 	0.3971	0.1587	0.02199	0.451
Mof_C 	C 	0.1	0.245	0.86512	0.403
Mof_La	La	0.4964	0.8575	0.61903	1.86
Mof_O 	O 	0.54928	0.681	0.67394	-0.452
Mof_O 	O 	0.53234	0.8782	0.70213	-0.412
Mof_O 	O 	0.92873	0.4821	0.86586	-0.442
Mof_O 	O 	0.96766	0.4026	0.93149	-0.442
Mof_O 	O 	0.92924	0.5931	0.04928	-0.518
Mof_O 	O 	0.86753	0.7311	0.02932	-0.531
Mof_H 	H 	0.8782	0.7556	0.0547	0.312
Mof_O 	O 	0.56515	0.799	0.86154	-0.514
Mof_O 	O 	0.6333	0.7248	0.90144	-0.311
Mof_N 	N 	0.6717	0.4172	0.8008	-0.207
Mof_H 	H 	0.6852	0.3777	0.8259	0.122
Mof_N 	N 	0.8157	0.8422	0.8754	-0.205
Mof_H 	H 	0.7988	0.8874	0.8848	0.123
Mof_C 	C 	0.8082	0.872	0.83175	-0.014
Mof_H 	H 	0.8364	0.8969	0.8309	0.028
Mof_H 	H 	0.796	0.7842	0.8142	0.023
Mof_C 	C 	0.7754	0.0008	0.81402	-0.084
Mof_C 	C 	0.7293	0.9722	0.79424	0.08
Mof_C 	C 	0.6988	0.0908	0.77854	0.112
Mof_C 	C 	0.7156	0.2368	0.78328	-0.112
Mof_C 	C 	0.7622	0.2656	0.80426	0.118
Mof_C 	C 	0.7923	0.146	0.8195	0.077
Mof_C 	C 	0.6824	0.3638	0.76675	-0.002
Mof_H 	H 	0.6552	0.3302	0.7427	0.023
Mof_H 	H 	0.6953	0.4439	0.7568	0.019
Mof_C 	C 	0.6488	0.0623	0.7579	-0.606
Mof_H 	H 	0.6428	0.9692	0.768	0.205
Mof_H 	H 	0.6338	0.141	0.7655	0.21
Mof_H 	H 	0.638	0.0588	0.7272	0.204
Mof_C 	C 	0.7116	0.815	0.791	-0.567
Mof_H 	H 	0.7342	0.7458	0.792	0.191
Mof_H 	H 	0.7041	0.7962	0.8145	0.199
Mof_H 	H 	0.6852	0.8034	0.7642	0.185
Mof_C 	C 	0.8424	0.1778	0.8419	-0.554
Mof_H 	H 	0.8556	0.1599	0.8223	0.185
Mof_H 	H 	0.8471	0.2798	0.8511	0.187
Mof_H 	H 	0.8562	0.1139	0.8665	0.191
Mof_C 	C 	0.779	0.4232	0.8106	-0.615
Mof_H 	H 	0.7548	0.4889	0.7938	0.207
Mof_H 	H 	0.7902	0.4492	0.8405	0.208
Mof_H 	H 	0.8026	0.4324	0.8016	0.203
Mof_C 	C 	0.6409	0.5287	0.79484	0.093
Mof_C 	C 	0.6132	0.5859	0.75493	-0.099
Mof_H 	H 	0.6154	0.5499	0.7306	0.062
Mof_C 	C 	0.58213	0.6958	0.75046	-0.059
Mof_C 	C 	0.57773	0.751	0.78628	-0.005
Mof_H 	H 	0.5565	0.8236	0.7833	0.041
Mof_C 	C 	0.606	0.6945	0.82647	-0.093
Mof_C 	C 	0.6372	0.587	0.83062	-0.083
Mof_H 	H 	0.6563	0.5526	0.8579	0.066
Mof_C 	C 	0.55273	0.755	0.70613	0.303
Mof_C 	C 	0.93592	0.4789	0.90461	0.303
Mof_C 	C 	0.90731	0.5692	0.91928	-0.07
Mof_C 	C 	0.9161	0.5699	0.96256	0.008
Mof_H 	H 	0.9393	0.5129	0.9825	0.037
Mof_C 	C 	0.889	0.6589	0.97565	-0.105
Mof_C 	C 	0.8555	0.7447	0.94624	-0.068
Mof_H 	H 	0.8377	0.802	0.9553	0.073
Mof_C 	C 	0.8475	0.7481	0.90293	0.091
Mof_C 	C 	0.8738	0.658	0.88974	-0.09
Mof_H 	H 	0.8688	0.6576	0.861	0.059
Mof_C 	C 	0.8971	0.6587	0.02199	0.45
Mof_C 	C 	0.6	0.745	0.86512	0.403
_end
