data_functionalizedCrystal
_audit_creation_method	'EQeq! by Chris Wilmer'
_symmetry_space_group_name_H-M	'P1'
_symmetry_Int_Tables_number	1
_symmetry_cell_setting	triclinic
loop_
_symmetry_equiv_pos_as_xyz
  x,y,z
_cell_length_a	20.783
_cell_length_b	20.783
_cell_length_c	23.135
_cell_angle_alpha	63.3096
_cell_angle_beta	63.3097
_cell_angle_gamma	60
loop_
_atom_site_label
_atom_site_type_symbol
_atom_site_fract_x
_atom_site_fract_y
_atom_site_fract_z
_atom_site_charge
Mof_Cd	Cd	-0	0	-0	0.368
Mof_Cd	Cd	0.5	0.5	0.5	0.381
Mof_H 	H 	0.822	0.0991	0.9688	0.034
Mof_H 	H 	0.9978	0.1671	0.8635	0.032
Mof_H 	H 	0.8893	0.2643	0.8176	0.043
Mof_H 	H 	0.7252	0.2822	0.8938	0.098
Mof_H 	H 	0.7224	0.2002	0.9097	0.101
Mof_H 	H 	0.815	0.1429	0.8029	0.061
Mof_H 	H 	0.699	0.369	0.7894	0.059
Mof_H 	H 	0.821	0.1697	0.6931	0.06
Mof_H 	H 	0.7069	0.3974	0.6781	0.065
Mof_H 	H 	0.7892	0.347	0.574	0.093
Mof_H 	H 	0.8037	0.2592	0.5863	0.096
Mof_H 	H 	0.6754	0.4388	0.5263	0.023
Mof_H 	H 	0.652	0.2408	0.6619	0.047
Mof_H 	H 	0.5345	0.3258	0.6247	0.032
Mof_H 	H 	0.0991	0.1101	0.9688	0.035
Mof_H 	H 	0.1671	0.9716	0.8635	0.038
Mof_H 	H 	0.2643	0.0288	0.8176	0.041
Mof_H 	H 	0.2822	0.0988	0.8938	0.098
Mof_H 	H 	0.2002	0.1677	0.9097	0.102
Mof_H 	H 	0.1429	0.2392	0.8029	0.062
Mof_H 	H 	0.369	0.1426	0.7894	0.059
Mof_H 	H 	0.1697	0.3162	0.6931	0.061
Mof_H 	H 	0.3974	0.2176	0.6781	0.066
Mof_H 	H 	0.347	0.2898	0.574	0.094
Mof_H 	H 	0.2592	0.3508	0.5863	0.097
Mof_H 	H 	0.4388	0.3595	0.5263	0.023
Mof_H 	H 	0.2408	0.4453	0.6619	0.047
Mof_H 	H 	0.3258	0.515	0.6247	0.032
Mof_H 	H 	0.1101	0.822	0.9688	0.036
Mof_H 	H 	0.9716	0.9978	0.8635	0.036
Mof_H 	H 	0.0288	0.8893	0.8176	0.043
Mof_H 	H 	0.0988	0.7252	0.8938	0.098
Mof_H 	H 	0.1677	0.7224	0.9097	0.102
Mof_H 	H 	0.2392	0.815	0.8029	0.063
Mof_H 	H 	0.1426	0.699	0.7894	0.059
Mof_H 	H 	0.3162	0.821	0.6931	0.061
Mof_H 	H 	0.2176	0.7069	0.6781	0.066
Mof_H 	H 	0.2898	0.7892	0.574	0.094
Mof_H 	H 	0.3508	0.8037	0.5863	0.097
Mof_H 	H 	0.3595	0.6754	0.5263	0.023
Mof_H 	H 	0.4453	0.652	0.6619	0.047
Mof_H 	H 	0.515	0.5345	0.6247	0.032
Mof_H 	H 	0.178	0.9009	0.0312	0.033
Mof_H 	H 	0.0022	0.8329	0.1365	0.03
Mof_H 	H 	0.1107	0.7357	0.1824	0.044
Mof_H 	H 	0.2748	0.7178	0.1062	0.098
Mof_H 	H 	0.2776	0.7998	0.0903	0.101
Mof_H 	H 	0.185	0.8571	0.1971	0.063
Mof_H 	H 	0.301	0.631	0.2106	0.059
Mof_H 	H 	0.179	0.8303	0.3069	0.061
Mof_H 	H 	0.2931	0.6026	0.3219	0.065
Mof_H 	H 	0.2108	0.653	0.426	0.093
Mof_H 	H 	0.1963	0.7408	0.4137	0.097
Mof_H 	H 	0.3246	0.5612	0.4737	0.023
Mof_H 	H 	0.348	0.7592	0.3381	0.047
Mof_H 	H 	0.4655	0.6742	0.3753	0.032
Mof_H 	H 	0.9009	0.8899	0.0312	0.033
Mof_H 	H 	0.8329	0.0284	0.1365	0.025
Mof_H 	H 	0.7357	0.9712	0.1824	0.047
Mof_H 	H 	0.7178	0.9012	0.1062	0.099
Mof_H 	H 	0.7998	0.8323	0.0903	0.101
Mof_H 	H 	0.8571	0.7608	0.1971	0.063
Mof_H 	H 	0.631	0.8574	0.2106	0.06
Mof_H 	H 	0.8303	0.6838	0.3069	0.061
Mof_H 	H 	0.6026	0.7824	0.3219	0.065
Mof_H 	H 	0.653	0.7102	0.426	0.094
Mof_H 	H 	0.7408	0.6492	0.4137	0.097
Mof_H 	H 	0.5612	0.6405	0.4737	0.023
Mof_H 	H 	0.7592	0.5547	0.3381	0.047
Mof_H 	H 	0.6742	0.485	0.3753	0.032
Mof_H 	H 	0.8899	0.178	0.0312	0.032
Mof_H 	H 	0.0284	0.0022	0.1365	0.019
Mof_H 	H 	0.9712	0.1107	0.1824	0.049
Mof_H 	H 	0.9012	0.2748	0.1062	0.099
Mof_H 	H 	0.8323	0.2776	0.0903	0.101
Mof_H 	H 	0.7608	0.185	0.1971	0.062
Mof_H 	H 	0.8574	0.301	0.2106	0.06
Mof_H 	H 	0.6838	0.179	0.3069	0.06
Mof_H 	H 	0.7824	0.2931	0.3219	0.065
Mof_H 	H 	0.7102	0.2108	0.426	0.093
Mof_H 	H 	0.6492	0.1963	0.4137	0.097
Mof_H 	H 	0.6405	0.3246	0.4737	0.023
Mof_H 	H 	0.5547	0.348	0.3381	0.047
Mof_H 	H 	0.485	0.4655	0.3753	0.032
Mof_C 	C 	0.85305	0.12865	0.93655	0.086
Mof_C 	C 	0.9477	0.1652	0.88	0.018
Mof_C 	C 	0.8887	0.2185	0.8542	0
Mof_C 	C 	0.7526	0.2339	0.8803	-0.132
Mof_C 	C 	0.75625	0.25385	0.80755	0.069
Mof_C 	C 	0.7926	0.195	0.7777	-0.063
Mof_C 	C 	0.7247	0.3279	0.7696	-0.073
Mof_C 	C 	0.7964	0.211	0.7126	-0.079
Mof_C 	C 	0.72898	0.34518	0.70336	-0.069
Mof_C 	C 	0.76559	0.28559	0.67453	0.075
Mof_C 	C 	0.76825	0.30545	0.60265	-0.138
Mof_C 	C 	0.65369	0.40059	0.55663	0.079
Mof_C 	C 	0.64258	0.29128	0.63046	-0.005
Mof_C 	C 	0.5782	0.3389	0.61	0.016
Mof_C 	C 	0.12865	0.08175	0.93655	0.085
Mof_C 	C 	0.1652	0.0071	0.88	0.007
Mof_C 	C 	0.2185	0.0386	0.8542	0.004
Mof_C 	C 	0.2339	0.1332	0.8803	-0.132
Mof_C 	C 	0.25385	0.18235	0.80755	0.069
Mof_C 	C 	0.195	0.2347	0.7777	-0.063
Mof_C 	C 	0.3279	0.1778	0.7696	-0.073
Mof_C 	C 	0.211	0.28	0.7126	-0.079
Mof_C 	C 	0.34518	0.22248	0.70336	-0.069
Mof_C 	C 	0.28559	0.27429	0.67453	0.075
Mof_C 	C 	0.30545	0.32365	0.60265	-0.138
Mof_C 	C 	0.40059	0.38909	0.55663	0.079
Mof_C 	C 	0.29128	0.43568	0.63046	-0.005
Mof_C 	C 	0.3389	0.4729	0.61	0.016
Mof_C 	C 	0.08175	0.85305	0.93655	0.086
Mof_C 	C 	0.0071	0.9477	0.88	0.012
Mof_C 	C 	0.0386	0.8887	0.8542	0.003
Mof_C 	C 	0.1332	0.7526	0.8803	-0.132
Mof_C 	C 	0.18235	0.75625	0.80755	0.069
Mof_C 	C 	0.2347	0.7926	0.7777	-0.063
Mof_C 	C 	0.1778	0.7247	0.7696	-0.073
Mof_C 	C 	0.28	0.7964	0.7126	-0.079
Mof_C 	C 	0.22248	0.72898	0.70336	-0.069
Mof_C 	C 	0.27429	0.76559	0.67453	0.075
Mof_C 	C 	0.32365	0.76825	0.60265	-0.138
Mof_C 	C 	0.38909	0.65369	0.55663	0.079
Mof_C 	C 	0.43568	0.64258	0.63046	-0.005
Mof_C 	C 	0.4729	0.5782	0.61	0.016
Mof_C 	C 	0.14695	0.87135	0.06345	0.086
Mof_C 	C 	0.0523	0.8348	0.12	0.018
Mof_C 	C 	0.1113	0.7815	0.1458	-0
Mof_C 	C 	0.2474	0.7661	0.1197	-0.131
Mof_C 	C 	0.24375	0.74615	0.19245	0.069
Mof_C 	C 	0.2074	0.805	0.2223	-0.063
Mof_C 	C 	0.2753	0.6721	0.2304	-0.073
Mof_C 	C 	0.2036	0.789	0.2874	-0.078
Mof_C 	C 	0.27102	0.65482	0.29664	-0.068
Mof_C 	C 	0.23441	0.71441	0.32547	0.075
Mof_C 	C 	0.23175	0.69455	0.39735	-0.137
Mof_C 	C 	0.34631	0.59941	0.44337	0.079
Mof_C 	C 	0.35742	0.70872	0.36954	-0.005
Mof_C 	C 	0.4218	0.6611	0.39	0.016
Mof_C 	C 	0.87135	0.91825	0.06345	0.086
Mof_C 	C 	0.8348	0.9929	0.12	0.029
Mof_C 	C 	0.7815	0.9614	0.1458	-0.005
Mof_C 	C 	0.7661	0.8668	0.1197	-0.132
Mof_C 	C 	0.74615	0.81765	0.19245	0.07
Mof_C 	C 	0.805	0.7653	0.2223	-0.064
Mof_C 	C 	0.6721	0.8222	0.2304	-0.073
Mof_C 	C 	0.789	0.72	0.2874	-0.078
Mof_C 	C 	0.65482	0.77752	0.29664	-0.068
Mof_C 	C 	0.71441	0.72571	0.32547	0.075
Mof_C 	C 	0.69455	0.67635	0.39735	-0.137
Mof_C 	C 	0.59941	0.61091	0.44337	0.079
Mof_C 	C 	0.70872	0.56432	0.36954	-0.005
Mof_C 	C 	0.6611	0.5271	0.39	0.016
Mof_C 	C 	0.91825	0.14695	0.06345	0.086
Mof_C 	C 	0.9929	0.0523	0.12	0.034
Mof_C 	C 	0.9614	0.1113	0.1458	-0.008
Mof_C 	C 	0.8668	0.2474	0.1197	-0.132
Mof_C 	C 	0.81765	0.24375	0.19245	0.07
Mof_C 	C 	0.7653	0.2074	0.2223	-0.063
Mof_C 	C 	0.8222	0.2753	0.2304	-0.073
Mof_C 	C 	0.72	0.2036	0.2874	-0.078
Mof_C 	C 	0.77752	0.27102	0.29664	-0.068
Mof_C 	C 	0.72571	0.23441	0.32547	0.075
Mof_C 	C 	0.67635	0.23175	0.39735	-0.137
Mof_C 	C 	0.61091	0.34631	0.44337	0.079
Mof_C 	C 	0.56432	0.35742	0.36954	-0.005
Mof_C 	C 	0.5271	0.4218	0.39	0.016
Mof_N 	N 	0.92618	0.10848	0.93256	-0.138
Mof_N 	N 	0.82805	0.19525	0.89005	-0.093
Mof_N 	N 	0.69129	0.33119	0.59653	-0.095
Mof_N 	N 	0.58356	0.40766	0.56572	-0.142
Mof_N 	N 	0.10848	0.03278	0.93256	-0.138
Mof_N 	N 	0.19525	0.08665	0.89005	-0.094
Mof_N 	N 	0.33119	0.38099	0.59653	-0.095
Mof_N 	N 	0.40766	0.44306	0.56572	-0.142
Mof_N 	N 	0.03278	0.92618	0.93256	-0.137
Mof_N 	N 	0.08665	0.82805	0.89005	-0.094
Mof_N 	N 	0.38099	0.69129	0.59653	-0.095
Mof_N 	N 	0.44306	0.58356	0.56572	-0.142
Mof_N 	N 	0.07382	0.89152	0.06744	-0.14
Mof_N 	N 	0.17195	0.80475	0.10995	-0.093
Mof_N 	N 	0.30871	0.66881	0.40347	-0.095
Mof_N 	N 	0.41644	0.59234	0.43428	-0.142
Mof_N 	N 	0.89152	0.96722	0.06744	-0.14
Mof_N 	N 	0.80475	0.91335	0.10995	-0.092
Mof_N 	N 	0.66881	0.61901	0.40347	-0.095
Mof_N 	N 	0.59234	0.55694	0.43428	-0.142
Mof_N 	N 	0.96722	0.07382	0.06744	-0.142
Mof_N 	N 	0.91335	0.17195	0.10995	-0.092
Mof_N 	N 	0.61901	0.30871	0.40347	-0.095
Mof_N 	N 	0.55694	0.41644	0.43428	-0.142
Mof_Cd	Cd	0.15655	0.15655	0.53035	0.38
Mof_Cd	Cd	0.65611	0.65611	0.03167	0.376
Mof_H 	H 	0.9841	0.2982	0.5032	0.033
Mof_H 	H 	0.016	0.2357	0.3502	0.044
Mof_H 	H 	0.1305	0.157	0.3919	0.03
Mof_H 	H 	0.8736	0.376	0.4528	0.099
Mof_H 	H 	0.8607	0.3181	0.4348	0.102
Mof_H 	H 	0.9431	0.4644	0.3523	0.075
Mof_H 	H 	0.843	0.3567	0.3301	0.067
Mof_H 	H 	0.9429	0.5491	0.2443	0.059
Mof_H 	H 	0.8478	0.4403	0.2191	0.055
Mof_H 	H 	0.913	0.5981	0.1435	0.091
Mof_H 	H 	0.9312	0.5286	0.1189	0.08
Mof_H 	H 	0.7488	0.6593	0.2128	0.045
Mof_H 	H 	0.833	0.5634	0.0649	0.013
Mof_H 	H 	0.6453	0.7031	0.1618	0.03
Mof_H 	H 	0.327	0.0077	0.5614	0.025
Mof_H 	H 	0.1994	0.1754	0.6508	0.032
Mof_H 	H 	0.3231	0.1025	0.6808	0.047
Mof_H 	H 	0.4464	0.9378	0.6016	0.097
Mof_H 	H 	0.4668	0.9966	0.6112	0.103
Mof_H 	H 	0.3178	0.9236	0.7318	0.057
Mof_H 	H 	0.5322	0.9057	0.6934	0.054
Mof_H 	H 	0.3134	0.8522	0.8425	0.072
Mof_H 	H 	0.5349	0.8187	0.7999	0.066
Mof_H 	H 	0.3887	0.8236	0.9352	0.112
Mof_H 	H 	0.3808	0.7575	0.9241	0.111
Mof_H 	H 	0.4877	0.7691	0.9893	0.029
Mof_H 	H 	0.5475	0.659	0.8584	0.041
Mof_H 	H 	0.6508	0.5994	0.9113	0.035
Mof_H 	H 	0.2982	0.2145	0.5032	0.025
Mof_H 	H 	0.2357	0.3981	0.3502	0.044
Mof_H 	H 	0.157	0.3206	0.3919	0.031
Mof_H 	H 	0.376	0.2976	0.4528	0.098
Mof_H 	H 	0.3181	0.3864	0.4348	0.101
Mof_H 	H 	0.4644	0.2402	0.3523	0.074
Mof_H 	H 	0.3567	0.4702	0.3301	0.067
Mof_H 	H 	0.5491	0.2637	0.2443	0.058
Mof_H 	H 	0.4403	0.4928	0.2191	0.055
Mof_H 	H 	0.5981	0.3454	0.1435	0.09
Mof_H 	H 	0.5286	0.4213	0.1189	0.078
Mof_H 	H 	0.6593	0.3791	0.2128	0.045
Mof_H 	H 	0.5634	0.5387	0.0649	0.012
Mof_H 	H 	0.7031	0.4898	0.1618	0.03
Mof_H 	H 	0.0077	0.1039	0.5614	0.026
Mof_H 	H 	0.1754	0.9744	0.6508	0.032
Mof_H 	H 	0.1025	0.8936	0.6808	0.048
Mof_H 	H 	0.9378	0.0142	0.6016	0.092
Mof_H 	H 	0.9966	0.9254	0.6112	0.101
Mof_H 	H 	0.9236	0.0268	0.7318	0.051
Mof_H 	H 	0.9057	0.8687	0.6934	0.052
Mof_H 	H 	0.8522	0.9919	0.8425	0.075
Mof_H 	H 	0.8187	0.8465	0.7999	0.068
Mof_H 	H 	0.8236	0.8525	0.9352	0.112
Mof_H 	H 	0.7575	0.9376	0.9241	0.112
Mof_H 	H 	0.7691	0.7539	0.9893	0.028
Mof_H 	H 	0.659	0.9351	0.8584	0.042
Mof_H 	H 	0.5994	0.8385	0.9113	0.035
Mof_H 	H 	0.2145	0.9841	0.5032	0.033
Mof_H 	H 	0.3981	0.016	0.3502	0.044
Mof_H 	H 	0.3206	0.1305	0.3919	0.03
Mof_H 	H 	0.2976	0.8736	0.4528	0.099
Mof_H 	H 	0.3864	0.8607	0.4348	0.102
Mof_H 	H 	0.2402	0.9431	0.3523	0.075
Mof_H 	H 	0.4702	0.843	0.3301	0.067
Mof_H 	H 	0.2637	0.9429	0.2443	0.06
Mof_H 	H 	0.4928	0.8478	0.2191	0.055
Mof_H 	H 	0.3454	0.913	0.1435	0.091
Mof_H 	H 	0.4213	0.9312	0.1189	0.08
Mof_H 	H 	0.3791	0.7488	0.2128	0.045
Mof_H 	H 	0.5387	0.833	0.0649	0.013
Mof_H 	H 	0.4898	0.6453	0.1618	0.03
Mof_H 	H 	0.1039	0.327	0.5614	0.027
Mof_H 	H 	0.9744	0.1994	0.6508	0.032
Mof_H 	H 	0.8936	0.3231	0.6808	0.048
Mof_H 	H 	0.0142	0.4464	0.6016	0.09
Mof_H 	H 	0.9254	0.4668	0.6112	0.099
Mof_H 	H 	0.0268	0.3178	0.7318	0.046
Mof_H 	H 	0.8687	0.5322	0.6934	0.051
Mof_H 	H 	0.9919	0.3134	0.8425	0.077
Mof_H 	H 	0.8465	0.5349	0.7999	0.069
Mof_H 	H 	0.8525	0.3887	0.9352	0.113
Mof_H 	H 	0.9376	0.3808	0.9241	0.113
Mof_H 	H 	0.7539	0.4877	0.9893	0.029
Mof_H 	H 	0.9351	0.5475	0.8584	0.042
Mof_H 	H 	0.8385	0.6508	0.9113	0.035
Mof_C 	C 	0.00644	0.27244	0.46978	0.07
Mof_C 	C 	0.023	0.2393	0.3865	-0.007
Mof_C 	C 	0.0853	0.1961	0.4096	0.018
Mof_C 	C 	0.89503	0.34573	0.42091	-0.138
Mof_C 	C 	0.89549	0.40139	0.34993	0.084
Mof_C 	C 	0.92343	0.45933	0.32521	-0.076
Mof_C 	C 	0.8648	0.395	0.3121	-0.085
Mof_C 	C 	0.923	0.5097	0.2611	-0.065
Mof_C 	C 	0.8664	0.4457	0.2467	-0.056
Mof_C 	C 	0.8948	0.5041	0.2221	0.057
Mof_C 	C 	0.8943	0.5582	0.1522	-0.118
Mof_C 	C 	0.7533	0.6452	0.1771	-0.007
Mof_C 	C 	0.7983	0.5927	0.0961	0.096
Mof_C 	C 	0.69706	0.66806	0.14902	0.018
Mof_C 	C 	0.30983	0.04073	0.58771	0.08
Mof_C 	C 	0.241	0.1318	0.6364	0.009
Mof_C 	C 	0.3085	0.0923	0.6532	-0.001
Mof_C 	C 	0.42842	0.97232	0.62884	-0.135
Mof_C 	C 	0.4231	0.9262	0.7006	0.067
Mof_C 	C 	0.3615	0.9062	0.7462	-0.059
Mof_C 	C 	0.4874	0.8938	0.7231	-0.063
Mof_C 	C 	0.35928	0.86198	0.81226	-0.092
Mof_C 	C 	0.4882	0.8447	0.7873	-0.076
Mof_C 	C 	0.4206	0.8324	0.8347	0.09
Mof_C 	C 	0.4142	0.7868	0.9082	-0.156
Mof_C 	C 	0.516	0.7335	0.9632	0.086
Mof_C 	C 	0.5479	0.6738	0.8914	-0.009
Mof_C 	C 	0.6037	0.642	0.9206	0.015
Mof_C 	C 	0.27244	0.25134	0.46978	0.085
Mof_C 	C 	0.2393	0.3512	0.3865	-0
Mof_C 	C 	0.1961	0.309	0.4096	0.016
Mof_C 	C 	0.34573	0.33833	0.42091	-0.136
Mof_C 	C 	0.40139	0.35319	0.34993	0.083
Mof_C 	C 	0.45933	0.29203	0.32521	-0.076
Mof_C 	C 	0.395	0.4281	0.3121	-0.085
Mof_C 	C 	0.5097	0.3062	0.2611	-0.065
Mof_C 	C 	0.4457	0.4412	0.2467	-0.056
Mof_C 	C 	0.5041	0.379	0.2221	0.056
Mof_C 	C 	0.5582	0.3953	0.1522	-0.117
Mof_C 	C 	0.6452	0.4244	0.1771	-0.007
Mof_C 	C 	0.5927	0.5129	0.0961	0.096
Mof_C 	C 	0.66806	0.48586	0.14902	0.018
Mof_C 	C 	0.04073	0.06173	0.58771	0.074
Mof_C 	C 	0.1318	0.9908	0.6364	0.015
Mof_C 	C 	0.0923	0.946	0.6532	-0.002
Mof_C 	C 	0.97232	0.97042	0.62884	-0.127
Mof_C 	C 	0.9262	0.9501	0.7006	0.059
Mof_C 	C 	0.9062	0.9861	0.7462	-0.047
Mof_C 	C 	0.8938	0.8957	0.7231	-0.057
Mof_C 	C 	0.86198	0.96648	0.81226	-0.099
Mof_C 	C 	0.8447	0.8798	0.7873	-0.08
Mof_C 	C 	0.8324	0.9123	0.8347	0.095
Mof_C 	C 	0.7868	0.8908	0.9082	-0.158
Mof_C 	C 	0.7335	0.7873	0.9632	0.086
Mof_C 	C 	0.6738	0.8869	0.8914	-0.009
Mof_C 	C 	0.642	0.8337	0.9206	0.016
Mof_C 	C 	0.25134	0.00644	0.46978	0.069
Mof_C 	C 	0.3512	0.023	0.3865	-0.007
Mof_C 	C 	0.309	0.0853	0.4096	0.018
Mof_C 	C 	0.33833	0.89503	0.42091	-0.137
Mof_C 	C 	0.35319	0.89549	0.34993	0.084
Mof_C 	C 	0.29203	0.92343	0.32521	-0.076
Mof_C 	C 	0.4281	0.8648	0.3121	-0.085
Mof_C 	C 	0.3062	0.923	0.2611	-0.065
Mof_C 	C 	0.4412	0.8664	0.2467	-0.056
Mof_C 	C 	0.379	0.8948	0.2221	0.057
Mof_C 	C 	0.3953	0.8943	0.1522	-0.118
Mof_C 	C 	0.4244	0.7533	0.1771	-0.007
Mof_C 	C 	0.5129	0.7983	0.0961	0.096
Mof_C 	C 	0.48586	0.69706	0.14902	0.018
Mof_C 	C 	0.06173	0.30983	0.58771	0.076
Mof_C 	C 	0.9908	0.241	0.6364	0.015
Mof_C 	C 	0.946	0.3085	0.6532	-0.001
Mof_C 	C 	0.97042	0.42842	0.62884	-0.124
Mof_C 	C 	0.9501	0.4231	0.7006	0.055
Mof_C 	C 	0.9861	0.3615	0.7462	-0.04
Mof_C 	C 	0.8957	0.4874	0.7231	-0.054
Mof_C 	C 	0.96648	0.35928	0.81226	-0.104
Mof_C 	C 	0.8798	0.4882	0.7873	-0.083
Mof_C 	C 	0.9123	0.4206	0.8347	0.098
Mof_C 	C 	0.8908	0.4142	0.9082	-0.16
Mof_C 	C 	0.7873	0.516	0.9632	0.086
Mof_C 	C 	0.8869	0.5479	0.8914	-0.009
Mof_C 	C 	0.8337	0.6037	0.9206	0.016
Mof_N 	N 	0.07423	0.21603	0.46231	-0.141
Mof_N 	N 	0.97135	0.29005	0.42445	-0.086
Mof_N 	N 	0.81858	0.59678	0.14116	-0.1
Mof_N 	N 	0.72572	0.63362	0.09994	-0.146
Mof_N 	N 	0.24168	0.09938	0.59506	-0.141
Mof_N 	N 	0.35138	0.03388	0.62236	-0.097
Mof_N 	N 	0.49079	0.73179	0.91993	-0.096
Mof_N 	N 	0.58376	0.67996	0.96512	-0.142
Mof_N 	N 	0.21603	0.24743	0.46231	-0.142
Mof_N 	N 	0.29005	0.31415	0.42445	-0.093
Mof_N 	N 	0.59678	0.44348	0.14116	-0.1
Mof_N 	N 	0.63362	0.54072	0.09994	-0.146
Mof_N 	N 	0.09938	0.06388	0.59506	-0.143
Mof_N 	N 	0.03388	0.99238	0.62236	-0.094
Mof_N 	N 	0.73179	0.85749	0.91993	-0.096
Mof_N 	N 	0.67996	0.77116	0.96512	-0.142
Mof_N 	N 	0.24743	0.07423	0.46231	-0.14
Mof_N 	N 	0.31415	0.97135	0.42445	-0.086
Mof_N 	N 	0.44348	0.81858	0.14116	-0.1
Mof_N 	N 	0.54072	0.72572	0.09994	-0.146
Mof_N 	N 	0.06388	0.24168	0.59506	-0.143
Mof_N 	N 	0.99238	0.35138	0.62236	-0.093
Mof_N 	N 	0.85749	0.49079	0.91993	-0.095
Mof_N 	N 	0.77116	0.58376	0.96512	-0.142
Mof_Cd	Cd	0.84345	0.84345	0.46965	0.383
Mof_Cd	Cd	0.34389	0.34389	0.96833	0.386
Mof_H 	H 	0.0159	0.7018	0.4968	0.019
Mof_H 	H 	0.984	0.7643	0.6498	0.044
Mof_H 	H 	0.8695	0.843	0.6081	0.032
Mof_H 	H 	0.1264	0.624	0.5472	0.097
Mof_H 	H 	0.1393	0.6819	0.5652	0.1
Mof_H 	H 	0.0569	0.5356	0.6477	0.074
Mof_H 	H 	0.157	0.6433	0.6699	0.066
Mof_H 	H 	0.0571	0.4509	0.7557	0.057
Mof_H 	H 	0.1522	0.5597	0.7809	0.055
Mof_H 	H 	0.087	0.4019	0.8565	0.089
Mof_H 	H 	0.0688	0.4714	0.8811	0.078
Mof_H 	H 	0.2512	0.3407	0.7872	0.045
Mof_H 	H 	0.167	0.4366	0.9351	0.014
Mof_H 	H 	0.3547	0.2969	0.8382	0.03
Mof_H 	H 	0.673	0.9923	0.4386	0.028
Mof_H 	H 	0.8006	0.8246	0.3492	0.032
Mof_H 	H 	0.6769	0.8975	0.3192	0.048
Mof_H 	H 	0.5536	0.0622	0.3984	0.097
Mof_H 	H 	0.5332	0.0034	0.3888	0.102
Mof_H 	H 	0.6822	0.0764	0.2682	0.056
Mof_H 	H 	0.4678	0.0943	0.3066	0.054
Mof_H 	H 	0.6866	0.1478	0.1575	0.07
Mof_H 	H 	0.4651	0.1813	0.2001	0.065
Mof_H 	H 	0.6113	0.1764	0.0648	0.108
Mof_H 	H 	0.6192	0.2425	0.0759	0.108
Mof_H 	H 	0.5123	0.2309	0.0107	0.024
Mof_H 	H 	0.4525	0.341	0.1416	0.041
Mof_H 	H 	0.3492	0.4006	0.0887	0.034
Mof_H 	H 	0.7018	0.7855	0.4968	0.025
Mof_H 	H 	0.7643	0.6019	0.6498	0.044
Mof_H 	H 	0.843	0.6794	0.6081	0.032
Mof_H 	H 	0.624	0.7024	0.5472	0.098
Mof_H 	H 	0.6819	0.6136	0.5652	0.101
Mof_H 	H 	0.5356	0.7598	0.6477	0.074
Mof_H 	H 	0.6433	0.5298	0.6699	0.067
Mof_H 	H 	0.4509	0.7363	0.7557	0.058
Mof_H 	H 	0.5597	0.5072	0.7809	0.055
Mof_H 	H 	0.4019	0.6546	0.8565	0.09
Mof_H 	H 	0.4714	0.5787	0.8811	0.08
Mof_H 	H 	0.3407	0.6209	0.7872	0.045
Mof_H 	H 	0.4366	0.4613	0.9351	0.015
Mof_H 	H 	0.2969	0.5102	0.8382	0.03
Mof_H 	H 	0.9923	0.8961	0.4386	0.027
Mof_H 	H 	0.8246	0.0256	0.3492	0.032
Mof_H 	H 	0.8975	0.1064	0.3192	0.048
Mof_H 	H 	0.0622	0.9858	0.3984	0.108
Mof_H 	H 	0.0034	0.0746	0.3888	0.107
Mof_H 	H 	0.0764	0.9732	0.2682	0.07
Mof_H 	H 	0.0943	0.1313	0.3066	0.058
Mof_H 	H 	0.1478	0.0081	0.1575	0.062
Mof_H 	H 	0.1813	0.1535	0.2001	0.061
Mof_H 	H 	0.1764	0.1475	0.0648	0.106
Mof_H 	H 	0.2425	0.0624	0.0759	0.104
Mof_H 	H 	0.2309	0.2461	0.0107	0.024
Mof_H 	H 	0.341	0.0649	0.1416	0.039
Mof_H 	H 	0.4006	0.1615	0.0887	0.034
Mof_H 	H 	0.7855	0.0159	0.4968	0.019
Mof_H 	H 	0.6019	0.984	0.6498	0.044
Mof_H 	H 	0.6794	0.8695	0.6081	0.032
Mof_H 	H 	0.7024	0.1264	0.5472	0.097
Mof_H 	H 	0.6136	0.1393	0.5652	0.1
Mof_H 	H 	0.7598	0.0569	0.6477	0.074
Mof_H 	H 	0.5298	0.157	0.6699	0.066
Mof_H 	H 	0.7363	0.0571	0.7557	0.057
Mof_H 	H 	0.5072	0.1522	0.7809	0.055
Mof_H 	H 	0.6546	0.087	0.8565	0.09
Mof_H 	H 	0.5787	0.0688	0.8811	0.079
Mof_H 	H 	0.6209	0.2512	0.7872	0.045
Mof_H 	H 	0.4613	0.167	0.9351	0.014
Mof_H 	H 	0.5102	0.3547	0.8382	0.03
Mof_H 	H 	0.8961	0.673	0.4386	0.025
Mof_H 	H 	0.0256	0.8006	0.3492	0.033
Mof_H 	H 	0.1064	0.6769	0.3192	0.047
Mof_H 	H 	0.9858	0.5536	0.3984	0.105
Mof_H 	H 	0.0746	0.5332	0.3888	0.106
Mof_H 	H 	0.9732	0.6822	0.2682	0.067
Mof_H 	H 	0.1313	0.4678	0.3066	0.057
Mof_H 	H 	0.0081	0.6866	0.1575	0.064
Mof_H 	H 	0.1535	0.4651	0.2001	0.062
Mof_H 	H 	0.1475	0.6113	0.0648	0.107
Mof_H 	H 	0.0624	0.6192	0.0759	0.105
Mof_H 	H 	0.2461	0.5123	0.0107	0.024
Mof_H 	H 	0.0649	0.4525	0.1416	0.039
Mof_H 	H 	0.1615	0.3492	0.0887	0.033
Mof_C 	C 	0.99356	0.72756	0.53022	0.096
Mof_C 	C 	0.977	0.7607	0.6135	0.005
Mof_C 	C 	0.9147	0.8039	0.5904	0.014
Mof_C 	C 	0.10497	0.65427	0.57909	-0.134
Mof_C 	C 	0.10451	0.59861	0.65007	0.081
Mof_C 	C 	0.07657	0.54067	0.67479	-0.076
Mof_C 	C 	0.1352	0.605	0.6879	-0.085
Mof_C 	C 	0.077	0.4903	0.7389	-0.065
Mof_C 	C 	0.1336	0.5543	0.7533	-0.057
Mof_C 	C 	0.1052	0.4959	0.7779	0.055
Mof_C 	C 	0.1057	0.4418	0.8478	-0.116
Mof_C 	C 	0.2467	0.3548	0.8229	-0.007
Mof_C 	C 	0.2017	0.4073	0.9039	0.097
Mof_C 	C 	0.30294	0.33194	0.85098	0.019
Mof_C 	C 	0.69017	0.95927	0.41229	0.081
Mof_C 	C 	0.759	0.8682	0.3636	0.01
Mof_C 	C 	0.6915	0.9077	0.3468	0
Mof_C 	C 	0.57158	0.02768	0.37116	-0.143
Mof_C 	C 	0.5769	0.0738	0.2994	0.068
Mof_C 	C 	0.6385	0.0938	0.2538	-0.062
Mof_C 	C 	0.5126	0.1062	0.2769	-0.066
Mof_C 	C 	0.64072	0.13802	0.18774	-0.09
Mof_C 	C 	0.5118	0.1553	0.2127	-0.074
Mof_C 	C 	0.5794	0.1676	0.1653	0.087
Mof_C 	C 	0.5858	0.2132	0.0918	-0.154
Mof_C 	C 	0.484	0.2665	0.0368	0.085
Mof_C 	C 	0.4521	0.3262	0.1086	-0.009
Mof_C 	C 	0.3963	0.358	0.0794	0.014
Mof_C 	C 	0.72756	0.74866	0.53022	0.085
Mof_C 	C 	0.7607	0.6488	0.6135	0
Mof_C 	C 	0.8039	0.691	0.5904	0.016
Mof_C 	C 	0.65427	0.66167	0.57909	-0.136
Mof_C 	C 	0.59861	0.64681	0.65007	0.082
Mof_C 	C 	0.54067	0.70797	0.67479	-0.076
Mof_C 	C 	0.605	0.5719	0.6879	-0.085
Mof_C 	C 	0.4903	0.6938	0.7389	-0.065
Mof_C 	C 	0.5543	0.5588	0.7533	-0.057
Mof_C 	C 	0.4959	0.621	0.7779	0.056
Mof_C 	C 	0.4418	0.6047	0.8478	-0.117
Mof_C 	C 	0.3548	0.5756	0.8229	-0.007
Mof_C 	C 	0.4073	0.4871	0.9039	0.097
Mof_C 	C 	0.33194	0.51414	0.85098	0.019
Mof_C 	C 	0.95927	0.93827	0.41229	0.084
Mof_C 	C 	0.8682	0.0092	0.3636	0.006
Mof_C 	C 	0.9077	0.054	0.3468	0
Mof_C 	C 	0.02768	0.02958	0.37116	-0.166
Mof_C 	C 	0.0738	0.0499	0.2994	0.086
Mof_C 	C 	0.0938	0.0139	0.2538	-0.091
Mof_C 	C 	0.1062	0.1043	0.2769	-0.081
Mof_C 	C 	0.13802	0.03352	0.18774	-0.072
Mof_C 	C 	0.1553	0.1202	0.2127	-0.063
Mof_C 	C 	0.1676	0.0877	0.1653	0.075
Mof_C 	C 	0.2132	0.1092	0.0918	-0.147
Mof_C 	C 	0.2665	0.2127	0.0368	0.085
Mof_C 	C 	0.3262	0.1131	0.1086	-0.009
Mof_C 	C 	0.358	0.1663	0.0794	0.013
Mof_C 	C 	0.74866	0.99356	0.53022	0.096
Mof_C 	C 	0.6488	0.977	0.6135	0.005
Mof_C 	C 	0.691	0.9147	0.5904	0.014
Mof_C 	C 	0.66167	0.10497	0.57909	-0.134
Mof_C 	C 	0.64681	0.10451	0.65007	0.081
Mof_C 	C 	0.70797	0.07657	0.67479	-0.076
Mof_C 	C 	0.5719	0.1352	0.6879	-0.085
Mof_C 	C 	0.6938	0.077	0.7389	-0.065
Mof_C 	C 	0.5588	0.1336	0.7533	-0.057
Mof_C 	C 	0.621	0.1052	0.7779	0.056
Mof_C 	C 	0.6047	0.1057	0.8478	-0.117
Mof_C 	C 	0.5756	0.2467	0.8229	-0.007
Mof_C 	C 	0.4871	0.2017	0.9039	0.097
Mof_C 	C 	0.51414	0.30294	0.85098	0.019
Mof_C 	C 	0.93827	0.69017	0.41229	0.085
Mof_C 	C 	0.0092	0.759	0.3636	0.005
Mof_C 	C 	0.054	0.6915	0.3468	0
Mof_C 	C 	0.02958	0.57158	0.37116	-0.155
Mof_C 	C 	0.0499	0.5769	0.2994	0.081
Mof_C 	C 	0.0139	0.6385	0.2538	-0.082
Mof_C 	C 	0.1043	0.5126	0.2769	-0.076
Mof_C 	C 	0.03352	0.64072	0.18774	-0.077
Mof_C 	C 	0.1202	0.5118	0.2127	-0.066
Mof_C 	C 	0.0877	0.5794	0.1653	0.079
Mof_C 	C 	0.1092	0.5858	0.0918	-0.149
Mof_C 	C 	0.2127	0.484	0.0368	0.085
Mof_C 	C 	0.1131	0.4521	0.1086	-0.009
Mof_C 	C 	0.1663	0.3963	0.0794	0.013
Mof_N 	N 	0.92577	0.78397	0.53769	-0.144
Mof_N 	N 	0.02865	0.70995	0.57555	-0.098
Mof_N 	N 	0.18142	0.40322	0.85884	-0.1
Mof_N 	N 	0.27428	0.36638	0.90006	-0.145
Mof_N 	N 	0.75832	0.90062	0.40494	-0.14
Mof_N 	N 	0.64862	0.96612	0.37764	-0.092
Mof_N 	N 	0.50921	0.26821	0.08007	-0.097
Mof_N 	N 	0.41624	0.32004	0.03488	-0.145
Mof_N 	N 	0.78397	0.75257	0.53769	-0.142
Mof_N 	N 	0.70995	0.68585	0.57555	-0.093
Mof_N 	N 	0.40322	0.55652	0.85884	-0.099
Mof_N 	N 	0.36638	0.45928	0.90006	-0.145
Mof_N 	N 	0.90062	0.93612	0.40494	-0.138
Mof_N 	N 	0.96612	0.00762	0.37764	-0.091
Mof_N 	N 	0.26821	0.14251	0.08007	-0.098
Mof_N 	N 	0.32004	0.22884	0.03488	-0.145
Mof_N 	N 	0.75257	0.92577	0.53769	-0.144
Mof_N 	N 	0.68585	0.02865	0.57555	-0.098
Mof_N 	N 	0.55652	0.18142	0.85884	-0.1
Mof_N 	N 	0.45928	0.27428	0.90006	-0.145
Mof_N 	N 	0.93612	0.75832	0.40494	-0.139
Mof_N 	N 	0.00762	0.64862	0.37764	-0.095
Mof_N 	N 	0.14251	0.50921	0.08007	-0.098
Mof_N 	N 	0.22884	0.41624	0.03488	-0.145
Mof_Cl	Cl	0.84959	0.1636	0.48544	-0.215
Mof_O 	O 	0.88354	0.18944	0.41368	-0.052
Mof_O 	O 	0.89198	0.16338	0.52006	-0.05
Mof_O 	O 	0.85122	0.08702	0.50374	-0.05
Mof_O 	O 	0.77099	0.21619	0.50353	-0.056
Mof_Cl	Cl	0.67355	0.05915	0.99295	-0.213
Mof_O 	O 	0.6563	0.9973	0.0075	-0.043
Mof_O 	O 	0.6189	0.1338	0.9733	-0.045
Mof_O 	O 	0.6944	0.0574	0.0426	-0.047
Mof_O 	O 	0.7423	0.0567	0.934	-0.064
Mof_Cl	Cl	0.1636	0.50137	0.48544	-0.214
Mof_O 	O 	0.18944	0.51334	0.41368	-0.054
Mof_O 	O 	0.16338	0.42458	0.52006	-0.052
Mof_O 	O 	0.08702	0.55802	0.50374	-0.051
Mof_O 	O 	0.21619	0.50929	0.50353	-0.056
Mof_Cl	Cl	0.05915	0.27435	0.99295	-0.212
Mof_O 	O 	0.9973	0.3389	0.0075	-0.043
Mof_O 	O 	0.1338	0.274	0.9733	-0.045
Mof_O 	O 	0.0574	0.2056	0.0426	-0.049
Mof_O 	O 	0.0567	0.267	0.934	-0.065
Mof_Cl	Cl	0.50137	0.84959	0.48544	-0.215
Mof_O 	O 	0.51334	0.88354	0.41368	-0.052
Mof_O 	O 	0.42458	0.89198	0.52006	-0.05
Mof_O 	O 	0.55802	0.85122	0.50374	-0.05
Mof_O 	O 	0.50929	0.77099	0.50353	-0.056
Mof_Cl	Cl	0.27435	0.67355	0.99295	-0.209
Mof_O 	O 	0.3389	0.6563	0.0075	-0.048
Mof_O 	O 	0.274	0.6189	0.9733	-0.046
Mof_O 	O 	0.2056	0.6944	0.0426	-0.046
Mof_O 	O 	0.267	0.7423	0.934	-0.063
Mof_Cl	Cl	0.15041	0.8364	0.51456	-0.214
Mof_O 	O 	0.11646	0.81056	0.58632	-0.054
Mof_O 	O 	0.10802	0.83662	0.47994	-0.053
Mof_O 	O 	0.14878	0.91298	0.49626	-0.05
Mof_O 	O 	0.22901	0.78381	0.49647	-0.056
Mof_Cl	Cl	0.32645	0.94085	0.00705	-0.228
Mof_O 	O 	0.3437	0.0027	0.9925	-0.037
Mof_O 	O 	0.3811	0.8662	0.0267	-0.047
Mof_O 	O 	0.3056	0.9426	0.9574	-0.033
Mof_O 	O 	0.2577	0.9433	0.066	-0.06
Mof_Cl	Cl	0.8364	0.49863	0.51456	-0.215
Mof_O 	O 	0.81056	0.48666	0.58632	-0.053
Mof_O 	O 	0.83662	0.57542	0.47994	-0.052
Mof_O 	O 	0.91298	0.44198	0.49626	-0.049
Mof_O 	O 	0.78381	0.49071	0.49647	-0.056
Mof_Cl	Cl	0.94085	0.72565	0.00705	-0.227
Mof_O 	O 	0.0027	0.6611	0.9925	-0.038
Mof_O 	O 	0.8662	0.726	0.0267	-0.047
Mof_O 	O 	0.9426	0.7944	0.9574	-0.035
Mof_O 	O 	0.9433	0.733	0.066	-0.06
Mof_Cl	Cl	0.49863	0.15041	0.51456	-0.214
Mof_O 	O 	0.48666	0.11646	0.58632	-0.055
Mof_O 	O 	0.57542	0.10802	0.47994	-0.053
Mof_O 	O 	0.44198	0.14878	0.49626	-0.051
Mof_O 	O 	0.49071	0.22901	0.49647	-0.056
Mof_Cl	Cl	0.72565	0.32645	0.00705	-0.233
Mof_O 	O 	0.6611	0.3437	0.9925	-0.033
Mof_O 	O 	0.726	0.3811	0.0267	-0.046
Mof_O 	O 	0.7944	0.3056	0.9574	-0.033
Mof_O 	O 	0.733	0.2577	0.066	-0.062
_end
