data_functionalizedCrystal
_audit_creation_method	'EQeq! by Chris Wilmer'
_symmetry_space_group_name_H-M	'P1'
_symmetry_Int_Tables_number	1
_symmetry_cell_setting	triclinic
loop_
_symmetry_equiv_pos_as_xyz
  x,y,z
_cell_length_a	10.273
_cell_length_b	11.318
_cell_length_c	16.461
_cell_angle_alpha	90
_cell_angle_beta	100.064
_cell_angle_gamma	90
loop_
_atom_site_label
_atom_site_type_symbol
_atom_site_fract_x
_atom_site_fract_y
_atom_site_fract_z
_atom_site_charge
Mof_In	In	0.73797	0.19724	0.07669	2.386
Mof_Br	Br	0.71171	0.36718	0.96834	-0.482
Mof_O 	O 	0.1056	0.7998	0.3391	-0.503
Mof_O 	O 	0.5722	0.6622	0.458	-0.455
Mof_O 	O 	0.7667	0.0552	0.1671	-0.656
Mof_O 	O 	0.0431	0.6738	0.4255	-0.5
Mof_O 	O 	0.4198	0.7521	0.3647	-0.637
Mof_C 	C 	0.68	0.979	0.1755	0.534
Mof_O 	O 	0.5748	0.9603	0.1275	-0.441
Mof_C 	C 	0.612	0.8502	0.2864	0.114
Mof_H 	H 	0.5241	0.8685	0.2661	0.036
Mof_C 	C 	0.8436	0.8717	0.281	0.097
Mof_H 	H 	0.9111	0.9087	0.2596	0.05
Mof_O 	O 	0.6715	0.0741	0.986	-0.616
Mof_C 	C 	0.015	0.7522	0.3701	0.343
Mof_C 	C 	0.5378	0.7243	0.395	0.454
Mof_C 	C 	0.7127	0.8995	0.2503	-0.156
Mof_C 	C 	0.644	0.7737	0.3526	-0.14
Mof_C 	C 	0.7756	0.7397	0.3792	0.082
Mof_H 	H 	0.7965	0.684	0.421	0.042
Mof_C 	C 	0.8739	0.7893	0.3432	-0.106
Mof_In	In	0.26203	0.69724	0.42331	2.536
Mof_Br	Br	0.28829	0.86718	0.53166	-0.518
Mof_O 	O 	0.8944	0.2998	0.1609	-0.505
Mof_O 	O 	0.4278	0.1622	0.042	-0.484
Mof_O 	O 	0.2333	0.5552	0.3329	-0.604
Mof_O 	O 	0.9569	0.1738	0.0745	-0.519
Mof_O 	O 	0.5802	0.2521	0.1353	-0.634
Mof_C 	C 	0.32	0.479	0.3245	0.462
Mof_O 	O 	0.4252	0.4603	0.3725	-0.448
Mof_C 	C 	0.388	0.3502	0.2136	0.103
Mof_H 	H 	0.4759	0.3685	0.2339	0.03
Mof_C 	C 	0.1564	0.3717	0.219	0.086
Mof_H 	H 	0.0889	0.4087	0.2404	0.039
Mof_O 	O 	0.3285	0.5741	0.514	-0.66
Mof_C 	C 	0.985	0.2522	0.1299	0.337
Mof_C 	C 	0.4622	0.2243	0.105	0.445
Mof_C 	C 	0.2873	0.3995	0.2497	-0.149
Mof_C 	C 	0.356	0.2737	0.1474	-0.153
Mof_C 	C 	0.2244	0.2397	0.1208	0.079
Mof_H 	H 	0.2035	0.184	0.079	0.024
Mof_C 	C 	0.1261	0.2893	0.1568	-0.115
Mof_In	In	0.26203	0.80276	0.92331	2.651
Mof_Br	Br	0.28829	0.63282	0.03166	-0.608
Mof_O 	O 	0.8944	0.2002	0.6609	-0.515
Mof_O 	O 	0.4278	0.3378	0.542	-0.46
Mof_O 	O 	0.2333	0.9448	0.8329	-0.553
Mof_O 	O 	0.9569	0.3262	0.5745	-0.502
Mof_O 	O 	0.5802	0.2479	0.6353	-0.644
Mof_C 	C 	0.32	0.021	0.8245	0.395
Mof_O 	O 	0.4252	0.0397	0.8725	-0.429
Mof_C 	C 	0.388	0.1498	0.7136	0.087
Mof_H 	H 	0.4759	0.1315	0.7339	0.033
Mof_C 	C 	0.1564	0.1283	0.719	0.07
Mof_H 	H 	0.0889	0.0913	0.7404	0.036
Mof_O 	O 	0.3285	0.9259	0.014	-0.669
Mof_C 	C 	0.985	0.2478	0.6299	0.338
Mof_C 	C 	0.4622	0.2757	0.605	0.448
Mof_C 	C 	0.2873	0.1005	0.7497	-0.129
Mof_C 	C 	0.356	0.2263	0.6474	-0.139
Mof_C 	C 	0.2244	0.2603	0.6208	0.069
Mof_H 	H 	0.2035	0.316	0.579	0.043
Mof_C 	C 	0.1261	0.2107	0.6568	-0.103
Mof_In	In	0.73797	0.30276	0.57669	2.528
Mof_Br	Br	0.71171	0.13282	0.46834	-0.587
Mof_O 	O 	0.1056	0.7002	0.8391	-0.513
Mof_O 	O 	0.5722	0.8378	0.958	-0.419
Mof_O 	O 	0.7667	0.4448	0.6671	-0.599
Mof_O 	O 	0.0431	0.8262	0.9255	-0.485
Mof_O 	O 	0.4198	0.7479	0.8647	-0.643
Mof_C 	C 	0.68	0.521	0.6755	0.459
Mof_O 	O 	0.5748	0.5397	0.6275	-0.442
Mof_C 	C 	0.612	0.6498	0.7864	0.094
Mof_H 	H 	0.5241	0.6315	0.7661	0.04
Mof_C 	C 	0.8436	0.6283	0.781	0.074
Mof_H 	H 	0.9111	0.5913	0.7596	0.049
Mof_O 	O 	0.6715	0.4259	0.486	-0.661
Mof_C 	C 	0.015	0.7478	0.8701	0.334
Mof_C 	C 	0.5378	0.7757	0.895	0.451
Mof_C 	C 	0.7127	0.6005	0.7503	-0.132
Mof_C 	C 	0.644	0.7263	0.8526	-0.122
Mof_C 	C 	0.7756	0.7603	0.8792	0.065
Mof_H 	H 	0.7965	0.816	0.921	0.063
Mof_C 	C 	0.8739	0.7107	0.8432	-0.081
Mof_Co	Co	0.5	0	-0	1.128
Mof_Co	Co	0.5	0.5	0.5	1.182
_end
