data_functionalizedCrystal
_audit_creation_method	'EQeq! by Chris Wilmer'
_symmetry_space_group_name_H-M	'P1'
_symmetry_Int_Tables_number	1
_symmetry_cell_setting	triclinic
loop_
_symmetry_equiv_pos_as_xyz
  x,y,z
_cell_length_a	5.1474
_cell_length_b	18.232
_cell_length_c	26.783
_cell_angle_alpha	90
_cell_angle_beta	90.08
_cell_angle_gamma	90
loop_
_atom_site_label
_atom_site_type_symbol
_atom_site_fract_x
_atom_site_fract_y
_atom_site_fract_z
_atom_site_charge
Mof_La	La	0.8522	0.89441	0.52222	2.494
Mof_La	La	0.1478	0.39441	0.97778	2.499
Mof_La	La	0.1478	0.10559	0.47778	2.494
Mof_La	La	0.8522	0.60559	0.02222	2.499
Mof_H 	H 	0.6939	0.6763	0.5052	0.005
Mof_H 	H 	0.4796	0.5144	0.4132	0.036
Mof_H 	H 	0.1191	0.5837	0.3847	0.076
Mof_H 	H 	0.0794	0.7053	0.4153	0.018
Mof_H 	H 	0.0337	0.8405	0.6641	-0.006
Mof_H 	H 	0.2849	0.8825	0.8044	0.034
Mof_H 	H 	0.6174	0.9564	0.7706	0.075
Mof_H 	H 	0.6473	0.9662	0.6843	0.009
Mof_H 	H 	0.5762	0.664	0.8866	0.008
Mof_H 	H 	0.1736	0.6577	0.758	0.044
Mof_H 	H 	0.8774	0.5707	0.7926	0.069
Mof_H 	H 	0.9444	0.5358	0.8777	-0.001
Mof_H 	H 	0.3061	0.1763	0.9948	0.005
Mof_H 	H 	0.5204	0.0144	0.0868	0.036
Mof_H 	H 	0.8809	0.0837	0.1153	0.078
Mof_H 	H 	0.9206	0.2053	0.0847	0.019
Mof_H 	H 	0.9663	0.3405	0.8359	-0.005
Mof_H 	H 	0.7151	0.3825	0.6956	0.035
Mof_H 	H 	0.3826	0.4564	0.7294	0.076
Mof_H 	H 	0.3527	0.4662	0.8157	0.011
Mof_H 	H 	0.4238	0.164	0.6134	0.008
Mof_H 	H 	0.8264	0.1577	0.742	0.044
Mof_H 	H 	0.1226	0.0707	0.7074	0.067
Mof_H 	H 	0.0556	0.0358	0.6223	-0.003
Mof_H 	H 	0.3061	0.3237	0.4948	0.006
Mof_H 	H 	0.5204	0.4856	0.5868	0.037
Mof_H 	H 	0.8809	0.4163	0.6153	0.077
Mof_H 	H 	0.9206	0.2947	0.5847	0.019
Mof_H 	H 	0.9663	0.1595	0.3359	-0.005
Mof_H 	H 	0.7151	0.1175	0.1956	0.035
Mof_H 	H 	0.3826	0.0436	0.2294	0.076
Mof_H 	H 	0.3527	0.0338	0.3157	0.01
Mof_H 	H 	0.4238	0.336	0.1134	0.008
Mof_H 	H 	0.8264	0.3423	0.242	0.044
Mof_H 	H 	0.1226	0.4293	0.2074	0.069
Mof_H 	H 	0.0556	0.4642	0.1223	-0.001
Mof_H 	H 	0.6939	0.8237	0.0052	0.005
Mof_H 	H 	0.4796	0.9856	0.9132	0.036
Mof_H 	H 	0.1191	0.9163	0.8847	0.078
Mof_H 	H 	0.0794	0.7947	0.9153	0.019
Mof_H 	H 	0.0337	0.6595	0.1641	-0.005
Mof_H 	H 	0.2849	0.6175	0.3044	0.035
Mof_H 	H 	0.6174	0.5436	0.2706	0.076
Mof_H 	H 	0.6473	0.5338	0.1843	0.011
Mof_H 	H 	0.5762	0.836	0.3866	0.008
Mof_H 	H 	0.1736	0.8423	0.258	0.044
Mof_H 	H 	0.8774	0.9293	0.2926	0.067
Mof_H 	H 	0.9444	0.9642	0.3777	-0.003
Mof_C 	C 	0.322	0.7756	0.4862	0.558
Mof_C 	C 	0.378	0.7033	0.462	-0.206
Mof_C 	C 	0.578	0.6585	0.4805	0.073
Mof_C 	C 	0.603	0.5879	0.4621	-0.061
Mof_C 	C 	0.448	0.5618	0.4265	0.026
Mof_C 	C 	0.239	0.6029	0.4084	-0.108
Mof_C 	C 	0.216	0.6752	0.4275	0.092
Mof_C 	C 	0.823	0.542	0.4824	0.126
Mof_C 	C 	0.394	0.9084	0.6102	0.608
Mof_C 	C 	0.337	0.9001	0.6667	-0.222
Mof_C 	C 	0.152	0.864	0.686	0.116
Mof_C 	C 	0.11	0.8565	0.7373	-0.077
Mof_C 	C 	0.297	0.8894	0.7693	0.03
Mof_C 	C 	0.497	0.9319	0.7495	-0.121
Mof_C 	C 	0.514	0.9371	0.6986	0.09
Mof_C 	C 	0.917	0.8085	0.7585	0.127
Mof_C 	C 	0.581	0.7208	0.7957	0.123
Mof_C 	C 	0.338	0.5628	0.9416	0.574
Mof_C 	C 	0.279	0.593	0.8882	-0.19
Mof_C 	C 	0.438	0.6438	0.8674	0.068
Mof_C 	C 	0.401	0.667	0.8177	-0.06
Mof_C 	C 	0.198	0.6411	0.7913	0.014
Mof_C 	C 	0.019	0.5895	0.8115	-0.105
Mof_C 	C 	0.064	0.5679	0.8618	0.082
Mof_C 	C 	0.678	0.2756	0.0138	0.559
Mof_C 	C 	0.622	0.2033	0.038	-0.206
Mof_C 	C 	0.422	0.1585	0.0195	0.073
Mof_C 	C 	0.397	0.0879	0.0379	-0.061
Mof_C 	C 	0.552	0.0618	0.0735	0.026
Mof_C 	C 	0.761	0.1029	0.0916	-0.108
Mof_C 	C 	0.784	0.1752	0.0725	0.092
Mof_C 	C 	0.177	0.042	0.0176	0.125
Mof_C 	C 	0.606	0.4084	0.8898	0.608
Mof_C 	C 	0.663	0.4001	0.8333	-0.223
Mof_C 	C 	0.848	0.364	0.814	0.116
Mof_C 	C 	0.89	0.3565	0.7627	-0.078
Mof_C 	C 	0.703	0.3894	0.7307	0.03
Mof_C 	C 	0.503	0.4319	0.7505	-0.121
Mof_C 	C 	0.486	0.4371	0.8014	0.09
Mof_C 	C 	0.083	0.3085	0.7415	0.128
Mof_C 	C 	0.419	0.2208	0.7043	0.123
Mof_C 	C 	0.662	0.0628	0.5584	0.574
Mof_C 	C 	0.721	0.093	0.6118	-0.191
Mof_C 	C 	0.562	0.1438	0.6326	0.068
Mof_C 	C 	0.599	0.167	0.6823	-0.059
Mof_C 	C 	0.802	0.1411	0.7087	0.013
Mof_C 	C 	0.981	0.0895	0.6885	-0.102
Mof_C 	C 	0.936	0.0679	0.6382	0.085
Mof_C 	C 	0.678	0.2244	0.5138	0.558
Mof_C 	C 	0.622	0.2967	0.538	-0.206
Mof_C 	C 	0.422	0.3415	0.5195	0.073
Mof_C 	C 	0.397	0.4121	0.5379	-0.061
Mof_C 	C 	0.552	0.4382	0.5735	0.026
Mof_C 	C 	0.761	0.3971	0.5916	-0.108
Mof_C 	C 	0.784	0.3248	0.5725	0.092
Mof_C 	C 	0.177	0.458	0.5176	0.126
Mof_C 	C 	0.606	0.0916	0.3898	0.608
Mof_C 	C 	0.663	0.0999	0.3333	-0.222
Mof_C 	C 	0.848	0.136	0.314	0.116
Mof_C 	C 	0.89	0.1435	0.2627	-0.077
Mof_C 	C 	0.703	0.1106	0.2307	0.03
Mof_C 	C 	0.503	0.0681	0.2505	-0.121
Mof_C 	C 	0.486	0.0629	0.3014	0.09
Mof_C 	C 	0.083	0.1915	0.2415	0.127
Mof_C 	C 	0.419	0.2792	0.2043	0.123
Mof_C 	C 	0.662	0.4372	0.0584	0.574
Mof_C 	C 	0.721	0.407	0.1118	-0.19
Mof_C 	C 	0.562	0.3562	0.1326	0.068
Mof_C 	C 	0.599	0.333	0.1823	-0.06
Mof_C 	C 	0.802	0.3589	0.2087	0.014
Mof_C 	C 	0.981	0.4105	0.1885	-0.105
Mof_C 	C 	0.936	0.4321	0.1382	0.082
Mof_C 	C 	0.322	0.7244	0.9862	0.559
Mof_C 	C 	0.378	0.7967	0.962	-0.206
Mof_C 	C 	0.578	0.8415	0.9805	0.073
Mof_C 	C 	0.603	0.9121	0.9621	-0.061
Mof_C 	C 	0.448	0.9382	0.9265	0.026
Mof_C 	C 	0.239	0.8971	0.9084	-0.108
Mof_C 	C 	0.216	0.8248	0.9275	0.092
Mof_C 	C 	0.823	0.958	0.9824	0.125
Mof_C 	C 	0.394	0.5916	0.1102	0.608
Mof_C 	C 	0.337	0.5999	0.1667	-0.223
Mof_C 	C 	0.152	0.636	0.186	0.116
Mof_C 	C 	0.11	0.6435	0.2373	-0.078
Mof_C 	C 	0.297	0.6106	0.2693	0.03
Mof_C 	C 	0.497	0.5681	0.2495	-0.121
Mof_C 	C 	0.514	0.5629	0.1986	0.09
Mof_C 	C 	0.917	0.6915	0.2585	0.128
Mof_C 	C 	0.581	0.7792	0.2957	0.123
Mof_C 	C 	0.338	0.9372	0.4416	0.574
Mof_C 	C 	0.279	0.907	0.3882	-0.191
Mof_C 	C 	0.438	0.8562	0.3674	0.068
Mof_C 	C 	0.401	0.833	0.3177	-0.059
Mof_C 	C 	0.198	0.8589	0.2913	0.013
Mof_C 	C 	0.019	0.9105	0.3115	-0.102
Mof_C 	C 	0.064	0.9321	0.3618	0.085
Mof_N 	N 	0.853	0.4768	0.4603	-0.092
Mof_N 	N 	0.959	0.5649	0.5209	-0.099
Mof_N 	N 	0.766	0.7689	0.7288	-0.098
Mof_N 	N 	0.587	0.7219	0.7464	-0.095
Mof_N 	N 	0.724	0.7635	0.827	-0.091
Mof_N 	N 	0.886	0.8079	0.8075	-0.097
Mof_N 	N 	0.147	0.9768	0.0397	-0.091
Mof_N 	N 	0.041	0.0649	0.9791	-0.1
Mof_N 	N 	0.234	0.2689	0.7712	-0.098
Mof_N 	N 	0.413	0.2219	0.7536	-0.095
Mof_N 	N 	0.276	0.2635	0.673	-0.091
Mof_N 	N 	0.114	0.3079	0.6925	-0.096
Mof_N 	N 	0.147	0.5232	0.5397	-0.092
Mof_N 	N 	0.041	0.4351	0.4791	-0.099
Mof_N 	N 	0.234	0.2311	0.2712	-0.098
Mof_N 	N 	0.413	0.2781	0.2536	-0.095
Mof_N 	N 	0.276	0.2365	0.173	-0.091
Mof_N 	N 	0.114	0.1921	0.1925	-0.097
Mof_N 	N 	0.853	0.0232	0.9603	-0.091
Mof_N 	N 	0.959	0.9351	0.0209	-0.1
Mof_N 	N 	0.766	0.7311	0.2288	-0.098
Mof_N 	N 	0.587	0.7781	0.2464	-0.095
Mof_N 	N 	0.724	0.7365	0.327	-0.091
Mof_N 	N 	0.886	0.6921	0.3075	-0.096
Mof_O 	O 	0.513	0.8011	0.511	-0.6
Mof_O 	O 	0.12	0.8066	0.4778	-0.617
Mof_O 	O 	0.612	0.9149	0.5984	-0.644
Mof_O 	O 	0.189	0.904	0.5836	-0.631
Mof_O 	O 	0.559	0.5666	0.9552	-0.639
Mof_O 	O 	0.146	0.5334	0.963	-0.724
Mof_O 	O 	0.487	0.3011	0.989	-0.6
Mof_O 	O 	0.88	0.3066	0.0222	-0.618
Mof_O 	O 	0.388	0.4149	0.9016	-0.644
Mof_O 	O 	0.811	0.404	0.9164	-0.632
Mof_O 	O 	0.441	0.0666	0.5448	-0.639
Mof_O 	O 	0.854	0.0334	0.537	-0.722
Mof_O 	O 	0.487	0.1989	0.489	-0.6
Mof_O 	O 	0.88	0.1934	0.5222	-0.617
Mof_O 	O 	0.388	0.0851	0.4016	-0.644
Mof_O 	O 	0.811	0.096	0.4164	-0.631
Mof_O 	O 	0.441	0.4334	0.0448	-0.639
Mof_O 	O 	0.854	0.4666	0.037	-0.724
Mof_O 	O 	0.513	0.6989	0.011	-0.6
Mof_O 	O 	0.12	0.6934	0.9778	-0.618
Mof_O 	O 	0.612	0.5851	0.0984	-0.644
Mof_O 	O 	0.189	0.596	0.0836	-0.632
Mof_O 	O 	0.559	0.9334	0.4552	-0.639
Mof_O 	O 	0.146	0.9666	0.463	-0.722
_end
