# CIF file generated by openbabel 3.1.0, see https://openbabel.org
data_I
_chemical_name_common 'image0'
_cell_length_a 27.6922
_cell_length_b 27.6922
_cell_length_c 3.5492
_cell_angle_alpha 90
_cell_angle_beta 90
_cell_angle_gamma 90
_space_group_name_H-M_alt 'P 1'
_space_group_name_Hall 'P 1'
loop_
    _symmetry_equiv_pos_as_xyz
    x,y,z
loop_
    _atom_site_label
    _atom_site_type_symbol
    _atom_site_fract_x
    _atom_site_fract_y
    _atom_site_fract_z
    _atom_site_occupancy
    Zn1      Zn       0.28489    0.21388    0.84240    1.000
    N1       N        0.26000    0.14640    0.77400    1.000
    C1       C        0.28030    0.10880    0.92950    1.000
    H1       H        0.31060    0.11030    0.04140    1.000
    N2       N        0.25410    0.06730    0.91710    1.000
    C2       C        0.21530    0.12940    0.64450    1.000
    O1       O        0.27210    0.85840    0.62300    1.000
    C3       C        0.17870    0.15340    0.45800    1.000
    H2       H        0.18170    0.18600    0.39920    1.000
    O2       O        0.33860    0.85890    0.29400    1.000
    C4       C        0.13750    0.12810    0.36110    1.000
    C5       C        0.09960    0.14970    0.17000    1.000
    H3       H        0.10190    0.18220    0.10790    1.000
    C6       C        0.05830    0.12450    0.06900    1.000
    H4       H        0.03340    0.13980    0.94050    1.000
    C7       C        0.05480    0.07600    0.16300    1.000
    H5       H        0.02720    0.05860    0.09980    1.000
    C8       C        0.09240    0.05360    0.35200    1.000
    H6       H        0.09000    0.02100    0.41180    1.000
    C9       C        0.13400    0.07920    0.45340    1.000
    C10      C        0.17060    0.05470    0.64000    1.000
    H7       H        0.16770    0.02210    0.69860    1.000
    C11      C        0.21160    0.08050    0.73600    1.000
    C12      C        0.24500    0.94550    0.30900    1.000
    H8       H        0.22110    0.92470    0.39550    1.000
    C13      C        0.29310    0.93110    0.31000    1.000
    C14      C        0.32870    0.96230    0.18000    1.000
    H9       H        0.36090    0.95260    0.18160    1.000
    C15      C        0.31630    0.00790    0.04900    1.000
    H10      H        0.34010    0.02880    0.96200    1.000
    C16      C        0.26820    0.02230    0.04700    1.000
    C17      C        0.23250    0.99120    0.17700    1.000
    H11      H        0.20040    0.00080    0.17590    1.000
    C18      C        0.30120    0.88000    0.45100    1.000
    O3       O        0.28610    0.24760    0.35500    1.000
    H12      H        0.30920    0.23530    0.23040    1.000
    O4       O        0.34110    0.87200    0.64000    1.000
    Zn2      Zn       0.71511    0.78612    0.84240    1.000
    N3       N        0.74000    0.85360    0.77400    1.000
    C19      C        0.71970    0.89120    0.92950    1.000
    H13      H        0.68940    0.88970    0.04140    1.000
    N4       N        0.74590    0.93270    0.91710    1.000
    C20      C        0.78470    0.87060    0.64450    1.000
    O5       O        0.72790    0.14160    0.62300    1.000
    C21      C        0.82130    0.84660    0.45800    1.000
    H14      H        0.81830    0.81400    0.39920    1.000
    O6       O        0.66140    0.14110    0.29400    1.000
    C22      C        0.86250    0.87190    0.36110    1.000
    C23      C        0.90040    0.85030    0.17000    1.000
    H15      H        0.89810    0.81780    0.10790    1.000
    C24      C        0.94170    0.87550    0.06900    1.000
    H16      H        0.96660    0.86020    0.94050    1.000
    C25      C        0.94520    0.92400    0.16300    1.000
    H17      H        0.97280    0.94140    0.09980    1.000
    C26      C        0.90760    0.94640    0.35200    1.000
    H18      H        0.91000    0.97900    0.41180    1.000
    C27      C        0.86600    0.92080    0.45340    1.000
    C28      C        0.82940    0.94530    0.64000    1.000
    H19      H        0.83230    0.97790    0.69860    1.000
    C29      C        0.78840    0.91950    0.73600    1.000
    C30      C        0.75500    0.05450    0.30900    1.000
    H20      H        0.77890    0.07530    0.39550    1.000
    C31      C        0.70690    0.06890    0.31000    1.000
    C32      C        0.67130    0.03770    0.18000    1.000
    H21      H        0.63910    0.04740    0.18160    1.000
    C33      C        0.68370    0.99210    0.04900    1.000
    H22      H        0.65990    0.97120    0.96200    1.000
    C34      C        0.73180    0.97770    0.04700    1.000
    C35      C        0.76750    0.00880    0.17700    1.000
    H23      H        0.79960    0.99920    0.17590    1.000
    C36      C        0.69880    0.12000    0.45100    1.000
    O7       O        0.71390    0.75240    0.35500    1.000
    H24      H        0.69080    0.76470    0.23040    1.000
    O8       O        0.65890    0.12800    0.64000    1.000
    Zn3      Zn       0.71388    0.21511    0.65760    1.000
    N5       N        0.64640    0.24000    0.72600    1.000
    C37      C        0.60880    0.21970    0.57050    1.000
    H25      H        0.61030    0.18940    0.45860    1.000
    N6       N        0.56730    0.24590    0.58290    1.000
    C38      C        0.62940    0.28470    0.85550    1.000
    O9       O        0.35840    0.22790    0.87700    1.000
    C39      C        0.65340    0.32130    0.04200    1.000
    H26      H        0.68600    0.31830    0.10080    1.000
    O10      O        0.35890    0.16140    0.20600    1.000
    C40      C        0.62810    0.36250    0.13890    1.000
    C41      C        0.64970    0.40040    0.33000    1.000
    H27      H        0.68220    0.39810    0.39210    1.000
    C42      C        0.62450    0.44170    0.43100    1.000
    H28      H        0.63980    0.46660    0.55950    1.000
    C43      C        0.57600    0.44520    0.33700    1.000
    H29      H        0.55860    0.47280    0.40020    1.000
    C44      C        0.55360    0.40760    0.14800    1.000
    H30      H        0.52100    0.41000    0.08820    1.000
    C45      C        0.57920    0.36600    0.04660    1.000
    C46      C        0.55470    0.32940    0.86000    1.000
    H31      H        0.52210    0.33230    0.80140    1.000
    C47      C        0.58050    0.28840    0.76400    1.000
    C48      C        0.44550    0.25500    0.19100    1.000
    H32      H        0.42470    0.27890    0.10450    1.000
    C49      C        0.43110    0.20690    0.19000    1.000
    C50      C        0.46230    0.17130    0.32000    1.000
    H33      H        0.45260    0.13910    0.31840    1.000
    C51      C        0.50790    0.18370    0.45100    1.000
    H34      H        0.52880    0.15990    0.53800    1.000
    C52      C        0.52230    0.23180    0.45300    1.000
    C53      C        0.49120    0.26750    0.32300    1.000
    H35      H        0.50080    0.29960    0.32410    1.000
    C54      C        0.38000    0.19880    0.04900    1.000
    O11      O        0.74760    0.21390    0.14500    1.000
    H36      H        0.73530    0.19080    0.26960    1.000
    O12      O        0.37200    0.15890    0.86000    1.000
    Zn4      Zn       0.28612    0.78489    0.65760    1.000
    N7       N        0.35360    0.76000    0.72600    1.000
    C55      C        0.39120    0.78030    0.57050    1.000
    H37      H        0.38970    0.81060    0.45860    1.000
    N8       N        0.43270    0.75410    0.58290    1.000
    C56      C        0.37060    0.71530    0.85550    1.000
    O13      O        0.64160    0.77210    0.87700    1.000
    C57      C        0.34660    0.67870    0.04200    1.000
    H38      H        0.31400    0.68170    0.10080    1.000
    O14      O        0.64110    0.83860    0.20600    1.000
    C58      C        0.37190    0.63750    0.13890    1.000
    C59      C        0.35030    0.59960    0.33000    1.000
    H39      H        0.31780    0.60190    0.39210    1.000
    C60      C        0.37550    0.55830    0.43100    1.000
    H40      H        0.36020    0.53340    0.55950    1.000
    C61      C        0.42400    0.55480    0.33700    1.000
    H41      H        0.44140    0.52720    0.40020    1.000
    C62      C        0.44640    0.59240    0.14800    1.000
    H42      H        0.47900    0.59000    0.08820    1.000
    C63      C        0.42080    0.63400    0.04660    1.000
    C64      C        0.44530    0.67060    0.86000    1.000
    H43      H        0.47790    0.66770    0.80140    1.000
    C65      C        0.41950    0.71160    0.76400    1.000
    C66      C        0.55450    0.74500    0.19100    1.000
    H44      H        0.57530    0.72110    0.10450    1.000
    C67      C        0.56890    0.79310    0.19000    1.000
    C68      C        0.53770    0.82870    0.32000    1.000
    H45      H        0.54740    0.86090    0.31840    1.000
    C69      C        0.49210    0.81630    0.45100    1.000
    H46      H        0.47120    0.84010    0.53800    1.000
    C70      C        0.47770    0.76820    0.45300    1.000
    C71      C        0.50880    0.73250    0.32300    1.000
    H47      H        0.49920    0.70040    0.32410    1.000
    C72      C        0.62000    0.80120    0.04900    1.000
    O15      O        0.25240    0.78610    0.14500    1.000
    H48      H        0.26470    0.80920    0.26960    1.000
    O16      O        0.62800    0.84110    0.86000    1.000
    Zn5      Zn       0.78489    0.71388    0.34240    1.000
    N9       N        0.76000    0.64640    0.27400    1.000
    C73      C        0.78030    0.60880    0.42950    1.000
    H49      H        0.81060    0.61030    0.54140    1.000
    N10      N        0.75410    0.56730    0.41710    1.000
    C74      C        0.71530    0.62940    0.14450    1.000
    O17      O        0.77210    0.35840    0.12300    1.000
    C75      C        0.67870    0.65340    0.95800    1.000
    H50      H        0.68170    0.68600    0.89920    1.000
    O18      O        0.83860    0.35890    0.79400    1.000
    C76      C        0.63750    0.62810    0.86110    1.000
    C77      C        0.59960    0.64970    0.67000    1.000
    H51      H        0.60190    0.68220    0.60790    1.000
    C78      C        0.55830    0.62450    0.56900    1.000
    H52      H        0.53340    0.63980    0.44050    1.000
    C79      C        0.55480    0.57600    0.66300    1.000
    H53      H        0.52720    0.55860    0.59980    1.000
    C80      C        0.59240    0.55360    0.85200    1.000
    H54      H        0.59000    0.52100    0.91180    1.000
    C81      C        0.63400    0.57920    0.95340    1.000
    C82      C        0.67060    0.55470    0.14000    1.000
    H55      H        0.66770    0.52210    0.19860    1.000
    C83      C        0.71160    0.58050    0.23600    1.000
    C84      C        0.74500    0.44550    0.80900    1.000
    H56      H        0.72110    0.42470    0.89550    1.000
    C85      C        0.79310    0.43110    0.81000    1.000
    C86      C        0.82870    0.46230    0.68000    1.000
    H57      H        0.86090    0.45260    0.68160    1.000
    C87      C        0.81630    0.50790    0.54900    1.000
    H58      H        0.84010    0.52880    0.46200    1.000
    C88      C        0.76820    0.52230    0.54700    1.000
    C89      C        0.73250    0.49120    0.67700    1.000
    H59      H        0.70040    0.50080    0.67590    1.000
    C90      C        0.80120    0.38000    0.95100    1.000
    O19      O        0.78610    0.74760    0.85500    1.000
    H60      H        0.80920    0.73530    0.73040    1.000
    O20      O        0.84110    0.37200    0.14000    1.000
    Zn6      Zn       0.21511    0.28612    0.34240    1.000
    N11      N        0.24000    0.35360    0.27400    1.000
    C91      C        0.21970    0.39120    0.42950    1.000
    H61      H        0.18940    0.38970    0.54140    1.000
    N12      N        0.24590    0.43270    0.41710    1.000
    C92      C        0.28470    0.37060    0.14450    1.000
    O21      O        0.22790    0.64160    0.12300    1.000
    C93      C        0.32130    0.34660    0.95800    1.000
    H62      H        0.31830    0.31400    0.89920    1.000
    O22      O        0.16140    0.64110    0.79400    1.000
    C94      C        0.36250    0.37190    0.86110    1.000
    C95      C        0.40040    0.35030    0.67000    1.000
    H63      H        0.39810    0.31780    0.60790    1.000
    C96      C        0.44170    0.37550    0.56900    1.000
    H64      H        0.46660    0.36020    0.44050    1.000
    C97      C        0.44520    0.42400    0.66300    1.000
    H65      H        0.47280    0.44140    0.59980    1.000
    C98      C        0.40760    0.44640    0.85200    1.000
    H66      H        0.41000    0.47900    0.91180    1.000
    C99      C        0.36600    0.42080    0.95340    1.000
    C100     C        0.32940    0.44530    0.14000    1.000
    H67      H        0.33230    0.47790    0.19860    1.000
    C101     C        0.28840    0.41950    0.23600    1.000
    C102     C        0.25500    0.55450    0.80900    1.000
    H68      H        0.27890    0.57530    0.89550    1.000
    C103     C        0.20690    0.56890    0.81000    1.000
    C104     C        0.17130    0.53770    0.68000    1.000
    H69      H        0.13910    0.54740    0.68160    1.000
    C105     C        0.18370    0.49210    0.54900    1.000
    H70      H        0.15990    0.47120    0.46200    1.000
    C106     C        0.23180    0.47770    0.54700    1.000
    C107     C        0.26750    0.50880    0.67700    1.000
    H71      H        0.29960    0.49920    0.67590    1.000
    C108     C        0.19880    0.62000    0.95100    1.000
    O23      O        0.21390    0.25240    0.85500    1.000
    H72      H        0.19080    0.26470    0.73040    1.000
    O24      O        0.15890    0.62800    0.14000    1.000
    Zn7      Zn       0.21388    0.71511    0.15760    1.000
    N13      N        0.14640    0.74000    0.22600    1.000
    C109     C        0.10880    0.71970    0.07050    1.000
    H73      H        0.11030    0.68940    0.95860    1.000
    N14      N        0.06730    0.74590    0.08290    1.000
    C110     C        0.12940    0.78470    0.35550    1.000
    O25      O        0.85840    0.72790    0.37700    1.000
    C111     C        0.15340    0.82130    0.54200    1.000
    H74      H        0.18600    0.81830    0.60080    1.000
    O26      O        0.85890    0.66140    0.70600    1.000
    C112     C        0.12810    0.86250    0.63890    1.000
    C113     C        0.14970    0.90040    0.83000    1.000
    H75      H        0.18220    0.89810    0.89210    1.000
    C114     C        0.12450    0.94170    0.93100    1.000
    H76      H        0.13980    0.96660    0.05950    1.000
    C115     C        0.07600    0.94520    0.83700    1.000
    H77      H        0.05860    0.97280    0.90020    1.000
    C116     C        0.05360    0.90760    0.64800    1.000
    H78      H        0.02100    0.91000    0.58820    1.000
    C117     C        0.07920    0.86600    0.54660    1.000
    C118     C        0.05470    0.82940    0.36000    1.000
    H79      H        0.02210    0.83230    0.30140    1.000
    C119     C        0.08050    0.78840    0.26400    1.000
    C120     C        0.94550    0.75500    0.69100    1.000
    H80      H        0.92470    0.77890    0.60450    1.000
    C121     C        0.93110    0.70690    0.69000    1.000
    C122     C        0.96230    0.67130    0.82000    1.000
    H81      H        0.95260    0.63910    0.81840    1.000
    C123     C        0.00790    0.68370    0.95100    1.000
    H82      H        0.02880    0.65990    0.03800    1.000
    C124     C        0.02230    0.73180    0.95300    1.000
    C125     C        0.99120    0.76750    0.82300    1.000
    H83      H        0.00080    0.79960    0.82410    1.000
    C126     C        0.88000    0.69880    0.54900    1.000
    O27      O        0.24760    0.71390    0.64500    1.000
    H84      H        0.23530    0.69080    0.76960    1.000
    O28      O        0.87200    0.65890    0.36000    1.000
    Zn8      Zn       0.78612    0.28489    0.15760    1.000
    N15      N        0.85360    0.26000    0.22600    1.000
    C127     C        0.89120    0.28030    0.07050    1.000
    H85      H        0.88970    0.31060    0.95860    1.000
    N16      N        0.93270    0.25410    0.08290    1.000
    C128     C        0.87060    0.21530    0.35550    1.000
    O29      O        0.14160    0.27210    0.37700    1.000
    C129     C        0.84660    0.17870    0.54200    1.000
    H86      H        0.81400    0.18170    0.60080    1.000
    O30      O        0.14110    0.33860    0.70600    1.000
    C130     C        0.87190    0.13750    0.63890    1.000
    C131     C        0.85030    0.09960    0.83000    1.000
    H87      H        0.81780    0.10190    0.89210    1.000
    C132     C        0.87550    0.05830    0.93100    1.000
    H88      H        0.86020    0.03340    0.05950    1.000
    C133     C        0.92400    0.05480    0.83700    1.000
    H89      H        0.94140    0.02720    0.90020    1.000
    C134     C        0.94640    0.09240    0.64800    1.000
    H90      H        0.97900    0.09000    0.58820    1.000
    C135     C        0.92080    0.13400    0.54660    1.000
    C136     C        0.94530    0.17060    0.36000    1.000
    H91      H        0.97790    0.16770    0.30140    1.000
    C137     C        0.91950    0.21160    0.26400    1.000
    C138     C        0.05450    0.24500    0.69100    1.000
    H92      H        0.07530    0.22110    0.60450    1.000
    C139     C        0.06890    0.29310    0.69000    1.000
    C140     C        0.03770    0.32870    0.82000    1.000
    H93      H        0.04740    0.36090    0.81840    1.000
    C141     C        0.99210    0.31630    0.95100    1.000
    H94      H        0.97120    0.34010    0.03800    1.000
    C142     C        0.97770    0.26820    0.95300    1.000
    C143     C        0.00880    0.23250    0.82300    1.000
    H95      H        0.99920    0.20040    0.82410    1.000
    C144     C        0.12000    0.30120    0.54900    1.000
    O31      O        0.75240    0.28610    0.64500    1.000
    H96      H        0.76470    0.30920    0.76960    1.000
    O32      O        0.12800    0.34110    0.36000    1.000
