data_functionalizedCrystal
_audit_creation_method	'EQeq! by Chris Wilmer'
_symmetry_space_group_name_H-M	'P1'
_symmetry_Int_Tables_number	1
_symmetry_cell_setting	triclinic
loop_
_symmetry_equiv_pos_as_xyz
  x,y,z
_cell_length_a	22.696
_cell_length_b	12.696
_cell_length_c	16.126
_cell_angle_alpha	90
_cell_angle_beta	90
_cell_angle_gamma	90
loop_
_atom_site_label
_atom_site_type_symbol
_atom_site_fract_x
_atom_site_fract_y
_atom_site_fract_z
_atom_site_charge
Mof_Fe	Fe	0.5195	0.2881	0.11868	0.593
Mof_Fe	Fe	0.26261	0.39886	0.00064	0.615
Mof_N 	N 	0.4895	0.1173	0.1371	-0.176
Mof_N 	N 	0.58975	0.1923	0.0663	-0.182
Mof_N 	N 	0.6291	0.0295	0.0573	-0.096
Mof_N 	N 	0.6706	0.1011	0.0329	-0.149
Mof_N 	N 	0.7408	0.2664	0.0032	-0.186
Mof_N 	N 	0.67167	0.3886	0.025	-0.101
Mof_N 	N 	0.7242	0.4379	0.0077	-0.159
Mof_N 	N 	0.2919	0.3777	0.8672	-0.17
Mof_N 	N 	0.3531	0.3588	0.0085	-0.183
Mof_N 	N 	0.4365	0.3072	0.945	-0.103
Mof_N 	N 	0.44652	0.3091	0.0282	-0.144
Mof_N 	N 	0.3472	0.3675	0.2006	-0.142
Mof_N 	N 	0.44325	0.3317	0.1959	-0.145
Mof_N 	N 	0.4274	0.3371	0.2781	-0.156
Mof_C 	C 	0.438	0.0833	0.1655	0.096
Mof_H 	H 	0.4116	0.133	0.1857	-0.002
Mof_C 	C 	0.4213	0.9795	0.1671	-0.152
Mof_H 	H 	0.3848	0.9601	0.1884	0.081
Mof_C 	C 	0.4592	0.905	0.1369	0.071
Mof_H 	H 	0.4485	0.8343	0.1363	0.005
Mof_C 	C 	0.5138	0.9366	0.1071	-0.138
Mof_H 	H 	0.541	0.8878	0.0876	0.091
Mof_C 	C 	0.5264	0.0443	0.1074	0.074
Mof_C 	C 	0.5823	0.087	0.076	0.079
Mof_C 	C 	0.6458	0.1963	0.0404	0.081
Mof_C 	C 	0.6836	0.2867	0.022	0.067
Mof_C 	C 	0.7641	0.3629	0.9969	0.105
Mof_H 	H 	0.8037	0.3759	0.9863	-0.008
Mof_C 	C 	0.2588	0.3884	0.7996	0.084
Mof_H 	H 	0.2199	0.4101	0.8061	0.003
Mof_C 	C 	0.2792	0.3691	0.7206	-0.136
Mof_H 	H 	0.2548	0.3766	0.6747	0.073
Mof_C 	C 	0.3378	0.3381	0.7119	0.049
Mof_H 	H 	0.3532	0.3247	0.6595	0.012
Mof_C 	C 	0.3729	0.3271	0.7812	-0.126
Mof_H 	H 	0.4122	0.3076	0.7762	0.076
Mof_C 	C 	0.3482	0.346	0.8584	0.066
Mof_C 	C 	0.3814	0.3368	0.9366	0.084
Mof_C 	C 	0.3964	0.3395	0.0643	0.076
Mof_C 	C 	0.3943	0.3503	0.154	0.073
Mof_C 	C 	0.3709	0.3595	0.2765	0.1
Mof_H 	H 	0.3489	0.369	0.3245	0.003
Mof_Fe	Fe	0.9805	0.2119	0.61868	0.592
Mof_Fe	Fe	0.23739	0.10114	0.50064	0.615
Mof_N 	N 	0.0105	0.3827	0.6371	-0.177
Mof_N 	N 	0.91025	0.3077	0.5663	-0.183
Mof_N 	N 	0.8709	0.4705	0.5573	-0.096
Mof_N 	N 	0.8294	0.3989	0.5329	-0.15
Mof_N 	N 	0.7592	0.2336	0.5032	-0.187
Mof_N 	N 	0.82833	0.1114	0.525	-0.101
Mof_N 	N 	0.7758	0.0621	0.5077	-0.16
Mof_N 	N 	0.2081	0.1223	0.3672	-0.17
Mof_N 	N 	0.1469	0.1412	0.5085	-0.183
Mof_N 	N 	0.0635	0.1928	0.445	-0.103
Mof_N 	N 	0.05348	0.1909	0.5282	-0.144
Mof_N 	N 	0.1528	0.1325	0.7006	-0.142
Mof_N 	N 	0.05675	0.1683	0.6959	-0.145
Mof_N 	N 	0.0726	0.1629	0.7781	-0.156
Mof_C 	C 	0.062	0.4167	0.6655	0.096
Mof_H 	H 	0.0884	0.367	0.6857	-0.002
Mof_C 	C 	0.0787	0.5205	0.6671	-0.151
Mof_H 	H 	0.1152	0.5399	0.6884	0.081
Mof_C 	C 	0.0408	0.595	0.6369	0.071
Mof_H 	H 	0.0515	0.6657	0.6363	0.005
Mof_C 	C 	0.9862	0.5634	0.6071	-0.138
Mof_H 	H 	0.959	0.6122	0.5876	0.091
Mof_C 	C 	0.9736	0.4557	0.6074	0.074
Mof_C 	C 	0.9177	0.413	0.576	0.079
Mof_C 	C 	0.8542	0.3037	0.5404	0.081
Mof_C 	C 	0.8164	0.2133	0.522	0.067
Mof_C 	C 	0.7359	0.1371	0.4969	0.107
Mof_H 	H 	0.6963	0.1241	0.4863	-0.008
Mof_C 	C 	0.2412	0.1116	0.2996	0.084
Mof_H 	H 	0.2801	0.0899	0.3061	0.003
Mof_C 	C 	0.2208	0.1309	0.2206	-0.136
Mof_H 	H 	0.2452	0.1234	0.1747	0.073
Mof_C 	C 	0.1622	0.1619	0.2119	0.049
Mof_H 	H 	0.1468	0.1753	0.1595	0.012
Mof_C 	C 	0.1271	0.1729	0.2812	-0.126
Mof_H 	H 	0.0878	0.1924	0.2762	0.076
Mof_C 	C 	0.1518	0.154	0.3584	0.066
Mof_C 	C 	0.1186	0.1632	0.4366	0.084
Mof_C 	C 	0.1036	0.1605	0.5643	0.076
Mof_C 	C 	0.1057	0.1497	0.654	0.073
Mof_C 	C 	0.1291	0.1405	0.7765	0.1
Mof_H 	H 	0.1511	0.131	0.8245	0.003
Mof_Fe	Fe	0.4805	0.2881	0.38132	0.592
Mof_Fe	Fe	0.73739	0.39886	0.49936	0.615
Mof_N 	N 	0.5105	0.1173	0.3629	-0.177
Mof_N 	N 	0.41025	0.1923	0.4337	-0.183
Mof_N 	N 	0.3709	0.0295	0.4427	-0.096
Mof_N 	N 	0.3294	0.1011	0.4671	-0.15
Mof_N 	N 	0.2592	0.2664	0.4968	-0.187
Mof_N 	N 	0.32833	0.3886	0.475	-0.101
Mof_N 	N 	0.2758	0.4379	0.4923	-0.16
Mof_N 	N 	0.7081	0.3777	0.6328	-0.17
Mof_N 	N 	0.6469	0.3588	0.4915	-0.183
Mof_N 	N 	0.5635	0.3072	0.555	-0.103
Mof_N 	N 	0.55348	0.3091	0.4718	-0.144
Mof_N 	N 	0.6528	0.3675	0.2994	-0.142
Mof_N 	N 	0.55675	0.3317	0.3041	-0.145
Mof_N 	N 	0.5726	0.3371	0.2219	-0.156
Mof_C 	C 	0.562	0.0833	0.3345	0.096
Mof_H 	H 	0.5884	0.133	0.3143	-0.002
Mof_C 	C 	0.5787	0.9795	0.3329	-0.151
Mof_H 	H 	0.6152	0.9601	0.3116	0.081
Mof_C 	C 	0.5408	0.905	0.3631	0.07
Mof_H 	H 	0.5515	0.8343	0.3637	0.005
Mof_C 	C 	0.4862	0.9366	0.3929	-0.138
Mof_H 	H 	0.459	0.8878	0.4124	0.091
Mof_C 	C 	0.4736	0.0443	0.3926	0.074
Mof_C 	C 	0.4177	0.087	0.424	0.079
Mof_C 	C 	0.3542	0.1963	0.4596	0.081
Mof_C 	C 	0.3164	0.2867	0.478	0.067
Mof_C 	C 	0.2359	0.3629	0.5031	0.107
Mof_H 	H 	0.1963	0.3759	0.5137	-0.008
Mof_C 	C 	0.7412	0.3884	0.7004	0.084
Mof_H 	H 	0.7801	0.4101	0.6939	0.003
Mof_C 	C 	0.7208	0.3691	0.7794	-0.136
Mof_H 	H 	0.7452	0.3766	0.8253	0.073
Mof_C 	C 	0.6622	0.3381	0.7881	0.049
Mof_H 	H 	0.6468	0.3247	0.8405	0.012
Mof_C 	C 	0.6271	0.3271	0.7188	-0.126
Mof_H 	H 	0.5878	0.3076	0.7238	0.076
Mof_C 	C 	0.6518	0.346	0.6416	0.066
Mof_C 	C 	0.6186	0.3368	0.5634	0.084
Mof_C 	C 	0.6036	0.3395	0.4357	0.076
Mof_C 	C 	0.6057	0.3503	0.346	0.073
Mof_C 	C 	0.6291	0.3595	0.2235	0.1
Mof_H 	H 	0.6511	0.369	0.1755	0.003
Mof_Fe	Fe	0.0195	0.2119	0.88132	0.594
Mof_Fe	Fe	0.76261	0.10114	0.99936	0.613
Mof_N 	N 	0.9895	0.3827	0.8629	-0.178
Mof_N 	N 	0.08975	0.3077	0.9337	-0.183
Mof_N 	N 	0.1291	0.4705	0.9427	-0.096
Mof_N 	N 	0.1706	0.3989	0.9671	-0.149
Mof_N 	N 	0.2408	0.2336	0.9968	-0.186
Mof_N 	N 	0.17167	0.1114	0.975	-0.101
Mof_N 	N 	0.2242	0.0621	0.9923	-0.159
Mof_N 	N 	0.7919	0.1223	0.1328	-0.17
Mof_N 	N 	0.8531	0.1412	0.9915	-0.184
Mof_N 	N 	0.9365	0.1928	0.055	-0.102
Mof_N 	N 	0.94652	0.1909	0.9718	-0.145
Mof_N 	N 	0.8472	0.1325	0.7994	-0.142
Mof_N 	N 	0.94325	0.1683	0.8041	-0.145
Mof_N 	N 	0.9274	0.1629	0.7219	-0.156
Mof_C 	C 	0.938	0.4167	0.8345	0.094
Mof_H 	H 	0.9116	0.367	0.8143	-0.001
Mof_C 	C 	0.9213	0.5205	0.8329	-0.149
Mof_H 	H 	0.8848	0.5399	0.8116	0.08
Mof_C 	C 	0.9592	0.595	0.8631	0.066
Mof_H 	H 	0.9485	0.6657	0.8637	0.006
Mof_C 	C 	0.0138	0.5634	0.8929	-0.134
Mof_H 	H 	0.041	0.6122	0.9124	0.09
Mof_C 	C 	0.0264	0.4557	0.8926	0.074
Mof_C 	C 	0.0823	0.413	0.924	0.079
Mof_C 	C 	0.1458	0.3037	0.9596	0.081
Mof_C 	C 	0.1836	0.2133	0.978	0.067
Mof_C 	C 	0.2641	0.1371	0.0031	0.106
Mof_H 	H 	0.3037	0.1241	0.0137	-0.008
Mof_C 	C 	0.7588	0.1116	0.2004	0.084
Mof_H 	H 	0.7199	0.0899	0.1939	0.003
Mof_C 	C 	0.7792	0.1309	0.2794	-0.136
Mof_H 	H 	0.7548	0.1234	0.3253	0.073
Mof_C 	C 	0.8378	0.1619	0.2881	0.049
Mof_H 	H 	0.8532	0.1753	0.3405	0.012
Mof_C 	C 	0.8729	0.1729	0.2188	-0.126
Mof_H 	H 	0.9122	0.1924	0.2238	0.076
Mof_C 	C 	0.8482	0.154	0.1416	0.066
Mof_C 	C 	0.8814	0.1632	0.0634	0.085
Mof_C 	C 	0.8964	0.1605	0.9357	0.076
Mof_C 	C 	0.8943	0.1497	0.846	0.073
Mof_C 	C 	0.8709	0.1405	0.7235	0.1
Mof_H 	H 	0.8489	0.131	0.6755	0.003
Mof_Fe	Fe	0.4805	0.7119	0.88132	0.592
Mof_Fe	Fe	0.73739	0.60114	0.99936	0.614
Mof_N 	N 	0.5105	0.8827	0.8629	-0.177
Mof_N 	N 	0.41025	0.8077	0.9337	-0.183
Mof_N 	N 	0.3709	0.9705	0.9427	-0.096
Mof_N 	N 	0.3294	0.8989	0.9671	-0.149
Mof_N 	N 	0.2592	0.7336	0.9968	-0.186
Mof_N 	N 	0.32833	0.6114	0.975	-0.101
Mof_N 	N 	0.2758	0.5621	0.9923	-0.159
Mof_N 	N 	0.7081	0.6223	0.1328	-0.17
Mof_N 	N 	0.6469	0.6412	0.9915	-0.183
Mof_N 	N 	0.5635	0.6928	0.055	-0.103
Mof_N 	N 	0.55348	0.6909	0.9718	-0.144
Mof_N 	N 	0.6528	0.6325	0.7994	-0.142
Mof_N 	N 	0.55675	0.6683	0.8041	-0.145
Mof_N 	N 	0.5726	0.6629	0.7219	-0.156
Mof_C 	C 	0.562	0.9167	0.8345	0.096
Mof_H 	H 	0.5884	0.867	0.8143	-0.002
Mof_C 	C 	0.5787	0.0205	0.8329	-0.152
Mof_H 	H 	0.6152	0.0399	0.8116	0.081
Mof_C 	C 	0.5408	0.095	0.8631	0.071
Mof_H 	H 	0.5515	0.1657	0.8637	0.005
Mof_C 	C 	0.4862	0.0634	0.8929	-0.138
Mof_H 	H 	0.459	0.1122	0.9124	0.091
Mof_C 	C 	0.4736	0.9557	0.8926	0.074
Mof_C 	C 	0.4177	0.913	0.924	0.079
Mof_C 	C 	0.3542	0.8037	0.9596	0.081
Mof_C 	C 	0.3164	0.7133	0.978	0.067
Mof_C 	C 	0.2359	0.6371	0.0031	0.105
Mof_H 	H 	0.1963	0.6241	0.0137	-0.008
Mof_C 	C 	0.7412	0.6116	0.2004	0.084
Mof_H 	H 	0.7801	0.5899	0.1939	0.003
Mof_C 	C 	0.7208	0.6309	0.2794	-0.136
Mof_H 	H 	0.7452	0.6234	0.3253	0.073
Mof_C 	C 	0.6622	0.6619	0.2881	0.049
Mof_H 	H 	0.6468	0.6753	0.3405	0.012
Mof_C 	C 	0.6271	0.6729	0.2188	-0.126
Mof_H 	H 	0.5878	0.6924	0.2238	0.076
Mof_C 	C 	0.6518	0.654	0.1416	0.066
Mof_C 	C 	0.6186	0.6632	0.0634	0.084
Mof_C 	C 	0.6036	0.6605	0.9357	0.076
Mof_C 	C 	0.6057	0.6497	0.846	0.073
Mof_C 	C 	0.6291	0.6405	0.7235	0.1
Mof_H 	H 	0.6511	0.631	0.6755	0.003
Mof_Fe	Fe	0.0195	0.7881	0.38132	0.592
Mof_Fe	Fe	0.76261	0.89886	0.49936	0.615
Mof_N 	N 	0.9895	0.6173	0.3629	-0.177
Mof_N 	N 	0.08975	0.6923	0.4337	-0.183
Mof_N 	N 	0.1291	0.5295	0.4427	-0.096
Mof_N 	N 	0.1706	0.6011	0.4671	-0.15
Mof_N 	N 	0.2408	0.7664	0.4968	-0.187
Mof_N 	N 	0.17167	0.8886	0.475	-0.101
Mof_N 	N 	0.2242	0.9379	0.4923	-0.16
Mof_N 	N 	0.7919	0.8777	0.6328	-0.17
Mof_N 	N 	0.8531	0.8588	0.4915	-0.183
Mof_N 	N 	0.9365	0.8072	0.555	-0.103
Mof_N 	N 	0.94652	0.8091	0.4718	-0.144
Mof_N 	N 	0.8472	0.8675	0.2994	-0.142
Mof_N 	N 	0.94325	0.8317	0.3041	-0.145
Mof_N 	N 	0.9274	0.8371	0.2219	-0.156
Mof_C 	C 	0.938	0.5833	0.3345	0.096
Mof_H 	H 	0.9116	0.633	0.3143	-0.002
Mof_C 	C 	0.9213	0.4795	0.3329	-0.151
Mof_H 	H 	0.8848	0.4601	0.3116	0.081
Mof_C 	C 	0.9592	0.405	0.3631	0.071
Mof_H 	H 	0.9485	0.3343	0.3637	0.005
Mof_C 	C 	0.0138	0.4366	0.3929	-0.138
Mof_H 	H 	0.041	0.3878	0.4124	0.091
Mof_C 	C 	0.0264	0.5443	0.3926	0.074
Mof_C 	C 	0.0823	0.587	0.424	0.079
Mof_C 	C 	0.1458	0.6963	0.4596	0.081
Mof_C 	C 	0.1836	0.7867	0.478	0.067
Mof_C 	C 	0.2641	0.8629	0.5031	0.107
Mof_H 	H 	0.3037	0.8759	0.5137	-0.008
Mof_C 	C 	0.7588	0.8884	0.7004	0.084
Mof_H 	H 	0.7199	0.9101	0.6939	0.003
Mof_C 	C 	0.7792	0.8691	0.7794	-0.136
Mof_H 	H 	0.7548	0.8766	0.8253	0.073
Mof_C 	C 	0.8378	0.8381	0.7881	0.049
Mof_H 	H 	0.8532	0.8247	0.8405	0.012
Mof_C 	C 	0.8729	0.8271	0.7188	-0.126
Mof_H 	H 	0.9122	0.8076	0.7238	0.076
Mof_C 	C 	0.8482	0.846	0.6416	0.066
Mof_C 	C 	0.8814	0.8368	0.5634	0.084
Mof_C 	C 	0.8964	0.8395	0.4357	0.076
Mof_C 	C 	0.8943	0.8503	0.346	0.073
Mof_C 	C 	0.8709	0.8595	0.2235	0.1
Mof_H 	H 	0.8489	0.869	0.1755	0.003
Mof_Fe	Fe	0.5195	0.7119	0.61868	0.592
Mof_Fe	Fe	0.26261	0.60114	0.50064	0.615
Mof_N 	N 	0.4895	0.8827	0.6371	-0.177
Mof_N 	N 	0.58975	0.8077	0.5663	-0.183
Mof_N 	N 	0.6291	0.9705	0.5573	-0.096
Mof_N 	N 	0.6706	0.8989	0.5329	-0.15
Mof_N 	N 	0.7408	0.7336	0.5032	-0.187
Mof_N 	N 	0.67167	0.6114	0.525	-0.101
Mof_N 	N 	0.7242	0.5621	0.5077	-0.16
Mof_N 	N 	0.2919	0.6223	0.3672	-0.17
Mof_N 	N 	0.3531	0.6412	0.5085	-0.183
Mof_N 	N 	0.4365	0.6928	0.445	-0.103
Mof_N 	N 	0.44652	0.6909	0.5282	-0.144
Mof_N 	N 	0.3472	0.6325	0.7006	-0.142
Mof_N 	N 	0.44325	0.6683	0.6959	-0.145
Mof_N 	N 	0.4274	0.6629	0.7781	-0.156
Mof_C 	C 	0.438	0.9167	0.6655	0.096
Mof_H 	H 	0.4116	0.867	0.6857	-0.002
Mof_C 	C 	0.4213	0.0205	0.6671	-0.151
Mof_H 	H 	0.3848	0.0399	0.6884	0.081
Mof_C 	C 	0.4592	0.095	0.6369	0.07
Mof_H 	H 	0.4485	0.1657	0.6363	0.005
Mof_C 	C 	0.5138	0.0634	0.6071	-0.138
Mof_H 	H 	0.541	0.1122	0.5876	0.091
Mof_C 	C 	0.5264	0.9557	0.6074	0.074
Mof_C 	C 	0.5823	0.913	0.576	0.079
Mof_C 	C 	0.6458	0.8037	0.5404	0.081
Mof_C 	C 	0.6836	0.7133	0.522	0.067
Mof_C 	C 	0.7641	0.6371	0.4969	0.107
Mof_H 	H 	0.8037	0.6241	0.4863	-0.008
Mof_C 	C 	0.2588	0.6116	0.2996	0.084
Mof_H 	H 	0.2199	0.5899	0.3061	0.003
Mof_C 	C 	0.2792	0.6309	0.2206	-0.136
Mof_H 	H 	0.2548	0.6234	0.1747	0.073
Mof_C 	C 	0.3378	0.6619	0.2119	0.049
Mof_H 	H 	0.3532	0.6753	0.1595	0.012
Mof_C 	C 	0.3729	0.6729	0.2812	-0.126
Mof_H 	H 	0.4122	0.6924	0.2762	0.076
Mof_C 	C 	0.3482	0.654	0.3584	0.066
Mof_C 	C 	0.3814	0.6632	0.4366	0.084
Mof_C 	C 	0.3964	0.6605	0.5643	0.076
Mof_C 	C 	0.3943	0.6497	0.654	0.073
Mof_C 	C 	0.3709	0.6405	0.7765	0.1
Mof_H 	H 	0.3489	0.631	0.8245	0.003
Mof_Fe	Fe	0.9805	0.7881	0.11868	0.594
Mof_Fe	Fe	0.23739	0.89886	0.00064	0.613
Mof_N 	N 	0.0105	0.6173	0.1371	-0.178
Mof_N 	N 	0.91025	0.6923	0.0663	-0.183
Mof_N 	N 	0.8709	0.5295	0.0573	-0.096
Mof_N 	N 	0.8294	0.6011	0.0329	-0.149
Mof_N 	N 	0.7592	0.7664	0.0032	-0.186
Mof_N 	N 	0.82833	0.8886	0.025	-0.101
Mof_N 	N 	0.7758	0.9379	0.0077	-0.159
Mof_N 	N 	0.2081	0.8777	0.8672	-0.17
Mof_N 	N 	0.1469	0.8588	0.0085	-0.184
Mof_N 	N 	0.0635	0.8072	0.945	-0.102
Mof_N 	N 	0.05348	0.8091	0.0282	-0.145
Mof_N 	N 	0.1528	0.8675	0.2006	-0.142
Mof_N 	N 	0.05675	0.8317	0.1959	-0.145
Mof_N 	N 	0.0726	0.8371	0.2781	-0.156
Mof_C 	C 	0.062	0.5833	0.1655	0.094
Mof_H 	H 	0.0884	0.633	0.1857	-0.001
Mof_C 	C 	0.0787	0.4795	0.1671	-0.149
Mof_H 	H 	0.1152	0.4601	0.1884	0.08
Mof_C 	C 	0.0408	0.405	0.1369	0.066
Mof_H 	H 	0.0515	0.3343	0.1363	0.006
Mof_C 	C 	0.9862	0.4366	0.1071	-0.134
Mof_H 	H 	0.959	0.3878	0.0876	0.09
Mof_C 	C 	0.9736	0.5443	0.1074	0.074
Mof_C 	C 	0.9177	0.587	0.076	0.079
Mof_C 	C 	0.8542	0.6963	0.0404	0.081
Mof_C 	C 	0.8164	0.7867	0.022	0.067
Mof_C 	C 	0.7359	0.8629	0.9969	0.106
Mof_H 	H 	0.6963	0.8759	0.9863	-0.008
Mof_C 	C 	0.2412	0.8884	0.7996	0.084
Mof_H 	H 	0.2801	0.9101	0.8061	0.003
Mof_C 	C 	0.2208	0.8691	0.7206	-0.136
Mof_H 	H 	0.2452	0.8766	0.6747	0.073
Mof_C 	C 	0.1622	0.8381	0.7119	0.049
Mof_H 	H 	0.1468	0.8247	0.6595	0.012
Mof_C 	C 	0.1271	0.8271	0.7812	-0.126
Mof_H 	H 	0.0878	0.8076	0.7762	0.076
Mof_C 	C 	0.1518	0.846	0.8584	0.066
Mof_C 	C 	0.1186	0.8368	0.9366	0.085
Mof_C 	C 	0.1036	0.8395	0.0643	0.076
Mof_C 	C 	0.1057	0.8503	0.154	0.073
Mof_C 	C 	0.1291	0.8595	0.2765	0.1
Mof_H 	H 	0.1511	0.869	0.3245	0.003
_end
