# CIF file generated by openbabel 3.1.0, see https://openbabel.org
data_I
_chemical_name_common 'image0'
_cell_length_a 14.7228
_cell_length_b 15.2375
_cell_length_c 15.7764
_cell_angle_alpha 67.526
_cell_angle_beta 65.847
_cell_angle_gamma 70.866
_space_group_name_H-M_alt 'P 1'
_space_group_name_Hall 'P 1'
loop_
    _symmetry_equiv_pos_as_xyz
    x,y,z
loop_
    _atom_site_label
    _atom_site_type_symbol
    _atom_site_fract_x
    _atom_site_fract_y
    _atom_site_fract_z
    _atom_site_occupancy
    C1       C        0.69630    0.18955    0.10150    1.000
    Co1      Co       0.25376    0.43110    0.97986    1.000
    O1       O        0.49740    0.01308    0.13920    1.000
    H1       H        0.44890    0.98380    0.17080    1.000
    B1       B        0.63370    0.10193    0.18850    1.000
    H2       H        0.56040    0.11620    0.24740    1.000
    B2       B        0.74983    0.11138    0.18926    1.000
    H3       H        0.75390    0.13210    0.24830    1.000
    B3       B        0.82664    0.15150    0.06655    1.000
    H4       H        0.88140    0.19890    0.04480    1.000
    B4       B        0.75736    0.16669    0.99074    1.000
    H5       H        0.76610    0.22430    0.91940    1.000
    B5       B        0.63906    0.13420    0.06622    1.000
    H6       H        0.56900    0.16930    0.04460    1.000
    B6       B        0.72875    0.99624    0.20796    1.000
    H7       H        0.71810    0.93930    0.27980    1.000
    B7       B        0.84825    0.02721    0.13282    1.000
    H8       H        0.91780    0.99110    0.15530    1.000
    B8       B        0.85394    0.06181    0.00908    1.000
    H9       H        0.92700    0.04910    0.94940    1.000
    B9       B        0.73667    0.05112    0.00952    1.000
    H10      H        0.73140    0.03050    0.95100    1.000
    C2       C        0.66551    0.01584    0.12996    1.000
    B10      B        0.79398    0.96549    0.09682    1.000
    H11      H        0.82700    0.88840    0.09540    1.000
    C3       C        0.65361    0.29725    0.10210    1.000
    H12      H        0.70660    0.33600    0.05530    1.000
    O2       O        0.63141    0.30298    0.19610    1.000
    H13      H        0.65190    0.35040    0.19190    1.000
    C4       C        0.55877    0.33885    0.07211    1.000
    C5       C        0.46298    0.33529    0.14119    1.000
    H14      H        0.45530    0.31210    0.20830    1.000
    C6       C        0.37905    0.36581    0.11117    1.000
    H15      H        0.31400    0.36210    0.15900    1.000
    N1       N        0.38519    0.40065    0.01705    1.000
    C7       C        0.47699    0.40908    0.95098    1.000
    H16      H        0.48200    0.43670    0.88450    1.000
    C8       C        0.56522    0.37946    0.97490    1.000
    H17      H        0.62900    0.38670    0.92580    1.000
    C9       C        0.58487    0.95476    0.16402    1.000
    H18      H        0.56320    0.93240    0.23650    1.000
    C10      C        0.62440    0.86399    0.13073    1.000
    C11      C        0.66790    0.77749    0.18547    1.000
    H19      H        0.67580    0.77480    0.24330    1.000
    C12      C        0.69981    0.69505    0.15521    1.000
    H20      H        0.72980    0.63650    0.19340    1.000
    N2       N        0.69043    0.69372    0.07475    1.000
    C13      C        0.64813    0.77793    0.02249    1.000
    H21      H        0.64080    0.77880    0.96500    1.000
    C14      C        0.61469    0.86322    0.04757    1.000
    H22      H        0.58530    0.92090    0.00800    1.000
    O3       O        0.19910    0.54169    0.04097    1.000
    C15      C        0.10753    0.56853    0.08914    1.000
    O4       O        0.02987    0.55862    0.08246    1.000
    C16      C        0.09274    0.61697    0.16194    1.000
    C17      C        0.01219    0.69466    0.17849    1.000
    H23      H        0.96220    0.71400    0.14790    1.000
    C18      C        0.00504    0.74391    0.23993    1.000
    H24      H        0.95140    0.79840    0.24920    1.000
    C19      C        0.07584    0.71422    0.28813    1.000
    C20      C        0.15334    0.63315    0.27500    1.000
    H25      H        0.19980    0.61000    0.31020    1.000
    C21      C        0.16284    0.58632    0.21096    1.000
    H26      H        0.21750    0.53290    0.20040    1.000
    C22      C        0.07360    0.77040    0.34800    1.000
    C23      C        0.06146    0.87092    0.31164    1.000
    H27      H        0.04830    0.90280    0.25180    1.000
    C24      C        0.06830    0.92585    0.36159    1.000
    C25      C        0.08578    0.87851    0.45038    1.000
    H28      H        0.08970    0.91520    0.48540    1.000
    C26      C        0.09758    0.77754    0.48840    1.000
    C27      C        0.09167    0.72463    0.43634    1.000
    H29      H        0.10010    0.65610    0.46160    1.000
    C28      C        0.12157    0.72403    0.57990    1.000
    C29      C        0.07722    0.64498    0.64449    1.000
    H30      H        0.02740    0.62930    0.63210    1.000
    C30      C        0.10464    0.58898    0.72635    1.000
    H31      H        0.07300    0.53600    0.77010    1.000
    C31      C        0.17889    0.61060    0.74448    1.000
    C32      C        0.22264    0.69013    0.68132    1.000
    H32      H        0.27290    0.70550    0.69350    1.000
    C33      C        0.19306    0.74699    0.60064    1.000
    H33      H        0.22180    0.80220    0.55900    1.000
    C34      C        0.21059    0.54630    0.82983    1.000
    O5       O        0.15237    0.49167    0.89884    1.000
    O6       O        0.29652    0.54042    0.83439    1.000
    C35      C        0.06634    0.03093    0.31229    1.000
    C36      C        0.13258    0.07645    0.31521    1.000
    H34      H        0.17040    0.04380    0.35890    1.000
    C37      C        0.14377    0.16889    0.25496    1.000
    H35      H        0.19090    0.19840    0.25610    1.000
    C38      C        0.08660    0.21901    0.19276    1.000
    C39      C        0.01503    0.17698    0.19452    1.000
    H36      H        0.97240    0.21230    0.15560    1.000
    C40      C        0.00573    0.08363    0.25301    1.000
    H37      H        0.95740    0.05490    0.25290    1.000
    C41      C        0.10384    0.31567    0.12138    1.000
    O7       O        0.18199    0.34264    0.10957    1.000
    O8       O        0.04096    0.36126    0.07695    1.000
    H38      H        0.53010    0.99650    0.13550    1.000
    O9       O        0.54430    0.93730    0.25850    1.000
    H39      H        0.50180    0.90200    0.27960    1.000
    C42      C        0.30370    0.81045    0.89850    1.000
    Co2      Co       0.74624    0.56890    0.02014    1.000
    O10      O        0.50260    0.98692    0.86080    1.000
    H40      H        0.55110    0.01620    0.82920    1.000
    B11      B        0.36630    0.89807    0.81150    1.000
    H41      H        0.43960    0.88380    0.75260    1.000
    B12      B        0.25017    0.88862    0.81074    1.000
    H42      H        0.24610    0.86790    0.75170    1.000
    B13      B        0.17336    0.84850    0.93345    1.000
    H43      H        0.11860    0.80110    0.95520    1.000
    B14      B        0.24264    0.83331    0.00926    1.000
    H44      H        0.23390    0.77570    0.08060    1.000
    B15      B        0.36094    0.86580    0.93378    1.000
    H45      H        0.43100    0.83070    0.95540    1.000
    B16      B        0.27125    0.00376    0.79204    1.000
    H46      H        0.28190    0.06070    0.72020    1.000
    B17      B        0.15175    0.97279    0.86718    1.000
    H47      H        0.08220    0.00890    0.84470    1.000
    B18      B        0.14606    0.93819    0.99092    1.000
    H48      H        0.07300    0.95090    0.05060    1.000
    B19      B        0.26333    0.94888    0.99048    1.000
    H49      H        0.26860    0.96950    0.04900    1.000
    C43      C        0.33449    0.98416    0.87004    1.000
    B20      B        0.20602    0.03451    0.90318    1.000
    H50      H        0.17300    0.11160    0.90460    1.000
    C44      C        0.34639    0.70275    0.89790    1.000
    H51      H        0.29340    0.66400    0.94470    1.000
    O11      O        0.36859    0.69702    0.80390    1.000
    H52      H        0.34810    0.64960    0.80810    1.000
    C45      C        0.44123    0.66115    0.92789    1.000
    C46      C        0.53702    0.66471    0.85881    1.000
    H53      H        0.54470    0.68790    0.79170    1.000
    C47      C        0.62095    0.63419    0.88883    1.000
    H54      H        0.68600    0.63790    0.84100    1.000
    N3       N        0.61481    0.59935    0.98295    1.000
    C48      C        0.52301    0.59092    0.04902    1.000
    H55      H        0.51800    0.56330    0.11550    1.000
    C49      C        0.43478    0.62054    0.02510    1.000
    H56      H        0.37100    0.61330    0.07420    1.000
    C50      C        0.41513    0.04524    0.83598    1.000
    H57      H        0.43680    0.06760    0.76350    1.000
    C51      C        0.37560    0.13601    0.86927    1.000
    C52      C        0.33210    0.22251    0.81453    1.000
    H58      H        0.32420    0.22520    0.75670    1.000
    C53      C        0.30019    0.30495    0.84479    1.000
    H59      H        0.27020    0.36350    0.80660    1.000
    N4       N        0.30957    0.30628    0.92525    1.000
    C54      C        0.35187    0.22207    0.97751    1.000
    H60      H        0.35920    0.22120    0.03500    1.000
    C55      C        0.38531    0.13678    0.95243    1.000
    H61      H        0.41470    0.07910    0.99200    1.000
    O12      O        0.80090    0.45831    0.95903    1.000
    C56      C        0.89247    0.43147    0.91086    1.000
    O13      O        0.97013    0.44138    0.91754    1.000
    C57      C        0.90726    0.38303    0.83806    1.000
    C58      C        0.98781    0.30534    0.82151    1.000
    H62      H        0.03780    0.28600    0.85210    1.000
    C59      C        0.99496    0.25609    0.76007    1.000
    H63      H        0.04860    0.20160    0.75080    1.000
    C60      C        0.92416    0.28578    0.71187    1.000
    C61      C        0.84666    0.36685    0.72500    1.000
    H64      H        0.80020    0.39000    0.68980    1.000
    C62      C        0.83716    0.41368    0.78904    1.000
    H65      H        0.78250    0.46710    0.79960    1.000
    C63      C        0.92640    0.22960    0.65200    1.000
    C64      C        0.93854    0.12908    0.68836    1.000
    H66      H        0.95170    0.09720    0.74820    1.000
    C65      C        0.93170    0.07415    0.63841    1.000
    C66      C        0.91422    0.12149    0.54962    1.000
    H67      H        0.91030    0.08480    0.51460    1.000
    C67      C        0.90242    0.22246    0.51160    1.000
    C68      C        0.90833    0.27537    0.56366    1.000
    H68      H        0.89990    0.34390    0.53840    1.000
    C69      C        0.87843    0.27597    0.42010    1.000
    C70      C        0.92278    0.35502    0.35551    1.000
    H69      H        0.97260    0.37070    0.36790    1.000
    C71      C        0.89536    0.41102    0.27365    1.000
    H70      H        0.92700    0.46400    0.22990    1.000
    C72      C        0.82111    0.38940    0.25552    1.000
    C73      C        0.77736    0.30987    0.31868    1.000
    H71      H        0.72710    0.29450    0.30650    1.000
    C74      C        0.80694    0.25301    0.39936    1.000
    H72      H        0.77820    0.19780    0.44100    1.000
    C75      C        0.78941    0.45370    0.17017    1.000
    O14      O        0.84763    0.50833    0.10116    1.000
    O15      O        0.70348    0.45958    0.16561    1.000
    C76      C        0.93366    0.96907    0.68771    1.000
    C77      C        0.86742    0.92355    0.68479    1.000
    H73      H        0.82960    0.95620    0.64110    1.000
    C78      C        0.85623    0.83111    0.74504    1.000
    H74      H        0.80910    0.80160    0.74390    1.000
    C79      C        0.91340    0.78099    0.80724    1.000
    C80      C        0.98497    0.82302    0.80548    1.000
    H75      H        0.02760    0.78770    0.84440    1.000
    C81      C        0.99427    0.91637    0.74699    1.000
    H76      H        0.04260    0.94510    0.74710    1.000
    C82      C        0.89616    0.68433    0.87862    1.000
    O16      O        0.81801    0.65736    0.89043    1.000
    O17      O        0.95904    0.63874    0.92305    1.000
    H77      H        0.46990    0.00350    0.86450    1.000
    O18      O        0.45570    0.06270    0.74150    1.000
    H78      H        0.49820    0.09800    0.72040    1.000
    Co3      Co       0.00000    0.50000    0.00000    1.000
