data_functionalizedCrystal
_audit_creation_method	'EQeq! by Chris Wilmer'
_symmetry_space_group_name_H-M	'P1'
_symmetry_Int_Tables_number	1
_symmetry_cell_setting	triclinic
loop_
_symmetry_equiv_pos_as_xyz
  x,y,z
_cell_length_a	10.184
_cell_length_b	10.348
_cell_length_c	18.091
_cell_angle_alpha	102.34
_cell_angle_beta	99.19
_cell_angle_gamma	93.95
loop_
_atom_site_label
_atom_site_type_symbol
_atom_site_fract_x
_atom_site_fract_y
_atom_site_fract_z
_atom_site_charge
Mof_Cd	Cd	0.54726	0.54683	0.81557	0.512
Mof_O 	O 	0.31209	0.5652	0.81962	-0.26
Mof_O 	O 	0.37106	0.4816	0.70866	-0.234
Mof_O 	O 	0.8237	0.5388	0.83483	-0.218
Mof_O 	O 	0.6769	0.4956	0.72659	-0.241
Mof_O 	O 	0.11	0.224	0.49828	-0.209
Mof_O 	O 	0.8884	0.0139	0.10837	-0.199
Mof_O 	O 	0.607	0.74243	0.90308	-0.244
Mof_O 	O 	0.5477	0.7997	0.79355	-0.238
Mof_O 	O 	0.5215	0.2927	0.80387	-0.229
Mof_O 	O 	0.5945	0.4367	0.91254	-0.234
Mof_N 	N 	0.938	0.348	0.51504	-0.236
Mof_H 	H 	0.8574	0.367	0.4951	0.13
Mof_N 	N 	0.7397	0.1681	0.10732	-0.24
Mof_H 	H 	0.728	0.2519	0.1281	0.154
Mof_C 	C 	0.2832	0.5121	0.74889	0.266
Mof_C 	C 	0.1387	0.4818	0.71052	0.017
Mof_C 	C 	0.1069	0.4299	0.63174	-0.138
Mof_H 	H 	0.1748	0.4157	0.6031	0.118
Mof_C 	C 	0.9741	0.3989	0.59552	0.169
Mof_C 	C 	0.8735	0.4226	0.63895	-0.141
Mof_H 	H 	0.7844	0.4022	0.615	0.107
Mof_C 	C 	0.9044	0.4764	0.71756	0.021
Mof_C 	C 	0.0378	0.5042	0.75386	-0.068
Mof_H 	H 	0.0594	0.5376	0.8068	0.087
Mof_C 	C 	0.7953	0.5061	0.76369	0.264
Mof_C 	C 	0.008	0.267	0.4718	0.223
Mof_C 	C 	0.9573	0.2327	0.38652	-0.035
Mof_C 	C 	0.8213	0.2156	0.3548	-0.019
Mof_H 	H 	0.7576	0.2289	0.3865	0.051
Mof_C 	C 	0.7817	0.1783	0.2747	-0.039
Mof_H 	H 	0.6913	0.1677	0.2532	0.071
Mof_C 	C 	0.8753	0.1572	0.22764	-0.022
Mof_C 	C 	0.0116	0.1762	0.25981	-0.032
Mof_H 	H 	0.0752	0.1642	0.228	0.07
Mof_C 	C 	0.0515	0.2125	0.33808	-0.021
Mof_H 	H 	0.1422	0.2238	0.3591	0.066
Mof_C 	C 	0.8352	0.1072	0.14253	0.219
Mof_C 	C 	0.687	0.1352	0.02761	0.174
Mof_C 	C 	0.6538	0.2372	0.99125	-0.137
Mof_H 	H 	0.6671	0.325	0.0192	0.118
Mof_C 	C 	0.6006	0.2075	0.91286	0.024
Mof_C 	C 	0.5797	0.0755	0.87099	-0.064
Mof_H 	H 	0.5446	0.0558	0.8187	0.088
Mof_C 	C 	0.6116	0.9732	0.9076	0.015
Mof_C 	C 	0.6642	0.004	0.98617	-0.131
Mof_H 	H 	0.6841	0.9359	0.011	0.122
Mof_C 	C 	0.5878	0.8296	0.86465	0.268
Mof_C 	C 	0.5691	0.3192	0.87311	0.275
Mof_Cd	Cd	0.45274	0.45317	0.18443	0.512
Mof_O 	O 	0.68791	0.4348	0.18038	-0.26
Mof_O 	O 	0.62894	0.5184	0.29134	-0.234
Mof_O 	O 	0.1763	0.4612	0.16517	-0.218
Mof_O 	O 	0.3231	0.5044	0.27341	-0.241
Mof_O 	O 	0.89	0.776	0.50172	-0.209
Mof_O 	O 	0.1116	0.9861	0.89163	-0.199
Mof_O 	O 	0.393	0.25757	0.09692	-0.244
Mof_O 	O 	0.4523	0.2003	0.20645	-0.238
Mof_O 	O 	0.4785	0.7073	0.19613	-0.229
Mof_O 	O 	0.4055	0.5633	0.08746	-0.234
Mof_N 	N 	0.062	0.652	0.48496	-0.236
Mof_H 	H 	0.1426	0.633	0.5049	0.13
Mof_N 	N 	0.2603	0.8319	0.89268	-0.24
Mof_H 	H 	0.272	0.7481	0.8719	0.154
Mof_C 	C 	0.7168	0.4879	0.25111	0.266
Mof_C 	C 	0.8613	0.5182	0.28948	0.017
Mof_C 	C 	0.8931	0.5701	0.36826	-0.138
Mof_H 	H 	0.8252	0.5843	0.3969	0.118
Mof_C 	C 	0.0259	0.6011	0.40448	0.169
Mof_C 	C 	0.1265	0.5774	0.36105	-0.141
Mof_H 	H 	0.2156	0.5978	0.385	0.107
Mof_C 	C 	0.0956	0.5236	0.28244	0.021
Mof_C 	C 	0.9622	0.4958	0.24614	-0.068
Mof_H 	H 	0.9406	0.4624	0.1932	0.087
Mof_C 	C 	0.2047	0.4939	0.23631	0.264
Mof_C 	C 	0.992	0.733	0.5282	0.223
Mof_C 	C 	0.0427	0.7673	0.61348	-0.035
Mof_C 	C 	0.1787	0.7844	0.6452	-0.019
Mof_H 	H 	0.2424	0.7711	0.6135	0.051
Mof_C 	C 	0.2183	0.8217	0.7253	-0.039
Mof_H 	H 	0.3087	0.8323	0.7468	0.071
Mof_C 	C 	0.1247	0.8428	0.77236	-0.022
Mof_C 	C 	0.9884	0.8238	0.74019	-0.032
Mof_H 	H 	0.9248	0.8358	0.772	0.07
Mof_C 	C 	0.9485	0.7875	0.66192	-0.021
Mof_H 	H 	0.8578	0.7762	0.6409	0.066
Mof_C 	C 	0.1648	0.8928	0.85747	0.219
Mof_C 	C 	0.313	0.8648	0.97239	0.174
Mof_C 	C 	0.3462	0.7628	0.00875	-0.137
Mof_H 	H 	0.3329	0.675	0.9808	0.118
Mof_C 	C 	0.3994	0.7925	0.08714	0.024
Mof_C 	C 	0.4203	0.9245	0.12901	-0.064
Mof_H 	H 	0.4554	0.9442	0.1813	0.088
Mof_C 	C 	0.3884	0.0268	0.0924	0.015
Mof_C 	C 	0.3358	0.996	0.01383	-0.131
Mof_H 	H 	0.3159	0.0641	0.989	0.122
Mof_C 	C 	0.4122	0.1704	0.13535	0.268
Mof_C 	C 	0.4309	0.6808	0.12689	0.275
_end
