# CIF file generated by openbabel 3.1.0, see https://openbabel.org
data_I
_chemical_name_common 'repaired_ja500330a_si_007'
_cell_length_a 35.0765
_cell_length_b 35.0765
_cell_length_c 35.0765
_cell_angle_alpha 90
_cell_angle_beta 90
_cell_angle_gamma 90
_space_group_name_H-M_alt 'P 1'
_space_group_name_Hall 'P 1'
loop_
    _symmetry_equiv_pos_as_xyz
    x,y,z
loop_
    _atom_site_label
    _atom_site_type_symbol
    _atom_site_fract_x
    _atom_site_fract_y
    _atom_site_fract_z
    _atom_site_occupancy
    X1       C        0.29734    0.45348    0.90348    1.000
    C2       C        0.33057    0.46932    0.91997    1.000
    X3       C        0.34767    0.45326    0.95289    1.000
    C4       C        0.32979    0.42124    0.96983    1.000
    X5       C        0.29653    0.40476    0.95413    1.000
    C6       C        0.28052    0.42146    0.92115    1.000
    H7       H        0.34413    0.49328    0.90600    1.000
    H8       H        0.34278    0.40790    0.99447    1.000
    H9       H        0.25575    0.40840    0.90816    1.000
    X10      C        0.45387    0.84574    0.45415    1.000
    C11      C        0.47050    0.82848    0.42181    1.000
    X12      C        0.45483    0.79528    0.40531    1.000
    C13      C        0.42236    0.77875    0.42247    1.000
    X14      C        0.40504    0.79526    0.45484    1.000
    C15      C        0.42146    0.82848    0.47061    1.000
    H16      H        0.49464    0.84211    0.40821    1.000
    H17      H        0.40930    0.75405    0.40935    1.000
    H18      H        0.40776    0.84213    0.49468    1.000
    X19      C        0.95351    0.90251    0.79807    1.000
    C20      C        0.92149    0.92045    0.78130    1.000
    X21      C        0.90502    0.95361    0.79716    1.000
    C22      C        0.92169    0.96943    0.83027    1.000
    X23      C        0.95377    0.95253    0.84807    1.000
    C24      C        0.96967    0.91944    0.83107    1.000
    H25      H        0.90816    0.90761    0.75658    1.000
    H26      H        0.90847    0.99418    0.84316    1.000
    H27      H        0.99376    0.90572    0.84468    1.000
    X28      C        0.45355    0.90497    0.29714    1.000
    C29      C        0.42053    0.92169    0.28126    1.000
    X30      C        0.40275    0.95378    0.29811    1.000
    C31      C        0.41969    0.96972    0.33117    1.000
    X32      C        0.45262    0.95355    0.34819    1.000
    C33      C        0.46938    0.92144    0.33034    1.000
    H34      H        0.40768    0.90850    0.25647    1.000
    H35      H        0.40606    0.99385    0.34482    1.000
    H36      H        0.49403    0.90805    0.34327    1.000
    X37      C        0.79672    0.29576    0.34487    1.000
    C38      C        0.82982    0.27986    0.32831    1.000
    X39      C        0.84748    0.29668    0.29625    1.000
    C40      C        0.83085    0.32971    0.28029    1.000
    X41      C        0.79776    0.34637    0.29610    1.000
    C42      C        0.78084    0.32880    0.32815    1.000
    H43      H        0.84294    0.25523    0.34151    1.000
    H44      H        0.84472    0.34351    0.25640    1.000
    H45      H        0.75617    0.34194    0.34125    1.000
    X46      C        0.79637    0.84504    0.79621    1.000
    C47      C        0.82977    0.82873    0.78070    1.000
    X48      C        0.84747    0.79658    0.79749    1.000
    C49      C        0.82999    0.78007    0.82998    1.000
    X50      C        0.79663    0.79580    0.84656    1.000
    C51      C        0.77995    0.82798    0.82879    1.000
    H52      H        0.84305    0.84238    0.75639    1.000
    H53      H        0.84357    0.75592    0.84362    1.000
    H54      H        0.75501    0.84108    0.84144    1.000
    X55      C        0.95381    0.34611    0.45282    1.000
    C56      C        0.96989    0.32951    0.41983    1.000
    X57      C        0.95419    0.29636    0.40318    1.000
    C58      C        0.92219    0.27935    0.42074    1.000
    X59      C        0.90542    0.29521    0.45375    1.000
    C60      C        0.92187    0.32834    0.46966    1.000
    H61      H        0.99369    0.34347    0.40600    1.000
    H62      H        0.90914    0.25465    0.40760    1.000
    H63      H        0.90861    0.34145    0.49426    1.000
    X64      C        0.45216    0.45236    0.84663    1.000
    C65      C        0.41943    0.46862    0.82978    1.000
    X66      C        0.40237    0.45242    0.79713    1.000
    C67      C        0.41922    0.41965    0.78086    1.000
    X68      C        0.45200    0.40272    0.79698    1.000
    C69      C        0.46832    0.41966    0.82964    1.000
    H70      H        0.40616    0.49308    0.84315    1.000
    H71      H        0.40580    0.40629    0.75647    1.000
    H72      H        0.49281    0.40635    0.84293    1.000
    X73      C        0.79686    0.90590    0.95512    1.000
    C74      C        0.78018    0.92330    0.92289    1.000
    X75      C        0.79672    0.95556    0.90546    1.000
    C76      C        0.83030    0.97106    0.92157    1.000
    X77      C        0.84802    0.95438    0.95384    1.000
    C78      C        0.83041    0.92207    0.97054    1.000
    H79      H        0.75519    0.91045    0.91010    1.000
    H80      H        0.84372    0.99516    0.90768    1.000
    H81      H        0.84388    0.90818    0.99461    1.000
    X82      C        0.29660    0.84773    0.29604    1.000
    C83      C        0.27965    0.83012    0.32821    1.000
    X84      C        0.29486    0.79650    0.34439    1.000
    C85      C        0.32711    0.77973    0.32710    1.000
    X86      C        0.34467    0.79628    0.29489    1.000
    C87      C        0.32877    0.82992    0.27942    1.000
    H88      H        0.25558    0.84367    0.34201    1.000
    H89      H        0.33981    0.75471    0.33996    1.000
    H90      H        0.34276    0.84333    0.25538    1.000
    X91      C        0.79693    0.40436    0.45348    1.000
    C92      C        0.78086    0.42106    0.42055    1.000
    X93      C        0.79753    0.45320    0.40299    1.000
    C94      C        0.83062    0.46917    0.41953    1.000
    X95      C        0.84777    0.45314    0.45238    1.000
    C96      C        0.83008    0.42099    0.46926    1.000
    H97      H        0.75617    0.40790    0.40749    1.000
    H98      H        0.84405    0.49324    0.40561    1.000
    H99      H        0.84314    0.40765    0.49387    1.000
    X100     C        0.95381    0.84816    0.95362    1.000
    C101     C        0.92178    0.83031    0.97054    1.000
    X102     C        0.90541    0.79701    0.95482    1.000
    C103     C        0.92219    0.78099    0.92198    1.000
    X104     C        0.95411    0.79789    0.90433    1.000
    C105     C        0.96995    0.83106    0.92078    1.000
    H106     H        0.90833    0.84335    0.99509    1.000
    H107     H        0.90918    0.75619    0.90899    1.000
    H108     H        0.99387    0.84464    0.90675    1.000
    X109     C        0.29662    0.34664    0.79674    1.000
    C110     C        0.27975    0.32911    0.82885    1.000
    X111     C        0.29563    0.29609    0.84560    1.000
    C112     C        0.32871    0.28013    0.82903    1.000
    X113     C        0.34636    0.29688    0.79694    1.000
    C114     C        0.32972    0.32993    0.78093    1.000
    H115     H        0.25510    0.34228    0.84196    1.000
    H116     H        0.34182    0.25552    0.84225    1.000
    H117     H        0.34357    0.34369    0.75702    1.000
    X118     C        0.15423    0.54599    0.54481    1.000
    C119     C        0.17144    0.52942    0.57723    1.000
    X120     C        0.20377    0.54593    0.59460    1.000
    C121     C        0.21946    0.57927    0.57825    1.000
    X122     C        0.20299    0.59657    0.54581    1.000
    C123     C        0.17064    0.57930    0.52920    1.000
    H124     H        0.15841    0.50462    0.59021    1.000
    H125     H        0.24354    0.59290    0.59195    1.000
    H126     H        0.15703    0.59291    0.50507    1.000
    X127     C        0.59678    0.70319    0.04641    1.000
    C128     C        0.57915    0.67106    0.02969    1.000
    X129     C        0.54606    0.65449    0.04567    1.000
    C130     C        0.53021    0.67127    0.07869    1.000
    X131     C        0.54711    0.70338    0.09619    1.000
    C132     C        0.58015    0.71921    0.07945    1.000
    H133     H        0.59228    0.65782    0.00509    1.000
    H134     H        0.50556    0.65817    0.09186    1.000
    H135     H        0.59397    0.74315    0.09319    1.000
    X136     C        0.70375    0.20329    0.65357    1.000
    C137     C        0.71971    0.17030    0.67025    1.000
    X138     C        0.70380    0.15364    0.70325    1.000
    C139     C        0.67175    0.17119    0.72012    1.000
    X140     C        0.65505    0.20419    0.70420    1.000
    C141     C        0.67167    0.22012    0.67113    1.000
    H142     H        0.74362    0.15648    0.65645    1.000
    H143     H        0.65859    0.15802    0.74475    1.000
    H144     H        0.65846    0.24470    0.65793    1.000
    X145     C        0.09515    0.04412    0.20541    1.000
    C146     C        0.07799    0.07673    0.22162    1.000
    X147     C        0.04532    0.09365    0.20525    1.000
    C148     C        0.02911    0.07657    0.17260    1.000
    X149     C        0.04547    0.04394    0.15560    1.000
    C150     C        0.07824    0.02780    0.17265    1.000
    H151     H        0.09140    0.09027    0.24590    1.000
    H152     H        0.00481    0.09000    0.15909    1.000
    H153     H        0.09183    0.00359    0.15916    1.000
    X154     C        0.04684    0.15493    0.04598    1.000
    C155     C        0.08019    0.17126    0.03034    1.000
    X156     C        0.09786    0.20354    0.04697    1.000
    C157     C        0.08043    0.22014    0.07944    1.000
    X158     C        0.04721    0.20438    0.09622    1.000
    C159     C        0.03053    0.17207    0.07860    1.000
    H160     H        0.09344    0.15757    0.00604    1.000
    H161     H        0.09397    0.24440    0.09294    1.000
    H162     H        0.00566    0.15896    0.09137    1.000
    X163     C        0.15448    0.70539    0.70429    1.000
    C164     C        0.17086    0.72108    0.67101    1.000
    X165     C        0.20323    0.70455    0.65369    1.000
    C166     C        0.21979    0.67212    0.67094    1.000
    X167     C        0.20417    0.65568    0.70424    1.000
    C168     C        0.17178    0.67296    0.72079    1.000
    H169     H        0.15720    0.74520    0.65741    1.000
    H170     H        0.24389    0.65848    0.65729    1.000
    H171     H        0.15878    0.65993    0.74558    1.000
    X172     C        0.20489    0.15523    0.20527    1.000
    C173     C        0.17222    0.17223    0.22165    1.000
    X174     C        0.15462    0.20458    0.20505    1.000
    C175     C        0.17147    0.22054    0.17201    1.000
    X176     C        0.20396    0.20411    0.15483    1.000
    C177     C        0.22058    0.17178    0.17210    1.000
    H178     H        0.15935    0.15896    0.24638    1.000
    H179     H        0.15808    0.24473    0.15827    1.000
    H180     H        0.24481    0.15828    0.15855    1.000
    X181     C        0.65468    0.04571    0.54717    1.000
    C182     C        0.67148    0.07868    0.53130    1.000
    X183     C        0.70348    0.09627    0.54825    1.000
    C184     C        0.71921    0.07967    0.58145    1.000
    X185     C        0.70308    0.04672    0.59844    1.000
    C186     C        0.67103    0.02990    0.58049    1.000
    H187     H        0.65852    0.09172    0.50650    1.000
    H188     H        0.74319    0.09358    0.59505    1.000
    H189     H        0.65762    0.00527    0.59341    1.000
    X190     C        0.54495    0.54530    0.15488    1.000
    C191     C        0.57740    0.52888    0.17218    1.000
    X192     C        0.59475    0.54558    0.20446    1.000
    C193     C        0.57835    0.57895    0.21998    1.000
    X194     C        0.54589    0.59614    0.20340    1.000
    C195     C        0.52931    0.57868    0.17114    1.000
    H196     H        0.59040    0.50404    0.15925    1.000
    H197     H        0.59205    0.59270    0.24399    1.000
    H198     H        0.50516    0.59222    0.15748    1.000
    X199     C        0.65336    0.70349    0.20281    1.000
    C200     C        0.66997    0.71947    0.16977    1.000
    X201     C        0.70296    0.70357    0.15303    1.000
    C202     C        0.71983    0.67147    0.17054    1.000
    X203     C        0.70397    0.65476    0.20357    1.000
    C204     C        0.67095    0.67139    0.21956    1.000
    H205     H        0.65616    0.74340    0.15600    1.000
    H206     H        0.74445    0.65831    0.15734    1.000
    H207     H        0.65782    0.65819    0.24419    1.000
    X208     C        0.15573    0.04638    0.04544    1.000
    C209     C        0.17304    0.02984    0.07785    1.000
    X210     C        0.20535    0.04644    0.09530    1.000
    C211     C        0.22080    0.08001    0.07911    1.000
    X212     C        0.20416    0.09762    0.04676    1.000
    C213     C        0.17193    0.07991    0.03002    1.000
    H214     H        0.16018    0.00489    0.09069    1.000
    H215     H        0.24489    0.09347    0.09297    1.000
    H216     H        0.15814    0.09328    0.00583    1.000
    X217     C        0.59632    0.20369    0.54589    1.000
    C218     C        0.57894    0.17134    0.52938    1.000
    X219     C        0.54564    0.15499    0.54512    1.000
    C220     C        0.52922    0.17228    0.57754    1.000
    X221     C        0.54585    0.20461    0.59482    1.000
    C222     C        0.57914    0.22023    0.57836    1.000
    H223     H        0.59249    0.15767    0.50524    1.000
    H224     H        0.50444    0.15929    0.59059    1.000
    H225     H        0.59284    0.24429    0.59202    1.000
    X226     C        0.09350    0.54525    0.70518    1.000
    C227     C        0.07652    0.52900    0.67244    1.000
    X228     C        0.04385    0.54526    0.65534    1.000
    C229     C        0.02757    0.57799    0.67233    1.000
    X230     C        0.04376    0.59499    0.70508    1.000
    C231     C        0.07644    0.57795    0.72139    1.000
    H232     H        0.09000    0.50470    0.65900    1.000
    H233     H        0.00333    0.59149    0.65880    1.000
    H234     H        0.08989    0.59140    0.74571    1.000
    X235     C        0.65498    0.54563    0.04456    1.000
    C236     C        0.67232    0.52904    0.07691    1.000
    X237     C        0.70478    0.54550    0.09417    1.000
    C238     C        0.72044    0.57882    0.07777    1.000
    X239     C        0.70388    0.59619    0.04542    1.000
    C240     C        0.67139    0.57896    0.02893    1.000
    H241     H        0.65931    0.50425    0.08992    1.000
    H242     H        0.74460    0.59238    0.09139    1.000
    H243     H        0.65770    0.59264    0.00487    1.000
    X244     C        0.04471    0.70535    0.59485    1.000
    C245     C        0.02809    0.67293    0.57760    1.000
    X246     C        0.04451    0.65560    0.54513    1.000
    C247     C        0.07787    0.67194    0.52946    1.000
    X248     C        0.09527    0.70430    0.54597    1.000
    C249     C        0.07804    0.72090    0.57839    1.000
    H250     H        0.00330    0.65997    0.59065    1.000
    H251     H        0.09142    0.65828    0.50532    1.000
    H252     H        0.09173    0.74500    0.59200    1.000
    X253     C        0.54670    0.04470    0.65539    1.000
    C254     C        0.58022    0.02920    0.67162    1.000
    X255     C        0.59786    0.04587    0.70398    1.000
    C256     C        0.58022    0.07821    0.72060    1.000
    X257     C        0.54669    0.09441    0.70507    1.000
    C258     C        0.53013    0.07701    0.67276    1.000
    H259     H        0.59363    0.00507    0.65779    1.000
    H260     H        0.59361    0.09206    0.74473    1.000
    H261     H        0.50519    0.08986    0.65990    1.000
    X262     C        0.45284    0.34793    0.95305    1.000
    C263     C        0.42083    0.33000    0.96994    1.000
    X264     C        0.40446    0.29669    0.95421    1.000
    C265     C        0.42123    0.28073    0.92128    1.000
    X266     C        0.45323    0.29763    0.90364    1.000
    C267     C        0.46898    0.33087    0.92015    1.000
    H268     H        0.40743    0.34297    0.99455    1.000
    H269     H        0.40824    0.25592    0.90829    1.000
    H270     H        0.49292    0.34447    0.90618    1.000
    X271     C        0.95246    0.45192    0.34824    1.000
    C272     C        0.91982    0.46815    0.33083    1.000
    X273     C        0.90316    0.45203    0.29788    1.000
    C274     C        0.92028    0.41938    0.28169    1.000
    X275     C        0.95297    0.40243    0.29800    1.000
    C276     C        0.96890    0.41926    0.33101    1.000
    H277     H        0.90624    0.49263    0.34386    1.000
    H278     H        0.90718    0.40617    0.25705    1.000
    H279     H        0.99337    0.40583    0.34422    1.000
    X280     C        0.29823    0.95382    0.40227    1.000
    C281     C        0.28138    0.92179    0.42011    1.000
    X282     C        0.29720    0.90522    0.45323    1.000
    C283     C        0.33036    0.92174    0.46908    1.000
    X284     C        0.34823    0.95380    0.45225    1.000
    C285     C        0.33126    0.96986    0.41924    1.000
    H286     H        0.25662    0.90856    0.40723    1.000
    H287     H        0.34321    0.90843    0.49380    1.000
    H288     H        0.34493    0.99395    0.40559    1.000
    O289     O        0.14784    0.54964    0.74665    1.000
    O290     O        0.16189    0.54505    0.81444    1.000
    O291     O        0.24605    0.60177    0.70037    1.000
    O292     O        0.31033    0.59148    0.70379    1.000
    O293     O        0.19970    0.50383    0.64847    1.000
    O294     O        0.20474    0.43578    0.66233    1.000
    O295     O        0.34928    0.49529    0.80042    1.000
    O296     O        0.33922    0.56259    0.79205    1.000
    O297     O        0.25449    0.45012    0.85008    1.000
    O298     O        0.18393    0.45481    0.83676    1.000
    O299     O        0.29972    0.40018    0.75422    1.000
    O300     O        0.29468    0.41374    0.68408    1.000
    O301     O        0.34922    0.44976    0.75438    1.000
    O302     O        0.33586    0.45515    0.68410    1.000
    O303     O        0.25417    0.40019    0.80021    1.000
    O304     O        0.18391    0.41356    0.79574    1.000
    O305     O        0.30033    0.49584    0.84991    1.000
    O306     O        0.29426    0.56539    0.83723    1.000
    O307     O        0.14763    0.50368    0.70087    1.000
    O308     O        0.16143    0.43585    0.70572    1.000
    O309     O        0.24551    0.54976    0.64848    1.000
    O310     O        0.31400    0.54192    0.66228    1.000
    O311     O        0.20014    0.60182    0.74623    1.000
    O312     O        0.20536    0.58812    0.81431    1.000
    Zr313    Zr       0.20329    0.54659    0.77069    1.000
    O314     O        0.23710    0.51264    0.80748    1.000
    Zr315    Zr       0.27013    0.54648    0.70351    1.000
    O316     O        0.30703    0.51274    0.73753    1.000
    Zr317    Zr       0.20294    0.47948    0.70378    1.000
    O318     O        0.23690    0.44265    0.73758    1.000
    Zr319    Zr       0.29524    0.52150    0.79562    1.000
    O320     O        0.26154    0.55900    0.76178    1.000
    Zr321    Zr       0.22824    0.45452    0.79576    1.000
    O322     O        0.19077    0.48838    0.76202    1.000
    Zr323    Zr       0.29499    0.45459    0.72852    1.000
    O324     O        0.26103    0.48832    0.69119    1.000
    O325     O        0.21270    0.53688    0.71327    1.000
    O326     O        0.28595    0.46373    0.78634    1.000
    X327     C        0.13165    0.53140    0.71904    1.000
    X328     C        0.21828    0.61780    0.71845    1.000
    X329     C        0.21780    0.53164    0.63247    1.000
    X330     C        0.36486    0.46711    0.78271    1.000
    X331     C        0.28277    0.46772    0.86570    1.000
    X332     C        0.28226    0.38447    0.78247    1.000
    H333     H        0.23097    0.51863    0.83429    1.000
    H334     H        0.23083    0.41582    0.73153    1.000
    H335     H        0.19634    0.55313    0.69712    1.000
    H336     H        0.33396    0.51880    0.73191    1.000
    H337     H        0.32789    0.58555    0.78015    1.000
    H338     H        0.33385    0.58181    0.71598    1.000
    H339     H        0.18786    0.39654    0.77361    1.000
    H340     H        0.14917    0.43764    0.73108    1.000
    H341     H        0.27212    0.56112    0.85414    1.000
    H342     H        0.23052    0.60072    0.81215    1.000
    H343     H        0.27257    0.39673    0.68811    1.000
    H344     H        0.22984    0.43788    0.64960    1.000
    H345     H        0.14966    0.51965    0.81294    1.000
    H346     H        0.18830    0.47660    0.85411    1.000
    H347     H        0.30967    0.51778    0.64832    1.000
    H348     H        0.35318    0.47695    0.68852    1.000
    O349     O        0.24718    0.10158    0.20147    1.000
    O350     O        0.31528    0.08798    0.20641    1.000
    O351     O        0.20171    0.00384    0.14893    1.000
    O352     O        0.20619    0.93918    0.15893    1.000
    O353     O        0.14922    0.04869    0.24717    1.000
    O354     O        0.16321    0.04385    0.31516    1.000
    O355     O        0.30169    0.90004    0.25512    1.000
    O356     O        0.29459    0.91079    0.18817    1.000
    O357     O        0.35111    0.99576    0.30146    1.000
    O358     O        0.33723    0.06633    0.29594    1.000
    O359     O        0.25628    0.94975    0.35059    1.000
    O360     O        0.18524    0.95486    0.33670    1.000
    O361     O        0.25557    0.89982    0.30046    1.000
    O362     O        0.18629    0.91273    0.29656    1.000
    O363     O        0.30164    0.99581    0.35078    1.000
    O364     O        0.29615    0.06588    0.33749    1.000
    O365     O        0.35136    0.94981    0.25596    1.000
    O366     O        0.33923    0.95593    0.18601    1.000
    O367     O        0.20111    0.10130    0.24715    1.000
    O368     O        0.20610    0.08765    0.31498    1.000
    O369     O        0.14967    0.00316    0.20098    1.000
    O370     O        0.16408    0.93497    0.20809    1.000
    O371     O        0.24739    0.04991    0.14922    1.000
    O372     O        0.31535    0.04468    0.16294    1.000
    Zr373    Zr       0.27172    0.04639    0.20447    1.000
    O374     O        0.30868    0.01276    0.23845    1.000
    Zr375    Zr       0.20503    0.97916    0.20411    1.000
    O376     O        0.23917    0.94249    0.23805    1.000
    Zr377    Zr       0.20459    0.04605    0.27142    1.000
    O378     O        0.23861    0.01239    0.30831    1.000
    Zr379    Zr       0.29727    0.95453    0.22957    1.000
    O380     O        0.26332    0.98808    0.19194    1.000
    Zr381    Zr       0.29672    0.02157    0.29650    1.000
    O382     O        0.26273    0.05877    0.26265    1.000
    Zr383    Zr       0.23006    0.95427    0.29626    1.000
    O384     O        0.19255    0.98789    0.26233    1.000
    O385     O        0.21432    0.03656    0.21401    1.000
    O386     O        0.28782    0.96371    0.28732    1.000
    X387     C        0.21924    0.11743    0.21948    1.000
    X388     C        0.21965    0.03186    0.13309    1.000
    X389     C        0.13334    0.03054    0.21934    1.000
    X390     C        0.28376    0.88401    0.28297    1.000
    X391     C        0.36700    0.96741    0.28422    1.000
    X392     C        0.28442    0.96739    0.36647    1.000
    H393     H        0.33547    0.01908    0.23256    1.000
    H394     H        0.23247    0.01835    0.33514    1.000
    H395     H        0.19797    0.05278    0.19781    1.000
    H396     H        0.23368    0.91555    0.23189    1.000
    H397     H        0.28246    0.92204    0.16529    1.000
    H398     H        0.21831    0.91566    0.16870    1.000
    H399     H        0.27406    0.06169    0.35449    1.000
    H400     H        0.23134    0.10015    0.31320    1.000
    H401     H        0.35629    0.97785    0.19076    1.000
    H402     H        0.31361    0.01937    0.15058    1.000
    H403     H        0.19037    0.97562    0.35507    1.000
    H404     H        0.15081    0.01858    0.31315    1.000
    H405     H        0.31328    0.10045    0.23165    1.000
    H406     H        0.35521    0.06155    0.27476    1.000
    H407     H        0.15027    0.93878    0.23240    1.000
    H408     H        0.18906    0.89718    0.27320    1.000
    O409     O        0.45038    0.85174    0.25413    1.000
    O410     O        0.45603    0.83848    0.18581    1.000
    O411     O        0.39827    0.75390    0.29898    1.000
    O412     O        0.40831    0.68948    0.29550    1.000
    O413     O        0.49678    0.79924    0.35154    1.000
    O414     O        0.56465    0.79436    0.33745    1.000
    O415     O        0.50417    0.65024    0.19919    1.000
    O416     O        0.43714    0.66105    0.20677    1.000
    O417     O        0.55027    0.74588    0.14976    1.000
    O418     O        0.54533    0.81636    0.16362    1.000
    O419     O        0.59970    0.69979    0.24506    1.000
    O420     O        0.58609    0.70452    0.31553    1.000
    O421     O        0.54960    0.64998    0.24532    1.000
    O422     O        0.54510    0.66324    0.31511    1.000
    O423     O        0.60001    0.74597    0.19970    1.000
    O424     O        0.58687    0.81579    0.20438    1.000
    O425     O        0.50471    0.69988    0.14966    1.000
    O426     O        0.43494    0.70610    0.16197    1.000
    O427     O        0.49618    0.85152    0.30008    1.000
    O428     O        0.56431    0.83804    0.29421    1.000
    O429     O        0.45046    0.75383    0.35121    1.000
    O430     O        0.45762    0.68538    0.33702    1.000
    O431     O        0.39855    0.79982    0.25315    1.000
    O432     O        0.41252    0.79525    0.18534    1.000
    Zr433    Zr       0.45384    0.79669    0.22917    1.000
    O434     O        0.48764    0.76290    0.19227    1.000
    Zr435    Zr       0.45348    0.72947    0.29599    1.000
    O436     O        0.48718    0.69265    0.26186    1.000
    Zr437    Zr       0.52078    0.79642    0.29620    1.000
    O438     O        0.55751    0.76252    0.26230    1.000
    Zr439    Zr       0.47862    0.70470    0.20379    1.000
    O440     O        0.44119    0.73841    0.23772    1.000
    Zr441    Zr       0.54570    0.77165    0.20419    1.000
    O442     O        0.51200    0.80908    0.23808    1.000
    Zr443    Zr       0.54536    0.70440    0.27097    1.000
    O444     O        0.51168    0.73827    0.30844    1.000
    O445     O        0.46337    0.78683    0.28655    1.000
    O446     O        0.53641    0.71381    0.21318    1.000
    X447     C        0.46826    0.86753    0.28221    1.000
    X448     C        0.38243    0.78177    0.28085    1.000
    X449     C        0.46886    0.78127    0.36740    1.000
    X450     C        0.53201    0.63430    0.21714    1.000
    X451     C        0.53279    0.71764    0.13400    1.000
    X452     C        0.61556    0.71764    0.21712    1.000
    H453     H        0.48171    0.76920    0.16549    1.000
    H454     H        0.58434    0.76846    0.26843    1.000
    H455     H        0.44706    0.80295    0.30288    1.000
    H456     H        0.48097    0.66572    0.26739    1.000
    H457     H        0.41430    0.67241    0.21887    1.000
    H458     H        0.41783    0.66607    0.28298    1.000
    H459     H        0.60313    0.81236    0.22716    1.000
    H460     H        0.56185    0.85101    0.26927    1.000
    H461     H        0.43965    0.72802    0.14489    1.000
    H462     H        0.40015    0.76993    0.18689    1.000
    H463     H        0.60368    0.72611    0.31116    1.000
    H464     H        0.56270    0.76911    0.34991    1.000
    H465     H        0.48109    0.85122    0.18824    1.000
    H466     H        0.52367    0.81204    0.14611    1.000
    H467     H        0.48181    0.68942    0.35099    1.000
    H468     H        0.52243    0.64688    0.31151    1.000
    O469     O        0.10068    0.70124    0.74626    1.000
    O470     O        0.08736    0.70585    0.81414    1.000
    O471     O        0.00216    0.64926    0.70093    1.000
    O472     O        0.93787    0.65991    0.70431    1.000
    O473     O        0.04855    0.74747    0.64864    1.000
    O474     O        0.04340    0.81522    0.66234    1.000
    O475     O        0.89963    0.75536    0.80176    1.000
    O476     O        0.90987    0.68867    0.79396    1.000
    O477     O        0.99624    0.80090    0.85067    1.000
    O478     O        0.06594    0.79642    0.83650    1.000
    O479     O        0.94931    0.85100    0.75591    1.000
    O480     O        0.95344    0.83761    0.68533    1.000
    O481     O        0.89924    0.80086    0.75581    1.000
    O482     O        0.91214    0.79675    0.68578    1.000
    O483     O        0.99527    0.85077    0.80138    1.000
    O484     O        0.06576    0.83726    0.79484    1.000
    O485     O        0.94982    0.75576    0.85077    1.000
    O486     O        0.95565    0.68562    0.83793    1.000
    O487     O        0.10064    0.74734    0.70060    1.000
    O488     O        0.08678    0.81546    0.70579    1.000
    O489     O        0.00282    0.70147    0.64883    1.000
    O490     O        0.93420    0.70946    0.66306    1.000
    O491     O        0.04832    0.64917    0.74652    1.000
    O492     O        0.04372    0.66302    0.81451    1.000
    Zr493    Zr       0.04553    0.70445    0.77079    1.000
    O494     O        0.01222    0.73847    0.80785    1.000
    Zr495    Zr       0.97827    0.70472    0.70405    1.000
    O496     O        0.94172    0.73846    0.73855    1.000
    Zr497    Zr       0.04542    0.77168    0.70394    1.000
    O498     O        0.01177    0.80856    0.73800    1.000
    Zr499    Zr       0.95396    0.72971    0.79655    1.000
    O500     O        0.98721    0.69217    0.76228    1.000
    Zr501    Zr       0.02119    0.79656    0.79599    1.000
    O502     O        0.05822    0.76259    0.76199    1.000
    Zr503    Zr       0.95354    0.79667    0.72969    1.000
    O504     O        0.98718    0.76297    0.69191    1.000
    O505     O        0.03572    0.71424    0.71344    1.000
    O506     O        0.96324    0.78749    0.78734    1.000
    X507     C        0.11665    0.71948    0.71856    1.000
    X508     C        0.02994    0.63314    0.71896    1.000
    X509     C        0.03051    0.71961    0.63272    1.000
    X510     C        0.88357    0.78336    0.78413    1.000
    X511     C        0.96798    0.78357    0.86647    1.000
    X512     C        0.96695    0.86667    0.78417    1.000
    H513     H        0.01863    0.73245    0.83459    1.000
    H514     H        0.01777    0.83539    0.73193    1.000
    H515     H        0.05190    0.69789    0.69720    1.000
    H516     H        0.91474    0.73239    0.73316    1.000
    H517     H        0.92075    0.66594    0.78123    1.000
    H518     H        0.91464    0.66949    0.71709    1.000
    H519     H        0.06059    0.85527    0.77377    1.000
    H520     H        0.09969    0.81322    0.73079    1.000
    H521     H        0.97716    0.69064    0.85544    1.000
    H522     H        0.01851    0.65048    0.81261    1.000
    H523     H        0.97534    0.85489    0.68943    1.000
    H524     H        0.01794    0.81354    0.65028    1.000
    H525     H        0.09995    0.73104    0.81227    1.000
    H526     H        0.06250    0.77391    0.85312    1.000
    H527     H        0.93859    0.73356    0.64904    1.000
    H528     H        0.89583    0.77402    0.68928    1.000
    O529     O        0.00450    0.10116    0.04961    1.000
    O530     O        0.93665    0.08791    0.04446    1.000
    O531     O        0.04990    0.00261    0.10126    1.000
    O532     O        0.04728    0.93861    0.09058    1.000
    O533     O        0.10201    0.04969    0.00309    1.000
    O534     O        0.08825    0.04442    0.93523    1.000
    O535     O        0.94963    0.89993    0.99519    1.000
    O536     O        0.95740    0.91028    0.06198    1.000
    O537     O        0.90011    0.99576    0.94954    1.000
    O538     O        0.91352    0.06513    0.95305    1.000
    O539     O        0.99578    0.94899    0.89968    1.000
    O540     O        0.06560    0.95362    0.91267    1.000
    O541     O        0.99554    0.89978    0.94963    1.000
    O542     O        0.06626    0.91340    0.95501    1.000
    O543     O        0.95011    0.99475    0.89953    1.000
    O544     O        0.95599    0.06584    0.91322    1.000
    O545     O        0.90019    0.94970    0.99494    1.000
    O546     O        0.91313    0.95577    0.06491    1.000
    O547     O        0.05005    0.10138    0.00342    1.000
    O548     O        0.04442    0.08765    0.93514    1.000
    O549     O        0.10204    0.00401    0.04913    1.000
    O550     O        0.08806    0.93501    0.04077    1.000
    O551     O        0.00408    0.04854    0.10135    1.000
    O552     O        0.93593    0.04398    0.08714    1.000
    Zr553    Zr       0.97989    0.04597    0.04598    1.000
    O554     O        0.94300    0.01242    0.01191    1.000
    Zr555    Zr       0.04699    0.97899    0.04576    1.000
    O556     O        0.01261    0.94221    0.01218    1.000
    Zr557    Zr       0.04670    0.04621    0.97883    1.000
    O558     O        0.01292    0.01217    0.94198    1.000
    Zr559    Zr       0.95453    0.95424    0.02084    1.000
    O560     O        0.98869    0.98769    0.05829    1.000
    Zr561    Zr       0.95480    0.02111    0.95375    1.000
    O562     O        0.98851    0.05852    0.98777    1.000
    Zr563    Zr       0.02163    0.95403    0.95402    1.000
    O564     O        0.05917    0.98805    0.98756    1.000
    O565     O        0.03726    0.03639    0.03625    1.000
    O566     O        0.96384    0.96333    0.96304    1.000
    X567     C        0.03225    0.11724    0.03149    1.000
    X568     C        0.03170    0.03023    0.11740    1.000
    X569     C        0.11800    0.03182    0.03102    1.000
    X570     C        0.96724    0.88406    0.96708    1.000
    X571     C        0.88424    0.96752    0.96700    1.000
    X572     C        0.96750    0.96637    0.88384    1.000
    H573     H        0.91622    0.01870    0.01788    1.000
    H574     H        0.01900    0.01813    0.91513    1.000
    H575     H        0.05341    0.05256    0.05268    1.000
    H576     H        0.01811    0.91526    0.01830    1.000
    H577     H        0.97007    0.92130    0.08468    1.000
    H578     H        0.03423    0.91544    0.08121    1.000
    H579     H        0.97668    0.06041    0.89485    1.000
    H580     H        0.01942    0.10051    0.93761    1.000
    H581     H        0.89566    0.97734    0.05998    1.000
    H582     H        0.93806    0.01890    0.09991    1.000
    H583     H        0.06228    0.97632    0.89629    1.000
    H584     H        0.10059    0.01910    0.93702    1.000
    H585     H        0.93850    0.10035    0.01920    1.000
    H586     H        0.89816    0.06289    0.97658    1.000
    H587     H        0.10258    0.93996    0.01707    1.000
    H588     H        0.06137    0.89566    0.97637    1.000
    O589     O        0.10035    0.54984    0.50294    1.000
    O590     O        0.08661    0.54511    0.43511    1.000
    O591     O        0.00231    0.60176    0.54897    1.000
    O592     O        0.93787    0.59140    0.54517    1.000
    O593     O        0.04832    0.50368    0.60116    1.000
    O594     O        0.04362    0.43590    0.58733    1.000
    O595     O        0.89933    0.49502    0.44837    1.000
    O596     O        0.90925    0.56190    0.45588    1.000
    O597     O        0.99474    0.44902    0.39963    1.000
    O598     O        0.06536    0.45518    0.41306    1.000
    O599     O        0.94952    0.39991    0.49484    1.000
    O600     O        0.95363    0.41379    0.56521    1.000
    O601     O        0.89929    0.44956    0.49438    1.000
    O602     O        0.91207    0.45453    0.56446    1.000
    O603     O        0.99575    0.39983    0.44952    1.000
    O604     O        0.06554    0.41385    0.45427    1.000
    O605     O        0.94866    0.49438    0.39937    1.000
    O606     O        0.95520    0.56497    0.41180    1.000
    O607     O        0.10048    0.50405    0.54891    1.000
    O608     O        0.08695    0.43598    0.54403    1.000
    O609     O        0.00245    0.54954    0.60101    1.000
    O610     O        0.93391    0.54193    0.58662    1.000
    O611     O        0.04822    0.60178    0.50312    1.000
    O612     O        0.04292    0.58806    0.43509    1.000
    Zr613    Zr       0.04508    0.54656    0.47873    1.000
    O614     O        0.01168    0.51239    0.44179    1.000
    Zr615    Zr       0.97808    0.54643    0.54571    1.000
    O616     O        0.94147    0.51252    0.51144    1.000
    Zr617    Zr       0.04535    0.47954    0.54581    1.000
    O618     O        0.01170    0.44259    0.51195    1.000
    Zr619    Zr       0.95347    0.52102    0.45333    1.000
    O620     O        0.98676    0.55875    0.48739    1.000
    Zr621    Zr       0.02084    0.45440    0.45384    1.000
    O622     O        0.05791    0.48847    0.48768    1.000
    Zr623    Zr       0.95349    0.45440    0.52055    1.000
    O624     O        0.98716    0.48826    0.55807    1.000
    O625     O        0.03551    0.53691    0.53618    1.000
    O626     O        0.96296    0.46335    0.46282    1.000
    X627     C        0.11640    0.53179    0.53071    1.000
    X628     C        0.03014    0.61777    0.53092    1.000
    X629     C        0.03008    0.53136    0.61718    1.000
    X630     C        0.88356    0.46684    0.46597    1.000
    X631     C        0.96625    0.46607    0.38381    1.000
    X632     C        0.96756    0.38409    0.46699    1.000
    H633     H        0.01791    0.51831    0.41498    1.000
    H634     H        0.01782    0.41580    0.51813    1.000
    H635     H        0.05172    0.55318    0.55246    1.000
    H636     H        0.91448    0.51855    0.51687    1.000
    H637     H        0.92014    0.58479    0.46831    1.000
    H638     H        0.91459    0.58180    0.53249    1.000
    H639     H        0.06184    0.39714    0.47667    1.000
    H640     H        0.09986    0.43828    0.51904    1.000
    H641     H        0.97586    0.55919    0.39351    1.000
    H642     H        0.01764    0.60043    0.43707    1.000
    H643     H        0.97564    0.39663    0.56123    1.000
    H644     H        0.01832    0.43767    0.59971    1.000
    H645     H        0.09892    0.51976    0.43667    1.000
    H646     H        0.06024    0.47617    0.39494    1.000
    H647     H        0.93807    0.51774    0.60054    1.000
    H648     H        0.89535    0.47689    0.56050    1.000
    O649     O        0.60142    0.04910    0.50422    1.000
    O650     O        0.58803    0.04369    0.43596    1.000
    O651     O        0.50358    0.10120    0.54933    1.000
    O652     O        0.43933    0.09107    0.54702    1.000
    O653     O        0.54986    0.00257    0.60153    1.000
    O654     O        0.54398    0.93475    0.58745    1.000
    O655     O        0.39995    0.99564    0.44873    1.000
    O656     O        0.41042    0.06257    0.45731    1.000
    O657     O        0.49472    0.94960    0.39978    1.000
    O658     O        0.56564    0.95474    0.41346    1.000
    O659     O        0.44968    0.89979    0.49574    1.000
    O660     O        0.45285    0.91314    0.56503    1.000
    O661     O        0.39968    0.94992    0.49447    1.000
    O662     O        0.41299    0.95560    0.56544    1.000
    O663     O        0.49556    0.89961    0.45006    1.000
    O664     O        0.56490    0.91269    0.45362    1.000
    O665     O        0.44906    0.99538    0.39985    1.000
    O666     O        0.45619    0.06556    0.41286    1.000
    O667     O        0.60131    0.00303    0.54991    1.000
    O668     O        0.58747    0.93480    0.54368    1.000
    O669     O        0.50440    0.04884    0.60163    1.000
    O670     O        0.43534    0.04132    0.58762    1.000
    O671     O        0.54946    0.10104    0.50344    1.000
    O672     O        0.54482    0.08720    0.43564    1.000
    Zr673    Zr       0.54629    0.04578    0.47937    1.000
    O674     O        0.51237    0.01219    0.44236    1.000
    Zr675    Zr       0.47934    0.04591    0.54653    1.000
    O676     O        0.44226    0.01262    0.51213    1.000
    Zr677    Zr       0.54615    0.97860    0.54618    1.000
    O678     O        0.51198    0.94220    0.51224    1.000
    Zr679    Zr       0.45425    0.02131    0.45406    1.000
    O680     O        0.48806    0.05845    0.48824    1.000
    Zr681    Zr       0.52099    0.95408    0.45410    1.000
    O682     O        0.55861    0.98755    0.48803    1.000
    Zr683    Zr       0.45384    0.95440    0.52100    1.000
    O684     O        0.48804    0.98765    0.55864    1.000
    O685     O        0.53663    0.03605    0.53675    1.000
    O686     O        0.46321    0.96348    0.46324    1.000
    X687     C        0.61726    0.03106    0.53217    1.000
    X688     C        0.53137    0.11712    0.53114    1.000
    X689     C        0.53212    0.03052    0.61759    1.000
    X690     C        0.38404    0.96739    0.46609    1.000
    X691     C        0.46643    0.96711    0.38403    1.000
    X692     C        0.46756    0.88389    0.46786    1.000
    H693     H        0.51861    0.01819    0.41557    1.000
    H694     H        0.51789    0.91534    0.51831    1.000
    H695     H        0.55282    0.05237    0.55298    1.000
    H696     H        0.41534    0.01885    0.51765    1.000
    H697     H        0.42166    0.08530    0.46971    1.000
    H698     H        0.41613    0.08195    0.53385    1.000
    H699     H        0.56245    0.89730    0.47711    1.000
    H700     H        0.60082    0.93777    0.51899    1.000
    H701     H        0.47701    0.05994    0.39471    1.000
    H702     H        0.51955    0.09965    0.43731    1.000
    H703     H        0.47630    0.89766    0.56279    1.000
    H704     H        0.51904    0.93722    0.60043    1.000
    H705     H        0.60057    0.01850    0.43812    1.000
    H706     H        0.56073    0.97586    0.39545    1.000
    H707     H        0.43985    0.01736    0.60183    1.000
    H708     H        0.39506    0.97671    0.56020    1.000
    O709     O        0.50347    0.60101    0.04920    1.000
    O710     O        0.43531    0.58746    0.04398    1.000
    O711     O        0.54895    0.50312    0.10113    1.000
    O712     O        0.54598    0.43882    0.09095    1.000
    O713     O        0.60105    0.54929    0.00266    1.000
    O714     O        0.58704    0.54401    0.93488    1.000
    O715     O        0.44873    0.39960    0.99492    1.000
    O716     O        0.45652    0.40993    0.06198    1.000
    O717     O        0.39941    0.49505    0.94916    1.000
    O718     O        0.41282    0.56532    0.95413    1.000
    O719     O        0.49487    0.44922    0.89982    1.000
    O720     O        0.56509    0.45379    0.91323    1.000
    O721     O        0.49461    0.39960    0.94934    1.000
    O722     O        0.56493    0.41275    0.95473    1.000
    O723     O        0.44921    0.49509    0.89972    1.000
    O724     O        0.45420    0.56538    0.91306    1.000
    O725     O        0.39929    0.44920    0.99476    1.000
    O726     O        0.41205    0.45531    0.06483    1.000
    O727     O        0.54921    0.60105    0.00318    1.000
    O728     O        0.54341    0.58738    0.93501    1.000
    O729     O        0.60107    0.50369    0.04879    1.000
    O730     O        0.58697    0.43485    0.04132    1.000
    O731     O        0.50304    0.54897    0.10107    1.000
    O732     O        0.43514    0.54404    0.08731    1.000
    Zr733    Zr       0.47882    0.54582    0.04584    1.000
    O734     O        0.44191    0.51209    0.01199    1.000
    Zr735    Zr       0.54592    0.47889    0.04585    1.000
    O736     O        0.51166    0.44198    0.01227    1.000
    Zr737    Zr       0.54570    0.54592    0.97868    1.000
    O738     O        0.51186    0.51193    0.94200    1.000
    Zr739    Zr       0.45355    0.45390    0.02084    1.000
    O740     O        0.48760    0.48754    0.05827    1.000
    Zr741    Zr       0.45376    0.52095    0.95393    1.000
    O742     O        0.48756    0.55838    0.98768    1.000
    Zr743    Zr       0.52069    0.45381    0.95412    1.000
    O744     O        0.55818    0.48781    0.98765    1.000
    O745     O        0.53622    0.53623    0.03611    1.000
    O746     O        0.46291    0.46315    0.96314    1.000
    X747     C        0.53134    0.61695    0.03115    1.000
    X748     C        0.53082    0.53092    0.11708    1.000
    X749     C        0.61708    0.53135    0.03051    1.000
    X750     C        0.46630    0.38381    0.96671    1.000
    X751     C        0.38355    0.46677    0.96654    1.000
    X752     C        0.46671    0.46683    0.88414    1.000
    H753     H        0.41511    0.51831    0.01796    1.000
    H754     H        0.51794    0.51790    0.91516    1.000
    H755     H        0.55248    0.55242    0.05240    1.000
    H756     H        0.51719    0.41504    0.01841    1.000
    H757     H        0.46897    0.42104    0.08476    1.000
    H758     H        0.53311    0.41553    0.08160    1.000
    H759     H        0.47617    0.56118    0.89591    1.000
    H760     H        0.51846    0.60033    0.93756    1.000
    H761     H        0.39454    0.47683    0.05987    1.000
    H762     H        0.43695    0.51875    0.09971    1.000
    H763     H        0.56113    0.47585    0.89613    1.000
    H764     H        0.59959    0.51881    0.93685    1.000
    H765     H        0.43736    0.60004    0.01880    1.000
    H766     H        0.39568    0.56123    0.97614    1.000
    H767     H        0.60107    0.43922    0.01726    1.000
    H768     H        0.56049    0.39555    0.97662    1.000
    O769     O        0.80033    0.35084    0.49593    1.000
    O770     O        0.79519    0.33744    0.56385    1.000
    O771     O        0.85196    0.25273    0.45025    1.000
    O772     O        0.84169    0.18840    0.45364    1.000
    O773     O        0.75412    0.29916    0.39826    1.000
    O774     O        0.68624    0.29395    0.41181    1.000
    O775     O        0.74597    0.14982    0.55127    1.000
    O776     O        0.81276    0.15990    0.54294    1.000
    O777     O        0.70024    0.24547    0.59986    1.000
    O778     O        0.70477    0.31554    0.58618    1.000
    O779     O        0.65029    0.19959    0.50407    1.000
    O780     O        0.66370    0.20273    0.43472    1.000
    O781     O        0.70031    0.14957    0.50536    1.000
    O782     O        0.70606    0.16280    0.43434    1.000
    O783     O        0.65028    0.24547    0.54972    1.000
    O784     O        0.66394    0.31555    0.54483    1.000
    O785     O        0.74595    0.19961    0.60008    1.000
    O786     O        0.81594    0.20569    0.58713    1.000
    O787     O        0.75436    0.35093    0.45015    1.000
    O788     O        0.68599    0.33718    0.45556    1.000
    O789     O        0.80005    0.25335    0.39838    1.000
    O790     O        0.79195    0.18452    0.41245    1.000
    O791     O        0.85196    0.29872    0.49603    1.000
    O792     O        0.83817    0.29371    0.56421    1.000
    Zr793    Zr       0.79680    0.29569    0.52044    1.000
    O794     O        0.76280    0.26219    0.55733    1.000
    Zr795    Zr       0.79669    0.22858    0.45346    1.000
    O796     O        0.76308    0.19182    0.48782    1.000
    Zr797    Zr       0.72974    0.29579    0.45347    1.000
    O798     O        0.69296    0.26187    0.48728    1.000
    Zr799    Zr       0.77176    0.20401    0.54584    1.000
    O800     O        0.80924    0.23742    0.51172    1.000
    Zr801    Zr       0.70473    0.27105    0.54537    1.000
    O802     O        0.73866    0.30835    0.51159    1.000
    Zr803    Zr       0.70493    0.20365    0.47877    1.000
    O804     O        0.73849    0.23759    0.44118    1.000
    O805     O        0.78707    0.28597    0.46309    1.000
    O806     O        0.71396    0.21319    0.53651    1.000
    X807     C        0.78233    0.36681    0.46807    1.000
    X808     C        0.86788    0.28064    0.46822    1.000
    X809     C        0.78206    0.28120    0.38240    1.000
    X810     C        0.71783    0.13401    0.53371    1.000
    X811     C        0.71787    0.21739    0.61571    1.000
    X812     C        0.63447    0.21744    0.53201    1.000
    H813     H        0.76877    0.26852    0.58411    1.000
    H814     H        0.66614    0.26787    0.48111    1.000
    H815     H        0.80339    0.30219    0.44688    1.000
    H816     H        0.76920    0.16486    0.48240    1.000
    H817     H        0.83555    0.17089    0.53041    1.000
    H818     H        0.83217    0.16504    0.46624    1.000
    H819     H        0.64709    0.31159    0.52258    1.000
    H820     H        0.68863    0.35036    0.48038    1.000
    H821     H        0.81100    0.22726    0.60459    1.000
    H822     H        0.85106    0.26871    0.56191    1.000
    H823     H        0.64831    0.22625    0.43688    1.000
    H824     H        0.68832    0.26878    0.39922    1.000
    H825     H        0.76995    0.34994    0.56196    1.000
    H826     H        0.72704    0.31182    0.60306    1.000
    H827     H        0.76805    0.18914    0.39817    1.000
    H828     H        0.72708    0.14477    0.43964    1.000
    O829     O        0.85206    0.75446    0.95102    1.000
    O830     O        0.83832    0.68628    0.95561    1.000
    O831     O        0.75468    0.80015    0.89822    1.000
    O832     O        0.69018    0.79707    0.90805    1.000
    O833     O        0.80017    0.85203    0.99712    1.000
    O834     O        0.79425    0.83791    0.06491    1.000
    O835     O        0.65047    0.69962    0.00401    1.000
    O836     O        0.66091    0.70808    0.93689    1.000
    O837     O        0.74581    0.65013    0.04943    1.000
    O838     O        0.81585    0.66375    0.04556    1.000
    O839     O        0.69964    0.74589    0.09942    1.000
    O840     O        0.70440    0.81623    0.08575    1.000
    O841     O        0.65012    0.74575    0.04944    1.000
    O842     O        0.66317    0.81574    0.04458    1.000
    O843     O        0.74537    0.70007    0.09960    1.000
    O844     O        0.81566    0.70491    0.08655    1.000
    O845     O        0.70011    0.65018    0.00357    1.000
    O846     O        0.70611    0.66329    0.93404    1.000
    O847     O        0.85182    0.80020    0.99703    1.000
    O848     O        0.83775    0.79435    0.06496    1.000
    O849     O        0.75483    0.85214    0.95074    1.000
    O850     O        0.68603    0.83818    0.95760    1.000
    O851     O        0.80069    0.75451    0.89860    1.000
    O852     O        0.79525    0.68651    0.91196    1.000
    Zr853    Zr       0.79684    0.72995    0.95369    1.000
    O854     O        0.76290    0.69302    0.98728    1.000
    Zr855    Zr       0.72999    0.79702    0.95338    1.000
    O856     O        0.69289    0.76278    0.98678    1.000
    Zr857    Zr       0.79655    0.79666    0.02104    1.000
    O858     O        0.76241    0.76273    0.05747    1.000
    Zr859    Zr       0.70476    0.70468    0.97812    1.000
    O860     O        0.73865    0.73873    0.94089    1.000
    Zr861    Zr       0.77145    0.70466    0.04544    1.000
    O862     O        0.80906    0.73854    0.01196    1.000
    Zr863    Zr       0.70440    0.77165    0.04505    1.000
    O864     O        0.73852    0.80917    0.01168    1.000
    O865     O        0.78724    0.78731    0.96352    1.000
    O866     O        0.71369    0.71385    0.03597    1.000
    X867     C        0.86788    0.78231    0.96919    1.000
    X868     C        0.78282    0.78233    0.88238    1.000
    X869     C        0.78242    0.86809    0.96918    1.000
    X870     C        0.63459    0.71740    0.03201    1.000
    X871     C        0.71781    0.63433    0.03160    1.000
    X872     C        0.71722    0.71775    0.11521    1.000
    H873     H        0.76919    0.66625    0.98124    1.000
    H874     H        0.76826    0.76876    0.08435    1.000
    H875     H        0.80358    0.80358    0.94738    1.000
    H876     H        0.66598    0.76835    0.98052    1.000
    H877     H        0.67220    0.72033    0.91409    1.000
    H878     H        0.66674    0.78445    0.91735    1.000
    H879     H        0.81147    0.72692    0.10365    1.000
    H880     H        0.85062    0.76935    0.06254    1.000
    H881     H        0.72843    0.64660    0.93821    1.000
    H882     H        0.77018    0.68865    0.89916    1.000
    H883     H        0.72614    0.81203    0.10320    1.000
    H884     H        0.76921    0.85071    0.06254    1.000
    H885     H        0.85091    0.68832    0.98079    1.000
    H886     H        0.81237    0.64712    0.02306    1.000
    H887     H        0.69009    0.85206    0.98184    1.000
    H888     H        0.64664    0.81189    0.02207    1.000
    O889     O        0.10246    0.19994    0.24619    1.000
    O890     O        0.08866    0.20489    0.31399    1.000
    O891     O        0.00405    0.14796    0.20049    1.000
    O892     O        0.93992    0.15873    0.20263    1.000
    O893     O        0.05129    0.24593    0.14819    1.000
    O894     O        0.04583    0.31389    0.16180    1.000
    O895     O        0.90106    0.25436    0.30003    1.000
    O896     O        0.91121    0.18738    0.29202    1.000
    O897     O        0.99675    0.29959    0.34978    1.000
    O898     O        0.06688    0.29515    0.33612    1.000
    O899     O        0.95051    0.34948    0.25463    1.000
    O900     O        0.95597    0.33638    0.18398    1.000
    O901     O        0.90101    0.29976    0.25386    1.000
    O902     O        0.91460    0.29519    0.18384    1.000
    O903     O        0.99617    0.34943    0.30050    1.000
    O904     O        0.06673    0.33632    0.29477    1.000
    O905     O        0.95047    0.25430    0.34948    1.000
    O906     O        0.95647    0.18435    0.33666    1.000
    O907     O        0.10273    0.24593    0.20053    1.000
    O908     O        0.08898    0.31406    0.20554    1.000
    O909     O        0.00553    0.20008    0.14801    1.000
    O910     O        0.93670    0.20823    0.16160    1.000
    O911     O        0.04989    0.14796    0.24640    1.000
    O912     O        0.04510    0.16202    0.31422    1.000
    Zr913    Zr       0.04711    0.20331    0.27038    1.000
    O914     O        0.01339    0.23726    0.30713    1.000
    Zr915    Zr       0.98039    0.20347    0.20299    1.000
    O916     O        0.94351    0.23717    0.23713    1.000
    Zr917    Zr       0.04755    0.27036    0.20342    1.000
    O918     O        0.01359    0.30726    0.23719    1.000
    Zr919    Zr       0.95525    0.22842    0.29525    1.000
    O920     O        0.98887    0.19096    0.26132    1.000
    Zr921    Zr       0.02240    0.29534    0.29532    1.000
    O922     O        0.05980    0.26144    0.26162    1.000
    Zr923    Zr       0.95547    0.29535    0.22825    1.000
    O924     O        0.98945    0.26166    0.19081    1.000
    O925     O        0.03776    0.21294    0.21292    1.000
    O926     O        0.96462    0.28616    0.28601    1.000
    X927     C        0.11867    0.21797    0.21845    1.000
    X928     C        0.03161    0.13186    0.21883    1.000
    X929     C        0.03351    0.21798    0.13206    1.000
    X930     C        0.88532    0.28235    0.28216    1.000
    X931     C        0.96839    0.28217    0.36535    1.000
    X932     C        0.96785    0.36504    0.28307    1.000
    H933     H        0.01955    0.23125    0.33393    1.000
    H934     H        0.01963    0.33409    0.23117    1.000
    H935     H        0.05403    0.19650    0.19687    1.000
    H936     H        0.91658    0.23110    0.23150    1.000
    H937     H        0.92231    0.16459    0.27960    1.000
    H938     H        0.91666    0.16820    0.21545    1.000
    H939     H        0.06191    0.35409    0.27341    1.000
    H940     H        0.10144    0.31203    0.23078    1.000
    H941     H        0.97797    0.18922    0.35422    1.000
    H942     H        0.01986    0.14953    0.31227    1.000
    H943     H        0.97754    0.35392    0.18863    1.000
    H944     H        0.02054    0.31208    0.14941    1.000
    H945     H        0.10124    0.23009    0.31212    1.000
    H946     H        0.06306    0.27289    0.35299    1.000
    H947     H        0.94137    0.23220    0.14744    1.000
    H948     H        0.89797    0.27272    0.18751    1.000
    O949     O        0.75435    0.95131    0.85176    1.000
    O950     O        0.68609    0.95592    0.83802    1.000
    O951     O        0.79979    0.89859    0.75374    1.000
    O952     O        0.79648    0.90865    0.68938    1.000
    O953     O        0.85176    0.99659    0.80001    1.000
    O954     O        0.83815    0.06475    0.79357    1.000
    O955     O        0.69919    0.00468    0.65009    1.000
    O956     O        0.70752    0.93749    0.66052    1.000
    O957     O        0.64995    0.05018    0.74540    1.000
    O958     O        0.66377    0.04554    0.81583    1.000
    O959     O        0.74595    0.09999    0.69975    1.000
    O960     O        0.81577    0.08635    0.70367    1.000
    O961     O        0.74502    0.05031    0.65000    1.000
    O962     O        0.81553    0.04461    0.66295    1.000
    O963     O        0.70008    0.10010    0.74543    1.000
    O964     O        0.70453    0.08698    0.81538    1.000
    O965     O        0.64984    0.00442    0.69970    1.000
    O966     O        0.66281    0.93469    0.70578    1.000
    O967     O        0.80005    0.99736    0.85153    1.000
    O968     O        0.79463    0.06518    0.83728    1.000
    O969     O        0.85166    0.95045    0.75443    1.000
    O970     O        0.83781    0.95835    0.68547    1.000
    O971     O        0.75416    0.89880    0.79987    1.000
    O972     O        0.68623    0.91231    0.79502    1.000
    Zr973    Zr       0.72970    0.95401    0.79648    1.000
    O974     O        0.69271    0.98770    0.76260    1.000
    Zr975    Zr       0.79664    0.95380    0.72940    1.000
    O976     O        0.76235    0.98730    0.69242    1.000
    Zr977    Zr       0.79661    0.02117    0.79617    1.000
    O978     O        0.76259    0.05770    0.76219    1.000
    Zr979    Zr       0.70425    0.97872    0.70439    1.000
    O980     O        0.73834    0.94141    0.73819    1.000
    Zr981    Zr       0.70446    0.04581    0.77124    1.000
    O982     O        0.73844    0.01225    0.80873    1.000
    Zr983    Zr       0.77136    0.04548    0.70409    1.000
    O984     O        0.80896    0.01202    0.73808    1.000
    O985     O        0.78701    0.96373    0.78674    1.000
    O986     O        0.71355    0.03650    0.71345    1.000
    X987     C        0.78215    0.96957    0.86765    1.000
    X988     C        0.78189    0.88274    0.78174    1.000
    X989     C        0.86761    0.96848    0.78230    1.000
    X990     C        0.71666    0.03295    0.63427    1.000
    X991     C        0.63400    0.03259    0.71728    1.000
    X992     C        0.71785    0.11577    0.71738    1.000
    H993     H        0.66593    0.98171    0.76888    1.000
    H994     H        0.76867    0.08456    0.76810    1.000
    H995     H        0.80312    0.94749    0.80312    1.000
    H996     H        0.76784    0.98112    0.66548    1.000
    H997     H        0.71987    0.91473    0.67176    1.000
    H998     H        0.78407    0.91815    0.66591    1.000
    H999     H        0.72702    0.10357    0.81170    1.000
    H1000    H        0.76959    0.06300    0.85012    1.000
    H1001    H        0.64584    0.93916    0.72783    1.000
    H1002    H        0.68796    0.89989    0.76974    1.000
    H1003    H        0.81265    0.10270    0.72642    1.000
    H1004    H        0.85124    0.06188    0.76874    1.000
    H1005    H        0.68809    0.98114    0.85052    1.000
    H1006    H        0.64638    0.02375    0.81161    1.000
    H1007    H        0.85202    0.98232    0.68998    1.000
    H1008    H        0.81083    0.02288    0.64562    1.000
    O1009    O        0.74641    0.60126    0.20000    1.000
    O1010    O        0.81442    0.58775    0.20504    1.000
    O1011    O        0.70081    0.50337    0.14798    1.000
    O1012    O        0.70396    0.43900    0.15819    1.000
    O1013    O        0.64865    0.54939    0.24638    1.000
    O1014    O        0.66257    0.54422    0.31414    1.000
    O1015    O        0.80112    0.39996    0.25379    1.000
    O1016    O        0.79340    0.41041    0.18698    1.000
    O1017    O        0.85014    0.49519    0.30017    1.000
    O1018    O        0.83674    0.56579    0.29478    1.000
    O1019    O        0.75507    0.44955    0.34944    1.000
    O1020    O        0.68477    0.45394    0.33600    1.000
    O1021    O        0.75524    0.39980    0.29948    1.000
    O1022    O        0.68496    0.41293    0.29462    1.000
    O1023    O        0.80046    0.49570    0.34961    1.000
    O1024    O        0.79563    0.56571    0.33614    1.000
    O1025    O        0.85019    0.44910    0.25472    1.000
    O1026    O        0.83773    0.45623    0.18425    1.000
    O1027    O        0.70059    0.60126    0.24594    1.000
    O1028    O        0.70613    0.58757    0.31410    1.000
    O1029    O        0.64870    0.50376    0.20028    1.000
    O1030    O        0.66285    0.43503    0.20771    1.000
    O1031    O        0.74666    0.54928    0.14804    1.000
    O1032    O        0.81465    0.54423    0.16187    1.000
    Zr1033   Zr       0.77092    0.54609    0.20328    1.000
    O1034    O        0.80786    0.51244    0.23719    1.000
    Zr1035   Zr       0.70387    0.47910    0.20326    1.000
    O1036    O        0.73814    0.44228    0.23688    1.000
    Zr1037   Zr       0.70399    0.54612    0.27042    1.000
    O1038    O        0.73784    0.51220    0.30715    1.000
    Zr1039   Zr       0.79623    0.45429    0.22823    1.000
    O1040    O        0.76215    0.48783    0.19079    1.000
    Zr1041   Zr       0.79593    0.52130    0.29526    1.000
    O1042    O        0.76211    0.55865    0.26145    1.000
    Zr1043   Zr       0.72914    0.45406    0.29508    1.000
    O1044    O        0.69161    0.48798    0.26148    1.000
    O1045    O        0.71351    0.53646    0.21299    1.000
    O1046    O        0.78685    0.46350    0.28598    1.000
    X1047    C        0.71855    0.61719    0.21804    1.000
    X1048    C        0.71891    0.53119    0.13201    1.000
    X1049    C        0.63265    0.53140    0.21854    1.000
    X1050    C        0.78347    0.38418    0.28188    1.000
    X1051    C        0.86576    0.46674    0.28294    1.000
    X1052    C        0.78306    0.46738    0.36523    1.000
    H1053    H        0.83466    0.51868    0.23125    1.000
    H1054    H        0.73175    0.51818    0.33399    1.000
    H1055    H        0.69725    0.55266    0.19671    1.000
    H1056    H        0.73263    0.41535    0.23071    1.000
    H1057    H        0.78106    0.42157    0.16417    1.000
    H1058    H        0.71690    0.41576    0.16756    1.000
    H1059    H        0.77330    0.56187    0.35292    1.000
    H1060    H        0.73105    0.60057    0.31159    1.000
    H1061    H        0.85608    0.47680    0.19017    1.000
    H1062    H        0.81277    0.51898    0.14940    1.000
    H1063    H        0.68869    0.47603    0.35307    1.000
    H1064    H        0.65018    0.51893    0.31229    1.000
    H1065    H        0.81261    0.60010    0.23035    1.000
    H1066    H        0.85450    0.56110    0.27339    1.000
    H1067    H        0.64882    0.43929    0.23182    1.000
    H1068    H        0.68912    0.39602    0.27245    1.000
    O1069    O        0.60158    0.20061    0.74664    1.000
    O1070    O        0.58786    0.20583    0.81472    1.000
    O1071    O        0.50418    0.14798    0.70109    1.000
    O1072    O        0.43968    0.15783    0.70433    1.000
    O1073    O        0.54961    0.24652    0.64866    1.000
    O1074    O        0.54433    0.31422    0.66237    1.000
    O1075    O        0.40007    0.25457    0.80085    1.000
    O1076    O        0.41046    0.18741    0.79335    1.000
    O1077    O        0.49569    0.30050    0.85008    1.000
    O1078    O        0.56533    0.29643    0.83682    1.000
    O1079    O        0.44908    0.34936    0.75434    1.000
    O1080    O        0.45437    0.33548    0.68386    1.000
    O1081    O        0.39975    0.29965    0.75438    1.000
    O1082    O        0.41298    0.29426    0.68446    1.000
    O1083    O        0.49494    0.34979    0.80003    1.000
    O1084    O        0.56580    0.33645    0.79446    1.000
    O1085    O        0.44967    0.25497    0.85027    1.000
    O1086    O        0.45575    0.18493    0.83797    1.000
    O1087    O        0.60146    0.24638    0.70064    1.000
    O1088    O        0.58753    0.31448    0.70600    1.000
    O1089    O        0.50417    0.20023    0.64883    1.000
    O1090    O        0.43544    0.20709    0.66290    1.000
    O1091    O        0.55005    0.14840    0.74696    1.000
    O1092    O        0.54452    0.16235    0.81487    1.000
    Zr1093   Zr       0.54636    0.20369    0.77108    1.000
    O1094    O        0.51254    0.23770    0.80775    1.000
    Zr1095   Zr       0.47950    0.20314    0.70399    1.000
    O1096    O        0.44247    0.23684    0.73799    1.000
    Zr1097   Zr       0.54625    0.27063    0.70392    1.000
    O1098    O        0.51213    0.30742    0.73750    1.000
    Zr1099   Zr       0.45436    0.22862    0.79616    1.000
    O1100    O        0.48812    0.19104    0.76236    1.000
    Zr1101   Zr       0.52123    0.29575    0.79562    1.000
    O1102    O        0.55875    0.26186    0.76209    1.000
    Zr1103   Zr       0.45409    0.29501    0.72865    1.000
    O1104    O        0.48820    0.26132    0.69143    1.000
    O1105    O        0.53679    0.21319    0.71363    1.000
    O1106    O        0.46346    0.28631    0.78648    1.000
    X1107    C        0.61747    0.21861    0.71872    1.000
    X1108    C        0.53211    0.13220    0.71921    1.000
    X1109    C        0.53170    0.21862    0.63273    1.000
    X1110    C        0.38420    0.28243    0.78285    1.000
    X1111    C        0.46745    0.28310    0.86588    1.000
    X1112    C        0.46660    0.36520    0.78248    1.000
    H1113    H        0.51878    0.23189    0.83458    1.000
    H1114    H        0.51802    0.33425    0.73130    1.000
    H1115    H        0.55308    0.19695    0.69741    1.000
    H1116    H        0.41556    0.23057    0.73247    1.000
    H1117    H        0.42165    0.16452    0.78117    1.000
    H1118    H        0.41631    0.16719    0.71702    1.000
    H1119    H        0.56064    0.35442    0.77336    1.000
    H1120    H        0.60047    0.31213    0.73097    1.000
    H1121    H        0.47757    0.18975    0.85515    1.000
    H1122    H        0.51935    0.14973    0.81289    1.000
    H1123    H        0.47568    0.35336    0.68844    1.000
    H1124    H        0.51906    0.31230    0.64995    1.000
    H1125    H        0.60048    0.23097    0.81251    1.000
    H1126    H        0.56236    0.27357    0.85305    1.000
    H1127    H        0.43950    0.23122    0.64884    1.000
    H1128    H        0.39633    0.27188    0.68852    1.000
    O1129    O        0.35088    0.75377    0.45035    1.000
    O1130    O        0.33675    0.68601    0.45472    1.000
    O1131    O        0.25281    0.80027    0.39818    1.000
    O1132    O        0.18856    0.79754    0.40858    1.000
    O1133    O        0.30000    0.85184    0.49602    1.000
    O1134    O        0.29400    0.83848    0.56395    1.000
    O1135    O        0.14920    0.70026    0.50406    1.000
    O1136    O        0.15957    0.70814    0.43727    1.000
    O1137    O        0.24496    0.65043    0.54962    1.000
    O1138    O        0.31481    0.66381    0.54541    1.000
    O1139    O        0.19935    0.74649    0.59979    1.000
    O1140    O        0.20340    0.81617    0.58637    1.000
    O1141    O        0.14920    0.74625    0.54962    1.000
    O1142    O        0.16298    0.81658    0.54460    1.000
    O1143    O        0.24494    0.70055    0.59974    1.000
    O1144    O        0.31519    0.70526    0.58604    1.000
    O1145    O        0.19895    0.65057    0.50408    1.000
    O1146    O        0.20473    0.66359    0.43427    1.000
    O1147    O        0.35117    0.79934    0.49654    1.000
    O1148    O        0.33696    0.79452    0.56457    1.000
    O1149    O        0.25419    0.85210    0.45010    1.000
    O1150    O        0.18514    0.83865    0.45833    1.000
    O1151    O        0.29866    0.75437    0.39813    1.000
    O1152    O        0.29323    0.68629    0.41173    1.000
    Zr1153   Zr       0.29543    0.72984    0.45331    1.000
    O1154    O        0.26167    0.69312    0.48726    1.000
    Zr1155   Zr       0.22883    0.79726    0.45351    1.000
    O1156    O        0.19184    0.76309    0.48707    1.000
    Zr1157   Zr       0.29586    0.79672    0.52055    1.000
    O1158    O        0.26177    0.76302    0.55726    1.000
    Zr1159   Zr       0.20354    0.70496    0.47838    1.000
    O1160    O        0.23721    0.73893    0.44094    1.000
    Zr1161   Zr       0.27059    0.70490    0.54535    1.000
    O1162    O        0.30806    0.73852    0.51149    1.000
    Zr1163   Zr       0.20366    0.77199    0.54526    1.000
    O1164    O        0.23779    0.80943    0.51172    1.000
    O1165    O        0.28616    0.78724    0.46313    1.000
    O1166    O        0.21274    0.71414    0.53621    1.000
    X1167    C        0.36707    0.78126    0.46872    1.000
    X1168    C        0.28058    0.78219    0.38217    1.000
    X1169    C        0.28223    0.86785    0.46803    1.000
    X1170    C        0.13340    0.71813    0.53201    1.000
    X1171    C        0.21684    0.63469    0.53196    1.000
    X1172    C        0.21703    0.71841    0.61557    1.000
    H1173    H        0.26785    0.66631    0.48124    1.000
    H1174    H        0.26782    0.76908    0.58409    1.000
    H1175    H        0.30262    0.80324    0.44684    1.000
    H1176    H        0.16493    0.76874    0.48093    1.000
    H1177    H        0.17064    0.72077    0.41458    1.000
    H1178    H        0.16516    0.78498    0.41807    1.000
    H1179    H        0.31093    0.72706    0.60340    1.000
    H1180    H        0.34978    0.76948    0.56228    1.000
    H1181    H        0.22661    0.64642    0.43876    1.000
    H1182    H        0.26815    0.68863    0.39901    1.000
    H1183    H        0.22648    0.81327    0.60229    1.000
    H1184    H        0.26898    0.85133    0.56162    1.000
    H1185    H        0.34922    0.68763    0.47999    1.000
    H1186    H        0.31132    0.64728    0.52285    1.000
    H1187    H        0.19000    0.85300    0.48214    1.000
    H1188    H        0.14584    0.81235    0.52261    1.000
    O1189    O        0.35108    0.25393    0.95090    1.000
    O1190    O        0.33756    0.18578    0.95609    1.000
    O1191    O        0.25312    0.29953    0.89910    1.000
    O1192    O        0.18871    0.29601    0.90936    1.000
    O1193    O        0.29958    0.35145    0.99691    1.000
    O1194    O        0.29401    0.33784    0.06497    1.000
    O1195    O        0.14976    0.19916    0.00541    1.000
    O1196    O        0.16005    0.20692    0.93845    1.000
    O1197    O        0.24547    0.14978    0.05099    1.000
    O1198    O        0.31559    0.16342    0.04625    1.000
    O1199    O        0.19992    0.24586    0.10083    1.000
    O1200    O        0.20370    0.31560    0.08707    1.000
    O1201    O        0.14972    0.24512    0.05090    1.000
    O1202    O        0.16297    0.31545    0.04557    1.000
    O1203    O        0.24573    0.20013    0.10090    1.000
    O1204    O        0.31570    0.20467    0.08714    1.000
    O1205    O        0.19958    0.14962    0.00542    1.000
    O1206    O        0.20530    0.16244    0.93559    1.000
    O1207    O        0.35115    0.29972    0.99688    1.000
    O1208    O        0.33750    0.29420    0.06507    1.000
    O1209    O        0.25384    0.35137    0.95091    1.000
    O1210    O        0.18496    0.33747    0.95904    1.000
    O1211    O        0.29907    0.25371    0.89913    1.000
    O1212    O        0.29396    0.18562    0.91286    1.000
    Zr1213   Zr       0.29590    0.22929    0.95433    1.000
    O1214    O        0.26226    0.19242    0.98833    1.000
    Zr1215   Zr       0.22890    0.29632    0.95437    1.000
    O1216    O        0.19211    0.26208    0.98808    1.000
    Zr1217   Zr       0.29604    0.29627    0.02139    1.000
    O1218    O        0.26216    0.26244    0.05817    1.000
    Zr1219   Zr       0.20405    0.20397    0.97955    1.000
    O1220    O        0.23759    0.23800    0.94198    1.000
    Zr1221   Zr       0.27117    0.20430    0.04640    1.000
    O1222    O        0.30851    0.23810    0.01249    1.000
    Zr1223   Zr       0.20399    0.27117    0.04622    1.000
    O1224    O        0.23789    0.30868    0.01255    1.000
    O1225    O        0.28624    0.28663    0.96405    1.000
    O1226    O        0.21329    0.21333    0.03732    1.000
    X1227    C        0.36702    0.28185    0.96888    1.000
    X1228    C        0.28104    0.28156    0.88318    1.000
    X1229    C        0.28174    0.36731    0.96890    1.000
    X1230    C        0.13389    0.21684    0.03350    1.000
    X1231    C        0.21731    0.13380    0.03350    1.000
    X1232    C        0.21775    0.21792    0.11669    1.000
    H1233    H        0.26852    0.16563    0.98237    1.000
    H1234    H        0.26821    0.26860    0.08498    1.000
    H1235    H        0.30248    0.30279    0.94772    1.000
    H1236    H        0.16515    0.26758    0.98198    1.000
    H1237    H        0.17110    0.21944    0.91569    1.000
    H1238    H        0.16527    0.28365    0.91899    1.000
    H1239    H        0.31198    0.22707    0.10383    1.000
    H1240    H        0.35055    0.26930    0.06253    1.000
    H1241    H        0.22730    0.14540    0.94008    1.000
    H1242    H        0.26880    0.18771    0.90024    1.000
    H1243    H        0.22658    0.31257    0.10326    1.000
    H1244    H        0.26901    0.35072    0.06257    1.000
    H1245    H        0.35019    0.18785    0.98125    1.000
    H1246    H        0.31175    0.14650    0.02403    1.000
    H1247    H        0.18959    0.35175    0.98294    1.000
    H1248    H        0.14583    0.31106    0.02362    1.000
