data_functionalizedCrystal
_audit_creation_method	'EQeq! by Chris Wilmer'
_symmetry_space_group_name_H-M	'P1'
_symmetry_Int_Tables_number	1
_symmetry_cell_setting	triclinic
loop_
_symmetry_equiv_pos_as_xyz
  x,y,z
_cell_length_a	12.88
_cell_length_b	16.861
_cell_length_c	17.325
_cell_angle_alpha	75.74
_cell_angle_beta	73.26
_cell_angle_gamma	68.59
loop_
_atom_site_label
_atom_site_type_symbol
_atom_site_fract_x
_atom_site_fract_y
_atom_site_fract_z
_atom_site_charge
Mof_Zn	Zn	0.53051	0.68192	0.95001	1.205
Mof_Zn	Zn	0.64905	0.55494	0.82225	1.202
Mof_Zn	Zn	0.38429	0.62491	0.86133	1.215
Mof_N 	N 	0.7464	0.6106	0.8455	-0.291
Mof_N 	N 	0.7021	0.6557	0.9082	-0.289
Mof_O 	O 	0.5139	0.59072	0.90819	-0.724
Mof_O 	O 	0.5778	0.5355	0.08254	-0.377
Mof_O 	O 	0.4934	0.6799	0.068	-0.44
Mof_O 	O 	0.435	0.6165	0.7421	-0.497
Mof_O 	O 	0.6245	0.5877	0.711	-0.509
Mof_O 	O 	0.428	0.7965	0.9159	-0.509
Mof_O 	O 	0.3408	0.7567	0.845	-0.496
Mof_O 	O 	0.718	0.4307	0.8261	-0.455
Mof_O 	O 	0.6723	0.4039	0.96368	-0.354
Mof_C 	C 	0.5382	0.6052	0.1103	0.319
Mof_C 	C 	0.532	0.6072	0.60509	-0.136
Mof_C 	C 	0.4308	0.6245	0.58112	0.05
Mof_H 	H 	0.3601	0.6354	0.6201	0.022
Mof_C 	C 	0.4329	0.6259	0.50014	-0.112
Mof_H 	H 	0.3637	0.6377	0.4838	0.065
Mof_C 	C 	0.5363	0.6099	0.44312	0.049
Mof_C 	C 	0.6375	0.5927	0.46709	-0.114
Mof_H 	H 	0.7081	0.5818	0.4281	0.061
Mof_C 	C 	0.6354	0.5913	0.54808	0.05
Mof_H 	H 	0.7045	0.5795	0.5645	0.02
Mof_C 	C 	0.817	0.29533	0.89237	-0.123
Mof_C 	C 	0.8685	0.2662	0.8178	0.037
Mof_H 	H 	0.8446	0.3001	0.7696	0.027
Mof_C 	C 	0.9549	0.1873	0.8137	-0.107
Mof_H 	H 	0.99	0.1674	0.7627	0.062
Mof_C 	C 	0.9898	0.1376	0.88417	0.039
Mof_C 	C 	0.9383	0.16677	0.95874	-0.106
Mof_H 	H 	0.9622	0.1328	0.0069	0.067
Mof_C 	C 	0.8519	0.2456	0.96284	0.042
Mof_H 	H 	0.8167	0.2656	0.0138	0.006
Mof_C 	C 	0.00369	0.632	0.87805	0.168
Mof_C 	C 	0.0662	0.669	0.80832	-0.183
Mof_H 	H 	0.0339	0.6961	0.7619	0.085
Mof_C 	C 	0.1759	0.6664	0.80656	0.075
Mof_H 	H 	0.2186	0.6917	0.7589	-0.002
Mof_N 	N 	0.22321	0.62678	0.87453	-0.257
Mof_C 	C 	0.1607	0.5898	0.94425	0.085
Mof_H 	H 	0.193	0.5627	0.9907	-0.006
Mof_C 	C 	0.051	0.5924	0.94602	-0.19
Mof_H 	H 	0.0083	0.567	0.9937	0.087
Mof_C 	C 	0.5392	0.6075	0.19574	-0.115
Mof_C 	C 	0.6291	0.55132	0.23093	0.021
Mof_H 	H 	0.6911	0.512	0.2003	0.017
Mof_C 	C 	0.6284	0.5528	0.31097	-0.091
Mof_H 	H 	0.6899	0.5144	0.335	0.056
Mof_C 	C 	0.5377	0.6104	0.35581	0.031
Mof_C 	C 	0.4477	0.6665	0.32061	-0.096
Mof_H 	H 	0.3857	0.7059	0.3513	0.059
Mof_C 	C 	0.4485	0.6651	0.24058	0.03
Mof_H 	H 	0.387	0.7035	0.2165	0.034
Mof_C 	C 	0.1799	0.91803	0.8303	0.043
Mof_H 	H 	0.1832	0.8785	0.7982	0.025
Mof_C 	C 	0.092	0.9962	0.8328	-0.113
Mof_H 	H 	0.0352	0.0102	0.8024	0.065
Mof_C 	C 	0.0872	0.05403	0.8798	0.042
Mof_C 	C 	0.1703	0.0336	0.9242	-0.105
Mof_H 	H 	0.167	0.0731	0.9563	0.06
Mof_C 	C 	0.2582	0.9554	0.9218	0.041
Mof_H 	H 	0.3149	0.9414	0.9522	0.026
Mof_C 	C 	0.263	0.89759	0.8748	-0.132
Mof_C 	C 	0.5289	0.6046	0.6925	0.405
Mof_C 	C 	0.3519	0.8095	0.8785	0.409
Mof_C 	C 	0.7295	0.3822	0.8961	0.336
Mof_C 	C 	0.9354	0.5466	0.7576	-0.599
Mof_H 	H 	0.8881	0.5301	0.733	0.171
Mof_H 	H 	0.975	0.5834	0.7162	0.191
Mof_H 	H 	0.9918	0.4946	0.7787	0.192
Mof_C 	C 	0.8594	0.596	0.8276	0.247
Mof_C 	C 	0.887	0.6315	0.8791	-0.244
Mof_C 	C 	0.7813	0.6689	0.9299	0.264
Mof_C 	C 	0.7627	0.7111	0.0027	-0.626
Mof_H 	H 	0.6807	0.7313	0.0272	0.188
Mof_H 	H 	0.8031	0.6691	0.0431	0.204
Mof_H 	H 	0.7921	0.7602	0.9847	0.2
Mof_Zn	Zn	0.46949	0.31808	0.04999	1.206
Mof_Zn	Zn	0.35095	0.44506	0.17775	1.203
Mof_Zn	Zn	0.61571	0.37509	0.13867	1.216
Mof_N 	N 	0.2536	0.3894	0.1545	-0.29
Mof_N 	N 	0.2979	0.3443	0.0918	-0.288
Mof_O 	O 	0.4861	0.40928	0.09181	-0.723
Mof_O 	O 	0.4222	0.4645	0.91746	-0.377
Mof_O 	O 	0.5066	0.3201	0.932	-0.44
Mof_O 	O 	0.565	0.3835	0.2579	-0.497
Mof_O 	O 	0.3755	0.4123	0.289	-0.509
Mof_O 	O 	0.572	0.2035	0.0841	-0.509
Mof_O 	O 	0.6592	0.2433	0.155	-0.496
Mof_O 	O 	0.282	0.5693	0.1739	-0.455
Mof_O 	O 	0.3277	0.5961	0.03632	-0.354
Mof_C 	C 	0.4618	0.3948	0.8897	0.319
Mof_C 	C 	0.468	0.3928	0.39491	-0.136
Mof_C 	C 	0.5692	0.3755	0.41888	0.05
Mof_H 	H 	0.6399	0.3646	0.3799	0.022
Mof_C 	C 	0.5671	0.3741	0.49986	-0.112
Mof_H 	H 	0.6363	0.3623	0.5162	0.065
Mof_C 	C 	0.4637	0.3901	0.55688	0.049
Mof_C 	C 	0.3625	0.4073	0.53291	-0.114
Mof_H 	H 	0.2919	0.4182	0.5719	0.061
Mof_C 	C 	0.3646	0.4087	0.45192	0.05
Mof_H 	H 	0.2955	0.4205	0.4355	0.02
Mof_C 	C 	0.183	0.70467	0.10763	-0.123
Mof_C 	C 	0.1315	0.7338	0.1822	0.037
Mof_H 	H 	0.1554	0.6999	0.2304	0.027
Mof_C 	C 	0.0451	0.8127	0.1863	-0.107
Mof_H 	H 	0.01	0.8326	0.2373	0.062
Mof_C 	C 	0.0102	0.8624	0.11583	0.039
Mof_C 	C 	0.0617	0.83323	0.04126	-0.106
Mof_H 	H 	0.0378	0.8672	0.9931	0.067
Mof_C 	C 	0.1481	0.7544	0.03716	0.042
Mof_H 	H 	0.1833	0.7344	0.9862	0.006
Mof_C 	C 	0.99631	0.368	0.12195	0.168
Mof_C 	C 	0.9338	0.331	0.19168	-0.183
Mof_H 	H 	0.9661	0.3039	0.2381	0.085
Mof_C 	C 	0.8241	0.3336	0.19344	0.075
Mof_H 	H 	0.7814	0.3083	0.2411	-0.002
Mof_N 	N 	0.77679	0.37322	0.12547	-0.257
Mof_C 	C 	0.8393	0.4102	0.05575	0.085
Mof_H 	H 	0.807	0.4373	0.0093	-0.006
Mof_C 	C 	0.949	0.4076	0.05398	-0.19
Mof_H 	H 	0.9917	0.433	0.0063	0.087
Mof_C 	C 	0.4608	0.3925	0.80426	-0.115
Mof_C 	C 	0.3709	0.44868	0.76907	0.021
Mof_H 	H 	0.3089	0.488	0.7997	0.017
Mof_C 	C 	0.3716	0.4472	0.68903	-0.091
Mof_H 	H 	0.3101	0.4856	0.665	0.056
Mof_C 	C 	0.4623	0.3896	0.64419	0.031
Mof_C 	C 	0.5523	0.3335	0.67939	-0.096
Mof_H 	H 	0.6143	0.2941	0.6487	0.059
Mof_C 	C 	0.5515	0.3349	0.75942	0.03
Mof_H 	H 	0.613	0.2965	0.7835	0.034
Mof_C 	C 	0.8201	0.08197	0.1697	0.043
Mof_H 	H 	0.8168	0.1215	0.2018	0.025
Mof_C 	C 	0.908	0.0038	0.1672	-0.113
Mof_H 	H 	0.9648	0.9898	0.1976	0.065
Mof_C 	C 	0.9128	0.94597	0.1202	0.042
Mof_C 	C 	0.8297	0.9664	0.0758	-0.105
Mof_H 	H 	0.833	0.9269	0.0437	0.06
Mof_C 	C 	0.7418	0.0446	0.0782	0.041
Mof_H 	H 	0.6851	0.0586	0.0478	0.026
Mof_C 	C 	0.737	0.10241	0.1252	-0.132
Mof_C 	C 	0.4711	0.3954	0.3075	0.405
Mof_C 	C 	0.6481	0.1905	0.1215	0.409
Mof_C 	C 	0.2705	0.6178	0.1039	0.336
Mof_C 	C 	0.0646	0.4534	0.2424	-0.599
Mof_H 	H 	0.1119	0.4699	0.267	0.171
Mof_H 	H 	0.025	0.4166	0.2838	0.191
Mof_H 	H 	0.0082	0.5054	0.2213	0.192
Mof_C 	C 	0.1406	0.404	0.1724	0.247
Mof_C 	C 	0.113	0.3685	0.1209	-0.244
Mof_C 	C 	0.2187	0.3311	0.0701	0.264
Mof_C 	C 	0.2373	0.2889	0.9973	-0.626
Mof_H 	H 	0.3193	0.2687	0.9728	0.188
Mof_H 	H 	0.1969	0.3309	0.9569	0.204
Mof_H 	H 	0.2079	0.2398	0.0153	0.2
_end
