data_functionalizedCrystal
_audit_creation_method	'EQeq! by Chris Wilmer'
_symmetry_space_group_name_H-M	'P1'
_symmetry_Int_Tables_number	1
_symmetry_cell_setting	triclinic
loop_
_symmetry_equiv_pos_as_xyz
  x,y,z
_cell_length_a	6.5681
_cell_length_b	16.3928
_cell_length_c	13.1995
_cell_angle_alpha	90
_cell_angle_beta	90
_cell_angle_gamma	90
loop_
_atom_site_label
_atom_site_type_symbol
_atom_site_fract_x
_atom_site_fract_y
_atom_site_fract_z
_atom_site_charge
Mof_O 	O 	0.1671	0.16883	0.83996	-1.669
Mof_C 	C 	0.8048	0.0299	0.9577	0.02
Mof_O 	O 	0.6671	0.66883	0.33996	-1.66
Mof_C 	C 	0.3048	0.5299	0.4577	0.068
Mof_O 	O 	0.8329	0.33117	0.83996	-1.691
Mof_C 	C 	0.1952	0.4701	0.9577	0.053
Mof_O 	O 	0.3329	0.83117	0.33996	-1.661
Mof_C 	C 	0.6952	0.9701	0.4577	0.044
Mof_O 	O 	0.8329	0.66883	0.16004	-1.691
Mof_C 	C 	0.1952	0.5299	0.0423	0.053
Mof_O 	O 	0.3329	0.16883	0.66004	-1.661
Mof_C 	C 	0.6952	0.0299	0.5423	0.044
Mof_O 	O 	0.1671	0.83117	0.16004	-1.67
Mof_C 	C 	0.8048	0.9701	0.0423	0.019
Mof_O 	O 	0.6671	0.33117	0.66004	-1.661
Mof_C 	C 	0.3048	0.4701	0.5423	0.067
Mof_O 	O 	0.8329	0.83117	0.16004	-1.691
Mof_C 	C 	0.1952	0.9701	0.0423	0.053
Mof_O 	O 	0.3329	0.33117	0.66004	-1.661
Mof_C 	C 	0.6952	0.4701	0.5423	0.044
Mof_O 	O 	0.1671	0.66883	0.16004	-1.67
Mof_C 	C 	0.8048	0.5299	0.0423	0.019
Mof_O 	O 	0.6671	0.16883	0.66004	-1.661
Mof_C 	C 	0.3048	0.0299	0.5423	0.066
Mof_O 	O 	0.1671	0.33117	0.83996	-1.67
Mof_C 	C 	0.8048	0.4701	0.9577	0.019
Mof_O 	O 	0.6671	0.83117	0.33996	-1.661
Mof_C 	C 	0.3048	0.9701	0.4577	0.066
Mof_O 	O 	0.8329	0.16883	0.83996	-1.691
Mof_C 	C 	0.1952	0.0299	0.9577	0.053
Mof_O 	O 	0.3329	0.66883	0.33996	-1.661
Mof_C 	C 	0.6952	0.5299	0.4577	0.044
Mof_Al	Al	0.25	0.25	0.75	7.048
Mof_Al	Al	0.75	0.25	0.75	6.953
Mof_Al	Al	0.75	0.75	0.25	6.953
Mof_Al	Al	0.25	0.75	0.25	7.048
Mof_F 	F 	-1.25451e-32	0.25	0.6924	-2.321
Mof_F 	F 	0.5	0.75	0.1924	-2.344
Mof_F 	F 	2.31775e-33	0.75	0.3076	-2.321
Mof_F 	F 	0.5	0.25	0.8076	-2.344
Mof_C 	C 	2.49047e-32	0.0625	0.9479	-0.268
Mof_C 	C 	2.43162e-32	0.1351	0.8698	1.225
Mof_C 	C 	0.5	0.5625	0.4479	-0.306
Mof_C 	C 	0.5	0.6351	0.3698	1.18
Mof_C 	C 	-1.062e-32	0.4375	0.9479	-0.267
Mof_C 	C 	-1.12084e-32	0.3649	0.8698	1.225
Mof_C 	C 	0.5	0.9375	0.4479	-0.306
Mof_C 	C 	0.5	0.8649	0.3698	1.18
Mof_C 	C 	1.48245e-32	0.5625	0.0521	-0.267
Mof_C 	C 	3.20134e-33	0.6351	0.1302	1.225
Mof_C 	C 	0.5	0.0625	0.5521	-0.306
Mof_C 	C 	0.5	0.1351	0.6302	1.18
Mof_C 	C 	-2.93787e-33	0.9375	0.0521	-0.268
Mof_C 	C 	3.20134e-33	0.8649	0.1302	1.225
Mof_C 	C 	0.5	0.4375	0.5521	-0.306
Mof_C 	C 	0.5	0.3649	0.6302	1.18
_end
