data_functionalizedCrystal
_audit_creation_method	'EQeq! by Chris Wilmer'
_symmetry_space_group_name_H-M	'P1'
_symmetry_Int_Tables_number	1
_symmetry_cell_setting	triclinic
loop_
_symmetry_equiv_pos_as_xyz
  x,y,z
_cell_length_a	10.864
_cell_length_b	21.562
_cell_length_c	45.165
_cell_angle_alpha	90
_cell_angle_beta	93.858
_cell_angle_gamma	90
loop_
_atom_site_label
_atom_site_type_symbol
_atom_site_fract_x
_atom_site_fract_y
_atom_site_fract_z
_atom_site_charge
Mof_Na	Na	0.37322	0.28387	0.13108	3.819
Mof_Na	Na	0.62328	0.77353	0.37765	3.793
Mof_Na	Na	0.12678	0.78387	0.36892	3.822
Mof_Na	Na	0.87672	0.27353	0.12235	3.772
Mof_Na	Na	0.62678	0.71613	0.86892	3.818
Mof_Na	Na	0.37672	0.22647	0.62235	3.792
Mof_Na	Na	0.87322	0.21613	0.63108	3.822
Mof_Na	Na	0.12328	0.72647	0.87765	3.772
Mof_Zn	Zn	0.90161	0.77511	0.13054	1.162
Mof_Zn	Zn	0.36837	0.77529	0.11447	1.163
Mof_Zn	Zn	0.59839	0.27511	0.36946	1.163
Mof_Zn	Zn	0.13163	0.27529	0.38553	1.163
Mof_Zn	Zn	0.09839	0.22489	0.86946	1.162
Mof_Zn	Zn	0.63163	0.22471	0.88553	1.163
Mof_Zn	Zn	0.40161	0.72489	0.63054	1.163
Mof_Zn	Zn	0.86837	0.72471	0.61447	1.163
Mof_H 	H 	0.6937	0.6842	0.2191	0.057
Mof_H 	H 	0.711	0.5958	0.1861	0.064
Mof_H 	H 	0.8446	0.5711	0.0751	0.065
Mof_H 	H 	0.9577	0.6347	0.0419	0.062
Mof_H 	H 	0.1714	0.8578	0.0508	0.056
Mof_H 	H 	0.1519	0.9468	0.0836	0.064
Mof_H 	H 	0.908	0.9888	0.1807	0.061
Mof_H 	H 	0.7942	0.9224	0.2138	0.064
Mof_H 	H 	0.8609	0.7786	0.2546	0.137
Mof_H 	H 	0.7649	0.7908	0.2987	-0.114
Mof_H 	H 	0.4587	0.8477	0.2533	-0.039
Mof_H 	H 	0.5555	0.8365	0.2094	0.129
Mof_H 	H 	0.3924	0.8368	0.3241	0.21
Mof_H 	H 	0.9264	0.5128	0.1268	0.16
Mof_H 	H 	0.8489	0.4137	0.1231	-0.195
Mof_H 	H 	0.5105	0.4786	0.1341	-0.091
Mof_H 	H 	0.5795	0.5776	0.1333	0.147
Mof_H 	H 	0.9867	0.8158	0.0155	0.109
Mof_H 	H 	0.056	0.8043	0.9683	-0.034
Mof_H 	H 	0.2455	0.6533	0.996	-0.014
Mof_H 	H 	0.1877	0.6674	0.0431	0.119
Mof_H 	H 	0.2838	0.6679	0.9231	0.145
Mof_H 	H 	0.8779	0.0294	0.115	0.234
Mof_H 	H 	0.9397	0.1307	0.1172	-0.261
Mof_H 	H 	0.2731	0.082	0.1449	-0.154
Mof_H 	H 	0.2087	0.9802	0.1456	0.225
Mof_H 	H 	0.1085	0.2634	0.1357	0.16
Mof_H 	H 	0.382	0.5612	0.0676	0.057
Mof_H 	H 	0.4904	0.6245	0.0335	0.063
Mof_H 	H 	0.5804	0.8677	0.0261	0.063
Mof_H 	H 	0.561	0.9585	0.0602	0.056
Mof_H 	H 	0.4499	0.974	0.1732	0.057
Mof_H 	H 	0.3281	0.9124	0.2056	0.066
Mof_H 	H 	0.084	0.695	0.1923	0.06
Mof_H 	H 	0.1017	0.6073	0.1588	0.061
Mof_H 	H 	0.312	0.5398	0.1544	0.118
Mof_H 	H 	0.2598	0.4368	0.1566	-0.065
Mof_H 	H 	0.0751	0.4494	0.0772	-0.028
Mof_H 	H 	0.1336	0.553	0.0743	0.118
Mof_H 	H 	0.4183	0.7664	0.9903	0.146
Mof_H 	H 	0.5261	0.7504	0.9481	-0.089
Mof_H 	H 	0.8229	0.6969	0.9991	-0.043
Mof_H 	H 	0.7163	0.7167	0.0407	0.131
Mof_H 	H 	0.9033	0.6767	0.9298	0.21
Mof_H 	H 	0.376	0.0302	0.0896	0.117
Mof_H 	H 	0.4418	0.1347	0.0942	-0.08
Mof_H 	H 	0.7286	0.0795	0.1484	-0.044
Mof_H 	H 	0.6595	0.978	0.1444	0.114
Mof_H 	H 	0.607	0.2624	0.1124	0.137
Mof_H 	H 	0.2732	0.7289	0.228	0.115
Mof_H 	H 	0.2143	0.7432	0.2761	-0.038
Mof_H 	H 	0.0382	0.8996	0.2508	-0.02
Mof_H 	H 	0.1032	0.8878	0.2038	0.122
Mof_H 	H 	0.012	0.8739	0.326	0.166
Mof_H 	H 	0.8063	0.1842	0.2809	0.056
Mof_H 	H 	0.789	0.0958	0.3139	0.064
Mof_H 	H 	0.6554	0.0711	0.4249	0.065
Mof_H 	H 	0.5423	0.1347	0.4581	0.062
Mof_H 	H 	0.3286	0.3578	0.4492	0.056
Mof_H 	H 	0.3481	0.4468	0.4164	0.065
Mof_H 	H 	0.592	0.4888	0.3193	0.063
Mof_H 	H 	0.7058	0.4224	0.2862	0.063
Mof_H 	H 	0.6391	0.2786	0.2454	0.134
Mof_H 	H 	0.7351	0.2908	0.2013	-0.109
Mof_H 	H 	0.0413	0.3477	0.2467	-0.025
Mof_H 	H 	0.9445	0.3365	0.2906	0.121
Mof_H 	H 	0.1076	0.3368	0.1759	0.209
Mof_H 	H 	0.5736	0.0128	0.3732	0.163
Mof_H 	H 	0.6511	0.9137	0.3769	-0.197
Mof_H 	H 	0.9895	0.9786	0.3659	-0.094
Mof_H 	H 	0.9205	0.0776	0.3667	0.147
Mof_H 	H 	0.5133	0.3158	0.4845	0.107
Mof_H 	H 	0.444	0.3043	0.5317	-0.032
Mof_H 	H 	0.2545	0.1533	0.504	-0.014
Mof_H 	H 	0.3123	0.1674	0.4569	0.119
Mof_H 	H 	0.2162	0.1679	0.5769	0.145
Mof_H 	H 	0.6221	0.5294	0.385	0.242
Mof_H 	H 	0.5603	0.6307	0.3828	-0.271
Mof_H 	H 	0.2269	0.582	0.3551	-0.164
Mof_H 	H 	0.2913	0.4802	0.3544	0.238
Mof_H 	H 	0.3915	0.7634	0.3643	0.161
Mof_H 	H 	0.118	0.0612	0.4324	0.058
Mof_H 	H 	0.0096	0.1245	0.4665	0.063
Mof_H 	H 	0.9196	0.3677	0.4739	0.063
Mof_H 	H 	0.939	0.4585	0.4398	0.056
Mof_H 	H 	0.0501	0.474	0.3268	0.059
Mof_H 	H 	0.1719	0.4124	0.2944	0.067
Mof_H 	H 	0.416	0.195	0.3077	0.059
Mof_H 	H 	0.3983	0.1073	0.3412	0.06
Mof_H 	H 	0.188	0.0398	0.3456	0.117
Mof_H 	H 	0.2402	0.9368	0.3434	-0.063
Mof_H 	H 	0.4249	0.9494	0.4228	-0.027
Mof_H 	H 	0.3664	0.053	0.4257	0.116
Mof_H 	H 	0.0817	0.2664	0.5097	0.142
Mof_H 	H 	0.9739	0.2504	0.5519	-0.086
Mof_H 	H 	0.6771	0.1969	0.5009	-0.041
Mof_H 	H 	0.7837	0.2167	0.4593	0.128
Mof_H 	H 	0.5967	0.1767	0.5702	0.209
Mof_H 	H 	0.124	0.5302	0.4104	0.115
Mof_H 	H 	0.0582	0.6347	0.4058	-0.08
Mof_H 	H 	0.7714	0.5795	0.3516	-0.043
Mof_H 	H 	0.8405	0.478	0.3556	0.113
Mof_H 	H 	0.893	0.7624	0.3876	0.137
Mof_H 	H 	0.2268	0.2289	0.272	0.116
Mof_H 	H 	0.2857	0.2432	0.2239	-0.038
Mof_H 	H 	0.4618	0.3996	0.2492	-0.021
Mof_H 	H 	0.3968	0.3878	0.2962	0.122
Mof_H 	H 	0.488	0.3739	0.174	0.165
Mof_H 	H 	0.3063	0.3158	0.7809	0.057
Mof_H 	H 	0.289	0.4042	0.8139	0.064
Mof_H 	H 	0.1554	0.4289	0.9249	0.065
Mof_H 	H 	0.0423	0.3653	0.9581	0.062
Mof_H 	H 	0.8286	0.1422	0.9492	0.056
Mof_H 	H 	0.8481	0.0532	0.9164	0.064
Mof_H 	H 	0.092	0.0112	0.8193	0.061
Mof_H 	H 	0.2058	0.0776	0.7862	0.064
Mof_H 	H 	0.1391	0.2214	0.7454	0.137
Mof_H 	H 	0.2351	0.2092	0.7013	-0.114
Mof_H 	H 	0.5413	0.1523	0.7467	-0.039
Mof_H 	H 	0.4445	0.1635	0.7906	0.129
Mof_H 	H 	0.6076	0.1632	0.6759	0.21
Mof_H 	H 	0.0736	0.4872	0.8732	0.16
Mof_H 	H 	0.1511	0.5863	0.8769	-0.195
Mof_H 	H 	0.4895	0.5214	0.8659	-0.091
Mof_H 	H 	0.4205	0.4224	0.8667	0.147
Mof_H 	H 	0.0133	0.1842	0.9845	0.109
Mof_H 	H 	0.944	0.1957	0.0317	-0.034
Mof_H 	H 	0.7545	0.3467	0.004	-0.014
Mof_H 	H 	0.8123	0.3326	0.9569	0.119
Mof_H 	H 	0.7162	0.3321	0.0769	0.145
Mof_H 	H 	0.1221	0.9706	0.885	0.234
Mof_H 	H 	0.0603	0.8693	0.8828	-0.261
Mof_H 	H 	0.7269	0.918	0.8551	-0.154
Mof_H 	H 	0.7913	0.0198	0.8544	0.225
Mof_H 	H 	0.8915	0.7366	0.8643	0.16
Mof_H 	H 	0.618	0.4388	0.9324	0.057
Mof_H 	H 	0.5096	0.3755	0.9665	0.063
Mof_H 	H 	0.4196	0.1323	0.9739	0.063
Mof_H 	H 	0.439	0.0415	0.9398	0.056
Mof_H 	H 	0.5501	0.026	0.8268	0.057
Mof_H 	H 	0.6719	0.0876	0.7944	0.066
Mof_H 	H 	0.916	0.305	0.8077	0.06
Mof_H 	H 	0.8983	0.3927	0.8412	0.061
Mof_H 	H 	0.688	0.4602	0.8456	0.118
Mof_H 	H 	0.7402	0.5632	0.8434	-0.065
Mof_H 	H 	0.9249	0.5506	0.9228	-0.028
Mof_H 	H 	0.8664	0.447	0.9257	0.118
Mof_H 	H 	0.5817	0.2336	0.0097	0.146
Mof_H 	H 	0.4739	0.2496	0.0519	-0.089
Mof_H 	H 	0.1771	0.3031	0.0009	-0.043
Mof_H 	H 	0.2837	0.2833	0.9593	0.131
Mof_H 	H 	0.0967	0.3233	0.0702	0.21
Mof_H 	H 	0.624	0.9698	0.9104	0.117
Mof_H 	H 	0.5582	0.8653	0.9058	-0.08
Mof_H 	H 	0.2714	0.9205	0.8516	-0.044
Mof_H 	H 	0.3405	0.022	0.8556	0.114
Mof_H 	H 	0.393	0.7376	0.8876	0.137
Mof_H 	H 	0.7268	0.2711	0.772	0.115
Mof_H 	H 	0.7857	0.2568	0.7239	-0.038
Mof_H 	H 	0.9618	0.1004	0.7492	-0.02
Mof_H 	H 	0.8968	0.1122	0.7962	0.122
Mof_H 	H 	0.988	0.1261	0.674	0.166
Mof_H 	H 	0.1937	0.8158	0.7191	0.056
Mof_H 	H 	0.211	0.9042	0.6861	0.064
Mof_H 	H 	0.3446	0.9289	0.5751	0.065
Mof_H 	H 	0.4577	0.8653	0.5419	0.062
Mof_H 	H 	0.6714	0.6422	0.5508	0.056
Mof_H 	H 	0.6519	0.5532	0.5836	0.065
Mof_H 	H 	0.408	0.5112	0.6807	0.063
Mof_H 	H 	0.2942	0.5776	0.7138	0.063
Mof_H 	H 	0.3609	0.7214	0.7546	0.134
Mof_H 	H 	0.2649	0.7092	0.7987	-0.109
Mof_H 	H 	0.9587	0.6523	0.7533	-0.025
Mof_H 	H 	0.0555	0.6635	0.7094	0.121
Mof_H 	H 	0.8924	0.6632	0.8241	0.209
Mof_H 	H 	0.4264	0.9872	0.6268	0.163
Mof_H 	H 	0.3489	0.0863	0.6231	-0.197
Mof_H 	H 	0.0105	0.0214	0.6341	-0.094
Mof_H 	H 	0.0795	0.9224	0.6333	0.147
Mof_H 	H 	0.4867	0.6842	0.5155	0.107
Mof_H 	H 	0.556	0.6957	0.4683	-0.032
Mof_H 	H 	0.7455	0.8467	0.496	-0.014
Mof_H 	H 	0.6877	0.8326	0.5431	0.119
Mof_H 	H 	0.7838	0.8321	0.4231	0.145
Mof_H 	H 	0.3779	0.4706	0.615	0.242
Mof_H 	H 	0.4397	0.3693	0.6172	-0.271
Mof_H 	H 	0.7731	0.418	0.6449	-0.164
Mof_H 	H 	0.7087	0.5198	0.6456	0.238
Mof_H 	H 	0.6085	0.2366	0.6357	0.161
Mof_H 	H 	0.882	0.9388	0.5676	0.058
Mof_H 	H 	0.9904	0.8755	0.5335	0.063
Mof_H 	H 	0.0804	0.6323	0.5261	0.063
Mof_H 	H 	0.061	0.5415	0.5602	0.056
Mof_H 	H 	0.9499	0.526	0.6732	0.059
Mof_H 	H 	0.8281	0.5876	0.7056	0.067
Mof_H 	H 	0.584	0.805	0.6923	0.059
Mof_H 	H 	0.6017	0.8927	0.6588	0.06
Mof_H 	H 	0.812	0.9602	0.6544	0.117
Mof_H 	H 	0.7598	0.0632	0.6566	-0.063
Mof_H 	H 	0.5751	0.0506	0.5772	-0.027
Mof_H 	H 	0.6336	0.947	0.5743	0.116
Mof_H 	H 	0.9183	0.7336	0.4903	0.142
Mof_H 	H 	0.0261	0.7496	0.4481	-0.086
Mof_H 	H 	0.3229	0.8031	0.4991	-0.041
Mof_H 	H 	0.2163	0.7833	0.5407	0.128
Mof_H 	H 	0.4033	0.8233	0.4298	0.209
Mof_H 	H 	0.876	0.4698	0.5896	0.115
Mof_H 	H 	0.9418	0.3653	0.5942	-0.08
Mof_H 	H 	0.2286	0.4205	0.6484	-0.043
Mof_H 	H 	0.1595	0.522	0.6444	0.113
Mof_H 	H 	0.107	0.2376	0.6124	0.137
Mof_H 	H 	0.7732	0.7711	0.728	0.116
Mof_H 	H 	0.7143	0.7568	0.7761	-0.038
Mof_H 	H 	0.5382	0.6004	0.7508	-0.021
Mof_H 	H 	0.6032	0.6122	0.7038	0.122
Mof_H 	H 	0.512	0.6261	0.826	0.165
Mof_C 	C 	0.8283	0.84906	0.18431	0.118
Mof_C 	C 	0.7803	0.79742	0.19816	-0.196
Mof_C 	C 	0.7795	0.73639	0.18731	0.106
Mof_C 	C 	0.728	0.68462	0.20074	-0.093
Mof_C 	C 	0.7368	0.6361	0.18265	-0.099
Mof_C 	C 	0.7933	0.65785	0.15699	0.112
Mof_C 	C 	0.8102	0.62293	0.13135	-0.202
Mof_C 	C 	0.8689	0.6435	0.10664	0.113
Mof_C 	C 	0.8771	0.61024	0.07936	-0.098
Mof_C 	C 	0.9392	0.64499	0.0611	-0.084
Mof_C 	C 	0.9724	0.70179	0.07672	0.094
Mof_C 	C 	0.0384	0.75177	0.06488	-0.177
Mof_C 	C 	0.0564	0.80888	0.07887	0.084
Mof_C 	C 	0.1266	0.85903	0.06766	-0.1
Mof_C 	C 	0.1162	0.90792	0.08568	-0.112
Mof_C 	C 	0.0397	0.88893	0.10876	0.133
Mof_C 	C 	0.0029	0.92698	0.13163	-0.277
Mof_C 	C 	0.9278	0.90757	0.15445	0.127
Mof_C 	C 	0.8917	0.94664	0.17832	-0.105
Mof_C 	C 	0.8295	0.91009	0.19658	-0.094
Mof_C 	C 	0.7181	0.80687	0.22707	0.232
Mof_C 	C 	0.78	0.79285	0.25408	-0.325
Mof_C 	C 	0.722	0.79991	0.2807	0.289
Mof_C 	C 	0.6042	0.81979	0.28034	-0.378
Mof_C 	C 	0.5399	0.8339	0.25368	0.24
Mof_C 	C 	0.5987	0.8271	0.22733	-0.304
Mof_C 	C 	0.5418	0.82499	0.30887	0.691
Mof_C 	C 	0.7625	0.55687	0.13066	0.255
Mof_C 	C 	0.8421	0.50609	0.1276	-0.378
Mof_C 	C 	0.7962	0.44688	0.12573	0.368
Mof_C 	C 	0.6721	0.43671	0.12779	-0.437
Mof_C 	C 	0.5934	0.48619	0.13171	0.326
Mof_C 	C 	0.6347	0.54488	0.1321	-0.363
Mof_C 	C 	0.6229	0.37133	0.12684	0.68
Mof_C 	C 	0.0831	0.74283	0.03489	0.178
Mof_C 	C 	0.041	0.7839	0.01166	-0.236
Mof_C 	C 	0.0809	0.77655	0.98326	0.171
Mof_C 	C 	0.158	0.72759	0.9775	-0.245
Mof_C 	C 	0.1954	0.68676	8e-05	0.166
Mof_C 	C 	0.1598	0.6947	0.02825	-0.249
Mof_C 	C 	0.1943	0.71815	0.94661	0.511
Mof_C 	C 	0.037	0.99268	0.13096	0.46
Mof_C 	C 	0.9582	0.03892	0.12195	-0.612
Mof_C 	C 	0.9965	0.1001	0.123	0.611
Mof_C 	C 	0.1097	0.11718	0.13188	-0.69
Mof_C 	C 	0.1912	0.07218	0.13958	0.525
Mof_C 	C 	0.1519	0.0105	0.13945	-0.56
Mof_C 	C 	0.1606	0.18146	0.13398	0.926
Mof_C 	C 	0.2264	0.6621	0.13517	0.096
Mof_C 	C 	0.2655	0.62494	0.11261	-0.174
Mof_C 	C 	0.3402	0.64234	0.0904	0.097
Mof_C 	C 	0.3905	0.60411	0.06867	-0.09
Mof_C 	C 	0.4516	0.63823	0.05001	-0.086
Mof_C 	C 	0.4449	0.70171	0.06099	0.103
Mof_C 	C 	0.4924	0.7556	0.04712	-0.194
Mof_C 	C 	0.4882	0.81601	0.05767	0.112
Mof_C 	C 	0.5442	0.86766	0.04415	-0.104
Mof_C 	C 	0.5342	0.91818	0.06318	-0.087
Mof_C 	C 	0.4738	0.89479	0.08834	0.094
Mof_C 	C 	0.4646	0.92669	0.11483	-0.173
Mof_C 	C 	0.4106	0.90479	0.14035	0.089
Mof_C 	C 	0.4111	0.9365	0.16848	-0.09
Mof_C 	C 	0.3463	0.90249	0.18634	-0.1
Mof_C 	C 	0.3091	0.84693	0.17005	0.104
Mof_C 	C 	0.2381	0.79947	0.18013	-0.179
Mof_C 	C 	0.2108	0.74136	0.1654	0.08
Mof_C 	C 	0.1319	0.69303	0.17597	-0.113
Mof_C 	C 	0.1419	0.64515	0.15756	-0.086
Mof_C 	C 	0.2311	0.55756	0.11359	0.185
Mof_C 	C 	0.2657	0.52178	0.13855	-0.261
Mof_C 	C 	0.2326	0.46029	0.14021	0.183
Mof_C 	C 	0.1598	0.4335	0.11775	-0.293
Mof_C 	C 	0.123	0.46759	0.09271	0.165
Mof_C 	C 	0.1589	0.52987	0.09098	-0.254
Mof_C 	C 	0.1159	0.3666	0.11975	0.475
Mof_C 	C 	0.5587	0.74333	0.0194	0.244
Mof_C 	C 	0.4999	0.7532	0.99207	-0.325
Mof_C 	C 	0.5646	0.7429	0.96673	0.269
Mof_C 	C 	0.6854	0.7218	0.96913	-0.376
Mof_C 	C 	0.7422	0.7114	0.99706	0.247
Mof_C 	C 	0.6776	0.723	0.02194	-0.317
Mof_C 	C 	0.7487	0.7081	0.9416	0.686
Mof_C 	C 	0.511	0.99354	0.11633	0.191
Mof_C 	C 	0.4467	0.03989	0.10146	-0.267
Mof_C 	C 	0.4864	0.103	0.10392	0.215
Mof_C 	C 	0.5903	0.11484	0.12066	-0.308
Mof_C 	C 	0.658	0.06955	0.13652	0.185
Mof_C 	C 	0.616	0.0092	0.13395	-0.269
Mof_C 	C 	0.6405	0.18199	0.12382	0.584
Mof_C 	C 	0.1891	0.80675	0.21053	0.186
Mof_C 	C 	0.2261	0.76312	0.23265	-0.252
Mof_C 	C 	0.1911	0.77194	0.26145	0.195
Mof_C 	C 	0.1229	0.82259	0.26835	-0.274
Mof_C 	C 	0.0867	0.8658	0.24631	0.181
Mof_C 	C 	0.1234	0.85781	0.21811	-0.259
Mof_C 	C 	0.091	0.8304	0.29965	0.569
Mof_C 	C 	0.6717	0.34906	0.31569	0.116
Mof_C 	C 	0.7197	0.29742	0.30184	-0.191
Mof_C 	C 	0.7205	0.23639	0.31269	0.104
Mof_C 	C 	0.772	0.18462	0.29926	-0.092
Mof_C 	C 	0.7632	0.1361	0.31735	-0.1
Mof_C 	C 	0.7067	0.15785	0.34301	0.113
Mof_C 	C 	0.6898	0.12293	0.36865	-0.204
Mof_C 	C 	0.6311	0.1435	0.39336	0.114
Mof_C 	C 	0.6229	0.11024	0.42064	-0.097
Mof_C 	C 	0.5608	0.14499	0.4389	-0.084
Mof_C 	C 	0.5276	0.20179	0.42328	0.096
Mof_C 	C 	0.4616	0.25177	0.43512	-0.178
Mof_C 	C 	0.4436	0.30888	0.42113	0.083
Mof_C 	C 	0.3734	0.35903	0.43234	-0.099
Mof_C 	C 	0.3838	0.40792	0.41432	-0.115
Mof_C 	C 	0.4603	0.38893	0.39124	0.137
Mof_C 	C 	0.4971	0.42698	0.36837	-0.289
Mof_C 	C 	0.5722	0.40757	0.34555	0.133
Mof_C 	C 	0.6083	0.44664	0.32168	-0.109
Mof_C 	C 	0.6705	0.41009	0.30342	-0.091
Mof_C 	C 	0.7819	0.30687	0.27293	0.222
Mof_C 	C 	0.72	0.29285	0.24592	-0.314
Mof_C 	C 	0.778	0.29991	0.2193	0.276
Mof_C 	C 	0.8958	0.31979	0.21966	-0.363
Mof_C 	C 	0.9601	0.3339	0.24632	0.213
Mof_C 	C 	0.9013	0.3271	0.27267	-0.288
Mof_C 	C 	0.9582	0.32499	0.19113	0.676
Mof_C 	C 	0.7375	0.05687	0.36934	0.258
Mof_C 	C 	0.6579	0.00609	0.3724	-0.382
Mof_C 	C 	0.7038	0.94688	0.37427	0.372
Mof_C 	C 	0.8279	0.93671	0.37221	-0.441
Mof_C 	C 	0.9066	0.98619	0.36829	0.331
Mof_C 	C 	0.8653	0.04488	0.3679	-0.369
Mof_C 	C 	0.8771	0.87133	0.37316	0.683
Mof_C 	C 	0.4169	0.24283	0.46511	0.176
Mof_C 	C 	0.459	0.2839	0.48834	-0.232
Mof_C 	C 	0.4191	0.27655	0.51674	0.169
Mof_C 	C 	0.342	0.22759	0.5225	-0.243
Mof_C 	C 	0.3046	0.18676	0.49992	0.165
Mof_C 	C 	0.3402	0.1947	0.47175	-0.248
Mof_C 	C 	0.3057	0.21815	0.55339	0.512
Mof_C 	C 	0.463	0.49268	0.36904	0.481
Mof_C 	C 	0.5418	0.53892	0.37805	-0.632
Mof_C 	C 	0.5035	0.6001	0.377	0.646
Mof_C 	C 	0.3903	0.61718	0.36812	-0.721
Mof_C 	C 	0.3088	0.57218	0.36042	0.553
Mof_C 	C 	0.3481	0.5105	0.36055	-0.592
Mof_C 	C 	0.3394	0.68146	0.36602	0.938
Mof_C 	C 	0.2736	0.1621	0.36483	0.095
Mof_C 	C 	0.2345	0.12494	0.38739	-0.172
Mof_C 	C 	0.1598	0.14234	0.4096	0.097
Mof_C 	C 	0.1095	0.10411	0.43133	-0.09
Mof_C 	C 	0.0484	0.13823	0.44999	-0.085
Mof_C 	C 	0.0551	0.20171	0.43901	0.102
Mof_C 	C 	0.0076	0.2556	0.45288	-0.19
Mof_C 	C 	0.0118	0.31601	0.44233	0.113
Mof_C 	C 	0.9558	0.36766	0.45585	-0.106
Mof_C 	C 	0.9658	0.41818	0.43682	-0.09
Mof_C 	C 	0.0262	0.39479	0.41166	0.096
Mof_C 	C 	0.0354	0.42669	0.38517	-0.17
Mof_C 	C 	0.0894	0.40479	0.35965	0.088
Mof_C 	C 	0.0889	0.4365	0.33152	-0.09
Mof_C 	C 	0.1537	0.40249	0.31366	-0.099
Mof_C 	C 	0.1909	0.34693	0.32995	0.105
Mof_C 	C 	0.2619	0.29947	0.31987	-0.179
Mof_C 	C 	0.2892	0.24136	0.3346	0.08
Mof_C 	C 	0.3681	0.19303	0.32403	-0.113
Mof_C 	C 	0.3581	0.14515	0.34244	-0.086
Mof_C 	C 	0.2689	0.05756	0.38641	0.181
Mof_C 	C 	0.2343	0.02178	0.36145	-0.255
Mof_C 	C 	0.2674	0.96029	0.35979	0.176
Mof_C 	C 	0.3402	0.9335	0.38225	-0.29
Mof_C 	C 	0.377	0.96759	0.40729	0.159
Mof_C 	C 	0.3411	0.02987	0.40902	-0.25
Mof_C 	C 	0.3841	0.8666	0.38025	0.474
Mof_C 	C 	0.9413	0.24333	0.4806	0.233
Mof_C 	C 	0.0001	0.2532	0.50793	-0.313
Mof_C 	C 	0.9354	0.2429	0.53327	0.259
Mof_C 	C 	0.8146	0.2218	0.53087	-0.37
Mof_C 	C 	0.7578	0.2114	0.50294	0.24
Mof_C 	C 	0.8224	0.223	0.47806	-0.309
Mof_C 	C 	0.7513	0.2081	0.5584	0.684
Mof_C 	C 	0.989	0.49354	0.38367	0.185
Mof_C 	C 	0.0533	0.53989	0.39854	-0.263
Mof_C 	C 	0.0136	0.603	0.39608	0.216
Mof_C 	C 	0.9097	0.61484	0.37934	-0.309
Mof_C 	C 	0.842	0.56955	0.36348	0.184
Mof_C 	C 	0.884	0.5092	0.36605	-0.267
Mof_C 	C 	0.8595	0.68199	0.37618	0.585
Mof_C 	C 	0.3109	0.30675	0.28947	0.186
Mof_C 	C 	0.2739	0.26312	0.26735	-0.252
Mof_C 	C 	0.3089	0.27194	0.23855	0.195
Mof_C 	C 	0.3771	0.32259	0.23165	-0.274
Mof_C 	C 	0.4133	0.3658	0.25369	0.18
Mof_C 	C 	0.3766	0.35781	0.28189	-0.259
Mof_C 	C 	0.409	0.3304	0.20035	0.569
Mof_C 	C 	0.1717	0.15094	0.81569	0.118
Mof_C 	C 	0.2197	0.20258	0.80184	-0.196
Mof_C 	C 	0.2205	0.26361	0.81269	0.106
Mof_C 	C 	0.272	0.31538	0.79926	-0.093
Mof_C 	C 	0.2632	0.3639	0.81735	-0.099
Mof_C 	C 	0.2067	0.34215	0.84301	0.112
Mof_C 	C 	0.1898	0.37707	0.86865	-0.202
Mof_C 	C 	0.1311	0.3565	0.89336	0.113
Mof_C 	C 	0.1229	0.38976	0.92064	-0.098
Mof_C 	C 	0.0608	0.35501	0.9389	-0.084
Mof_C 	C 	0.0276	0.29821	0.92328	0.094
Mof_C 	C 	0.9616	0.24823	0.93512	-0.177
Mof_C 	C 	0.9436	0.19112	0.92113	0.084
Mof_C 	C 	0.8734	0.14097	0.93234	-0.1
Mof_C 	C 	0.8838	0.09208	0.91432	-0.112
Mof_C 	C 	0.9603	0.11107	0.89124	0.133
Mof_C 	C 	0.9971	0.07302	0.86837	-0.277
Mof_C 	C 	0.0722	0.09243	0.84555	0.127
Mof_C 	C 	0.1083	0.05336	0.82168	-0.105
Mof_C 	C 	0.1705	0.08991	0.80342	-0.094
Mof_C 	C 	0.2819	0.19313	0.77293	0.232
Mof_C 	C 	0.22	0.20715	0.74592	-0.325
Mof_C 	C 	0.278	0.20009	0.7193	0.289
Mof_C 	C 	0.3958	0.18021	0.71966	-0.378
Mof_C 	C 	0.4601	0.1661	0.74632	0.24
Mof_C 	C 	0.4013	0.1729	0.77267	-0.304
Mof_C 	C 	0.4582	0.17501	0.69113	0.691
Mof_C 	C 	0.2375	0.44313	0.86934	0.255
Mof_C 	C 	0.1579	0.49391	0.8724	-0.378
Mof_C 	C 	0.2038	0.55312	0.87427	0.368
Mof_C 	C 	0.3279	0.56329	0.87221	-0.437
Mof_C 	C 	0.4066	0.51381	0.86829	0.326
Mof_C 	C 	0.3653	0.45512	0.8679	-0.363
Mof_C 	C 	0.3771	0.62867	0.87316	0.68
Mof_C 	C 	0.9169	0.25717	0.96511	0.178
Mof_C 	C 	0.959	0.2161	0.98834	-0.236
Mof_C 	C 	0.9191	0.22345	0.01674	0.171
Mof_C 	C 	0.842	0.27241	0.0225	-0.245
Mof_C 	C 	0.8046	0.31324	0.99992	0.166
Mof_C 	C 	0.8402	0.3053	0.97175	-0.249
Mof_C 	C 	0.8057	0.28185	0.05339	0.511
Mof_C 	C 	0.963	0.00732	0.86904	0.46
Mof_C 	C 	0.0418	0.96108	0.87805	-0.612
Mof_C 	C 	0.0035	0.8999	0.877	0.611
Mof_C 	C 	0.8903	0.88282	0.86812	-0.69
Mof_C 	C 	0.8088	0.92782	0.86042	0.525
Mof_C 	C 	0.8481	0.9895	0.86055	-0.56
Mof_C 	C 	0.8394	0.81854	0.86602	0.926
Mof_C 	C 	0.7736	0.3379	0.86483	0.096
Mof_C 	C 	0.7345	0.37506	0.88739	-0.174
Mof_C 	C 	0.6598	0.35766	0.9096	0.097
Mof_C 	C 	0.6095	0.39589	0.93133	-0.09
Mof_C 	C 	0.5484	0.36177	0.94999	-0.086
Mof_C 	C 	0.5551	0.29829	0.93901	0.103
Mof_C 	C 	0.5076	0.2444	0.95288	-0.194
Mof_C 	C 	0.5118	0.18399	0.94233	0.112
Mof_C 	C 	0.4558	0.13234	0.95585	-0.104
Mof_C 	C 	0.4658	0.08182	0.93682	-0.087
Mof_C 	C 	0.5262	0.10521	0.91166	0.094
Mof_C 	C 	0.5354	0.07331	0.88517	-0.173
Mof_C 	C 	0.5894	0.09521	0.85965	0.089
Mof_C 	C 	0.5889	0.0635	0.83152	-0.09
Mof_C 	C 	0.6537	0.09751	0.81366	-0.1
Mof_C 	C 	0.6909	0.15307	0.82995	0.104
Mof_C 	C 	0.7619	0.20053	0.81987	-0.179
Mof_C 	C 	0.7892	0.25864	0.8346	0.08
Mof_C 	C 	0.8681	0.30697	0.82403	-0.113
Mof_C 	C 	0.8581	0.35485	0.84244	-0.086
Mof_C 	C 	0.7689	0.44244	0.88641	0.185
Mof_C 	C 	0.7343	0.47822	0.86145	-0.261
Mof_C 	C 	0.7674	0.53971	0.85979	0.183
Mof_C 	C 	0.8402	0.5665	0.88225	-0.293
Mof_C 	C 	0.877	0.53241	0.90729	0.165
Mof_C 	C 	0.8411	0.47013	0.90902	-0.254
Mof_C 	C 	0.8841	0.6334	0.88025	0.475
Mof_C 	C 	0.4413	0.25667	0.9806	0.244
Mof_C 	C 	0.5001	0.2468	0.00793	-0.325
Mof_C 	C 	0.4354	0.2571	0.03327	0.269
Mof_C 	C 	0.3146	0.2782	0.03087	-0.376
Mof_C 	C 	0.2578	0.2886	0.00294	0.247
Mof_C 	C 	0.3224	0.277	0.97806	-0.317
Mof_C 	C 	0.2513	0.2919	0.0584	0.686
Mof_C 	C 	0.489	0.00646	0.88367	0.191
Mof_C 	C 	0.5533	0.96011	0.89854	-0.267
Mof_C 	C 	0.5136	0.897	0.89608	0.215
Mof_C 	C 	0.4097	0.88516	0.87934	-0.308
Mof_C 	C 	0.342	0.93045	0.86348	0.185
Mof_C 	C 	0.384	0.9908	0.86605	-0.269
Mof_C 	C 	0.3595	0.81801	0.87618	0.584
Mof_C 	C 	0.8109	0.19325	0.78947	0.186
Mof_C 	C 	0.7739	0.23688	0.76735	-0.252
Mof_C 	C 	0.8089	0.22806	0.73855	0.195
Mof_C 	C 	0.8771	0.17741	0.73165	-0.274
Mof_C 	C 	0.9133	0.1342	0.75369	0.181
Mof_C 	C 	0.8766	0.14219	0.78189	-0.259
Mof_C 	C 	0.909	0.1696	0.70035	0.569
Mof_C 	C 	0.3283	0.65094	0.68431	0.116
Mof_C 	C 	0.2803	0.70258	0.69816	-0.191
Mof_C 	C 	0.2795	0.76361	0.68731	0.104
Mof_C 	C 	0.228	0.81538	0.70074	-0.092
Mof_C 	C 	0.2368	0.8639	0.68265	-0.1
Mof_C 	C 	0.2933	0.84215	0.65699	0.113
Mof_C 	C 	0.3102	0.87707	0.63135	-0.204
Mof_C 	C 	0.3689	0.8565	0.60664	0.114
Mof_C 	C 	0.3771	0.88976	0.57936	-0.097
Mof_C 	C 	0.4392	0.85501	0.5611	-0.084
Mof_C 	C 	0.4724	0.79821	0.57672	0.096
Mof_C 	C 	0.5384	0.74823	0.56488	-0.178
Mof_C 	C 	0.5564	0.69112	0.57887	0.083
Mof_C 	C 	0.6266	0.64097	0.56766	-0.099
Mof_C 	C 	0.6162	0.59208	0.58568	-0.115
Mof_C 	C 	0.5397	0.61107	0.60876	0.137
Mof_C 	C 	0.5029	0.57302	0.63163	-0.289
Mof_C 	C 	0.4278	0.59243	0.65445	0.133
Mof_C 	C 	0.3917	0.55336	0.67832	-0.109
Mof_C 	C 	0.3295	0.58991	0.69658	-0.091
Mof_C 	C 	0.2181	0.69313	0.72707	0.222
Mof_C 	C 	0.28	0.70715	0.75408	-0.314
Mof_C 	C 	0.222	0.70009	0.7807	0.276
Mof_C 	C 	0.1042	0.68021	0.78034	-0.363
Mof_C 	C 	0.0399	0.6661	0.75368	0.213
Mof_C 	C 	0.0987	0.6729	0.72733	-0.288
Mof_C 	C 	0.0418	0.67501	0.80887	0.676
Mof_C 	C 	0.2625	0.94313	0.63066	0.258
Mof_C 	C 	0.3421	0.99391	0.6276	-0.382
Mof_C 	C 	0.2962	0.05312	0.62573	0.372
Mof_C 	C 	0.1721	0.06329	0.62779	-0.441
Mof_C 	C 	0.0934	0.01381	0.63171	0.331
Mof_C 	C 	0.1347	0.95512	0.6321	-0.369
Mof_C 	C 	0.1229	0.12867	0.62684	0.683
Mof_C 	C 	0.5831	0.75717	0.53489	0.176
Mof_C 	C 	0.541	0.7161	0.51166	-0.232
Mof_C 	C 	0.5809	0.72345	0.48326	0.169
Mof_C 	C 	0.658	0.77241	0.4775	-0.243
Mof_C 	C 	0.6954	0.81324	0.50008	0.165
Mof_C 	C 	0.6598	0.8053	0.52825	-0.248
Mof_C 	C 	0.6943	0.78185	0.44661	0.512
Mof_C 	C 	0.537	0.50732	0.63096	0.481
Mof_C 	C 	0.4582	0.46108	0.62195	-0.632
Mof_C 	C 	0.4965	0.3999	0.623	0.646
Mof_C 	C 	0.6097	0.38282	0.63188	-0.721
Mof_C 	C 	0.6912	0.42782	0.63958	0.553
Mof_C 	C 	0.6519	0.4895	0.63945	-0.592
Mof_C 	C 	0.6606	0.31854	0.63398	0.938
Mof_C 	C 	0.7264	0.8379	0.63517	0.095
Mof_C 	C 	0.7655	0.87506	0.61261	-0.172
Mof_C 	C 	0.8402	0.85766	0.5904	0.097
Mof_C 	C 	0.8905	0.89589	0.56867	-0.09
Mof_C 	C 	0.9516	0.86177	0.55001	-0.085
Mof_C 	C 	0.9449	0.79829	0.56099	0.102
Mof_C 	C 	0.9924	0.7444	0.54712	-0.19
Mof_C 	C 	0.9882	0.68399	0.55767	0.113
Mof_C 	C 	0.0442	0.63234	0.54415	-0.106
Mof_C 	C 	0.0342	0.58182	0.56318	-0.09
Mof_C 	C 	0.9738	0.60521	0.58834	0.096
Mof_C 	C 	0.9646	0.57331	0.61483	-0.17
Mof_C 	C 	0.9106	0.59521	0.64035	0.088
Mof_C 	C 	0.9111	0.5635	0.66848	-0.09
Mof_C 	C 	0.8463	0.59751	0.68634	-0.099
Mof_C 	C 	0.8091	0.65307	0.67005	0.105
Mof_C 	C 	0.7381	0.70053	0.68013	-0.179
Mof_C 	C 	0.7108	0.75864	0.6654	0.08
Mof_C 	C 	0.6319	0.80697	0.67597	-0.113
Mof_C 	C 	0.6419	0.85485	0.65756	-0.086
Mof_C 	C 	0.7311	0.94244	0.61359	0.181
Mof_C 	C 	0.7657	0.97822	0.63855	-0.255
Mof_C 	C 	0.7326	0.03971	0.64021	0.176
Mof_C 	C 	0.6598	0.0665	0.61775	-0.29
Mof_C 	C 	0.623	0.03241	0.59271	0.159
Mof_C 	C 	0.6589	0.97013	0.59098	-0.25
Mof_C 	C 	0.6159	0.1334	0.61975	0.474
Mof_C 	C 	0.0587	0.75667	0.5194	0.233
Mof_C 	C 	0.9999	0.7468	0.49207	-0.313
Mof_C 	C 	0.0646	0.7571	0.46673	0.259
Mof_C 	C 	0.1854	0.7782	0.46913	-0.37
Mof_C 	C 	0.2422	0.7886	0.49706	0.24
Mof_C 	C 	0.1776	0.777	0.52194	-0.309
Mof_C 	C 	0.2487	0.7919	0.4416	0.684
Mof_C 	C 	0.011	0.50646	0.61633	0.185
Mof_C 	C 	0.9467	0.46011	0.60146	-0.263
Mof_C 	C 	0.9864	0.397	0.60392	0.216
Mof_C 	C 	0.0903	0.38516	0.62066	-0.309
Mof_C 	C 	0.158	0.43045	0.63652	0.184
Mof_C 	C 	0.116	0.4908	0.63395	-0.267
Mof_C 	C 	0.1405	0.31801	0.62382	0.585
Mof_C 	C 	0.6891	0.69325	0.71053	0.186
Mof_C 	C 	0.7261	0.73688	0.73265	-0.252
Mof_C 	C 	0.6911	0.72806	0.76145	0.195
Mof_C 	C 	0.6229	0.67741	0.76835	-0.274
Mof_C 	C 	0.5867	0.6342	0.74631	0.18
Mof_C 	C 	0.6234	0.64219	0.71811	-0.259
Mof_C 	C 	0.591	0.6696	0.79965	0.569
Mof_N 	N 	0.8188	0.71948	0.16017	-0.298
Mof_N 	N 	0.9249	0.7	0.10389	-0.294
Mof_N 	N 	0.0101	0.82694	0.10457	-0.3
Mof_N 	N 	0.8872	0.8481	0.15926	-0.301
Mof_N 	N 	0.3777	0.70248	0.0852	-0.29
Mof_N 	N 	0.4446	0.83227	0.0844	-0.294
Mof_N 	N 	0.3507	0.84843	0.14214	-0.294
Mof_N 	N 	0.2621	0.72276	0.14034	-0.295
Mof_N 	N 	0.6812	0.21948	0.33983	-0.298
Mof_N 	N 	0.5751	0.2	0.39611	-0.294
Mof_N 	N 	0.4899	0.32694	0.39543	-0.302
Mof_N 	N 	0.6128	0.3481	0.34074	-0.301
Mof_N 	N 	0.1223	0.20248	0.4148	-0.289
Mof_N 	N 	0.0554	0.33227	0.4156	-0.294
Mof_N 	N 	0.1493	0.34843	0.35786	-0.294
Mof_N 	N 	0.2379	0.22276	0.35966	-0.295
Mof_N 	N 	0.1812	0.28052	0.83983	-0.298
Mof_N 	N 	0.0751	0.3	0.89611	-0.294
Mof_N 	N 	0.9899	0.17306	0.89543	-0.3
Mof_N 	N 	0.1128	0.1519	0.84074	-0.301
Mof_N 	N 	0.6223	0.29752	0.9148	-0.29
Mof_N 	N 	0.5554	0.16773	0.9156	-0.294
Mof_N 	N 	0.6493	0.15157	0.85786	-0.294
Mof_N 	N 	0.7379	0.27724	0.85966	-0.295
Mof_N 	N 	0.3188	0.78052	0.66017	-0.298
Mof_N 	N 	0.4249	0.8	0.60389	-0.294
Mof_N 	N 	0.5101	0.67306	0.60457	-0.302
Mof_N 	N 	0.3872	0.6519	0.65926	-0.301
Mof_N 	N 	0.8777	0.79752	0.5852	-0.289
Mof_N 	N 	0.9446	0.66773	0.5844	-0.294
Mof_N 	N 	0.8507	0.65157	0.64214	-0.294
Mof_N 	N 	0.7621	0.77724	0.64034	-0.295
Mof_O 	O 	0.5967	0.81789	0.33209	-0.95
Mof_O 	O 	0.4233	0.8386	0.30497	-0.497
Mof_O 	O 	0.5218	0.36026	0.13762	-0.9
Mof_O 	O 	0.6806	0.33004	0.11265	-0.819
Mof_O 	O 	0.1642	0.75284	0.92652	-0.835
Mof_O 	O 	0.2635	0.66661	0.94323	-0.435
Mof_O 	O 	0.2672	0.19296	0.1363	-0.994
Mof_O 	O 	0.0741	0.2232	0.13284	-0.982
Mof_O 	O 	0.166	0.3338	0.1404	-0.733
Mof_O 	O 	0.031	0.34696	0.10188	-0.697
Mof_O 	O 	0.7012	0.70876	0.91729	-0.954
Mof_O 	O 	0.8681	0.69019	0.94748	-0.483
Mof_O 	O 	0.5642	0.22394	0.11231	-0.776
Mof_O 	O 	0.7438	0.19171	0.13507	-0.829
Mof_O 	O 	0.1164	0.79106	0.31827	-0.863
Mof_O 	O 	0.0307	0.88179	0.30605	-0.446
Mof_O 	O 	0.9033	0.31789	0.16791	-0.945
Mof_O 	O 	0.0767	0.3386	0.19503	-0.489
Mof_O 	O 	0.9782	0.86026	0.36238	-0.902
Mof_O 	O 	0.8194	0.83004	0.38735	-0.821
Mof_O 	O 	0.3358	0.25284	0.57348	-0.836
Mof_O 	O 	0.2365	0.16661	0.55677	-0.435
Mof_O 	O 	0.2328	0.69296	0.3637	-0.998
Mof_O 	O 	0.4259	0.7232	0.36716	-0.99
Mof_O 	O 	0.334	0.8338	0.3596	-0.734
Mof_O 	O 	0.469	0.84696	0.39812	-0.701
Mof_O 	O 	0.7988	0.20876	0.58271	-0.954
Mof_O 	O 	0.6319	0.19019	0.55252	-0.483
Mof_O 	O 	0.9358	0.72394	0.38769	-0.777
Mof_O 	O 	0.7562	0.69171	0.36493	-0.831
Mof_O 	O 	0.3836	0.29106	0.18173	-0.863
Mof_O 	O 	0.4693	0.38179	0.19395	-0.447
Mof_O 	O 	0.4033	0.18211	0.66791	-0.95
Mof_O 	O 	0.5767	0.1614	0.69503	-0.497
Mof_O 	O 	0.4782	0.63974	0.86238	-0.9
Mof_O 	O 	0.3194	0.66996	0.88735	-0.819
Mof_O 	O 	0.8358	0.24716	0.07348	-0.835
Mof_O 	O 	0.7365	0.33339	0.05677	-0.435
Mof_O 	O 	0.7328	0.80704	0.8637	-0.994
Mof_O 	O 	0.9259	0.7768	0.86716	-0.982
Mof_O 	O 	0.834	0.6662	0.8596	-0.733
Mof_O 	O 	0.969	0.65304	0.89812	-0.697
Mof_O 	O 	0.2988	0.29124	0.08271	-0.954
Mof_O 	O 	0.1319	0.30981	0.05252	-0.483
Mof_O 	O 	0.4358	0.77606	0.88769	-0.776
Mof_O 	O 	0.2562	0.80829	0.86493	-0.829
Mof_O 	O 	0.8836	0.20894	0.68173	-0.863
Mof_O 	O 	0.9693	0.11821	0.69395	-0.446
Mof_O 	O 	0.0967	0.68211	0.83209	-0.945
Mof_O 	O 	0.9233	0.6614	0.80497	-0.489
Mof_O 	O 	0.0218	0.13974	0.63762	-0.902
Mof_O 	O 	0.1806	0.16996	0.61265	-0.821
Mof_O 	O 	0.6642	0.74716	0.42652	-0.836
Mof_O 	O 	0.7635	0.83339	0.44323	-0.435
Mof_O 	O 	0.7672	0.30704	0.6363	-0.998
Mof_O 	O 	0.5741	0.2768	0.63284	-0.99
Mof_O 	O 	0.666	0.1662	0.6404	-0.734
Mof_O 	O 	0.531	0.15304	0.60188	-0.701
Mof_O 	O 	0.2012	0.79124	0.41729	-0.954
Mof_O 	O 	0.3681	0.80981	0.44748	-0.483
Mof_O 	O 	0.0642	0.27606	0.61231	-0.777
Mof_O 	O 	0.2438	0.30829	0.63507	-0.831
Mof_O 	O 	0.6164	0.70894	0.81827	-0.863
Mof_O 	O 	0.5307	0.61821	0.80605	-0.447
_end
