data_functionalizedCrystal
_audit_creation_method	'EQeq! by Chris Wilmer'
_symmetry_space_group_name_H-M	'P1'
_symmetry_Int_Tables_number	1
_symmetry_cell_setting	triclinic
loop_
_symmetry_equiv_pos_as_xyz
  x,y,z
_cell_length_a	9.8457
_cell_length_b	19.4937
_cell_length_c	16.7455
_cell_angle_alpha	90
_cell_angle_beta	94.348
_cell_angle_gamma	90
loop_
_atom_site_label
_atom_site_type_symbol
_atom_site_fract_x
_atom_site_fract_y
_atom_site_fract_z
_atom_site_charge
Mof_N 	N 	0.445	0.08905	0.4142	-0.194
Mof_N 	N 	0.9454	0.4134	0.9122	-0.157
Mof_O 	O 	0.1441	0.42745	0.0582	-0.391
Mof_O 	O 	0.3523	0.47094	0.08453	-0.379
Mof_O 	O 	0.6354	0.07037	0.56497	-0.379
Mof_O 	O 	0.8498	0.03341	0.58026	-0.373
Mof_C 	C 	0.2621	0.4267	0.0913	0.38
Mof_C 	C 	0.2968	0.3667	0.1462	-0.144
Mof_C 	C 	0.2556	0.301	0.1264	0.045
Mof_H 	H 	0.2056	0.2932	0.0779	-0.003
Mof_C 	C 	0.2869	0.2464	0.177	-0.121
Mof_H 	H 	0.2609	0.2023	0.1611	0.052
Mof_C 	C 	0.3563	0.2562	0.2511	0.029
Mof_C 	C 	0.3966	0.3231	0.2716	-0.116
Mof_H 	H 	0.4419	0.3315	0.3214	0.069
Mof_C 	C 	0.3702	0.3766	0.2193	0.051
Mof_H 	H 	0.4022	0.4203	0.2331	0.02
Mof_C 	C 	0.4267	0.0794	0.3354	0.092
Mof_H 	H 	0.4333	0.0349	0.3159	-0.022
Mof_C 	C 	0.3984	0.1316	0.2813	-0.159
Mof_H 	H 	0.3874	0.1219	0.2269	0.067
Mof_C 	C 	0.3862	0.1984	0.3076	0.064
Mof_C 	C 	0.4038	0.2084	0.3898	-0.153
Mof_H 	H 	0.3954	0.2521	0.4111	0.08
Mof_C 	C 	0.4338	0.1532	0.4398	0.093
Mof_H 	H 	0.447	0.1614	0.4945	0.002
Mof_C 	C 	0.7562	0.0746	0.5921	0.37
Mof_C 	C 	0.791	0.1356	0.6459	-0.075
Mof_C 	C 	0.6923	0.1817	0.6637	-0.012
Mof_H 	H 	0.6035	0.1758	0.6417	0.05
Mof_C 	C 	0.7232	0.2367	0.7142	-0.041
Mof_H 	H 	0.6549	0.2675	0.7253	0.046
Mof_C 	C 	0.8535	0.2466	0.7483	-0.045
Mof_C 	C 	0.9529	0.2017	0.7276	0.026
Mof_H 	H 	0.0422	0.2085	0.7482	0.004
Mof_C 	C 	0.9231	0.1466	0.6767	-0.04
Mof_H 	H 	0.9922	0.1172	0.6634	0.072
Mof_C 	C 	0.8187	0.3922	0.8945	0.133
Mof_H 	H 	0.7485	0.4145	0.9181	0.012
Mof_C 	C 	0.7861	0.3388	0.8429	-0.192
Mof_H 	H 	0.6957	0.3253	0.8337	0.106
Mof_C 	C 	0.8859	0.3049	0.8046	0.16
Mof_C 	C 	0.0174	0.3274	0.8236	-0.22
Mof_H 	H 	0.0894	0.3065	0.8002	0.106
Mof_C 	C 	0.0428	0.3806	0.8771	0.103
Mof_H 	H 	0.1327	0.394	0.8891	0.014
Mof_N 	N 	0.555	0.58905	0.0858	-0.194
Mof_N 	N 	0.0546	0.9134	0.5878	-0.177
Mof_O 	O 	0.8559	0.92745	0.4418	-0.32
Mof_O 	O 	0.6477	0.97094	0.41547	-0.321
Mof_O 	O 	0.3646	0.57037	0.93503	-0.341
Mof_O 	O 	0.1502	0.53341	0.91974	-0.346
Mof_C 	C 	0.7379	0.9267	0.4087	0.368
Mof_C 	C 	0.7032	0.8667	0.3538	-0.106
Mof_C 	C 	0.7444	0.801	0.3736	0.031
Mof_H 	H 	0.7944	0.7932	0.4221	0.031
Mof_C 	C 	0.7131	0.7464	0.323	-0.1
Mof_H 	H 	0.7391	0.7023	0.3389	0.064
Mof_C 	C 	0.6437	0.7562	0.2489	0.016
Mof_C 	C 	0.6034	0.8231	0.2284	-0.094
Mof_H 	H 	0.5581	0.8315	0.1786	0.06
Mof_C 	C 	0.6298	0.8766	0.2807	0.03
Mof_H 	H 	0.5978	0.9203	0.2669	0.04
Mof_C 	C 	0.5733	0.5794	0.1646	0.1
Mof_H 	H 	0.5667	0.5349	0.1841	0.003
Mof_C 	C 	0.6016	0.6316	0.2187	-0.163
Mof_H 	H 	0.6126	0.6219	0.2731	0.085
Mof_C 	C 	0.6138	0.6984	0.1924	0.075
Mof_C 	C 	0.5962	0.7084	0.1102	-0.165
Mof_H 	H 	0.6046	0.7521	0.0889	0.077
Mof_C 	C 	0.5662	0.6532	0.0602	0.095
Mof_H 	H 	0.553	0.6614	0.0055	-0.025
Mof_C 	C 	0.2438	0.5746	0.9079	0.401
Mof_C 	C 	0.209	0.6356	0.8541	-0.159
Mof_C 	C 	0.3077	0.6817	0.8363	0.092
Mof_H 	H 	0.3965	0.6758	0.8583	0.024
Mof_C 	C 	0.2768	0.7367	0.7858	-0.158
Mof_H 	H 	0.3451	0.7675	0.7747	0.093
Mof_C 	C 	0.1465	0.7466	0.7517	0.107
Mof_C 	C 	0.0471	0.7017	0.7724	-0.221
Mof_H 	H 	0.9578	0.7085	0.7518	0.131
Mof_C 	C 	0.0769	0.6466	0.8233	0.115
Mof_H 	H 	0.0078	0.6172	0.8366	0.001
Mof_C 	C 	0.1813	0.8922	0.6055	0.077
Mof_H 	H 	0.2515	0.9145	0.5819	0.029
Mof_C 	C 	0.2139	0.8388	0.6571	-0.109
Mof_H 	H 	0.3043	0.8253	0.6663	0.074
Mof_C 	C 	0.1141	0.8049	0.6954	0.004
Mof_C 	C 	0.9826	0.8274	0.6764	-0.082
Mof_H 	H 	0.9106	0.8065	0.6998	0.068
Mof_C 	C 	0.9572	0.8806	0.6229	0.106
Mof_H 	H 	0.8673	0.894	0.6109	0.02
Mof_N 	N 	0.555	0.91095	0.5858	-0.171
Mof_N 	N 	0.0546	0.5866	0.0878	-0.203
Mof_O 	O 	0.8559	0.57255	0.9418	-0.312
Mof_O 	O 	0.6477	0.52906	0.91547	-0.335
Mof_O 	O 	0.3646	0.92963	0.43503	-0.35
Mof_O 	O 	0.1502	0.96659	0.41974	-0.336
Mof_C 	C 	0.7379	0.5733	0.9087	0.374
Mof_C 	C 	0.7032	0.6333	0.8538	-0.107
Mof_C 	C 	0.7444	0.699	0.8736	0.039
Mof_H 	H 	0.7944	0.7068	0.9221	0.048
Mof_C 	C 	0.7131	0.7536	0.823	-0.101
Mof_H 	H 	0.7391	0.7977	0.8389	0.078
Mof_C 	C 	0.6437	0.7438	0.7489	0.023
Mof_C 	C 	0.6034	0.6769	0.7284	-0.101
Mof_H 	H 	0.5581	0.6685	0.6786	0.063
Mof_C 	C 	0.6298	0.6234	0.7807	0.036
Mof_H 	H 	0.5978	0.5797	0.7669	0.027
Mof_C 	C 	0.5733	0.9206	0.6646	0.103
Mof_H 	H 	0.5667	0.9651	0.6841	0.03
Mof_C 	C 	0.6016	0.8684	0.7187	-0.155
Mof_H 	H 	0.6126	0.8781	0.7731	0.098
Mof_C 	C 	0.6138	0.8016	0.6924	0.074
Mof_C 	C 	0.5962	0.7916	0.6102	-0.156
Mof_H 	H 	0.6046	0.7479	0.5889	0.083
Mof_C 	C 	0.5662	0.8468	0.5602	0.096
Mof_H 	H 	0.553	0.8386	0.5055	0.003
Mof_C 	C 	0.2438	0.9254	0.4079	0.399
Mof_C 	C 	0.209	0.8644	0.3541	-0.163
Mof_C 	C 	0.3077	0.8183	0.3363	0.089
Mof_H 	H 	0.3965	0.8242	0.3583	0.016
Mof_C 	C 	0.2768	0.7633	0.2858	-0.163
Mof_H 	H 	0.3451	0.7325	0.2747	0.087
Mof_C 	C 	0.1465	0.7534	0.2517	0.102
Mof_C 	C 	0.0471	0.7983	0.2724	-0.225
Mof_H 	H 	0.9578	0.7915	0.2518	0.131
Mof_C 	C 	0.0769	0.8534	0.3233	0.112
Mof_H 	H 	0.0078	0.8828	0.3366	0.004
Mof_C 	C 	0.1813	0.6078	0.1055	0.07
Mof_H 	H 	0.2515	0.5855	0.0819	0.004
Mof_C 	C 	0.2139	0.6612	0.1571	-0.12
Mof_H 	H 	0.3043	0.6747	0.1663	0.071
Mof_C 	C 	0.1141	0.6951	0.1954	-0.002
Mof_C 	C 	0.9826	0.6726	0.1764	-0.089
Mof_H 	H 	0.9106	0.6935	0.1998	0.065
Mof_C 	C 	0.9572	0.6194	0.1229	0.099
Mof_H 	H 	0.8673	0.606	0.1109	0.003
Mof_N 	N 	0.445	0.41095	0.9142	-0.169
Mof_N 	N 	0.9454	0.0866	0.4122	-0.18
Mof_O 	O 	0.1441	0.07255	0.5582	-0.383
Mof_O 	O 	0.3523	0.02906	0.58453	-0.395
Mof_O 	O 	0.6354	0.42963	0.06497	-0.387
Mof_O 	O 	0.8498	0.46659	0.08026	-0.363
Mof_C 	C 	0.2621	0.0733	0.5913	0.387
Mof_C 	C 	0.2968	0.1333	0.6462	-0.145
Mof_C 	C 	0.2556	0.199	0.6264	0.053
Mof_H 	H 	0.2056	0.2068	0.5779	0.014
Mof_C 	C 	0.2869	0.2536	0.677	-0.123
Mof_H 	H 	0.2609	0.2977	0.6611	0.066
Mof_C 	C 	0.3563	0.2438	0.7511	0.037
Mof_C 	C 	0.3966	0.1769	0.7716	-0.123
Mof_H 	H 	0.4419	0.1685	0.8214	0.072
Mof_C 	C 	0.3702	0.1234	0.7193	0.057
Mof_H 	H 	0.4022	0.0797	0.7331	0.008
Mof_C 	C 	0.4267	0.4206	0.8354	0.094
Mof_H 	H 	0.4333	0.4651	0.8159	0.006
Mof_C 	C 	0.3984	0.3684	0.7813	-0.152
Mof_H 	H 	0.3874	0.3781	0.7269	0.079
Mof_C 	C 	0.3862	0.3016	0.8076	0.062
Mof_C 	C 	0.4038	0.2916	0.8898	-0.144
Mof_H 	H 	0.3954	0.2479	0.9111	0.086
Mof_C 	C 	0.4338	0.3468	0.9398	0.094
Mof_H 	H 	0.447	0.3386	0.9945	0.031
Mof_C 	C 	0.7562	0.4254	0.0921	0.366
Mof_C 	C 	0.791	0.3644	0.1459	-0.076
Mof_C 	C 	0.6923	0.3183	0.1637	-0.018
Mof_H 	H 	0.6035	0.3242	0.1417	0.042
Mof_C 	C 	0.7232	0.2633	0.2142	-0.042
Mof_H 	H 	0.6549	0.2325	0.2253	0.039
Mof_C 	C 	0.8535	0.2534	0.2483	-0.054
Mof_C 	C 	0.9529	0.2983	0.2276	0.03
Mof_H 	H 	0.0422	0.2915	0.2482	0.001
Mof_C 	C 	0.9231	0.3534	0.1767	-0.047
Mof_H 	H 	0.9922	0.3828	0.1634	0.076
Mof_C 	C 	0.8187	0.1078	0.3945	0.127
Mof_H 	H 	0.7485	0.0855	0.4181	-0.013
Mof_C 	C 	0.7861	0.1612	0.3429	-0.205
Mof_H 	H 	0.6957	0.1747	0.3337	0.104
Mof_C 	C 	0.8859	0.1951	0.3046	0.16
Mof_C 	C 	0.0174	0.1726	0.3236	-0.232
Mof_H 	H 	0.0894	0.1935	0.3002	0.105
Mof_C 	C 	0.0428	0.1194	0.3771	0.094
Mof_H 	H 	0.1327	0.106	0.3891	-0.003
Mof_Mn	Mn	0.5	0	0.5	0.84
Mof_Mn	Mn	0.5	0.5	-0	0.836
Mof_Mn	Mn	-7.87704e-33	0.5	-0	0.791
Mof_Mn	Mn	8.86876e-18	0	0.5	0.793
_end
