data_functionalizedCrystal
_audit_creation_method	'EQeq! by Chris Wilmer'
_symmetry_space_group_name_H-M	'P1'
_symmetry_Int_Tables_number	1
_symmetry_cell_setting	triclinic
loop_
_symmetry_equiv_pos_as_xyz
  x,y,z
_cell_length_a	8.931
_cell_length_b	8.931
_cell_length_c	10.893
_cell_angle_alpha	90
_cell_angle_beta	90
_cell_angle_gamma	120
loop_
_atom_site_label
_atom_site_type_symbol
_atom_site_fract_x
_atom_site_fract_y
_atom_site_fract_z
_atom_site_charge
Mof_Ti	Ti	-2.48952e-17	0.5	0.16667	1.378
Mof_Ti	Ti	0.5	0	0.83333	1.383
Mof_Ti	Ti	0.5	0.5	0.5	1.438
Mof_C 	C 	0.30837	0.61674	0.33333	0.232
Mof_C 	C 	0.21025	0.4205	0.33333	0.286
Mof_C 	C 	0.30837	0.69163	-0	0.161
Mof_C 	C 	0.21025	0.78975	-0	0.207
Mof_C 	C 	0.38326	0.69163	0.66667	0.236
Mof_C 	C 	0.5795	0.78975	0.66667	0.286
Mof_C 	C 	0.69163	0.38326	0.33333	0.234
Mof_C 	C 	0.78975	0.5795	0.33333	0.283
Mof_C 	C 	0.69163	0.30837	-0	0.166
Mof_C 	C 	0.78975	0.21025	-0	0.222
Mof_C 	C 	0.61674	0.30837	0.66667	0.233
Mof_C 	C 	0.4205	0.21025	0.66667	0.289
Mof_O 	O 	0.23713	0.68651	0.27615	-0.311
Mof_O 	O 	0.07538	0.34811	0.27009	-0.381
Mof_O 	O 	0.44938	0.76287	0.94282	-0.233
Mof_O 	O 	0.27273	0.92462	0.93676	-0.284
Mof_O 	O 	0.31349	0.55062	0.60948	-0.313
Mof_O 	O 	0.65189	0.72727	0.60342	-0.366
Mof_O 	O 	0.76287	0.31349	0.27615	-0.307
Mof_O 	O 	0.92462	0.65189	0.27009	-0.35
Mof_O 	O 	0.55062	0.23713	0.94282	-0.25
Mof_O 	O 	0.72727	0.07538	0.93676	-0.319
Mof_O 	O 	0.68651	0.44938	0.60948	-0.306
Mof_O 	O 	0.34811	0.27273	0.60342	-0.375
Mof_O 	O 	0.55062	0.31349	0.39052	-0.32
Mof_O 	O 	0.72727	0.65189	0.39658	-0.369
Mof_O 	O 	0.68651	0.23713	0.72385	-0.302
Mof_O 	O 	0.34811	0.07538	0.72991	-0.38
Mof_O 	O 	0.76287	0.44938	0.05718	-0.301
Mof_O 	O 	0.92462	0.27273	0.06324	-0.35
Mof_O 	O 	0.44938	0.68651	0.39052	-0.312
Mof_O 	O 	0.27273	0.34811	0.39658	-0.377
Mof_O 	O 	0.31349	0.76287	0.72385	-0.298
Mof_O 	O 	0.65189	0.92462	0.72991	-0.348
Mof_O 	O 	0.23713	0.55062	0.05718	-0.312
Mof_O 	O 	0.07538	0.72727	0.06324	-0.371
Mof_H 	H 	0.89386	0.91389	0.88361	0.185
Mof_H 	H 	0.10614	0.08611	0.88361	0.149
Mof_H 	H 	0.97997	0.08611	0.78306	0.153
Mof_H 	H 	0.02003	0.91389	0.78306	0.153
Mof_N 	N 	-0	0	0.83333	-0.336
Mof_H 	H 	0.02003	0.10614	0.55028	0.131
Mof_H 	H 	0.97997	0.89386	0.55028	0.173
Mof_H 	H 	0.10614	0.02003	0.44972	0.13
Mof_H 	H 	0.89386	0.97997	0.44972	0.172
Mof_N 	N 	-8.38711e-33	-8.38711e-33	0.5	-0.335
Mof_H 	H 	0.08611	0.97997	0.21694	0.144
Mof_H 	H 	0.91389	0.02003	0.21694	0.142
Mof_H 	H 	0.91389	0.89386	0.11639	0.151
Mof_H 	H 	0.08611	0.10614	0.11639	0.115
Mof_N 	N 	-0	0	0.16667	-0.326
_end
