data_functionalizedCrystal
_audit_creation_method	'EQeq! by Chris Wilmer'
_symmetry_space_group_name_H-M	'P1'
_symmetry_Int_Tables_number	1
_symmetry_cell_setting	triclinic
loop_
_symmetry_equiv_pos_as_xyz
  x,y,z
_cell_length_a	10.248
_cell_length_b	11.715
_cell_length_c	15.159
_cell_angle_alpha	91.81
_cell_angle_beta	90
_cell_angle_gamma	90
loop_
_atom_site_label
_atom_site_type_symbol
_atom_site_fract_x
_atom_site_fract_y
_atom_site_fract_z
_atom_site_charge
Mof_Mn	Mn	0.92306	0.24309	0.86786	1.113
Mof_Mn	Mn	0.11206	0.26155	0.69035	0.986
Mof_Mn	Mn	0.42306	0.25691	0.63214	1.006
Mof_Mn	Mn	0.61206	0.23845	0.80965	1.025
Mof_Mn	Mn	0.07694	0.75691	0.13214	0.91
Mof_Mn	Mn	0.88794	0.73845	0.30965	1.082
Mof_Mn	Mn	0.57694	0.74309	0.36786	1.027
Mof_Mn	Mn	0.38794	0.76155	0.19035	1.043
Mof_Mn	Mn	-0	0.5	-0	0.819
Mof_Mn	Mn	0.5	0	0.5	0.985
Mof_Mn	Mn	-0	0	-0	0.748
Mof_Mn	Mn	0.5	0.5	0.5	1.063
Mof_H 	H 	0.0429	0.5193	0.7426	-0.129
Mof_H 	H 	0.7109	0.0002	0.9738	-0.091
Mof_H 	H 	0.2072	0.0322	0.782	-0.108
Mof_H 	H 	0.7646	0.1483	0.6324	-0.127
Mof_H 	H 	0.1381	0.3023	0.0786	-0.086
Mof_H 	H 	0.6253	0.4469	0.9458	-0.089
Mof_H 	H 	0.5429	0.9807	0.7574	-0.005
Mof_H 	H 	0.2109	0.4998	0.5262	-0.124
Mof_H 	H 	0.7072	0.4678	0.718	-0.122
Mof_H 	H 	0.2646	0.3517	0.8676	-0.103
Mof_H 	H 	0.6381	0.1977	0.4214	-0.123
Mof_H 	H 	0.1253	0.0531	0.5542	-0.15
Mof_H 	H 	0.9571	0.4807	0.2574	-0.105
Mof_H 	H 	0.2891	0.9998	0.0262	-0.108
Mof_H 	H 	0.7928	0.9678	0.218	-0.139
Mof_H 	H 	0.2354	0.8517	0.3676	-0.121
Mof_H 	H 	0.8619	0.6977	0.9214	-0.104
Mof_H 	H 	0.3747	0.5531	0.0542	-0.132
Mof_H 	H 	0.4571	0.0193	0.2426	-0.239
Mof_H 	H 	0.7891	0.5002	0.4738	-0.104
Mof_H 	H 	0.2928	0.5322	0.282	-0.15
Mof_H 	H 	0.7354	0.6483	0.1324	-0.137
Mof_H 	H 	0.3619	0.8023	0.5786	-0.109
Mof_H 	H 	0.8747	0.9469	0.4458	-0.081
Mof_C 	C 	0.0242	0.4796	0.7941	0.537
Mof_C 	C 	0.7276	0.0625	0.9378	0.497
Mof_C 	C 	0.141	0.0562	0.8213	0.414
Mof_C 	C 	0.8319	0.1765	0.6691	0.512
Mof_C 	C 	0.0909	0.2582	0.0367	0.365
Mof_C 	C 	0.7142	0.4276	0.9417	0.493
Mof_C 	C 	0.5242	0.0204	0.7059	0.322
Mof_C 	C 	0.2276	0.4375	0.5622	0.525
Mof_C 	C 	0.641	0.4438	0.6787	0.536
Mof_C 	C 	0.3319	0.3235	0.8309	0.507
Mof_C 	C 	0.5909	0.2418	0.4633	0.54
Mof_C 	C 	0.2142	0.0724	0.5583	0.521
Mof_C 	C 	0.9758	0.5204	0.2059	0.521
Mof_C 	C 	0.2724	0.9375	0.0622	0.505
Mof_C 	C 	0.859	0.9438	0.1787	0.596
Mof_C 	C 	0.1681	0.8235	0.3309	0.521
Mof_C 	C 	0.9091	0.7418	0.9633	0.598
Mof_C 	C 	0.2858	0.5724	0.0583	0.506
Mof_C 	C 	0.4758	0.9796	0.2941	0.763
Mof_C 	C 	0.7724	0.5625	0.4378	0.519
Mof_C 	C 	0.359	0.5562	0.3213	0.542
Mof_C 	C 	0.6681	0.6765	0.1691	0.525
Mof_C 	C 	0.4091	0.7582	0.5367	0.532
Mof_C 	C 	0.7858	0.9276	0.4417	0.503
Mof_O 	O 	0.0845	0.1496	0.80496	-0.497
Mof_O 	O 	0.0118	0.3724	0.78529	-0.534
Mof_O 	O 	0.8045	0.1939	0.75047	-0.488
Mof_O 	O 	0.0254	0.3125	0.98059	-0.408
Mof_O 	O 	0.7446	0.344	0.88975	-0.481
Mof_O 	O 	0.9386	0.1933	0.63431	-0.381
Mof_O 	O 	0.8446	0.098	0.93512	-0.435
Mof_O 	O 	0.7912	0.4852	0.987	-0.322
Mof_O 	O 	0.6338	0.1018	0.89787	-0.41
Mof_O 	O 	0.0989	0.1546	0.0419	-0.412
Mof_O 	O 	0.0144	0.5365	0.86213	-0.401
Mof_O 	O 	0.1182	0.994	0.8828	-0.291
Mof_O 	O 	0.5845	0.3504	0.69504	-0.502
Mof_O 	O 	0.5118	0.1276	0.71471	-0.455
Mof_O 	O 	0.3045	0.3061	0.74953	-0.482
Mof_O 	O 	0.5254	0.1875	0.51941	-0.504
Mof_O 	O 	0.2446	0.156	0.61025	-0.508
Mof_O 	O 	0.4386	0.3067	0.86569	-0.402
Mof_O 	O 	0.3446	0.402	0.56488	-0.503
Mof_O 	O 	0.2912	0.0148	0.513	-0.436
Mof_O 	O 	0.1338	0.3982	0.60213	-0.432
Mof_O 	O 	0.5989	0.3454	0.4581	-0.43
Mof_O 	O 	0.5144	0.9635	0.63787	-0.31
Mof_O 	O 	0.6182	0.506	0.6172	-0.418
Mof_O 	O 	0.9155	0.8504	0.19504	-0.48
Mof_O 	O 	0.9882	0.6276	0.21471	-0.462
Mof_O 	O 	0.1955	0.8061	0.24953	-0.494
Mof_O 	O 	0.9746	0.6875	0.01941	-0.486
Mof_O 	O 	0.2554	0.656	0.11025	-0.504
Mof_O 	O 	0.0614	0.8067	0.36569	-0.461
Mof_O 	O 	0.1554	0.902	0.06488	-0.479
Mof_O 	O 	0.2088	0.5148	0.013	-0.43
Mof_O 	O 	0.3662	0.8982	0.10213	-0.411
Mof_O 	O 	0.9011	0.8454	0.9581	-0.327
Mof_O 	O 	0.9856	0.4635	0.13787	-0.37
Mof_O 	O 	0.8818	0.006	0.1172	-0.436
Mof_O 	O 	0.4155	0.6496	0.30496	-0.51
Mof_O 	O 	0.4882	0.8724	0.28529	-0.56
Mof_O 	O 	0.6955	0.6939	0.25047	-0.499
Mof_O 	O 	0.4746	0.8125	0.48059	-0.487
Mof_O 	O 	0.7554	0.844	0.38975	-0.489
Mof_O 	O 	0.5614	0.6933	0.13431	-0.435
Mof_O 	O 	0.6554	0.598	0.43512	-0.501
Mof_O 	O 	0.7088	0.9852	0.487	-0.365
Mof_O 	O 	0.8662	0.6018	0.39787	-0.404
Mof_O 	O 	0.4011	0.6546	0.5419	-0.426
Mof_O 	O 	0.4856	0.0365	0.36213	-0.526
Mof_O 	O 	0.3818	0.494	0.3828	-0.437
_end
