# CIF file generated by openbabel 3.1.0, see https://openbabel.org
data_I
_chemical_name_common 'image0'
_cell_length_a 12.1479
_cell_length_b 13.0321
_cell_length_c 13.1281
_cell_angle_alpha 64.689
_cell_angle_beta 89.711
_cell_angle_gamma 64.509
_space_group_name_H-M_alt 'P 1'
_space_group_name_Hall 'P 1'
loop_
    _symmetry_equiv_pos_as_xyz
    x,y,z
loop_
    _atom_site_label
    _atom_site_type_symbol
    _atom_site_fract_x
    _atom_site_fract_y
    _atom_site_fract_z
    _atom_site_occupancy
    Cu1      Cu       0.79560    0.51870    0.71180    1.000
    Cu2      Cu       0.93470    0.37310    0.39000    1.000
    N1       N        0.66700    0.63900    0.75300    1.000
    N2       N        0.62700    0.38200    0.95600    1.000
    N3       N        0.79100    0.51800    0.39100    1.000
    N4       N        0.99800    0.33400    0.54200    1.000
    N5       N        0.80900    0.20200    0.19000    1.000
    H1       H        0.87780    0.20500    0.18080    1.000
    H2       H        0.73860    0.27050    0.15190    1.000
    N6       N        0.68200    0.27200    0.48500    1.000
    O1       O        0.88600    0.61700    0.67800    1.000
    O2       O        0.91400    0.78200    0.61100    1.000
    O3       O        0.52900    0.63300    0.87680    1.000
    O4       O        0.75000    0.39300    0.82000    1.000
    O5       O        0.84800    0.38300    0.26200    1.000
    O6       O        0.69200    0.45300    0.13000    1.000
    O7       O        0.71600    0.58300    0.52800    1.000
    O8       O        0.93000    0.39000    0.68300    1.000
    O9       O        0.87000    0.10800    0.49500    1.000
    C1       C        0.71400    0.82000    0.65300    1.000
    C2       C        0.67700    0.94700    0.60500    1.000
    H3       H        0.73380    0.97630    0.57540    1.000
    C3       C        0.55800    0.03600    0.60000    1.000
    H4       H        0.53380    0.12410    0.56380    1.000
    C4       C        0.47800    0.99200    0.64800    1.000
    H5       H        0.39920    0.05020    0.64770    1.000
    C5       C        0.51200    0.86400    0.69800    1.000
    H6       H        0.45510    0.83690    0.72990    1.000
    C6       C        0.63000    0.77300    0.70200    1.000
    C7       C        0.61600    0.58300    0.83100    1.000
    C8       C        0.66900    0.44000    0.87100    1.000
    C9       C        0.69400    0.24100    0.01300    1.000
    H7       H        0.70240    0.21140    0.95580    1.000
    H8       H        0.64700    0.20700    0.06510    1.000
    C10      C        0.82400    0.19100    0.08200    1.000
    H9       H        0.87670    0.10140    0.10050    1.000
    H10      H        0.86300    0.24090    0.03620    1.000
    C11      C        0.84300    0.73200    0.65000    1.000
    C12      C        0.67400    0.59900    0.20000    1.000
    C13      C        0.58300    0.70400    0.10000    1.000
    H11      H        0.56910    0.69030    0.03810    1.000
    C14      C        0.51500    0.82100    0.09000    1.000
    H12      H        0.45630    0.88820    0.02300    1.000
    C15      C        0.53500    0.84200    0.18500    1.000
    H13      H        0.49080    0.92340    0.17940    1.000
    C16      C        0.62000    0.74200    0.28400    1.000
    H14      H        0.62880    0.75490    0.34680    1.000
    C17      C        0.69500    0.62000    0.29200    1.000
    C18      C        0.79300    0.51400    0.49400    1.000
    C19      C        0.91700    0.40300    0.58000    1.000
    C20      C        0.11700    0.23300    0.61900    1.000
    H15      H        0.13200    0.25290    0.67900    1.000
    H16      H        0.18260    0.23120    0.57600    1.000
    N7       N        0.22800    0.02700    0.76200    1.000
    H17      H        0.22700    0.96920    0.82580    1.000
    H18      H        0.29260    0.03800    0.75370    1.000
    C21      C        0.12500    0.10400    0.67300    1.000
    H19      H        0.04730    0.10990    0.69670    1.000
    H20      H        0.13490    0.07430    0.61570    1.000
    C22      C        0.74400    0.47000    0.19800    1.000
    C23      C        0.75400    0.20900    0.42700    1.000
    H21      H        0.76600    0.27110    0.35990    1.000
    H22      H        0.70920    0.17640    0.40050    1.000
    C24      C        0.56600    0.38700    0.40500    1.000
    H23      H        0.51670    0.42890    0.44630    1.000
    H24      H        0.51840    0.36020    0.37260    1.000
    H25      H        0.58580    0.44520    0.34380    1.000
    C25      C        0.70900    0.24900    0.58500    1.000
    H26      H        0.78570    0.16980    0.62450    1.000
    H27      H        0.64330    0.23990    0.62350    1.000
    H28      H        0.71800    0.31780    0.58620    1.000
    Na1      Na       0.98100    0.10700    0.34410    1.000
    H29      H        0.17110    0.06010    0.63090    1.000
    H30      H        0.17670    0.05730    0.75040    1.000
    H31      H        0.02150    0.02640    0.75020    1.000
    H32      H        0.95500    0.12980    0.62990    1.000
    N8       N        0.02000    0.08500    0.68500    1.000
    Cu3      Cu       0.20440    0.48130    0.28820    1.000
    Cu4      Cu       0.06530    0.62690    0.61000    1.000
    N9       N        0.33300    0.36100    0.24700    1.000
    N10      N        0.37300    0.61800    0.04400    1.000
    N11      N        0.20900    0.48200    0.60900    1.000
    N12      N        0.00200    0.66600    0.45800    1.000
    N13      N        0.19100    0.79800    0.81000    1.000
    H33      H        0.12220    0.79500    0.81920    1.000
    H34      H        0.26140    0.72950    0.84810    1.000
    N14      N        0.31800    0.72800    0.51500    1.000
    O10      O        0.11400    0.38300    0.32200    1.000
    O11      O        0.08600    0.21800    0.38900    1.000
    O12      O        0.47100    0.36700    0.12320    1.000
    O13      O        0.25000    0.60700    0.18000    1.000
    O14      O        0.15200    0.61700    0.73800    1.000
    O15      O        0.30800    0.54700    0.87000    1.000
    O16      O        0.28400    0.41700    0.47200    1.000
    O17      O        0.07000    0.61000    0.31700    1.000
    O18      O        0.13000    0.89200    0.50500    1.000
    C26      C        0.28600    0.18000    0.34700    1.000
    C27      C        0.32300    0.05300    0.39500    1.000
    H35      H        0.26620    0.02370    0.42460    1.000
    C28      C        0.44200    0.96400    0.40000    1.000
    H36      H        0.46620    0.87590    0.43620    1.000
    C29      C        0.52200    0.00800    0.35200    1.000
    H37      H        0.60080    0.94980    0.35230    1.000
    C30      C        0.48800    0.13600    0.30200    1.000
    H38      H        0.54490    0.16310    0.27010    1.000
    C31      C        0.37000    0.22700    0.29800    1.000
    C32      C        0.38400    0.41700    0.16900    1.000
    C33      C        0.33100    0.56000    0.12900    1.000
    C34      C        0.30600    0.75900    0.98700    1.000
    H39      H        0.29760    0.78860    0.04420    1.000
    H40      H        0.35300    0.79300    0.93490    1.000
    C35      C        0.17600    0.80900    0.91800    1.000
    H41      H        0.12330    0.89860    0.89950    1.000
    H42      H        0.13700    0.75910    0.96380    1.000
    C36      C        0.15700    0.26800    0.35000    1.000
    C37      C        0.32600    0.40100    0.80000    1.000
    C38      C        0.41700    0.29600    0.90000    1.000
    H43      H        0.43090    0.30970    0.96190    1.000
    C39      C        0.48500    0.17900    0.91000    1.000
    H44      H        0.54370    0.11180    0.97700    1.000
    C40      C        0.46500    0.15800    0.81500    1.000
    H45      H        0.50920    0.07660    0.82060    1.000
    C41      C        0.38000    0.25800    0.71600    1.000
    H46      H        0.37120    0.24510    0.65320    1.000
    C42      C        0.30500    0.38000    0.70800    1.000
    C43      C        0.20700    0.48600    0.50600    1.000
    C44      C        0.08300    0.59700    0.42000    1.000
    C45      C        0.88300    0.76700    0.38100    1.000
    H47      H        0.86800    0.74710    0.32100    1.000
    H48      H        0.81740    0.76880    0.42400    1.000
    N15      N        0.77200    0.97300    0.23800    1.000
    H49      H        0.77300    0.03080    0.17420    1.000
    H50      H        0.70740    0.96200    0.24630    1.000
    C46      C        0.87500    0.89600    0.32700    1.000
    H51      H        0.95270    0.89010    0.30330    1.000
    H52      H        0.86510    0.92570    0.38430    1.000
    C47      C        0.25600    0.53000    0.80200    1.000
    C48      C        0.24600    0.79100    0.57300    1.000
    H53      H        0.23400    0.72890    0.64010    1.000
    H54      H        0.29080    0.82360    0.59950    1.000
    C49      C        0.43400    0.61300    0.59500    1.000
    H55      H        0.48330    0.57110    0.55370    1.000
    H56      H        0.48160    0.63980    0.62740    1.000
    H57      H        0.41420    0.55480    0.65620    1.000
    C50      C        0.29100    0.75100    0.41500    1.000
    H58      H        0.21430    0.83020    0.37550    1.000
    H59      H        0.35670    0.76010    0.37650    1.000
    H60      H        0.28200    0.68220    0.41380    1.000
    Na2      Na       0.01900    0.89300    0.65590    1.000
    H61      H        0.82890    0.93990    0.36910    1.000
    H62      H        0.82330    0.94270    0.24960    1.000
    H63      H        0.97850    0.97360    0.24980    1.000
    H64      H        0.04500    0.87020    0.37010    1.000
    N16      N        0.98000    0.91500    0.31500    1.000
    Cu5      Cu       0.50000    0.50000    0.00000    1.000
