data_functionalizedCrystal
_audit_creation_method	'EQeq! by Chris Wilmer'
_symmetry_space_group_name_H-M	'P1'
_symmetry_Int_Tables_number	1
_symmetry_cell_setting	triclinic
loop_
_symmetry_equiv_pos_as_xyz
  x,y,z
_cell_length_a	31.215
_cell_length_b	31.215
_cell_length_c	31.215
_cell_angle_alpha	109.471
_cell_angle_beta	109.471
_cell_angle_gamma	109.471
loop_
_atom_site_label
_atom_site_type_symbol
_atom_site_fract_x
_atom_site_fract_y
_atom_site_fract_z
_atom_site_charge
Mof_Zn	Zn	0.25	0.85928	0.60928	1.244
Mof_Zn	Zn	0.75	0.64072	0.89072	1.242
Mof_Zn	Zn	0.39072	0.75	0.14072	1.244
Mof_Zn	Zn	0.10928	0.25	0.35928	1.242
Mof_Zn	Zn	0.64072	0.39072	0.25	1.245
Mof_Zn	Zn	0.85928	0.10928	0.75	1.243
Mof_Zn	Zn	0.64072	0.25	0.89072	1.243
Mof_Zn	Zn	0.85928	0.75	0.60928	1.245
Mof_Zn	Zn	0.75	0.10928	0.35928	1.243
Mof_Zn	Zn	0.25	0.39072	0.14072	1.245
Mof_Zn	Zn	0.10928	0.85928	0.25	1.243
Mof_Zn	Zn	0.39072	0.64072	0.75	1.244
Mof_Zn	Zn	0.00131	0.75131	0.50262	1.231
Mof_Zn	Zn	0.74869	0.49869	0.99738	1.231
Mof_Zn	Zn	0.75131	0.74869	0.75	1.24
Mof_Zn	Zn	0.49869	0.00131	0.75	1.231
Mof_Zn	Zn	0.25	0.75131	0.24869	1.24
Mof_Zn	Zn	0.25	0.49869	0.50131	1.24
Mof_Zn	Zn	0.00262	0.00131	0.25131	1.223
Mof_Zn	Zn	0.49738	0.74869	0.99869	1.23
Mof_Zn	Zn	0.49869	0.49738	0.24869	1.24
Mof_Zn	Zn	0.75131	0.00262	0.50131	1.232
Mof_Zn	Zn	0.00131	0.25	0.99869	1.221
Mof_Zn	Zn	0.74869	0.25	0.25131	1.24
Mof_H 	H 	0.1138	0.9962	0.5258	0.156
Mof_H 	H 	0.3555	0.8483	0.4128	0.103
Mof_H 	H 	0.3566	0.8948	0.5502	0.12
Mof_H 	H 	0.0218	0.923	0.5466	0.096
Mof_H 	H 	0.4316	0.9261	0.5507	0.153
Mof_H 	H 	0.1685	0.9707	0.5724	0.111
Mof_H 	H 	0.0958	0.8484	0.585	0.076
Mof_H 	H 	0.2199	0.8003	0.4138	0.087
Mof_H 	H 	0.9704	0.588	0.9742	0.154
Mof_H 	H 	0.9355	0.9427	0.0872	0.14
Mof_H 	H 	0.8446	0.8064	0.9498	0.169
Mof_H 	H 	0.8764	0.4752	0.9534	0.09
Mof_H 	H 	0.8754	0.8809	0.9493	0.153
Mof_H 	H 	0.8983	0.5961	0.9276	0.105
Mof_H 	H 	0.7634	0.5108	0.915	0.071
Mof_H 	H 	0.8865	0.8061	0.0862	0.121
Mof_H 	H 	0.5296	0.5038	0.6176	0.152
Mof_H 	H 	0.5645	0.6517	0.0072	0.149
Mof_H 	H 	0.6554	0.6052	0.9618	0.115
Mof_H 	H 	0.6236	0.577	0.5988	0.096
Mof_H 	H 	0.6246	0.5739	0.0055	0.158
Mof_H 	H 	0.6017	0.5293	0.6978	0.106
Mof_H 	H 	0.7366	0.6516	0.7474	0.073
Mof_H 	H 	0.6135	0.6997	0.9196	0.091
Mof_H 	H 	0.3862	0.912	0.8824	0.152
Mof_H 	H 	0.1445	0.5573	0.4928	0.101
Mof_H 	H 	0.1434	0.6936	0.5382	0.117
Mof_H 	H 	0.4782	0.0248	0.9012	0.097
Mof_H 	H 	0.0684	0.6191	0.4945	0.142
Mof_H 	H 	0.3315	0.9039	0.8022	0.105
Mof_H 	H 	0.4042	0.9892	0.7526	0.064
Mof_H 	H 	0.2801	0.6939	0.5804	0.087
Mof_H 	H 	0.1176	0.5296	0.0038	0.156
Mof_H 	H 	0.5072	0.5645	0.1517	0.103
Mof_H 	H 	0.4618	0.6554	0.1052	0.12
Mof_H 	H 	0.0988	0.6236	0.077	0.098
Mof_H 	H 	0.5055	0.6246	0.0739	0.154
Mof_H 	H 	0.1978	0.6017	0.0293	0.109
Mof_H 	H 	0.2474	0.7366	0.1516	0.074
Mof_H 	H 	0.4196	0.6135	0.1997	0.088
Mof_H 	H 	0.3824	0.3862	0.412	0.152
Mof_H 	H 	0.9928	0.1445	0.0573	0.15
Mof_H 	H 	0.0382	0.1434	0.1936	0.115
Mof_H 	H 	0.4012	0.4782	0.5248	0.095
Mof_H 	H 	0.9945	0.0684	0.1191	0.152
Mof_H 	H 	0.3022	0.3315	0.4039	0.105
Mof_H 	H 	0.2526	0.4042	0.4892	0.072
Mof_H 	H 	0.0804	0.2801	0.1939	0.092
Mof_H 	H 	0.0258	0.1138	0.4962	0.145
Mof_H 	H 	0.9128	0.3555	0.3483	0.127
Mof_H 	H 	0.0502	0.3566	0.3948	0.164
Mof_H 	H 	0.0466	0.0218	0.423	0.085
Mof_H 	H 	0.0507	0.4316	0.4261	0.151
Mof_H 	H 	0.0724	0.1685	0.4707	0.103
Mof_H 	H 	0.085	0.0958	0.3484	0.073
Mof_H 	H 	0.9138	0.2199	0.3003	0.116
Mof_H 	H 	0.4742	0.9704	0.088	0.163
Mof_H 	H 	0.5872	0.9355	0.4427	0.108
Mof_H 	H 	0.4498	0.8446	0.3064	0.12
Mof_H 	H 	0.4534	0.8764	0.9752	0.102
Mof_H 	H 	0.4493	0.8754	0.3809	0.149
Mof_H 	H 	0.4276	0.8983	0.0961	0.112
Mof_H 	H 	0.415	0.7634	0.0108	0.064
Mof_H 	H 	0.5862	0.8865	0.3061	0.089
Mof_H 	H 	0.588	0.4742	0.4704	0.153
Mof_H 	H 	0.9427	0.5872	0.4355	0.109
Mof_H 	H 	0.8064	0.4498	0.3446	0.12
Mof_H 	H 	0.4752	0.4534	0.3764	0.096
Mof_H 	H 	0.8809	0.4493	0.3754	0.148
Mof_H 	H 	0.5961	0.4276	0.3983	0.106
Mof_H 	H 	0.5108	0.415	0.2634	0.073
Mof_H 	H 	0.8061	0.5862	0.3865	0.089
Mof_H 	H 	0.9962	0.0258	0.6138	0.149
Mof_H 	H 	0.8483	0.9128	0.8555	0.125
Mof_H 	H 	0.8948	0.0502	0.8566	0.162
Mof_H 	H 	0.923	0.0466	0.5218	0.094
Mof_H 	H 	0.9261	0.0507	0.9316	0.15
Mof_H 	H 	0.9707	0.0724	0.6685	0.105
Mof_H 	H 	0.8484	0.085	0.5958	0.072
Mof_H 	H 	0.8003	0.9138	0.7199	0.115
Mof_H 	H 	0.912	0.3824	0.8862	0.154
Mof_H 	H 	0.5573	0.9928	0.6445	0.144
Mof_H 	H 	0.6936	0.0382	0.6434	0.115
Mof_H 	H 	0.0248	0.4012	0.9782	0.096
Mof_H 	H 	0.6191	0.9945	0.5684	0.157
Mof_H 	H 	0.9039	0.3022	0.8315	0.11
Mof_H 	H 	0.9892	0.2526	0.9042	0.067
Mof_H 	H 	0.6939	0.0804	0.7801	0.089
Mof_H 	H 	0.5038	0.1176	0.0296	0.16
Mof_H 	H 	0.6517	0.5072	0.0645	0.108
Mof_H 	H 	0.6052	0.4618	0.1554	0.12
Mof_H 	H 	0.577	0.0988	0.1236	0.094
Mof_H 	H 	0.5739	0.5055	0.1246	0.149
Mof_H 	H 	0.5293	0.1978	0.1017	0.108
Mof_H 	H 	0.6516	0.2474	0.2366	0.073
Mof_H 	H 	0.6997	0.4196	0.1135	0.09
Mof_H 	H 	0.5038	0.3862	0.9742	0.144
Mof_H 	H 	0.6517	0.1445	0.0872	0.128
Mof_H 	H 	0.6052	0.1434	0.9498	0.167
Mof_H 	H 	0.577	0.4782	0.9534	0.088
Mof_H 	H 	0.5739	0.0684	0.9493	0.146
Mof_H 	H 	0.5293	0.3315	0.9276	0.1
Mof_H 	H 	0.6516	0.4042	0.915	0.07
Mof_H 	H 	0.6997	0.2801	0.0862	0.119
Mof_H 	H 	0.912	0.5296	0.5258	0.155
Mof_H 	H 	0.5573	0.5645	0.4128	0.103
Mof_H 	H 	0.6936	0.6554	0.5502	0.119
Mof_H 	H 	0.0248	0.6236	0.5466	0.1
Mof_H 	H 	0.6191	0.6246	0.5507	0.148
Mof_H 	H 	0.9039	0.6017	0.5724	0.108
Mof_H 	H 	0.9892	0.7366	0.585	0.065
Mof_H 	H 	0.6939	0.6135	0.4138	0.088
Mof_H 	H 	0.9962	0.9704	0.8824	0.163
Mof_H 	H 	0.8483	0.9355	0.4928	0.108
Mof_H 	H 	0.8948	0.8446	0.5382	0.121
Mof_H 	H 	0.923	0.8764	0.9012	0.098
Mof_H 	H 	0.9261	0.8754	0.4945	0.154
Mof_H 	H 	0.9707	0.8983	0.8022	0.112
Mof_H 	H 	0.8484	0.7634	0.7526	0.074
Mof_H 	H 	0.8003	0.8865	0.5804	0.089
Mof_H 	H 	0.588	0.1138	0.6176	0.152
Mof_H 	H 	0.9427	0.3555	0.0072	0.154
Mof_H 	H 	0.8064	0.3566	0.9618	0.115
Mof_H 	H 	0.4752	0.0218	0.5988	0.091
Mof_H 	H 	0.8809	0.4316	0.0055	0.158
Mof_H 	H 	0.5961	0.1685	0.6978	0.107
Mof_H 	H 	0.5108	0.0958	0.7474	0.075
Mof_H 	H 	0.8061	0.2199	0.9196	0.091
Mof_H 	H 	0.9704	0.3824	0.4962	0.161
Mof_H 	H 	0.9355	0.9928	0.3483	0.147
Mof_H 	H 	0.8446	0.0382	0.3948	0.116
Mof_H 	H 	0.8764	0.4012	0.423	0.097
Mof_H 	H 	0.8754	0.9945	0.4261	0.158
Mof_H 	H 	0.8983	0.3022	0.4707	0.109
Mof_H 	H 	0.7634	0.2526	0.3484	0.073
Mof_H 	H 	0.8865	0.0804	0.3003	0.092
Mof_H 	H 	0.1138	0.1176	0.088	0.153
Mof_H 	H 	0.3555	0.5072	0.4427	0.102
Mof_H 	H 	0.3566	0.4618	0.3064	0.119
Mof_H 	H 	0.0218	0.0988	0.9752	0.094
Mof_H 	H 	0.4316	0.5055	0.3809	0.148
Mof_H 	H 	0.1685	0.1978	0.0961	0.108
Mof_H 	H 	0.0958	0.2474	0.0108	0.066
Mof_H 	H 	0.2199	0.4196	0.3061	0.087
Mof_H 	H 	0.3862	0.4742	0.0038	0.157
Mof_H 	H 	0.1445	0.5872	0.1517	0.102
Mof_H 	H 	0.1434	0.4498	0.1052	0.119
Mof_H 	H 	0.4782	0.4534	0.077	0.101
Mof_H 	H 	0.0684	0.4493	0.0739	0.148
Mof_H 	H 	0.3315	0.4276	0.0293	0.109
Mof_H 	H 	0.4042	0.415	0.1516	0.073
Mof_H 	H 	0.2801	0.5862	0.1997	0.088
Mof_H 	H 	0.5296	0.0258	0.412	0.146
Mof_H 	H 	0.5645	0.9128	0.0573	0.134
Mof_H 	H 	0.6554	0.0502	0.1936	0.164
Mof_H 	H 	0.6236	0.0466	0.5248	0.089
Mof_H 	H 	0.6246	0.0507	0.1191	0.151
Mof_H 	H 	0.6017	0.0724	0.4039	0.102
Mof_H 	H 	0.7366	0.085	0.4892	0.071
Mof_H 	H 	0.6135	0.9138	0.1939	0.118
Mof_H 	H 	0.0258	0.912	0.0296	0.157
Mof_H 	H 	0.9128	0.5573	0.0645	0.132
Mof_H 	H 	0.0502	0.6936	0.1554	0.164
Mof_H 	H 	0.0466	0.0248	0.1236	0.095
Mof_H 	H 	0.0507	0.6191	0.1246	0.152
Mof_H 	H 	0.0724	0.9039	0.1017	0.108
Mof_H 	H 	0.085	0.9892	0.2366	0.064
Mof_H 	H 	0.9138	0.6939	0.1135	0.118
Mof_H 	H 	0.4742	0.5038	0.8862	0.151
Mof_H 	H 	0.5872	0.6517	0.6445	0.103
Mof_H 	H 	0.4498	0.6052	0.6434	0.119
Mof_H 	H 	0.4534	0.577	0.9782	0.091
Mof_H 	H 	0.4493	0.5739	0.5684	0.148
Mof_H 	H 	0.4276	0.5293	0.8315	0.107
Mof_H 	H 	0.415	0.6516	0.9042	0.075
Mof_H 	H 	0.5862	0.6997	0.7801	0.087
Mof_H 	H 	0.1176	0.588	0.6138	0.15
Mof_H 	H 	0.5072	0.9427	0.8555	0.108
Mof_H 	H 	0.4618	0.8064	0.8566	0.118
Mof_H 	H 	0.0988	0.4752	0.5218	0.092
Mof_H 	H 	0.5055	0.8809	0.9316	0.142
Mof_H 	H 	0.1978	0.5961	0.6685	0.103
Mof_H 	H 	0.2474	0.5108	0.5958	0.071
Mof_H 	H 	0.4196	0.8061	0.7199	0.089
Mof_H 	H 	0.3824	0.9962	0.4704	0.157
Mof_H 	H 	0.9928	0.8483	0.4355	0.144
Mof_H 	H 	0.0382	0.8948	0.3446	0.117
Mof_H 	H 	0.4012	0.923	0.3764	0.101
Mof_H 	H 	0.9945	0.9261	0.3754	0.162
Mof_H 	H 	0.3022	0.9707	0.3983	0.11
Mof_H 	H 	0.2526	0.8484	0.2634	0.074
Mof_H 	H 	0.0804	0.8003	0.3865	0.091
Mof_C 	C 	0.1386	0.90745	0.58039	0.031
Mof_C 	C 	0.0661	0.01423	0.53917	0.179
Mof_C 	C 	0.45923	0.91758	0.50627	0.218
Mof_C 	C 	0.28291	0.84549	0.48654	0.009
Mof_C 	C 	0.28335	0.82143	0.40546	-0.005
Mof_C 	C 	0.36558	0.8775	0.4867	0.163
Mof_C 	C 	0.33771	0.84881	0.4315	-0.122
Mof_C 	C 	0.33833	0.87584	0.51377	-0.133
Mof_C 	C 	0.0515	0.91941	0.55477	-0.138
Mof_C 	C 	0.05301	0.88196	0.56803	0.004
Mof_C 	C 	0.18612	0.903	0.59368	0.254
Mof_C 	C 	0.13835	0.9471	0.56929	-0.145
Mof_C 	C 	0.09612	0.87556	0.57874	-0.084
Mof_C 	C 	0.09308	0.9519	0.55336	0.174
Mof_C 	C 	0.25635	0.81941	0.43228	-0.048
Mof_C 	C 	0.2557	0.84186	0.51888	0.315
Mof_C 	C 	0.2539	0.7914	0.3451	0.341
Mof_C 	C 	0.0037	0.8455	0.5668	0.23
Mof_C 	C 	0.82706	0.55821	0.91961	0.018
Mof_C 	C 	0.97506	0.52693	0.96083	0.228
Mof_C 	C 	0.91131	0.95296	0.99373	0.195
Mof_C 	C 	0.85895	0.79637	0.01346	0.146
Mof_C 	C 	0.91597	0.87789	0.09454	0.067
Mof_C 	C 	0.8908	0.87888	0.0133	0.28
Mof_C 	C 	0.91731	0.90621	0.0685	-0.196
Mof_C 	C 	0.86207	0.82456	0.98623	-0.291
Mof_C 	C 	0.86464	0.49673	0.94523	-0.125
Mof_C 	C 	0.81393	0.48498	0.93197	-0.02
Mof_C 	C 	0.80932	0.59244	0.90632	0.256
Mof_C 	C 	0.87781	0.56906	0.93071	-0.139
Mof_C 	C 	0.79682	0.51738	0.92126	-0.069
Mof_C 	C 	0.89854	0.53972	0.94664	0.163
Mof_C 	C 	0.88713	0.82407	0.06772	-0.137
Mof_C 	C 	0.82298	0.73682	0.98112	0.214
Mof_C 	C 	0.9463	0.9088	0.1549	0.316
Mof_C 	C 	0.7787	0.4369	0.9332	0.297
Mof_C 	C 	0.67294	0.59255	0.73115	0.022
Mof_C 	C 	0.52494	0.48577	0.55187	0.209
Mof_C 	C 	0.58869	0.58242	0.04165	0.221
Mof_C 	C 	0.64105	0.65451	0.93742	0.014
Mof_C 	C 	0.58403	0.67857	0.96192	0.018
Mof_C 	C 	0.6092	0.6225	0.98808	0.16
Mof_C 	C 	0.58269	0.65119	0.9889	-0.185
Mof_C 	C 	0.63793	0.62416	0.96249	-0.14
Mof_C 	C 	0.63536	0.58059	0.63209	-0.124
Mof_C 	C 	0.68607	0.61804	0.67105	-0.015
Mof_C 	C 	0.69068	0.597	0.78312	0.258
Mof_C 	C 	0.62219	0.5529	0.69125	-0.138
Mof_C 	C 	0.70318	0.62444	0.72056	-0.068
Mof_C 	C 	0.60146	0.5481	0.64118	0.166
Mof_C 	C 	0.61287	0.68059	0.93694	-0.064
Mof_C 	C 	0.67702	0.65814	0.91384	0.311
Mof_C 	C 	0.5537	0.7086	0.9625	0.331
Mof_C 	C 	0.7213	0.6545	0.6582	0.3
Mof_C 	C 	0.3614	0.94179	0.76885	0.01
Mof_C 	C 	0.4339	0.97307	0.94813	0.23
Mof_C 	C 	0.04077	0.54704	0.45835	0.189
Mof_C 	C 	0.21709	0.70363	0.56258	0.007
Mof_C 	C 	0.21665	0.62211	0.53808	-0.006
Mof_C 	C 	0.13442	0.62112	0.51192	0.158
Mof_C 	C 	0.16229	0.59379	0.5111	-0.12
Mof_C 	C 	0.16167	0.67544	0.53751	-0.131
Mof_C 	C 	0.4485	0.00327	0.86791	-0.154
Mof_C 	C 	0.44699	0.01502	0.82895	-0.047
Mof_C 	C 	0.31388	0.90756	0.71688	0.263
Mof_C 	C 	0.36165	0.93094	0.80875	-0.139
Mof_C 	C 	0.40388	0.98262	0.77944	-0.025
Mof_C 	C 	0.40692	0.96028	0.85882	0.193
Mof_C 	C 	0.24365	0.67593	0.56306	-0.048
Mof_C 	C 	0.2443	0.76318	0.58616	0.315
Mof_C 	C 	0.2461	0.5912	0.5375	0.341
Mof_C 	C 	0.4963	0.0631	0.8418	0.304
Mof_C 	C 	0.23115	0.67294	0.09255	0.024
Mof_C 	C 	0.05187	0.52494	0.98577	0.176
Mof_C 	C 	0.54165	0.58869	0.08242	0.218
Mof_C 	C 	0.43742	0.64105	0.15451	0.01
Mof_C 	C 	0.46192	0.58403	0.17857	-0.004
Mof_C 	C 	0.48808	0.6092	0.1225	0.164
Mof_C 	C 	0.4889	0.58269	0.15119	-0.122
Mof_C 	C 	0.46249	0.63793	0.12416	-0.134
Mof_C 	C 	0.13209	0.63536	0.08059	-0.123
Mof_C 	C 	0.17105	0.68607	0.11804	-0.014
Mof_C 	C 	0.28312	0.69068	0.097	0.257
Mof_C 	C 	0.19125	0.62219	0.0529	-0.138
Mof_C 	C 	0.22056	0.70318	0.12444	-0.068
Mof_C 	C 	0.14118	0.60146	0.0481	0.169
Mof_C 	C 	0.43694	0.61287	0.18059	-0.049
Mof_C 	C 	0.41384	0.67702	0.15814	0.315
Mof_C 	C 	0.4625	0.5537	0.2086	0.34
Mof_C 	C 	0.1582	0.7213	0.1545	0.299
Mof_C 	C 	0.26885	0.3614	0.44179	0.021
Mof_C 	C 	0.44813	0.4339	0.47307	0.209
Mof_C 	C 	0.95835	0.04077	0.04704	0.201
Mof_C 	C 	0.06258	0.21709	0.20363	0.014
Mof_C 	C 	0.03808	0.21665	0.12211	0.019
Mof_C 	C 	0.01192	0.13442	0.12112	0.161
Mof_C 	C 	0.0111	0.16229	0.09379	-0.18
Mof_C 	C 	0.03751	0.16167	0.17544	-0.14
Mof_C 	C 	0.36791	0.4485	0.50327	-0.123
Mof_C 	C 	0.32895	0.44699	0.51502	-0.016
Mof_C 	C 	0.21688	0.31388	0.40756	0.258
Mof_C 	C 	0.30875	0.36165	0.43094	-0.138
Mof_C 	C 	0.27944	0.40388	0.48262	-0.067
Mof_C 	C 	0.35882	0.40692	0.46028	0.166
Mof_C 	C 	0.06306	0.24365	0.17593	-0.064
Mof_C 	C 	0.08616	0.2443	0.26318	0.311
Mof_C 	C 	0.0375	0.2461	0.0912	0.329
Mof_C 	C 	0.3418	0.4963	0.5631	0.3
Mof_C 	C 	0.08039	0.1386	0.40745	0.022
Mof_C 	C 	0.03917	0.0661	0.51423	0.198
Mof_C 	C 	0.00627	0.45923	0.41758	0.188
Mof_C 	C 	0.98654	0.28291	0.34549	0.133
Mof_C 	C 	0.90546	0.28335	0.32143	0.052
Mof_C 	C 	0.9867	0.36558	0.3775	0.266
Mof_C 	C 	0.9315	0.33771	0.34881	-0.187
Mof_C 	C 	0.01377	0.33833	0.37584	-0.278
Mof_C 	C 	0.05477	0.0515	0.41941	-0.136
Mof_C 	C 	0.06803	0.05301	0.38196	-0.004
Mof_C 	C 	0.09368	0.18612	0.403	0.254
Mof_C 	C 	0.06929	0.13835	0.4471	-0.142
Mof_C 	C 	0.07874	0.09612	0.37556	-0.082
Mof_C 	C 	0.05336	0.09308	0.4519	0.161
Mof_C 	C 	0.93228	0.25635	0.31941	-0.127
Mof_C 	C 	0.01888	0.2557	0.34186	0.222
Mof_C 	C 	0.8451	0.2539	0.2914	0.322
Mof_C 	C 	0.0668	0.0037	0.3455	0.23
Mof_C 	C 	0.41961	0.82706	0.05821	0.014
Mof_C 	C 	0.46083	0.97506	0.02693	0.263
Mof_C 	C 	0.49373	0.91131	0.45296	0.217
Mof_C 	C 	0.51346	0.85895	0.29637	0.012
Mof_C 	C 	0.59454	0.91597	0.37789	0.001
Mof_C 	C 	0.5133	0.8908	0.37888	0.165
Mof_C 	C 	0.5685	0.91731	0.40621	-0.122
Mof_C 	C 	0.48623	0.86207	0.32456	-0.133
Mof_C 	C 	0.44523	0.86464	0.99673	-0.163
Mof_C 	C 	0.43197	0.81393	0.98498	-0.045
Mof_C 	C 	0.40632	0.80932	0.09244	0.262
Mof_C 	C 	0.43071	0.87781	0.06906	-0.144
Mof_C 	C 	0.42126	0.79682	0.01738	-0.024
Mof_C 	C 	0.44664	0.89854	0.03972	0.205
Mof_C 	C 	0.56772	0.88713	0.32407	-0.05
Mof_C 	C 	0.48112	0.82298	0.23682	0.315
Mof_C 	C 	0.6549	0.9463	0.4088	0.339
Mof_C 	C 	0.4332	0.7787	0.9369	0.303
Mof_C 	C 	0.55821	0.41961	0.32706	0.022
Mof_C 	C 	0.52693	0.46083	0.47506	0.209
Mof_C 	C 	0.95296	0.49373	0.41131	0.217
Mof_C 	C 	0.79637	0.51346	0.35895	0.011
Mof_C 	C 	0.87789	0.59454	0.41597	0
Mof_C 	C 	0.87888	0.5133	0.3908	0.165
Mof_C 	C 	0.90621	0.5685	0.41731	-0.125
Mof_C 	C 	0.82456	0.48623	0.36207	-0.135
Mof_C 	C 	0.49673	0.44523	0.36464	-0.124
Mof_C 	C 	0.48498	0.43197	0.31393	-0.015
Mof_C 	C 	0.59244	0.40632	0.30932	0.258
Mof_C 	C 	0.56906	0.43071	0.37781	-0.138
Mof_C 	C 	0.51738	0.42126	0.29682	-0.068
Mof_C 	C 	0.53972	0.44664	0.39854	0.166
Mof_C 	C 	0.82407	0.56772	0.38713	-0.051
Mof_C 	C 	0.73682	0.48112	0.32298	0.314
Mof_C 	C 	0.9088	0.6549	0.4463	0.337
Mof_C 	C 	0.4369	0.4332	0.2787	0.3
Mof_C 	C 	0.90745	0.08039	0.6386	0.019
Mof_C 	C 	0.01423	0.03917	0.5661	0.176
Mof_C 	C 	0.91758	0.00627	0.95923	0.169
Mof_C 	C 	0.84549	0.98654	0.78291	0.126
Mof_C 	C 	0.82143	0.90546	0.78335	0.048
Mof_C 	C 	0.8775	0.9867	0.86558	0.259
Mof_C 	C 	0.84881	0.9315	0.83771	-0.183
Mof_C 	C 	0.87584	0.01377	0.83833	-0.27
Mof_C 	C 	0.91941	0.05477	0.5515	-0.122
Mof_C 	C 	0.88196	0.06803	0.55301	-0.018
Mof_C 	C 	0.903	0.09368	0.68612	0.257
Mof_C 	C 	0.9471	0.06929	0.63835	-0.137
Mof_C 	C 	0.87556	0.07874	0.59612	-0.068
Mof_C 	C 	0.9519	0.05336	0.59308	0.163
Mof_C 	C 	0.81941	0.93228	0.75635	-0.123
Mof_C 	C 	0.84186	0.01888	0.7557	0.226
Mof_C 	C 	0.7914	0.8451	0.7539	0.323
Mof_C 	C 	0.8455	0.0668	0.5037	0.297
Mof_C 	C 	0.94179	0.26885	0.8614	0.02
Mof_C 	C 	0.97307	0.44813	0.9339	0.231
Mof_C 	C 	0.54704	0.95835	0.54077	0.22
Mof_C 	C 	0.70363	0.06258	0.71709	0.013
Mof_C 	C 	0.62211	0.03808	0.71665	0.014
Mof_C 	C 	0.62112	0.01192	0.63442	0.159
Mof_C 	C 	0.59379	0.0111	0.66229	-0.178
Mof_C 	C 	0.67544	0.03751	0.66167	-0.138
Mof_C 	C 	0.00327	0.36791	0.9485	-0.172
Mof_C 	C 	0.01502	0.32895	0.94699	-0.025
Mof_C 	C 	0.90756	0.21688	0.81388	0.26
Mof_C 	C 	0.93094	0.30875	0.86165	-0.147
Mof_C 	C 	0.98262	0.27944	0.90388	-0.042
Mof_C 	C 	0.96028	0.35882	0.90692	0.202
Mof_C 	C 	0.67593	0.06306	0.74365	-0.062
Mof_C 	C 	0.76318	0.08616	0.7443	0.312
Mof_C 	C 	0.5912	0.0375	0.7461	0.333
Mof_C 	C 	0.0631	0.3418	0.9963	0.226
Mof_C 	C 	0.59255	0.23115	0.17294	0.023
Mof_C 	C 	0.48577	0.05187	0.02494	0.233
Mof_C 	C 	0.58242	0.54165	0.08869	0.218
Mof_C 	C 	0.65451	0.43742	0.14105	0.012
Mof_C 	C 	0.67857	0.46192	0.08403	0.002
Mof_C 	C 	0.6225	0.48808	0.1092	0.166
Mof_C 	C 	0.65119	0.4889	0.08269	-0.122
Mof_C 	C 	0.62416	0.46249	0.13793	-0.134
Mof_C 	C 	0.58059	0.13209	0.13536	-0.125
Mof_C 	C 	0.61804	0.17105	0.18607	-0.016
Mof_C 	C 	0.597	0.28312	0.19068	0.257
Mof_C 	C 	0.5529	0.19125	0.12219	-0.14
Mof_C 	C 	0.62444	0.22056	0.20318	-0.069
Mof_C 	C 	0.5481	0.14118	0.10146	0.169
Mof_C 	C 	0.68059	0.43694	0.11287	-0.05
Mof_C 	C 	0.65814	0.41384	0.17702	0.315
Mof_C 	C 	0.7086	0.4625	0.0537	0.339
Mof_C 	C 	0.6545	0.1582	0.2213	0.3
Mof_C 	C 	0.59255	0.3614	0.91961	0.014
Mof_C 	C 	0.48577	0.4339	0.96083	0.201
Mof_C 	C 	0.58242	0.04077	0.99373	0.163
Mof_C 	C 	0.65451	0.21709	0.01346	0.142
Mof_C 	C 	0.67857	0.21665	0.09454	0.056
Mof_C 	C 	0.6225	0.13442	0.0133	0.271
Mof_C 	C 	0.65119	0.16229	0.0685	-0.192
Mof_C 	C 	0.62416	0.16167	0.98623	-0.289
Mof_C 	C 	0.58059	0.4485	0.94523	-0.121
Mof_C 	C 	0.61804	0.44699	0.93197	-0.022
Mof_C 	C 	0.597	0.31388	0.90632	0.257
Mof_C 	C 	0.5529	0.36165	0.93071	-0.136
Mof_C 	C 	0.62444	0.40388	0.92126	-0.066
Mof_C 	C 	0.5481	0.40692	0.94664	0.157
Mof_C 	C 	0.68059	0.24365	0.06772	-0.133
Mof_C 	C 	0.65814	0.2443	0.98112	0.214
Mof_C 	C 	0.7086	0.2461	0.1549	0.321
Mof_C 	C 	0.6545	0.4963	0.9332	0.298
Mof_C 	C 	0.94179	0.67294	0.58039	0.013
Mof_C 	C 	0.97307	0.52494	0.53917	0.235
Mof_C 	C 	0.54704	0.58869	0.50627	0.213
Mof_C 	C 	0.70363	0.64105	0.48654	0.009
Mof_C 	C 	0.62211	0.58403	0.40546	-0.005
Mof_C 	C 	0.62112	0.6092	0.4867	0.161
Mof_C 	C 	0.59379	0.58269	0.4315	-0.121
Mof_C 	C 	0.67544	0.63793	0.51377	-0.133
Mof_C 	C 	0.00327	0.63536	0.55477	-0.157
Mof_C 	C 	0.01502	0.68607	0.56803	-0.044
Mof_C 	C 	0.90756	0.69068	0.59368	0.262
Mof_C 	C 	0.93094	0.62219	0.56929	-0.141
Mof_C 	C 	0.98262	0.70318	0.57874	-0.027
Mof_C 	C 	0.96028	0.60146	0.55336	0.198
Mof_C 	C 	0.67593	0.61287	0.43228	-0.049
Mof_C 	C 	0.76318	0.67702	0.51888	0.315
Mof_C 	C 	0.5912	0.5537	0.3451	0.341
Mof_C 	C 	0.0631	0.7213	0.5668	0.303
Mof_C 	C 	0.90745	0.82706	0.76885	0.026
Mof_C 	C 	0.01423	0.97506	0.94813	0.204
Mof_C 	C 	0.91758	0.91131	0.45835	0.222
Mof_C 	C 	0.84549	0.85895	0.56258	0.012
Mof_C 	C 	0.82143	0.91597	0.53808	0.001
Mof_C 	C 	0.8775	0.8908	0.51192	0.168
Mof_C 	C 	0.84881	0.91731	0.5111	-0.123
Mof_C 	C 	0.87584	0.86207	0.53751	-0.134
Mof_C 	C 	0.91941	0.86464	0.86791	-0.125
Mof_C 	C 	0.88196	0.81393	0.82895	-0.013
Mof_C 	C 	0.903	0.80932	0.71688	0.257
Mof_C 	C 	0.9471	0.87781	0.80875	-0.141
Mof_C 	C 	0.87556	0.79682	0.77944	-0.07
Mof_C 	C 	0.9519	0.89854	0.85882	0.173
Mof_C 	C 	0.81941	0.88713	0.56306	-0.05
Mof_C 	C 	0.84186	0.82298	0.58616	0.315
Mof_C 	C 	0.7914	0.9463	0.5375	0.339
Mof_C 	C 	0.8455	0.7787	0.8418	0.299
Mof_C 	C 	0.55821	0.1386	0.73115	0.028
Mof_C 	C 	0.52693	0.0661	0.55187	0.205
Mof_C 	C 	0.95296	0.45923	0.04165	0.224
Mof_C 	C 	0.79637	0.28291	0.93742	0.015
Mof_C 	C 	0.87789	0.28335	0.96192	0.021
Mof_C 	C 	0.87888	0.36558	0.98808	0.163
Mof_C 	C 	0.90621	0.33771	0.9889	-0.186
Mof_C 	C 	0.82456	0.33833	0.96249	-0.141
Mof_C 	C 	0.49673	0.0515	0.63209	-0.138
Mof_C 	C 	0.48498	0.05301	0.67105	0.002
Mof_C 	C 	0.59244	0.18612	0.78312	0.255
Mof_C 	C 	0.56906	0.13835	0.69125	-0.144
Mof_C 	C 	0.51738	0.09612	0.72056	-0.083
Mof_C 	C 	0.53972	0.09308	0.64118	0.17
Mof_C 	C 	0.82407	0.25635	0.93694	-0.066
Mof_C 	C 	0.73682	0.2557	0.91384	0.311
Mof_C 	C 	0.9088	0.2539	0.9625	0.329
Mof_C 	C 	0.4369	0.0037	0.6582	0.23
Mof_C 	C 	0.82706	0.26885	0.40745	0.024
Mof_C 	C 	0.97506	0.44813	0.51423	0.235
Mof_C 	C 	0.91131	0.95835	0.41758	0.224
Mof_C 	C 	0.85895	0.06258	0.34549	0.016
Mof_C 	C 	0.91597	0.03808	0.32143	0.021
Mof_C 	C 	0.8908	0.01192	0.3775	0.164
Mof_C 	C 	0.91731	0.0111	0.34881	-0.177
Mof_C 	C 	0.86207	0.03751	0.37584	-0.139
Mof_C 	C 	0.86464	0.36791	0.41941	-0.127
Mof_C 	C 	0.81393	0.32895	0.38196	-0.013
Mof_C 	C 	0.80932	0.21688	0.403	0.257
Mof_C 	C 	0.87781	0.30875	0.4471	-0.141
Mof_C 	C 	0.79682	0.27944	0.37556	-0.07
Mof_C 	C 	0.89854	0.35882	0.4519	0.171
Mof_C 	C 	0.88713	0.06306	0.31941	-0.063
Mof_C 	C 	0.82298	0.08616	0.34186	0.312
Mof_C 	C 	0.9463	0.0375	0.2914	0.331
Mof_C 	C 	0.7787	0.3418	0.3455	0.299
Mof_C 	C 	0.1386	0.23115	0.05821	0.017
Mof_C 	C 	0.0661	0.05187	0.02693	0.229
Mof_C 	C 	0.45923	0.54165	0.45296	0.213
Mof_C 	C 	0.28291	0.43742	0.29637	0.008
Mof_C 	C 	0.28335	0.46192	0.37789	-0.006
Mof_C 	C 	0.36558	0.48808	0.37888	0.161
Mof_C 	C 	0.33771	0.4889	0.40621	-0.121
Mof_C 	C 	0.33833	0.46249	0.32456	-0.132
Mof_C 	C 	0.0515	0.13209	0.99673	-0.172
Mof_C 	C 	0.05301	0.17105	0.98498	-0.032
Mof_C 	C 	0.18612	0.28312	0.09244	0.26
Mof_C 	C 	0.13835	0.19125	0.06906	-0.146
Mof_C 	C 	0.09612	0.22056	0.01738	-0.036
Mof_C 	C 	0.09308	0.14118	0.03972	0.201
Mof_C 	C 	0.25635	0.43694	0.32407	-0.048
Mof_C 	C 	0.2557	0.41384	0.23682	0.315
Mof_C 	C 	0.2539	0.4625	0.4088	0.341
Mof_C 	C 	0.0037	0.1582	0.9369	0.234
Mof_C 	C 	0.3614	0.41961	0.09255	0.024
Mof_C 	C 	0.4339	0.46083	0.98577	0.179
Mof_C 	C 	0.04077	0.49373	0.08242	0.194
Mof_C 	C 	0.21709	0.51346	0.15451	0.009
Mof_C 	C 	0.21665	0.59454	0.17857	-0.006
Mof_C 	C 	0.13442	0.5133	0.1225	0.161
Mof_C 	C 	0.16229	0.5685	0.15119	-0.12
Mof_C 	C 	0.16167	0.48623	0.12416	-0.132
Mof_C 	C 	0.4485	0.44523	0.08059	-0.124
Mof_C 	C 	0.44699	0.43197	0.11804	-0.013
Mof_C 	C 	0.31388	0.40632	0.097	0.257
Mof_C 	C 	0.36165	0.43071	0.0529	-0.139
Mof_C 	C 	0.40388	0.42126	0.12444	-0.069
Mof_C 	C 	0.40692	0.44664	0.0481	0.171
Mof_C 	C 	0.24365	0.56772	0.18059	-0.048
Mof_C 	C 	0.2443	0.48112	0.15814	0.315
Mof_C 	C 	0.2461	0.6549	0.2086	0.341
Mof_C 	C 	0.4963	0.4332	0.1545	0.299
Mof_C 	C 	0.67294	0.08039	0.44179	0.017
Mof_C 	C 	0.52494	0.03917	0.47307	0.203
Mof_C 	C 	0.58869	0.00627	0.04704	0.193
Mof_C 	C 	0.64105	0.98654	0.20363	0.132
Mof_C 	C 	0.58403	0.90546	0.12211	0.057
Mof_C 	C 	0.6092	0.9867	0.12112	0.267
Mof_C 	C 	0.58269	0.9315	0.09379	-0.19
Mof_C 	C 	0.63793	0.01377	0.17544	-0.277
Mof_C 	C 	0.63536	0.05477	0.50327	-0.122
Mof_C 	C 	0.68607	0.06803	0.51502	-0.021
Mof_C 	C 	0.69068	0.09368	0.40756	0.257
Mof_C 	C 	0.62219	0.06929	0.43094	-0.137
Mof_C 	C 	0.70318	0.07874	0.48262	-0.067
Mof_C 	C 	0.60146	0.05336	0.46028	0.159
Mof_C 	C 	0.61287	0.93228	0.17593	-0.129
Mof_C 	C 	0.67702	0.01888	0.26318	0.223
Mof_C 	C 	0.5537	0.8451	0.0912	0.319
Mof_C 	C 	0.7213	0.0668	0.5631	0.298
Mof_C 	C 	0.08039	0.94179	0.17294	0.011
Mof_C 	C 	0.03917	0.97307	0.02494	0.257
Mof_C 	C 	0.00627	0.54704	0.08869	0.193
Mof_C 	C 	0.98654	0.70363	0.14105	0.132
Mof_C 	C 	0.90546	0.62211	0.08403	0.057
Mof_C 	C 	0.9867	0.62112	0.1092	0.268
Mof_C 	C 	0.9315	0.59379	0.08269	-0.187
Mof_C 	C 	0.01377	0.67544	0.13793	-0.275
Mof_C 	C 	0.05477	0.00327	0.13536	-0.157
Mof_C 	C 	0.06803	0.01502	0.18607	-0.047
Mof_C 	C 	0.09368	0.90756	0.19068	0.261
Mof_C 	C 	0.06929	0.93094	0.12219	-0.142
Mof_C 	C 	0.07874	0.98262	0.20318	-0.028
Mof_C 	C 	0.05336	0.96028	0.10146	0.195
Mof_C 	C 	0.93228	0.67593	0.11287	-0.127
Mof_C 	C 	0.01888	0.76318	0.17702	0.224
Mof_C 	C 	0.8451	0.5912	0.0537	0.321
Mof_C 	C 	0.0668	0.0631	0.2213	0.301
Mof_C 	C 	0.41961	0.59255	0.8614	0.029
Mof_C 	C 	0.46083	0.48577	0.9339	0.203
Mof_C 	C 	0.49373	0.58242	0.54077	0.213
Mof_C 	C 	0.51346	0.65451	0.71709	0.009
Mof_C 	C 	0.59454	0.67857	0.71665	-0.005
Mof_C 	C 	0.5133	0.6225	0.63442	0.161
Mof_C 	C 	0.5685	0.65119	0.66229	-0.121
Mof_C 	C 	0.48623	0.62416	0.66167	-0.132
Mof_C 	C 	0.44523	0.58059	0.9485	-0.139
Mof_C 	C 	0.43197	0.61804	0.94699	0.003
Mof_C 	C 	0.40632	0.597	0.81388	0.254
Mof_C 	C 	0.43071	0.5529	0.86165	-0.145
Mof_C 	C 	0.42126	0.62444	0.90388	-0.084
Mof_C 	C 	0.44664	0.5481	0.90692	0.169
Mof_C 	C 	0.56772	0.68059	0.74365	-0.048
Mof_C 	C 	0.48112	0.65814	0.7443	0.315
Mof_C 	C 	0.6549	0.7086	0.7461	0.341
Mof_C 	C 	0.4332	0.6545	0.9963	0.223
Mof_C 	C 	0.23115	0.55821	0.6386	0.019
Mof_C 	C 	0.05187	0.52693	0.5661	0.204
Mof_C 	C 	0.54165	0.95296	0.95923	0.191
Mof_C 	C 	0.43742	0.79637	0.78291	0.01
Mof_C 	C 	0.46192	0.87789	0.78335	-0.001
Mof_C 	C 	0.48808	0.87888	0.86558	0.161
Mof_C 	C 	0.4889	0.90621	0.83771	-0.123
Mof_C 	C 	0.46249	0.82456	0.83833	-0.133
Mof_C 	C 	0.13209	0.49673	0.5515	-0.122
Mof_C 	C 	0.17105	0.48498	0.55301	-0.018
Mof_C 	C 	0.28312	0.59244	0.68612	0.258
Mof_C 	C 	0.19125	0.56906	0.63835	-0.137
Mof_C 	C 	0.22056	0.51738	0.59612	-0.066
Mof_C 	C 	0.14118	0.53972	0.59308	0.163
Mof_C 	C 	0.43694	0.82407	0.75635	-0.05
Mof_C 	C 	0.41384	0.73682	0.7557	0.314
Mof_C 	C 	0.4625	0.9088	0.7539	0.338
Mof_C 	C 	0.1582	0.4369	0.5037	0.3
Mof_C 	C 	0.26885	0.90745	0.32706	0.025
Mof_C 	C 	0.44813	0.01423	0.47506	0.183
Mof_C 	C 	0.95835	0.91758	0.41131	0.225
Mof_C 	C 	0.06258	0.84549	0.35895	0.014
Mof_C 	C 	0.03808	0.82143	0.41597	0.016
Mof_C 	C 	0.01192	0.8775	0.3908	0.162
Mof_C 	C 	0.0111	0.84881	0.41731	-0.179
Mof_C 	C 	0.03751	0.87584	0.36207	-0.14
Mof_C 	C 	0.36791	0.91941	0.36464	-0.124
Mof_C 	C 	0.32895	0.88196	0.31393	-0.012
Mof_C 	C 	0.21688	0.903	0.30932	0.258
Mof_C 	C 	0.30875	0.9471	0.37781	-0.139
Mof_C 	C 	0.27944	0.87556	0.29682	-0.069
Mof_C 	C 	0.35882	0.9519	0.39854	0.171
Mof_C 	C 	0.06306	0.81941	0.38713	-0.063
Mof_C 	C 	0.08616	0.84186	0.32298	0.312
Mof_C 	C 	0.0375	0.7914	0.4463	0.332
Mof_C 	C 	0.3418	0.8455	0.2787	0.299
Mof_N 	N 	0.06679	0.04035	0.5125	-0.171
Mof_N 	N 	0.44948	0.89915	0.45787	-0.177
Mof_N 	N 	0.09315	0.98851	0.53802	-0.236
Mof_N 	N 	0.42057	0.90894	0.51771	-0.246
Mof_N 	N 	0.02785	0.55429	0.9875	-0.191
Mof_N 	N 	0.94128	0.99161	0.04213	-0.144
Mof_N 	N 	0.95049	0.55513	0.96198	-0.252
Mof_N 	N 	0.89123	0.90286	0.98229	-0.274
Mof_N 	N 	0.47215	0.45965	0.52644	-0.17
Mof_N 	N 	0.55872	0.60085	0.05033	-0.174
Mof_N 	N 	0.54951	0.51149	0.60464	-0.248
Mof_N 	N 	0.60877	0.59106	0.01163	-0.236
Mof_N 	N 	0.43321	0.94571	0.97356	-0.194
Mof_N 	N 	0.05052	0.50839	0.44967	-0.173
Mof_N 	N 	0.40685	0.94487	0.89536	-0.255
Mof_N 	N 	0.07943	0.59714	0.48837	-0.241
Mof_N 	N 	0.02644	0.47215	0.95965	-0.188
Mof_N 	N 	0.55033	0.55872	0.10085	-0.177
Mof_N 	N 	0.10464	0.54951	0.01149	-0.232
Mof_N 	N 	0.51163	0.60877	0.09106	-0.246
Mof_N 	N 	0.47356	0.43321	0.44571	-0.17
Mof_N 	N 	0.94967	0.05052	0.00839	-0.151
Mof_N 	N 	0.39536	0.40685	0.44487	-0.248
Mof_N 	N 	0.98837	0.07943	0.09714	-0.233
Mof_N 	N 	0.0125	0.06679	0.54035	-0.173
Mof_N 	N 	0.95787	0.44948	0.39915	-0.164
Mof_N 	N 	0.03802	0.09315	0.48851	-0.248
Mof_N 	N 	0.01771	0.42057	0.40894	-0.272
Mof_N 	N 	0.4875	0.02785	0.05429	-0.193
Mof_N 	N 	0.54213	0.94128	0.49161	-0.175
Mof_N 	N 	0.46198	0.95049	0.05513	-0.262
Mof_N 	N 	0.48229	0.89123	0.40286	-0.245
Mof_N 	N 	0.55429	0.4875	0.52785	-0.169
Mof_N 	N 	0.99161	0.54213	0.44128	-0.16
Mof_N 	N 	0.55513	0.46198	0.45049	-0.248
Mof_N 	N 	0.90286	0.48229	0.39123	-0.246
Mof_N 	N 	0.04035	0.0125	0.56679	-0.174
Mof_N 	N 	0.89915	0.95787	0.94948	-0.16
Mof_N 	N 	0.98851	0.03802	0.59315	-0.233
Mof_N 	N 	0.90894	0.01771	0.92057	-0.267
Mof_N 	N 	0.94571	0.47356	0.93321	-0.176
Mof_N 	N 	0.50839	0.94967	0.55052	-0.174
Mof_N 	N 	0.94487	0.39536	0.90685	-0.257
Mof_N 	N 	0.59714	0.98837	0.57943	-0.237
Mof_N 	N 	0.45965	0.02644	0.97215	-0.205
Mof_N 	N 	0.60085	0.55033	0.05872	-0.175
Mof_N 	N 	0.51149	0.10464	0.04951	-0.254
Mof_N 	N 	0.59106	0.51163	0.10877	-0.245
Mof_N 	N 	0.45965	0.43321	0.9875	-0.174
Mof_N 	N 	0.60085	0.05052	0.04213	-0.158
Mof_N 	N 	0.51149	0.40685	0.96198	-0.247
Mof_N 	N 	0.59106	0.07943	0.98229	-0.269
Mof_N 	N 	0.94571	0.47215	0.5125	-0.175
Mof_N 	N 	0.50839	0.55872	0.45787	-0.178
Mof_N 	N 	0.94487	0.54951	0.53802	-0.256
Mof_N 	N 	0.59714	0.60877	0.51771	-0.245
Mof_N 	N 	0.04035	0.02785	0.97356	-0.206
Mof_N 	N 	0.89915	0.94128	0.44967	-0.175
Mof_N 	N 	0.98851	0.95049	0.89536	-0.239
Mof_N 	N 	0.90894	0.89123	0.48837	-0.246
Mof_N 	N 	0.55429	0.06679	0.52644	-0.17
Mof_N 	N 	0.99161	0.44948	0.05033	-0.156
Mof_N 	N 	0.55513	0.09315	0.60464	-0.25
Mof_N 	N 	0.90286	0.42057	0.01163	-0.237
Mof_N 	N 	0.02785	0.47356	0.54035	-0.187
Mof_N 	N 	0.94128	0.94967	0.39915	-0.172
Mof_N 	N 	0.95049	0.39536	0.48851	-0.254
Mof_N 	N 	0.89123	0.98837	0.40894	-0.237
Mof_N 	N 	0.06679	0.02644	0.05429	-0.193
Mof_N 	N 	0.44948	0.55033	0.49161	-0.178
Mof_N 	N 	0.09315	0.10464	0.05513	-0.257
Mof_N 	N 	0.42057	0.51163	0.40286	-0.245
Mof_N 	N 	0.43321	0.4875	0.95965	-0.171
Mof_N 	N 	0.05052	0.54213	0.10085	-0.173
Mof_N 	N 	0.40685	0.46198	0.01149	-0.233
Mof_N 	N 	0.07943	0.48229	0.09106	-0.242
Mof_N 	N 	0.47215	0.0125	0.44571	-0.173
Mof_N 	N 	0.55872	0.95787	0.00839	-0.145
Mof_N 	N 	0.54951	0.03802	0.44487	-0.247
Mof_N 	N 	0.60877	0.01771	0.09714	-0.272
Mof_N 	N 	0.0125	0.94571	0.97215	-0.198
Mof_N 	N 	0.95787	0.50839	0.05872	-0.161
Mof_N 	N 	0.03802	0.94487	0.04951	-0.26
Mof_N 	N 	0.01771	0.59714	0.10877	-0.271
Mof_N 	N 	0.4875	0.45965	0.93321	-0.17
Mof_N 	N 	0.54213	0.60085	0.55052	-0.178
Mof_N 	N 	0.46198	0.51149	0.90685	-0.25
Mof_N 	N 	0.48229	0.59106	0.57943	-0.245
Mof_N 	N 	0.02644	0.55429	0.56679	-0.187
Mof_N 	N 	0.55033	0.99161	0.94948	-0.155
Mof_N 	N 	0.10464	0.55513	0.59315	-0.248
Mof_N 	N 	0.51163	0.90286	0.92057	-0.241
Mof_N 	N 	0.47356	0.04035	0.52785	-0.171
Mof_N 	N 	0.94967	0.89915	0.44128	-0.174
Mof_N 	N 	0.39536	0.98851	0.45049	-0.234
Mof_N 	N 	0.98837	0.90894	0.39123	-0.238
Mof_O 	O 	0.18327	0.86041	0.59352	-0.368
Mof_O 	O 	0.99114	0.79897	0.55289	-0.373
Mof_O 	O 	0.28379	0.87001	0.56778	-0.397
Mof_O 	O 	0.20801	0.81385	0.49532	-0.261
Mof_O 	O 	0.27884	0.78052	0.32354	-0.45
Mof_O 	O 	0.22984	0.94063	0.60693	-0.246
Mof_O 	O 	0.20908	0.78157	0.32327	-0.275
Mof_O 	O 	0.98627	0.87117	0.5911	-0.175
Mof_O 	O 	0.76689	0.58975	0.90648	-0.373
Mof_O 	O 	0.74608	0.43825	0.94711	-0.422
Mof_O 	O 	0.80223	0.71601	0.93222	-0.377
Mof_O 	O 	0.81853	0.71269	0.00468	-0.208
Mof_O 	O 	0.95698	0.9553	0.17646	-0.418
Mof_O 	O 	0.8337	0.62291	0.89307	-0.252
Mof_O 	O 	0.9583	0.88581	0.17673	-0.254
Mof_O 	O 	0.78007	0.39517	0.9089	-0.215
Mof_O 	O 	0.73311	0.63959	0.82286	-0.37
Mof_O 	O 	0.75392	0.70103	0.69217	-0.415
Mof_O 	O 	0.69777	0.62999	0.91378	-0.401
Mof_O 	O 	0.68147	0.68615	0.89416	-0.262
Mof_O 	O 	0.54302	0.71948	0.99832	-0.46
Mof_O 	O 	0.6663	0.55937	0.78921	-0.25
Mof_O 	O 	0.5417	0.71843	0.92751	-0.274
Mof_O 	O 	0.71993	0.62883	0.6151	-0.213
Mof_O 	O 	0.31673	0.91025	0.67714	-0.369
Mof_O 	O 	0.50886	0.06175	0.80783	-0.425
Mof_O 	O 	0.21621	0.78399	0.58622	-0.399
Mof_O 	O 	0.29199	0.78731	0.60584	-0.261
Mof_O 	O 	0.22116	0.5447	0.50168	-0.45
Mof_O 	O 	0.27016	0.87709	0.71079	-0.252
Mof_O 	O 	0.29092	0.61419	0.57249	-0.273
Mof_O 	O 	0.51373	0.10483	0.8849	-0.224
Mof_O 	O 	0.32286	0.73311	0.13959	-0.368
Mof_O 	O 	0.19217	0.75392	0.20103	-0.415
Mof_O 	O 	0.41378	0.69777	0.12999	-0.397
Mof_O 	O 	0.39416	0.68147	0.18615	-0.26
Mof_O 	O 	0.49832	0.54302	0.21948	-0.449
Mof_O 	O 	0.28921	0.6663	0.05937	-0.246
Mof_O 	O 	0.42751	0.5417	0.21843	-0.273
Mof_O 	O 	0.1151	0.71993	0.12883	-0.215
Mof_O 	O 	0.17714	0.31673	0.41025	-0.371
Mof_O 	O 	0.30783	0.50886	0.56175	-0.415
Mof_O 	O 	0.08622	0.21621	0.28399	-0.401
Mof_O 	O 	0.10584	0.29199	0.28731	-0.262
Mof_O 	O 	0.00168	0.22116	0.0447	-0.444
Mof_O 	O 	0.21079	0.27016	0.37709	-0.252
Mof_O 	O 	0.07249	0.29092	0.11419	-0.271
Mof_O 	O 	0.3849	0.51373	0.60483	-0.214
Mof_O 	O 	0.09352	0.18327	0.36041	-0.374
Mof_O 	O 	0.05289	0.99114	0.29897	-0.379
Mof_O 	O 	0.06778	0.28379	0.37001	-0.379
Mof_O 	O 	0.99532	0.20801	0.31385	-0.213
Mof_O 	O 	0.82354	0.27884	0.28052	-0.443
Mof_O 	O 	0.10693	0.22984	0.44063	-0.254
Mof_O 	O 	0.82327	0.20908	0.28157	-0.268
Mof_O 	O 	0.0911	0.98627	0.37117	-0.18
Mof_O 	O 	0.40648	0.76689	0.08975	-0.368
Mof_O 	O 	0.44711	0.74608	0.93825	-0.425
Mof_O 	O 	0.43222	0.80223	0.21601	-0.397
Mof_O 	O 	0.50468	0.81853	0.21269	-0.26
Mof_O 	O 	0.67646	0.95698	0.4553	-0.438
Mof_O 	O 	0.39307	0.8337	0.12291	-0.247
Mof_O 	O 	0.67673	0.9583	0.38581	-0.264
Mof_O 	O 	0.4089	0.78007	0.89517	-0.217
Mof_O 	O 	0.58975	0.40648	0.26689	-0.369
Mof_O 	O 	0.43825	0.44711	0.24608	-0.415
Mof_O 	O 	0.71601	0.43222	0.30223	-0.398
Mof_O 	O 	0.71269	0.50468	0.31853	-0.26
Mof_O 	O 	0.9553	0.67646	0.45698	-0.434
Mof_O 	O 	0.62291	0.39307	0.3337	-0.25
Mof_O 	O 	0.88581	0.67673	0.4583	-0.27
Mof_O 	O 	0.39517	0.4089	0.28007	-0.213
Mof_O 	O 	0.86041	0.09352	0.68327	-0.373
Mof_O 	O 	0.79897	0.05289	0.49114	-0.421
Mof_O 	O 	0.87001	0.06778	0.78379	-0.38
Mof_O 	O 	0.81385	0.99532	0.70801	-0.215
Mof_O 	O 	0.78052	0.82354	0.77884	-0.444
Mof_O 	O 	0.94063	0.10693	0.72984	-0.251
Mof_O 	O 	0.78157	0.82327	0.70908	-0.268
Mof_O 	O 	0.87117	0.0911	0.48627	-0.212
Mof_O 	O 	0.91025	0.17714	0.81673	-0.37
Mof_O 	O 	0.06175	0.30783	0.00886	-0.377
Mof_O 	O 	0.78399	0.08622	0.71621	-0.401
Mof_O 	O 	0.78731	0.10584	0.79199	-0.264
Mof_O 	O 	0.5447	0.00168	0.72116	-0.459
Mof_O 	O 	0.87709	0.21079	0.77016	-0.249
Mof_O 	O 	0.61419	0.07249	0.79092	-0.276
Mof_O 	O 	0.10483	0.3849	0.01373	-0.177
Mof_O 	O 	0.63959	0.32286	0.23311	-0.369
Mof_O 	O 	0.70103	0.19217	0.25392	-0.416
Mof_O 	O 	0.62999	0.41378	0.19777	-0.397
Mof_O 	O 	0.68615	0.39416	0.18147	-0.259
Mof_O 	O 	0.71948	0.49832	0.04302	-0.436
Mof_O 	O 	0.55937	0.28921	0.1663	-0.249
Mof_O 	O 	0.71843	0.42751	0.0417	-0.262
Mof_O 	O 	0.62883	0.1151	0.21993	-0.22
Mof_O 	O 	0.63959	0.31673	0.90648	-0.374
Mof_O 	O 	0.70103	0.50886	0.94711	-0.422
Mof_O 	O 	0.62999	0.21621	0.93222	-0.378
Mof_O 	O 	0.68615	0.29199	0.00468	-0.209
Mof_O 	O 	0.71948	0.22116	0.17646	-0.443
Mof_O 	O 	0.55937	0.27016	0.89307	-0.256
Mof_O 	O 	0.71843	0.29092	0.17673	-0.266
Mof_O 	O 	0.62883	0.51373	0.9089	-0.216
Mof_O 	O 	0.91025	0.73311	0.59352	-0.368
Mof_O 	O 	0.06175	0.75392	0.55289	-0.424
Mof_O 	O 	0.78399	0.69777	0.56778	-0.398
Mof_O 	O 	0.78731	0.68147	0.49532	-0.26
Mof_O 	O 	0.5447	0.54302	0.32354	-0.449
Mof_O 	O 	0.87709	0.6663	0.60693	-0.25
Mof_O 	O 	0.61419	0.5417	0.32327	-0.273
Mof_O 	O 	0.10483	0.71993	0.5911	-0.217
Mof_O 	O 	0.86041	0.76689	0.67714	-0.368
Mof_O 	O 	0.79897	0.74608	0.80783	-0.416
Mof_O 	O 	0.87001	0.80223	0.58622	-0.396
Mof_O 	O 	0.81385	0.81853	0.60584	-0.26
Mof_O 	O 	0.78052	0.95698	0.50168	-0.438
Mof_O 	O 	0.94063	0.8337	0.71079	-0.245
Mof_O 	O 	0.78157	0.9583	0.57249	-0.264
Mof_O 	O 	0.87117	0.78007	0.8849	-0.216
Mof_O 	O 	0.58975	0.18327	0.82286	-0.371
Mof_O 	O 	0.43825	0.99114	0.69217	-0.373
Mof_O 	O 	0.71601	0.28379	0.91378	-0.401
Mof_O 	O 	0.71269	0.20801	0.89416	-0.263
Mof_O 	O 	0.9553	0.27884	0.99832	-0.446
Mof_O 	O 	0.62291	0.22984	0.78921	-0.25
Mof_O 	O 	0.88581	0.20908	0.92751	-0.272
Mof_O 	O 	0.39517	0.98627	0.6151	-0.178
Mof_O 	O 	0.76689	0.17714	0.36041	-0.37
Mof_O 	O 	0.74608	0.30783	0.29897	-0.415
Mof_O 	O 	0.80223	0.08622	0.37001	-0.4
Mof_O 	O 	0.81853	0.10584	0.31385	-0.261
Mof_O 	O 	0.95698	0.00168	0.28052	-0.447
Mof_O 	O 	0.8337	0.21079	0.44063	-0.248
Mof_O 	O 	0.9583	0.07249	0.28157	-0.264
Mof_O 	O 	0.78007	0.3849	0.37117	-0.213
Mof_O 	O 	0.18327	0.32286	0.08975	-0.369
Mof_O 	O 	0.99114	0.19217	0.93825	-0.383
Mof_O 	O 	0.28379	0.41378	0.21601	-0.398
Mof_O 	O 	0.20801	0.39416	0.21269	-0.262
Mof_O 	O 	0.27884	0.49832	0.4553	-0.449
Mof_O 	O 	0.22984	0.28921	0.12291	-0.25
Mof_O 	O 	0.20908	0.42751	0.38581	-0.275
Mof_O 	O 	0.98627	0.1151	0.89517	-0.187
Mof_O 	O 	0.31673	0.40648	0.13959	-0.368
Mof_O 	O 	0.50886	0.44711	0.20103	-0.414
Mof_O 	O 	0.21621	0.43222	0.12999	-0.398
Mof_O 	O 	0.29199	0.50468	0.18615	-0.261
Mof_O 	O 	0.22116	0.67646	0.21948	-0.45
Mof_O 	O 	0.27016	0.39307	0.05937	-0.247
Mof_O 	O 	0.29092	0.67673	0.21843	-0.274
Mof_O 	O 	0.51373	0.4089	0.12883	-0.21
Mof_O 	O 	0.73311	0.09352	0.41025	-0.373
Mof_O 	O 	0.75392	0.05289	0.56175	-0.421
Mof_O 	O 	0.69777	0.06778	0.28399	-0.379
Mof_O 	O 	0.68147	0.99532	0.28731	-0.214
Mof_O 	O 	0.54302	0.82354	0.0447	-0.427
Mof_O 	O 	0.6663	0.10693	0.37709	-0.254
Mof_O 	O 	0.5417	0.82327	0.11419	-0.264
Mof_O 	O 	0.71993	0.0911	0.60483	-0.215
Mof_O 	O 	0.09352	0.91025	0.23311	-0.372
Mof_O 	O 	0.05289	0.06175	0.25392	-0.429
Mof_O 	O 	0.06778	0.78399	0.19777	-0.379
Mof_O 	O 	0.99532	0.78731	0.18147	-0.214
Mof_O 	O 	0.82354	0.5447	0.04302	-0.43
Mof_O 	O 	0.10693	0.87709	0.1663	-0.25
Mof_O 	O 	0.82327	0.61419	0.0417	-0.257
Mof_O 	O 	0.0911	0.10483	0.21993	-0.218
Mof_O 	O 	0.40648	0.63959	0.81673	-0.369
Mof_O 	O 	0.44711	0.70103	0.00886	-0.368
Mof_O 	O 	0.43222	0.62999	0.71621	-0.398
Mof_O 	O 	0.50468	0.68615	0.79199	-0.261
Mof_O 	O 	0.67646	0.71948	0.72116	-0.449
Mof_O 	O 	0.39307	0.55937	0.77016	-0.251
Mof_O 	O 	0.67673	0.71843	0.79092	-0.274
Mof_O 	O 	0.4089	0.62883	0.01373	-0.175
Mof_O 	O 	0.32286	0.58975	0.68327	-0.37
Mof_O 	O 	0.19217	0.43825	0.49114	-0.417
Mof_O 	O 	0.41378	0.71601	0.78379	-0.398
Mof_O 	O 	0.39416	0.71269	0.70801	-0.261
Mof_O 	O 	0.49832	0.9553	0.77884	-0.435
Mof_O 	O 	0.28921	0.62291	0.72984	-0.253
Mof_O 	O 	0.42751	0.88581	0.70908	-0.27
Mof_O 	O 	0.1151	0.39517	0.48627	-0.22
Mof_O 	O 	0.17714	0.86041	0.26689	-0.369
Mof_O 	O 	0.30783	0.79897	0.24608	-0.414
Mof_O 	O 	0.08622	0.87001	0.30223	-0.4
Mof_O 	O 	0.10584	0.81385	0.31853	-0.262
Mof_O 	O 	0.00168	0.78052	0.45698	-0.459
Mof_O 	O 	0.21079	0.94063	0.3337	-0.245
Mof_O 	O 	0.07249	0.78157	0.4583	-0.274
Mof_O 	O 	0.3849	0.87117	0.28007	-0.209
_end
