data_functionalizedCrystal
_audit_creation_method	'EQeq! by Chris Wilmer'
_symmetry_space_group_name_H-M	'P1'
_symmetry_Int_Tables_number	1
_symmetry_cell_setting	triclinic
loop_
_symmetry_equiv_pos_as_xyz
  x,y,z
_cell_length_a	6.1092
_cell_length_b	7.6866
_cell_length_c	22.6987
_cell_angle_alpha	90
_cell_angle_beta	91.657
_cell_angle_gamma	90
loop_
_atom_site_label
_atom_site_type_symbol
_atom_site_fract_x
_atom_site_fract_y
_atom_site_fract_z
_atom_site_charge
Mof_La	La	0.45487	0.50172	0.8539	2.269
Mof_La	La	0.54513	0.00172	0.6461	2.244
Mof_La	La	0.54513	0.49828	0.1461	2.269
Mof_La	La	0.45487	0.99828	0.3539	2.244
Mof_H 	H 	0.302	0.724	0.7581	0.267
Mof_H 	H 	0.444	0.625	0.6166	0.299
Mof_H 	H 	0.0416	0.478	0.7176	0.034
Mof_H 	H 	0.1202	0.5656	0.6251	0.007
Mof_H 	H 	0.698	0.224	0.7419	0.264
Mof_H 	H 	0.556	0.125	0.8834	0.3
Mof_H 	H 	0.9584	0.978	0.7824	0.055
Mof_H 	H 	0.8798	0.0656	0.8749	0
Mof_H 	H 	0.698	0.276	0.2419	0.267
Mof_H 	H 	0.556	0.375	0.3834	0.299
Mof_H 	H 	0.9584	0.522	0.2824	0.034
Mof_H 	H 	0.8798	0.4344	0.3749	0.007
Mof_H 	H 	0.302	0.776	0.2581	0.264
Mof_H 	H 	0.444	0.875	0.1166	0.3
Mof_H 	H 	0.0416	0.022	0.2176	0.055
Mof_H 	H 	0.1202	0.9344	0.1251	0
Mof_C 	C 	0.3614	0.3941	0.71127	0.396
Mof_C 	C 	0.184	0.5354	0.71445	0.009
Mof_C 	C 	0.1826	0.6391	0.65667	0.032
Mof_C 	C 	0.0466	0.8058	0.65986	0.394
Mof_C 	C 	0.5824	0.576	0.9987	0.251
Mof_C 	C 	0.6386	0.8941	0.78873	0.416
Mof_C 	C 	0.816	0.0354	0.78555	-0.027
Mof_C 	C 	0.8174	0.1391	0.84333	0.044
Mof_C 	C 	0.9534	0.3058	0.84014	0.393
Mof_C 	C 	0.4176	0.076	0.5013	0.252
Mof_C 	C 	0.6386	0.6059	0.28873	0.396
Mof_C 	C 	0.816	0.4646	0.28555	0.009
Mof_C 	C 	0.8174	0.3609	0.34333	0.032
Mof_C 	C 	0.9534	0.1942	0.34014	0.394
Mof_C 	C 	0.4176	0.424	0.0013	0.251
Mof_C 	C 	0.3614	0.1059	0.21127	0.416
Mof_C 	C 	0.184	0.9646	0.21445	-0.027
Mof_C 	C 	0.1826	0.8609	0.15667	0.044
Mof_C 	C 	0.0466	0.6942	0.15986	0.393
Mof_C 	C 	0.5824	0.924	0.4987	0.252
Mof_O 	O 	0.5111	0.3979	0.75078	-0.496
Mof_O 	O 	0.3506	0.2869	0.6702	-0.482
Mof_O 	O 	0.2202	0.6402	0.76536	-0.526
Mof_O 	O 	0.3998	0.6859	0.64175	-0.591
Mof_O 	O 	0.1455	0.9473	0.65467	-0.484
Mof_O 	O 	0.8462	0.7893	0.66667	-0.48
Mof_O 	O 	0.6235	0.6319	0.94824	-0.445
Mof_O 	O 	0.6615	0.6306	0.0463	-0.44
Mof_O 	O 	0.4889	0.8979	0.74922	-0.494
Mof_O 	O 	0.6494	0.7869	0.8298	-0.486
Mof_O 	O 	0.7798	0.1402	0.73464	-0.519
Mof_O 	O 	0.6002	0.1859	0.85825	-0.599
Mof_O 	O 	0.8545	0.4473	0.84533	-0.492
Mof_O 	O 	0.1538	0.2893	0.83333	-0.485
Mof_O 	O 	0.3765	0.1319	0.55176	-0.444
Mof_O 	O 	0.3385	0.1306	0.4537	-0.436
Mof_O 	O 	0.4889	0.6021	0.24922	-0.496
Mof_O 	O 	0.6494	0.7131	0.3298	-0.482
Mof_O 	O 	0.7798	0.3598	0.23464	-0.526
Mof_O 	O 	0.6002	0.3141	0.35825	-0.591
Mof_O 	O 	0.8545	0.0527	0.34533	-0.484
Mof_O 	O 	0.1538	0.2107	0.33333	-0.48
Mof_O 	O 	0.3765	0.3681	0.05176	-0.445
Mof_O 	O 	0.3385	0.3694	0.9537	-0.44
Mof_O 	O 	0.5111	0.1021	0.25078	-0.494
Mof_O 	O 	0.3506	0.2131	0.1702	-0.486
Mof_O 	O 	0.2202	0.8598	0.26536	-0.519
Mof_O 	O 	0.3998	0.8141	0.14175	-0.599
Mof_O 	O 	0.1455	0.5527	0.15467	-0.492
Mof_O 	O 	0.8462	0.7107	0.16667	-0.485
Mof_O 	O 	0.6235	0.8681	0.44824	-0.444
Mof_O 	O 	0.6615	0.8694	0.5463	-0.436
_end
