# CIF file generated by openbabel 3.1.0, see https://openbabel.org
data_I
_chemical_name_common 'image0'
_cell_length_a 7.976
_cell_length_b 12.006
_cell_length_c 12.284
_cell_angle_alpha 112.01
_cell_angle_beta 90.05
_cell_angle_gamma 100.58
_space_group_name_H-M_alt 'P 1'
_space_group_name_Hall 'P 1'
loop_
    _symmetry_equiv_pos_as_xyz
    x,y,z
loop_
    _atom_site_label
    _atom_site_type_symbol
    _atom_site_fract_x
    _atom_site_fract_y
    _atom_site_fract_z
    _atom_site_occupancy
    C1       C        0.63520    0.13980    0.02230    1.000
    C2       C        0.61530    0.17310    0.15200    1.000
    H1       H        0.53450    0.10750    0.16240    1.000
    H2       H        0.56720    0.24650    0.18170    1.000
    C3       C        0.78540    0.19590    0.22700    1.000
    H3       H        0.86990    0.25640    0.21170    1.000
    H4       H        0.76520    0.22910    0.30980    1.000
    C4       C        0.85560    0.08180    0.20100    1.000
    C5       C        0.64430    0.91780    0.63880    1.000
    C6       C        0.71340    0.80210    0.58070    1.000
    H5       H        0.73260    0.76830    0.63890    1.000
    H6       H        0.62900    0.74210    0.52050    1.000
    C7       C        0.76010    0.52620    0.14660    1.000
    H7       H        0.88290    0.55410    0.16310    1.000
    H8       H        0.72030    0.47450    0.18970    1.000
    C8       C        0.67290    0.63290    0.18170    1.000
    C9       C        0.86190    0.85690    0.41870    1.000
    C10      C        0.87740    0.82440    0.52580    1.000
    H9       H        0.95700    0.89050    0.58490    1.000
    H10      H        0.92630    0.75140    0.50330    1.000
    C11      C        0.71580    0.45550    0.01500    1.000
    H11      H        0.73210    0.51330    0.97620    1.000
    H12      H        0.59550    0.41700    0.00260    1.000
    C12      C        0.81970    0.35690    0.95600    1.000
    La1      La       0.99112    0.14308    0.85318    1.000
    La2      La       0.49133    0.14293    0.75029    1.000
    O1       O        0.77140    0.27790    0.85040    1.000
    O2       O        0.94900    0.35510    0.01060    1.000
    O3       O        0.76650    0.98720    0.20870    1.000
    O4       O        0.00990    0.07910    0.17550    1.000
    O5       O        0.54770    0.63950    0.24390    1.000
    O6       O        0.72720    0.72170    0.14450    1.000
    O7       O        0.51580    0.14980    0.96180    1.000
    O8       O        0.76770    0.10140    0.97980    1.000
    O9       O        0.98280    0.84730    0.35020    1.000
    O10      O        0.73100    0.89630    0.40510    1.000
    O11      O        0.73520    0.01380    0.71620    1.000
    O12      O        0.48880    0.91960    0.61620    1.000
    C13      C        0.36480    0.86020    0.97770    1.000
    C14      C        0.38470    0.82690    0.84800    1.000
    H13      H        0.46550    0.89250    0.83760    1.000
    H14      H        0.43280    0.75350    0.81830    1.000
    C15      C        0.21460    0.80410    0.77300    1.000
    H15      H        0.13010    0.74360    0.78830    1.000
    H16      H        0.23480    0.77090    0.69020    1.000
    C16      C        0.14440    0.91820    0.79900    1.000
    C17      C        0.35570    0.08220    0.36120    1.000
    C18      C        0.28660    0.19790    0.41930    1.000
    H17      H        0.26740    0.23170    0.36110    1.000
    H18      H        0.37100    0.25790    0.47950    1.000
    C19      C        0.23990    0.47380    0.85340    1.000
    H19      H        0.11710    0.44590    0.83690    1.000
    H20      H        0.27970    0.52550    0.81030    1.000
    C20      C        0.32710    0.36710    0.81830    1.000
    C21      C        0.13810    0.14310    0.58130    1.000
    C22      C        0.12260    0.17560    0.47420    1.000
    H21      H        0.04300    0.10950    0.41510    1.000
    H22      H        0.07370    0.24860    0.49670    1.000
    C23      C        0.28420    0.54450    0.98500    1.000
    H23      H        0.26790    0.48670    0.02380    1.000
    H24      H        0.40450    0.58300    0.99740    1.000
    C24      C        0.18030    0.64310    0.04400    1.000
    La3      La       0.00888    0.85692    0.14682    1.000
    La4      La       0.50867    0.85707    0.24971    1.000
    O13      O        0.22860    0.72210    0.14960    1.000
    O14      O        0.05100    0.64490    0.98940    1.000
    O15      O        0.23350    0.01280    0.79130    1.000
    O16      O        0.99010    0.92090    0.82450    1.000
    O17      O        0.45230    0.36050    0.75610    1.000
    O18      O        0.27280    0.27830    0.85550    1.000
    O19      O        0.48420    0.85020    0.03820    1.000
    O20      O        0.23230    0.89860    0.02020    1.000
    O21      O        0.01720    0.15270    0.64980    1.000
    O22      O        0.26900    0.10370    0.59490    1.000
    O23      O        0.26480    0.98620    0.28380    1.000
    O24      O        0.51120    0.08040    0.38380    1.000
