data_functionalizedCrystal
_audit_creation_method	'EQeq! by Chris Wilmer'
_symmetry_space_group_name_H-M	'P1'
_symmetry_Int_Tables_number	1
_symmetry_cell_setting	triclinic
loop_
_symmetry_equiv_pos_as_xyz
  x,y,z
_cell_length_a	22.0383
_cell_length_b	16.4151
_cell_length_c	25.679
_cell_angle_alpha	90
_cell_angle_beta	115.404
_cell_angle_gamma	90
loop_
_atom_site_label
_atom_site_type_symbol
_atom_site_fract_x
_atom_site_fract_y
_atom_site_fract_z
_atom_site_charge
Mof_Ag	Ag	0.34404	0.04164	0.36811	0.522
Mof_Ag	Ag	0.82305	0.24999	0.86765	0.534
Mof_C 	C 	0.62428	0.2425	0.50295	0.098
Mof_C 	C 	0.7357	0.4333	0.38904	0.083
Mof_H 	H 	0.7139	0.4391	0.3492	-0.01
Mof_C 	C 	0.00281	0.117	0.9968	-0.131
Mof_H 	H 	0.0222	0.1173	0.0369	0.084
Mof_C 	C 	0.09731	0.0309	0.00158	0.097
Mof_C 	C 	0.56013	0.1975	0.47065	0.06
Mof_C 	C 	0.5332	0.1881	0.4113	-0.142
Mof_H 	H 	0.5544	0.2101	0.3901	0.081
Mof_C 	C 	0.21976	0.8499	0.89295	0.067
Mof_H 	H 	0.1995	0.8456	0.853	-0.026
Mof_C 	C 	0.2778	0.863	0.00976	-0.136
Mof_H 	H 	0.2986	0.866	0.0498	0.074
Mof_C 	C 	0.52672	0.1634	0.5003	-0.142
Mof_H 	H 	0.5442	0.1677	0.5402	0.074
Mof_C 	C 	0.94347	0.1581	0.96589	0.082
Mof_H 	H 	0.9234	0.1858	0.986	-0.011
Mof_C 	C 	0.74307	0.2635	0.65187	0.059
Mof_C 	C 	0.17813	0.0431	0.18178	-0.138
Mof_H 	H 	0.1342	0.0615	0.1617	0.082
Mof_C 	C 	0.71035	0.2734	0.58824	0.1
Mof_C 	C 	0.18211	0.9495	0.00736	0.093
Mof_C 	C 	0.79856	0.4158	0.50549	-0.134
Mof_H 	H 	0.8211	0.4119	0.5454	0.085
Mof_C 	C 	0.17975	0.9974	0.08896	0.094
Mof_C 	C 	0.30641	0.993	0.24341	0.075
Mof_H 	H 	0.3505	0.976	0.2645	-0.025
Mof_C 	C 	0.70578	0.3272	0.50573	0.103
Mof_C 	C 	0.21538	0.9	0.97817	0.055
Mof_C 	C 	0.46693	0.123	0.46955	0.069
Mof_H 	H 	0.4446	0.1006	0.4897	-0.019
Mof_C 	C 	0.03298	0.0754	0.96759	0.068
Mof_C 	C 	0.30787	0.8218	0.97987	0.075
Mof_H 	H 	0.3495	0.7977	0.0009	-0.011
Mof_C 	C 	0.82562	0.4592	0.47431	0.09
Mof_H 	H 	0.8674	0.4833	0.4946	-0.014
Mof_C 	C 	0.7457	0.2067	0.73784	0.069
Mof_H 	H 	0.7271	0.1714	0.7554	-0.016
Mof_C 	C 	0.47349	0.1448	0.38455	0.072
Mof_H 	H 	0.4563	0.1366	0.3449	-0.02
Mof_C 	C 	0.21054	0.0514	0.24062	0.079
Mof_H 	H 	0.1874	0.0748	0.2598	-0.015
Mof_C 	C 	0.0023	0.0755	0.90795	-0.137
Mof_H 	H 	0.0209	0.0469	0.887	0.08
Mof_C 	C 	0.21131	0.0074	0.1525	0.055
Mof_C 	C 	0.73623	0.378	0.47519	0.068
Mof_C 	C 	0.82724	0.2969	0.7446	0.087
Mof_H 	H 	0.8659	0.3259	0.7672	-0.022
Mof_C 	C 	0.27757	0.9817	0.18415	-0.142
Mof_H 	H 	0.3016	0.9576	0.166	0.073
Mof_C 	C 	0.18635	0.8917	0.91899	-0.136
Mof_H 	H 	0.1444	0.9144	0.8969	0.078
Mof_C 	C 	0.70461	0.3889	0.41566	-0.134
Mof_H 	H 	0.6626	0.3661	0.3941	0.084
Mof_C 	C 	0.80199	0.3053	0.68565	-0.142
Mof_H 	H 	0.8235	0.3378	0.669	0.084
Mof_C 	C 	0.71602	0.2116	0.67845	-0.134
Mof_H 	H 	0.6784	0.1804	0.6567	0.069
Mof_C 	C 	0.94322	0.1191	0.88008	0.083
Mof_H 	H 	0.9234	0.1202	0.84	-0.007
Mof_N 	N 	0.43951	0.11428	0.41219	-0.214
Mof_N 	N 	0.79617	0.46893	0.41734	-0.193
Mof_N 	N 	0.80019	0.2502	0.77175	-0.2
Mof_N 	N 	0.64811	0.28904	0.47305	-0.138
Mof_N 	N 	0.73846	0.3227	0.56327	-0.137
Mof_N 	N 	0.65352	0.23159	0.55984	-0.142
Mof_N 	N 	0.91322	0.1598	0.90774	-0.187
Mof_N 	N 	0.28014	0.81468	0.92206	-0.209
Mof_N 	N 	0.27477	0.0268	0.27187	-0.199
Mof_N 	N 	0.1259	0.99018	0.9734	-0.14
Mof_N 	N 	0.21091	0.95088	0.06483	-0.148
Mof_N 	N 	0.12201	0.03761	0.05936	-0.136
Mof_Ag	Ag	0.84404	0.54164	0.36811	0.523
Mof_Ag	Ag	0.32305	0.74999	0.86765	0.535
Mof_C 	C 	0.12428	0.7425	0.50295	0.099
Mof_C 	C 	0.2357	0.9333	0.38904	0.084
Mof_H 	H 	0.2139	0.9391	0.3492	-0.01
Mof_C 	C 	0.50281	0.617	0.9968	-0.136
Mof_H 	H 	0.5222	0.6173	0.0369	0.086
Mof_C 	C 	0.59731	0.5309	0.00158	0.098
Mof_C 	C 	0.06013	0.6975	0.47065	0.06
Mof_C 	C 	0.0332	0.6881	0.4113	-0.142
Mof_H 	H 	0.0544	0.7101	0.3901	0.082
Mof_C 	C 	0.71976	0.3499	0.89295	0.067
Mof_H 	H 	0.6995	0.3456	0.853	-0.025
Mof_C 	C 	0.7778	0.363	0.00976	-0.133
Mof_H 	H 	0.7986	0.366	0.0498	0.073
Mof_C 	C 	0.02672	0.6634	0.5003	-0.142
Mof_H 	H 	0.0442	0.6677	0.5402	0.074
Mof_C 	C 	0.44347	0.6581	0.96589	0.085
Mof_H 	H 	0.4234	0.6858	0.986	-0.012
Mof_C 	C 	0.24307	0.7635	0.65187	0.059
Mof_C 	C 	0.67813	0.5431	0.18178	-0.139
Mof_H 	H 	0.6342	0.5615	0.1617	0.082
Mof_C 	C 	0.21035	0.7734	0.58824	0.1
Mof_C 	C 	0.68211	0.4495	0.00736	0.095
Mof_C 	C 	0.29856	0.9158	0.50549	-0.134
Mof_H 	H 	0.3211	0.9119	0.5454	0.085
Mof_C 	C 	0.67975	0.4974	0.08896	0.093
Mof_C 	C 	0.80641	0.493	0.24341	0.075
Mof_H 	H 	0.8505	0.476	0.2645	-0.025
Mof_C 	C 	0.20578	0.8272	0.50573	0.103
Mof_C 	C 	0.71538	0.4	0.97817	0.053
Mof_C 	C 	0.96693	0.623	0.46955	0.07
Mof_H 	H 	0.9446	0.6006	0.4897	-0.019
Mof_C 	C 	0.53298	0.5754	0.96759	0.068
Mof_C 	C 	0.80787	0.3218	0.97987	0.072
Mof_H 	H 	0.8495	0.2977	0.0009	-0.01
Mof_C 	C 	0.32562	0.9592	0.47431	0.09
Mof_H 	H 	0.3674	0.9833	0.4946	-0.014
Mof_C 	C 	0.2457	0.7067	0.73784	0.069
Mof_H 	H 	0.2271	0.6714	0.7554	-0.016
Mof_C 	C 	0.97349	0.6448	0.38455	0.072
Mof_H 	H 	0.9563	0.6366	0.3449	-0.02
Mof_C 	C 	0.71054	0.5514	0.24062	0.079
Mof_H 	H 	0.6874	0.5748	0.2598	-0.015
Mof_C 	C 	0.5023	0.5755	0.90795	-0.139
Mof_H 	H 	0.5209	0.5469	0.887	0.08
Mof_C 	C 	0.71131	0.5074	0.1525	0.055
Mof_C 	C 	0.23623	0.878	0.47519	0.068
Mof_C 	C 	0.32724	0.7969	0.7446	0.087
Mof_H 	H 	0.3659	0.8259	0.7672	-0.022
Mof_C 	C 	0.77757	0.4817	0.18415	-0.143
Mof_H 	H 	0.8016	0.4576	0.166	0.073
Mof_C 	C 	0.68635	0.3917	0.91899	-0.135
Mof_H 	H 	0.6444	0.4144	0.8969	0.078
Mof_C 	C 	0.20461	0.8889	0.41566	-0.134
Mof_H 	H 	0.1626	0.8661	0.3941	0.084
Mof_C 	C 	0.30199	0.8053	0.68565	-0.142
Mof_H 	H 	0.3235	0.8378	0.669	0.084
Mof_C 	C 	0.21602	0.7116	0.67845	-0.134
Mof_H 	H 	0.1784	0.6804	0.6567	0.069
Mof_C 	C 	0.44322	0.6191	0.88008	0.085
Mof_H 	H 	0.4234	0.6202	0.84	-0.008
Mof_N 	N 	0.93951	0.61428	0.41219	-0.214
Mof_N 	N 	0.29617	0.96893	0.41734	-0.193
Mof_N 	N 	0.30019	0.7502	0.77175	-0.2
Mof_N 	N 	0.14811	0.78904	0.47305	-0.138
Mof_N 	N 	0.23846	0.8227	0.56327	-0.137
Mof_N 	N 	0.15352	0.73159	0.55984	-0.142
Mof_N 	N 	0.41322	0.6598	0.90774	-0.188
Mof_N 	N 	0.78014	0.31468	0.92206	-0.208
Mof_N 	N 	0.77477	0.5268	0.27187	-0.199
Mof_N 	N 	0.6259	0.49018	0.9734	-0.14
Mof_N 	N 	0.71091	0.45088	0.06483	-0.148
Mof_N 	N 	0.62201	0.53761	0.05936	-0.136
Mof_Ag	Ag	0.65596	0.04164	0.13189	0.522
Mof_Ag	Ag	0.17695	0.24999	0.63235	0.535
Mof_C 	C 	0.37572	0.2425	0.99705	0.099
Mof_C 	C 	0.2643	0.4333	0.11096	0.083
Mof_H 	H 	0.2861	0.4391	0.1508	-0.009
Mof_C 	C 	0.99719	0.117	0.5032	-0.136
Mof_H 	H 	0.9778	0.1173	0.4631	0.086
Mof_C 	C 	0.90269	0.0309	0.49842	0.098
Mof_C 	C 	0.43987	0.1975	0.02935	0.058
Mof_C 	C 	0.4668	0.1881	0.0887	-0.141
Mof_H 	H 	0.4456	0.2101	0.1099	0.081
Mof_C 	C 	0.78024	0.8499	0.60705	0.067
Mof_H 	H 	0.8005	0.8456	0.647	-0.026
Mof_C 	C 	0.7222	0.863	0.49024	-0.135
Mof_H 	H 	0.7014	0.866	0.4502	0.074
Mof_C 	C 	0.47328	0.1634	0.9997	-0.141
Mof_H 	H 	0.4558	0.1677	0.9598	0.073
Mof_C 	C 	0.05653	0.1581	0.53411	0.085
Mof_H 	H 	0.0766	0.1858	0.514	-0.012
Mof_C 	C 	0.25693	0.2635	0.84813	0.059
Mof_C 	C 	0.82187	0.0431	0.31822	-0.139
Mof_H 	H 	0.8658	0.0615	0.3383	0.082
Mof_C 	C 	0.28965	0.2734	0.91176	0.1
Mof_C 	C 	0.81789	0.9495	0.49264	0.094
Mof_C 	C 	0.20144	0.4158	0.99451	-0.132
Mof_H 	H 	0.1789	0.4119	0.9546	0.084
Mof_C 	C 	0.82025	0.9974	0.41104	0.094
Mof_C 	C 	0.69359	0.993	0.25659	0.076
Mof_H 	H 	0.6495	0.976	0.2355	-0.025
Mof_C 	C 	0.29422	0.3272	0.99427	0.104
Mof_C 	C 	0.78462	0.9	0.52183	0.055
Mof_C 	C 	0.53307	0.123	0.03045	0.069
Mof_H 	H 	0.5554	0.1006	0.0103	-0.019
Mof_C 	C 	0.96702	0.0754	0.53241	0.069
Mof_C 	C 	0.69213	0.8218	0.52013	0.074
Mof_H 	H 	0.6505	0.7977	0.4991	-0.011
Mof_C 	C 	0.17438	0.4592	0.02569	0.088
Mof_H 	H 	0.1326	0.4833	0.0054	-0.013
Mof_C 	C 	0.2543	0.2067	0.76216	0.069
Mof_H 	H 	0.2729	0.1714	0.7446	-0.016
Mof_C 	C 	0.52651	0.1448	0.11545	0.071
Mof_H 	H 	0.5437	0.1366	0.1551	-0.02
Mof_C 	C 	0.78946	0.0514	0.25938	0.079
Mof_H 	H 	0.8126	0.0748	0.2402	-0.015
Mof_C 	C 	0.9977	0.0755	0.59205	-0.139
Mof_H 	H 	0.9791	0.0469	0.613	0.081
Mof_C 	C 	0.78869	0.0074	0.3475	0.055
Mof_C 	C 	0.26377	0.378	0.02481	0.066
Mof_C 	C 	0.17276	0.2969	0.7554	0.087
Mof_H 	H 	0.1341	0.3259	0.7328	-0.022
Mof_C 	C 	0.72243	0.9817	0.31585	-0.142
Mof_H 	H 	0.6984	0.9576	0.334	0.073
Mof_C 	C 	0.81365	0.8917	0.58101	-0.136
Mof_H 	H 	0.8556	0.9144	0.6031	0.078
Mof_C 	C 	0.29539	0.3889	0.08434	-0.133
Mof_H 	H 	0.3374	0.3661	0.1059	0.084
Mof_C 	C 	0.19801	0.3053	0.81435	-0.142
Mof_H 	H 	0.1765	0.3378	0.831	0.084
Mof_C 	C 	0.28398	0.2116	0.82155	-0.134
Mof_H 	H 	0.3216	0.1804	0.8433	0.069
Mof_C 	C 	0.05678	0.1191	0.61992	0.085
Mof_H 	H 	0.0766	0.1202	0.66	-0.008
Mof_N 	N 	0.56049	0.11428	0.08781	-0.214
Mof_N 	N 	0.20383	0.46893	0.08266	-0.193
Mof_N 	N 	0.19981	0.2502	0.72825	-0.2
Mof_N 	N 	0.35189	0.28904	0.02695	-0.138
Mof_N 	N 	0.26154	0.3227	0.93673	-0.137
Mof_N 	N 	0.34648	0.23159	0.94016	-0.142
Mof_N 	N 	0.08678	0.1598	0.59226	-0.188
Mof_N 	N 	0.71986	0.81468	0.57794	-0.209
Mof_N 	N 	0.72523	0.0268	0.22813	-0.199
Mof_N 	N 	0.8741	0.99018	0.5266	-0.14
Mof_N 	N 	0.78909	0.95088	0.43517	-0.148
Mof_N 	N 	0.87799	0.03761	0.44064	-0.136
Mof_Ag	Ag	0.15596	0.54164	0.13189	0.522
Mof_Ag	Ag	0.67695	0.74999	0.63235	0.535
Mof_C 	C 	0.87572	0.7425	0.99705	0.096
Mof_C 	C 	0.7643	0.9333	0.11096	0.085
Mof_H 	H 	0.7861	0.9391	0.1508	-0.01
Mof_C 	C 	0.49719	0.617	0.5032	-0.135
Mof_H 	H 	0.4778	0.6173	0.4631	0.086
Mof_C 	C 	0.40269	0.5309	0.49842	0.098
Mof_C 	C 	0.93987	0.6975	0.02935	0.062
Mof_C 	C 	0.9668	0.6881	0.0887	-0.142
Mof_H 	H 	0.9456	0.7101	0.1099	0.082
Mof_C 	C 	0.28024	0.3499	0.60705	0.067
Mof_H 	H 	0.3005	0.3456	0.647	-0.026
Mof_C 	C 	0.2222	0.363	0.49024	-0.135
Mof_H 	H 	0.2014	0.366	0.4502	0.074
Mof_C 	C 	0.97328	0.6634	0.9997	-0.145
Mof_H 	H 	0.9558	0.6677	0.9598	0.075
Mof_C 	C 	0.55653	0.6581	0.53411	0.084
Mof_H 	H 	0.5766	0.6858	0.514	-0.012
Mof_C 	C 	0.75693	0.7635	0.84813	0.059
Mof_C 	C 	0.32187	0.5431	0.31822	-0.139
Mof_H 	H 	0.3658	0.5615	0.3383	0.082
Mof_C 	C 	0.78965	0.7734	0.91176	0.1
Mof_C 	C 	0.31789	0.4495	0.49264	0.094
Mof_C 	C 	0.70144	0.9158	0.99451	-0.138
Mof_H 	H 	0.6789	0.9119	0.9546	0.086
Mof_C 	C 	0.32025	0.4974	0.41104	0.093
Mof_C 	C 	0.19359	0.493	0.25659	0.075
Mof_H 	H 	0.1495	0.476	0.2355	-0.025
Mof_C 	C 	0.79422	0.8272	0.99427	0.101
Mof_C 	C 	0.28462	0.4	0.52183	0.055
Mof_C 	C 	0.03307	0.623	0.03045	0.071
Mof_H 	H 	0.0554	0.6006	0.0103	-0.02
Mof_C 	C 	0.46702	0.5754	0.53241	0.068
Mof_C 	C 	0.19213	0.3218	0.52013	0.074
Mof_H 	H 	0.1505	0.2977	0.4991	-0.011
Mof_C 	C 	0.67438	0.9592	0.02569	0.092
Mof_H 	H 	0.6326	0.9833	0.0054	-0.014
Mof_C 	C 	0.7543	0.7067	0.76216	0.069
Mof_H 	H 	0.7729	0.6714	0.7446	-0.016
Mof_C 	C 	0.02651	0.6448	0.11545	0.072
Mof_H 	H 	0.0437	0.6366	0.1551	-0.02
Mof_C 	C 	0.28946	0.5514	0.25938	0.079
Mof_H 	H 	0.3126	0.5748	0.2402	-0.015
Mof_C 	C 	0.4977	0.5755	0.59205	-0.139
Mof_H 	H 	0.4791	0.5469	0.613	0.08
Mof_C 	C 	0.28869	0.5074	0.3475	0.055
Mof_C 	C 	0.76377	0.878	0.02481	0.072
Mof_C 	C 	0.67276	0.7969	0.7554	0.087
Mof_H 	H 	0.6341	0.8259	0.7328	-0.022
Mof_C 	C 	0.22243	0.4817	0.31585	-0.143
Mof_H 	H 	0.1984	0.4576	0.334	0.073
Mof_C 	C 	0.31365	0.3917	0.58101	-0.136
Mof_H 	H 	0.3556	0.4144	0.6031	0.078
Mof_C 	C 	0.79539	0.8889	0.08434	-0.136
Mof_H 	H 	0.8374	0.8661	0.1059	0.085
Mof_C 	C 	0.69801	0.8053	0.81435	-0.142
Mof_H 	H 	0.6765	0.8378	0.831	0.084
Mof_C 	C 	0.78398	0.7116	0.82155	-0.134
Mof_H 	H 	0.8216	0.6804	0.8433	0.069
Mof_C 	C 	0.55678	0.6191	0.61992	0.085
Mof_H 	H 	0.5766	0.6202	0.66	-0.008
Mof_N 	N 	0.06049	0.61428	0.08781	-0.214
Mof_N 	N 	0.70383	0.96893	0.08266	-0.194
Mof_N 	N 	0.69981	0.7502	0.72825	-0.2
Mof_N 	N 	0.85189	0.78904	0.02695	-0.136
Mof_N 	N 	0.76154	0.8227	0.93673	-0.137
Mof_N 	N 	0.84648	0.73159	0.94016	-0.142
Mof_N 	N 	0.58678	0.6598	0.59226	-0.188
Mof_N 	N 	0.21986	0.31468	0.57794	-0.209
Mof_N 	N 	0.22523	0.5268	0.22813	-0.199
Mof_N 	N 	0.3741	0.49018	0.5266	-0.14
Mof_N 	N 	0.28909	0.45088	0.43517	-0.148
Mof_N 	N 	0.37799	0.53761	0.44064	-0.136
Mof_Ag	Ag	0.65596	0.95836	0.63189	0.523
Mof_Ag	Ag	0.17695	0.75001	0.13235	0.535
Mof_C 	C 	0.37572	0.7575	0.49705	0.099
Mof_C 	C 	0.2643	0.5667	0.61096	0.084
Mof_H 	H 	0.2861	0.5609	0.6508	-0.01
Mof_C 	C 	0.99719	0.883	0.0032	-0.131
Mof_H 	H 	0.9778	0.8827	0.9631	0.084
Mof_C 	C 	0.90269	0.9691	0.99842	0.097
Mof_C 	C 	0.43987	0.8025	0.52935	0.06
Mof_C 	C 	0.4668	0.8119	0.5887	-0.142
Mof_H 	H 	0.4456	0.7899	0.6099	0.081
Mof_C 	C 	0.78024	0.1501	0.10705	0.067
Mof_H 	H 	0.8005	0.1544	0.147	-0.026
Mof_C 	C 	0.7222	0.137	0.99024	-0.136
Mof_H 	H 	0.7014	0.134	0.9502	0.074
Mof_C 	C 	0.47328	0.8366	0.4997	-0.142
Mof_H 	H 	0.4558	0.8323	0.4598	0.074
Mof_C 	C 	0.05653	0.8419	0.03411	0.082
Mof_H 	H 	0.0766	0.8142	0.014	-0.011
Mof_C 	C 	0.25693	0.7365	0.34813	0.059
Mof_C 	C 	0.82187	0.9569	0.81822	-0.138
Mof_H 	H 	0.8658	0.9385	0.8383	0.082
Mof_C 	C 	0.28965	0.7266	0.41176	0.1
Mof_C 	C 	0.81789	0.0505	0.99264	0.093
Mof_C 	C 	0.20144	0.5842	0.49451	-0.134
Mof_H 	H 	0.1789	0.5881	0.4546	0.085
Mof_C 	C 	0.82025	0.0026	0.91104	0.094
Mof_C 	C 	0.69359	0.007	0.75659	0.075
Mof_H 	H 	0.6495	0.024	0.7355	-0.025
Mof_C 	C 	0.29422	0.6728	0.49427	0.103
Mof_C 	C 	0.78462	0.1	0.02183	0.055
Mof_C 	C 	0.53307	0.877	0.53045	0.069
Mof_H 	H 	0.5554	0.8994	0.5103	-0.019
Mof_C 	C 	0.96702	0.9246	0.03241	0.068
Mof_C 	C 	0.69213	0.1782	0.02013	0.075
Mof_H 	H 	0.6505	0.2023	0.9991	-0.011
Mof_C 	C 	0.17438	0.5408	0.52569	0.09
Mof_H 	H 	0.1326	0.5167	0.5054	-0.014
Mof_C 	C 	0.2543	0.7933	0.26216	0.069
Mof_H 	H 	0.2729	0.8286	0.2446	-0.016
Mof_C 	C 	0.52651	0.8552	0.61545	0.072
Mof_H 	H 	0.5437	0.8634	0.6551	-0.02
Mof_C 	C 	0.78946	0.9486	0.75938	0.079
Mof_H 	H 	0.8126	0.9252	0.7402	-0.015
Mof_C 	C 	0.9977	0.9245	0.09205	-0.137
Mof_H 	H 	0.9791	0.9531	0.113	0.08
Mof_C 	C 	0.78869	0.9926	0.8475	0.055
Mof_C 	C 	0.26377	0.622	0.52481	0.068
Mof_C 	C 	0.17276	0.7031	0.2554	0.087
Mof_H 	H 	0.1341	0.6741	0.2328	-0.022
Mof_C 	C 	0.72243	0.0183	0.81585	-0.142
Mof_H 	H 	0.6984	0.0424	0.834	0.073
Mof_C 	C 	0.81365	0.1083	0.08101	-0.136
Mof_H 	H 	0.8556	0.0856	0.1031	0.078
Mof_C 	C 	0.29539	0.6111	0.58434	-0.134
Mof_H 	H 	0.3374	0.6339	0.6059	0.084
Mof_C 	C 	0.19801	0.6947	0.31435	-0.142
Mof_H 	H 	0.1765	0.6622	0.331	0.084
Mof_C 	C 	0.28398	0.7884	0.32155	-0.134
Mof_H 	H 	0.3216	0.8196	0.3433	0.069
Mof_C 	C 	0.05678	0.8809	0.11992	0.083
Mof_H 	H 	0.0766	0.8798	0.16	-0.007
Mof_N 	N 	0.56049	0.88572	0.58781	-0.214
Mof_N 	N 	0.20383	0.53107	0.58266	-0.193
Mof_N 	N 	0.19981	0.7498	0.22825	-0.2
Mof_N 	N 	0.35189	0.71096	0.52695	-0.138
Mof_N 	N 	0.26154	0.6773	0.43673	-0.137
Mof_N 	N 	0.34648	0.76841	0.44016	-0.142
Mof_N 	N 	0.08678	0.8402	0.09226	-0.187
Mof_N 	N 	0.71986	0.18532	0.07794	-0.209
Mof_N 	N 	0.72523	0.9732	0.72813	-0.199
Mof_N 	N 	0.8741	0.00982	0.0266	-0.14
Mof_N 	N 	0.78909	0.04912	0.93517	-0.148
Mof_N 	N 	0.87799	0.96239	0.94064	-0.136
Mof_Ag	Ag	0.15596	0.45836	0.63189	0.523
Mof_Ag	Ag	0.67695	0.25001	0.13235	0.535
Mof_C 	C 	0.87572	0.2575	0.49705	0.099
Mof_C 	C 	0.7643	0.0667	0.61096	0.084
Mof_H 	H 	0.7861	0.0609	0.6508	-0.01
Mof_C 	C 	0.49719	0.383	0.0032	-0.136
Mof_H 	H 	0.4778	0.3827	0.9631	0.086
Mof_C 	C 	0.40269	0.4691	0.99842	0.098
Mof_C 	C 	0.93987	0.3025	0.52935	0.06
Mof_C 	C 	0.9668	0.3119	0.5887	-0.142
Mof_H 	H 	0.9456	0.2899	0.6099	0.082
Mof_C 	C 	0.28024	0.6501	0.10705	0.067
Mof_H 	H 	0.3005	0.6544	0.147	-0.025
Mof_C 	C 	0.2222	0.637	0.99024	-0.133
Mof_H 	H 	0.2014	0.634	0.9502	0.073
Mof_C 	C 	0.97328	0.3366	0.4997	-0.142
Mof_H 	H 	0.9558	0.3323	0.4598	0.074
Mof_C 	C 	0.55653	0.3419	0.03411	0.085
Mof_H 	H 	0.5766	0.3142	0.014	-0.012
Mof_C 	C 	0.75693	0.2365	0.34813	0.059
Mof_C 	C 	0.32187	0.4569	0.81822	-0.139
Mof_H 	H 	0.3658	0.4385	0.8383	0.082
Mof_C 	C 	0.78965	0.2266	0.41176	0.1
Mof_C 	C 	0.31789	0.5505	0.99264	0.095
Mof_C 	C 	0.70144	0.0842	0.49451	-0.134
Mof_H 	H 	0.6789	0.0881	0.4546	0.085
Mof_C 	C 	0.32025	0.5026	0.91104	0.093
Mof_C 	C 	0.19359	0.507	0.75659	0.075
Mof_H 	H 	0.1495	0.524	0.7355	-0.025
Mof_C 	C 	0.79422	0.1728	0.49427	0.103
Mof_C 	C 	0.28462	0.6	0.02183	0.053
Mof_C 	C 	0.03307	0.377	0.53045	0.07
Mof_H 	H 	0.0554	0.3994	0.5103	-0.019
Mof_C 	C 	0.46702	0.4246	0.03241	0.068
Mof_C 	C 	0.19213	0.6782	0.02013	0.072
Mof_H 	H 	0.1505	0.7023	0.9991	-0.01
Mof_C 	C 	0.67438	0.0408	0.52569	0.09
Mof_H 	H 	0.6326	0.0167	0.5054	-0.014
Mof_C 	C 	0.7543	0.2933	0.26216	0.069
Mof_H 	H 	0.7729	0.3286	0.2446	-0.016
Mof_C 	C 	0.02651	0.3552	0.61545	0.072
Mof_H 	H 	0.0437	0.3634	0.6551	-0.02
Mof_C 	C 	0.28946	0.4486	0.75938	0.079
Mof_H 	H 	0.3126	0.4252	0.7402	-0.015
Mof_C 	C 	0.4977	0.4245	0.09205	-0.139
Mof_H 	H 	0.4791	0.4531	0.113	0.08
Mof_C 	C 	0.28869	0.4926	0.8475	0.055
Mof_C 	C 	0.76377	0.122	0.52481	0.068
Mof_C 	C 	0.67276	0.2031	0.2554	0.087
Mof_H 	H 	0.6341	0.1741	0.2328	-0.022
Mof_C 	C 	0.22243	0.5183	0.81585	-0.143
Mof_H 	H 	0.1984	0.5424	0.834	0.073
Mof_C 	C 	0.31365	0.6083	0.08101	-0.135
Mof_H 	H 	0.3556	0.5856	0.1031	0.078
Mof_C 	C 	0.79539	0.1111	0.58434	-0.134
Mof_H 	H 	0.8374	0.1339	0.6059	0.084
Mof_C 	C 	0.69801	0.1947	0.31435	-0.142
Mof_H 	H 	0.6765	0.1622	0.331	0.084
Mof_C 	C 	0.78398	0.2884	0.32155	-0.134
Mof_H 	H 	0.8216	0.3196	0.3433	0.069
Mof_C 	C 	0.55678	0.3809	0.11992	0.085
Mof_H 	H 	0.5766	0.3798	0.16	-0.008
Mof_N 	N 	0.06049	0.38572	0.58781	-0.214
Mof_N 	N 	0.70383	0.03107	0.58266	-0.193
Mof_N 	N 	0.69981	0.2498	0.22825	-0.2
Mof_N 	N 	0.85189	0.21096	0.52695	-0.138
Mof_N 	N 	0.76154	0.1773	0.43673	-0.137
Mof_N 	N 	0.84648	0.26841	0.44016	-0.142
Mof_N 	N 	0.58678	0.3402	0.09226	-0.188
Mof_N 	N 	0.21986	0.68532	0.07794	-0.208
Mof_N 	N 	0.22523	0.4732	0.72813	-0.199
Mof_N 	N 	0.3741	0.50982	0.0266	-0.14
Mof_N 	N 	0.28909	0.54912	0.93517	-0.148
Mof_N 	N 	0.37799	0.46239	0.94064	-0.136
Mof_Ag	Ag	0.34404	0.95836	0.86811	0.522
Mof_Ag	Ag	0.82305	0.75001	0.36765	0.535
Mof_C 	C 	0.62428	0.7575	0.00295	0.099
Mof_C 	C 	0.7357	0.5667	0.88904	0.083
Mof_H 	H 	0.7139	0.5609	0.8492	-0.009
Mof_C 	C 	0.00281	0.883	0.4968	-0.136
Mof_H 	H 	0.0222	0.8827	0.5369	0.086
Mof_C 	C 	0.09731	0.9691	0.50158	0.098
Mof_C 	C 	0.56013	0.8025	0.97065	0.058
Mof_C 	C 	0.5332	0.8119	0.9113	-0.141
Mof_H 	H 	0.5544	0.7899	0.8901	0.081
Mof_C 	C 	0.21976	0.1501	0.39295	0.067
Mof_H 	H 	0.1995	0.1544	0.353	-0.026
Mof_C 	C 	0.2778	0.137	0.50976	-0.135
Mof_H 	H 	0.2986	0.134	0.5498	0.074
Mof_C 	C 	0.52672	0.8366	0.0003	-0.141
Mof_H 	H 	0.5442	0.8323	0.0402	0.073
Mof_C 	C 	0.94347	0.8419	0.46589	0.085
Mof_H 	H 	0.9234	0.8142	0.486	-0.012
Mof_C 	C 	0.74307	0.7365	0.15187	0.059
Mof_C 	C 	0.17813	0.9569	0.68178	-0.139
Mof_H 	H 	0.1342	0.9385	0.6617	0.082
Mof_C 	C 	0.71035	0.7266	0.08824	0.1
Mof_C 	C 	0.18211	0.0505	0.50736	0.094
Mof_C 	C 	0.79856	0.5842	0.00549	-0.132
Mof_H 	H 	0.8211	0.5881	0.0454	0.084
Mof_C 	C 	0.17975	0.0026	0.58896	0.094
Mof_C 	C 	0.30641	0.007	0.74341	0.076
Mof_H 	H 	0.3505	0.024	0.7645	-0.025
Mof_C 	C 	0.70578	0.6728	0.00573	0.104
Mof_C 	C 	0.21538	0.1	0.47817	0.055
Mof_C 	C 	0.46693	0.877	0.96955	0.069
Mof_H 	H 	0.4446	0.8994	0.9897	-0.019
Mof_C 	C 	0.03298	0.9246	0.46759	0.069
Mof_C 	C 	0.30787	0.1782	0.47987	0.074
Mof_H 	H 	0.3495	0.2023	0.5009	-0.011
Mof_C 	C 	0.82562	0.5408	0.97431	0.088
Mof_H 	H 	0.8674	0.5167	0.9946	-0.013
Mof_C 	C 	0.7457	0.7933	0.23784	0.069
Mof_H 	H 	0.7271	0.8286	0.2554	-0.016
Mof_C 	C 	0.47349	0.8552	0.88455	0.071
Mof_H 	H 	0.4563	0.8634	0.8449	-0.02
Mof_C 	C 	0.21054	0.9486	0.74062	0.079
Mof_H 	H 	0.1874	0.9252	0.7598	-0.015
Mof_C 	C 	0.0023	0.9245	0.40795	-0.139
Mof_H 	H 	0.0209	0.9531	0.387	0.081
Mof_C 	C 	0.21131	0.9926	0.6525	0.055
Mof_C 	C 	0.73623	0.622	0.97519	0.066
Mof_C 	C 	0.82724	0.7031	0.2446	0.087
Mof_H 	H 	0.8659	0.6741	0.2672	-0.022
Mof_C 	C 	0.27757	0.0183	0.68415	-0.142
Mof_H 	H 	0.3016	0.0424	0.666	0.073
Mof_C 	C 	0.18635	0.1083	0.41899	-0.136
Mof_H 	H 	0.1444	0.0856	0.3969	0.078
Mof_C 	C 	0.70461	0.6111	0.91566	-0.133
Mof_H 	H 	0.6626	0.6339	0.8941	0.084
Mof_C 	C 	0.80199	0.6947	0.18565	-0.142
Mof_H 	H 	0.8235	0.6622	0.169	0.084
Mof_C 	C 	0.71602	0.7884	0.17845	-0.134
Mof_H 	H 	0.6784	0.8196	0.1567	0.069
Mof_C 	C 	0.94322	0.8809	0.38008	0.085
Mof_H 	H 	0.9234	0.8798	0.34	-0.008
Mof_N 	N 	0.43951	0.88572	0.91219	-0.214
Mof_N 	N 	0.79617	0.53107	0.91734	-0.193
Mof_N 	N 	0.80019	0.7498	0.27175	-0.2
Mof_N 	N 	0.64811	0.71096	0.97305	-0.138
Mof_N 	N 	0.73846	0.6773	0.06327	-0.137
Mof_N 	N 	0.65352	0.76841	0.05984	-0.142
Mof_N 	N 	0.91322	0.8402	0.40774	-0.188
Mof_N 	N 	0.28014	0.18532	0.42206	-0.209
Mof_N 	N 	0.27477	0.9732	0.77187	-0.199
Mof_N 	N 	0.1259	0.00982	0.4734	-0.14
Mof_N 	N 	0.21091	0.04912	0.56483	-0.148
Mof_N 	N 	0.12201	0.96239	0.55936	-0.136
Mof_Ag	Ag	0.84404	0.45836	0.86811	0.522
Mof_Ag	Ag	0.32305	0.25001	0.36765	0.535
Mof_C 	C 	0.12428	0.2575	0.00295	0.096
Mof_C 	C 	0.2357	0.0667	0.88904	0.085
Mof_H 	H 	0.2139	0.0609	0.8492	-0.01
Mof_C 	C 	0.50281	0.383	0.4968	-0.135
Mof_H 	H 	0.5222	0.3827	0.5369	0.086
Mof_C 	C 	0.59731	0.4691	0.50158	0.098
Mof_C 	C 	0.06013	0.3025	0.97065	0.062
Mof_C 	C 	0.0332	0.3119	0.9113	-0.142
Mof_H 	H 	0.0544	0.2899	0.8901	0.082
Mof_C 	C 	0.71976	0.6501	0.39295	0.067
Mof_H 	H 	0.6995	0.6544	0.353	-0.026
Mof_C 	C 	0.7778	0.637	0.50976	-0.135
Mof_H 	H 	0.7986	0.634	0.5498	0.074
Mof_C 	C 	0.02672	0.3366	0.0003	-0.145
Mof_H 	H 	0.0442	0.3323	0.0402	0.075
Mof_C 	C 	0.44347	0.3419	0.46589	0.084
Mof_H 	H 	0.4234	0.3142	0.486	-0.012
Mof_C 	C 	0.24307	0.2365	0.15187	0.059
Mof_C 	C 	0.67813	0.4569	0.68178	-0.139
Mof_H 	H 	0.6342	0.4385	0.6617	0.082
Mof_C 	C 	0.21035	0.2266	0.08824	0.1
Mof_C 	C 	0.68211	0.5505	0.50736	0.094
Mof_C 	C 	0.29856	0.0842	0.00549	-0.138
Mof_H 	H 	0.3211	0.0881	0.0454	0.086
Mof_C 	C 	0.67975	0.5026	0.58896	0.093
Mof_C 	C 	0.80641	0.507	0.74341	0.075
Mof_H 	H 	0.8505	0.524	0.7645	-0.025
Mof_C 	C 	0.20578	0.1728	0.00573	0.101
Mof_C 	C 	0.71538	0.6	0.47817	0.055
Mof_C 	C 	0.96693	0.377	0.96955	0.071
Mof_H 	H 	0.9446	0.3994	0.9897	-0.02
Mof_C 	C 	0.53298	0.4246	0.46759	0.068
Mof_C 	C 	0.80787	0.6782	0.47987	0.074
Mof_H 	H 	0.8495	0.7023	0.5009	-0.011
Mof_C 	C 	0.32562	0.0408	0.97431	0.092
Mof_H 	H 	0.3674	0.0167	0.9946	-0.014
Mof_C 	C 	0.2457	0.2933	0.23784	0.069
Mof_H 	H 	0.2271	0.3286	0.2554	-0.016
Mof_C 	C 	0.97349	0.3552	0.88455	0.072
Mof_H 	H 	0.9563	0.3634	0.8449	-0.02
Mof_C 	C 	0.71054	0.4486	0.74062	0.079
Mof_H 	H 	0.6874	0.4252	0.7598	-0.015
Mof_C 	C 	0.5023	0.4245	0.40795	-0.139
Mof_H 	H 	0.5209	0.4531	0.387	0.08
Mof_C 	C 	0.71131	0.4926	0.6525	0.055
Mof_C 	C 	0.23623	0.122	0.97519	0.072
Mof_C 	C 	0.32724	0.2031	0.2446	0.087
Mof_H 	H 	0.3659	0.1741	0.2672	-0.022
Mof_C 	C 	0.77757	0.5183	0.68415	-0.143
Mof_H 	H 	0.8016	0.5424	0.666	0.073
Mof_C 	C 	0.68635	0.6083	0.41899	-0.136
Mof_H 	H 	0.6444	0.5856	0.3969	0.078
Mof_C 	C 	0.20461	0.1111	0.91566	-0.136
Mof_H 	H 	0.1626	0.1339	0.8941	0.085
Mof_C 	C 	0.30199	0.1947	0.18565	-0.142
Mof_H 	H 	0.3235	0.1622	0.169	0.084
Mof_C 	C 	0.21602	0.2884	0.17845	-0.134
Mof_H 	H 	0.1784	0.3196	0.1567	0.069
Mof_C 	C 	0.44322	0.3809	0.38008	0.085
Mof_H 	H 	0.4234	0.3798	0.34	-0.008
Mof_N 	N 	0.93951	0.38572	0.91219	-0.214
Mof_N 	N 	0.29617	0.03107	0.91734	-0.194
Mof_N 	N 	0.30019	0.2498	0.27175	-0.2
Mof_N 	N 	0.14811	0.21096	0.97305	-0.136
Mof_N 	N 	0.23846	0.1773	0.06327	-0.137
Mof_N 	N 	0.15352	0.26841	0.05984	-0.142
Mof_N 	N 	0.41322	0.3402	0.40774	-0.188
Mof_N 	N 	0.78014	0.68532	0.42206	-0.209
Mof_N 	N 	0.77477	0.4732	0.77187	-0.199
Mof_N 	N 	0.6259	0.50982	0.4734	-0.14
Mof_N 	N 	0.71091	0.54912	0.56483	-0.148
Mof_N 	N 	0.62201	0.46239	0.55936	-0.136
_end
