data_functionalizedCrystal
_audit_creation_method	'EQeq! by Chris Wilmer'
_symmetry_space_group_name_H-M	'P1'
_symmetry_Int_Tables_number	1
_symmetry_cell_setting	triclinic
loop_
_symmetry_equiv_pos_as_xyz
  x,y,z
_cell_length_a	3.689
_cell_length_b	17.64
_cell_length_c	12.385
_cell_angle_alpha	91.247
_cell_angle_beta	90
_cell_angle_gamma	90
loop_
_atom_site_label
_atom_site_type_symbol
_atom_site_fract_x
_atom_site_fract_y
_atom_site_fract_z
_atom_site_charge
Mof_Eu	Eu	0.75	0.9051	0.4485	2.301
Mof_Eu	Eu	0.25	0.7327	0.2905	2.014
Mof_Eu	Eu	0.75	0.5408	0.3688	2.256
Mof_Eu	Eu	0.25	0.0949	0.5515	2.352
Mof_Eu	Eu	0.75	0.2673	0.7095	1.984
Mof_Eu	Eu	0.25	0.4592	0.6312	2.275
Mof_C 	C 	0.64	0.726	0.718	0.064
Mof_C 	C 	0.545	0.588	0.733	0.319
Mof_C 	C 	0.77	0.862	0.697	0.433
Mof_C 	C 	0.83	0.726	0.941	-0.141
Mof_C 	C 	0.73	0.663	0.886	0.085
Mof_C 	C 	0.87	0.795	0.87	0.062
Mof_C 	C 	0.854	0.787	0.759	-0.119
Mof_C 	C 	0.585	0.664	0.781	-0.12
Mof_C 	C 	0.98	0.738	0.041	0.305
Mof_C 	C 	0.14	0.274	0.282	0.066
Mof_C 	C 	0.045	0.412	0.267	0.328
Mof_C 	C 	0.27	0.138	0.303	0.437
Mof_C 	C 	0.33	0.274	0.059	-0.147
Mof_C 	C 	0.23	0.337	0.114	0.089
Mof_C 	C 	0.37	0.205	0.13	0.065
Mof_C 	C 	0.354	0.213	0.241	-0.119
Mof_C 	C 	0.085	0.336	0.219	-0.124
Mof_C 	C 	0.48	0.262	0.959	0.321
Mof_O 	O 	0.735	0.048	0.446	-0.758
Mof_O 	O 	0.25	0.596	0.281	-0.816
Mof_O 	O 	0.755	0.829	0.284	-0.704
Mof_O 	O 	0.235	0.813	0.456	-0.696
Mof_O 	O 	0.755	0.685	0.394	-0.747
Mof_O 	O 	0.805	0.543	0.701	-0.584
Mof_O 	O 	0.24	0.949	0.322	-0.492
Mof_O 	O 	0.19	0.794	0.075	-0.296
Mof_O 	O 	0.66	0.849	0.609	-0.552
Mof_O 	O 	0.28	0.553	0.779	-0.401
Mof_O 	O 	0.25	0.561	0.496	-0.789
Mof_O 	O 	0.795	0.714	0.13	-0.495
Mof_O 	O 	0.605	0.912	0.76	-0.248
Mof_O 	O 	0.235	0.952	0.554	-0.741
Mof_O 	O 	0.75	0.404	0.719	-0.822
Mof_O 	O 	0.255	0.171	0.716	-0.694
Mof_O 	O 	0.735	0.187	0.544	-0.711
Mof_O 	O 	0.255	0.315	0.606	-0.738
Mof_O 	O 	0.305	0.457	0.299	-0.581
Mof_O 	O 	0.74	0.051	0.678	-0.507
Mof_O 	O 	0.69	0.206	0.925	-0.31
Mof_O 	O 	0.16	0.151	0.391	-0.554
Mof_O 	O 	0.78	0.447	0.221	-0.408
Mof_O 	O 	0.75	0.439	0.504	-0.795
Mof_O 	O 	0.295	0.286	0.87	-0.49
Mof_O 	O 	0.105	0.088	0.24	-0.247
Mof_H 	H 	0.51656	0.72895	0.63381	0.019
Mof_H 	H 	0.76107	0.60516	0.92425	0.022
Mof_H 	H 	0.91337	0.85358	0.90853	0.052
Mof_H 	H 	0.01656	0.27105	0.36619	0.02
Mof_H 	H 	0.26107	0.39484	0.07575	0.022
Mof_H 	H 	0.41337	0.14642	0.09147	0.055
_end
