# CIF file generated by openbabel 3.1.0, see https://openbabel.org
data_I
_chemical_name_common 'YAQZUN_clean'
_cell_length_a 9.9736
_cell_length_b 12.7051
_cell_length_c 12.8489
_cell_angle_alpha 90
_cell_angle_beta 90
_cell_angle_gamma 90
_space_group_name_H-M_alt 'P 1'
_space_group_name_Hall 'P 1'
loop_
    _symmetry_equiv_pos_as_xyz
    x,y,z
loop_
    _atom_site_label
    _atom_site_type_symbol
    _atom_site_fract_x
    _atom_site_fract_y
    _atom_site_fract_z
    _atom_site_occupancy
    U1       U        0.59489    0.18686    0.20140    1.000
    U2       U        0.09489    0.31314    0.29860    1.000
    U3       U        0.90511    0.18686    0.79860    1.000
    U4       U        0.40511    0.31314    0.70140    1.000
    U5       U        0.40511    0.81314    0.79860    1.000
    U6       U        0.90511    0.68686    0.70140    1.000
    U7       U        0.09489    0.81314    0.20140    1.000
    U8       U        0.59489    0.68686    0.29860    1.000
    H1       H        0.84950    0.93810    0.37770    1.000
    H2       H        0.34950    0.56190    0.12230    1.000
    H3       H        0.65050    0.93810    0.62230    1.000
    H4       H        0.15050    0.56190    0.87770    1.000
    H5       H        0.15050    0.06190    0.62230    1.000
    H6       H        0.65050    0.43810    0.87770    1.000
    H7       H        0.34950    0.06190    0.37770    1.000
    H8       H        0.84950    0.43810    0.12230    1.000
    C1       C        0.84520    0.14180    0.36960    1.000
    C2       C        0.03060    0.22250    0.54580    1.000
    C3       C        0.01630    0.10860    0.51440    1.000
    C4       C        0.92550    0.07130    0.43970    1.000
    C5       C        0.91020    0.96310    0.42680    1.000
    C6       C        0.34520    0.35820    0.13040    1.000
    C7       C        0.53060    0.27750    0.95420    1.000
    C8       C        0.51630    0.39140    0.98560    1.000
    C9       C        0.42550    0.42870    0.06030    1.000
    C10      C        0.41020    0.53690    0.07320    1.000
    C11      C        0.65480    0.14180    0.63040    1.000
    C12      C        0.46940    0.22250    0.45420    1.000
    C13      C        0.48370    0.10860    0.48560    1.000
    C14      C        0.57450    0.07130    0.56030    1.000
    C15      C        0.58980    0.96310    0.57320    1.000
    C16      C        0.15480    0.35820    0.86960    1.000
    C17      C        0.96940    0.27750    0.04580    1.000
    C18      C        0.98370    0.39140    0.01440    1.000
    C19      C        0.07450    0.42870    0.93970    1.000
    C20      C        0.08980    0.53690    0.92680    1.000
    C21      C        0.15480    0.85820    0.63040    1.000
    C22      C        0.96940    0.77750    0.45420    1.000
    C23      C        0.98370    0.89140    0.48560    1.000
    C24      C        0.07450    0.92870    0.56030    1.000
    C25      C        0.08980    0.03690    0.57320    1.000
    C26      C        0.65480    0.64180    0.86960    1.000
    C27      C        0.46940    0.72250    0.04580    1.000
    C28      C        0.48370    0.60860    0.01440    1.000
    C29      C        0.57450    0.57130    0.93970    1.000
    C30      C        0.58980    0.46310    0.92680    1.000
    C31      C        0.34520    0.85820    0.36960    1.000
    C32      C        0.53060    0.77750    0.54580    1.000
    C33      C        0.51630    0.89140    0.51440    1.000
    C34      C        0.42550    0.92870    0.43970    1.000
    C35      C        0.41020    0.03690    0.42680    1.000
    C36      C        0.84520    0.64180    0.13040    1.000
    C37      C        0.03060    0.72250    0.95420    1.000
    C38      C        0.01630    0.60860    0.98560    1.000
    C39      C        0.92550    0.57130    0.06030    1.000
    C40      C        0.91020    0.46310    0.07320    1.000
    O1       O        0.73310    0.11023    0.33834    1.000
    O2       O        0.07850    0.29115    0.48574    1.000
    O3       O        0.99960    0.24492    0.63774    1.000
    O4       O        0.89370    0.23010    0.34440    1.000
    O5       O        0.23310    0.38977    0.16166    1.000
    O6       O        0.57850    0.20885    0.01426    1.000
    O7       O        0.49960    0.25508    0.86226    1.000
    O8       O        0.39370    0.26990    0.15560    1.000
    O9       O        0.76690    0.11023    0.66166    1.000
    O10      O        0.42150    0.29115    0.51426    1.000
    O11      O        0.50040    0.24492    0.36226    1.000
    O12      O        0.60630    0.23010    0.65560    1.000
    O13      O        0.26690    0.38977    0.83834    1.000
    O14      O        0.92150    0.20885    0.98574    1.000
    O15      O        0.00040    0.25508    0.13774    1.000
    O16      O        0.10630    0.26990    0.84440    1.000
    O17      O        0.26690    0.88977    0.66166    1.000
    O18      O        0.92150    0.70885    0.51426    1.000
    O19      O        0.00040    0.75508    0.36226    1.000
    O20      O        0.10630    0.76990    0.65560    1.000
    O21      O        0.76690    0.61023    0.83834    1.000
    O22      O        0.42150    0.79115    0.98574    1.000
    O23      O        0.50040    0.74492    0.13774    1.000
    O24      O        0.60630    0.73010    0.84440    1.000
    O25      O        0.23310    0.88977    0.33834    1.000
    O26      O        0.57850    0.70885    0.48574    1.000
    O27      O        0.49960    0.75508    0.63774    1.000
    O28      O        0.39370    0.76990    0.34440    1.000
    O29      O        0.73310    0.61023    0.16166    1.000
    O30      O        0.07850    0.79115    0.01426    1.000
    O31      O        0.99960    0.74492    0.86226    1.000
    O32      O        0.89370    0.73010    0.15560    1.000
