data_functionalizedCrystal
_audit_creation_method	'EQeq! by Chris Wilmer'
_symmetry_space_group_name_H-M	'P1'
_symmetry_Int_Tables_number	1
_symmetry_cell_setting	triclinic
loop_
_symmetry_equiv_pos_as_xyz
  x,y,z
_cell_length_a	13.014
_cell_length_b	14.394
_cell_length_c	16.306
_cell_angle_alpha	90
_cell_angle_beta	90
_cell_angle_gamma	90
loop_
_atom_site_label
_atom_site_type_symbol
_atom_site_fract_x
_atom_site_fract_y
_atom_site_fract_z
_atom_site_charge
Mof_Cu	Cu	0.20982	0.70564	0.16047	0.906
Mof_Cu	Cu	0.93993	0.96299	0.08586	0.901
Mof_Cu	Cu	0.79018	0.20564	0.33953	0.906
Mof_Cu	Cu	0.29018	0.29436	0.66047	0.905
Mof_Cu	Cu	0.56007	0.03701	0.58586	0.902
Mof_Cu	Cu	0.70982	0.79436	0.83953	0.905
Mof_Cu	Cu	0.06007	0.46299	0.41414	0.902
Mof_Cu	Cu	0.43993	0.53701	0.91414	0.902
Mof_H 	H 	0.5458	0.7551	0.5601	0.287
Mof_H 	H 	0.9208	0.0827	0.7388	0.253
Mof_H 	H 	0.4018	0.5828	0.4724	0.246
Mof_H 	H 	0.4322	0.1922	0.0888	-0.028
Mof_H 	H 	0.5678	0.6922	0.4112	-0.028
Mof_H 	H 	0.9979	0.6541	0.9744	0.153
Mof_H 	H 	0.8775	0.9643	0.9073	0.142
Mof_H 	H 	0.0458	0.7449	0.4399	0.282
Mof_H 	H 	0.4388	0.4184	0.5254	0.163
Mof_H 	H 	0.0021	0.1541	0.5256	0.156
Mof_H 	H 	0.4208	0.4173	0.2612	0.253
Mof_H 	H 	0.2273	0.6353	0.3346	0.145
Mof_H 	H 	0.9017	0.2732	0.8237	-0.025
Mof_H 	H 	0.158	0.5087	0.7293	0.276
Mof_H 	H 	0.0761	0.5881	0.9301	0.145
Mof_H 	H 	0.4017	0.2268	0.1763	-0.026
Mof_H 	H 	0.8604	0.8202	0.4989	0.237
Mof_H 	H 	0.5827	0.0847	0.8716	0.152
Mof_H 	H 	0.5021	0.3459	0.4744	0.164
Mof_H 	H 	0.9173	0.9153	0.3716	0.146
Mof_H 	H 	0.1225	0.4643	0.5927	0.144
Mof_H 	H 	0.9818	0.6727	0.8055	0.257
Mof_H 	H 	0.5252	0.1683	0.8305	0.16
Mof_H 	H 	0.0612	0.5816	0.0254	0.154
Mof_H 	H 	0.5214	0.728	0.1708	0.273
Mof_H 	H 	0.9018	0.9172	0.5276	0.246
Mof_H 	H 	0.4533	0.0269	0.7831	0.02
Mof_H 	H 	0.7273	0.8647	0.6654	0.145
Mof_H 	H 	0.2727	0.3647	0.8346	0.145
Mof_H 	H 	0.5006	0.346	0.9021	0.277
Mof_H 	H 	0.4786	0.228	0.3292	0.273
Mof_H 	H 	0.0983	0.7732	0.6763	-0.027
Mof_H 	H 	0.0827	0.4153	0.1284	0.151
Mof_H 	H 	0.3088	0.3871	0.2381	0.265
Mof_H 	H 	0.4173	0.5847	0.6284	0.153
Mof_H 	H 	0.0182	0.1727	0.6945	0.251
Mof_H 	H 	0.342	0.4913	0.2293	0.276
Mof_H 	H 	0.0678	0.8078	0.5888	-0.028
Mof_H 	H 	0.5467	0.5269	0.7169	0.02
Mof_H 	H 	0.4994	0.846	0.5979	0.277
Mof_H 	H 	0.9239	0.0881	0.5699	0.149
Mof_H 	H 	0.3664	0.638	0.7017	0.152
Mof_H 	H 	0.2162	0.3958	0.9687	0.26
Mof_H 	H 	0.2838	0.6042	0.4687	0.26
Mof_H 	H 	0.9347	0.7131	0.4642	0.265
Mof_H 	H 	0.6912	0.8871	0.2619	0.265
Mof_H 	H 	0.0836	0.2359	0.6362	0.254
Mof_H 	H 	0.4748	0.6683	0.6695	0.161
Mof_H 	H 	0.0252	0.3317	0.1695	0.16
Mof_H 	H 	0.3604	0.6798	0.5011	0.236
Mof_H 	H 	0.4542	0.2551	0.9399	0.287
Mof_H 	H 	0.0792	0.5827	0.7612	0.254
Mof_H 	H 	0.1336	0.362	0.2017	0.151
Mof_H 	H 	0.842	0.0087	0.7707	0.275
Mof_H 	H 	0.6493	0.7615	0.0545	0.017
Mof_H 	H 	0.5792	0.9173	0.2388	0.253
Mof_H 	H 	0.6336	0.138	0.7983	0.152
Mof_H 	H 	0.5983	0.7268	0.3237	-0.026
Mof_H 	H 	0.1912	0.6129	0.7381	0.265
Mof_H 	H 	0.4347	0.7869	0.5358	0.273
Mof_H 	H 	0.0214	0.772	0.8292	0.283
Mof_H 	H 	0.5761	0.9119	0.0699	0.154
Mof_H 	H 	0.5836	0.2641	0.3638	0.253
Mof_H 	H 	0.9786	0.272	0.6708	0.276
Mof_H 	H 	0.658	0.9913	0.2707	0.275
Mof_H 	H 	0.6396	0.1798	0.9989	0.234
Mof_H 	H 	0.9533	0.4731	0.2169	0.022
Mof_H 	H 	0.6225	0.0357	0.4073	0.144
Mof_H 	H 	0.4164	0.7641	0.1362	0.253
Mof_H 	H 	0.9164	0.7359	0.8638	0.259
Mof_H 	H 	0.5182	0.3273	0.3055	0.25
Mof_H 	H 	0.5653	0.2869	0.9642	0.273
Mof_H 	H 	0.5612	0.9184	0.9746	0.165
Mof_H 	H 	0.3775	0.5357	0.0927	0.144
Mof_H 	H 	0.0006	0.154	0.0979	0.254
Mof_H 	H 	0.9994	0.654	0.4021	0.269
Mof_H 	H 	0.4818	0.8273	0.1945	0.251
Mof_H 	H 	0.1396	0.3202	0.0011	0.236
Mof_H 	H 	0.8088	0.1129	0.7619	0.264
Mof_H 	H 	0.9748	0.8317	0.3305	0.155
Mof_H 	H 	0.8664	0.862	0.2983	0.147
Mof_H 	H 	0.0653	0.2131	0.0358	0.251
Mof_H 	H 	0.8507	0.2385	0.5545	0.019
Mof_H 	H 	0.0467	0.9731	0.2831	0.029
Mof_H 	H 	0.1493	0.7385	0.9455	0.021
Mof_H 	H 	0.7838	0.8958	0.5313	0.261
Mof_H 	H 	0.4979	0.8459	0.0256	0.165
Mof_H 	H 	0.3507	0.2615	0.4455	0.017
Mof_H 	H 	0.9322	0.3078	0.9112	-0.027
Mof_H 	H 	0.4239	0.4119	0.4301	0.153
Mof_H 	H 	0.7162	0.1042	0.0313	0.26
Mof_H 	H 	0.7727	0.1353	0.1654	0.145
Mof_H 	H 	0.9542	0.2449	0.0601	0.269
Mof_H 	H 	0.0982	0.4172	0.9724	0.247
Mof_H 	H 	0.5982	0.0828	0.0276	0.245
Mof_H 	H 	0.9388	0.0816	0.4746	0.16
Mof_C 	C 	0.4278	0.1839	0.5782	0.119
Mof_C 	C 	0.4111	0.4657	0.7549	0.282
Mof_C 	C 	0.1478	0.6947	0.9915	0.03
Mof_C 	C 	0.4371	0.377	0.4792	-0.488
Mof_C 	C 	0.0632	0.667	0.5988	-0.305
Mof_C 	C 	0.0385	0.2354	0.6827	-0.836
Mof_C 	C 	0.4436	0.7106	0.3368	-0.274
Mof_C 	C 	0.4816	0.5488	0.7402	0.028
Mof_C 	C 	0.6014	0.9096	0.3625	0.333
Mof_C 	C 	0.7497	0.1454	0.5007	0.281
Mof_C 	C 	0.2497	0.3546	0.4993	0.279
Mof_C 	C 	0.0497	0.7644	0.6319	0.151
Mof_C 	C 	0.8513	0.8699	0.5375	-0.796
Mof_C 	C 	0.6487	0.1301	0.0375	-0.788
Mof_C 	C 	0.1014	0.5904	0.6375	0.333
Mof_C 	C 	0.4074	0.7248	0.255	0.311
Mof_C 	C 	0.9974	0.1922	0.0497	-0.844
Mof_C 	C 	0.8638	0.8328	0.624	0.315
Mof_C 	C 	0.0926	0.2752	0.755	0.311
Mof_C 	C 	0.9553	0.1384	0.9818	0.337
Mof_C 	C 	0.5698	0.1163	0.8208	-0.465
Mof_C 	C 	0.5632	0.833	0.4012	-0.307
Mof_C 	C 	0.5026	0.8078	0.5497	-0.91
Mof_C 	C 	0.8986	0.0904	0.8625	0.329
Mof_C 	C 	0.5889	0.9657	0.7451	0.284
Mof_C 	C 	0.8645	0.072	0.7756	-0.829
Mof_C 	C 	0.4553	0.3616	0.0182	0.359
Mof_C 	C 	0.0629	0.623	0.9792	-0.461
Mof_C 	C 	0.5629	0.877	0.0208	-0.492
Mof_C 	C 	0.3645	0.428	0.2244	-0.832
Mof_C 	C 	0.9319	0.3437	0.3317	0.12
Mof_C 	C 	0.8522	0.1947	0.5085	0.033
Mof_C 	C 	0.9371	0.123	0.5208	-0.471
Mof_C 	C 	0.0722	0.8161	0.0782	0.119
Mof_C 	C 	0.0889	0.5343	0.2549	0.283
Mof_C 	C 	0.9368	0.167	0.9012	-0.296
Mof_C 	C 	0.0564	0.2894	0.8368	-0.274
Mof_C 	C 	0.6478	0.8053	0.0085	0.039
Mof_C 	C 	0.3986	0.4096	0.1375	0.333
Mof_C 	C 	0.9074	0.7752	0.745	0.317
Mof_C 	C 	0.4974	0.3078	0.9503	-0.91
Mof_C 	C 	0.5497	0.7356	0.3681	0.146
Mof_C 	C 	0.3513	0.6301	0.4625	-0.794
Mof_C 	C 	0.0698	0.3837	0.1792	-0.464
Mof_C 	C 	0.5385	0.2646	0.3173	-0.831
Mof_C 	C 	0.9278	0.3161	0.4218	0.119
Mof_C 	C 	0.5184	0.0488	0.7598	0.027
Mof_C 	C 	0.6355	0.928	0.2756	-0.832
Mof_C 	C 	0.3522	0.3053	0.4915	0.038
Mof_C 	C 	0.5722	0.6839	0.9218	0.119
Mof_C 	C 	0.5926	0.2248	0.245	0.31
Mof_C 	C 	0.1362	0.3328	0.876	0.313
Mof_C 	C 	0.5681	0.6563	0.8317	0.12
Mof_C 	C 	0.5447	0.8616	0.4818	0.359
Mof_C 	C 	0.9436	0.7894	0.6632	-0.281
Mof_C 	C 	0.9503	0.2644	0.8681	0.141
Mof_C 	C 	0.1355	0.572	0.7244	-0.832
Mof_C 	C 	0.9816	0.9512	0.2598	0.01
Mof_C 	C 	0.4302	0.6163	0.6792	-0.468
Mof_C 	C 	0.4368	0.333	0.0988	-0.307
Mof_C 	C 	0.0184	0.4512	0.2402	0.025
Mof_C 	C 	0.9302	0.8837	0.3208	-0.45
Mof_C 	C 	0.0681	0.8437	0.1683	0.119
Mof_C 	C 	0.4503	0.2356	0.1319	0.145
Mof_C 	C 	0.9111	0.0343	0.2451	0.29
Mof_C 	C 	0.9615	0.7354	0.8173	-0.855
Mof_C 	C 	0.3638	0.6672	0.376	0.313
Mof_C 	C 	0.0447	0.6384	0.5182	0.353
Mof_C 	C 	0.0026	0.6922	0.4503	-0.888
Mof_C 	C 	0.4615	0.7646	0.1827	-0.832
Mof_C 	C 	0.1487	0.3699	0.9625	-0.792
Mof_C 	C 	0.2503	0.6454	0.9993	0.283
Mof_C 	C 	0.4319	0.1563	0.6683	0.119
Mof_C 	C 	0.6362	0.1672	0.124	0.312
Mof_C 	C 	0.7503	0.8546	0.0007	0.279
Mof_C 	C 	0.5564	0.2106	0.1632	-0.273
Mof_N 	N 	0.5011	0.5914	0.8192	-0.241
Mof_N 	N 	0.57	0.9505	0.4908	-0.239
Mof_N 	N 	0.1306	0.7438	0.0681	-0.238
Mof_N 	N 	0.43	0.4505	0.0092	-0.24
Mof_N 	N 	0.3971	0.4798	0.0822	-0.229
Mof_N 	N 	0.6029	0.9798	0.4178	-0.228
Mof_N 	N 	0.2138	0.341	0.8228	-0.231
Mof_N 	N 	0.6884	0.1926	0.2517	-0.233
Mof_N 	N 	0.3116	0.6926	0.2483	-0.233
Mof_N 	N 	0.07	0.5495	0.5092	-0.238
Mof_N 	N 	0.93	0.0495	0.9908	-0.235
Mof_N 	N 	0.9989	0.4086	0.3192	-0.24
Mof_N 	N 	0.3694	0.2562	0.5681	-0.239
Mof_N 	N 	0.1884	0.3074	0.7483	-0.233
Mof_N 	N 	0.8694	0.2438	0.4319	-0.238
Mof_N 	N 	0.8971	0.0202	0.9178	-0.227
Mof_N 	N 	0.0011	0.9086	0.1808	-0.236
Mof_N 	N 	0.4989	0.0914	0.6808	-0.241
Mof_N 	N 	0.2862	0.659	0.3228	-0.231
Mof_N 	N 	0.6306	0.7562	0.9319	-0.239
Mof_N 	N 	0.1029	0.5202	0.5822	-0.229
Mof_N 	N 	0.7862	0.841	0.6772	-0.231
Mof_N 	N 	0.7138	0.159	0.1772	-0.23
Mof_N 	N 	0.8116	0.8074	0.7517	-0.234
Mof_O 	O 	0.886	0.0516	0.1702	-0.405
Mof_O 	O 	0.9795	0.362	0.4734	-0.332
Mof_O 	O 	0.7906	0.8572	0.9283	-0.396
Mof_O 	O 	0.2866	0.607	0.9385	-0.356
Mof_O 	O 	0.1259	0.8028	0.2197	-0.337
Mof_O 	O 	0.2134	0.393	0.4385	-0.355
Mof_O 	O 	0.3798	0.4214	0.6955	-0.36
Mof_O 	O 	0.614	0.9484	0.6702	-0.406
Mof_O 	O 	0.1202	0.5786	0.1955	-0.36
Mof_O 	O 	0.2906	0.6428	0.0717	-0.397
Mof_O 	O 	0.7866	0.893	0.0615	-0.355
Mof_O 	O 	0.114	0.5516	0.3298	-0.406
Mof_O 	O 	0.386	0.4484	0.8298	-0.406
Mof_O 	O 	0.2094	0.3572	0.5717	-0.395
Mof_O 	O 	0.4795	0.138	0.5266	-0.333
Mof_O 	O 	0.5205	0.638	0.9734	-0.332
Mof_O 	O 	0.8798	0.0786	0.3045	-0.361
Mof_O 	O 	0.6259	0.6972	0.7803	-0.339
Mof_O 	O 	0.0205	0.862	0.0266	-0.331
Mof_O 	O 	0.8741	0.3028	0.2803	-0.338
Mof_O 	O 	0.6202	0.9214	0.8045	-0.36
Mof_O 	O 	0.3741	0.1972	0.7197	-0.339
Mof_O 	O 	0.7134	0.107	0.5615	-0.355
Mof_O 	O 	0.7094	0.1428	0.4283	-0.395
_end
