data_functionalizedCrystal
_audit_creation_method	'EQeq! by Chris Wilmer'
_symmetry_space_group_name_H-M	'P1'
_symmetry_Int_Tables_number	1
_symmetry_cell_setting	triclinic
loop_
_symmetry_equiv_pos_as_xyz
  x,y,z
_cell_length_a	9.6116
_cell_length_b	11.2542
_cell_length_c	12.5565
_cell_angle_alpha	103.502
_cell_angle_beta	94.5298
_cell_angle_gamma	98.3272
loop_
_atom_site_label
_atom_site_type_symbol
_atom_site_fract_x
_atom_site_fract_y
_atom_site_fract_z
_atom_site_charge
Mof_Ni	Ni	0.19479	0.30318	0.41321	1.189
Mof_O 	O 	0.19808	0.33257	0.27708	-0.437
Mof_O 	O 	0.96844	0.35424	0.28951	-0.469
Mof_O 	O 	0.99837	0.45226	0.51095	-0.403
Mof_O 	O 	0.85656	0.17949	0.36839	-0.568
Mof_N 	N 	0.39648	0.2886	0.45222	-0.174
Mof_C 	C 	0.46677	0.3818	0.55339	-0.028
Mof_C 	C 	0.4334	0.16415	0.4601	-0.035
Mof_C 	C 	0.46781	0.32733	0.36389	-0.032
Mof_C 	C 	0.07968	0.34963	0.23488	0.359
Mof_C 	C 	0.05138	0.33694	0.11824	-0.13
Mof_C 	C 	0.16209	0.32916	0.04763	0.009
Mof_C 	C 	0.13238	0.31466	0.93603	-0.016
Mof_C 	C 	0.24012	0.29752	0.86439	-0.055
Mof_C 	C 	0.91225	0.33924	0.07635	0.057
Mof_C 	C 	0.12087	0.50515	0.49236	0.278
Mof_C 	C 	0.10799	0.62931	0.46272	-0.093
Mof_C 	C 	0.98952	0.68058	0.48637	0.006
Mof_C 	C 	0.9782	0.78859	0.4562	0.027
Mof_C 	C 	0.85292	0.83898	0.47371	-0.05
Mof_C 	C 	0.22655	0.68797	0.41929	0.002
Mof_Ni	Ni	0.90232	0.3204	0.40886	1.179
Mof_O 	O 	0.93205	0.30007	0.55543	-0.366
Mof_O 	O 	0.15854	0.27147	0.54149	-0.433
Mof_O 	O 	0.08612	0.17004	0.34005	-0.514
Mof_O 	O 	0.22787	0.4393	0.48854	-0.481
Mof_N 	N 	0.68266	0.30244	0.47169	-0.134
Mof_C 	C 	0.63141	0.3908	0.5663	-0.023
Mof_C 	C 	0.59573	0.17784	0.47192	-0.021
Mof_C 	C 	0.62905	0.33822	0.3735	-0.05
Mof_C 	C 	0.04847	0.28038	0.59694	0.337
Mof_C 	C 	0.07406	0.29556	0.71355	-0.105
Mof_C 	C 	0.96388	0.30887	0.78443	0.004
Mof_C 	C 	0.99211	0.31711	0.89517	0.041
Mof_C 	C 	0.8832	0.32954	0.96609	-0.077
Mof_C 	C 	0.21105	0.28732	0.75451	0.02
Mof_C 	C 	0.96073	0.12856	0.36355	0.406
Mof_C 	C 	0.95523	0.99922	0.38907	-0.064
Mof_C 	C 	0.07774	0.95509	0.37197	-0.017
Mof_C 	C 	0.09364	0.84869	0.40693	-0.007
Mof_C 	C 	0.21616	0.7979	0.38686	-0.044
Mof_C 	C 	0.83939	0.9449	0.43713	0.013
Mof_H 	H 	0.26902	0.32702	0.07911	0.039
Mof_H 	H 	0.34696	0.29209	0.89307	0.042
Mof_H 	H 	0.82526	0.34739	0.12854	0.028
Mof_H 	H 	0.85769	0.31606	0.75387	0.043
Mof_H 	H 	0.7744	0.32719	0.93536	0.049
Mof_H 	H 	0.29656	0.27506	0.70161	0.036
Mof_H 	H 	0.9022	0.63192	0.53097	0.039
Mof_H 	H 	0.76418	0.79157	0.51793	0.038
Mof_H 	H 	0.32705	0.64502	0.41167	0.034
Mof_H 	H 	0.16538	0.00625	0.32917	0.042
Mof_H 	H 	0.3069	0.84556	0.34443	0.036
Mof_H 	H 	0.7393	0.98845	0.44463	0.037
Mof_H 	H 	0.43175	0.36886	0.63328	0.046
Mof_H 	H 	0.45701	0.47402	0.53559	0.054
Mof_H 	H 	0.38661	0.08927	0.38449	0.027
Mof_H 	H 	0.38577	0.13345	0.53287	0.036
Mof_H 	H 	0.44407	0.42326	0.35747	0.036
Mof_H 	H 	0.42357	0.25509	0.28623	0.038
Mof_H 	H 	0.6888	0.49294	0.57089	0.033
Mof_H 	H 	0.6593	0.36301	0.64425	0.042
Mof_H 	H 	0.62625	0.15151	0.55002	0.04
Mof_H 	H 	0.62178	0.1041	0.40256	0.048
Mof_H 	H 	0.66037	0.27393	0.29993	0.024
Mof_H 	H 	0.68142	0.44089	0.37511	0.012
_end
