# CIF file generated by openbabel 3.1.0, see https://openbabel.org
data_I
_chemical_name_common 'image0'
_cell_length_a 24.321
_cell_length_b 9.4098
_cell_length_c 16.628
_cell_angle_alpha 90
_cell_angle_beta 119.24
_cell_angle_gamma 90
_space_group_name_H-M_alt 'P 1'
_space_group_name_Hall 'P 1'
loop_
    _symmetry_equiv_pos_as_xyz
    x,y,z
loop_
    _atom_site_label
    _atom_site_type_symbol
    _atom_site_fract_x
    _atom_site_fract_y
    _atom_site_fract_z
    _atom_site_occupancy
    Cu1      Cu       0.04273    0.82357    0.04115    1.000
    Cu2      Cu       0.95723    0.61430    0.12254    1.000
    N1       N        0.91824    0.79070    0.03730    1.000
    N2       N        0.95358    0.88030    0.01720    1.000
    N3       N        0.92015    0.99270    0.97640    1.000
    N4       N        0.86240    0.98150    0.96750    1.000
    N5       N        0.86050    0.79070    0.25110    1.000
    N6       N        0.91800    0.76380    0.32220    1.000
    N7       N        0.95211    0.69740    0.29260    1.000
    N8       N        0.91769    0.68120    0.20090    1.000
    N9       N        0.04490    0.56610    0.93060    1.000
    C1       C        0.74930    0.69640    0.07640    1.000
    H1       H        0.74910    0.65930    0.12810    1.000
    C2       C        0.80640    0.74380    0.08450    1.000
    C3       C        0.80680    0.79700    0.00610    1.000
    C4       C        0.86280    0.85570    0.00600    1.000
    C5       C        0.86230    0.74010    0.17760    1.000
    C6       C        0.04520    0.66830    0.96740    1.000
    Cu3      Cu       0.54273    0.32357    0.04115    1.000
    Cu4      Cu       0.45723    0.11430    0.12254    1.000
    N10      N        0.41824    0.29070    0.03730    1.000
    N11      N        0.45358    0.38030    0.01720    1.000
    N12      N        0.42015    0.49270    0.97640    1.000
    N13      N        0.36240    0.48150    0.96750    1.000
    N14      N        0.36050    0.29070    0.25110    1.000
    N15      N        0.41800    0.26380    0.32220    1.000
    N16      N        0.45211    0.19740    0.29260    1.000
    N17      N        0.41769    0.18120    0.20090    1.000
    N18      N        0.54490    0.06610    0.93060    1.000
    C7       C        0.24930    0.19640    0.07640    1.000
    H2       H        0.24910    0.15930    0.12810    1.000
    C8       C        0.30640    0.24380    0.08450    1.000
    C9       C        0.30680    0.29700    0.00610    1.000
    C10      C        0.36280    0.35570    0.00600    1.000
    C11      C        0.36230    0.24010    0.17760    1.000
    C12      C        0.54520    0.16830    0.96740    1.000
    Cu5      Cu       0.95727    0.82357    0.45885    1.000
    Cu6      Cu       0.04277    0.61430    0.37746    1.000
    N19      N        0.08176    0.79070    0.46270    1.000
    N20      N        0.04642    0.88030    0.48280    1.000
    N21      N        0.07985    0.99270    0.52360    1.000
    N22      N        0.13760    0.98150    0.53250    1.000
    N23      N        0.13950    0.79070    0.24890    1.000
    N24      N        0.08200    0.76380    0.17780    1.000
    N25      N        0.04789    0.69740    0.20740    1.000
    N26      N        0.08231    0.68120    0.29910    1.000
    N27      N        0.95510    0.56610    0.56940    1.000
    C13      C        0.25070    0.69640    0.42360    1.000
    H3       H        0.25090    0.65930    0.37190    1.000
    C14      C        0.19360    0.74380    0.41550    1.000
    C15      C        0.19320    0.79700    0.49390    1.000
    C16      C        0.13720    0.85570    0.49400    1.000
    C17      C        0.13770    0.74010    0.32240    1.000
    C18      C        0.95480    0.66830    0.53260    1.000
    Cu7      Cu       0.45727    0.32357    0.45885    1.000
    Cu8      Cu       0.54277    0.11430    0.37746    1.000
    N28      N        0.58176    0.29070    0.46270    1.000
    N29      N        0.54642    0.38030    0.48280    1.000
    N30      N        0.57985    0.49270    0.52360    1.000
    N31      N        0.63760    0.48150    0.53250    1.000
    N32      N        0.63950    0.29070    0.24890    1.000
    N33      N        0.58200    0.26380    0.17780    1.000
    N34      N        0.54789    0.19740    0.20740    1.000
    N35      N        0.58231    0.18120    0.29910    1.000
    N36      N        0.45510    0.06610    0.56940    1.000
    C19      C        0.75070    0.19640    0.42360    1.000
    H4       H        0.75090    0.15930    0.37190    1.000
    C20      C        0.69360    0.24380    0.41550    1.000
    C21      C        0.69320    0.29700    0.49390    1.000
    C22      C        0.63720    0.35570    0.49400    1.000
    C23      C        0.63770    0.24010    0.32240    1.000
    C24      C        0.45480    0.16830    0.53260    1.000
    Cu9      Cu       0.95727    0.17643    0.95885    1.000
    Cu10     Cu       0.04277    0.38570    0.87746    1.000
    N37      N        0.08176    0.20930    0.96270    1.000
    N38      N        0.04642    0.11970    0.98280    1.000
    N39      N        0.07985    0.00730    0.02360    1.000
    N40      N        0.13760    0.01850    0.03250    1.000
    N41      N        0.13950    0.20930    0.74890    1.000
    N42      N        0.08200    0.23620    0.67780    1.000
    N43      N        0.04789    0.30260    0.70740    1.000
    N44      N        0.08231    0.31880    0.79910    1.000
    N45      N        0.95510    0.43390    0.06940    1.000
    C25      C        0.25070    0.30360    0.92360    1.000
    H5       H        0.25090    0.34070    0.87190    1.000
    C26      C        0.19360    0.25620    0.91550    1.000
    C27      C        0.19320    0.20300    0.99390    1.000
    C28      C        0.13720    0.14430    0.99400    1.000
    C29      C        0.13770    0.25990    0.82240    1.000
    C30      C        0.95480    0.33170    0.03260    1.000
    Cu11     Cu       0.45727    0.67643    0.95885    1.000
    Cu12     Cu       0.54277    0.88570    0.87746    1.000
    N46      N        0.58176    0.70930    0.96270    1.000
    N47      N        0.54642    0.61970    0.98280    1.000
    N48      N        0.57985    0.50730    0.02360    1.000
    N49      N        0.63760    0.51850    0.03250    1.000
    N50      N        0.63950    0.70930    0.74890    1.000
    N51      N        0.58200    0.73620    0.67780    1.000
    N52      N        0.54789    0.80260    0.70740    1.000
    N53      N        0.58231    0.81880    0.79910    1.000
    N54      N        0.45510    0.93390    0.06940    1.000
    C31      C        0.75070    0.80360    0.92360    1.000
    H6       H        0.75090    0.84070    0.87190    1.000
    C32      C        0.69360    0.75620    0.91550    1.000
    C33      C        0.69320    0.70300    0.99390    1.000
    C34      C        0.63720    0.64430    0.99400    1.000
    C35      C        0.63770    0.75990    0.82240    1.000
    C36      C        0.45480    0.83170    0.03260    1.000
    Cu13     Cu       0.04273    0.17643    0.54115    1.000
    Cu14     Cu       0.95723    0.38570    0.62254    1.000
    N55      N        0.91824    0.20930    0.53730    1.000
    N56      N        0.95358    0.11970    0.51720    1.000
    N57      N        0.92015    0.00730    0.47640    1.000
    N58      N        0.86240    0.01850    0.46750    1.000
    N59      N        0.86050    0.20930    0.75110    1.000
    N60      N        0.91800    0.23620    0.82220    1.000
    N61      N        0.95211    0.30260    0.79260    1.000
    N62      N        0.91769    0.31880    0.70090    1.000
    N63      N        0.04490    0.43390    0.43060    1.000
    C37      C        0.74930    0.30360    0.57640    1.000
    H7       H        0.74910    0.34070    0.62810    1.000
    C38      C        0.80640    0.25620    0.58450    1.000
    C39      C        0.80680    0.20300    0.50610    1.000
    C40      C        0.86280    0.14430    0.50600    1.000
    C41      C        0.86230    0.25990    0.67760    1.000
    C42      C        0.04520    0.33170    0.46740    1.000
    Cu15     Cu       0.54273    0.67643    0.54115    1.000
    Cu16     Cu       0.45723    0.88570    0.62254    1.000
    N64      N        0.41824    0.70930    0.53730    1.000
    N65      N        0.45358    0.61970    0.51720    1.000
    N66      N        0.42015    0.50730    0.47640    1.000
    N67      N        0.36240    0.51850    0.46750    1.000
    N68      N        0.36050    0.70930    0.75110    1.000
    N69      N        0.41800    0.73620    0.82220    1.000
    N70      N        0.45211    0.80260    0.79260    1.000
    N71      N        0.41769    0.81880    0.70090    1.000
    N72      N        0.54490    0.93390    0.43060    1.000
    C43      C        0.24930    0.80360    0.57640    1.000
    H8       H        0.24910    0.84070    0.62810    1.000
    C44      C        0.30640    0.75620    0.58450    1.000
    C45      C        0.30680    0.70300    0.50610    1.000
    C46      C        0.36280    0.64430    0.50600    1.000
    C47      C        0.36230    0.75990    0.67760    1.000
    C48      C        0.54520    0.83170    0.46740    1.000
