data_functionalizedCrystal
_audit_creation_method	'EQeq! by Chris Wilmer'
_symmetry_space_group_name_H-M	'P1'
_symmetry_Int_Tables_number	1
_symmetry_cell_setting	triclinic
loop_
_symmetry_equiv_pos_as_xyz
  x,y,z
_cell_length_a	22.5892
_cell_length_b	22.5892
_cell_length_c	22.5892
_cell_angle_alpha	60
_cell_angle_beta	60
_cell_angle_gamma	60
loop_
_atom_site_label
_atom_site_type_symbol
_atom_site_fract_x
_atom_site_fract_y
_atom_site_fract_z
_atom_site_charge
Mof_Ni	Ni	0.125	0.625	0.3968	1.062
Mof_Ni	Ni	0.625	0.125	0.8532	1.062
Mof_Ni	Ni	0.3968	0.8532	0.125	1.062
Mof_Ni	Ni	0.8532	0.3968	0.625	1.062
Mof_Ni	Ni	0.125	0.3968	0.8532	1.062
Mof_Ni	Ni	0.625	0.8532	0.3968	1.062
Mof_Ni	Ni	0.3968	0.125	0.625	1.062
Mof_Ni	Ni	0.8532	0.625	0.125	1.062
Mof_Ni	Ni	0.125	0.8532	0.625	1.062
Mof_Ni	Ni	0.625	0.3968	0.125	1.062
Mof_Ni	Ni	0.3968	0.625	0.8532	1.062
Mof_Ni	Ni	0.8532	0.125	0.3968	1.062
Mof_H 	H 	0.3497	0.5047	0.3111	0.03
Mof_H 	H 	0.2659	0.6469	0.2757	-0.075
Mof_H 	H 	0.309	0.701	0.1534	0.224
Mof_H 	H 	0.204	0.8082	0.037	0.342
Mof_H 	H 	0.2785	0.7451	0.0339	0.37
Mof_H 	H 	0.2652	0.8138	0.0462	0.363
Mof_H 	H 	0.1112	0.7766	0.1462	0.192
Mof_H 	H 	0.0741	0.7189	0.2677	-0.097
Mof_H 	H 	0.5047	0.3497	0.8345	0.029
Mof_H 	H 	0.6469	0.2659	0.8115	-0.076
Mof_H 	H 	0.701	0.309	0.8366	0.227
Mof_H 	H 	0.8082	0.204	0.9508	0.35
Mof_H 	H 	0.7451	0.2785	0.9425	0.378
Mof_H 	H 	0.8138	0.2652	0.8748	0.369
Mof_H 	H 	0.7766	0.1112	0.966	0.197
Mof_H 	H 	0.7189	0.0741	0.9393	-0.097
Mof_H 	H 	0.3111	0.8345	0.3497	0.029
Mof_H 	H 	0.2757	0.8115	0.2659	-0.075
Mof_H 	H 	0.1534	0.8366	0.309	0.225
Mof_H 	H 	0.037	0.9508	0.204	0.344
Mof_H 	H 	0.0339	0.9425	0.2785	0.373
Mof_H 	H 	0.0462	0.8748	0.2652	0.363
Mof_H 	H 	0.1462	0.966	0.1112	0.193
Mof_H 	H 	0.2677	0.9393	0.0741	-0.097
Mof_H 	H 	0.8345	0.3111	0.5047	0.028
Mof_H 	H 	0.8115	0.2757	0.6469	-0.077
Mof_H 	H 	0.8366	0.1534	0.701	0.224
Mof_H 	H 	0.9508	0.037	0.8082	0.345
Mof_H 	H 	0.9425	0.0339	0.7451	0.373
Mof_H 	H 	0.8748	0.0462	0.8138	0.364
Mof_H 	H 	0.966	0.1462	0.7766	0.195
Mof_H 	H 	0.9393	0.2677	0.7189	-0.096
Mof_H 	H 	0.3497	0.3111	0.8345	0.028
Mof_H 	H 	0.2659	0.2757	0.8115	-0.076
Mof_H 	H 	0.309	0.1534	0.8366	0.224
Mof_H 	H 	0.204	0.037	0.9508	0.343
Mof_H 	H 	0.2785	0.0339	0.9425	0.372
Mof_H 	H 	0.2652	0.0462	0.8748	0.363
Mof_H 	H 	0.1112	0.1462	0.966	0.193
Mof_H 	H 	0.0741	0.2677	0.9393	-0.097
Mof_H 	H 	0.5047	0.8345	0.3111	0.028
Mof_H 	H 	0.6469	0.8115	0.2757	-0.077
Mof_H 	H 	0.701	0.8366	0.1534	0.224
Mof_H 	H 	0.8082	0.9508	0.037	0.345
Mof_H 	H 	0.7451	0.9425	0.0339	0.373
Mof_H 	H 	0.8138	0.8748	0.0462	0.364
Mof_H 	H 	0.7766	0.966	0.1462	0.195
Mof_H 	H 	0.7189	0.9393	0.2677	-0.096
Mof_H 	H 	0.3111	0.3497	0.5047	0.029
Mof_H 	H 	0.2757	0.2659	0.6469	-0.076
Mof_H 	H 	0.1534	0.309	0.701	0.223
Mof_H 	H 	0.037	0.204	0.8082	0.341
Mof_H 	H 	0.0339	0.2785	0.7451	0.369
Mof_H 	H 	0.0462	0.2652	0.8138	0.362
Mof_H 	H 	0.1462	0.1112	0.7766	0.191
Mof_H 	H 	0.2677	0.0741	0.7189	-0.098
Mof_H 	H 	0.8345	0.5047	0.3497	0.028
Mof_H 	H 	0.8115	0.6469	0.2659	-0.077
Mof_H 	H 	0.8366	0.701	0.309	0.226
Mof_H 	H 	0.9508	0.8082	0.204	0.349
Mof_H 	H 	0.9425	0.7451	0.2785	0.377
Mof_H 	H 	0.8748	0.8138	0.2652	0.368
Mof_H 	H 	0.966	0.7766	0.1112	0.196
Mof_H 	H 	0.9393	0.7189	0.0741	-0.098
Mof_H 	H 	0.3497	0.8345	0.5047	0.028
Mof_H 	H 	0.2659	0.8115	0.6469	-0.077
Mof_H 	H 	0.309	0.8366	0.701	0.226
Mof_H 	H 	0.204	0.9508	0.8082	0.349
Mof_H 	H 	0.2785	0.9425	0.7451	0.377
Mof_H 	H 	0.2652	0.8748	0.8138	0.368
Mof_H 	H 	0.1112	0.966	0.7766	0.196
Mof_H 	H 	0.0741	0.9393	0.7189	-0.098
Mof_H 	H 	0.5047	0.3111	0.3497	0.029
Mof_H 	H 	0.6469	0.2757	0.2659	-0.076
Mof_H 	H 	0.701	0.1534	0.309	0.223
Mof_H 	H 	0.8082	0.037	0.204	0.341
Mof_H 	H 	0.7451	0.0339	0.2785	0.369
Mof_H 	H 	0.8138	0.0462	0.2652	0.362
Mof_H 	H 	0.7766	0.1462	0.1112	0.191
Mof_H 	H 	0.7189	0.2677	0.0741	-0.098
Mof_H 	H 	0.3111	0.5047	0.8345	0.028
Mof_H 	H 	0.2757	0.6469	0.8115	-0.077
Mof_H 	H 	0.1534	0.701	0.8366	0.224
Mof_H 	H 	0.037	0.8082	0.9508	0.345
Mof_H 	H 	0.0339	0.7451	0.9425	0.373
Mof_H 	H 	0.0462	0.8138	0.8748	0.364
Mof_H 	H 	0.1462	0.7766	0.966	0.195
Mof_H 	H 	0.2677	0.7189	0.9393	-0.096
Mof_H 	H 	0.8345	0.3497	0.3111	0.028
Mof_H 	H 	0.8115	0.2659	0.2757	-0.076
Mof_H 	H 	0.8366	0.309	0.1534	0.224
Mof_H 	H 	0.9508	0.204	0.037	0.343
Mof_H 	H 	0.9425	0.2785	0.0339	0.372
Mof_H 	H 	0.8748	0.2652	0.0462	0.363
Mof_H 	H 	0.966	0.1112	0.1462	0.193
Mof_H 	H 	0.9393	0.0741	0.2677	-0.097
Mof_H 	H 	0.7453	0.9003	0.9389	0.036
Mof_H 	H 	0.6031	0.9841	0.9743	-0.051
Mof_H 	H 	0.549	0.941	0.0966	0.209
Mof_H 	H 	0.4418	0.046	0.213	0.347
Mof_H 	H 	0.5049	0.9715	0.2161	0.379
Mof_H 	H 	0.4362	0.9848	0.2038	0.371
Mof_H 	H 	0.4734	0.1388	0.1038	0.184
Mof_H 	H 	0.5311	0.1759	0.9823	-0.085
Mof_H 	H 	0.9003	0.7453	0.4155	0.032
Mof_H 	H 	0.9841	0.6031	0.4385	-0.064
Mof_H 	H 	0.941	0.549	0.4134	0.217
Mof_H 	H 	0.046	0.4418	0.2992	0.354
Mof_H 	H 	0.9715	0.5049	0.3075	0.386
Mof_H 	H 	0.9848	0.4362	0.3752	0.379
Mof_H 	H 	0.1388	0.4734	0.284	0.193
Mof_H 	H 	0.1759	0.5311	0.3107	-0.096
Mof_H 	H 	0.4155	0.9389	0.9003	0.034
Mof_H 	H 	0.4385	0.9743	0.9841	-0.053
Mof_H 	H 	0.4134	0.0966	0.941	0.211
Mof_H 	H 	0.2992	0.213	0.046	0.347
Mof_H 	H 	0.3075	0.2161	0.9715	0.379
Mof_H 	H 	0.3752	0.2038	0.9848	0.371
Mof_H 	H 	0.284	0.1038	0.1388	0.185
Mof_H 	H 	0.3107	0.9823	0.1759	-0.086
Mof_H 	H 	0.9389	0.4155	0.7453	0.032
Mof_H 	H 	0.9743	0.4385	0.6031	-0.063
Mof_H 	H 	0.0966	0.4134	0.549	0.215
Mof_H 	H 	0.213	0.2992	0.4418	0.338
Mof_H 	H 	0.2161	0.3075	0.5049	0.366
Mof_H 	H 	0.2038	0.3752	0.4362	0.358
Mof_H 	H 	0.1038	0.284	0.4734	0.184
Mof_H 	H 	0.9823	0.3107	0.5311	-0.085
Mof_H 	H 	0.9389	0.9003	0.4155	0.034
Mof_H 	H 	0.9743	0.9841	0.4385	-0.053
Mof_H 	H 	0.0966	0.941	0.4134	0.211
Mof_H 	H 	0.213	0.046	0.2992	0.347
Mof_H 	H 	0.2161	0.9715	0.3075	0.379
Mof_H 	H 	0.2038	0.9848	0.3752	0.371
Mof_H 	H 	0.1038	0.1388	0.284	0.185
Mof_H 	H 	0.9823	0.1759	0.3107	-0.086
Mof_H 	H 	0.4155	0.7453	0.9389	0.032
Mof_H 	H 	0.4385	0.6031	0.9743	-0.063
Mof_H 	H 	0.4134	0.549	0.0966	0.215
Mof_H 	H 	0.2992	0.4418	0.213	0.338
Mof_H 	H 	0.3075	0.5049	0.2161	0.366
Mof_H 	H 	0.3752	0.4362	0.2038	0.358
Mof_H 	H 	0.284	0.4734	0.1038	0.184
Mof_H 	H 	0.3107	0.5311	0.9823	-0.085
Mof_H 	H 	0.9003	0.9389	0.7453	0.036
Mof_H 	H 	0.9841	0.9743	0.6031	-0.051
Mof_H 	H 	0.941	0.0966	0.549	0.209
Mof_H 	H 	0.046	0.213	0.4418	0.347
Mof_H 	H 	0.9715	0.2161	0.5049	0.379
Mof_H 	H 	0.9848	0.2038	0.4362	0.371
Mof_H 	H 	0.1388	0.1038	0.4734	0.184
Mof_H 	H 	0.1759	0.9823	0.5311	-0.085
Mof_H 	H 	0.7453	0.4155	0.9003	0.032
Mof_H 	H 	0.6031	0.4385	0.9841	-0.064
Mof_H 	H 	0.549	0.4134	0.941	0.217
Mof_H 	H 	0.4418	0.2992	0.046	0.354
Mof_H 	H 	0.5049	0.3075	0.9715	0.386
Mof_H 	H 	0.4362	0.3752	0.9848	0.379
Mof_H 	H 	0.4734	0.284	0.1388	0.193
Mof_H 	H 	0.5311	0.3107	0.1759	-0.096
Mof_H 	H 	0.4155	0.9003	0.7453	0.032
Mof_H 	H 	0.4385	0.9841	0.6031	-0.064
Mof_H 	H 	0.4134	0.941	0.549	0.217
Mof_H 	H 	0.2992	0.046	0.4418	0.354
Mof_H 	H 	0.3075	0.9715	0.5049	0.386
Mof_H 	H 	0.3752	0.9848	0.4362	0.379
Mof_H 	H 	0.284	0.1388	0.4734	0.193
Mof_H 	H 	0.3107	0.1759	0.5311	-0.096
Mof_H 	H 	0.9389	0.7453	0.9003	0.036
Mof_H 	H 	0.9743	0.6031	0.9841	-0.051
Mof_H 	H 	0.0966	0.549	0.941	0.209
Mof_H 	H 	0.213	0.4418	0.046	0.347
Mof_H 	H 	0.2161	0.5049	0.9715	0.379
Mof_H 	H 	0.2038	0.4362	0.9848	0.371
Mof_H 	H 	0.1038	0.4734	0.1388	0.184
Mof_H 	H 	0.9823	0.5311	0.1759	-0.085
Mof_H 	H 	0.7453	0.9389	0.4155	0.032
Mof_H 	H 	0.6031	0.9743	0.4385	-0.063
Mof_H 	H 	0.549	0.0966	0.4134	0.215
Mof_H 	H 	0.4418	0.213	0.2992	0.338
Mof_H 	H 	0.5049	0.2161	0.3075	0.366
Mof_H 	H 	0.4362	0.2038	0.3752	0.358
Mof_H 	H 	0.4734	0.1038	0.284	0.184
Mof_H 	H 	0.5311	0.9823	0.3107	-0.085
Mof_H 	H 	0.9003	0.4155	0.9389	0.034
Mof_H 	H 	0.9841	0.4385	0.9743	-0.053
Mof_H 	H 	0.941	0.4134	0.0966	0.211
Mof_H 	H 	0.046	0.2992	0.213	0.347
Mof_H 	H 	0.9715	0.3075	0.2161	0.379
Mof_H 	H 	0.9848	0.3752	0.2038	0.371
Mof_H 	H 	0.1388	0.284	0.1038	0.185
Mof_H 	H 	0.1759	0.3107	0.9823	-0.086
Mof_C 	C 	0.2428	0.4856	0.4372	0.335
Mof_C 	C 	0.3182	0.4352	0.4116	-0.128
Mof_C 	C 	0.3651	0.4579	0.3421	0.043
Mof_C 	C 	0.2338	0.6732	0.2498	0.28
Mof_C 	C 	0.2601	0.7057	0.1765	-0.542
Mof_C 	C 	0.2141	0.7455	0.1373	0.61
Mof_C 	C 	0.2432	0.7814	0.0562	-1.147
Mof_C 	C 	0.144	0.7504	0.1714	-0.561
Mof_C 	C 	0.1227	0.7155	0.2445	0.296
Mof_C 	C 	0.4856	0.2428	0.8344	0.335
Mof_C 	C 	0.4352	0.3182	0.835	-0.128
Mof_C 	C 	0.4579	0.3651	0.8349	0.043
Mof_C 	C 	0.6732	0.2338	0.8432	0.283
Mof_C 	C 	0.7057	0.2601	0.8577	-0.548
Mof_C 	C 	0.7455	0.2141	0.9031	0.619
Mof_C 	C 	0.7814	0.2432	0.9192	-1.164
Mof_C 	C 	0.7504	0.144	0.9342	-0.567
Mof_C 	C 	0.7155	0.1227	0.9173	0.3
Mof_C 	C 	0.4372	0.8344	0.2428	0.335
Mof_C 	C 	0.4116	0.835	0.3182	-0.128
Mof_C 	C 	0.3421	0.8349	0.3651	0.043
Mof_C 	C 	0.2498	0.8432	0.2338	0.281
Mof_C 	C 	0.1765	0.8577	0.2601	-0.543
Mof_C 	C 	0.1373	0.9031	0.2141	0.612
Mof_C 	C 	0.0562	0.9192	0.2432	-1.151
Mof_C 	C 	0.1714	0.9342	0.144	-0.562
Mof_C 	C 	0.2445	0.9173	0.1227	0.297
Mof_C 	C 	0.8344	0.4372	0.4856	0.335
Mof_C 	C 	0.835	0.4116	0.4352	-0.128
Mof_C 	C 	0.8349	0.3421	0.4579	0.043
Mof_C 	C 	0.8432	0.2498	0.6732	0.281
Mof_C 	C 	0.8577	0.1765	0.7057	-0.544
Mof_C 	C 	0.9031	0.1373	0.7455	0.614
Mof_C 	C 	0.9192	0.0562	0.7814	-1.154
Mof_C 	C 	0.9342	0.1714	0.7504	-0.563
Mof_C 	C 	0.9173	0.2445	0.7155	0.298
Mof_C 	C 	0.2428	0.4372	0.8344	0.335
Mof_C 	C 	0.3182	0.4116	0.835	-0.128
Mof_C 	C 	0.3651	0.3421	0.8349	0.043
Mof_C 	C 	0.2338	0.2498	0.8432	0.281
Mof_C 	C 	0.2601	0.1765	0.8577	-0.543
Mof_C 	C 	0.2141	0.1373	0.9031	0.612
Mof_C 	C 	0.2432	0.0562	0.9192	-1.151
Mof_C 	C 	0.144	0.1714	0.9342	-0.562
Mof_C 	C 	0.1227	0.2445	0.9173	0.297
Mof_C 	C 	0.4856	0.8344	0.4372	0.335
Mof_C 	C 	0.4352	0.835	0.4116	-0.128
Mof_C 	C 	0.4579	0.8349	0.3421	0.043
Mof_C 	C 	0.6732	0.8432	0.2498	0.281
Mof_C 	C 	0.7057	0.8577	0.1765	-0.544
Mof_C 	C 	0.7455	0.9031	0.1373	0.614
Mof_C 	C 	0.7814	0.9192	0.0562	-1.154
Mof_C 	C 	0.7504	0.9342	0.1714	-0.563
Mof_C 	C 	0.7155	0.9173	0.2445	0.298
Mof_C 	C 	0.4372	0.2428	0.4856	0.335
Mof_C 	C 	0.4116	0.3182	0.4352	-0.128
Mof_C 	C 	0.3421	0.3651	0.4579	0.043
Mof_C 	C 	0.2498	0.2338	0.6732	0.28
Mof_C 	C 	0.1765	0.2601	0.7057	-0.542
Mof_C 	C 	0.1373	0.2141	0.7455	0.61
Mof_C 	C 	0.0562	0.2432	0.7814	-1.147
Mof_C 	C 	0.1714	0.144	0.7504	-0.561
Mof_C 	C 	0.2445	0.1227	0.7155	0.296
Mof_C 	C 	0.8344	0.4856	0.2428	0.335
Mof_C 	C 	0.835	0.4352	0.3182	-0.128
Mof_C 	C 	0.8349	0.4579	0.3651	0.043
Mof_C 	C 	0.8432	0.6732	0.2338	0.283
Mof_C 	C 	0.8577	0.7057	0.2601	-0.548
Mof_C 	C 	0.9031	0.7455	0.2141	0.619
Mof_C 	C 	0.9192	0.7814	0.2432	-1.164
Mof_C 	C 	0.9342	0.7504	0.144	-0.567
Mof_C 	C 	0.9173	0.7155	0.1227	0.3
Mof_C 	C 	0.2428	0.8344	0.4856	0.335
Mof_C 	C 	0.3182	0.835	0.4352	-0.128
Mof_C 	C 	0.3651	0.8349	0.4579	0.043
Mof_C 	C 	0.2338	0.8432	0.6732	0.283
Mof_C 	C 	0.2601	0.8577	0.7057	-0.548
Mof_C 	C 	0.2141	0.9031	0.7455	0.619
Mof_C 	C 	0.2432	0.9192	0.7814	-1.164
Mof_C 	C 	0.144	0.9342	0.7504	-0.567
Mof_C 	C 	0.1227	0.9173	0.7155	0.3
Mof_C 	C 	0.4856	0.4372	0.2428	0.335
Mof_C 	C 	0.4352	0.4116	0.3182	-0.128
Mof_C 	C 	0.4579	0.3421	0.3651	0.043
Mof_C 	C 	0.6732	0.2498	0.2338	0.28
Mof_C 	C 	0.7057	0.1765	0.2601	-0.542
Mof_C 	C 	0.7455	0.1373	0.2141	0.61
Mof_C 	C 	0.7814	0.0562	0.2432	-1.147
Mof_C 	C 	0.7504	0.1714	0.144	-0.561
Mof_C 	C 	0.7155	0.2445	0.1227	0.296
Mof_C 	C 	0.4372	0.4856	0.8344	0.335
Mof_C 	C 	0.4116	0.4352	0.835	-0.128
Mof_C 	C 	0.3421	0.4579	0.8349	0.043
Mof_C 	C 	0.2498	0.6732	0.8432	0.281
Mof_C 	C 	0.1765	0.7057	0.8577	-0.544
Mof_C 	C 	0.1373	0.7455	0.9031	0.614
Mof_C 	C 	0.0562	0.7814	0.9192	-1.154
Mof_C 	C 	0.1714	0.7504	0.9342	-0.563
Mof_C 	C 	0.2445	0.7155	0.9173	0.298
Mof_C 	C 	0.8344	0.2428	0.4372	0.335
Mof_C 	C 	0.835	0.3182	0.4116	-0.128
Mof_C 	C 	0.8349	0.3651	0.3421	0.043
Mof_C 	C 	0.8432	0.2338	0.2498	0.281
Mof_C 	C 	0.8577	0.2601	0.1765	-0.543
Mof_C 	C 	0.9031	0.2141	0.1373	0.612
Mof_C 	C 	0.9192	0.2432	0.0562	-1.151
Mof_C 	C 	0.9342	0.144	0.1714	-0.562
Mof_C 	C 	0.9173	0.1227	0.2445	0.297
Mof_C 	C 	0.7644	0.0072	0.8128	0.324
Mof_C 	C 	0.8148	0.9318	0.8384	-0.111
Mof_C 	C 	0.7921	0.8849	0.9079	0.03
Mof_C 	C 	0.5768	0.0162	0.0002	0.23
Mof_C 	C 	0.5443	0.9899	0.0735	-0.501
Mof_C 	C 	0.5045	0.0359	0.1127	0.59
Mof_C 	C 	0.4686	0.0068	0.1938	-1.165
Mof_C 	C 	0.4996	0.106	0.0786	-0.539
Mof_C 	C 	0.5345	0.1273	0.0055	0.269
Mof_C 	C 	0.0072	0.7644	0.4156	0.327
Mof_C 	C 	0.9318	0.8148	0.415	-0.116
Mof_C 	C 	0.8849	0.7921	0.4151	0.036
Mof_C 	C 	0.0162	0.5768	0.4068	0.255
Mof_C 	C 	0.9899	0.5443	0.3923	-0.521
Mof_C 	C 	0.0359	0.5045	0.3469	0.609
Mof_C 	C 	0.0068	0.4686	0.3308	-1.19
Mof_C 	C 	0.106	0.4996	0.3158	-0.561
Mof_C 	C 	0.1273	0.5345	0.3327	0.295
Mof_C 	C 	0.4156	0.8128	0.0072	0.327
Mof_C 	C 	0.415	0.8384	0.9318	-0.116
Mof_C 	C 	0.4151	0.9079	0.8849	0.034
Mof_C 	C 	0.4068	0.0002	0.0162	0.234
Mof_C 	C 	0.3923	0.0735	0.9899	-0.504
Mof_C 	C 	0.3469	0.1127	0.0359	0.592
Mof_C 	C 	0.3308	0.1938	0.0068	-1.165
Mof_C 	C 	0.3158	0.0786	0.106	-0.541
Mof_C 	C 	0.3327	0.0055	0.1273	0.272
Mof_C 	C 	0.8128	0.4156	0.7644	0.333
Mof_C 	C 	0.8384	0.415	0.8148	-0.122
Mof_C 	C 	0.9079	0.4151	0.7921	0.036
Mof_C 	C 	0.0002	0.4068	0.5768	0.253
Mof_C 	C 	0.0735	0.3923	0.5443	-0.52
Mof_C 	C 	0.1127	0.3469	0.5045	0.592
Mof_C 	C 	0.1938	0.3308	0.4686	-1.131
Mof_C 	C 	0.0786	0.3158	0.4996	-0.539
Mof_C 	C 	0.0055	0.3327	0.5345	0.269
Mof_C 	C 	0.8128	0.0072	0.4156	0.327
Mof_C 	C 	0.8384	0.9318	0.415	-0.116
Mof_C 	C 	0.9079	0.8849	0.4151	0.034
Mof_C 	C 	0.0002	0.0162	0.4068	0.234
Mof_C 	C 	0.0735	0.9899	0.3923	-0.504
Mof_C 	C 	0.1127	0.0359	0.3469	0.592
Mof_C 	C 	0.1938	0.0068	0.3308	-1.165
Mof_C 	C 	0.0786	0.106	0.3158	-0.541
Mof_C 	C 	0.0055	0.1273	0.3327	0.272
Mof_C 	C 	0.4156	0.7644	0.8128	0.333
Mof_C 	C 	0.415	0.8148	0.8384	-0.122
Mof_C 	C 	0.4151	0.7921	0.9079	0.036
Mof_C 	C 	0.4068	0.5768	0.0002	0.253
Mof_C 	C 	0.3923	0.5443	0.0735	-0.52
Mof_C 	C 	0.3469	0.5045	0.1127	0.592
Mof_C 	C 	0.3308	0.4686	0.1938	-1.131
Mof_C 	C 	0.3158	0.4996	0.0786	-0.539
Mof_C 	C 	0.3327	0.5345	0.0055	0.269
Mof_C 	C 	0.0072	0.8128	0.7644	0.324
Mof_C 	C 	0.9318	0.8384	0.8148	-0.111
Mof_C 	C 	0.8849	0.9079	0.7921	0.03
Mof_C 	C 	0.0162	0.0002	0.5768	0.23
Mof_C 	C 	0.9899	0.0735	0.5443	-0.501
Mof_C 	C 	0.0359	0.1127	0.5045	0.59
Mof_C 	C 	0.0068	0.1938	0.4686	-1.165
Mof_C 	C 	0.106	0.0786	0.4996	-0.539
Mof_C 	C 	0.1273	0.0055	0.5345	0.269
Mof_C 	C 	0.7644	0.4156	0.0072	0.327
Mof_C 	C 	0.8148	0.415	0.9318	-0.116
Mof_C 	C 	0.7921	0.4151	0.8849	0.036
Mof_C 	C 	0.5768	0.4068	0.0162	0.255
Mof_C 	C 	0.5443	0.3923	0.9899	-0.521
Mof_C 	C 	0.5045	0.3469	0.0359	0.609
Mof_C 	C 	0.4686	0.3308	0.0068	-1.19
Mof_C 	C 	0.4996	0.3158	0.106	-0.561
Mof_C 	C 	0.5345	0.3327	0.1273	0.295
Mof_C 	C 	0.4156	0.0072	0.7644	0.327
Mof_C 	C 	0.415	0.9318	0.8148	-0.116
Mof_C 	C 	0.4151	0.8849	0.7921	0.036
Mof_C 	C 	0.4068	0.0162	0.5768	0.255
Mof_C 	C 	0.3923	0.9899	0.5443	-0.521
Mof_C 	C 	0.3469	0.0359	0.5045	0.609
Mof_C 	C 	0.3308	0.0068	0.4686	-1.19
Mof_C 	C 	0.3158	0.106	0.4996	-0.561
Mof_C 	C 	0.3327	0.1273	0.5345	0.295
Mof_C 	C 	0.8128	0.7644	0.0072	0.324
Mof_C 	C 	0.8384	0.8148	0.9318	-0.111
Mof_C 	C 	0.9079	0.7921	0.8849	0.03
Mof_C 	C 	0.0002	0.5768	0.0162	0.23
Mof_C 	C 	0.0735	0.5443	0.9899	-0.501
Mof_C 	C 	0.1127	0.5045	0.0359	0.59
Mof_C 	C 	0.1938	0.4686	0.0068	-1.165
Mof_C 	C 	0.0786	0.4996	0.106	-0.539
Mof_C 	C 	0.0055	0.5345	0.1273	0.269
Mof_C 	C 	0.7644	0.8128	0.4156	0.333
Mof_C 	C 	0.8148	0.8384	0.415	-0.122
Mof_C 	C 	0.7921	0.9079	0.4151	0.036
Mof_C 	C 	0.5768	0.0002	0.4068	0.253
Mof_C 	C 	0.5443	0.0735	0.3923	-0.52
Mof_C 	C 	0.5045	0.1127	0.3469	0.592
Mof_C 	C 	0.4686	0.1938	0.3308	-1.131
Mof_C 	C 	0.4996	0.0786	0.3158	-0.539
Mof_C 	C 	0.5345	0.0055	0.3327	0.269
Mof_C 	C 	0.0072	0.4156	0.8128	0.327
Mof_C 	C 	0.9318	0.415	0.8384	-0.116
Mof_C 	C 	0.8849	0.4151	0.9079	0.034
Mof_C 	C 	0.0162	0.4068	0.0002	0.234
Mof_C 	C 	0.9899	0.3923	0.0735	-0.504
Mof_C 	C 	0.0359	0.3469	0.1127	0.592
Mof_C 	C 	0.0068	0.3308	0.1938	-1.165
Mof_C 	C 	0.106	0.3158	0.0786	-0.541
Mof_C 	C 	0.1273	0.3327	0.0055	0.272
Mof_N 	N 	0.1639	0.6773	0.2861	-0.321
Mof_N 	N 	0.6773	0.1639	0.8727	-0.323
Mof_N 	N 	0.2861	0.8727	0.1639	-0.322
Mof_N 	N 	0.8727	0.2861	0.6773	-0.322
Mof_N 	N 	0.1639	0.2861	0.8727	-0.322
Mof_N 	N 	0.6773	0.8727	0.2861	-0.322
Mof_N 	N 	0.2861	0.1639	0.6773	-0.321
Mof_N 	N 	0.8727	0.6773	0.1639	-0.323
Mof_N 	N 	0.1639	0.8727	0.6773	-0.323
Mof_N 	N 	0.6773	0.2861	0.1639	-0.321
Mof_N 	N 	0.2861	0.6773	0.8727	-0.322
Mof_N 	N 	0.8727	0.1639	0.2861	-0.322
Mof_N 	N 	0.5727	0.0861	0.9639	-0.306
Mof_N 	N 	0.0861	0.5727	0.3773	-0.317
Mof_N 	N 	0.3773	0.9639	0.0861	-0.307
Mof_N 	N 	0.9639	0.3773	0.5727	-0.308
Mof_N 	N 	0.9639	0.0861	0.3773	-0.307
Mof_N 	N 	0.3773	0.5727	0.9639	-0.308
Mof_N 	N 	0.0861	0.9639	0.5727	-0.306
Mof_N 	N 	0.5727	0.3773	0.0861	-0.317
Mof_N 	N 	0.3773	0.0861	0.5727	-0.317
Mof_N 	N 	0.9639	0.5727	0.0861	-0.306
Mof_N 	N 	0.5727	0.9639	0.3773	-0.308
Mof_N 	N 	0.0861	0.3773	0.9639	-0.307
Mof_O 	O 	0.2219	0.5437	0.3887	-0.436
Mof_O 	O 	0.2059	0.4675	0.5025	-0.31
Mof_O 	O 	0.5437	0.2219	0.8457	-0.436
Mof_O 	O 	0.4675	0.2059	0.8241	-0.309
Mof_O 	O 	0.3887	0.8457	0.2219	-0.436
Mof_O 	O 	0.5025	0.8241	0.2059	-0.309
Mof_O 	O 	0.8457	0.3887	0.5437	-0.436
Mof_O 	O 	0.8241	0.5025	0.4675	-0.309
Mof_O 	O 	0.2219	0.3887	0.8457	-0.436
Mof_O 	O 	0.2059	0.5025	0.8241	-0.309
Mof_O 	O 	0.5437	0.8457	0.3887	-0.436
Mof_O 	O 	0.4675	0.8241	0.5025	-0.309
Mof_O 	O 	0.3887	0.2219	0.5437	-0.436
Mof_O 	O 	0.5025	0.2059	0.4675	-0.31
Mof_O 	O 	0.8457	0.5437	0.2219	-0.436
Mof_O 	O 	0.8241	0.4675	0.2059	-0.309
Mof_O 	O 	0.2219	0.8457	0.5437	-0.436
Mof_O 	O 	0.2059	0.8241	0.4675	-0.309
Mof_O 	O 	0.5437	0.3887	0.2219	-0.436
Mof_O 	O 	0.4675	0.5025	0.2059	-0.31
Mof_O 	O 	0.3887	0.5437	0.8457	-0.436
Mof_O 	O 	0.5025	0.4675	0.8241	-0.309
Mof_O 	O 	0.8457	0.2219	0.3887	-0.436
Mof_O 	O 	0.8241	0.2059	0.5025	-0.309
Mof_O 	O 	0.7063	0.0281	0.8613	-0.435
Mof_O 	O 	0.7825	0.0441	0.7475	-0.309
Mof_O 	O 	0.0281	0.7063	0.4043	-0.436
Mof_O 	O 	0.0441	0.7825	0.4259	-0.309
Mof_O 	O 	0.4043	0.8613	0.0281	-0.436
Mof_O 	O 	0.4259	0.7475	0.0441	-0.309
Mof_O 	O 	0.8613	0.4043	0.7063	-0.435
Mof_O 	O 	0.7475	0.4259	0.7825	-0.309
Mof_O 	O 	0.8613	0.0281	0.4043	-0.436
Mof_O 	O 	0.7475	0.0441	0.4259	-0.309
Mof_O 	O 	0.4043	0.7063	0.8613	-0.435
Mof_O 	O 	0.4259	0.7825	0.7475	-0.309
Mof_O 	O 	0.0281	0.8613	0.7063	-0.435
Mof_O 	O 	0.0441	0.7475	0.7825	-0.309
Mof_O 	O 	0.7063	0.4043	0.0281	-0.436
Mof_O 	O 	0.7825	0.4259	0.0441	-0.309
Mof_O 	O 	0.4043	0.0281	0.7063	-0.436
Mof_O 	O 	0.4259	0.0441	0.7825	-0.309
Mof_O 	O 	0.8613	0.7063	0.0281	-0.435
Mof_O 	O 	0.7475	0.7825	0.0441	-0.309
Mof_O 	O 	0.7063	0.8613	0.4043	-0.435
Mof_O 	O 	0.7825	0.7475	0.4259	-0.309
Mof_O 	O 	0.0281	0.4043	0.8613	-0.436
Mof_O 	O 	0.0441	0.4259	0.7475	-0.309
_end
