data_functionalizedCrystal
_audit_creation_method	'EQeq! by Chris Wilmer'
_symmetry_space_group_name_H-M	'P1'
_symmetry_Int_Tables_number	1
_symmetry_cell_setting	triclinic
loop_
_symmetry_equiv_pos_as_xyz
  x,y,z
_cell_length_a	15.44
_cell_length_b	15.44
_cell_length_c	16.254
_cell_angle_alpha	90
_cell_angle_beta	90
_cell_angle_gamma	120
loop_
_atom_site_label
_atom_site_type_symbol
_atom_site_fract_x
_atom_site_fract_y
_atom_site_fract_z
_atom_site_charge
Mof_Yb	Yb	0.66667	0.33334	0.75	1.613
Mof_Yb	Yb	0.33333	0.66666	0.75	1.613
Mof_Yb	Yb	0.33333	0.66666	0.25	1.605
Mof_Yb	Yb	0.66667	0.33334	0.25	1.605
Mof_Mn	Mn	0.5	0	-0	0.677
Mof_Mn	Mn	0.5	0.5	-0	0.751
Mof_Mn	Mn	-0	0.5	-0	0.677
Mof_Mn	Mn	0.5	7.52255e-33	0.5	0.804
Mof_Mn	Mn	3.29656e-18	0.5	0.5	0.804
Mof_Mn	Mn	0.5	0.5	0.5	0.879
Mof_H 	H 	0.2915	0.0595	0.8437	0.06
Mof_H 	H 	0.768	0.7085	0.8437	0.08
Mof_H 	H 	0.9405	0.232	0.8437	0.084
Mof_H 	H 	0.7085	0.9405	0.8437	0.09
Mof_H 	H 	0.232	0.2915	0.8437	0.069
Mof_H 	H 	0.0595	0.768	0.8437	0.065
Mof_H 	H 	0.232	0.9405	0.6563	0.071
Mof_H 	H 	0.0595	0.2915	0.6563	0.046
Mof_H 	H 	0.7085	0.768	0.6563	0.066
Mof_H 	H 	0.768	0.0595	0.6563	0.052
Mof_H 	H 	0.9405	0.7085	0.6563	0.076
Mof_H 	H 	0.2915	0.232	0.6563	0.054
Mof_H 	H 	0.7085	0.9405	0.1563	0.065
Mof_H 	H 	0.232	0.2915	0.1563	0.043
Mof_H 	H 	0.0595	0.768	0.1563	0.04
Mof_H 	H 	0.2915	0.0595	0.1563	0.034
Mof_H 	H 	0.768	0.7085	0.1563	0.055
Mof_H 	H 	0.9405	0.232	0.1563	0.06
Mof_H 	H 	0.768	0.0595	0.3437	0.05
Mof_H 	H 	0.9405	0.7085	0.3437	0.075
Mof_H 	H 	0.2915	0.232	0.3437	0.053
Mof_H 	H 	0.232	0.9405	0.3437	0.07
Mof_H 	H 	0.0595	0.2915	0.3437	0.044
Mof_H 	H 	0.7085	0.768	0.3437	0.065
Mof_H 	H 	0.2028	0.1014	0.75	0.019
Mof_H 	H 	0.8986	0.7972	0.75	0.052
Mof_H 	H 	0.8986	0.1014	0.75	0.035
Mof_H 	H 	0.7972	0.8986	0.75	0.052
Mof_H 	H 	0.1014	0.2028	0.75	0.019
Mof_H 	H 	0.1014	0.8986	0.75	0.035
Mof_H 	H 	0.7972	0.8986	0.25	0.048
Mof_H 	H 	0.1014	0.2028	0.25	0.014
Mof_H 	H 	0.1014	0.8986	0.25	0.031
Mof_H 	H 	0.2028	0.1014	0.25	0.014
Mof_H 	H 	0.8986	0.7972	0.25	0.048
Mof_H 	H 	0.8986	0.1014	0.25	0.031
Mof_C 	C 	0.3252	0.1106	0.8057	-0.059
Mof_C 	C 	0.4287	0.1631	0.8028	0.003
Mof_C 	C 	0.4958	0.1426	0.8604	0.306
Mof_C 	C 	0.7854	0.6748	0.8057	-0.051
Mof_C 	C 	0.7344	0.5713	0.8028	0.013
Mof_C 	C 	0.6468	0.5042	0.8604	0.31
Mof_C 	C 	0.8894	0.2146	0.8057	-0.055
Mof_C 	C 	0.8369	0.2656	0.8028	0.016
Mof_C 	C 	0.8574	0.3532	0.8604	0.305
Mof_C 	C 	0.6748	0.8894	0.8057	-0.051
Mof_C 	C 	0.5713	0.8369	0.8028	0.019
Mof_C 	C 	0.5042	0.8574	0.8604	0.306
Mof_C 	C 	0.2146	0.3252	0.8057	-0.058
Mof_C 	C 	0.2656	0.4287	0.8028	0.006
Mof_C 	C 	0.3532	0.4958	0.8604	0.309
Mof_C 	C 	0.1106	0.7854	0.8057	-0.056
Mof_C 	C 	0.1631	0.7344	0.8028	0.007
Mof_C 	C 	0.1426	0.6468	0.8604	0.307
Mof_C 	C 	0.2146	0.8894	0.6943	-0.054
Mof_C 	C 	0.2656	0.8369	0.6972	0.006
Mof_C 	C 	0.3532	0.8574	0.6396	0.311
Mof_C 	C 	0.1106	0.3252	0.6943	-0.057
Mof_C 	C 	0.1631	0.4287	0.6972	-0.007
Mof_C 	C 	0.1426	0.4958	0.6396	0.312
Mof_C 	C 	0.6748	0.7854	0.6943	-0.049
Mof_C 	C 	0.5713	0.7344	0.6972	0.003
Mof_C 	C 	0.5042	0.6468	0.6396	0.316
Mof_C 	C 	0.7854	0.1106	0.6943	-0.054
Mof_C 	C 	0.7344	0.1631	0.6972	-0.003
Mof_C 	C 	0.6468	0.1426	0.6396	0.313
Mof_C 	C 	0.8894	0.6748	0.6943	-0.05
Mof_C 	C 	0.8369	0.5713	0.6972	0.009
Mof_C 	C 	0.8574	0.5042	0.6396	0.311
Mof_C 	C 	0.3252	0.2146	0.6943	-0.056
Mof_C 	C 	0.4287	0.2656	0.6972	-0.004
Mof_C 	C 	0.4958	0.3532	0.6396	0.315
Mof_C 	C 	0.6748	0.8894	0.1943	-0.047
Mof_C 	C 	0.5713	0.8369	0.1972	0.002
Mof_C 	C 	0.5042	0.8574	0.1396	0.306
Mof_C 	C 	0.2146	0.3252	0.1943	-0.053
Mof_C 	C 	0.2656	0.4287	0.1972	-0.012
Mof_C 	C 	0.3532	0.4958	0.1396	0.31
Mof_C 	C 	0.1106	0.7854	0.1943	-0.051
Mof_C 	C 	0.1631	0.7344	0.1972	-0.011
Mof_C 	C 	0.1426	0.6468	0.1396	0.308
Mof_C 	C 	0.3252	0.1106	0.1943	-0.054
Mof_C 	C 	0.4287	0.1631	0.1972	-0.015
Mof_C 	C 	0.4958	0.1426	0.1396	0.307
Mof_C 	C 	0.7854	0.6748	0.1943	-0.046
Mof_C 	C 	0.7344	0.5713	0.1972	-0.005
Mof_C 	C 	0.6468	0.5042	0.1396	0.311
Mof_C 	C 	0.8894	0.2146	0.1943	-0.051
Mof_C 	C 	0.8369	0.2656	0.1972	-0.001
Mof_C 	C 	0.8574	0.3532	0.1396	0.306
Mof_C 	C 	0.7854	0.1106	0.3057	-0.05
Mof_C 	C 	0.7344	0.1631	0.3028	-0.007
Mof_C 	C 	0.6468	0.1426	0.3604	0.314
Mof_C 	C 	0.8894	0.6748	0.3057	-0.046
Mof_C 	C 	0.8369	0.5713	0.3028	0.005
Mof_C 	C 	0.8574	0.5042	0.3604	0.312
Mof_C 	C 	0.3252	0.2146	0.3057	-0.053
Mof_C 	C 	0.4287	0.2656	0.3028	-0.008
Mof_C 	C 	0.4958	0.3532	0.3604	0.315
Mof_C 	C 	0.2146	0.8894	0.3057	-0.05
Mof_C 	C 	0.2656	0.8369	0.3028	0.002
Mof_C 	C 	0.3532	0.8574	0.3604	0.311
Mof_C 	C 	0.1106	0.3252	0.3057	-0.054
Mof_C 	C 	0.1631	0.4287	0.3028	-0.011
Mof_C 	C 	0.1426	0.4958	0.3604	0.312
Mof_C 	C 	0.6748	0.7854	0.3057	-0.045
Mof_C 	C 	0.5713	0.7344	0.3028	-0.001
Mof_C 	C 	0.5042	0.6468	0.3604	0.317
Mof_C 	C 	0.2723	0.13615	0.75	-0.02
Mof_C 	C 	0.86385	0.7277	0.75	-0.006
Mof_C 	C 	0.86385	0.13615	0.75	-0.012
Mof_C 	C 	0.7277	0.86385	0.75	-0.006
Mof_C 	C 	0.13615	0.2723	0.75	-0.019
Mof_C 	C 	0.13615	0.86385	0.75	-0.012
Mof_C 	C 	0.7277	0.86385	0.25	-0.017
Mof_C 	C 	0.13615	0.2723	0.25	-0.031
Mof_C 	C 	0.13615	0.86385	0.25	-0.023
Mof_C 	C 	0.2723	0.13615	0.25	-0.031
Mof_C 	C 	0.86385	0.7277	0.25	-0.017
Mof_C 	C 	0.86385	0.13615	0.25	-0.023
Mof_N 	N 	0.481	0.2405	0.75	-0.18
Mof_N 	N 	0.7595	0.519	0.75	-0.179
Mof_N 	N 	0.7595	0.2405	0.75	-0.18
Mof_N 	N 	0.519	0.7595	0.75	-0.179
Mof_N 	N 	0.2405	0.481	0.75	-0.18
Mof_N 	N 	0.2405	0.7595	0.75	-0.18
Mof_N 	N 	0.519	0.7595	0.25	-0.177
Mof_N 	N 	0.2405	0.481	0.25	-0.178
Mof_N 	N 	0.2405	0.7595	0.25	-0.178
Mof_N 	N 	0.481	0.2405	0.25	-0.178
Mof_N 	N 	0.7595	0.519	0.25	-0.177
Mof_N 	N 	0.7595	0.2405	0.25	-0.178
Mof_O 	O 	0.5913	0.2017	0.8541	-0.359
Mof_O 	O 	0.451	0.0675	0.9073	-0.299
Mof_O 	O 	0.6104	0.4087	0.8541	-0.355
Mof_O 	O 	0.6165	0.549	0.9073	-0.289
Mof_O 	O 	0.7983	0.3896	0.8541	-0.346
Mof_O 	O 	0.9325	0.3835	0.9073	-0.26
Mof_O 	O 	0.4087	0.7983	0.8541	-0.346
Mof_O 	O 	0.549	0.9325	0.9073	-0.258
Mof_O 	O 	0.3896	0.5913	0.8541	-0.356
Mof_O 	O 	0.3835	0.451	0.9073	-0.293
Mof_O 	O 	0.2017	0.6104	0.8541	-0.359
Mof_O 	O 	0.0675	0.6165	0.9073	-0.297
Mof_O 	O 	0.3896	0.7983	0.6459	-0.368
Mof_O 	O 	0.3835	0.9325	0.5927	-0.314
Mof_O 	O 	0.2017	0.5913	0.6459	-0.382
Mof_O 	O 	0.0675	0.451	0.5927	-0.355
Mof_O 	O 	0.4087	0.6104	0.6459	-0.378
Mof_O 	O 	0.549	0.6165	0.5927	-0.344
Mof_O 	O 	0.6104	0.2017	0.6459	-0.381
Mof_O 	O 	0.6165	0.0675	0.5927	-0.352
Mof_O 	O 	0.7983	0.4087	0.6459	-0.368
Mof_O 	O 	0.9325	0.549	0.5927	-0.311
Mof_O 	O 	0.5913	0.3896	0.6459	-0.378
Mof_O 	O 	0.451	0.3835	0.5927	-0.349
Mof_O 	O 	0.4087	0.7983	0.1459	-0.375
Mof_O 	O 	0.549	0.9325	0.0927	-0.318
Mof_O 	O 	0.3896	0.5913	0.1459	-0.386
Mof_O 	O 	0.3835	0.451	0.0927	-0.356
Mof_O 	O 	0.2017	0.6104	0.1459	-0.389
Mof_O 	O 	0.0675	0.6165	0.0927	-0.359
Mof_O 	O 	0.5913	0.2017	0.1459	-0.389
Mof_O 	O 	0.451	0.0675	0.0927	-0.362
Mof_O 	O 	0.6104	0.4087	0.1459	-0.385
Mof_O 	O 	0.6165	0.549	0.0927	-0.351
Mof_O 	O 	0.7983	0.3896	0.1459	-0.375
Mof_O 	O 	0.9325	0.3835	0.0927	-0.32
Mof_O 	O 	0.6104	0.2017	0.3541	-0.38
Mof_O 	O 	0.6165	0.0675	0.4073	-0.353
Mof_O 	O 	0.7983	0.4087	0.3541	-0.367
Mof_O 	O 	0.9325	0.549	0.4073	-0.311
Mof_O 	O 	0.5913	0.3896	0.3541	-0.377
Mof_O 	O 	0.451	0.3835	0.4073	-0.349
Mof_O 	O 	0.3896	0.7983	0.3541	-0.367
Mof_O 	O 	0.3835	0.9325	0.4073	-0.314
Mof_O 	O 	0.2017	0.5913	0.3541	-0.381
Mof_O 	O 	0.0675	0.451	0.4073	-0.355
Mof_O 	O 	0.4087	0.6104	0.3541	-0.377
Mof_O 	O 	0.549	0.6165	0.4073	-0.345
_end
