data_functionalizedCrystal
_audit_creation_method	'EQeq! by Chris Wilmer'
_symmetry_space_group_name_H-M	'P1'
_symmetry_Int_Tables_number	1
_symmetry_cell_setting	triclinic
loop_
_symmetry_equiv_pos_as_xyz
  x,y,z
_cell_length_a	10.416
_cell_length_b	11.44
_cell_length_c	22.457
_cell_angle_alpha	90
_cell_angle_beta	97.695
_cell_angle_gamma	90
loop_
_atom_site_label
_atom_site_type_symbol
_atom_site_fract_x
_atom_site_fract_y
_atom_site_fract_z
_atom_site_charge
Mof_Ce	Ce	0.39228	0.30702	0.77481	2.76
Mof_Ce	Ce	0.73688	0.58	0.93495	2.337
Mof_Ce	Ce	0.10772	0.80702	0.72519	2.746
Mof_Ce	Ce	0.76312	0.08	0.56505	2.326
Mof_Ce	Ce	0.60772	0.69298	0.22519	2.76
Mof_Ce	Ce	0.26312	0.42	0.06505	2.337
Mof_Ce	Ce	0.89228	0.19298	0.27481	2.746
Mof_Ce	Ce	0.23688	0.92	0.43495	2.326
Mof_H 	H 	0.8863	0.3756	0.8379	0.125
Mof_H 	H 	0.6636	0.5212	0.6632	0.119
Mof_H 	H 	0.023	0.2819	0.7105	0.221
Mof_H 	H 	0.8878	0.3102	0.7304	0.218
Mof_H 	H 	0.9762	0.4119	0.7127	0.227
Mof_H 	H 	0.9056	0.6342	0.5907	0.201
Mof_H 	H 	0.762	0.5915	0.5756	0.207
Mof_H 	H 	0.7917	0.7245	0.587	0.203
Mof_H 	H 	0.6137	0.8756	0.6621	0.126
Mof_H 	H 	0.8364	0.0212	0.8368	0.118
Mof_H 	H 	0.477	0.7819	0.7895	0.214
Mof_H 	H 	0.6122	0.8102	0.7696	0.213
Mof_H 	H 	0.5238	0.9119	0.7873	0.222
Mof_H 	H 	0.5944	0.1342	0.9093	0.199
Mof_H 	H 	0.738	0.0915	0.9244	0.205
Mof_H 	H 	0.7083	0.2245	0.913	0.2
Mof_H 	H 	0.1137	0.6244	0.1621	0.126
Mof_H 	H 	0.3364	0.4788	0.3368	0.12
Mof_H 	H 	0.977	0.7181	0.2895	0.221
Mof_H 	H 	0.1122	0.6898	0.2696	0.218
Mof_H 	H 	0.0238	0.5881	0.2873	0.227
Mof_H 	H 	0.0944	0.3658	0.4093	0.201
Mof_H 	H 	0.238	0.4085	0.4244	0.207
Mof_H 	H 	0.2083	0.2755	0.413	0.203
Mof_H 	H 	0.3863	0.1244	0.3379	0.126
Mof_H 	H 	0.1636	0.9788	0.1632	0.118
Mof_H 	H 	0.523	0.2181	0.2105	0.214
Mof_H 	H 	0.3878	0.1898	0.2304	0.213
Mof_H 	H 	0.4762	0.0881	0.2127	0.222
Mof_H 	H 	0.4056	0.8658	0.0907	0.199
Mof_H 	H 	0.262	0.9085	0.0756	0.205
Mof_H 	H 	0.2917	0.7755	0.087	0.2
Mof_C 	C 	0.9958	0.3828	0.95125	0.466
Mof_C 	C 	0.0524	0.3687	0.89424	-0.046
Mof_C 	C 	0.173	0.3502	0.8775	-0.113
Mof_C 	C 	0.3042	0.3483	0.91304	0.497
Mof_C 	C 	0.0373	0.3455	0.79546	0.315
Mof_C 	C 	0.9756	0.3366	0.73153	-0.748
Mof_C 	C 	0.9166	0.6777	0.8193	0.493
Mof_C 	C 	0.846	0.6379	0.76076	-0.115
Mof_C 	C 	0.7417	0.5643	0.74685	-0.051
Mof_C 	C 	0.6604	0.4873	0.78051	0.451
Mof_C 	C 	0.8109	0.6295	0.66374	0.286
Mof_C 	C 	0.8182	0.6464	0.59844	-0.711
Mof_C 	C 	0.2961	0.5857	0.77676	0.284
Mof_C 	C 	0.2344	0.5397	0.71416	0.264
Mof_C 	C 	0.5042	0.8828	0.54875	0.469
Mof_C 	C 	0.4476	0.8687	0.60576	-0.048
Mof_C 	C 	0.327	0.8502	0.6225	-0.113
Mof_C 	C 	0.1958	0.8483	0.58696	0.496
Mof_C 	C 	0.4627	0.8455	0.70454	0.308
Mof_C 	C 	0.5244	0.8366	0.76847	-0.729
Mof_C 	C 	0.5834	0.1777	0.6807	0.487
Mof_C 	C 	0.654	0.1379	0.73924	-0.113
Mof_C 	C 	0.7583	0.0643	0.75315	-0.057
Mof_C 	C 	0.8396	0.9873	0.71949	0.455
Mof_C 	C 	0.6891	0.1295	0.83626	0.284
Mof_C 	C 	0.6818	0.1464	0.90156	-0.705
Mof_C 	C 	0.2039	0.0857	0.72324	0.283
Mof_C 	C 	0.2656	0.0397	0.78584	0.27
Mof_C 	C 	0.0042	0.6172	0.04875	0.466
Mof_C 	C 	0.9476	0.6313	0.10576	-0.046
Mof_C 	C 	0.827	0.6498	0.1225	-0.113
Mof_C 	C 	0.6958	0.6517	0.08696	0.497
Mof_C 	C 	0.9627	0.6545	0.20454	0.315
Mof_C 	C 	0.0244	0.6634	0.26847	-0.748
Mof_C 	C 	0.0834	0.3223	0.1807	0.493
Mof_C 	C 	0.154	0.3621	0.23924	-0.115
Mof_C 	C 	0.2583	0.4357	0.25315	-0.051
Mof_C 	C 	0.3396	0.5127	0.21949	0.451
Mof_C 	C 	0.1891	0.3705	0.33626	0.286
Mof_C 	C 	0.1818	0.3536	0.40156	-0.711
Mof_C 	C 	0.7039	0.4143	0.22324	0.284
Mof_C 	C 	0.7656	0.4603	0.28584	0.264
Mof_C 	C 	0.4958	0.1172	0.45125	0.469
Mof_C 	C 	0.5524	0.1313	0.39424	-0.048
Mof_C 	C 	0.673	0.1498	0.3775	-0.113
Mof_C 	C 	0.8042	0.1517	0.41304	0.496
Mof_C 	C 	0.5373	0.1545	0.29546	0.308
Mof_C 	C 	0.4756	0.1634	0.23153	-0.729
Mof_C 	C 	0.4166	0.8223	0.3193	0.487
Mof_C 	C 	0.346	0.8621	0.26076	-0.113
Mof_C 	C 	0.2417	0.9357	0.24685	-0.057
Mof_C 	C 	0.1604	0.0127	0.28051	0.455
Mof_C 	C 	0.3109	0.8705	0.16374	0.284
Mof_C 	C 	0.3182	0.8536	0.09844	-0.705
Mof_C 	C 	0.7961	0.9143	0.27676	0.283
Mof_C 	C 	0.7344	0.9603	0.21416	0.27
Mof_N 	N 	0.9688	0.3659	0.84122	-0.249
Mof_N 	N 	0.1621	0.336	0.81572	-0.286
Mof_N 	N 	0.8887	0.6778	0.70871	-0.289
Mof_N 	N 	0.7226	0.5609	0.68486	-0.241
Mof_N 	N 	0.5312	0.8659	0.65878	-0.245
Mof_N 	N 	0.3379	0.836	0.68428	-0.285
Mof_N 	N 	0.6113	0.1778	0.79129	-0.291
Mof_N 	N 	0.7774	0.0609	0.81514	-0.239
Mof_N 	N 	0.0312	0.6341	0.15878	-0.249
Mof_N 	N 	0.8379	0.664	0.18428	-0.286
Mof_N 	N 	0.1113	0.3222	0.29129	-0.289
Mof_N 	N 	0.2774	0.4391	0.31514	-0.241
Mof_N 	N 	0.4688	0.1341	0.34122	-0.245
Mof_N 	N 	0.6621	0.164	0.31572	-0.285
Mof_N 	N 	0.3887	0.8222	0.20871	-0.291
Mof_N 	N 	0.2226	0.9391	0.18486	-0.239
Mof_O 	O 	0.8768	0.4073	0.9451	-0.573
Mof_O 	O 	0.0633	0.3662	0.0005	-0.561
Mof_O 	O 	0.398	0.31934	0.88568	-0.621
Mof_O 	O 	0.3192	0.3771	0.96689	-0.672
Mof_O 	O 	0.0206	0.7316	0.81759	-0.549
Mof_O 	O 	0.8709	0.6588	0.86663	-0.607
Mof_O 	O 	0.6851	0.4783	0.83664	-0.61
Mof_O 	O 	0.5738	0.433	0.74833	-0.569
Mof_O 	O 	0.3688	0.5165	0.80887	-0.528
Mof_O 	O 	0.2698	0.68765	0.79018	-0.526
Mof_O 	O 	0.1568	0.60636	0.68384	-0.504
Mof_O 	O 	0.2671	0.4391	0.69915	-0.497
Mof_O 	O 	0.6232	0.9073	0.5549	-0.571
Mof_O 	O 	0.4367	0.8662	0.4995	-0.563
Mof_O 	O 	0.102	0.81934	0.61432	-0.622
Mof_O 	O 	0.1808	0.8771	0.53311	-0.671
Mof_O 	O 	0.4794	0.2316	0.68241	-0.545
Mof_O 	O 	0.6291	0.1588	0.63337	-0.605
Mof_O 	O 	0.8149	0.9783	0.66336	-0.607
Mof_O 	O 	0.9262	0.933	0.75167	-0.565
Mof_O 	O 	0.1312	0.0165	0.69113	-0.523
Mof_O 	O 	0.2302	0.18765	0.70982	-0.526
Mof_O 	O 	0.3432	0.10636	0.81616	-0.506
Mof_O 	O 	0.2329	0.9391	0.80085	-0.501
Mof_O 	O 	0.1232	0.5927	0.0549	-0.573
Mof_O 	O 	0.9367	0.6338	0.9995	-0.561
Mof_O 	O 	0.602	0.68066	0.11432	-0.621
Mof_O 	O 	0.6808	0.6229	0.03311	-0.672
Mof_O 	O 	0.9794	0.2684	0.18241	-0.549
Mof_O 	O 	0.1291	0.3412	0.13337	-0.607
Mof_O 	O 	0.3149	0.5217	0.16336	-0.61
Mof_O 	O 	0.4262	0.567	0.25167	-0.569
Mof_O 	O 	0.6312	0.4835	0.19113	-0.528
Mof_O 	O 	0.7302	0.31235	0.20982	-0.526
Mof_O 	O 	0.8432	0.39364	0.31616	-0.504
Mof_O 	O 	0.7329	0.5609	0.30085	-0.497
Mof_O 	O 	0.3768	0.0927	0.4451	-0.571
Mof_O 	O 	0.5633	0.1338	0.5005	-0.563
Mof_O 	O 	0.898	0.18066	0.38568	-0.622
Mof_O 	O 	0.8192	0.1229	0.46689	-0.671
Mof_O 	O 	0.5206	0.7684	0.31759	-0.545
Mof_O 	O 	0.3709	0.8412	0.36663	-0.605
Mof_O 	O 	0.1851	0.0217	0.33664	-0.607
Mof_O 	O 	0.0738	0.067	0.24833	-0.565
Mof_O 	O 	0.8688	0.9835	0.30887	-0.523
Mof_O 	O 	0.7698	0.81235	0.29018	-0.526
Mof_O 	O 	0.6568	0.89364	0.18384	-0.506
Mof_O 	O 	0.7671	0.0609	0.19915	-0.501
_end
