data_functionalizedCrystal
_audit_creation_method	'EQeq! by Chris Wilmer'
_symmetry_space_group_name_H-M	'P1'
_symmetry_Int_Tables_number	1
_symmetry_cell_setting	triclinic
loop_
_symmetry_equiv_pos_as_xyz
  x,y,z
_cell_length_a	26.115
_cell_length_b	26.436
_cell_length_c	26.3473
_cell_angle_alpha	90
_cell_angle_beta	90
_cell_angle_gamma	90
loop_
_atom_site_label
_atom_site_type_symbol
_atom_site_fract_x
_atom_site_fract_y
_atom_site_fract_z
_atom_site_charge
Mof_Zn	Zn	0.24608	0.5273	0.75325	1.238
Mof_Zn	Zn	0.29034	0.59861	0.85093	1.155
Mof_Zn	Zn	0.90524	0.72118	0.16614	1.156
Mof_Zn	Zn	0.97163	0.73136	0.76372	1.238
Mof_Zn	Zn	0.25392	0.9727	0.75325	1.238
Mof_Zn	Zn	0.20966	0.90139	0.85093	1.155
Mof_Zn	Zn	0.59476	0.77882	0.16614	1.156
Mof_Zn	Zn	0.52837	0.76864	0.76372	1.238
Mof_Zn	Zn	0.74608	0.4727	0.74675	1.238
Mof_Zn	Zn	0.79034	0.40139	0.64907	1.155
Mof_Zn	Zn	0.40524	0.27882	0.33386	1.156
Mof_Zn	Zn	0.47163	0.26864	0.73628	1.238
Mof_Zn	Zn	0.75392	0.0273	0.74675	1.238
Mof_Zn	Zn	0.70966	0.09861	0.64907	1.155
Mof_Zn	Zn	0.09476	0.22118	0.33386	1.156
Mof_Zn	Zn	0.02837	0.23136	0.73628	1.238
Mof_Zn	Zn	0.75392	0.4727	0.24675	1.238
Mof_Zn	Zn	0.70966	0.40139	0.14907	1.155
Mof_Zn	Zn	0.09476	0.27882	0.83386	1.156
Mof_Zn	Zn	0.02837	0.26864	0.23628	1.238
Mof_Zn	Zn	0.74608	0.0273	0.24675	1.238
Mof_Zn	Zn	0.79034	0.09861	0.14907	1.155
Mof_Zn	Zn	0.40524	0.22118	0.83386	1.156
Mof_Zn	Zn	0.47163	0.23136	0.23628	1.238
Mof_Zn	Zn	0.25392	0.5273	0.25325	1.238
Mof_Zn	Zn	0.20966	0.59861	0.35093	1.155
Mof_Zn	Zn	0.59476	0.72118	0.66614	1.156
Mof_Zn	Zn	0.52837	0.73136	0.26372	1.238
Mof_Zn	Zn	0.24608	0.9727	0.25325	1.237
Mof_Zn	Zn	0.29034	0.90139	0.35093	1.154
Mof_Zn	Zn	0.90524	0.77882	0.66614	1.155
Mof_Zn	Zn	0.97163	0.76864	0.26372	1.237
Mof_H 	H 	0.0996	0.6321	0.7866	0.061
Mof_H 	H 	0.0439	0.6496	0.929	0.071
Mof_H 	H 	0.1744	0.5687	0.9055	0.042
Mof_H 	H 	0.0824	0.6602	0.0168	0.039
Mof_H 	H 	0.0365	0.6523	0.1051	0.031
Mof_H 	H 	0.0969	0.6614	0.2464	0.025
Mof_H 	H 	0.1715	0.5832	0.1368	0.055
Mof_H 	H 	0.1582	0.3886	0.736	0.037
Mof_H 	H 	0.0898	0.317	0.6184	0.057
Mof_H 	H 	0.1664	0.4484	0.5952	0.05
Mof_H 	H 	0.162	0.4226	0.5042	0.037
Mof_H 	H 	0.1485	0.4638	0.4192	0.053
Mof_H 	H 	0.1355	0.4161	0.2738	0.051
Mof_H 	H 	0.0764	0.3311	0.3877	0.029
Mof_H 	H 	0.4004	0.8679	0.7866	0.061
Mof_H 	H 	0.4561	0.8504	0.929	0.072
Mof_H 	H 	0.3256	0.9313	0.9055	0.042
Mof_H 	H 	0.4176	0.8398	0.0168	0.039
Mof_H 	H 	0.4635	0.8477	0.1051	0.031
Mof_H 	H 	0.4031	0.8386	0.2464	0.025
Mof_H 	H 	0.3285	0.9168	0.1368	0.055
Mof_H 	H 	0.3418	0.1114	0.736	0.037
Mof_H 	H 	0.4102	0.183	0.6184	0.057
Mof_H 	H 	0.3336	0.0516	0.5952	0.05
Mof_H 	H 	0.338	0.0774	0.5042	0.037
Mof_H 	H 	0.3515	0.0362	0.4192	0.053
Mof_H 	H 	0.3645	0.0839	0.2738	0.051
Mof_H 	H 	0.4236	0.1689	0.3877	0.029
Mof_H 	H 	0.5996	0.3679	0.7134	0.061
Mof_H 	H 	0.5439	0.3504	0.571	0.072
Mof_H 	H 	0.6744	0.4313	0.5945	0.042
Mof_H 	H 	0.5824	0.3398	0.4832	0.039
Mof_H 	H 	0.5365	0.3477	0.3949	0.031
Mof_H 	H 	0.5969	0.3386	0.2536	0.025
Mof_H 	H 	0.6715	0.4168	0.3632	0.055
Mof_H 	H 	0.6582	0.6114	0.764	0.037
Mof_H 	H 	0.5898	0.683	0.8816	0.057
Mof_H 	H 	0.6664	0.5516	0.9048	0.05
Mof_H 	H 	0.662	0.5774	0.9958	0.037
Mof_H 	H 	0.6485	0.5362	0.0808	0.053
Mof_H 	H 	0.6355	0.5839	0.2262	0.051
Mof_H 	H 	0.5764	0.6689	0.1123	0.029
Mof_H 	H 	0.9004	0.1321	0.7134	0.061
Mof_H 	H 	0.9561	0.1496	0.571	0.071
Mof_H 	H 	0.8256	0.0687	0.5945	0.042
Mof_H 	H 	0.9176	0.1602	0.4832	0.039
Mof_H 	H 	0.9635	0.1523	0.3949	0.031
Mof_H 	H 	0.9031	0.1614	0.2536	0.025
Mof_H 	H 	0.8285	0.0832	0.3632	0.055
Mof_H 	H 	0.8418	0.8886	0.764	0.037
Mof_H 	H 	0.9102	0.817	0.8816	0.057
Mof_H 	H 	0.8336	0.9484	0.9048	0.05
Mof_H 	H 	0.838	0.9226	0.9958	0.037
Mof_H 	H 	0.8515	0.9638	0.0808	0.053
Mof_H 	H 	0.8645	0.9161	0.2262	0.051
Mof_H 	H 	0.9236	0.8311	0.1123	0.029
Mof_H 	H 	0.9004	0.3679	0.2134	0.061
Mof_H 	H 	0.9561	0.3504	0.071	0.071
Mof_H 	H 	0.8256	0.4313	0.0945	0.042
Mof_H 	H 	0.9176	0.3398	0.9832	0.039
Mof_H 	H 	0.9635	0.3477	0.8949	0.031
Mof_H 	H 	0.9031	0.3386	0.7536	0.025
Mof_H 	H 	0.8285	0.4168	0.8632	0.055
Mof_H 	H 	0.8418	0.6114	0.264	0.037
Mof_H 	H 	0.9102	0.683	0.3816	0.057
Mof_H 	H 	0.8336	0.5516	0.4048	0.05
Mof_H 	H 	0.838	0.5774	0.4958	0.037
Mof_H 	H 	0.8515	0.5362	0.5808	0.053
Mof_H 	H 	0.8645	0.5839	0.7262	0.051
Mof_H 	H 	0.9236	0.6689	0.6123	0.029
Mof_H 	H 	0.5996	0.1321	0.2134	0.061
Mof_H 	H 	0.5439	0.1496	0.071	0.072
Mof_H 	H 	0.6744	0.0687	0.0945	0.042
Mof_H 	H 	0.5824	0.1602	0.9832	0.039
Mof_H 	H 	0.5365	0.1523	0.8949	0.031
Mof_H 	H 	0.5969	0.1614	0.7536	0.025
Mof_H 	H 	0.6715	0.0832	0.8632	0.055
Mof_H 	H 	0.6582	0.8886	0.264	0.037
Mof_H 	H 	0.5898	0.817	0.3816	0.057
Mof_H 	H 	0.6664	0.9484	0.4048	0.05
Mof_H 	H 	0.662	0.9226	0.4958	0.037
Mof_H 	H 	0.6485	0.9638	0.5808	0.053
Mof_H 	H 	0.6355	0.9161	0.7262	0.051
Mof_H 	H 	0.5764	0.8311	0.6123	0.029
Mof_H 	H 	0.4004	0.6321	0.2866	0.061
Mof_H 	H 	0.4561	0.6496	0.429	0.072
Mof_H 	H 	0.3256	0.5687	0.4055	0.042
Mof_H 	H 	0.4176	0.6602	0.5168	0.039
Mof_H 	H 	0.4635	0.6523	0.6051	0.031
Mof_H 	H 	0.4031	0.6614	0.7464	0.025
Mof_H 	H 	0.3285	0.5832	0.6368	0.055
Mof_H 	H 	0.3418	0.3886	0.236	0.037
Mof_H 	H 	0.4102	0.317	0.1184	0.057
Mof_H 	H 	0.3336	0.4484	0.0952	0.05
Mof_H 	H 	0.338	0.4226	0.0042	0.037
Mof_H 	H 	0.3515	0.4638	0.9192	0.053
Mof_H 	H 	0.3645	0.4161	0.7738	0.051
Mof_H 	H 	0.4236	0.3311	0.8877	0.029
Mof_H 	H 	0.0996	0.8679	0.2866	0.061
Mof_H 	H 	0.0439	0.8504	0.429	0.071
Mof_H 	H 	0.1744	0.9313	0.4055	0.042
Mof_H 	H 	0.0824	0.8398	0.5168	0.039
Mof_H 	H 	0.0365	0.8477	0.6051	0.031
Mof_H 	H 	0.0969	0.8386	0.7464	0.025
Mof_H 	H 	0.1715	0.9168	0.6368	0.055
Mof_H 	H 	0.1582	0.1114	0.236	0.037
Mof_H 	H 	0.0898	0.183	0.1184	0.057
Mof_H 	H 	0.1664	0.0516	0.0952	0.05
Mof_H 	H 	0.162	0.0774	0.0042	0.037
Mof_H 	H 	0.1485	0.0362	0.9192	0.053
Mof_H 	H 	0.1355	0.0839	0.7738	0.051
Mof_H 	H 	0.0764	0.1689	0.8877	0.029
Mof_C 	C 	0.18107	0.57659	0.8043	0.305
Mof_C 	C 	0.14274	0.59789	0.84103	-0.083
Mof_C 	C 	0.10231	0.62646	0.82211	-0.001
Mof_C 	C 	0.06594	0.64684	0.85446	-0.055
Mof_C 	C 	0.02391	0.67946	0.83475	0.319
Mof_C 	C 	0.06902	0.63667	0.90644	-0.07
Mof_C 	C 	0.10916	0.6076	0.9247	0.075
Mof_C 	C 	0.14681	0.58811	0.89249	-0.069
Mof_C 	C 	0.0978	0.62772	0.01841	-0.029
Mof_C 	C 	0.10998	0.60107	0.06042	0.07
Mof_C 	C 	0.10521	0.61639	0.11279	-0.036
Mof_C 	C 	0.06326	0.64467	0.12831	0.019
Mof_C 	C 	0.06075	0.66175	0.17815	-0.131
Mof_C 	C 	0.01514	0.69223	0.19411	0.414
Mof_C 	C 	0.09872	0.64942	0.21246	0.066
Mof_C 	C 	0.13991	0.61929	0.197	-0.127
Mof_C 	C 	0.18094	0.60317	0.23369	0.412
Mof_C 	C 	0.14329	0.60324	0.14738	0.019
Mof_C 	C 	0.19903	0.46747	0.68842	0.301
Mof_C 	C 	0.16753	0.42398	0.66832	-0.073
Mof_C 	C 	0.15057	0.38657	0.70081	0.038
Mof_C 	C 	0.12243	0.34603	0.68243	-0.117
Mof_C 	C 	0.10205	0.30606	0.71698	0.415
Mof_C 	C 	0.10939	0.34442	0.63133	0.004
Mof_C 	C 	0.12518	0.38328	0.59907	-0.017
Mof_C 	C 	0.15481	0.42254	0.61742	-0.015
Mof_C 	C 	0.10991	0.38146	0.54634	0.058
Mof_C 	C 	0.13231	0.40194	0.50497	-0.018
Mof_C 	C 	0.11199	0.39604	0.41182	0.058
Mof_C 	C 	0.13716	0.43933	0.39534	-0.041
Mof_C 	C 	0.1457	0.44661	0.3438	-0.096
Mof_C 	C 	0.17445	0.49274	0.32624	0.401
Mof_C 	C 	0.1288	0.41137	0.30889	0.026
Mof_C 	C 	0.1016	0.36842	0.32524	-0.101
Mof_C 	C 	0.08192	0.33228	0.28703	0.32
Mof_C 	C 	0.09393	0.36053	0.37642	-0.045
Mof_C 	C 	0.31893	0.92341	0.8043	0.305
Mof_C 	C 	0.35726	0.90211	0.84103	-0.083
Mof_C 	C 	0.39769	0.87354	0.82211	-0.001
Mof_C 	C 	0.43406	0.85316	0.85446	-0.055
Mof_C 	C 	0.47609	0.82054	0.83475	0.32
Mof_C 	C 	0.43098	0.86333	0.90644	-0.07
Mof_C 	C 	0.39084	0.8924	0.9247	0.075
Mof_C 	C 	0.35319	0.91189	0.89249	-0.069
Mof_C 	C 	0.4022	0.87228	0.01841	-0.029
Mof_C 	C 	0.39002	0.89893	0.06042	0.07
Mof_C 	C 	0.39479	0.88361	0.11279	-0.036
Mof_C 	C 	0.43674	0.85533	0.12831	0.019
Mof_C 	C 	0.43925	0.83825	0.17815	-0.131
Mof_C 	C 	0.48486	0.80777	0.19411	0.414
Mof_C 	C 	0.40128	0.85058	0.21246	0.067
Mof_C 	C 	0.36009	0.88071	0.197	-0.127
Mof_C 	C 	0.31906	0.89683	0.23369	0.412
Mof_C 	C 	0.35671	0.89676	0.14738	0.019
Mof_C 	C 	0.30097	0.03253	0.68842	0.301
Mof_C 	C 	0.33247	0.07602	0.66832	-0.073
Mof_C 	C 	0.34943	0.11343	0.70081	0.038
Mof_C 	C 	0.37757	0.15397	0.68243	-0.117
Mof_C 	C 	0.39795	0.19394	0.71698	0.415
Mof_C 	C 	0.39061	0.15558	0.63133	0.004
Mof_C 	C 	0.37482	0.11672	0.59907	-0.017
Mof_C 	C 	0.34519	0.07746	0.61742	-0.015
Mof_C 	C 	0.39009	0.11854	0.54634	0.058
Mof_C 	C 	0.36769	0.09806	0.50497	-0.018
Mof_C 	C 	0.38801	0.10396	0.41182	0.058
Mof_C 	C 	0.36284	0.06067	0.39534	-0.041
Mof_C 	C 	0.3543	0.05339	0.3438	-0.096
Mof_C 	C 	0.32555	0.00726	0.32624	0.401
Mof_C 	C 	0.3712	0.08863	0.30889	0.026
Mof_C 	C 	0.3984	0.13158	0.32524	-0.101
Mof_C 	C 	0.41808	0.16772	0.28703	0.32
Mof_C 	C 	0.40607	0.13947	0.37642	-0.045
Mof_C 	C 	0.68107	0.42341	0.6957	0.305
Mof_C 	C 	0.64274	0.40211	0.65897	-0.083
Mof_C 	C 	0.60231	0.37354	0.67789	-0.001
Mof_C 	C 	0.56594	0.35316	0.64554	-0.055
Mof_C 	C 	0.52391	0.32054	0.66525	0.32
Mof_C 	C 	0.56902	0.36333	0.59356	-0.07
Mof_C 	C 	0.60916	0.3924	0.5753	0.075
Mof_C 	C 	0.64681	0.41189	0.60751	-0.069
Mof_C 	C 	0.5978	0.37228	0.48159	-0.029
Mof_C 	C 	0.60998	0.39893	0.43958	0.07
Mof_C 	C 	0.60521	0.38361	0.38721	-0.036
Mof_C 	C 	0.56326	0.35533	0.37169	0.019
Mof_C 	C 	0.56075	0.33825	0.32185	-0.131
Mof_C 	C 	0.51514	0.30777	0.30589	0.414
Mof_C 	C 	0.59872	0.35058	0.28754	0.067
Mof_C 	C 	0.63991	0.38071	0.303	-0.127
Mof_C 	C 	0.68094	0.39683	0.26631	0.412
Mof_C 	C 	0.64329	0.39676	0.35262	0.019
Mof_C 	C 	0.69903	0.53253	0.81158	0.301
Mof_C 	C 	0.66753	0.57602	0.83168	-0.073
Mof_C 	C 	0.65057	0.61343	0.79919	0.038
Mof_C 	C 	0.62243	0.65397	0.81757	-0.117
Mof_C 	C 	0.60205	0.69394	0.78302	0.415
Mof_C 	C 	0.60939	0.65558	0.86867	0.004
Mof_C 	C 	0.62518	0.61672	0.90093	-0.017
Mof_C 	C 	0.65481	0.57746	0.88258	-0.015
Mof_C 	C 	0.60991	0.61854	0.95366	0.058
Mof_C 	C 	0.63231	0.59806	0.99503	-0.018
Mof_C 	C 	0.61199	0.60396	0.08818	0.058
Mof_C 	C 	0.63716	0.56067	0.10466	-0.041
Mof_C 	C 	0.6457	0.55339	0.1562	-0.096
Mof_C 	C 	0.67445	0.50726	0.17376	0.401
Mof_C 	C 	0.6288	0.58863	0.19111	0.026
Mof_C 	C 	0.6016	0.63158	0.17476	-0.101
Mof_C 	C 	0.58192	0.66772	0.21297	0.32
Mof_C 	C 	0.59393	0.63947	0.12358	-0.045
Mof_C 	C 	0.81893	0.07659	0.6957	0.305
Mof_C 	C 	0.85726	0.09789	0.65897	-0.083
Mof_C 	C 	0.89769	0.12646	0.67789	-0.001
Mof_C 	C 	0.93406	0.14684	0.64554	-0.055
Mof_C 	C 	0.97609	0.17946	0.66525	0.32
Mof_C 	C 	0.93098	0.13667	0.59356	-0.07
Mof_C 	C 	0.89084	0.1076	0.5753	0.075
Mof_C 	C 	0.85319	0.08811	0.60751	-0.069
Mof_C 	C 	0.9022	0.12772	0.48159	-0.029
Mof_C 	C 	0.89002	0.10107	0.43958	0.07
Mof_C 	C 	0.89479	0.11639	0.38721	-0.036
Mof_C 	C 	0.93674	0.14467	0.37169	0.019
Mof_C 	C 	0.93925	0.16175	0.32185	-0.131
Mof_C 	C 	0.98486	0.19223	0.30589	0.413
Mof_C 	C 	0.90128	0.14942	0.28754	0.066
Mof_C 	C 	0.86009	0.11929	0.303	-0.127
Mof_C 	C 	0.81906	0.10317	0.26631	0.412
Mof_C 	C 	0.85671	0.10324	0.35262	0.019
Mof_C 	C 	0.80097	0.96747	0.81158	0.301
Mof_C 	C 	0.83247	0.92398	0.83168	-0.073
Mof_C 	C 	0.84943	0.88657	0.79919	0.038
Mof_C 	C 	0.87757	0.84603	0.81757	-0.117
Mof_C 	C 	0.89795	0.80606	0.78302	0.415
Mof_C 	C 	0.89061	0.84442	0.86867	0.004
Mof_C 	C 	0.87482	0.88328	0.90093	-0.017
Mof_C 	C 	0.84519	0.92254	0.88258	-0.015
Mof_C 	C 	0.89009	0.88146	0.95366	0.058
Mof_C 	C 	0.86769	0.90194	0.99503	-0.018
Mof_C 	C 	0.88801	0.89604	0.08818	0.058
Mof_C 	C 	0.86284	0.93933	0.10466	-0.041
Mof_C 	C 	0.8543	0.94661	0.1562	-0.096
Mof_C 	C 	0.82555	0.99274	0.17376	0.401
Mof_C 	C 	0.8712	0.91137	0.19111	0.026
Mof_C 	C 	0.8984	0.86842	0.17476	-0.101
Mof_C 	C 	0.91808	0.83228	0.21297	0.32
Mof_C 	C 	0.90607	0.86053	0.12358	-0.045
Mof_C 	C 	0.81893	0.42341	0.1957	0.305
Mof_C 	C 	0.85726	0.40211	0.15897	-0.083
Mof_C 	C 	0.89769	0.37354	0.17789	-0.001
Mof_C 	C 	0.93406	0.35316	0.14554	-0.055
Mof_C 	C 	0.97609	0.32054	0.16525	0.319
Mof_C 	C 	0.93098	0.36333	0.09356	-0.07
Mof_C 	C 	0.89084	0.3924	0.0753	0.075
Mof_C 	C 	0.85319	0.41189	0.10751	-0.069
Mof_C 	C 	0.9022	0.37228	0.98159	-0.029
Mof_C 	C 	0.89002	0.39893	0.93958	0.07
Mof_C 	C 	0.89479	0.38361	0.88721	-0.036
Mof_C 	C 	0.93674	0.35533	0.87169	0.019
Mof_C 	C 	0.93925	0.33825	0.82185	-0.131
Mof_C 	C 	0.98486	0.30777	0.80589	0.414
Mof_C 	C 	0.90128	0.35058	0.78754	0.066
Mof_C 	C 	0.86009	0.38071	0.803	-0.127
Mof_C 	C 	0.81906	0.39683	0.76631	0.412
Mof_C 	C 	0.85671	0.39676	0.85262	0.019
Mof_C 	C 	0.80097	0.53253	0.31158	0.301
Mof_C 	C 	0.83247	0.57602	0.33168	-0.073
Mof_C 	C 	0.84943	0.61343	0.29919	0.038
Mof_C 	C 	0.87757	0.65397	0.31757	-0.117
Mof_C 	C 	0.89795	0.69394	0.28302	0.415
Mof_C 	C 	0.89061	0.65558	0.36867	0.004
Mof_C 	C 	0.87482	0.61672	0.40093	-0.017
Mof_C 	C 	0.84519	0.57746	0.38258	-0.015
Mof_C 	C 	0.89009	0.61854	0.45366	0.058
Mof_C 	C 	0.86769	0.59806	0.49503	-0.018
Mof_C 	C 	0.88801	0.60396	0.58818	0.058
Mof_C 	C 	0.86284	0.56067	0.60466	-0.041
Mof_C 	C 	0.8543	0.55339	0.6562	-0.096
Mof_C 	C 	0.82555	0.50726	0.67376	0.401
Mof_C 	C 	0.8712	0.58863	0.69111	0.026
Mof_C 	C 	0.8984	0.63158	0.67476	-0.101
Mof_C 	C 	0.91808	0.66772	0.71297	0.32
Mof_C 	C 	0.90607	0.63947	0.62358	-0.045
Mof_C 	C 	0.68107	0.07659	0.1957	0.305
Mof_C 	C 	0.64274	0.09789	0.15897	-0.083
Mof_C 	C 	0.60231	0.12646	0.17789	-0.001
Mof_C 	C 	0.56594	0.14684	0.14554	-0.055
Mof_C 	C 	0.52391	0.17946	0.16525	0.32
Mof_C 	C 	0.56902	0.13667	0.09356	-0.07
Mof_C 	C 	0.60916	0.1076	0.0753	0.075
Mof_C 	C 	0.64681	0.08811	0.10751	-0.069
Mof_C 	C 	0.5978	0.12772	0.98159	-0.029
Mof_C 	C 	0.60998	0.10107	0.93958	0.07
Mof_C 	C 	0.60521	0.11639	0.88721	-0.036
Mof_C 	C 	0.56326	0.14467	0.87169	0.019
Mof_C 	C 	0.56075	0.16175	0.82185	-0.131
Mof_C 	C 	0.51514	0.19223	0.80589	0.414
Mof_C 	C 	0.59872	0.14942	0.78754	0.067
Mof_C 	C 	0.63991	0.11929	0.803	-0.127
Mof_C 	C 	0.68094	0.10317	0.76631	0.412
Mof_C 	C 	0.64329	0.10324	0.85262	0.019
Mof_C 	C 	0.69903	0.96747	0.31158	0.301
Mof_C 	C 	0.66753	0.92398	0.33168	-0.073
Mof_C 	C 	0.65057	0.88657	0.29919	0.038
Mof_C 	C 	0.62243	0.84603	0.31757	-0.117
Mof_C 	C 	0.60205	0.80606	0.28302	0.415
Mof_C 	C 	0.60939	0.84442	0.36867	0.004
Mof_C 	C 	0.62518	0.88328	0.40093	-0.017
Mof_C 	C 	0.65481	0.92254	0.38258	-0.015
Mof_C 	C 	0.60991	0.88146	0.45366	0.058
Mof_C 	C 	0.63231	0.90194	0.49503	-0.018
Mof_C 	C 	0.61199	0.89604	0.58818	0.058
Mof_C 	C 	0.63716	0.93933	0.60466	-0.041
Mof_C 	C 	0.6457	0.94661	0.6562	-0.096
Mof_C 	C 	0.67445	0.99274	0.67376	0.401
Mof_C 	C 	0.6288	0.91137	0.69111	0.026
Mof_C 	C 	0.6016	0.86842	0.67476	-0.101
Mof_C 	C 	0.58192	0.83228	0.71297	0.32
Mof_C 	C 	0.59393	0.86053	0.62358	-0.045
Mof_C 	C 	0.31893	0.57659	0.3043	0.305
Mof_C 	C 	0.35726	0.59789	0.34103	-0.083
Mof_C 	C 	0.39769	0.62646	0.32211	-0.001
Mof_C 	C 	0.43406	0.64684	0.35446	-0.055
Mof_C 	C 	0.47609	0.67946	0.33475	0.32
Mof_C 	C 	0.43098	0.63667	0.40644	-0.07
Mof_C 	C 	0.39084	0.6076	0.4247	0.075
Mof_C 	C 	0.35319	0.58811	0.39249	-0.069
Mof_C 	C 	0.4022	0.62772	0.51841	-0.029
Mof_C 	C 	0.39002	0.60107	0.56042	0.07
Mof_C 	C 	0.39479	0.61639	0.61279	-0.036
Mof_C 	C 	0.43674	0.64467	0.62831	0.019
Mof_C 	C 	0.43925	0.66175	0.67815	-0.131
Mof_C 	C 	0.48486	0.69223	0.69411	0.414
Mof_C 	C 	0.40128	0.64942	0.71246	0.067
Mof_C 	C 	0.36009	0.61929	0.697	-0.127
Mof_C 	C 	0.31906	0.60317	0.73369	0.412
Mof_C 	C 	0.35671	0.60324	0.64738	0.019
Mof_C 	C 	0.30097	0.46747	0.18842	0.301
Mof_C 	C 	0.33247	0.42398	0.16832	-0.073
Mof_C 	C 	0.34943	0.38657	0.20081	0.038
Mof_C 	C 	0.37757	0.34603	0.18243	-0.117
Mof_C 	C 	0.39795	0.30606	0.21698	0.415
Mof_C 	C 	0.39061	0.34442	0.13133	0.004
Mof_C 	C 	0.37482	0.38328	0.09907	-0.017
Mof_C 	C 	0.34519	0.42254	0.11742	-0.015
Mof_C 	C 	0.39009	0.38146	0.04634	0.058
Mof_C 	C 	0.36769	0.40194	0.00497	-0.018
Mof_C 	C 	0.38801	0.39604	0.91182	0.058
Mof_C 	C 	0.36284	0.43933	0.89534	-0.041
Mof_C 	C 	0.3543	0.44661	0.8438	-0.096
Mof_C 	C 	0.32555	0.49274	0.82624	0.401
Mof_C 	C 	0.3712	0.41137	0.80889	0.026
Mof_C 	C 	0.3984	0.36842	0.82524	-0.101
Mof_C 	C 	0.41808	0.33228	0.78703	0.32
Mof_C 	C 	0.40607	0.36053	0.87642	-0.045
Mof_C 	C 	0.18107	0.92341	0.3043	0.305
Mof_C 	C 	0.14274	0.90211	0.34103	-0.083
Mof_C 	C 	0.10231	0.87354	0.32211	-0.001
Mof_C 	C 	0.06594	0.85316	0.35446	-0.055
Mof_C 	C 	0.02391	0.82054	0.33475	0.32
Mof_C 	C 	0.06902	0.86333	0.40644	-0.07
Mof_C 	C 	0.10916	0.8924	0.4247	0.075
Mof_C 	C 	0.14681	0.91189	0.39249	-0.069
Mof_C 	C 	0.0978	0.87228	0.51841	-0.029
Mof_C 	C 	0.10998	0.89893	0.56042	0.07
Mof_C 	C 	0.10521	0.88361	0.61279	-0.036
Mof_C 	C 	0.06326	0.85533	0.62831	0.019
Mof_C 	C 	0.06075	0.83825	0.67815	-0.131
Mof_C 	C 	0.01514	0.80777	0.69411	0.413
Mof_C 	C 	0.09872	0.85058	0.71246	0.066
Mof_C 	C 	0.13991	0.88071	0.697	-0.127
Mof_C 	C 	0.18094	0.89683	0.73369	0.412
Mof_C 	C 	0.14329	0.89676	0.64738	0.019
Mof_C 	C 	0.19903	0.03253	0.18842	0.301
Mof_C 	C 	0.16753	0.07602	0.16832	-0.073
Mof_C 	C 	0.15057	0.11343	0.20081	0.038
Mof_C 	C 	0.12243	0.15397	0.18243	-0.117
Mof_C 	C 	0.10205	0.19394	0.21698	0.415
Mof_C 	C 	0.10939	0.15558	0.13133	0.004
Mof_C 	C 	0.12518	0.11672	0.09907	-0.017
Mof_C 	C 	0.15481	0.07746	0.11742	-0.015
Mof_C 	C 	0.10991	0.11854	0.04634	0.058
Mof_C 	C 	0.13231	0.09806	0.00497	-0.018
Mof_C 	C 	0.11199	0.10396	0.91182	0.058
Mof_C 	C 	0.13716	0.06067	0.89534	-0.041
Mof_C 	C 	0.1457	0.05339	0.8438	-0.096
Mof_C 	C 	0.17445	0.00726	0.82624	0.401
Mof_C 	C 	0.1288	0.08863	0.80889	0.026
Mof_C 	C 	0.1016	0.13158	0.82524	-0.101
Mof_C 	C 	0.08192	0.16772	0.78703	0.32
Mof_C 	C 	0.09393	0.13947	0.87642	-0.045
Mof_N 	N 	0.11247	0.59763	0.97875	-0.09
Mof_N 	N 	0.13198	0.55401	0.99709	-0.051
Mof_N 	N 	0.13058	0.55614	0.04672	-0.081
Mof_N 	N 	0.06575	0.35831	0.53159	-0.084
Mof_N 	N 	0.06223	0.3615	0.48215	-0.054
Mof_N 	N 	0.10421	0.38723	0.4654	-0.09
Mof_N 	N 	0.38753	0.90237	0.97875	-0.09
Mof_N 	N 	0.36802	0.94599	0.99709	-0.051
Mof_N 	N 	0.36942	0.94386	0.04672	-0.082
Mof_N 	N 	0.43425	0.14169	0.53159	-0.084
Mof_N 	N 	0.43777	0.1385	0.48215	-0.054
Mof_N 	N 	0.39579	0.11277	0.4654	-0.09
Mof_N 	N 	0.61247	0.40237	0.52125	-0.09
Mof_N 	N 	0.63198	0.44599	0.50291	-0.051
Mof_N 	N 	0.63058	0.44386	0.45328	-0.081
Mof_N 	N 	0.56575	0.64169	0.96841	-0.084
Mof_N 	N 	0.56223	0.6385	0.01785	-0.054
Mof_N 	N 	0.60421	0.61277	0.0346	-0.091
Mof_N 	N 	0.88753	0.09763	0.52125	-0.09
Mof_N 	N 	0.86802	0.05401	0.50291	-0.051
Mof_N 	N 	0.86942	0.05614	0.45328	-0.082
Mof_N 	N 	0.93425	0.85831	0.96841	-0.084
Mof_N 	N 	0.93777	0.8615	0.01785	-0.054
Mof_N 	N 	0.89579	0.88723	0.0346	-0.091
Mof_N 	N 	0.88753	0.40237	0.02125	-0.09
Mof_N 	N 	0.86802	0.44599	0.00291	-0.051
Mof_N 	N 	0.86942	0.44386	0.95328	-0.081
Mof_N 	N 	0.93425	0.64169	0.46841	-0.084
Mof_N 	N 	0.93777	0.6385	0.51785	-0.054
Mof_N 	N 	0.89579	0.61277	0.5346	-0.09
Mof_N 	N 	0.61247	0.09763	0.02125	-0.09
Mof_N 	N 	0.63198	0.05401	0.00291	-0.051
Mof_N 	N 	0.63058	0.05614	0.95328	-0.082
Mof_N 	N 	0.56575	0.85831	0.46841	-0.084
Mof_N 	N 	0.56223	0.8615	0.51785	-0.054
Mof_N 	N 	0.60421	0.88723	0.5346	-0.09
Mof_N 	N 	0.38753	0.59763	0.47875	-0.09
Mof_N 	N 	0.36802	0.55401	0.49709	-0.051
Mof_N 	N 	0.36942	0.55614	0.54672	-0.081
Mof_N 	N 	0.43425	0.35831	0.03159	-0.084
Mof_N 	N 	0.43777	0.3615	0.98215	-0.054
Mof_N 	N 	0.39579	0.38723	0.9654	-0.091
Mof_N 	N 	0.11247	0.90237	0.47875	-0.09
Mof_N 	N 	0.13198	0.94599	0.49709	-0.051
Mof_N 	N 	0.13058	0.94386	0.54672	-0.082
Mof_N 	N 	0.06575	0.14169	0.03159	-0.084
Mof_N 	N 	0.06223	0.1385	0.98215	-0.054
Mof_N 	N 	0.10421	0.11277	0.9654	-0.091
Mof_O 	O 	0.22291	0.55795	0.82191	-0.562
Mof_O 	O 	0.17123	0.57516	0.75858	-0.353
Mof_O 	O 	0.02581	0.68834	0.78712	-0.434
Mof_O 	O 	0.99067	0.69544	0.86328	-0.292
Mof_O 	O 	0.21596	0.57683	0.2146	-0.476
Mof_O 	O 	0.17742	0.61607	0.27916	-0.504
Mof_O 	O 	0.01788	0.71376	0.23654	-0.464
Mof_O 	O 	0.97781	0.69362	0.16416	-0.506
Mof_O 	O 	0.2021	0.4698	0.7371	-0.418
Mof_O 	O 	0.2251	0.496	0.6606	-0.296
Mof_O 	O 	0.11337	0.30828	0.76243	-0.519
Mof_O 	O 	0.07424	0.27287	0.69618	-0.475
Mof_O 	O 	0.17694	0.52923	0.35645	-0.5
Mof_O 	O 	0.19339	0.48993	0.28259	-0.462
Mof_O 	O 	0.08547	0.34103	0.24157	-0.344
Mof_O 	O 	0.05987	0.29159	0.30333	-0.566
Mof_O 	O 	0.27709	0.94205	0.82191	-0.562
Mof_O 	O 	0.32877	0.92484	0.75858	-0.353
Mof_O 	O 	0.47419	0.81166	0.78712	-0.434
Mof_O 	O 	0.50933	0.80456	0.86328	-0.292
Mof_O 	O 	0.28404	0.92317	0.2146	-0.476
Mof_O 	O 	0.32258	0.88393	0.27916	-0.504
Mof_O 	O 	0.48212	0.78624	0.23654	-0.464
Mof_O 	O 	0.52219	0.80638	0.16416	-0.506
Mof_O 	O 	0.2979	0.0302	0.7371	-0.418
Mof_O 	O 	0.2749	0.004	0.6606	-0.296
Mof_O 	O 	0.38663	0.19172	0.76243	-0.519
Mof_O 	O 	0.42576	0.22713	0.69618	-0.475
Mof_O 	O 	0.32306	0.97077	0.35645	-0.5
Mof_O 	O 	0.30661	0.01007	0.28259	-0.462
Mof_O 	O 	0.41453	0.15897	0.24157	-0.344
Mof_O 	O 	0.44013	0.20841	0.30333	-0.566
Mof_O 	O 	0.72291	0.44205	0.67809	-0.562
Mof_O 	O 	0.67123	0.42484	0.74142	-0.353
Mof_O 	O 	0.52581	0.31166	0.71288	-0.434
Mof_O 	O 	0.49067	0.30456	0.63672	-0.292
Mof_O 	O 	0.71596	0.42317	0.2854	-0.476
Mof_O 	O 	0.67742	0.38393	0.22084	-0.504
Mof_O 	O 	0.51788	0.28624	0.26346	-0.464
Mof_O 	O 	0.47781	0.30638	0.33584	-0.506
Mof_O 	O 	0.7021	0.5302	0.7629	-0.418
Mof_O 	O 	0.7251	0.504	0.8394	-0.296
Mof_O 	O 	0.61337	0.69172	0.73757	-0.519
Mof_O 	O 	0.57424	0.72713	0.80382	-0.475
Mof_O 	O 	0.67694	0.47077	0.14355	-0.5
Mof_O 	O 	0.69339	0.51007	0.21741	-0.462
Mof_O 	O 	0.58547	0.65897	0.25843	-0.344
Mof_O 	O 	0.55987	0.70841	0.19667	-0.566
Mof_O 	O 	0.77709	0.05795	0.67809	-0.563
Mof_O 	O 	0.82877	0.07516	0.74142	-0.353
Mof_O 	O 	0.97419	0.18834	0.71288	-0.434
Mof_O 	O 	0.00933	0.19544	0.63672	-0.292
Mof_O 	O 	0.78404	0.07683	0.2854	-0.476
Mof_O 	O 	0.82258	0.11607	0.22084	-0.504
Mof_O 	O 	0.98212	0.21376	0.26346	-0.464
Mof_O 	O 	0.02219	0.19362	0.33584	-0.506
Mof_O 	O 	0.7979	0.9698	0.7629	-0.418
Mof_O 	O 	0.7749	0.996	0.8394	-0.296
Mof_O 	O 	0.88663	0.80828	0.73757	-0.519
Mof_O 	O 	0.92576	0.77287	0.80382	-0.474
Mof_O 	O 	0.82306	0.02923	0.14355	-0.5
Mof_O 	O 	0.80661	0.98993	0.21741	-0.462
Mof_O 	O 	0.91453	0.84103	0.25843	-0.344
Mof_O 	O 	0.94013	0.79159	0.19667	-0.566
Mof_O 	O 	0.77709	0.44205	0.17809	-0.562
Mof_O 	O 	0.82877	0.42484	0.24142	-0.353
Mof_O 	O 	0.97419	0.31166	0.21288	-0.434
Mof_O 	O 	0.00933	0.30456	0.13672	-0.292
Mof_O 	O 	0.78404	0.42317	0.7854	-0.476
Mof_O 	O 	0.82258	0.38393	0.72084	-0.504
Mof_O 	O 	0.98212	0.28624	0.76346	-0.464
Mof_O 	O 	0.02219	0.30638	0.83584	-0.506
Mof_O 	O 	0.7979	0.5302	0.2629	-0.418
Mof_O 	O 	0.7749	0.504	0.3394	-0.296
Mof_O 	O 	0.88663	0.69172	0.23757	-0.519
Mof_O 	O 	0.92576	0.72713	0.30382	-0.475
Mof_O 	O 	0.82306	0.47077	0.64355	-0.5
Mof_O 	O 	0.80661	0.51007	0.71741	-0.462
Mof_O 	O 	0.91453	0.65897	0.75843	-0.344
Mof_O 	O 	0.94013	0.70841	0.69667	-0.566
Mof_O 	O 	0.72291	0.05795	0.17809	-0.562
Mof_O 	O 	0.67123	0.07516	0.24142	-0.353
Mof_O 	O 	0.52581	0.18834	0.21288	-0.434
Mof_O 	O 	0.49067	0.19544	0.13672	-0.292
Mof_O 	O 	0.71596	0.07683	0.7854	-0.476
Mof_O 	O 	0.67742	0.11607	0.72084	-0.504
Mof_O 	O 	0.51788	0.21376	0.76346	-0.464
Mof_O 	O 	0.47781	0.19362	0.83584	-0.506
Mof_O 	O 	0.7021	0.9698	0.2629	-0.418
Mof_O 	O 	0.7251	0.996	0.3394	-0.296
Mof_O 	O 	0.61337	0.80828	0.23757	-0.519
Mof_O 	O 	0.57424	0.77287	0.30382	-0.475
Mof_O 	O 	0.67694	0.02923	0.64355	-0.5
Mof_O 	O 	0.69339	0.98993	0.71741	-0.462
Mof_O 	O 	0.58547	0.84103	0.75843	-0.344
Mof_O 	O 	0.55987	0.79159	0.69667	-0.566
Mof_O 	O 	0.27709	0.55795	0.32191	-0.562
Mof_O 	O 	0.32877	0.57516	0.25858	-0.353
Mof_O 	O 	0.47419	0.68834	0.28712	-0.434
Mof_O 	O 	0.50933	0.69544	0.36328	-0.292
Mof_O 	O 	0.28404	0.57683	0.7146	-0.476
Mof_O 	O 	0.32258	0.61607	0.77916	-0.504
Mof_O 	O 	0.48212	0.71376	0.73654	-0.464
Mof_O 	O 	0.52219	0.69362	0.66416	-0.506
Mof_O 	O 	0.2979	0.4698	0.2371	-0.418
Mof_O 	O 	0.2749	0.496	0.1606	-0.296
Mof_O 	O 	0.38663	0.30828	0.26243	-0.519
Mof_O 	O 	0.42576	0.27287	0.19618	-0.475
Mof_O 	O 	0.32306	0.52923	0.85645	-0.5
Mof_O 	O 	0.30661	0.48993	0.78259	-0.462
Mof_O 	O 	0.41453	0.34103	0.74157	-0.344
Mof_O 	O 	0.44013	0.29159	0.80333	-0.566
Mof_O 	O 	0.22291	0.94205	0.32191	-0.563
Mof_O 	O 	0.17123	0.92484	0.25858	-0.353
Mof_O 	O 	0.02581	0.81166	0.28712	-0.434
Mof_O 	O 	0.99067	0.80456	0.36328	-0.292
Mof_O 	O 	0.21596	0.92317	0.7146	-0.476
Mof_O 	O 	0.17742	0.88393	0.77916	-0.504
Mof_O 	O 	0.01788	0.78624	0.73654	-0.464
Mof_O 	O 	0.97781	0.80638	0.66416	-0.506
Mof_O 	O 	0.2021	0.0302	0.2371	-0.418
Mof_O 	O 	0.2251	0.004	0.1606	-0.296
Mof_O 	O 	0.11337	0.19172	0.26243	-0.519
Mof_O 	O 	0.07424	0.22713	0.19618	-0.474
Mof_O 	O 	0.17694	0.97077	0.85645	-0.5
Mof_O 	O 	0.19339	0.01007	0.78259	-0.462
Mof_O 	O 	0.08547	0.15897	0.74157	-0.344
Mof_O 	O 	0.05987	0.20841	0.80333	-0.566
_end
