# CIF file generated by openbabel 3.1.0, see https://openbabel.org
data_I
_chemical_name_common 'image0'
_cell_length_a 11.441
_cell_length_b 11.441
_cell_length_c 46.83
_cell_angle_alpha 90
_cell_angle_beta 90
_cell_angle_gamma 120
_space_group_name_H-M_alt 'P 1'
_space_group_name_Hall 'P 1'
loop_
    _symmetry_equiv_pos_as_xyz
    x,y,z
loop_
    _atom_site_label
    _atom_site_type_symbol
    _atom_site_fract_x
    _atom_site_fract_y
    _atom_site_fract_z
    _atom_site_occupancy
    Zn1      Zn       0.98140    0.99560    0.00000    1.000
    Zn2      Zn       0.32320    0.67470    0.91290    1.000
    P1       P        0.97940    0.99440    0.05190    1.000
    P2       P        0.31920    0.66150    0.96420    1.000
    C1       C        0.14950    0.08090    0.06830    1.000
    C2       C        0.24590    0.04090    0.05440    1.000
    C3       C        0.37950    0.10980    0.07030    1.000
    O1       O        0.46950    0.22820    0.06180    1.000
    O2       O        0.40120    0.05040    0.09060    1.000
    C4       C        0.89920    0.82590    0.06930    1.000
    C5       C        0.76840    0.72210    0.05310    1.000
    C6       C        0.70450    0.58830    0.06790    1.000
    O3       O        0.72810    0.49720    0.05900    1.000
    O4       O        0.63200    0.57080    0.08920    1.000
    C7       C        0.89060    0.07540    0.06820    1.000
    C8       C        0.94040    0.21650    0.05480    1.000
    C9       C        0.86130    0.28000    0.06830    1.000
    O5       O        0.73440    0.22580    0.06420    1.000
    O6       O        0.92550    0.38490    0.08290    1.000
    C10      C        0.27560    0.49800    0.98000    1.000
    C11      C        0.13280    0.38780    0.97490    1.000
    C12      C        0.10010    0.25560    0.98810    1.000
    O7       O        0.98870    0.15130    0.98020    1.000
    O8       O        0.17370    0.24800    0.00560    1.000
    C13      C        0.20160    0.69850    0.98300    1.000
    C14      C        0.23110    0.84510    0.97750    1.000
    C15      C        0.12950    0.87320    0.99120    1.000
    O9       O        0.13090    0.97900    0.98240    1.000
    O10      O        0.04150    0.79130    0.00790    1.000
    C16      C        0.47540    0.77650    0.98150    1.000
    C17      C        0.58630    0.74580    0.97410    1.000
    C18      C        0.72130    0.84650    0.98840    1.000
    O11      O        0.82640    0.84710    0.97980    1.000
    O12      O        0.72510    0.92270    0.00760    1.000
    Zn3      Zn       0.00440    0.98580    0.33333    1.000
    Zn4      Zn       0.32530    0.64850    0.24623    1.000
    P3       P        0.00560    0.98500    0.38523    1.000
    P4       P        0.33850    0.65770    0.29753    1.000
    C19      C        0.91910    0.06860    0.40163    1.000
    C20      C        0.95910    0.20500    0.38773    1.000
    C21      C        0.89020    0.26970    0.40363    1.000
    O13      O        0.77180    0.24130    0.39513    1.000
    O14      O        0.94960    0.35080    0.42393    1.000
    C22      C        0.17410    0.07330    0.40263    1.000
    C23      C        0.27790    0.04630    0.38643    1.000
    C24      C        0.41170    0.11620    0.40123    1.000
    O15      O        0.50280    0.23090    0.39233    1.000
    O16      O        0.42920    0.06120    0.42253    1.000
    C25      C        0.92460    0.81520    0.40153    1.000
    C26      C        0.78350    0.72390    0.38813    1.000
    C27      C        0.72000    0.58130    0.40163    1.000
    O17      O        0.77420    0.50860    0.39753    1.000
    O18      O        0.61510    0.54060    0.41623    1.000
    C28      C        0.50200    0.77760    0.31333    1.000
    C29      C        0.61220    0.74500    0.30823    1.000
    C30      C        0.74440    0.84450    0.32143    1.000
    O19      O        0.84870    0.83740    0.31353    1.000
    O20      O        0.75200    0.92570    0.33893    1.000
    C31      C        0.30150    0.50310    0.31633    1.000
    C32      C        0.15490    0.38600    0.31083    1.000
    C33      C        0.12680    0.25630    0.32453    1.000
    O21      O        0.02100    0.15190    0.31573    1.000
    O22      O        0.20870    0.25020    0.34123    1.000
    C34      C        0.22350    0.69890    0.31483    1.000
    C35      C        0.25420    0.84050    0.30743    1.000
    C36      C        0.15350    0.87480    0.32173    1.000
    O23      O        0.15290    0.97930    0.31313    1.000
    O24      O        0.07730    0.80240    0.34093    1.000
    Zn5      Zn       0.01420    0.01860    0.66667    1.000
    Zn6      Zn       0.35150    0.67680    0.57957    1.000
    P5       P        0.01500    0.02060    0.71857    1.000
    P6       P        0.34230    0.68080    0.63087    1.000
    C37      C        0.93140    0.85050    0.73497    1.000
    C38      C        0.79500    0.75410    0.72107    1.000
    C39      C        0.73030    0.62050    0.73697    1.000
    O25      O        0.75870    0.53050    0.72847    1.000
    O26      O        0.64920    0.59880    0.75727    1.000
    C40      C        0.92670    0.10080    0.73597    1.000
    C41      C        0.95370    0.23160    0.71977    1.000
    C42      C        0.88380    0.29550    0.73457    1.000
    O27      O        0.76910    0.27190    0.72567    1.000
    O28      O        0.93880    0.36800    0.75587    1.000
    C43      C        0.18480    0.10940    0.73487    1.000
    C44      C        0.27610    0.05960    0.72147    1.000
    C45      C        0.41870    0.13870    0.73497    1.000
    O29      O        0.49140    0.26560    0.73087    1.000
    O30      O        0.45940    0.07450    0.74957    1.000
    C46      C        0.22240    0.72440    0.64667    1.000
    C47      C        0.25500    0.86720    0.64157    1.000
    C48      C        0.15550    0.89990    0.65477    1.000
    O31      O        0.16260    0.01130    0.64687    1.000
    O32      O        0.07430    0.82630    0.67227    1.000
    C49      C        0.49690    0.79840    0.64967    1.000
    C50      C        0.61400    0.76890    0.64417    1.000
    C51      C        0.74370    0.87050    0.65787    1.000
    O33      O        0.84810    0.86910    0.64907    1.000
    O34      O        0.74980    0.95850    0.67457    1.000
    C52      C        0.30110    0.52460    0.64817    1.000
    C53      C        0.15950    0.41370    0.64077    1.000
    C54      C        0.12520    0.27870    0.65507    1.000
    O35      O        0.02070    0.17360    0.64647    1.000
    O36      O        0.19760    0.27490    0.67427    1.000
    Zn7      Zn       0.01860    0.00440    0.50000    1.000
    Zn8      Zn       0.67680    0.32530    0.41290    1.000
    P7       P        0.02060    0.00560    0.55190    1.000
    P8       P        0.68080    0.33850    0.46420    1.000
    C55      C        0.85050    0.91910    0.56830    1.000
    C56      C        0.75410    0.95910    0.55440    1.000
    C57      C        0.62050    0.89020    0.57030    1.000
    O37      O        0.53050    0.77180    0.56180    1.000
    O38      O        0.59880    0.94960    0.59060    1.000
    C58      C        0.10080    0.17410    0.56930    1.000
    C59      C        0.23160    0.27790    0.55310    1.000
    C60      C        0.29550    0.41170    0.56790    1.000
    O39      O        0.27190    0.50280    0.55900    1.000
    O40      O        0.36800    0.42920    0.58920    1.000
    C61      C        0.10940    0.92460    0.56820    1.000
    C62      C        0.05960    0.78350    0.55480    1.000
    C63      C        0.13870    0.72000    0.56830    1.000
    O41      O        0.26560    0.77420    0.56420    1.000
    O42      O        0.07450    0.61510    0.58290    1.000
    C64      C        0.72440    0.50200    0.48000    1.000
    C65      C        0.86720    0.61220    0.47490    1.000
    C66      C        0.89990    0.74440    0.48810    1.000
    O43      O        0.01130    0.84870    0.48020    1.000
    O44      O        0.82630    0.75200    0.50560    1.000
    C67      C        0.79840    0.30150    0.48300    1.000
    C68      C        0.76890    0.15490    0.47750    1.000
    C69      C        0.87050    0.12680    0.49120    1.000
    O45      O        0.86910    0.02100    0.48240    1.000
    O46      O        0.95850    0.20870    0.50790    1.000
    C70      C        0.52460    0.22350    0.48150    1.000
    C71      C        0.41370    0.25420    0.47410    1.000
    C72      C        0.27870    0.15350    0.48840    1.000
    O47      O        0.17360    0.15290    0.47980    1.000
    O48      O        0.27490    0.07730    0.50760    1.000
    Zn9      Zn       0.99560    0.01420    0.83333    1.000
    Zn10     Zn       0.67470    0.35150    0.74623    1.000
    P9       P        0.99440    0.01500    0.88523    1.000
    P10      P        0.66150    0.34230    0.79753    1.000
    C73      C        0.08090    0.93140    0.90163    1.000
    C74      C        0.04090    0.79500    0.88773    1.000
    C75      C        0.10980    0.73030    0.90363    1.000
    O49      O        0.22820    0.75870    0.89513    1.000
    O50      O        0.05040    0.64920    0.92393    1.000
    C76      C        0.82590    0.92670    0.90263    1.000
    C77      C        0.72210    0.95370    0.88643    1.000
    C78      C        0.58830    0.88380    0.90123    1.000
    O51      O        0.49720    0.76910    0.89233    1.000
    O52      O        0.57080    0.93880    0.92253    1.000
    C79      C        0.07540    0.18480    0.90153    1.000
    C80      C        0.21650    0.27610    0.88813    1.000
    C81      C        0.28000    0.41870    0.90163    1.000
    O53      O        0.22580    0.49140    0.89753    1.000
    O54      O        0.38490    0.45940    0.91623    1.000
    C82      C        0.49800    0.22240    0.81333    1.000
    C83      C        0.38780    0.25500    0.80823    1.000
    C84      C        0.25560    0.15550    0.82143    1.000
    O55      O        0.15130    0.16260    0.81353    1.000
    O56      O        0.24800    0.07430    0.83893    1.000
    C85      C        0.69850    0.49690    0.81633    1.000
    C86      C        0.84510    0.61400    0.81083    1.000
    C87      C        0.87320    0.74370    0.82453    1.000
    O57      O        0.97900    0.84810    0.81573    1.000
    O58      O        0.79130    0.74980    0.84123    1.000
    C88      C        0.77650    0.30110    0.81483    1.000
    C89      C        0.74580    0.15950    0.80743    1.000
    C90      C        0.84650    0.12520    0.82173    1.000
    O59      O        0.84710    0.02070    0.81313    1.000
    O60      O        0.92270    0.19760    0.84093    1.000
    Zn11     Zn       0.98580    0.98140    0.16667    1.000
    Zn12     Zn       0.64850    0.32320    0.07957    1.000
    P11      P        0.98500    0.97940    0.21857    1.000
    P12      P        0.65770    0.31920    0.13087    1.000
    C91      C        0.06860    0.14950    0.23497    1.000
    C92      C        0.20500    0.24590    0.22107    1.000
    C93      C        0.26970    0.37950    0.23697    1.000
    O61      O        0.24130    0.46950    0.22847    1.000
    O62      O        0.35080    0.40120    0.25727    1.000
    C94      C        0.07330    0.89920    0.23597    1.000
    C95      C        0.04630    0.76840    0.21977    1.000
    C96      C        0.11620    0.70450    0.23457    1.000
    O63      O        0.23090    0.72810    0.22567    1.000
    O64      O        0.06120    0.63200    0.25587    1.000
    C97      C        0.81520    0.89060    0.23487    1.000
    C98      C        0.72390    0.94040    0.22147    1.000
    C99      C        0.58130    0.86130    0.23497    1.000
    O65      O        0.50860    0.73440    0.23087    1.000
    O66      O        0.54060    0.92550    0.24957    1.000
    C100     C        0.77760    0.27560    0.14667    1.000
    C101     C        0.74500    0.13280    0.14157    1.000
    C102     C        0.84450    0.10010    0.15477    1.000
    O67      O        0.83740    0.98870    0.14687    1.000
    O68      O        0.92570    0.17370    0.17227    1.000
    C103     C        0.50310    0.20160    0.14967    1.000
    C104     C        0.38600    0.23110    0.14417    1.000
    C105     C        0.25630    0.12950    0.15787    1.000
    O69      O        0.15190    0.13090    0.14907    1.000
    O70      O        0.25020    0.04150    0.17457    1.000
    C106     C        0.69890    0.47540    0.14817    1.000
    C107     C        0.84050    0.58630    0.14077    1.000
    C108     C        0.87480    0.72130    0.15507    1.000
    O71      O        0.97930    0.82640    0.14647    1.000
    O72      O        0.80240    0.72510    0.17427    1.000
