# CIF file generated by openbabel 3.1.0, see https://openbabel.org
data_I
_chemical_name_common 'image0'
_cell_length_a 12.716
_cell_length_b 12.716
_cell_length_c 62.078
_cell_angle_alpha 90
_cell_angle_beta 90
_cell_angle_gamma 90
_space_group_name_H-M_alt 'P 1'
_space_group_name_Hall 'P 1'
loop_
    _symmetry_equiv_pos_as_xyz
    x,y,z
loop_
    _atom_site_label
    _atom_site_type_symbol
    _atom_site_fract_x
    _atom_site_fract_y
    _atom_site_fract_z
    _atom_site_occupancy
    I1       I        0.80180    0.94362    0.90087    1.000
    I2       I        0.16220    0.95407    0.90979    1.000
    Cu1      Cu       0.97011    0.94923    0.92531    1.000
    Cu2      Cu       0.99524    0.94477    0.88466    1.000
    O1       O        0.75790    0.46890    0.04154    1.000
    O2       O        0.13110    0.44460    0.04215    1.000
    O3       O        0.95020    0.26310    0.01923    1.000
    O4       O        0.94100    0.64020    0.01689    1.000
    N1       N        0.57290    0.50240    0.11434    1.000
    N2       N        0.31690    0.48610    0.11505    1.000
    N3       N        0.95160    0.07490    0.94607    1.000
    N4       N        0.96020    0.81800    0.94408    1.000
    C1       C        0.94550    0.45680    0.04227    1.000
    C2       C        0.85060    0.46900    0.05372    1.000
    C3       C        0.85140    0.47730    0.07568    1.000
    C4       C        0.94430    0.47770    0.08605    1.000
    H1       H        0.94360    0.48570    0.10130    1.000
    C5       C        0.04140    0.46700    0.07592    1.000
    C6       C        0.03700    0.45340    0.05359    1.000
    C7       C        0.75160    0.48580    0.08870    1.000
    C8       C        0.74050    0.56560    0.10422    1.000
    H2       H        0.79420    0.61670    0.10610    1.000
    C9       C        0.65210    0.56890    0.11642    1.000
    H3       H        0.64680    0.62220    0.12710    1.000
    C10      C        0.58210    0.42690    0.09926    1.000
    H4       H        0.52640    0.37780    0.09770    1.000
    C11      C        0.66720    0.41740    0.08616    1.000
    H5       H        0.66900    0.36460    0.07540    1.000
    C12      C        0.13830    0.47140    0.08856    1.000
    C13      C        0.15160    0.41070    0.10703    1.000
    H6       H        0.09950    0.36050    0.11080    1.000
    C14      C        0.23890    0.42240    0.11991    1.000
    H7       H        0.24310    0.38280    0.13290    1.000
    C15      C        0.30790    0.54350    0.09686    1.000
    H8       H        0.36200    0.59190    0.09330    1.000
    C16      C        0.22280    0.53390    0.08335    1.000
    H9       H        0.22240    0.57130    0.07010    1.000
    C17      C        0.70770    0.56890    0.03944    1.000
    H10      H        0.67730    0.58940    0.05330    1.000
    H11      H        0.65180    0.56430    0.02860    1.000
    H12      H        0.75950    0.62150    0.03500    1.000
    C18      C        0.17700    0.33990    0.04378    1.000
    H13      H        0.18330    0.32020    0.05900    1.000
    H14      H        0.24690    0.33990    0.03710    1.000
    H15      H        0.13180    0.28910    0.03630    1.000
    C19      C        0.94480    0.45140    0.01806    1.000
    C20      C        0.94400    0.35640    0.00746    1.000
    C21      C        0.93990    0.35170    0.98477    1.000
    C22      C        0.94220    0.44370    0.97359    1.000
    H16      H        0.94250    0.44070    0.95830    1.000
    C23      C        0.94400    0.54240    0.98349    1.000
    C24      C        0.94200    0.54460    0.00594    1.000
    C25      C        0.94220    0.25130    0.97273    1.000
    C26      C        0.01480    0.17330    0.97657    1.000
    H17      H        0.06200    0.17770    0.98840    1.000
    C27      C        0.01700    0.08620    0.96238    1.000
    H18      H        0.06830    0.03320    0.96470    1.000
    C28      C        0.87980    0.14850    0.94262    1.000
    H19      H        0.83240    0.14050    0.93090    1.000
    C29      C        0.87200    0.23650    0.95556    1.000
    H20      H        0.81890    0.28730    0.95280    1.000
    C30      C        0.94800    0.64050    0.97042    1.000
    C31      C        0.01670    0.64390    0.95309    1.000
    H21      H        0.05990    0.58510    0.94980    1.000
    C32      C        0.02140    0.73360    0.94075    1.000
    H22      H        0.07060    0.73590    0.92930    1.000
    C33      C        0.89180    0.81190    0.96057    1.000
    H23      H        0.84600    0.86970    0.96300    1.000
    C34      C        0.88470    0.72730    0.97398    1.000
    H24      H        0.83660    0.72790    0.98570    1.000
    C35      C        0.84860    0.22170    0.02550    1.000
    H25      H        0.81070    0.27460    0.03400    1.000
    H26      H        0.85850    0.15810    0.03420    1.000
    H27      H        0.80780    0.20440    0.01260    1.000
    C36      C        0.04170    0.68230    0.02135    1.000
    H28      H        0.08690    0.62700    0.02730    1.000
    H29      H        0.03500    0.73950    0.03180    1.000
    H30      H        0.07280    0.70950    0.00800    1.000
    I3       I        0.19820    0.05638    0.40087    1.000
    I4       I        0.83780    0.04593    0.40979    1.000
    Cu3      Cu       0.02989    0.05077    0.42531    1.000
    Cu4      Cu       0.00476    0.05523    0.38466    1.000
    O5       O        0.24210    0.53110    0.54154    1.000
    O6       O        0.86890    0.55540    0.54215    1.000
    O7       O        0.04980    0.73690    0.51923    1.000
    O8       O        0.05900    0.35980    0.51689    1.000
    N5       N        0.42710    0.49760    0.61434    1.000
    N6       N        0.68310    0.51390    0.61505    1.000
    N7       N        0.04840    0.92510    0.44607    1.000
    N8       N        0.03980    0.18200    0.44408    1.000
    C37      C        0.05450    0.54320    0.54227    1.000
    C38      C        0.14940    0.53100    0.55372    1.000
    C39      C        0.14860    0.52270    0.57568    1.000
    C40      C        0.05570    0.52230    0.58605    1.000
    H31      H        0.05640    0.51430    0.60130    1.000
    C41      C        0.95860    0.53300    0.57592    1.000
    C42      C        0.96300    0.54660    0.55359    1.000
    C43      C        0.24840    0.51420    0.58870    1.000
    C44      C        0.25950    0.43440    0.60422    1.000
    H32      H        0.20580    0.38330    0.60610    1.000
    C45      C        0.34790    0.43110    0.61642    1.000
    H33      H        0.35320    0.37780    0.62710    1.000
    C46      C        0.41790    0.57310    0.59926    1.000
    H34      H        0.47360    0.62220    0.59770    1.000
    C47      C        0.33280    0.58260    0.58616    1.000
    H35      H        0.33100    0.63540    0.57540    1.000
    C48      C        0.86170    0.52860    0.58856    1.000
    C49      C        0.84840    0.58930    0.60703    1.000
    H36      H        0.90050    0.63950    0.61080    1.000
    C50      C        0.76110    0.57760    0.61991    1.000
    H37      H        0.75690    0.61720    0.63290    1.000
    C51      C        0.69210    0.45650    0.59686    1.000
    H38      H        0.63800    0.40810    0.59330    1.000
    C52      C        0.77720    0.46610    0.58335    1.000
    H39      H        0.77760    0.42870    0.57010    1.000
    C53      C        0.29230    0.43110    0.53944    1.000
    H40      H        0.32270    0.41060    0.55330    1.000
    H41      H        0.34820    0.43570    0.52860    1.000
    H42      H        0.24050    0.37850    0.53500    1.000
    C54      C        0.82300    0.66010    0.54378    1.000
    H43      H        0.81670    0.67980    0.55900    1.000
    H44      H        0.75310    0.66010    0.53710    1.000
    H45      H        0.86820    0.71090    0.53630    1.000
    C55      C        0.05520    0.54860    0.51806    1.000
    C56      C        0.05600    0.64360    0.50746    1.000
    C57      C        0.06010    0.64830    0.48477    1.000
    C58      C        0.05780    0.55630    0.47359    1.000
    H46      H        0.05750    0.55930    0.45830    1.000
    C59      C        0.05600    0.45760    0.48349    1.000
    C60      C        0.05800    0.45540    0.50594    1.000
    C61      C        0.05780    0.74870    0.47273    1.000
    C62      C        0.98520    0.82670    0.47657    1.000
    H47      H        0.93800    0.82230    0.48840    1.000
    C63      C        0.98300    0.91380    0.46238    1.000
    H48      H        0.93170    0.96680    0.46470    1.000
    C64      C        0.12020    0.85150    0.44262    1.000
    H49      H        0.16760    0.85950    0.43090    1.000
    C65      C        0.12800    0.76350    0.45556    1.000
    H50      H        0.18110    0.71270    0.45280    1.000
    C66      C        0.05200    0.35950    0.47042    1.000
    C67      C        0.98330    0.35610    0.45309    1.000
    H51      H        0.94010    0.41490    0.44980    1.000
    C68      C        0.97860    0.26640    0.44075    1.000
    H52      H        0.92940    0.26410    0.42930    1.000
    C69      C        0.10820    0.18810    0.46057    1.000
    H53      H        0.15400    0.13030    0.46300    1.000
    C70      C        0.11530    0.27270    0.47398    1.000
    H54      H        0.16340    0.27210    0.48570    1.000
    C71      C        0.15140    0.77830    0.52550    1.000
    H55      H        0.18930    0.72540    0.53400    1.000
    H56      H        0.14150    0.84190    0.53420    1.000
    H57      H        0.19220    0.79560    0.51260    1.000
    C72      C        0.95830    0.31770    0.52135    1.000
    H58      H        0.91310    0.37300    0.52730    1.000
    H59      H        0.96500    0.26050    0.53180    1.000
    H60      H        0.92720    0.29050    0.50800    1.000
    I5       I        0.55638    0.30180    0.65087    1.000
    I6       I        0.54593    0.66220    0.65979    1.000
    Cu5      Cu       0.55077    0.47011    0.67531    1.000
    Cu6      Cu       0.55523    0.49524    0.63466    1.000
    O9       O        0.03110    0.25790    0.79154    1.000
    O10      O        0.05540    0.63110    0.79215    1.000
    O11      O        0.23690    0.45020    0.76923    1.000
    O12      O        0.85980    0.44100    0.76689    1.000
    N9       N        0.99760    0.07290    0.86434    1.000
    N10      N        0.01390    0.81690    0.86505    1.000
    N11      N        0.42510    0.45160    0.69607    1.000
    N12      N        0.68200    0.46020    0.69408    1.000
    C73      C        0.04320    0.44550    0.79227    1.000
    C74      C        0.03100    0.35060    0.80372    1.000
    C75      C        0.02270    0.35140    0.82568    1.000
    C76      C        0.02230    0.44430    0.83605    1.000
    H61      H        0.01430    0.44360    0.85130    1.000
    C77      C        0.03300    0.54140    0.82592    1.000
    C78      C        0.04660    0.53700    0.80359    1.000
    C79      C        0.01420    0.25160    0.83870    1.000
    C80      C        0.93440    0.24050    0.85422    1.000
    H62      H        0.88330    0.29420    0.85610    1.000
    C81      C        0.93110    0.15210    0.86642    1.000
    H63      H        0.87780    0.14680    0.87710    1.000
    C82      C        0.07310    0.08210    0.84926    1.000
    H64      H        0.12220    0.02640    0.84770    1.000
    C83      C        0.08260    0.16720    0.83616    1.000
    H65      H        0.13540    0.16900    0.82540    1.000
    C84      C        0.02860    0.63830    0.83856    1.000
    C85      C        0.08930    0.65160    0.85703    1.000
    H66      H        0.13950    0.59950    0.86080    1.000
    C86      C        0.07760    0.73890    0.86991    1.000
    H67      H        0.11720    0.74310    0.88290    1.000
    C87      C        0.95650    0.80790    0.84686    1.000
    H68      H        0.90810    0.86200    0.84330    1.000
    C88      C        0.96610    0.72280    0.83335    1.000
    H69      H        0.92870    0.72240    0.82010    1.000
    C89      C        0.93110    0.20770    0.78944    1.000
    H70      H        0.91060    0.17730    0.80330    1.000
    H71      H        0.93570    0.15180    0.77860    1.000
    H72      H        0.87850    0.25950    0.78500    1.000
    C90      C        0.16010    0.67700    0.79378    1.000
    H73      H        0.17980    0.68330    0.80900    1.000
    H74      H        0.16010    0.74690    0.78710    1.000
    H75      H        0.21090    0.63180    0.78630    1.000
    C91      C        0.04860    0.44480    0.76806    1.000
    C92      C        0.14360    0.44400    0.75746    1.000
    C93      C        0.14830    0.43990    0.73477    1.000
    C94      C        0.05630    0.44220    0.72359    1.000
    H76      H        0.05930    0.44250    0.70830    1.000
    C95      C        0.95760    0.44400    0.73349    1.000
    C96      C        0.95540    0.44200    0.75594    1.000
    C97      C        0.24870    0.44220    0.72273    1.000
    C98      C        0.32670    0.51480    0.72657    1.000
    H77      H        0.32230    0.56200    0.73840    1.000
    C99      C        0.41380    0.51700    0.71238    1.000
    H78      H        0.46680    0.56830    0.71470    1.000
    C100     C        0.35150    0.37980    0.69262    1.000
    H79      H        0.35950    0.33240    0.68090    1.000
    C101     C        0.26350    0.37200    0.70556    1.000
    H80      H        0.21270    0.31890    0.70280    1.000
    C102     C        0.85950    0.44800    0.72042    1.000
    C103     C        0.85610    0.51670    0.70309    1.000
    H81      H        0.91490    0.55990    0.69980    1.000
    C104     C        0.76640    0.52140    0.69075    1.000
    H82      H        0.76410    0.57060    0.67930    1.000
    C105     C        0.68810    0.39180    0.71057    1.000
    H83      H        0.63030    0.34600    0.71300    1.000
    C106     C        0.77270    0.38470    0.72398    1.000
    H84      H        0.77210    0.33660    0.73570    1.000
    C107     C        0.27830    0.34860    0.77550    1.000
    H85      H        0.22540    0.31070    0.78400    1.000
    H86      H        0.34190    0.35850    0.78420    1.000
    H87      H        0.29560    0.30780    0.76260    1.000
    C108     C        0.81770    0.54170    0.77135    1.000
    H88      H        0.87300    0.58690    0.77730    1.000
    H89      H        0.76050    0.53500    0.78180    1.000
    H90      H        0.79050    0.57280    0.75800    1.000
    I7       I        0.44362    0.69820    0.15087    1.000
    I8       I        0.45407    0.33780    0.15979    1.000
    Cu7      Cu       0.44923    0.52989    0.17531    1.000
    Cu8      Cu       0.44477    0.50476    0.13466    1.000
    O13      O        0.96890    0.74210    0.29154    1.000
    O14      O        0.94460    0.36890    0.29215    1.000
    O15      O        0.76310    0.54980    0.26923    1.000
    O16      O        0.14020    0.55900    0.26689    1.000
    N13      N        0.00240    0.92710    0.36434    1.000
    N14      N        0.98610    0.18310    0.36505    1.000
    N15      N        0.57490    0.54840    0.19607    1.000
    N16      N        0.31800    0.53980    0.19408    1.000
    C109     C        0.95680    0.55450    0.29227    1.000
    C110     C        0.96900    0.64940    0.30372    1.000
    C111     C        0.97730    0.64860    0.32568    1.000
    C112     C        0.97770    0.55570    0.33605    1.000
    H91      H        0.98570    0.55640    0.35130    1.000
    C113     C        0.96700    0.45860    0.32592    1.000
    C114     C        0.95340    0.46300    0.30359    1.000
    C115     C        0.98580    0.74840    0.33870    1.000
    C116     C        0.06560    0.75950    0.35422    1.000
    H92      H        0.11670    0.70580    0.35610    1.000
    C117     C        0.06890    0.84790    0.36642    1.000
    H93      H        0.12220    0.85320    0.37710    1.000
    C118     C        0.92690    0.91790    0.34926    1.000
    H94      H        0.87780    0.97360    0.34770    1.000
    C119     C        0.91740    0.83280    0.33616    1.000
    H95      H        0.86460    0.83100    0.32540    1.000
    C120     C        0.97140    0.36170    0.33856    1.000
    C121     C        0.91070    0.34840    0.35703    1.000
    H96      H        0.86050    0.40050    0.36080    1.000
    C122     C        0.92240    0.26110    0.36991    1.000
    H97      H        0.88280    0.25690    0.38290    1.000
    C123     C        0.04350    0.19210    0.34686    1.000
    H98      H        0.09190    0.13800    0.34330    1.000
    C124     C        0.03390    0.27720    0.33335    1.000
    H99      H        0.07130    0.27760    0.32010    1.000
    C125     C        0.06890    0.79230    0.28944    1.000
    H100     H        0.08940    0.82270    0.30330    1.000
    H101     H        0.06430    0.84820    0.27860    1.000
    H102     H        0.12150    0.74050    0.28500    1.000
    C126     C        0.83990    0.32300    0.29378    1.000
    H103     H        0.82020    0.31670    0.30900    1.000
    H104     H        0.83990    0.25310    0.28710    1.000
    H105     H        0.78910    0.36820    0.28630    1.000
    C127     C        0.95140    0.55520    0.26806    1.000
    C128     C        0.85640    0.55600    0.25746    1.000
    C129     C        0.85170    0.56010    0.23477    1.000
    C130     C        0.94370    0.55780    0.22359    1.000
    H106     H        0.94070    0.55750    0.20830    1.000
    C131     C        0.04240    0.55600    0.23349    1.000
    C132     C        0.04460    0.55800    0.25594    1.000
    C133     C        0.75130    0.55780    0.22273    1.000
    C134     C        0.67330    0.48520    0.22657    1.000
    H107     H        0.67770    0.43800    0.23840    1.000
    C135     C        0.58620    0.48300    0.21238    1.000
    H108     H        0.53320    0.43170    0.21470    1.000
    C136     C        0.64850    0.62020    0.19262    1.000
    H109     H        0.64050    0.66760    0.18090    1.000
    C137     C        0.73650    0.62800    0.20556    1.000
    H110     H        0.78730    0.68110    0.20280    1.000
    C138     C        0.14050    0.55200    0.22042    1.000
    C139     C        0.14390    0.48330    0.20309    1.000
    H111     H        0.08510    0.44010    0.19980    1.000
    C140     C        0.23360    0.47860    0.19075    1.000
    H112     H        0.23590    0.42940    0.17930    1.000
    C141     C        0.31190    0.60820    0.21057    1.000
    H113     H        0.36970    0.65400    0.21300    1.000
    C142     C        0.22730    0.61530    0.22398    1.000
    H114     H        0.22790    0.66340    0.23570    1.000
    C143     C        0.72170    0.65140    0.27550    1.000
    H115     H        0.77460    0.68930    0.28400    1.000
    H116     H        0.65810    0.64150    0.28420    1.000
    H117     H        0.70440    0.69220    0.26260    1.000
    C144     C        0.18230    0.45830    0.27135    1.000
    H118     H        0.12700    0.41310    0.27730    1.000
    H119     H        0.23950    0.46500    0.28180    1.000
    H120     H        0.20950    0.42720    0.25800    1.000
    I9       I        0.69820    0.44362    0.84913    1.000
    I10      I        0.33780    0.45407    0.84021    1.000
    Cu9      Cu       0.52989    0.44923    0.82470    1.000
    Cu10     Cu       0.50476    0.44477    0.86534    1.000
    O17      O        0.74210    0.96890    0.70846    1.000
    O18      O        0.36890    0.94460    0.70785    1.000
    O19      O        0.54980    0.76310    0.73077    1.000
    O20      O        0.55900    0.14020    0.73311    1.000
    N17      N        0.92710    0.00240    0.63566    1.000
    N18      N        0.18310    0.98610    0.63495    1.000
    N19      N        0.54840    0.57490    0.80393    1.000
    N20      N        0.53980    0.31800    0.80592    1.000
    C145     C        0.55450    0.95680    0.70773    1.000
    C146     C        0.64940    0.96900    0.69628    1.000
    C147     C        0.64860    0.97730    0.67432    1.000
    C148     C        0.55570    0.97770    0.66395    1.000
    H121     H        0.55640    0.98570    0.64870    1.000
    C149     C        0.45860    0.96700    0.67408    1.000
    C150     C        0.46300    0.95340    0.69641    1.000
    C151     C        0.74840    0.98580    0.66130    1.000
    C152     C        0.75950    0.06560    0.64578    1.000
    H122     H        0.70580    0.11670    0.64390    1.000
    C153     C        0.84790    0.06890    0.63358    1.000
    H123     H        0.85320    0.12220    0.62290    1.000
    C154     C        0.91790    0.92690    0.65074    1.000
    H124     H        0.97360    0.87780    0.65230    1.000
    C155     C        0.83280    0.91740    0.66384    1.000
    H125     H        0.83100    0.86460    0.67460    1.000
    C156     C        0.36170    0.97140    0.66144    1.000
    C157     C        0.34840    0.91070    0.64297    1.000
    H126     H        0.40050    0.86050    0.63920    1.000
    C158     C        0.26110    0.92240    0.63009    1.000
    H127     H        0.25690    0.88280    0.61710    1.000
    C159     C        0.19210    0.04350    0.65314    1.000
    H128     H        0.13800    0.09190    0.65670    1.000
    C160     C        0.27720    0.03390    0.66665    1.000
    H129     H        0.27760    0.07130    0.67990    1.000
    C161     C        0.79230    0.06890    0.71056    1.000
    H130     H        0.82270    0.08940    0.69670    1.000
    H131     H        0.84820    0.06430    0.72140    1.000
    H132     H        0.74050    0.12150    0.71500    1.000
    C162     C        0.32300    0.83990    0.70622    1.000
    H133     H        0.31670    0.82020    0.69100    1.000
    H134     H        0.25310    0.83990    0.71290    1.000
    H135     H        0.36820    0.78910    0.71370    1.000
    C163     C        0.55520    0.95140    0.73194    1.000
    C164     C        0.55600    0.85640    0.74254    1.000
    C165     C        0.56010    0.85170    0.76523    1.000
    C166     C        0.55780    0.94370    0.77641    1.000
    H136     H        0.55750    0.94070    0.79170    1.000
    C167     C        0.55600    0.04240    0.76651    1.000
    C168     C        0.55800    0.04460    0.74406    1.000
    C169     C        0.55780    0.75130    0.77727    1.000
    C170     C        0.48520    0.67330    0.77343    1.000
    H137     H        0.43800    0.67770    0.76160    1.000
    C171     C        0.48300    0.58620    0.78762    1.000
    H138     H        0.43170    0.53320    0.78530    1.000
    C172     C        0.62020    0.64850    0.80738    1.000
    H139     H        0.66760    0.64050    0.81910    1.000
    C173     C        0.62800    0.73650    0.79444    1.000
    H140     H        0.68110    0.78730    0.79720    1.000
    C174     C        0.55200    0.14050    0.77958    1.000
    C175     C        0.48330    0.14390    0.79691    1.000
    H141     H        0.44010    0.08510    0.80020    1.000
    C176     C        0.47860    0.23360    0.80925    1.000
    H142     H        0.42940    0.23590    0.82070    1.000
    C177     C        0.60820    0.31190    0.78943    1.000
    H143     H        0.65400    0.36970    0.78700    1.000
    C178     C        0.61530    0.22730    0.77602    1.000
    H144     H        0.66340    0.22790    0.76430    1.000
    C179     C        0.65140    0.72170    0.72450    1.000
    H145     H        0.68930    0.77460    0.71600    1.000
    H146     H        0.64150    0.65810    0.71580    1.000
    H147     H        0.69220    0.70440    0.73740    1.000
    C180     C        0.45830    0.18230    0.72865    1.000
    H148     H        0.41310    0.12700    0.72270    1.000
    H149     H        0.46500    0.23950    0.71820    1.000
    H150     H        0.42720    0.20950    0.74200    1.000
    I11      I        0.30180    0.55638    0.34913    1.000
    I12      I        0.66220    0.54593    0.34021    1.000
    Cu11     Cu       0.47011    0.55077    0.32470    1.000
    Cu12     Cu       0.49524    0.55523    0.36534    1.000
    O21      O        0.25790    0.03110    0.20846    1.000
    O22      O        0.63110    0.05540    0.20785    1.000
    O23      O        0.45020    0.23690    0.23077    1.000
    O24      O        0.44100    0.85980    0.23311    1.000
    N21      N        0.07290    0.99760    0.13566    1.000
    N22      N        0.81690    0.01390    0.13495    1.000
    N23      N        0.45160    0.42510    0.30393    1.000
    N24      N        0.46020    0.68200    0.30592    1.000
    C181     C        0.44550    0.04320    0.20773    1.000
    C182     C        0.35060    0.03100    0.19628    1.000
    C183     C        0.35140    0.02270    0.17432    1.000
    C184     C        0.44430    0.02230    0.16395    1.000
    H151     H        0.44360    0.01430    0.14870    1.000
    C185     C        0.54140    0.03300    0.17408    1.000
    C186     C        0.53700    0.04660    0.19641    1.000
    C187     C        0.25160    0.01420    0.16130    1.000
    C188     C        0.24050    0.93440    0.14578    1.000
    H152     H        0.29420    0.88330    0.14390    1.000
    C189     C        0.15210    0.93110    0.13358    1.000
    H153     H        0.14680    0.87780    0.12290    1.000
    C190     C        0.08210    0.07310    0.15074    1.000
    H154     H        0.02640    0.12220    0.15230    1.000
    C191     C        0.16720    0.08260    0.16384    1.000
    H155     H        0.16900    0.13540    0.17460    1.000
    C192     C        0.63830    0.02860    0.16144    1.000
    C193     C        0.65160    0.08930    0.14297    1.000
    H156     H        0.59950    0.13950    0.13920    1.000
    C194     C        0.73890    0.07760    0.13009    1.000
    H157     H        0.74310    0.11720    0.11710    1.000
    C195     C        0.80790    0.95650    0.15314    1.000
    H158     H        0.86200    0.90810    0.15670    1.000
    C196     C        0.72280    0.96610    0.16665    1.000
    H159     H        0.72240    0.92870    0.17990    1.000
    C197     C        0.20770    0.93110    0.21056    1.000
    H160     H        0.17730    0.91060    0.19670    1.000
    H161     H        0.15180    0.93570    0.22140    1.000
    H162     H        0.25950    0.87850    0.21500    1.000
    C198     C        0.67700    0.16010    0.20622    1.000
    H163     H        0.68330    0.17980    0.19100    1.000
    H164     H        0.74690    0.16010    0.21290    1.000
    H165     H        0.63180    0.21090    0.21370    1.000
    C199     C        0.44480    0.04860    0.23194    1.000
    C200     C        0.44400    0.14360    0.24254    1.000
    C201     C        0.43990    0.14830    0.26523    1.000
    C202     C        0.44220    0.05630    0.27641    1.000
    H166     H        0.44250    0.05930    0.29170    1.000
    C203     C        0.44400    0.95760    0.26651    1.000
    C204     C        0.44200    0.95540    0.24406    1.000
    C205     C        0.44220    0.24870    0.27727    1.000
    C206     C        0.51480    0.32670    0.27343    1.000
    H167     H        0.56200    0.32230    0.26160    1.000
    C207     C        0.51700    0.41380    0.28762    1.000
    H168     H        0.56830    0.46680    0.28530    1.000
    C208     C        0.37980    0.35150    0.30738    1.000
    H169     H        0.33240    0.35950    0.31910    1.000
    C209     C        0.37200    0.26350    0.29444    1.000
    H170     H        0.31890    0.21270    0.29720    1.000
    C210     C        0.44800    0.85950    0.27958    1.000
    C211     C        0.51670    0.85610    0.29691    1.000
    H171     H        0.55990    0.91490    0.30020    1.000
    C212     C        0.52140    0.76640    0.30925    1.000
    H172     H        0.57060    0.76410    0.32070    1.000
    C213     C        0.39180    0.68810    0.28943    1.000
    H173     H        0.34600    0.63030    0.28700    1.000
    C214     C        0.38470    0.77270    0.27602    1.000
    H174     H        0.33660    0.77210    0.26430    1.000
    C215     C        0.34860    0.27830    0.22450    1.000
    H175     H        0.31070    0.22540    0.21600    1.000
    H176     H        0.35850    0.34190    0.21580    1.000
    H177     H        0.30780    0.29560    0.23740    1.000
    C216     C        0.54170    0.81770    0.22865    1.000
    H178     H        0.58690    0.87300    0.22270    1.000
    H179     H        0.53500    0.76050    0.21820    1.000
    H180     H        0.57280    0.79050    0.24200    1.000
    I13      I        0.94362    0.80180    0.09913    1.000
    I14      I        0.95407    0.16220    0.09021    1.000
    Cu13     Cu       0.94923    0.97011    0.07470    1.000
    Cu14     Cu       0.94477    0.99524    0.11534    1.000
    O25      O        0.46890    0.75790    0.95846    1.000
    O26      O        0.44460    0.13110    0.95785    1.000
    O27      O        0.26310    0.95020    0.98077    1.000
    O28      O        0.64020    0.94100    0.98311    1.000
    N25      N        0.50240    0.57290    0.88566    1.000
    N26      N        0.48610    0.31690    0.88495    1.000
    N27      N        0.07490    0.95160    0.05393    1.000
    N28      N        0.81800    0.96020    0.05592    1.000
    C217     C        0.45680    0.94550    0.95773    1.000
    C218     C        0.46900    0.85060    0.94628    1.000
    C219     C        0.47730    0.85140    0.92432    1.000
    C220     C        0.47770    0.94430    0.91395    1.000
    H181     H        0.48570    0.94360    0.89870    1.000
    C221     C        0.46700    0.04140    0.92408    1.000
    C222     C        0.45340    0.03700    0.94641    1.000
    C223     C        0.48580    0.75160    0.91130    1.000
    C224     C        0.56560    0.74050    0.89578    1.000
    H182     H        0.61670    0.79420    0.89390    1.000
    C225     C        0.56890    0.65210    0.88358    1.000
    H183     H        0.62220    0.64680    0.87290    1.000
    C226     C        0.42690    0.58210    0.90074    1.000
    H184     H        0.37780    0.52640    0.90230    1.000
    C227     C        0.41740    0.66720    0.91384    1.000
    H185     H        0.36460    0.66900    0.92460    1.000
    C228     C        0.47140    0.13830    0.91144    1.000
    C229     C        0.41070    0.15160    0.89297    1.000
    H186     H        0.36050    0.09950    0.88920    1.000
    C230     C        0.42240    0.23890    0.88009    1.000
    H187     H        0.38280    0.24310    0.86710    1.000
    C231     C        0.54350    0.30790    0.90314    1.000
    H188     H        0.59190    0.36200    0.90670    1.000
    C232     C        0.53390    0.22280    0.91665    1.000
    H189     H        0.57130    0.22240    0.92990    1.000
    C233     C        0.56890    0.70770    0.96056    1.000
    H190     H        0.58940    0.67730    0.94670    1.000
    H191     H        0.56430    0.65180    0.97140    1.000
    H192     H        0.62150    0.75950    0.96500    1.000
    C234     C        0.33990    0.17700    0.95622    1.000
    H193     H        0.32020    0.18330    0.94100    1.000
    H194     H        0.33990    0.24690    0.96290    1.000
    H195     H        0.28910    0.13180    0.96370    1.000
    C235     C        0.45140    0.94480    0.98194    1.000
    C236     C        0.35640    0.94400    0.99254    1.000
    C237     C        0.35170    0.93990    0.01523    1.000
    C238     C        0.44370    0.94220    0.02641    1.000
    H196     H        0.44070    0.94250    0.04170    1.000
    C239     C        0.54240    0.94400    0.01651    1.000
    C240     C        0.54460    0.94200    0.99406    1.000
    C241     C        0.25130    0.94220    0.02727    1.000
    C242     C        0.17330    0.01480    0.02343    1.000
    H197     H        0.17770    0.06200    0.01160    1.000
    C243     C        0.08620    0.01700    0.03762    1.000
    H198     H        0.03320    0.06830    0.03530    1.000
    C244     C        0.14850    0.87980    0.05738    1.000
    H199     H        0.14050    0.83240    0.06910    1.000
    C245     C        0.23650    0.87200    0.04444    1.000
    H200     H        0.28730    0.81890    0.04720    1.000
    C246     C        0.64050    0.94800    0.02958    1.000
    C247     C        0.64390    0.01670    0.04691    1.000
    H201     H        0.58510    0.05990    0.05020    1.000
    C248     C        0.73360    0.02140    0.05925    1.000
    H202     H        0.73590    0.07060    0.07070    1.000
    C249     C        0.81190    0.89180    0.03943    1.000
    H203     H        0.86970    0.84600    0.03700    1.000
    C250     C        0.72730    0.88470    0.02602    1.000
    H204     H        0.72790    0.83660    0.01430    1.000
    C251     C        0.22170    0.84860    0.97450    1.000
    H205     H        0.27460    0.81070    0.96600    1.000
    H206     H        0.15810    0.85850    0.96580    1.000
    H207     H        0.20440    0.80780    0.98740    1.000
    C252     C        0.68230    0.04170    0.97865    1.000
    H208     H        0.62700    0.08690    0.97270    1.000
    H209     H        0.73950    0.03500    0.96820    1.000
    H210     H        0.70950    0.07280    0.99200    1.000
    I15      I        0.05638    0.19820    0.59913    1.000
    I16      I        0.04593    0.83780    0.59021    1.000
    Cu15     Cu       0.05077    0.02989    0.57470    1.000
    Cu16     Cu       0.05523    0.00476    0.61534    1.000
    O29      O        0.53110    0.24210    0.45846    1.000
    O30      O        0.55540    0.86890    0.45785    1.000
    O31      O        0.73690    0.04980    0.48077    1.000
    O32      O        0.35980    0.05900    0.48311    1.000
    N29      N        0.49760    0.42710    0.38566    1.000
    N30      N        0.51390    0.68310    0.38495    1.000
    N31      N        0.92510    0.04840    0.55393    1.000
    N32      N        0.18200    0.03980    0.55592    1.000
    C253     C        0.54320    0.05450    0.45773    1.000
    C254     C        0.53100    0.14940    0.44628    1.000
    C255     C        0.52270    0.14860    0.42432    1.000
    C256     C        0.52230    0.05570    0.41395    1.000
    H211     H        0.51430    0.05640    0.39870    1.000
    C257     C        0.53300    0.95860    0.42408    1.000
    C258     C        0.54660    0.96300    0.44641    1.000
    C259     C        0.51420    0.24840    0.41130    1.000
    C260     C        0.43440    0.25950    0.39578    1.000
    H212     H        0.38330    0.20580    0.39390    1.000
    C261     C        0.43110    0.34790    0.38358    1.000
    H213     H        0.37780    0.35320    0.37290    1.000
    C262     C        0.57310    0.41790    0.40074    1.000
    H214     H        0.62220    0.47360    0.40230    1.000
    C263     C        0.58260    0.33280    0.41384    1.000
    H215     H        0.63540    0.33100    0.42460    1.000
    C264     C        0.52860    0.86170    0.41144    1.000
    C265     C        0.58930    0.84840    0.39297    1.000
    H216     H        0.63950    0.90050    0.38920    1.000
    C266     C        0.57760    0.76110    0.38009    1.000
    H217     H        0.61720    0.75690    0.36710    1.000
    C267     C        0.45650    0.69210    0.40314    1.000
    H218     H        0.40810    0.63800    0.40670    1.000
    C268     C        0.46610    0.77720    0.41665    1.000
    H219     H        0.42870    0.77760    0.42990    1.000
    C269     C        0.43110    0.29230    0.46056    1.000
    H220     H        0.41060    0.32270    0.44670    1.000
    H221     H        0.43570    0.34820    0.47140    1.000
    H222     H        0.37850    0.24050    0.46500    1.000
    C270     C        0.66010    0.82300    0.45622    1.000
    H223     H        0.67980    0.81670    0.44100    1.000
    H224     H        0.66010    0.75310    0.46290    1.000
    H225     H        0.71090    0.86820    0.46370    1.000
    C271     C        0.54860    0.05520    0.48194    1.000
    C272     C        0.64360    0.05600    0.49254    1.000
    C273     C        0.64830    0.06010    0.51523    1.000
    C274     C        0.55630    0.05780    0.52641    1.000
    H226     H        0.55930    0.05750    0.54170    1.000
    C275     C        0.45760    0.05600    0.51651    1.000
    C276     C        0.45540    0.05800    0.49406    1.000
    C277     C        0.74870    0.05780    0.52727    1.000
    C278     C        0.82670    0.98520    0.52343    1.000
    H227     H        0.82230    0.93800    0.51160    1.000
    C279     C        0.91380    0.98300    0.53762    1.000
    H228     H        0.96680    0.93170    0.53530    1.000
    C280     C        0.85150    0.12020    0.55738    1.000
    H229     H        0.85950    0.16760    0.56910    1.000
    C281     C        0.76350    0.12800    0.54444    1.000
    H230     H        0.71270    0.18110    0.54720    1.000
    C282     C        0.35950    0.05200    0.52958    1.000
    C283     C        0.35610    0.98330    0.54691    1.000
    H231     H        0.41490    0.94010    0.55020    1.000
    C284     C        0.26640    0.97860    0.55925    1.000
    H232     H        0.26410    0.92940    0.57070    1.000
    C285     C        0.18810    0.10820    0.53943    1.000
    H233     H        0.13030    0.15400    0.53700    1.000
    C286     C        0.27270    0.11530    0.52602    1.000
    H234     H        0.27210    0.16340    0.51430    1.000
    C287     C        0.77830    0.15140    0.47450    1.000
    H235     H        0.72540    0.18930    0.46600    1.000
    H236     H        0.84190    0.14150    0.46580    1.000
    H237     H        0.79560    0.19220    0.48740    1.000
    C288     C        0.31770    0.95830    0.47865    1.000
    H238     H        0.37300    0.91310    0.47270    1.000
    H239     H        0.26050    0.96500    0.46820    1.000
    H240     H        0.29050    0.92720    0.49200    1.000
