data_functionalizedCrystal
_audit_creation_method	'EQeq! by Chris Wilmer'
_symmetry_space_group_name_H-M	'P1'
_symmetry_Int_Tables_number	1
_symmetry_cell_setting	triclinic
loop_
_symmetry_equiv_pos_as_xyz
  x,y,z
_cell_length_a	27.6213
_cell_length_b	9.1189
_cell_length_c	9.9954
_cell_angle_alpha	90
_cell_angle_beta	92.211
_cell_angle_gamma	90
loop_
_atom_site_label
_atom_site_type_symbol
_atom_site_fract_x
_atom_site_fract_y
_atom_site_fract_z
_atom_site_charge
Mof_Zn	Zn	0.04954	0.322	0.09595	1.243
Mof_Zn	Zn	0.45165	0.32169	0.08788	1.24
Mof_P 	P 	0.02663	0.41946	0.80461	0.558
Mof_P 	P 	0.47664	0.42296	0.80132	0.577
Mof_O 	O 	0.03338	0.2971	0.9051	-0.445
Mof_O 	O 	0.02171	0.3572	0.6621	-0.404
Mof_O 	O 	0.98362	0.5148	0.8282	-0.434
Mof_O 	O 	0.07394	0.5189	0.8132	-0.367
Mof_O 	O 	0.46738	0.3029	0.9012	-0.459
Mof_O 	O 	0.52475	0.501	0.8263	-0.435
Mof_O 	O 	0.43551	0.5414	0.8113	-0.475
Mof_O 	O 	0.47657	0.3626	0.6593	-0.4
Mof_O 	O 	0.11821	0.3668	0.1196	-0.443
Mof_O 	O 	0.14355	0.1944	0.2643	-0.297
Mof_O 	O 	0.35655	0.4599	0.9342	-0.289
Mof_O 	O 	0.38197	0.334	0.1155	-0.433
Mof_C 	C 	0.20219	0.3348	0.1545	-0.046
Mof_C 	C 	0.24007	0.2662	0.2268	-0.04
Mof_C 	C 	0.21277	0.4294	0.0513	-0.026
Mof_C 	C 	0.28789	0.2906	0.1932	0.005
Mof_C 	C 	0.2606	0.4527	0.0181	-0.002
Mof_C 	C 	0.29827	0.3807	0.0869	-0.067
Mof_C 	C 	0.34974	0.3944	0.0394	0.341
Mof_C 	C 	0.15037	0.2953	0.184	0.348
Mof_H 	H 	0.2688	0.5219	0.9374	0.055
Mof_H 	H 	0.1895	0.4896	0.0042	0.067
Mof_H 	H 	0.2336	0.2117	0.2989	0.068
Mof_H 	H 	0.3148	0.2332	0.2405	0.06
Mof_H 	H 	0.099	0.4509	0.8239	0.208
Mof_H 	H 	0.4203	0.5313	0.8774	0.289
Mof_Zn	Zn	0.95046	0.822	0.40405	1.245
Mof_Zn	Zn	0.54835	0.82169	0.41212	1.242
Mof_P 	P 	0.97337	0.91946	0.69539	0.555
Mof_P 	P 	0.52336	0.92296	0.69868	0.576
Mof_O 	O 	0.96662	0.7971	0.5949	-0.446
Mof_O 	O 	0.97829	0.8572	0.8379	-0.405
Mof_O 	O 	0.01638	0.0148	0.6718	-0.433
Mof_O 	O 	0.92606	0.0189	0.6868	-0.363
Mof_O 	O 	0.53262	0.8029	0.5988	-0.46
Mof_O 	O 	0.47525	0.001	0.6737	-0.434
Mof_O 	O 	0.56449	0.0414	0.6887	-0.473
Mof_O 	O 	0.52343	0.8626	0.8407	-0.401
Mof_O 	O 	0.88179	0.8668	0.3804	-0.443
Mof_O 	O 	0.85645	0.6944	0.2357	-0.296
Mof_O 	O 	0.64345	0.9599	0.5658	-0.292
Mof_O 	O 	0.61803	0.834	0.3845	-0.433
Mof_C 	C 	0.79781	0.8348	0.3455	-0.045
Mof_C 	C 	0.75993	0.7662	0.2732	-0.04
Mof_C 	C 	0.78723	0.9294	0.4487	-0.026
Mof_C 	C 	0.71211	0.7906	0.3068	0.006
Mof_C 	C 	0.7394	0.9527	0.4819	-0.002
Mof_C 	C 	0.70173	0.8807	0.4131	-0.068
Mof_C 	C 	0.65026	0.8944	0.4606	0.344
Mof_C 	C 	0.84963	0.7953	0.316	0.348
Mof_H 	H 	0.7312	0.0219	0.5626	0.055
Mof_H 	H 	0.8105	0.9896	0.4958	0.067
Mof_H 	H 	0.7664	0.7117	0.2011	0.069
Mof_H 	H 	0.6852	0.7332	0.2595	0.061
Mof_H 	H 	0.901	0.9509	0.6761	0.205
Mof_H 	H 	0.5797	0.0313	0.6226	0.288
Mof_Zn	Zn	0.95046	0.678	0.90405	1.244
Mof_Zn	Zn	0.54835	0.67831	0.91212	1.241
Mof_P 	P 	0.97337	0.58054	0.19539	0.559
Mof_P 	P 	0.52336	0.57704	0.19868	0.578
Mof_O 	O 	0.96662	0.7029	0.0949	-0.445
Mof_O 	O 	0.97829	0.6428	0.3379	-0.404
Mof_O 	O 	0.01638	0.4852	0.1718	-0.434
Mof_O 	O 	0.92606	0.4811	0.1868	-0.367
Mof_O 	O 	0.53262	0.6971	0.0988	-0.459
Mof_O 	O 	0.47525	0.499	0.1737	-0.435
Mof_O 	O 	0.56449	0.4586	0.1887	-0.475
Mof_O 	O 	0.52343	0.6374	0.3407	-0.4
Mof_O 	O 	0.88179	0.6332	0.8804	-0.443
Mof_O 	O 	0.85645	0.8056	0.7357	-0.297
Mof_O 	O 	0.64345	0.5401	0.0658	-0.289
Mof_O 	O 	0.61803	0.666	0.8845	-0.433
Mof_C 	C 	0.79781	0.6652	0.8455	-0.046
Mof_C 	C 	0.75993	0.7338	0.7732	-0.04
Mof_C 	C 	0.78723	0.5706	0.9487	-0.026
Mof_C 	C 	0.71211	0.7094	0.8068	0.005
Mof_C 	C 	0.7394	0.5473	0.9819	-0.002
Mof_C 	C 	0.70173	0.6193	0.9131	-0.067
Mof_C 	C 	0.65026	0.6056	0.9606	0.341
Mof_C 	C 	0.84963	0.7047	0.816	0.348
Mof_H 	H 	0.7312	0.4781	0.0626	0.055
Mof_H 	H 	0.8105	0.5104	0.9958	0.067
Mof_H 	H 	0.7664	0.7883	0.7011	0.068
Mof_H 	H 	0.6852	0.7668	0.7595	0.06
Mof_H 	H 	0.901	0.5491	0.1761	0.208
Mof_H 	H 	0.5797	0.4687	0.1226	0.289
Mof_Zn	Zn	0.04954	0.178	0.59595	1.245
Mof_Zn	Zn	0.45165	0.17831	0.58788	1.242
Mof_P 	P 	0.02663	0.08054	0.30461	0.555
Mof_P 	P 	0.47664	0.07704	0.30132	0.576
Mof_O 	O 	0.03338	0.2029	0.4051	-0.446
Mof_O 	O 	0.02171	0.1428	0.1621	-0.405
Mof_O 	O 	0.98362	0.9852	0.3282	-0.433
Mof_O 	O 	0.07394	0.9811	0.3132	-0.363
Mof_O 	O 	0.46738	0.1971	0.4012	-0.46
Mof_O 	O 	0.52475	0.999	0.3263	-0.434
Mof_O 	O 	0.43551	0.9586	0.3113	-0.473
Mof_O 	O 	0.47657	0.1374	0.1593	-0.401
Mof_O 	O 	0.11821	0.1332	0.6196	-0.443
Mof_O 	O 	0.14355	0.3056	0.7643	-0.296
Mof_O 	O 	0.35655	0.0401	0.4342	-0.292
Mof_O 	O 	0.38197	0.166	0.6155	-0.433
Mof_C 	C 	0.20219	0.1652	0.6545	-0.045
Mof_C 	C 	0.24007	0.2338	0.7268	-0.04
Mof_C 	C 	0.21277	0.0706	0.5513	-0.026
Mof_C 	C 	0.28789	0.2094	0.6932	0.006
Mof_C 	C 	0.2606	0.0473	0.5181	-0.002
Mof_C 	C 	0.29827	0.1193	0.5869	-0.068
Mof_C 	C 	0.34974	0.1056	0.5394	0.344
Mof_C 	C 	0.15037	0.2047	0.684	0.348
Mof_H 	H 	0.2688	0.9781	0.4374	0.055
Mof_H 	H 	0.1895	0.0104	0.5042	0.067
Mof_H 	H 	0.2336	0.2883	0.7989	0.069
Mof_H 	H 	0.3148	0.2668	0.7405	0.061
Mof_H 	H 	0.099	0.0491	0.3239	0.205
Mof_H 	H 	0.4203	0.9687	0.3774	0.288
_end
