data_functionalizedCrystal
_audit_creation_method	'EQeq! by Chris Wilmer'
_symmetry_space_group_name_H-M	'P1'
_symmetry_Int_Tables_number	1
_symmetry_cell_setting	triclinic
loop_
_symmetry_equiv_pos_as_xyz
  x,y,z
_cell_length_a	18.825
_cell_length_b	15.373
_cell_length_c	9.047
_cell_angle_alpha	90
_cell_angle_beta	90
_cell_angle_gamma	90
loop_
_atom_site_label
_atom_site_type_symbol
_atom_site_fract_x
_atom_site_fract_y
_atom_site_fract_z
_atom_site_charge
Mof_C 	C 	0.9864	0.8443	0.6461	0.231
Mof_C 	C 	0.0006	0.8449	0.8121	0.269
Mof_C 	C 	0.1566	0.9875	0.4221	0.283
Mof_C 	C 	0.1538	0.0414	0.5656	0.249
Mof_C 	C 	0.155	0.6525	0.8543	0.494
Mof_C 	C 	0.1172	0.5789	0.9336	-0.16
Mof_C 	C 	0.1549	0.515	0.0002	0.122
Mof_H 	H 	0.2043	0.5171	0.9976	0.009
Mof_C 	C 	0.1223	0.4469	0.0716	-0.163
Mof_C 	C 	0.0486	0.4432	0.0709	0.029
Mof_H 	H 	0.0261	0.3971	0.1181	0.04
Mof_C 	C 	0.0076	0.5063	0.0016	-0.012
Mof_C 	C 	0.043	0.5756	0.9348	0.027
Mof_H 	H 	0.017	0.6201	0.8908	0.042
Mof_C 	C 	0.1643	0.3727	0.1386	0.5
Mof_C 	C 	0.9286	0.4996	0.9989	-0.029
Mof_C 	C 	0.8948	0.4207	0.0112	0.042
Mof_H 	H 	0.9221	0.3707	0.023	0.036
Mof_C 	C 	0.8203	0.4129	0.0064	-0.182
Mof_C 	C 	0.7803	0.4873	0.9912	0.127
Mof_H 	H 	0.731	0.4835	0.9929	0.024
Mof_C 	C 	0.812	0.5665	0.9737	-0.174
Mof_C 	C 	0.8854	0.5732	0.9799	0.043
Mof_H 	H 	0.9065	0.6276	0.9713	0.035
Mof_C 	C 	0.7692	0.6467	0.9402	0.514
Mof_C 	C 	0.7865	0.3296	0.0367	0.5
Mof_Yb	Yb	0.83464	0.82224	0.79565	1.99
Mof_Yb	Yb	0.15271	0.84772	0.68251	1.97
Mof_O 	O 	0.9225	0.8508	0.6036	-0.326
Mof_O 	O 	0.9496	0.8215	0.8945	-0.387
Mof_O 	O 	0.0605	0.8715	0.8505	-0.369
Mof_O 	O 	0.0408	0.8372	0.5642	-0.358
Mof_O 	O 	0.1586	0.907	0.4373	-0.352
Mof_O 	O 	0.156	0.0287	0.3022	-0.409
Mof_O 	O 	0.1452	0.9991	0.6846	-0.378
Mof_O 	O 	0.1613	0.1212	0.5543	-0.32
Mof_O 	O 	0.1194	0.7144	0.8055	-0.458
Mof_O 	O 	0.2215	0.6442	0.8441	-0.526
Mof_O 	O 	0.23	0.3798	0.1417	-0.517
Mof_O 	O 	0.1291	0.3089	0.1852	-0.476
Mof_O 	O 	0.8219	0.2624	0.0297	-0.502
Mof_O 	O 	0.7206	0.3299	0.0711	-0.475
Mof_O 	O 	0.7055	0.6363	0.9086	-0.483
Mof_O 	O 	0.8012	0.7168	0.9463	-0.523
Mof_C 	C 	0.0136	0.1557	0.1461	0.232
Mof_C 	C 	0.9994	0.1551	0.3121	0.269
Mof_C 	C 	0.8434	0.0125	0.9221	0.283
Mof_C 	C 	0.8462	0.9586	0.0656	0.25
Mof_C 	C 	0.845	0.3475	0.3543	0.494
Mof_C 	C 	0.8828	0.4211	0.4336	-0.16
Mof_C 	C 	0.8451	0.485	0.5002	0.123
Mof_H 	H 	0.7957	0.4829	0.4976	0.009
Mof_C 	C 	0.8777	0.5531	0.5716	-0.163
Mof_C 	C 	0.9514	0.5568	0.5709	0.029
Mof_H 	H 	0.9739	0.6029	0.6181	0.04
Mof_C 	C 	0.9924	0.4937	0.5016	-0.012
Mof_C 	C 	0.957	0.4244	0.4348	0.026
Mof_H 	H 	0.983	0.3799	0.3908	0.042
Mof_C 	C 	0.8357	0.6273	0.6386	0.5
Mof_C 	C 	0.0714	0.5004	0.4989	-0.029
Mof_C 	C 	0.1052	0.5793	0.5112	0.043
Mof_H 	H 	0.0779	0.6293	0.523	0.036
Mof_C 	C 	0.1797	0.5871	0.5064	-0.182
Mof_C 	C 	0.2197	0.5127	0.4912	0.126
Mof_H 	H 	0.269	0.5165	0.4929	0.024
Mof_C 	C 	0.188	0.4335	0.4737	-0.174
Mof_C 	C 	0.1146	0.4268	0.4799	0.043
Mof_H 	H 	0.0935	0.3724	0.4713	0.035
Mof_C 	C 	0.2308	0.3533	0.4402	0.514
Mof_C 	C 	0.2135	0.6704	0.5367	0.5
Mof_Yb	Yb	0.16536	0.17776	0.29565	1.99
Mof_Yb	Yb	0.84729	0.15228	0.18251	1.97
Mof_O 	O 	0.0775	0.1492	0.1036	-0.326
Mof_O 	O 	0.0504	0.1785	0.3945	-0.387
Mof_O 	O 	0.9395	0.1285	0.3505	-0.369
Mof_O 	O 	0.9592	0.1628	0.0642	-0.358
Mof_O 	O 	0.8414	0.093	0.9373	-0.352
Mof_O 	O 	0.844	0.9713	0.8022	-0.408
Mof_O 	O 	0.8548	0.0009	0.1846	-0.378
Mof_O 	O 	0.8387	0.8788	0.0543	-0.32
Mof_O 	O 	0.8806	0.2856	0.3055	-0.458
Mof_O 	O 	0.7785	0.3558	0.3441	-0.526
Mof_O 	O 	0.77	0.6202	0.6417	-0.517
Mof_O 	O 	0.8709	0.6911	0.6852	-0.476
Mof_O 	O 	0.1781	0.7376	0.5297	-0.502
Mof_O 	O 	0.2794	0.6701	0.5711	-0.475
Mof_O 	O 	0.2945	0.3637	0.4086	-0.483
Mof_O 	O 	0.1988	0.2832	0.4463	-0.523
Mof_C 	C 	0.4864	0.6557	0.6461	0.233
Mof_C 	C 	0.5006	0.6551	0.8121	0.269
Mof_C 	C 	0.6566	0.5125	0.4221	0.283
Mof_C 	C 	0.6538	0.4586	0.5656	0.251
Mof_C 	C 	0.655	0.8475	0.8543	0.494
Mof_C 	C 	0.6172	0.9211	0.9336	-0.159
Mof_C 	C 	0.6549	0.985	0.0002	0.119
Mof_H 	H 	0.7043	0.9829	0.9976	0.01
Mof_C 	C 	0.6223	0.0531	0.0716	-0.161
Mof_C 	C 	0.5486	0.0568	0.0709	0.029
Mof_H 	H 	0.5261	0.1029	0.1181	0.041
Mof_C 	C 	0.5076	0.9937	0.0016	-0.012
Mof_C 	C 	0.543	0.9244	0.9348	0.026
Mof_H 	H 	0.517	0.8799	0.8908	0.042
Mof_C 	C 	0.6643	0.1273	0.1386	0.499
Mof_C 	C 	0.4286	0.0004	0.9989	-0.03
Mof_C 	C 	0.3948	0.0793	0.0112	0.043
Mof_H 	H 	0.4221	0.1293	0.023	0.036
Mof_C 	C 	0.3203	0.0871	0.0064	-0.182
Mof_C 	C 	0.2803	0.0127	0.9912	0.125
Mof_H 	H 	0.231	0.0165	0.9929	0.024
Mof_C 	C 	0.312	0.9335	0.9737	-0.173
Mof_C 	C 	0.3854	0.9268	0.9799	0.043
Mof_H 	H 	0.4065	0.8724	0.9713	0.035
Mof_C 	C 	0.2692	0.8533	0.9402	0.514
Mof_C 	C 	0.2865	0.1704	0.0367	0.5
Mof_Yb	Yb	0.33464	0.67776	0.79565	1.99
Mof_Yb	Yb	0.65271	0.65228	0.68251	1.97
Mof_O 	O 	0.4225	0.6492	0.6036	-0.326
Mof_O 	O 	0.4496	0.6785	0.8945	-0.386
Mof_O 	O 	0.5605	0.6285	0.8505	-0.369
Mof_O 	O 	0.5408	0.6628	0.5642	-0.359
Mof_O 	O 	0.6586	0.593	0.4373	-0.352
Mof_O 	O 	0.656	0.4713	0.3022	-0.408
Mof_O 	O 	0.6452	0.5009	0.6846	-0.378
Mof_O 	O 	0.6613	0.3788	0.5543	-0.32
Mof_O 	O 	0.6194	0.7856	0.8055	-0.458
Mof_O 	O 	0.7215	0.8558	0.8441	-0.526
Mof_O 	O 	0.73	0.1202	0.1417	-0.517
Mof_O 	O 	0.6291	0.1911	0.1852	-0.476
Mof_O 	O 	0.3219	0.2376	0.0297	-0.502
Mof_O 	O 	0.2206	0.1701	0.0711	-0.475
Mof_O 	O 	0.2055	0.8637	0.9086	-0.483
Mof_O 	O 	0.3012	0.7832	0.9463	-0.522
Mof_C 	C 	0.5136	0.3443	0.1461	0.233
Mof_C 	C 	0.4994	0.3449	0.3121	0.269
Mof_C 	C 	0.3434	0.4875	0.9221	0.283
Mof_C 	C 	0.3462	0.5414	0.0656	0.251
Mof_C 	C 	0.345	0.1525	0.3543	0.494
Mof_C 	C 	0.3828	0.0789	0.4336	-0.16
Mof_C 	C 	0.3451	0.015	0.5002	0.123
Mof_H 	H 	0.2957	0.0171	0.4976	0.009
Mof_C 	C 	0.3777	0.9469	0.5716	-0.163
Mof_C 	C 	0.4514	0.9432	0.5709	0.029
Mof_H 	H 	0.4739	0.8971	0.6181	0.041
Mof_C 	C 	0.4924	0.0063	0.5016	-0.012
Mof_C 	C 	0.457	0.0756	0.4348	0.026
Mof_H 	H 	0.483	0.1201	0.3908	0.042
Mof_C 	C 	0.3357	0.8727	0.6386	0.5
Mof_C 	C 	0.5714	0.9996	0.4989	-0.03
Mof_C 	C 	0.6052	0.9207	0.5112	0.043
Mof_H 	H 	0.5779	0.8707	0.523	0.036
Mof_C 	C 	0.6797	0.9129	0.5064	-0.182
Mof_C 	C 	0.7197	0.9873	0.4912	0.126
Mof_H 	H 	0.769	0.9835	0.4929	0.024
Mof_C 	C 	0.688	0.0665	0.4737	-0.174
Mof_C 	C 	0.6146	0.0732	0.4799	0.043
Mof_H 	H 	0.5935	0.1276	0.4713	0.035
Mof_C 	C 	0.7308	0.1467	0.4402	0.514
Mof_C 	C 	0.7135	0.8296	0.5367	0.5
Mof_Yb	Yb	0.66536	0.32224	0.29565	1.99
Mof_Yb	Yb	0.34729	0.34772	0.18251	1.97
Mof_O 	O 	0.5775	0.3508	0.1036	-0.327
Mof_O 	O 	0.5504	0.3215	0.3945	-0.386
Mof_O 	O 	0.4395	0.3715	0.3505	-0.369
Mof_O 	O 	0.4592	0.3372	0.0642	-0.359
Mof_O 	O 	0.3414	0.407	0.9373	-0.352
Mof_O 	O 	0.344	0.5287	0.8022	-0.408
Mof_O 	O 	0.3548	0.4991	0.1846	-0.378
Mof_O 	O 	0.3387	0.6212	0.0543	-0.32
Mof_O 	O 	0.3806	0.2144	0.3055	-0.458
Mof_O 	O 	0.2785	0.1442	0.3441	-0.526
Mof_O 	O 	0.27	0.8798	0.6417	-0.517
Mof_O 	O 	0.3709	0.8089	0.6852	-0.476
Mof_O 	O 	0.6781	0.7624	0.5297	-0.502
Mof_O 	O 	0.7794	0.8299	0.5711	-0.475
Mof_O 	O 	0.7945	0.1363	0.4086	-0.483
Mof_O 	O 	0.6988	0.2168	0.4463	-0.523
_end
