data_functionalizedCrystal
_audit_creation_method	'EQeq! by Chris Wilmer'
_symmetry_space_group_name_H-M	'P1'
_symmetry_Int_Tables_number	1
_symmetry_cell_setting	triclinic
loop_
_symmetry_equiv_pos_as_xyz
  x,y,z
_cell_length_a	8.8304
_cell_length_b	8.8257
_cell_length_c	27.644
_cell_angle_alpha	90
_cell_angle_beta	102.142
_cell_angle_gamma	90
loop_
_atom_site_label
_atom_site_type_symbol
_atom_site_fract_x
_atom_site_fract_y
_atom_site_fract_z
_atom_site_charge
Mof_C 	C 	0.5593	0.7531	0.1644	0.486
Mof_C 	C 	0.5841	0.7736	0.113	-0.266
Mof_C 	C 	0.6547	0.9033	0.099	0.316
Mof_C 	C 	0.6767	0.9155	0.051	-0.248
Mof_H 	H 	0.7237	0.0018	0.0416	0.145
Mof_C 	C 	0.6308	0.8036	0.0174	0.055
Mof_H 	H 	0.6453	0.815	0.9852	0.027
Mof_C 	C 	0.5624	0.6722	0.0306	0.004
Mof_C 	C 	0.5373	0.6595	0.0786	0.062
Mof_H 	H 	0.4887	0.5736	0.0875	0.028
Mof_C 	C 	0.341	0.1879	0.1743	0.419
Mof_C 	C 	0.255	0.0665	0.1436	-0.219
Mof_C 	C 	0.2354	0.9183	0.1621	0.289
Mof_C 	C 	0.1543	0.8125	0.1275	-0.204
Mof_H 	H 	0.144	0.7135	0.138	0.101
Mof_C 	C 	0.0909	0.8495	0.0798	0.027
Mof_H 	H 	0.0375	0.7765	0.0585	0.037
Mof_C 	C 	0.1055	0.9964	0.0625	0.016
Mof_C 	C 	0.1876	0.1005	0.0944	0.034
Mof_H 	H 	0.1991	0.1978	0.0828	0.042
Mof_H 	H 	0.673	0.991	0.1569	0.244
Mof_Ho	Ho	0.50379	0.93907	0.26706	1.688
Mof_N 	N 	0.5242	0.5599	0.9932	-0.074
Mof_N 	N 	0.0374	0.048	0.0141	-0.078
Mof_O 	O 	0.4983	0.6345	0.17514	-0.521
Mof_O 	O 	0.3338	0.3205	0.15876	-0.449
Mof_O 	O 	0.6001	0.8633	0.19481	-0.507
Mof_O 	O 	0.7033	0.0169	0.131	-0.429
Mof_O 	O 	0.2821	0.8787	0.20872	-0.459
Mof_O 	O 	0.4248	0.1595	0.21738	-0.577
Mof_C 	C 	0.4407	0.2531	0.3356	0.488
Mof_C 	C 	0.4159	0.2736	0.387	-0.268
Mof_C 	C 	0.3453	0.4033	0.401	0.325
Mof_C 	C 	0.3233	0.4155	0.449	-0.247
Mof_H 	H 	0.2763	0.5018	0.4584	0.142
Mof_C 	C 	0.3692	0.3036	0.4826	0.057
Mof_H 	H 	0.3547	0.315	0.5148	0.026
Mof_C 	C 	0.4376	0.1722	0.4694	0.004
Mof_C 	C 	0.4627	0.1595	0.4214	0.063
Mof_H 	H 	0.5113	0.0736	0.4125	0.029
Mof_C 	C 	0.659	0.6879	0.3257	0.422
Mof_C 	C 	0.745	0.5665	0.3564	-0.228
Mof_C 	C 	0.7646	0.4183	0.3379	0.298
Mof_C 	C 	0.8457	0.3125	0.3725	-0.207
Mof_H 	H 	0.856	0.2135	0.362	0.104
Mof_C 	C 	0.9091	0.3495	0.4202	0.027
Mof_H 	H 	0.9625	0.2765	0.4415	0.037
Mof_C 	C 	0.8945	0.4964	0.4375	0.022
Mof_C 	C 	0.8124	0.6005	0.4056	0.03
Mof_H 	H 	0.8009	0.6978	0.4172	0.042
Mof_H 	H 	0.327	0.491	0.3431	0.255
Mof_Ho	Ho	0.49621	0.43907	0.23294	1.704
Mof_N 	N 	0.4758	0.0599	0.5068	-0.074
Mof_N 	N 	0.9626	0.548	0.4859	-0.08
Mof_O 	O 	0.5017	0.1345	0.32486	-0.517
Mof_O 	O 	0.6662	0.8205	0.34124	-0.45
Mof_O 	O 	0.3999	0.3633	0.30519	-0.507
Mof_O 	O 	0.2967	0.5169	0.369	-0.445
Mof_O 	O 	0.7179	0.3787	0.29128	-0.46
Mof_O 	O 	0.5752	0.6595	0.28262	-0.582
Mof_C 	C 	0.4407	0.2469	0.8356	0.487
Mof_C 	C 	0.4159	0.2264	0.887	-0.265
Mof_C 	C 	0.3453	0.0967	0.901	0.316
Mof_C 	C 	0.3233	0.0845	0.949	-0.248
Mof_H 	H 	0.2763	0.9982	0.9584	0.145
Mof_C 	C 	0.3692	0.1964	0.9826	0.055
Mof_H 	H 	0.3547	0.185	0.0148	0.027
Mof_C 	C 	0.4376	0.3278	0.9694	0.004
Mof_C 	C 	0.4627	0.3405	0.9214	0.062
Mof_H 	H 	0.5113	0.4264	0.9125	0.028
Mof_C 	C 	0.659	0.8121	0.8257	0.419
Mof_C 	C 	0.745	0.9335	0.8564	-0.219
Mof_C 	C 	0.7646	0.0817	0.8379	0.289
Mof_C 	C 	0.8457	0.1875	0.8725	-0.204
Mof_H 	H 	0.856	0.2865	0.862	0.101
Mof_C 	C 	0.9091	0.1505	0.9202	0.027
Mof_H 	H 	0.9625	0.2235	0.9415	0.037
Mof_C 	C 	0.8945	0.0036	0.9375	0.016
Mof_C 	C 	0.8124	0.8995	0.9056	0.034
Mof_H 	H 	0.8009	0.8022	0.9172	0.042
Mof_H 	H 	0.327	0.009	0.8431	0.244
Mof_Ho	Ho	0.49621	0.06093	0.73294	1.688
Mof_N 	N 	0.4758	0.4401	0.0068	-0.074
Mof_N 	N 	0.9626	0.952	0.9859	-0.078
Mof_O 	O 	0.5017	0.3655	0.82486	-0.521
Mof_O 	O 	0.6662	0.6795	0.84124	-0.449
Mof_O 	O 	0.3999	0.1367	0.80519	-0.507
Mof_O 	O 	0.2967	0.9831	0.869	-0.429
Mof_O 	O 	0.7179	0.1213	0.79128	-0.459
Mof_O 	O 	0.5752	0.8405	0.78262	-0.577
Mof_C 	C 	0.5593	0.7469	0.6644	0.488
Mof_C 	C 	0.5841	0.7264	0.613	-0.268
Mof_C 	C 	0.6547	0.5967	0.599	0.325
Mof_C 	C 	0.6767	0.5845	0.551	-0.247
Mof_H 	H 	0.7237	0.4982	0.5416	0.142
Mof_C 	C 	0.6308	0.6964	0.5174	0.057
Mof_H 	H 	0.6453	0.685	0.4852	0.026
Mof_C 	C 	0.5624	0.8278	0.5306	0.004
Mof_C 	C 	0.5373	0.8405	0.5786	0.063
Mof_H 	H 	0.4887	0.9264	0.5875	0.029
Mof_C 	C 	0.341	0.3121	0.6743	0.422
Mof_C 	C 	0.255	0.4335	0.6436	-0.228
Mof_C 	C 	0.2354	0.5817	0.6621	0.298
Mof_C 	C 	0.1543	0.6875	0.6275	-0.207
Mof_H 	H 	0.144	0.7865	0.638	0.104
Mof_C 	C 	0.0909	0.6505	0.5798	0.027
Mof_H 	H 	0.0375	0.7235	0.5585	0.037
Mof_C 	C 	0.1055	0.5036	0.5625	0.022
Mof_C 	C 	0.1876	0.3995	0.5944	0.03
Mof_H 	H 	0.1991	0.3022	0.5828	0.042
Mof_H 	H 	0.673	0.509	0.6569	0.255
Mof_Ho	Ho	0.50379	0.56093	0.76706	1.704
Mof_N 	N 	0.5242	0.9401	0.4932	-0.074
Mof_N 	N 	0.0374	0.452	0.5141	-0.08
Mof_O 	O 	0.4983	0.8655	0.67514	-0.517
Mof_O 	O 	0.3338	0.1795	0.65876	-0.45
Mof_O 	O 	0.6001	0.6367	0.69481	-0.507
Mof_O 	O 	0.7033	0.4831	0.631	-0.445
Mof_O 	O 	0.2821	0.6213	0.70872	-0.46
Mof_O 	O 	0.4248	0.3405	0.71738	-0.582
_end
