# CIF file generated by openbabel 3.1.0, see https://openbabel.org
data_I
_chemical_name_common 'HIWXER01_clean'
_cell_length_a 16.0871
_cell_length_b 8.5505
_cell_length_c 17.1886
_cell_angle_alpha 90
_cell_angle_beta 129.569
_cell_angle_gamma 90
_space_group_name_H-M_alt 'P 1'
_space_group_name_Hall 'P 1'
loop_
    _symmetry_equiv_pos_as_xyz
    x,y,z
loop_
    _atom_site_label
    _atom_site_type_symbol
    _atom_site_fract_x
    _atom_site_fract_y
    _atom_site_fract_z
    _atom_site_occupancy
    Zn1      Zn       0.10716    0.31985    0.13437    1.000
    Zn2      Zn       0.87386    0.56452    0.02872    1.000
    C3       C        0.24610    0.59240    0.18100    1.000
    C4       C        0.18640    0.59420    0.27510    1.000
    N5       N        0.33440    0.68640    0.24150    1.000
    N6       N        0.37680    0.69880    0.19490    1.000
    N7       N        0.32070    0.62010    0.11150    1.000
    N8       N        0.23850    0.55240    0.10010    1.000
    N9       N        0.26090    0.69970    0.34390    1.000
    N10      N        0.24610    0.71270    0.41230    1.000
    N11      N        0.16620    0.62070    0.38450    1.000
    N12      N        0.12660    0.54360    0.29860    1.000
    N13      N        0.17740    0.53870    0.19410    1.000
    O14      O        0.96510    0.37260    0.11160    1.000
    O15      O        0.03860    0.31630    0.98880    1.000
    H16      H        0.54204    0.79291    0.55928    1.000
    H17      H        0.59135    0.79073    0.42205    1.000
    Zn18     Zn       0.60716    0.81985    0.13437    1.000
    Zn19     Zn       0.37386    0.06452    0.02872    1.000
    C20      C        0.74610    0.09240    0.18100    1.000
    C21      C        0.68640    0.09420    0.27510    1.000
    N22      N        0.83440    0.18640    0.24150    1.000
    N23      N        0.87680    0.19880    0.19490    1.000
    N24      N        0.82070    0.12010    0.11150    1.000
    N25      N        0.73850    0.05240    0.10010    1.000
    N26      N        0.76090    0.19970    0.34390    1.000
    N27      N        0.74610    0.21270    0.41230    1.000
    N28      N        0.66620    0.12070    0.38450    1.000
    N29      N        0.62660    0.04360    0.29860    1.000
    N30      N        0.67740    0.03870    0.19410    1.000
    O31      O        0.46510    0.87260    0.11160    1.000
    O32      O        0.53860    0.81630    0.98880    1.000
    H33      H        0.04204    0.29291    0.55928    1.000
    H34      H        0.09135    0.29073    0.42205    1.000
    Zn35     Zn       0.89284    0.31985    0.36563    1.000
    Zn36     Zn       0.12614    0.56452    0.47128    1.000
    C37      C        0.75390    0.59240    0.31900    1.000
    C38      C        0.81360    0.59420    0.22490    1.000
    N39      N        0.66560    0.68640    0.25850    1.000
    N40      N        0.62320    0.69880    0.30510    1.000
    N41      N        0.67930    0.62010    0.38850    1.000
    N42      N        0.76150    0.55240    0.39990    1.000
    N43      N        0.73910    0.69970    0.15610    1.000
    N44      N        0.75390    0.71270    0.08770    1.000
    N45      N        0.83380    0.62070    0.11550    1.000
    N46      N        0.87340    0.54360    0.20140    1.000
    N47      N        0.82260    0.53870    0.30590    1.000
    O48      O        0.03490    0.37260    0.38840    1.000
    O49      O        0.96140    0.31630    0.51120    1.000
    H50      H        0.45796    0.79291    0.94072    1.000
    H51      H        0.40865    0.79073    0.07795    1.000
    Zn52     Zn       0.39284    0.81985    0.36563    1.000
    Zn53     Zn       0.62614    0.06452    0.47128    1.000
    C54      C        0.25390    0.09240    0.31900    1.000
    C55      C        0.31360    0.09420    0.22490    1.000
    N56      N        0.16560    0.18640    0.25850    1.000
    N57      N        0.12320    0.19880    0.30510    1.000
    N58      N        0.17930    0.12010    0.38850    1.000
    N59      N        0.26150    0.05240    0.39990    1.000
    N60      N        0.23910    0.19970    0.15610    1.000
    N61      N        0.25390    0.21270    0.08770    1.000
    N62      N        0.33380    0.12070    0.11550    1.000
    N63      N        0.37340    0.04360    0.20140    1.000
    N64      N        0.32260    0.03870    0.30590    1.000
    O65      O        0.53490    0.87260    0.38840    1.000
    O66      O        0.46140    0.81630    0.51120    1.000
    H67      H        0.95796    0.29291    0.94072    1.000
    H68      H        0.90865    0.29073    0.07795    1.000
    Zn69     Zn       0.89284    0.68015    0.86563    1.000
    Zn70     Zn       0.12614    0.43548    0.97128    1.000
    C71      C        0.75390    0.40760    0.81900    1.000
    C72      C        0.81360    0.40580    0.72490    1.000
    N73      N        0.66560    0.31360    0.75850    1.000
    N74      N        0.62320    0.30120    0.80510    1.000
    N75      N        0.67930    0.37990    0.88850    1.000
    N76      N        0.76150    0.44760    0.89990    1.000
    N77      N        0.73910    0.30030    0.65610    1.000
    N78      N        0.75390    0.28730    0.58770    1.000
    N79      N        0.83380    0.37930    0.61550    1.000
    N80      N        0.87340    0.45640    0.70140    1.000
    N81      N        0.82260    0.46130    0.80590    1.000
    O82      O        0.03490    0.62740    0.88840    1.000
    O83      O        0.96140    0.68370    0.01120    1.000
    H84      H        0.45796    0.20709    0.44072    1.000
    H85      H        0.40865    0.20927    0.57795    1.000
    Zn86     Zn       0.39284    0.18015    0.86563    1.000
    Zn87     Zn       0.62614    0.93548    0.97128    1.000
    C88      C        0.25390    0.90760    0.81900    1.000
    C89      C        0.31360    0.90580    0.72490    1.000
    N90      N        0.16560    0.81360    0.75850    1.000
    N91      N        0.12320    0.80120    0.80510    1.000
    N92      N        0.17930    0.87990    0.88850    1.000
    N93      N        0.26150    0.94760    0.89990    1.000
    N94      N        0.23910    0.80030    0.65610    1.000
    N95      N        0.25390    0.78730    0.58770    1.000
    N96      N        0.33380    0.87930    0.61550    1.000
    N97      N        0.37340    0.95640    0.70140    1.000
    N98      N        0.32260    0.96130    0.80590    1.000
    O99      O        0.53490    0.12740    0.88840    1.000
    O100     O        0.46140    0.18370    0.01120    1.000
    H101     H        0.95796    0.70709    0.44072    1.000
    H102     H        0.90865    0.70927    0.57795    1.000
    Zn103    Zn       0.10716    0.68015    0.63437    1.000
    Zn104    Zn       0.87386    0.43548    0.52872    1.000
    C105     C        0.24610    0.40760    0.68100    1.000
    C106     C        0.18640    0.40580    0.77510    1.000
    N107     N        0.33440    0.31360    0.74150    1.000
    N108     N        0.37680    0.30120    0.69490    1.000
    N109     N        0.32070    0.37990    0.61150    1.000
    N110     N        0.23850    0.44760    0.60010    1.000
    N111     N        0.26090    0.30030    0.84390    1.000
    N112     N        0.24610    0.28730    0.91230    1.000
    N113     N        0.16620    0.37930    0.88450    1.000
    N114     N        0.12660    0.45640    0.79860    1.000
    N115     N        0.17740    0.46130    0.69410    1.000
    O116     O        0.96510    0.62740    0.61160    1.000
    O117     O        0.03860    0.68370    0.48880    1.000
    H118     H        0.54204    0.20709    0.05928    1.000
    H119     H        0.59135    0.20927    0.92205    1.000
    Zn120    Zn       0.60716    0.18015    0.63437    1.000
    Zn121    Zn       0.37386    0.93548    0.52872    1.000
    C122     C        0.74610    0.90760    0.68100    1.000
    C123     C        0.68640    0.90580    0.77510    1.000
    N124     N        0.83440    0.81360    0.74150    1.000
    N125     N        0.87680    0.80120    0.69490    1.000
    N126     N        0.82070    0.87990    0.61150    1.000
    N127     N        0.73850    0.94760    0.60010    1.000
    N128     N        0.76090    0.80030    0.84390    1.000
    N129     N        0.74610    0.78730    0.91230    1.000
    N130     N        0.66620    0.87930    0.88450    1.000
    N131     N        0.62660    0.95640    0.79860    1.000
    N132     N        0.67740    0.96130    0.69410    1.000
    O133     O        0.46510    0.12740    0.61160    1.000
    O134     O        0.53860    0.18370    0.48880    1.000
    H135     H        0.04204    0.70709    0.05928    1.000
    H136     H        0.09135    0.70927    0.92205    1.000
    Zn137    Zn       0.00000    0.37327    0.25000    1.000
    Zn138    Zn       0.50000    0.87327    0.25000    1.000
    Zn139    Zn       0.00000    0.62673    0.75000    1.000
    Zn140    Zn       0.50000    0.12673    0.75000    1.000
