data_functionalizedCrystal
_audit_creation_method	'EQeq! by Chris Wilmer'
_symmetry_space_group_name_H-M	'P1'
_symmetry_Int_Tables_number	1
_symmetry_cell_setting	triclinic
loop_
_symmetry_equiv_pos_as_xyz
  x,y,z
_cell_length_a	10.4402
_cell_length_b	10.513
_cell_length_c	6.3021
_cell_angle_alpha	90
_cell_angle_beta	115.217
_cell_angle_gamma	90
loop_
_atom_site_label
_atom_site_type_symbol
_atom_site_fract_x
_atom_site_fract_y
_atom_site_fract_z
_atom_site_charge
Mof_C 	C 	0.316	0.2103	0.546	-0.065
Mof_H 	H 	0.397	0.2651	0.5787	0.016
Mof_H 	H 	0.3276	0.1712	0.6925	-0.003
Mof_N 	N 	0.3136	0.1106	0.3817	-0.271
Mof_H 	H 	0.2997	0.1471	0.2444	0.06
Mof_H 	H 	0.2396	0.0587	0.3548	0.052
Mof_C 	C 	0.816	0.7103	0.546	-0.067
Mof_H 	H 	0.897	0.7651	0.5787	0.043
Mof_H 	H 	0.8276	0.6712	0.6925	0.022
Mof_N 	N 	0.8136	0.6106	0.3817	-0.264
Mof_H 	H 	0.7997	0.6471	0.2444	0.084
Mof_H 	H 	0.7396	0.5587	0.3548	0.082
Mof_C 	C 	0.684	0.2103	0.954	0.032
Mof_H 	H 	0.603	0.2651	0.9213	-0.008
Mof_H 	H 	0.6724	0.1712	0.8075	-0.028
Mof_N 	N 	0.6864	0.1106	0.1183	-0.295
Mof_H 	H 	0.7003	0.1471	0.2556	0.076
Mof_H 	H 	0.7604	0.0587	0.1452	0.071
Mof_C 	C 	0.184	0.7103	0.954	0.036
Mof_H 	H 	0.103	0.7651	0.9213	-0.019
Mof_H 	H 	0.1724	0.6712	0.8075	-0.03
Mof_N 	N 	0.1864	0.6106	0.1183	-0.298
Mof_H 	H 	0.2003	0.6471	0.2556	0.077
Mof_H 	H 	0.2604	0.5587	0.1452	0.081
Mof_C 	C 	0.684	0.7897	0.454	-0.024
Mof_H 	H 	0.603	0.7349	0.4213	0.006
Mof_H 	H 	0.6724	0.8288	0.3075	0.005
Mof_N 	N 	0.6864	0.8894	0.6183	-0.28
Mof_H 	H 	0.7003	0.8529	0.7556	0.1
Mof_H 	H 	0.7604	0.9413	0.6452	0.116
Mof_C 	C 	0.184	0.2897	0.454	-0.02
Mof_H 	H 	0.103	0.2349	0.4213	-0.022
Mof_H 	H 	0.1724	0.3288	0.3075	-0.021
Mof_N 	N 	0.1864	0.3894	0.6183	-0.288
Mof_H 	H 	0.2003	0.3529	0.7556	0.077
Mof_H 	H 	0.2604	0.4413	0.6452	0.086
Mof_C 	C 	0.316	0.7897	0.046	-0.119
Mof_H 	H 	0.397	0.7349	0.0787	0.031
Mof_H 	H 	0.3276	0.8288	0.1925	0.027
Mof_N 	N 	0.3136	0.8894	0.8817	-0.247
Mof_H 	H 	0.2997	0.8529	0.7444	0.084
Mof_H 	H 	0.2396	0.9413	0.8548	0.097
Mof_C 	C 	0.816	0.2897	0.046	-0.122
Mof_H 	H 	0.897	0.2349	0.0787	0.042
Mof_H 	H 	0.8276	0.3288	0.1925	0.029
Mof_N 	N 	0.8136	0.3894	0.8817	-0.245
Mof_H 	H 	0.7997	0.3529	0.7444	0.082
Mof_H 	H 	0.7396	0.4413	0.8548	0.086
Mof_Ag	Ag	0.5	5.04237e-33	0.5	0.306
Mof_Ag	Ag	-2.27088e-17	0.5	0.5	0.309
Mof_Ag	Ag	0.5	0	-0	0.259
Mof_Ag	Ag	-0	0.5	-0	0.262
_end
