data_functionalizedCrystal
_audit_creation_method	'EQeq! by Chris Wilmer'
_symmetry_space_group_name_H-M	'P1'
_symmetry_Int_Tables_number	1
_symmetry_cell_setting	triclinic
loop_
_symmetry_equiv_pos_as_xyz
  x,y,z
_cell_length_a	35.7316
_cell_length_b	35.7316
_cell_length_c	35.7316
_cell_angle_alpha	90
_cell_angle_beta	90
_cell_angle_gamma	90
loop_
_atom_site_label
_atom_site_type_symbol
_atom_site_fract_x
_atom_site_fract_y
_atom_site_fract_z
_atom_site_charge
Mof_O 	O 	0.19802	0.28716	0.20682	-1.29
Mof_O 	O 	0.17327	0.25166	0.25216	-1.244
Mof_C 	C 	0.17181	0.26846	0.22095	0.997
Mof_C 	C 	0.13607	0.26501	0.20005	-0.481
Mof_C 	C 	0.13341	0.28139	0.16499	0.32
Mof_H 	H 	0.1535	0.2947	0.1551	-0.09
Mof_C 	C 	0.10616	0.24705	0.21463	0.338
Mof_H 	H 	0.1081	0.2364	0.2383	-0.089
Mof_C 	C 	0.07266	0.24411	0.19524	-0.341
Mof_H 	H 	0.0524	0.2317	0.2059	0.14
Mof_C 	C 	0.10056	0.27763	0.14482	-0.331
Mof_H 	H 	0.0992	0.2873	0.1207	0.135
Mof_C 	C 	0.06939	0.25971	0.16001	0.213
Mof_C 	C 	0.03399	0.2566	0.13894	-0.062
Mof_C 	C 	0.0338	0.2554	0.10036	-0.05
Mof_H 	H 	0.0563	0.2551	0.0873	0.041
Mof_C 	C 	0.0191	0.2194	0.0209	0.015
Mof_C 	C 	0.0353	0.1871	0.0381	-0.06
Mof_H 	H 	0.0412	0.19	0.0633	0.054
Mof_C 	C 	0.0445	0.149	0.0218	-0.037
Mof_H 	H 	0.0495	0.1279	0.0363	0.041
Mof_C 	C 	0.0209	0.2644	0.0214	-0.041
Mof_H 	H 	0.0403	0.2774	0.0331	0.037
Mof_O 	O 	0.80198	0.71284	0.20682	-1.291
Mof_O 	O 	0.82673	0.74834	0.25216	-1.245
Mof_C 	C 	0.82819	0.73154	0.22095	0.996
Mof_C 	C 	0.86393	0.73499	0.20005	-0.482
Mof_C 	C 	0.86659	0.71861	0.16499	0.319
Mof_H 	H 	0.8465	0.7053	0.1551	-0.091
Mof_C 	C 	0.89384	0.75295	0.21463	0.337
Mof_H 	H 	0.8919	0.7636	0.2383	-0.09
Mof_C 	C 	0.92734	0.75589	0.19524	-0.342
Mof_H 	H 	0.9476	0.7683	0.2059	0.139
Mof_C 	C 	0.89944	0.72237	0.14482	-0.332
Mof_H 	H 	0.9008	0.7127	0.1207	0.135
Mof_C 	C 	0.93061	0.74029	0.16001	0.212
Mof_C 	C 	0.96601	0.7434	0.13894	-0.063
Mof_C 	C 	0.9662	0.7446	0.10036	-0.05
Mof_H 	H 	0.9437	0.7449	0.0873	0.039
Mof_C 	C 	0.9809	0.7806	0.0209	0.014
Mof_C 	C 	0.9647	0.8129	0.0381	-0.061
Mof_H 	H 	0.9588	0.81	0.0633	0.053
Mof_C 	C 	0.9555	0.851	0.0218	-0.038
Mof_H 	H 	0.9505	0.8721	0.0363	0.04
Mof_C 	C 	0.9791	0.7356	0.0214	-0.041
Mof_H 	H 	0.9597	0.7226	0.0331	0.037
Mof_O 	O 	0.80198	0.28716	0.79318	-1.291
Mof_O 	O 	0.82673	0.25166	0.74784	-1.246
Mof_C 	C 	0.82819	0.26846	0.77905	0.996
Mof_C 	C 	0.86393	0.26501	0.79995	-0.484
Mof_C 	C 	0.86659	0.28139	0.83501	0.321
Mof_H 	H 	0.8465	0.2947	0.8449	-0.091
Mof_C 	C 	0.89384	0.24705	0.78537	0.34
Mof_H 	H 	0.8919	0.2364	0.7617	-0.091
Mof_C 	C 	0.92734	0.24411	0.80476	-0.346
Mof_H 	H 	0.9476	0.2317	0.7941	0.14
Mof_C 	C 	0.89944	0.27763	0.85518	-0.335
Mof_H 	H 	0.9008	0.2873	0.8793	0.136
Mof_C 	C 	0.93061	0.25971	0.83999	0.217
Mof_C 	C 	0.96601	0.2566	0.86106	-0.072
Mof_C 	C 	0.9662	0.2554	0.89964	-0.035
Mof_H 	H 	0.9437	0.2551	0.9127	0.034
Mof_C 	C 	0.9809	0.2194	0.9791	0.007
Mof_C 	C 	0.9647	0.1871	0.9619	-0.058
Mof_H 	H 	0.9588	0.19	0.9367	0.051
Mof_C 	C 	0.9555	0.149	0.9782	-0.039
Mof_H 	H 	0.9505	0.1279	0.9637	0.04
Mof_C 	C 	0.9791	0.2644	0.9786	-0.075
Mof_H 	H 	0.9597	0.2774	0.9669	0.048
Mof_O 	O 	0.19802	0.71284	0.79318	-1.291
Mof_O 	O 	0.17327	0.74834	0.74784	-1.246
Mof_C 	C 	0.17181	0.73154	0.77905	0.996
Mof_C 	C 	0.13607	0.73499	0.79995	-0.484
Mof_C 	C 	0.13341	0.71861	0.83501	0.321
Mof_H 	H 	0.1535	0.7053	0.8449	-0.091
Mof_C 	C 	0.10616	0.75295	0.78537	0.34
Mof_H 	H 	0.1081	0.7636	0.7617	-0.091
Mof_C 	C 	0.07266	0.75589	0.80476	-0.346
Mof_H 	H 	0.0524	0.7683	0.7941	0.14
Mof_C 	C 	0.10056	0.72237	0.85518	-0.335
Mof_H 	H 	0.0992	0.7127	0.8793	0.136
Mof_C 	C 	0.06939	0.74029	0.83999	0.217
Mof_C 	C 	0.03399	0.7434	0.86106	-0.072
Mof_C 	C 	0.0338	0.7446	0.89964	-0.036
Mof_H 	H 	0.0563	0.7449	0.9127	0.034
Mof_C 	C 	0.0191	0.7806	0.9791	0.007
Mof_C 	C 	0.0353	0.8129	0.9619	-0.058
Mof_H 	H 	0.0412	0.81	0.9367	0.051
Mof_C 	C 	0.0445	0.851	0.9782	-0.039
Mof_H 	H 	0.0495	0.8721	0.9637	0.04
Mof_C 	C 	0.0209	0.7356	0.9786	-0.075
Mof_H 	H 	0.0403	0.7226	0.9669	0.048
Mof_O 	O 	0.20682	0.19802	0.28716	-1.291
Mof_O 	O 	0.25216	0.17327	0.25166	-1.245
Mof_C 	C 	0.22095	0.17181	0.26846	0.996
Mof_C 	C 	0.20005	0.13607	0.26501	-0.482
Mof_C 	C 	0.16499	0.13341	0.28139	0.319
Mof_H 	H 	0.1551	0.1535	0.2947	-0.091
Mof_C 	C 	0.21463	0.10616	0.24705	0.337
Mof_H 	H 	0.2383	0.1081	0.2364	-0.09
Mof_C 	C 	0.19524	0.07266	0.24411	-0.342
Mof_H 	H 	0.2059	0.0524	0.2317	0.139
Mof_C 	C 	0.14482	0.10056	0.27763	-0.332
Mof_H 	H 	0.1207	0.0992	0.2873	0.134
Mof_C 	C 	0.16001	0.06939	0.25971	0.212
Mof_C 	C 	0.13894	0.03399	0.2566	-0.063
Mof_C 	C 	0.10036	0.0338	0.2554	-0.051
Mof_H 	H 	0.0873	0.0563	0.2551	0.04
Mof_C 	C 	0.0209	0.0191	0.2194	0.014
Mof_C 	C 	0.0381	0.0353	0.1871	-0.061
Mof_H 	H 	0.0633	0.0412	0.19	0.053
Mof_C 	C 	0.0218	0.0445	0.149	-0.038
Mof_H 	H 	0.0363	0.0495	0.1279	0.04
Mof_C 	C 	0.0214	0.0209	0.2644	-0.042
Mof_H 	H 	0.0331	0.0403	0.2774	0.037
Mof_O 	O 	0.20682	0.80198	0.71284	-1.291
Mof_O 	O 	0.25216	0.82673	0.74834	-1.245
Mof_C 	C 	0.22095	0.82819	0.73154	0.996
Mof_C 	C 	0.20005	0.86393	0.73499	-0.482
Mof_C 	C 	0.16499	0.86659	0.71861	0.319
Mof_H 	H 	0.1551	0.8465	0.7053	-0.091
Mof_C 	C 	0.21463	0.89384	0.75295	0.337
Mof_H 	H 	0.2383	0.8919	0.7636	-0.09
Mof_C 	C 	0.19524	0.92734	0.75589	-0.342
Mof_H 	H 	0.2059	0.9476	0.7683	0.139
Mof_C 	C 	0.14482	0.89944	0.72237	-0.332
Mof_H 	H 	0.1207	0.9008	0.7127	0.135
Mof_C 	C 	0.16001	0.93061	0.74029	0.212
Mof_C 	C 	0.13894	0.96601	0.7434	-0.063
Mof_C 	C 	0.10036	0.9662	0.7446	-0.05
Mof_H 	H 	0.0873	0.9437	0.7449	0.039
Mof_C 	C 	0.0209	0.9809	0.7806	0.014
Mof_C 	C 	0.0381	0.9647	0.8129	-0.061
Mof_H 	H 	0.0633	0.9588	0.81	0.053
Mof_C 	C 	0.0218	0.9555	0.851	-0.038
Mof_H 	H 	0.0363	0.9505	0.8721	0.04
Mof_C 	C 	0.0214	0.9791	0.7356	-0.041
Mof_H 	H 	0.0331	0.9597	0.7226	0.037
Mof_O 	O 	0.79318	0.80198	0.28716	-1.291
Mof_O 	O 	0.74784	0.82673	0.25166	-1.246
Mof_C 	C 	0.77905	0.82819	0.26846	0.996
Mof_C 	C 	0.79995	0.86393	0.26501	-0.484
Mof_C 	C 	0.83501	0.86659	0.28139	0.321
Mof_H 	H 	0.8449	0.8465	0.2947	-0.091
Mof_C 	C 	0.78537	0.89384	0.24705	0.34
Mof_H 	H 	0.7617	0.8919	0.2364	-0.091
Mof_C 	C 	0.80476	0.92734	0.24411	-0.346
Mof_H 	H 	0.7941	0.9476	0.2317	0.14
Mof_C 	C 	0.85518	0.89944	0.27763	-0.335
Mof_H 	H 	0.8793	0.9008	0.2873	0.136
Mof_C 	C 	0.83999	0.93061	0.25971	0.217
Mof_C 	C 	0.86106	0.96601	0.2566	-0.072
Mof_C 	C 	0.89964	0.9662	0.2554	-0.035
Mof_H 	H 	0.9127	0.9437	0.2551	0.034
Mof_C 	C 	0.9791	0.9809	0.2194	0.007
Mof_C 	C 	0.9619	0.9647	0.1871	-0.058
Mof_H 	H 	0.9367	0.9588	0.19	0.051
Mof_C 	C 	0.9782	0.9555	0.149	-0.039
Mof_H 	H 	0.9637	0.9505	0.1279	0.04
Mof_C 	C 	0.9786	0.9791	0.2644	-0.075
Mof_H 	H 	0.9669	0.9597	0.2774	0.048
Mof_O 	O 	0.79318	0.19802	0.71284	-1.291
Mof_O 	O 	0.74784	0.17327	0.74834	-1.246
Mof_C 	C 	0.77905	0.17181	0.73154	0.996
Mof_C 	C 	0.79995	0.13607	0.73499	-0.484
Mof_C 	C 	0.83501	0.13341	0.71861	0.321
Mof_H 	H 	0.8449	0.1535	0.7053	-0.091
Mof_C 	C 	0.78537	0.10616	0.75295	0.34
Mof_H 	H 	0.7617	0.1081	0.7636	-0.091
Mof_C 	C 	0.80476	0.07266	0.75589	-0.346
Mof_H 	H 	0.7941	0.0524	0.7683	0.14
Mof_C 	C 	0.85518	0.10056	0.72237	-0.335
Mof_H 	H 	0.8793	0.0992	0.7127	0.136
Mof_C 	C 	0.83999	0.06939	0.74029	0.217
Mof_C 	C 	0.86106	0.03399	0.7434	-0.072
Mof_C 	C 	0.89964	0.0338	0.7446	-0.036
Mof_H 	H 	0.9127	0.0563	0.7449	0.034
Mof_C 	C 	0.9791	0.0191	0.7806	0.007
Mof_C 	C 	0.9619	0.0353	0.8129	-0.058
Mof_H 	H 	0.9367	0.0412	0.81	0.051
Mof_C 	C 	0.9782	0.0445	0.851	-0.039
Mof_H 	H 	0.9637	0.0495	0.8721	0.04
Mof_C 	C 	0.9786	0.0209	0.7356	-0.075
Mof_H 	H 	0.9669	0.0403	0.7226	0.048
Mof_O 	O 	0.28716	0.20682	0.19802	-1.291
Mof_O 	O 	0.25166	0.25216	0.17327	-1.245
Mof_C 	C 	0.26846	0.22095	0.17181	0.996
Mof_C 	C 	0.26501	0.20005	0.13607	-0.482
Mof_C 	C 	0.28139	0.16499	0.13341	0.319
Mof_H 	H 	0.2947	0.1551	0.1535	-0.091
Mof_C 	C 	0.24705	0.21463	0.10616	0.337
Mof_H 	H 	0.2364	0.2383	0.1081	-0.09
Mof_C 	C 	0.24411	0.19524	0.07266	-0.342
Mof_H 	H 	0.2317	0.2059	0.0524	0.139
Mof_C 	C 	0.27763	0.14482	0.10056	-0.332
Mof_H 	H 	0.2873	0.1207	0.0992	0.134
Mof_C 	C 	0.25971	0.16001	0.06939	0.212
Mof_C 	C 	0.2566	0.13894	0.03399	-0.063
Mof_C 	C 	0.2554	0.10036	0.0338	-0.051
Mof_H 	H 	0.2551	0.0873	0.0563	0.04
Mof_C 	C 	0.2194	0.0209	0.0191	0.014
Mof_C 	C 	0.1871	0.0381	0.0353	-0.061
Mof_H 	H 	0.19	0.0633	0.0412	0.053
Mof_C 	C 	0.149	0.0218	0.0445	-0.038
Mof_H 	H 	0.1279	0.0363	0.0495	0.04
Mof_C 	C 	0.2644	0.0214	0.0209	-0.042
Mof_H 	H 	0.2774	0.0331	0.0403	0.037
Mof_O 	O 	0.71284	0.20682	0.80198	-1.291
Mof_O 	O 	0.74834	0.25216	0.82673	-1.245
Mof_C 	C 	0.73154	0.22095	0.82819	0.996
Mof_C 	C 	0.73499	0.20005	0.86393	-0.482
Mof_C 	C 	0.71861	0.16499	0.86659	0.319
Mof_H 	H 	0.7053	0.1551	0.8465	-0.091
Mof_C 	C 	0.75295	0.21463	0.89384	0.337
Mof_H 	H 	0.7636	0.2383	0.8919	-0.09
Mof_C 	C 	0.75589	0.19524	0.92734	-0.342
Mof_H 	H 	0.7683	0.2059	0.9476	0.139
Mof_C 	C 	0.72237	0.14482	0.89944	-0.332
Mof_H 	H 	0.7127	0.1207	0.9008	0.135
Mof_C 	C 	0.74029	0.16001	0.93061	0.212
Mof_C 	C 	0.7434	0.13894	0.96601	-0.063
Mof_C 	C 	0.7446	0.10036	0.9662	-0.05
Mof_H 	H 	0.7449	0.0873	0.9437	0.039
Mof_C 	C 	0.7806	0.0209	0.9809	0.014
Mof_C 	C 	0.8129	0.0381	0.9647	-0.061
Mof_H 	H 	0.81	0.0633	0.9588	0.053
Mof_C 	C 	0.851	0.0218	0.9555	-0.038
Mof_H 	H 	0.8721	0.0363	0.9505	0.04
Mof_C 	C 	0.7356	0.0214	0.9791	-0.041
Mof_H 	H 	0.7226	0.0331	0.9597	0.037
Mof_O 	O 	0.28716	0.79318	0.80198	-1.291
Mof_O 	O 	0.25166	0.74784	0.82673	-1.246
Mof_C 	C 	0.26846	0.77905	0.82819	0.996
Mof_C 	C 	0.26501	0.79995	0.86393	-0.484
Mof_C 	C 	0.28139	0.83501	0.86659	0.321
Mof_H 	H 	0.2947	0.8449	0.8465	-0.091
Mof_C 	C 	0.24705	0.78537	0.89384	0.34
Mof_H 	H 	0.2364	0.7617	0.8919	-0.091
Mof_C 	C 	0.24411	0.80476	0.92734	-0.346
Mof_H 	H 	0.2317	0.7941	0.9476	0.14
Mof_C 	C 	0.27763	0.85518	0.89944	-0.335
Mof_H 	H 	0.2873	0.8793	0.9008	0.136
Mof_C 	C 	0.25971	0.83999	0.93061	0.217
Mof_C 	C 	0.2566	0.86106	0.96601	-0.072
Mof_C 	C 	0.2554	0.89964	0.9662	-0.035
Mof_H 	H 	0.2551	0.9127	0.9437	0.034
Mof_C 	C 	0.2194	0.9791	0.9809	0.007
Mof_C 	C 	0.1871	0.9619	0.9647	-0.058
Mof_H 	H 	0.19	0.9367	0.9588	0.051
Mof_C 	C 	0.149	0.9782	0.9555	-0.039
Mof_H 	H 	0.1279	0.9637	0.9505	0.04
Mof_C 	C 	0.2644	0.9786	0.9791	-0.075
Mof_H 	H 	0.2774	0.9669	0.9597	0.048
Mof_O 	O 	0.71284	0.79318	0.19802	-1.291
Mof_O 	O 	0.74834	0.74784	0.17327	-1.246
Mof_C 	C 	0.73154	0.77905	0.17181	0.996
Mof_C 	C 	0.73499	0.79995	0.13607	-0.484
Mof_C 	C 	0.71861	0.83501	0.13341	0.321
Mof_H 	H 	0.7053	0.8449	0.1535	-0.091
Mof_C 	C 	0.75295	0.78537	0.10616	0.34
Mof_H 	H 	0.7636	0.7617	0.1081	-0.091
Mof_C 	C 	0.75589	0.80476	0.07266	-0.346
Mof_H 	H 	0.7683	0.7941	0.0524	0.14
Mof_C 	C 	0.72237	0.85518	0.10056	-0.335
Mof_H 	H 	0.7127	0.8793	0.0992	0.136
Mof_C 	C 	0.74029	0.83999	0.06939	0.217
Mof_C 	C 	0.7434	0.86106	0.03399	-0.072
Mof_C 	C 	0.7446	0.89964	0.0338	-0.036
Mof_H 	H 	0.7449	0.9127	0.0563	0.034
Mof_C 	C 	0.7806	0.9791	0.0191	0.007
Mof_C 	C 	0.8129	0.9619	0.0353	-0.058
Mof_H 	H 	0.81	0.9367	0.0412	0.051
Mof_C 	C 	0.851	0.9782	0.0445	-0.039
Mof_H 	H 	0.8721	0.9637	0.0495	0.04
Mof_C 	C 	0.7356	0.9786	0.0209	-0.075
Mof_H 	H 	0.7226	0.9669	0.0403	0.048
Mof_O 	O 	0.78716	0.69802	0.29318	-1.291
Mof_O 	O 	0.75166	0.67327	0.24784	-1.246
Mof_C 	C 	0.76846	0.67181	0.27905	0.996
Mof_C 	C 	0.76501	0.63607	0.29995	-0.483
Mof_C 	C 	0.78139	0.63341	0.33501	0.32
Mof_H 	H 	0.7947	0.6535	0.3449	-0.091
Mof_C 	C 	0.74705	0.60616	0.28537	0.338
Mof_H 	H 	0.7364	0.6081	0.2617	-0.09
Mof_C 	C 	0.74411	0.57266	0.30476	-0.344
Mof_H 	H 	0.7317	0.5524	0.2941	0.14
Mof_C 	C 	0.77763	0.60056	0.35518	-0.334
Mof_H 	H 	0.7873	0.5992	0.3793	0.135
Mof_C 	C 	0.75971	0.56939	0.33999	0.214
Mof_C 	C 	0.7566	0.53399	0.36106	-0.068
Mof_C 	C 	0.7554	0.5338	0.39964	-0.043
Mof_H 	H 	0.7551	0.5563	0.4127	0.037
Mof_C 	C 	0.7194	0.5191	0.4791	0.01
Mof_C 	C 	0.6871	0.5353	0.4619	-0.059
Mof_H 	H 	0.69	0.5412	0.4367	0.052
Mof_C 	C 	0.649	0.5445	0.4782	-0.039
Mof_H 	H 	0.6279	0.5495	0.4637	0.04
Mof_C 	C 	0.7644	0.5209	0.4786	-0.059
Mof_H 	H 	0.7774	0.5403	0.4669	0.042
Mof_O 	O 	0.21284	0.30198	0.29318	-1.291
Mof_O 	O 	0.24834	0.32673	0.24784	-1.246
Mof_C 	C 	0.23154	0.32819	0.27905	0.996
Mof_C 	C 	0.23499	0.36393	0.29995	-0.483
Mof_C 	C 	0.21861	0.36659	0.33501	0.32
Mof_H 	H 	0.2053	0.3465	0.3449	-0.091
Mof_C 	C 	0.25295	0.39384	0.28537	0.338
Mof_H 	H 	0.2636	0.3919	0.2617	-0.09
Mof_C 	C 	0.25589	0.42734	0.30476	-0.344
Mof_H 	H 	0.2683	0.4476	0.2941	0.14
Mof_C 	C 	0.22237	0.39944	0.35518	-0.334
Mof_H 	H 	0.2127	0.4008	0.3793	0.135
Mof_C 	C 	0.24029	0.43061	0.33999	0.214
Mof_C 	C 	0.2434	0.46601	0.36106	-0.068
Mof_C 	C 	0.2446	0.4662	0.39964	-0.043
Mof_H 	H 	0.2449	0.4437	0.4127	0.037
Mof_C 	C 	0.2806	0.4809	0.4791	0.01
Mof_C 	C 	0.3129	0.4647	0.4619	-0.059
Mof_H 	H 	0.31	0.4588	0.4367	0.052
Mof_C 	C 	0.351	0.4555	0.4782	-0.039
Mof_H 	H 	0.3721	0.4505	0.4637	0.04
Mof_C 	C 	0.2356	0.4791	0.4786	-0.059
Mof_H 	H 	0.2226	0.4597	0.4669	0.042
Mof_O 	O 	0.78716	0.30198	0.70682	-1.291
Mof_O 	O 	0.75166	0.32673	0.75216	-1.246
Mof_C 	C 	0.76846	0.32819	0.72095	0.996
Mof_C 	C 	0.76501	0.36393	0.70005	-0.483
Mof_C 	C 	0.78139	0.36659	0.66499	0.32
Mof_H 	H 	0.7947	0.3465	0.6551	-0.091
Mof_C 	C 	0.74705	0.39384	0.71463	0.338
Mof_H 	H 	0.7364	0.3919	0.7383	-0.09
Mof_C 	C 	0.74411	0.42734	0.69524	-0.344
Mof_H 	H 	0.7317	0.4476	0.7059	0.14
Mof_C 	C 	0.77763	0.39944	0.64482	-0.334
Mof_H 	H 	0.7873	0.4008	0.6207	0.135
Mof_C 	C 	0.75971	0.43061	0.66001	0.214
Mof_C 	C 	0.7566	0.46601	0.63894	-0.068
Mof_C 	C 	0.7554	0.4662	0.60036	-0.043
Mof_H 	H 	0.7551	0.4437	0.5873	0.037
Mof_C 	C 	0.7194	0.4809	0.5209	0.01
Mof_C 	C 	0.6871	0.4647	0.5381	-0.059
Mof_H 	H 	0.69	0.4588	0.5633	0.052
Mof_C 	C 	0.649	0.4555	0.5218	-0.039
Mof_H 	H 	0.6279	0.4505	0.5363	0.04
Mof_C 	C 	0.7644	0.4791	0.5214	-0.059
Mof_H 	H 	0.7774	0.4597	0.5331	0.042
Mof_O 	O 	0.21284	0.69802	0.70682	-1.291
Mof_O 	O 	0.24834	0.67327	0.75216	-1.246
Mof_C 	C 	0.23154	0.67181	0.72095	0.996
Mof_C 	C 	0.23499	0.63607	0.70005	-0.483
Mof_C 	C 	0.21861	0.63341	0.66499	0.32
Mof_H 	H 	0.2053	0.6535	0.6551	-0.091
Mof_C 	C 	0.25295	0.60616	0.71463	0.338
Mof_H 	H 	0.2636	0.6081	0.7383	-0.09
Mof_C 	C 	0.25589	0.57266	0.69524	-0.344
Mof_H 	H 	0.2683	0.5524	0.7059	0.14
Mof_C 	C 	0.22237	0.60056	0.64482	-0.334
Mof_H 	H 	0.2127	0.5992	0.6207	0.135
Mof_C 	C 	0.24029	0.56939	0.66001	0.214
Mof_C 	C 	0.2434	0.53399	0.63894	-0.068
Mof_C 	C 	0.2446	0.5338	0.60036	-0.043
Mof_H 	H 	0.2449	0.5563	0.5873	0.037
Mof_C 	C 	0.2806	0.5191	0.5209	0.01
Mof_C 	C 	0.3129	0.5353	0.5381	-0.059
Mof_H 	H 	0.31	0.5412	0.5633	0.052
Mof_C 	C 	0.351	0.5445	0.5218	-0.039
Mof_H 	H 	0.3721	0.5495	0.5363	0.04
Mof_C 	C 	0.2356	0.5209	0.5214	-0.059
Mof_H 	H 	0.2226	0.5403	0.5331	0.042
Mof_O 	O 	0.69802	0.70682	0.21284	-1.291
Mof_O 	O 	0.67327	0.75216	0.24834	-1.246
Mof_C 	C 	0.67181	0.72095	0.23154	0.996
Mof_C 	C 	0.63607	0.70005	0.23499	-0.483
Mof_C 	C 	0.63341	0.66499	0.21861	0.32
Mof_H 	H 	0.6535	0.6551	0.2053	-0.091
Mof_C 	C 	0.60616	0.71463	0.25295	0.338
Mof_H 	H 	0.6081	0.7383	0.2636	-0.09
Mof_C 	C 	0.57266	0.69524	0.25589	-0.344
Mof_H 	H 	0.5524	0.7059	0.2683	0.14
Mof_C 	C 	0.60056	0.64482	0.22237	-0.334
Mof_H 	H 	0.5992	0.6207	0.2127	0.135
Mof_C 	C 	0.56939	0.66001	0.24029	0.214
Mof_C 	C 	0.53399	0.63894	0.2434	-0.068
Mof_C 	C 	0.5338	0.60036	0.2446	-0.043
Mof_H 	H 	0.5563	0.5873	0.2449	0.037
Mof_C 	C 	0.5191	0.5209	0.2806	0.01
Mof_C 	C 	0.5353	0.5381	0.3129	-0.059
Mof_H 	H 	0.5412	0.5633	0.31	0.052
Mof_C 	C 	0.5445	0.5218	0.351	-0.039
Mof_H 	H 	0.5495	0.5363	0.3721	0.04
Mof_C 	C 	0.5209	0.5214	0.2356	-0.059
Mof_H 	H 	0.5403	0.5331	0.2226	0.042
Mof_O 	O 	0.30198	0.70682	0.78716	-1.291
Mof_O 	O 	0.32673	0.75216	0.75166	-1.246
Mof_C 	C 	0.32819	0.72095	0.76846	0.996
Mof_C 	C 	0.36393	0.70005	0.76501	-0.483
Mof_C 	C 	0.36659	0.66499	0.78139	0.32
Mof_H 	H 	0.3465	0.6551	0.7947	-0.091
Mof_C 	C 	0.39384	0.71463	0.74705	0.338
Mof_H 	H 	0.3919	0.7383	0.7364	-0.09
Mof_C 	C 	0.42734	0.69524	0.74411	-0.344
Mof_H 	H 	0.4476	0.7059	0.7317	0.14
Mof_C 	C 	0.39944	0.64482	0.77763	-0.334
Mof_H 	H 	0.4008	0.6207	0.7873	0.135
Mof_C 	C 	0.43061	0.66001	0.75971	0.214
Mof_C 	C 	0.46601	0.63894	0.7566	-0.068
Mof_C 	C 	0.4662	0.60036	0.7554	-0.043
Mof_H 	H 	0.4437	0.5873	0.7551	0.037
Mof_C 	C 	0.4809	0.5209	0.7194	0.01
Mof_C 	C 	0.4647	0.5381	0.6871	-0.059
Mof_H 	H 	0.4588	0.5633	0.69	0.052
Mof_C 	C 	0.4555	0.5218	0.649	-0.039
Mof_H 	H 	0.4505	0.5363	0.6279	0.04
Mof_C 	C 	0.4791	0.5214	0.7644	-0.059
Mof_H 	H 	0.4597	0.5331	0.7774	0.042
Mof_O 	O 	0.30198	0.29318	0.21284	-1.291
Mof_O 	O 	0.32673	0.24784	0.24834	-1.246
Mof_C 	C 	0.32819	0.27905	0.23154	0.996
Mof_C 	C 	0.36393	0.29995	0.23499	-0.483
Mof_C 	C 	0.36659	0.33501	0.21861	0.32
Mof_H 	H 	0.3465	0.3449	0.2053	-0.091
Mof_C 	C 	0.39384	0.28537	0.25295	0.338
Mof_H 	H 	0.3919	0.2617	0.2636	-0.09
Mof_C 	C 	0.42734	0.30476	0.25589	-0.344
Mof_H 	H 	0.4476	0.2941	0.2683	0.14
Mof_C 	C 	0.39944	0.35518	0.22237	-0.334
Mof_H 	H 	0.4008	0.3793	0.2127	0.135
Mof_C 	C 	0.43061	0.33999	0.24029	0.214
Mof_C 	C 	0.46601	0.36106	0.2434	-0.068
Mof_C 	C 	0.4662	0.39964	0.2446	-0.043
Mof_H 	H 	0.4437	0.4127	0.2449	0.037
Mof_C 	C 	0.4809	0.4791	0.2806	0.01
Mof_C 	C 	0.4647	0.4619	0.3129	-0.059
Mof_H 	H 	0.4588	0.4367	0.31	0.052
Mof_C 	C 	0.4555	0.4782	0.351	-0.039
Mof_H 	H 	0.4505	0.4637	0.3721	0.04
Mof_C 	C 	0.4791	0.4786	0.2356	-0.059
Mof_H 	H 	0.4597	0.4669	0.2226	0.042
Mof_O 	O 	0.69802	0.29318	0.78716	-1.291
Mof_O 	O 	0.67327	0.24784	0.75166	-1.246
Mof_C 	C 	0.67181	0.27905	0.76846	0.996
Mof_C 	C 	0.63607	0.29995	0.76501	-0.483
Mof_C 	C 	0.63341	0.33501	0.78139	0.32
Mof_H 	H 	0.6535	0.3449	0.7947	-0.091
Mof_C 	C 	0.60616	0.28537	0.74705	0.338
Mof_H 	H 	0.6081	0.2617	0.7364	-0.09
Mof_C 	C 	0.57266	0.30476	0.74411	-0.344
Mof_H 	H 	0.5524	0.2941	0.7317	0.14
Mof_C 	C 	0.60056	0.35518	0.77763	-0.334
Mof_H 	H 	0.5992	0.3793	0.7873	0.135
Mof_C 	C 	0.56939	0.33999	0.75971	0.214
Mof_C 	C 	0.53399	0.36106	0.7566	-0.068
Mof_C 	C 	0.5338	0.39964	0.7554	-0.043
Mof_H 	H 	0.5563	0.4127	0.7551	0.037
Mof_C 	C 	0.5191	0.4791	0.7194	0.01
Mof_C 	C 	0.5353	0.4619	0.6871	-0.059
Mof_H 	H 	0.5412	0.4367	0.69	0.052
Mof_C 	C 	0.5445	0.4782	0.649	-0.039
Mof_H 	H 	0.5495	0.4637	0.6279	0.04
Mof_C 	C 	0.5209	0.4786	0.7644	-0.059
Mof_H 	H 	0.5403	0.4669	0.7774	0.042
Mof_O 	O 	0.70682	0.78716	0.30198	-1.291
Mof_O 	O 	0.75216	0.75166	0.32673	-1.246
Mof_C 	C 	0.72095	0.76846	0.32819	0.996
Mof_C 	C 	0.70005	0.76501	0.36393	-0.483
Mof_C 	C 	0.66499	0.78139	0.36659	0.32
Mof_H 	H 	0.6551	0.7947	0.3465	-0.091
Mof_C 	C 	0.71463	0.74705	0.39384	0.338
Mof_H 	H 	0.7383	0.7364	0.3919	-0.09
Mof_C 	C 	0.69524	0.74411	0.42734	-0.344
Mof_H 	H 	0.7059	0.7317	0.4476	0.14
Mof_C 	C 	0.64482	0.77763	0.39944	-0.334
Mof_H 	H 	0.6207	0.7873	0.4008	0.135
Mof_C 	C 	0.66001	0.75971	0.43061	0.214
Mof_C 	C 	0.63894	0.7566	0.46601	-0.068
Mof_C 	C 	0.60036	0.7554	0.4662	-0.043
Mof_H 	H 	0.5873	0.7551	0.4437	0.037
Mof_C 	C 	0.5209	0.7194	0.4809	0.01
Mof_C 	C 	0.5381	0.6871	0.4647	-0.059
Mof_H 	H 	0.5633	0.69	0.4588	0.052
Mof_C 	C 	0.5218	0.649	0.4555	-0.039
Mof_H 	H 	0.5363	0.6279	0.4505	0.04
Mof_C 	C 	0.5214	0.7644	0.4791	-0.059
Mof_H 	H 	0.5331	0.7774	0.4597	0.042
Mof_O 	O 	0.70682	0.21284	0.69802	-1.291
Mof_O 	O 	0.75216	0.24834	0.67327	-1.246
Mof_C 	C 	0.72095	0.23154	0.67181	0.996
Mof_C 	C 	0.70005	0.23499	0.63607	-0.483
Mof_C 	C 	0.66499	0.21861	0.63341	0.32
Mof_H 	H 	0.6551	0.2053	0.6535	-0.091
Mof_C 	C 	0.71463	0.25295	0.60616	0.338
Mof_H 	H 	0.7383	0.2636	0.6081	-0.09
Mof_C 	C 	0.69524	0.25589	0.57266	-0.344
Mof_H 	H 	0.7059	0.2683	0.5524	0.14
Mof_C 	C 	0.64482	0.22237	0.60056	-0.334
Mof_H 	H 	0.6207	0.2127	0.5992	0.135
Mof_C 	C 	0.66001	0.24029	0.56939	0.214
Mof_C 	C 	0.63894	0.2434	0.53399	-0.068
Mof_C 	C 	0.60036	0.2446	0.5338	-0.043
Mof_H 	H 	0.5873	0.2449	0.5563	0.037
Mof_C 	C 	0.5209	0.2806	0.5191	0.01
Mof_C 	C 	0.5381	0.3129	0.5353	-0.059
Mof_H 	H 	0.5633	0.31	0.5412	0.052
Mof_C 	C 	0.5218	0.351	0.5445	-0.039
Mof_H 	H 	0.5363	0.3721	0.5495	0.04
Mof_C 	C 	0.5214	0.2356	0.5209	-0.059
Mof_H 	H 	0.5331	0.2226	0.5403	0.042
Mof_O 	O 	0.29318	0.78716	0.69802	-1.291
Mof_O 	O 	0.24784	0.75166	0.67327	-1.246
Mof_C 	C 	0.27905	0.76846	0.67181	0.996
Mof_C 	C 	0.29995	0.76501	0.63607	-0.483
Mof_C 	C 	0.33501	0.78139	0.63341	0.32
Mof_H 	H 	0.3449	0.7947	0.6535	-0.091
Mof_C 	C 	0.28537	0.74705	0.60616	0.338
Mof_H 	H 	0.2617	0.7364	0.6081	-0.09
Mof_C 	C 	0.30476	0.74411	0.57266	-0.344
Mof_H 	H 	0.2941	0.7317	0.5524	0.14
Mof_C 	C 	0.35518	0.77763	0.60056	-0.334
Mof_H 	H 	0.3793	0.7873	0.5992	0.135
Mof_C 	C 	0.33999	0.75971	0.56939	0.214
Mof_C 	C 	0.36106	0.7566	0.53399	-0.068
Mof_C 	C 	0.39964	0.7554	0.5338	-0.043
Mof_H 	H 	0.4127	0.7551	0.5563	0.037
Mof_C 	C 	0.4791	0.7194	0.5191	0.01
Mof_C 	C 	0.4619	0.6871	0.5353	-0.059
Mof_H 	H 	0.4367	0.69	0.5412	0.052
Mof_C 	C 	0.4782	0.649	0.5445	-0.039
Mof_H 	H 	0.4637	0.6279	0.5495	0.04
Mof_C 	C 	0.4786	0.7644	0.5209	-0.059
Mof_H 	H 	0.4669	0.7774	0.5403	0.042
Mof_O 	O 	0.29318	0.21284	0.30198	-1.291
Mof_O 	O 	0.24784	0.24834	0.32673	-1.246
Mof_C 	C 	0.27905	0.23154	0.32819	0.996
Mof_C 	C 	0.29995	0.23499	0.36393	-0.483
Mof_C 	C 	0.33501	0.21861	0.36659	0.32
Mof_H 	H 	0.3449	0.2053	0.3465	-0.091
Mof_C 	C 	0.28537	0.25295	0.39384	0.338
Mof_H 	H 	0.2617	0.2636	0.3919	-0.09
Mof_C 	C 	0.30476	0.25589	0.42734	-0.344
Mof_H 	H 	0.2941	0.2683	0.4476	0.14
Mof_C 	C 	0.35518	0.22237	0.39944	-0.334
Mof_H 	H 	0.3793	0.2127	0.4008	0.135
Mof_C 	C 	0.33999	0.24029	0.43061	0.214
Mof_C 	C 	0.36106	0.2434	0.46601	-0.068
Mof_C 	C 	0.39964	0.2446	0.4662	-0.043
Mof_H 	H 	0.4127	0.2449	0.4437	0.037
Mof_C 	C 	0.4791	0.2806	0.4809	0.01
Mof_C 	C 	0.4619	0.3129	0.4647	-0.059
Mof_H 	H 	0.4367	0.31	0.4588	0.052
Mof_C 	C 	0.4782	0.351	0.4555	-0.039
Mof_H 	H 	0.4637	0.3721	0.4505	0.04
Mof_C 	C 	0.4786	0.2356	0.4791	-0.059
Mof_H 	H 	0.4669	0.2226	0.4597	0.042
Mof_O 	O 	0.80198	0.71284	0.79318	-1.291
Mof_O 	O 	0.82673	0.74834	0.74784	-1.246
Mof_C 	C 	0.82819	0.73154	0.77905	0.996
Mof_C 	C 	0.86393	0.73499	0.79995	-0.484
Mof_C 	C 	0.86659	0.71861	0.83501	0.321
Mof_H 	H 	0.8465	0.7053	0.8449	-0.091
Mof_C 	C 	0.89384	0.75295	0.78537	0.34
Mof_H 	H 	0.8919	0.7636	0.7617	-0.091
Mof_C 	C 	0.92734	0.75589	0.80476	-0.346
Mof_H 	H 	0.9476	0.7683	0.7941	0.14
Mof_C 	C 	0.89944	0.72237	0.85518	-0.335
Mof_H 	H 	0.9008	0.7127	0.8793	0.136
Mof_C 	C 	0.93061	0.74029	0.83999	0.217
Mof_C 	C 	0.96601	0.7434	0.86106	-0.072
Mof_C 	C 	0.9662	0.7446	0.89964	-0.035
Mof_H 	H 	0.9437	0.7449	0.9127	0.034
Mof_C 	C 	0.9809	0.7806	0.9791	0.007
Mof_C 	C 	0.9647	0.8129	0.9619	-0.058
Mof_H 	H 	0.9588	0.81	0.9367	0.051
Mof_C 	C 	0.9555	0.851	0.9782	-0.039
Mof_H 	H 	0.9505	0.8721	0.9637	0.04
Mof_C 	C 	0.9791	0.7356	0.9786	-0.075
Mof_H 	H 	0.9597	0.7226	0.9669	0.048
Mof_O 	O 	0.19802	0.28716	0.79318	-1.291
Mof_O 	O 	0.17327	0.25166	0.74784	-1.246
Mof_C 	C 	0.17181	0.26846	0.77905	0.996
Mof_C 	C 	0.13607	0.26501	0.79995	-0.484
Mof_C 	C 	0.13341	0.28139	0.83501	0.321
Mof_H 	H 	0.1535	0.2947	0.8449	-0.091
Mof_C 	C 	0.10616	0.24705	0.78537	0.34
Mof_H 	H 	0.1081	0.2364	0.7617	-0.091
Mof_C 	C 	0.07266	0.24411	0.80476	-0.346
Mof_H 	H 	0.0524	0.2317	0.7941	0.14
Mof_C 	C 	0.10056	0.27763	0.85518	-0.335
Mof_H 	H 	0.0992	0.2873	0.8793	0.136
Mof_C 	C 	0.06939	0.25971	0.83999	0.217
Mof_C 	C 	0.03399	0.2566	0.86106	-0.072
Mof_C 	C 	0.0338	0.2554	0.89964	-0.036
Mof_H 	H 	0.0563	0.2551	0.9127	0.034
Mof_C 	C 	0.0191	0.2194	0.9791	0.007
Mof_C 	C 	0.0353	0.1871	0.9619	-0.058
Mof_H 	H 	0.0412	0.19	0.9367	0.051
Mof_C 	C 	0.0445	0.149	0.9782	-0.039
Mof_H 	H 	0.0495	0.1279	0.9637	0.04
Mof_C 	C 	0.0209	0.2644	0.9786	-0.075
Mof_H 	H 	0.0403	0.2774	0.9669	0.048
Mof_O 	O 	0.19802	0.71284	0.20682	-1.291
Mof_O 	O 	0.17327	0.74834	0.25216	-1.245
Mof_C 	C 	0.17181	0.73154	0.22095	0.996
Mof_C 	C 	0.13607	0.73499	0.20005	-0.482
Mof_C 	C 	0.13341	0.71861	0.16499	0.319
Mof_H 	H 	0.1535	0.7053	0.1551	-0.091
Mof_C 	C 	0.10616	0.75295	0.21463	0.337
Mof_H 	H 	0.1081	0.7636	0.2383	-0.09
Mof_C 	C 	0.07266	0.75589	0.19524	-0.342
Mof_H 	H 	0.0524	0.7683	0.2059	0.139
Mof_C 	C 	0.10056	0.72237	0.14482	-0.332
Mof_H 	H 	0.0992	0.7127	0.1207	0.134
Mof_C 	C 	0.06939	0.74029	0.16001	0.212
Mof_C 	C 	0.03399	0.7434	0.13894	-0.063
Mof_C 	C 	0.0338	0.7446	0.10036	-0.051
Mof_H 	H 	0.0563	0.7449	0.0873	0.04
Mof_C 	C 	0.0191	0.7806	0.0209	0.014
Mof_C 	C 	0.0353	0.8129	0.0381	-0.061
Mof_H 	H 	0.0412	0.81	0.0633	0.053
Mof_C 	C 	0.0445	0.851	0.0218	-0.038
Mof_H 	H 	0.0495	0.8721	0.0363	0.04
Mof_C 	C 	0.0209	0.7356	0.0214	-0.042
Mof_H 	H 	0.0403	0.7226	0.0331	0.037
Mof_O 	O 	0.80198	0.28716	0.20682	-1.291
Mof_O 	O 	0.82673	0.25166	0.25216	-1.245
Mof_C 	C 	0.82819	0.26846	0.22095	0.996
Mof_C 	C 	0.86393	0.26501	0.20005	-0.482
Mof_C 	C 	0.86659	0.28139	0.16499	0.319
Mof_H 	H 	0.8465	0.2947	0.1551	-0.091
Mof_C 	C 	0.89384	0.24705	0.21463	0.337
Mof_H 	H 	0.8919	0.2364	0.2383	-0.09
Mof_C 	C 	0.92734	0.24411	0.19524	-0.342
Mof_H 	H 	0.9476	0.2317	0.2059	0.139
Mof_C 	C 	0.89944	0.27763	0.14482	-0.332
Mof_H 	H 	0.9008	0.2873	0.1207	0.135
Mof_C 	C 	0.93061	0.25971	0.16001	0.212
Mof_C 	C 	0.96601	0.2566	0.13894	-0.063
Mof_C 	C 	0.9662	0.2554	0.10036	-0.05
Mof_H 	H 	0.9437	0.2551	0.0873	0.039
Mof_C 	C 	0.9809	0.2194	0.0209	0.014
Mof_C 	C 	0.9647	0.1871	0.0381	-0.061
Mof_H 	H 	0.9588	0.19	0.0633	0.053
Mof_C 	C 	0.9555	0.149	0.0218	-0.038
Mof_H 	H 	0.9505	0.1279	0.0363	0.04
Mof_C 	C 	0.9791	0.2644	0.0214	-0.042
Mof_H 	H 	0.9597	0.2774	0.0331	0.037
Mof_O 	O 	0.79318	0.80198	0.71284	-1.291
Mof_O 	O 	0.74784	0.82673	0.74834	-1.246
Mof_C 	C 	0.77905	0.82819	0.73154	0.996
Mof_C 	C 	0.79995	0.86393	0.73499	-0.484
Mof_C 	C 	0.83501	0.86659	0.71861	0.321
Mof_H 	H 	0.8449	0.8465	0.7053	-0.091
Mof_C 	C 	0.78537	0.89384	0.75295	0.34
Mof_H 	H 	0.7617	0.8919	0.7636	-0.091
Mof_C 	C 	0.80476	0.92734	0.75589	-0.346
Mof_H 	H 	0.7941	0.9476	0.7683	0.14
Mof_C 	C 	0.85518	0.89944	0.72237	-0.335
Mof_H 	H 	0.8793	0.9008	0.7127	0.136
Mof_C 	C 	0.83999	0.93061	0.74029	0.217
Mof_C 	C 	0.86106	0.96601	0.7434	-0.072
Mof_C 	C 	0.89964	0.9662	0.7446	-0.035
Mof_H 	H 	0.9127	0.9437	0.7449	0.034
Mof_C 	C 	0.9791	0.9809	0.7806	0.007
Mof_C 	C 	0.9619	0.9647	0.8129	-0.058
Mof_H 	H 	0.9367	0.9588	0.81	0.051
Mof_C 	C 	0.9782	0.9555	0.851	-0.039
Mof_H 	H 	0.9637	0.9505	0.8721	0.04
Mof_C 	C 	0.9786	0.9791	0.7356	-0.075
Mof_H 	H 	0.9669	0.9597	0.7226	0.048
Mof_O 	O 	0.79318	0.19802	0.28716	-1.291
Mof_O 	O 	0.74784	0.17327	0.25166	-1.246
Mof_C 	C 	0.77905	0.17181	0.26846	0.996
Mof_C 	C 	0.79995	0.13607	0.26501	-0.484
Mof_C 	C 	0.83501	0.13341	0.28139	0.321
Mof_H 	H 	0.8449	0.1535	0.2947	-0.091
Mof_C 	C 	0.78537	0.10616	0.24705	0.34
Mof_H 	H 	0.7617	0.1081	0.2364	-0.091
Mof_C 	C 	0.80476	0.07266	0.24411	-0.346
Mof_H 	H 	0.7941	0.0524	0.2317	0.14
Mof_C 	C 	0.85518	0.10056	0.27763	-0.335
Mof_H 	H 	0.8793	0.0992	0.2873	0.136
Mof_C 	C 	0.83999	0.06939	0.25971	0.217
Mof_C 	C 	0.86106	0.03399	0.2566	-0.072
Mof_C 	C 	0.89964	0.0338	0.2554	-0.036
Mof_H 	H 	0.9127	0.0563	0.2551	0.034
Mof_C 	C 	0.9791	0.0191	0.2194	0.007
Mof_C 	C 	0.9619	0.0353	0.1871	-0.058
Mof_H 	H 	0.9367	0.0412	0.19	0.051
Mof_C 	C 	0.9782	0.0445	0.149	-0.039
Mof_H 	H 	0.9637	0.0495	0.1279	0.04
Mof_C 	C 	0.9786	0.0209	0.2644	-0.075
Mof_H 	H 	0.9669	0.0403	0.2774	0.048
Mof_O 	O 	0.20682	0.19802	0.71284	-1.291
Mof_O 	O 	0.25216	0.17327	0.74834	-1.245
Mof_C 	C 	0.22095	0.17181	0.73154	0.996
Mof_C 	C 	0.20005	0.13607	0.73499	-0.482
Mof_C 	C 	0.16499	0.13341	0.71861	0.319
Mof_H 	H 	0.1551	0.1535	0.7053	-0.091
Mof_C 	C 	0.21463	0.10616	0.75295	0.337
Mof_H 	H 	0.2383	0.1081	0.7636	-0.09
Mof_C 	C 	0.19524	0.07266	0.75589	-0.342
Mof_H 	H 	0.2059	0.0524	0.7683	0.139
Mof_C 	C 	0.14482	0.10056	0.72237	-0.332
Mof_H 	H 	0.1207	0.0992	0.7127	0.134
Mof_C 	C 	0.16001	0.06939	0.74029	0.212
Mof_C 	C 	0.13894	0.03399	0.7434	-0.063
Mof_C 	C 	0.10036	0.0338	0.7446	-0.051
Mof_H 	H 	0.0873	0.0563	0.7449	0.04
Mof_C 	C 	0.0209	0.0191	0.7806	0.014
Mof_C 	C 	0.0381	0.0353	0.8129	-0.061
Mof_H 	H 	0.0633	0.0412	0.81	0.053
Mof_C 	C 	0.0218	0.0445	0.851	-0.038
Mof_H 	H 	0.0363	0.0495	0.8721	0.04
Mof_C 	C 	0.0214	0.0209	0.7356	-0.042
Mof_H 	H 	0.0331	0.0403	0.7226	0.037
Mof_O 	O 	0.20682	0.80198	0.28716	-1.291
Mof_O 	O 	0.25216	0.82673	0.25166	-1.245
Mof_C 	C 	0.22095	0.82819	0.26846	0.996
Mof_C 	C 	0.20005	0.86393	0.26501	-0.482
Mof_C 	C 	0.16499	0.86659	0.28139	0.319
Mof_H 	H 	0.1551	0.8465	0.2947	-0.091
Mof_C 	C 	0.21463	0.89384	0.24705	0.337
Mof_H 	H 	0.2383	0.8919	0.2364	-0.09
Mof_C 	C 	0.19524	0.92734	0.24411	-0.342
Mof_H 	H 	0.2059	0.9476	0.2317	0.139
Mof_C 	C 	0.14482	0.89944	0.27763	-0.332
Mof_H 	H 	0.1207	0.9008	0.2873	0.135
Mof_C 	C 	0.16001	0.93061	0.25971	0.212
Mof_C 	C 	0.13894	0.96601	0.2566	-0.063
Mof_C 	C 	0.10036	0.9662	0.2554	-0.05
Mof_H 	H 	0.0873	0.9437	0.2551	0.039
Mof_C 	C 	0.0209	0.9809	0.2194	0.014
Mof_C 	C 	0.0381	0.9647	0.1871	-0.061
Mof_H 	H 	0.0633	0.9588	0.19	0.053
Mof_C 	C 	0.0218	0.9555	0.149	-0.038
Mof_H 	H 	0.0363	0.9505	0.1279	0.04
Mof_C 	C 	0.0214	0.9791	0.2644	-0.042
Mof_H 	H 	0.0331	0.9597	0.2774	0.037
Mof_O 	O 	0.71284	0.79318	0.80198	-1.291
Mof_O 	O 	0.74834	0.74784	0.82673	-1.246
Mof_C 	C 	0.73154	0.77905	0.82819	0.996
Mof_C 	C 	0.73499	0.79995	0.86393	-0.484
Mof_C 	C 	0.71861	0.83501	0.86659	0.321
Mof_H 	H 	0.7053	0.8449	0.8465	-0.091
Mof_C 	C 	0.75295	0.78537	0.89384	0.34
Mof_H 	H 	0.7636	0.7617	0.8919	-0.091
Mof_C 	C 	0.75589	0.80476	0.92734	-0.346
Mof_H 	H 	0.7683	0.7941	0.9476	0.14
Mof_C 	C 	0.72237	0.85518	0.89944	-0.335
Mof_H 	H 	0.7127	0.8793	0.9008	0.136
Mof_C 	C 	0.74029	0.83999	0.93061	0.217
Mof_C 	C 	0.7434	0.86106	0.96601	-0.072
Mof_C 	C 	0.7446	0.89964	0.9662	-0.035
Mof_H 	H 	0.7449	0.9127	0.9437	0.034
Mof_C 	C 	0.7806	0.9791	0.9809	0.007
Mof_C 	C 	0.8129	0.9619	0.9647	-0.058
Mof_H 	H 	0.81	0.9367	0.9588	0.051
Mof_C 	C 	0.851	0.9782	0.9555	-0.039
Mof_H 	H 	0.8721	0.9637	0.9505	0.04
Mof_C 	C 	0.7356	0.9786	0.9791	-0.075
Mof_H 	H 	0.7226	0.9669	0.9597	0.048
Mof_O 	O 	0.28716	0.79318	0.19802	-1.291
Mof_O 	O 	0.25166	0.74784	0.17327	-1.246
Mof_C 	C 	0.26846	0.77905	0.17181	0.996
Mof_C 	C 	0.26501	0.79995	0.13607	-0.484
Mof_C 	C 	0.28139	0.83501	0.13341	0.321
Mof_H 	H 	0.2947	0.8449	0.1535	-0.091
Mof_C 	C 	0.24705	0.78537	0.10616	0.34
Mof_H 	H 	0.2364	0.7617	0.1081	-0.091
Mof_C 	C 	0.24411	0.80476	0.07266	-0.346
Mof_H 	H 	0.2317	0.7941	0.0524	0.14
Mof_C 	C 	0.27763	0.85518	0.10056	-0.335
Mof_H 	H 	0.2873	0.8793	0.0992	0.136
Mof_C 	C 	0.25971	0.83999	0.06939	0.217
Mof_C 	C 	0.2566	0.86106	0.03399	-0.072
Mof_C 	C 	0.2554	0.89964	0.0338	-0.036
Mof_H 	H 	0.2551	0.9127	0.0563	0.034
Mof_C 	C 	0.2194	0.9791	0.0191	0.007
Mof_C 	C 	0.1871	0.9619	0.0353	-0.058
Mof_H 	H 	0.19	0.9367	0.0412	0.051
Mof_C 	C 	0.149	0.9782	0.0445	-0.039
Mof_H 	H 	0.1279	0.9637	0.0495	0.04
Mof_C 	C 	0.2644	0.9786	0.0209	-0.075
Mof_H 	H 	0.2774	0.9669	0.0403	0.048
Mof_O 	O 	0.71284	0.20682	0.19802	-1.291
Mof_O 	O 	0.74834	0.25216	0.17327	-1.245
Mof_C 	C 	0.73154	0.22095	0.17181	0.996
Mof_C 	C 	0.73499	0.20005	0.13607	-0.482
Mof_C 	C 	0.71861	0.16499	0.13341	0.319
Mof_H 	H 	0.7053	0.1551	0.1535	-0.091
Mof_C 	C 	0.75295	0.21463	0.10616	0.337
Mof_H 	H 	0.7636	0.2383	0.1081	-0.09
Mof_C 	C 	0.75589	0.19524	0.07266	-0.342
Mof_H 	H 	0.7683	0.2059	0.0524	0.139
Mof_C 	C 	0.72237	0.14482	0.10056	-0.332
Mof_H 	H 	0.7127	0.1207	0.0992	0.134
Mof_C 	C 	0.74029	0.16001	0.06939	0.212
Mof_C 	C 	0.7434	0.13894	0.03399	-0.063
Mof_C 	C 	0.7446	0.10036	0.0338	-0.051
Mof_H 	H 	0.7449	0.0873	0.0563	0.04
Mof_C 	C 	0.7806	0.0209	0.0191	0.014
Mof_C 	C 	0.8129	0.0381	0.0353	-0.061
Mof_H 	H 	0.81	0.0633	0.0412	0.053
Mof_C 	C 	0.851	0.0218	0.0445	-0.038
Mof_H 	H 	0.8721	0.0363	0.0495	0.04
Mof_C 	C 	0.7356	0.0214	0.0209	-0.042
Mof_H 	H 	0.7226	0.0331	0.0403	0.037
Mof_O 	O 	0.28716	0.20682	0.80198	-1.291
Mof_O 	O 	0.25166	0.25216	0.82673	-1.245
Mof_C 	C 	0.26846	0.22095	0.82819	0.996
Mof_C 	C 	0.26501	0.20005	0.86393	-0.482
Mof_C 	C 	0.28139	0.16499	0.86659	0.319
Mof_H 	H 	0.2947	0.1551	0.8465	-0.091
Mof_C 	C 	0.24705	0.21463	0.89384	0.337
Mof_H 	H 	0.2364	0.2383	0.8919	-0.09
Mof_C 	C 	0.24411	0.19524	0.92734	-0.342
Mof_H 	H 	0.2317	0.2059	0.9476	0.139
Mof_C 	C 	0.27763	0.14482	0.89944	-0.332
Mof_H 	H 	0.2873	0.1207	0.9008	0.135
Mof_C 	C 	0.25971	0.16001	0.93061	0.212
Mof_C 	C 	0.2566	0.13894	0.96601	-0.063
Mof_C 	C 	0.2554	0.10036	0.9662	-0.05
Mof_H 	H 	0.2551	0.0873	0.9437	0.039
Mof_C 	C 	0.2194	0.0209	0.9809	0.014
Mof_C 	C 	0.1871	0.0381	0.9647	-0.061
Mof_H 	H 	0.19	0.0633	0.9588	0.053
Mof_C 	C 	0.149	0.0218	0.9555	-0.038
Mof_H 	H 	0.1279	0.0363	0.9505	0.04
Mof_C 	C 	0.2644	0.0214	0.9791	-0.042
Mof_H 	H 	0.2774	0.0331	0.9597	0.037
Mof_O 	O 	0.21284	0.30198	0.70682	-1.291
Mof_O 	O 	0.24834	0.32673	0.75216	-1.246
Mof_C 	C 	0.23154	0.32819	0.72095	0.996
Mof_C 	C 	0.23499	0.36393	0.70005	-0.483
Mof_C 	C 	0.21861	0.36659	0.66499	0.32
Mof_H 	H 	0.2053	0.3465	0.6551	-0.091
Mof_C 	C 	0.25295	0.39384	0.71463	0.338
Mof_H 	H 	0.2636	0.3919	0.7383	-0.09
Mof_C 	C 	0.25589	0.42734	0.69524	-0.344
Mof_H 	H 	0.2683	0.4476	0.7059	0.14
Mof_C 	C 	0.22237	0.39944	0.64482	-0.334
Mof_H 	H 	0.2127	0.4008	0.6207	0.135
Mof_C 	C 	0.24029	0.43061	0.66001	0.214
Mof_C 	C 	0.2434	0.46601	0.63894	-0.068
Mof_C 	C 	0.2446	0.4662	0.60036	-0.043
Mof_H 	H 	0.2449	0.4437	0.5873	0.037
Mof_C 	C 	0.2806	0.4809	0.5209	0.01
Mof_C 	C 	0.3129	0.4647	0.5381	-0.059
Mof_H 	H 	0.31	0.4588	0.5633	0.052
Mof_C 	C 	0.351	0.4555	0.5218	-0.039
Mof_H 	H 	0.3721	0.4505	0.5363	0.04
Mof_C 	C 	0.2356	0.4791	0.5214	-0.059
Mof_H 	H 	0.2226	0.4597	0.5331	0.042
Mof_O 	O 	0.78716	0.69802	0.70682	-1.291
Mof_O 	O 	0.75166	0.67327	0.75216	-1.246
Mof_C 	C 	0.76846	0.67181	0.72095	0.996
Mof_C 	C 	0.76501	0.63607	0.70005	-0.483
Mof_C 	C 	0.78139	0.63341	0.66499	0.32
Mof_H 	H 	0.7947	0.6535	0.6551	-0.091
Mof_C 	C 	0.74705	0.60616	0.71463	0.338
Mof_H 	H 	0.7364	0.6081	0.7383	-0.09
Mof_C 	C 	0.74411	0.57266	0.69524	-0.344
Mof_H 	H 	0.7317	0.5524	0.7059	0.14
Mof_C 	C 	0.77763	0.60056	0.64482	-0.334
Mof_H 	H 	0.7873	0.5992	0.6207	0.135
Mof_C 	C 	0.75971	0.56939	0.66001	0.214
Mof_C 	C 	0.7566	0.53399	0.63894	-0.068
Mof_C 	C 	0.7554	0.5338	0.60036	-0.043
Mof_H 	H 	0.7551	0.5563	0.5873	0.037
Mof_C 	C 	0.7194	0.5191	0.5209	0.01
Mof_C 	C 	0.6871	0.5353	0.5381	-0.059
Mof_H 	H 	0.69	0.5412	0.5633	0.052
Mof_C 	C 	0.649	0.5445	0.5218	-0.039
Mof_H 	H 	0.6279	0.5495	0.5363	0.04
Mof_C 	C 	0.7644	0.5209	0.5214	-0.059
Mof_H 	H 	0.7774	0.5403	0.5331	0.042
Mof_O 	O 	0.21284	0.69802	0.29318	-1.291
Mof_O 	O 	0.24834	0.67327	0.24784	-1.246
Mof_C 	C 	0.23154	0.67181	0.27905	0.996
Mof_C 	C 	0.23499	0.63607	0.29995	-0.483
Mof_C 	C 	0.21861	0.63341	0.33501	0.32
Mof_H 	H 	0.2053	0.6535	0.3449	-0.091
Mof_C 	C 	0.25295	0.60616	0.28537	0.338
Mof_H 	H 	0.2636	0.6081	0.2617	-0.09
Mof_C 	C 	0.25589	0.57266	0.30476	-0.344
Mof_H 	H 	0.2683	0.5524	0.2941	0.14
Mof_C 	C 	0.22237	0.60056	0.35518	-0.334
Mof_H 	H 	0.2127	0.5992	0.3793	0.135
Mof_C 	C 	0.24029	0.56939	0.33999	0.214
Mof_C 	C 	0.2434	0.53399	0.36106	-0.068
Mof_C 	C 	0.2446	0.5338	0.39964	-0.043
Mof_H 	H 	0.2449	0.5563	0.4127	0.037
Mof_C 	C 	0.2806	0.5191	0.4791	0.01
Mof_C 	C 	0.3129	0.5353	0.4619	-0.059
Mof_H 	H 	0.31	0.5412	0.4367	0.052
Mof_C 	C 	0.351	0.5445	0.4782	-0.039
Mof_H 	H 	0.3721	0.5495	0.4637	0.04
Mof_C 	C 	0.2356	0.5209	0.4786	-0.059
Mof_H 	H 	0.2226	0.5403	0.4669	0.042
Mof_O 	O 	0.78716	0.30198	0.29318	-1.291
Mof_O 	O 	0.75166	0.32673	0.24784	-1.246
Mof_C 	C 	0.76846	0.32819	0.27905	0.996
Mof_C 	C 	0.76501	0.36393	0.29995	-0.483
Mof_C 	C 	0.78139	0.36659	0.33501	0.32
Mof_H 	H 	0.7947	0.3465	0.3449	-0.091
Mof_C 	C 	0.74705	0.39384	0.28537	0.338
Mof_H 	H 	0.7364	0.3919	0.2617	-0.09
Mof_C 	C 	0.74411	0.42734	0.30476	-0.344
Mof_H 	H 	0.7317	0.4476	0.2941	0.14
Mof_C 	C 	0.77763	0.39944	0.35518	-0.334
Mof_H 	H 	0.7873	0.4008	0.3793	0.135
Mof_C 	C 	0.75971	0.43061	0.33999	0.214
Mof_C 	C 	0.7566	0.46601	0.36106	-0.068
Mof_C 	C 	0.7554	0.4662	0.39964	-0.043
Mof_H 	H 	0.7551	0.4437	0.4127	0.037
Mof_C 	C 	0.7194	0.4809	0.4791	0.01
Mof_C 	C 	0.6871	0.4647	0.4619	-0.059
Mof_H 	H 	0.69	0.4588	0.4367	0.052
Mof_C 	C 	0.649	0.4555	0.4782	-0.039
Mof_H 	H 	0.6279	0.4505	0.4637	0.04
Mof_C 	C 	0.7644	0.4791	0.4786	-0.059
Mof_H 	H 	0.7774	0.4597	0.4669	0.042
Mof_O 	O 	0.30198	0.29318	0.78716	-1.291
Mof_O 	O 	0.32673	0.24784	0.75166	-1.246
Mof_C 	C 	0.32819	0.27905	0.76846	0.996
Mof_C 	C 	0.36393	0.29995	0.76501	-0.483
Mof_C 	C 	0.36659	0.33501	0.78139	0.32
Mof_H 	H 	0.3465	0.3449	0.7947	-0.091
Mof_C 	C 	0.39384	0.28537	0.74705	0.338
Mof_H 	H 	0.3919	0.2617	0.7364	-0.09
Mof_C 	C 	0.42734	0.30476	0.74411	-0.344
Mof_H 	H 	0.4476	0.2941	0.7317	0.14
Mof_C 	C 	0.39944	0.35518	0.77763	-0.334
Mof_H 	H 	0.4008	0.3793	0.7873	0.135
Mof_C 	C 	0.43061	0.33999	0.75971	0.214
Mof_C 	C 	0.46601	0.36106	0.7566	-0.068
Mof_C 	C 	0.4662	0.39964	0.7554	-0.043
Mof_H 	H 	0.4437	0.4127	0.7551	0.037
Mof_C 	C 	0.4809	0.4791	0.7194	0.01
Mof_C 	C 	0.4647	0.4619	0.6871	-0.059
Mof_H 	H 	0.4588	0.4367	0.69	0.052
Mof_C 	C 	0.4555	0.4782	0.649	-0.039
Mof_H 	H 	0.4505	0.4637	0.6279	0.04
Mof_C 	C 	0.4791	0.4786	0.7644	-0.059
Mof_H 	H 	0.4597	0.4669	0.7774	0.042
Mof_O 	O 	0.69802	0.29318	0.21284	-1.291
Mof_O 	O 	0.67327	0.24784	0.24834	-1.246
Mof_C 	C 	0.67181	0.27905	0.23154	0.996
Mof_C 	C 	0.63607	0.29995	0.23499	-0.483
Mof_C 	C 	0.63341	0.33501	0.21861	0.32
Mof_H 	H 	0.6535	0.3449	0.2053	-0.091
Mof_C 	C 	0.60616	0.28537	0.25295	0.338
Mof_H 	H 	0.6081	0.2617	0.2636	-0.09
Mof_C 	C 	0.57266	0.30476	0.25589	-0.344
Mof_H 	H 	0.5524	0.2941	0.2683	0.14
Mof_C 	C 	0.60056	0.35518	0.22237	-0.334
Mof_H 	H 	0.5992	0.3793	0.2127	0.135
Mof_C 	C 	0.56939	0.33999	0.24029	0.214
Mof_C 	C 	0.53399	0.36106	0.2434	-0.068
Mof_C 	C 	0.5338	0.39964	0.2446	-0.043
Mof_H 	H 	0.5563	0.4127	0.2449	0.037
Mof_C 	C 	0.5191	0.4791	0.2806	0.01
Mof_C 	C 	0.5353	0.4619	0.3129	-0.059
Mof_H 	H 	0.5412	0.4367	0.31	0.052
Mof_C 	C 	0.5445	0.4782	0.351	-0.039
Mof_H 	H 	0.5495	0.4637	0.3721	0.04
Mof_C 	C 	0.5209	0.4786	0.2356	-0.059
Mof_H 	H 	0.5403	0.4669	0.2226	0.042
Mof_O 	O 	0.69802	0.70682	0.78716	-1.291
Mof_O 	O 	0.67327	0.75216	0.75166	-1.246
Mof_C 	C 	0.67181	0.72095	0.76846	0.996
Mof_C 	C 	0.63607	0.70005	0.76501	-0.483
Mof_C 	C 	0.63341	0.66499	0.78139	0.32
Mof_H 	H 	0.6535	0.6551	0.7947	-0.091
Mof_C 	C 	0.60616	0.71463	0.74705	0.338
Mof_H 	H 	0.6081	0.7383	0.7364	-0.09
Mof_C 	C 	0.57266	0.69524	0.74411	-0.344
Mof_H 	H 	0.5524	0.7059	0.7317	0.14
Mof_C 	C 	0.60056	0.64482	0.77763	-0.334
Mof_H 	H 	0.5992	0.6207	0.7873	0.135
Mof_C 	C 	0.56939	0.66001	0.75971	0.214
Mof_C 	C 	0.53399	0.63894	0.7566	-0.068
Mof_C 	C 	0.5338	0.60036	0.7554	-0.043
Mof_H 	H 	0.5563	0.5873	0.7551	0.037
Mof_C 	C 	0.5191	0.5209	0.7194	0.01
Mof_C 	C 	0.5353	0.5381	0.6871	-0.059
Mof_H 	H 	0.5412	0.5633	0.69	0.052
Mof_C 	C 	0.5445	0.5218	0.649	-0.039
Mof_H 	H 	0.5495	0.5363	0.6279	0.04
Mof_C 	C 	0.5209	0.5214	0.7644	-0.059
Mof_H 	H 	0.5403	0.5331	0.7774	0.042
Mof_O 	O 	0.30198	0.70682	0.21284	-1.291
Mof_O 	O 	0.32673	0.75216	0.24834	-1.246
Mof_C 	C 	0.32819	0.72095	0.23154	0.996
Mof_C 	C 	0.36393	0.70005	0.23499	-0.483
Mof_C 	C 	0.36659	0.66499	0.21861	0.32
Mof_H 	H 	0.3465	0.6551	0.2053	-0.091
Mof_C 	C 	0.39384	0.71463	0.25295	0.338
Mof_H 	H 	0.3919	0.7383	0.2636	-0.09
Mof_C 	C 	0.42734	0.69524	0.25589	-0.344
Mof_H 	H 	0.4476	0.7059	0.2683	0.14
Mof_C 	C 	0.39944	0.64482	0.22237	-0.334
Mof_H 	H 	0.4008	0.6207	0.2127	0.135
Mof_C 	C 	0.43061	0.66001	0.24029	0.214
Mof_C 	C 	0.46601	0.63894	0.2434	-0.068
Mof_C 	C 	0.4662	0.60036	0.2446	-0.043
Mof_H 	H 	0.4437	0.5873	0.2449	0.037
Mof_C 	C 	0.4809	0.5209	0.2806	0.01
Mof_C 	C 	0.4647	0.5381	0.3129	-0.059
Mof_H 	H 	0.4588	0.5633	0.31	0.052
Mof_C 	C 	0.4555	0.5218	0.351	-0.039
Mof_H 	H 	0.4505	0.5363	0.3721	0.04
Mof_C 	C 	0.4791	0.5214	0.2356	-0.059
Mof_H 	H 	0.4597	0.5331	0.2226	0.042
Mof_O 	O 	0.29318	0.21284	0.69802	-1.291
Mof_O 	O 	0.24784	0.24834	0.67327	-1.246
Mof_C 	C 	0.27905	0.23154	0.67181	0.996
Mof_C 	C 	0.29995	0.23499	0.63607	-0.483
Mof_C 	C 	0.33501	0.21861	0.63341	0.32
Mof_H 	H 	0.3449	0.2053	0.6535	-0.091
Mof_C 	C 	0.28537	0.25295	0.60616	0.338
Mof_H 	H 	0.2617	0.2636	0.6081	-0.09
Mof_C 	C 	0.30476	0.25589	0.57266	-0.344
Mof_H 	H 	0.2941	0.2683	0.5524	0.14
Mof_C 	C 	0.35518	0.22237	0.60056	-0.334
Mof_H 	H 	0.3793	0.2127	0.5992	0.135
Mof_C 	C 	0.33999	0.24029	0.56939	0.214
Mof_C 	C 	0.36106	0.2434	0.53399	-0.068
Mof_C 	C 	0.39964	0.2446	0.5338	-0.043
Mof_H 	H 	0.4127	0.2449	0.5563	0.037
Mof_C 	C 	0.4791	0.2806	0.5191	0.01
Mof_C 	C 	0.4619	0.3129	0.5353	-0.059
Mof_H 	H 	0.4367	0.31	0.5412	0.052
Mof_C 	C 	0.4782	0.351	0.5445	-0.039
Mof_H 	H 	0.4637	0.3721	0.5495	0.04
Mof_C 	C 	0.4786	0.2356	0.5209	-0.059
Mof_H 	H 	0.4669	0.2226	0.5403	0.042
Mof_O 	O 	0.29318	0.78716	0.30198	-1.291
Mof_O 	O 	0.24784	0.75166	0.32673	-1.246
Mof_C 	C 	0.27905	0.76846	0.32819	0.996
Mof_C 	C 	0.29995	0.76501	0.36393	-0.483
Mof_C 	C 	0.33501	0.78139	0.36659	0.32
Mof_H 	H 	0.3449	0.7947	0.3465	-0.091
Mof_C 	C 	0.28537	0.74705	0.39384	0.338
Mof_H 	H 	0.2617	0.7364	0.3919	-0.09
Mof_C 	C 	0.30476	0.74411	0.42734	-0.344
Mof_H 	H 	0.2941	0.7317	0.4476	0.14
Mof_C 	C 	0.35518	0.77763	0.39944	-0.334
Mof_H 	H 	0.3793	0.7873	0.4008	0.135
Mof_C 	C 	0.33999	0.75971	0.43061	0.214
Mof_C 	C 	0.36106	0.7566	0.46601	-0.068
Mof_C 	C 	0.39964	0.7554	0.4662	-0.043
Mof_H 	H 	0.4127	0.7551	0.4437	0.037
Mof_C 	C 	0.4791	0.7194	0.4809	0.01
Mof_C 	C 	0.4619	0.6871	0.4647	-0.059
Mof_H 	H 	0.4367	0.69	0.4588	0.052
Mof_C 	C 	0.4782	0.649	0.4555	-0.039
Mof_H 	H 	0.4637	0.6279	0.4505	0.04
Mof_C 	C 	0.4786	0.7644	0.4791	-0.059
Mof_H 	H 	0.4669	0.7774	0.4597	0.042
Mof_O 	O 	0.70682	0.21284	0.30198	-1.291
Mof_O 	O 	0.75216	0.24834	0.32673	-1.246
Mof_C 	C 	0.72095	0.23154	0.32819	0.996
Mof_C 	C 	0.70005	0.23499	0.36393	-0.483
Mof_C 	C 	0.66499	0.21861	0.36659	0.32
Mof_H 	H 	0.6551	0.2053	0.3465	-0.091
Mof_C 	C 	0.71463	0.25295	0.39384	0.338
Mof_H 	H 	0.7383	0.2636	0.3919	-0.09
Mof_C 	C 	0.69524	0.25589	0.42734	-0.344
Mof_H 	H 	0.7059	0.2683	0.4476	0.14
Mof_C 	C 	0.64482	0.22237	0.39944	-0.334
Mof_H 	H 	0.6207	0.2127	0.4008	0.135
Mof_C 	C 	0.66001	0.24029	0.43061	0.214
Mof_C 	C 	0.63894	0.2434	0.46601	-0.068
Mof_C 	C 	0.60036	0.2446	0.4662	-0.043
Mof_H 	H 	0.5873	0.2449	0.4437	0.037
Mof_C 	C 	0.5209	0.2806	0.4809	0.01
Mof_C 	C 	0.5381	0.3129	0.4647	-0.059
Mof_H 	H 	0.5633	0.31	0.4588	0.052
Mof_C 	C 	0.5218	0.351	0.4555	-0.039
Mof_H 	H 	0.5363	0.3721	0.4505	0.04
Mof_C 	C 	0.5214	0.2356	0.4791	-0.059
Mof_H 	H 	0.5331	0.2226	0.4597	0.042
Mof_O 	O 	0.70682	0.78716	0.69802	-1.291
Mof_O 	O 	0.75216	0.75166	0.67327	-1.246
Mof_C 	C 	0.72095	0.76846	0.67181	0.996
Mof_C 	C 	0.70005	0.76501	0.63607	-0.483
Mof_C 	C 	0.66499	0.78139	0.63341	0.32
Mof_H 	H 	0.6551	0.7947	0.6535	-0.091
Mof_C 	C 	0.71463	0.74705	0.60616	0.338
Mof_H 	H 	0.7383	0.7364	0.6081	-0.09
Mof_C 	C 	0.69524	0.74411	0.57266	-0.344
Mof_H 	H 	0.7059	0.7317	0.5524	0.14
Mof_C 	C 	0.64482	0.77763	0.60056	-0.334
Mof_H 	H 	0.6207	0.7873	0.5992	0.135
Mof_C 	C 	0.66001	0.75971	0.56939	0.214
Mof_C 	C 	0.63894	0.7566	0.53399	-0.068
Mof_C 	C 	0.60036	0.7554	0.5338	-0.043
Mof_H 	H 	0.5873	0.7551	0.5563	0.037
Mof_C 	C 	0.5209	0.7194	0.5191	0.01
Mof_C 	C 	0.5381	0.6871	0.5353	-0.059
Mof_H 	H 	0.5633	0.69	0.5412	0.052
Mof_C 	C 	0.5218	0.649	0.5445	-0.039
Mof_H 	H 	0.5363	0.6279	0.5495	0.04
Mof_C 	C 	0.5214	0.7644	0.5209	-0.059
Mof_H 	H 	0.5331	0.7774	0.5403	0.042
Mof_Al	Al	0.25	0.2862	0.2138	4.46
Mof_Al	Al	0.75	0.7138	0.2138	4.46
Mof_Al	Al	0.75	0.2862	0.7862	4.461
Mof_Al	Al	0.25	0.7138	0.7862	4.461
Mof_Al	Al	0.2138	0.25	0.2862	4.46
Mof_Al	Al	0.2138	0.75	0.7138	4.46
Mof_Al	Al	0.7862	0.75	0.2862	4.461
Mof_Al	Al	0.7862	0.25	0.7138	4.461
Mof_Al	Al	0.2862	0.2138	0.25	4.46
Mof_Al	Al	0.7138	0.2138	0.75	4.46
Mof_Al	Al	0.2862	0.7862	0.75	4.461
Mof_Al	Al	0.7138	0.7862	0.25	4.461
Mof_Al	Al	0.75	0.7138	0.7862	4.461
Mof_Al	Al	0.25	0.2862	0.7862	4.461
Mof_Al	Al	0.25	0.7138	0.2138	4.46
Mof_Al	Al	0.75	0.2862	0.2138	4.46
Mof_Al	Al	0.7862	0.75	0.7138	4.461
Mof_Al	Al	0.7862	0.25	0.2862	4.461
Mof_Al	Al	0.2138	0.25	0.7138	4.46
Mof_Al	Al	0.2138	0.75	0.2862	4.46
Mof_Al	Al	0.7138	0.7862	0.75	4.461
Mof_Al	Al	0.2862	0.7862	0.25	4.461
Mof_Al	Al	0.7138	0.2138	0.25	4.46
Mof_Al	Al	0.2862	0.2138	0.75	4.46
Mof_O 	O 	0.25	0.25	0.25	-2.555
Mof_O 	O 	0.75	0.75	0.25	-2.555
Mof_O 	O 	0.75	0.25	0.75	-2.555
Mof_O 	O 	0.25	0.75	0.75	-2.555
Mof_O 	O 	0.75	0.75	0.75	-2.555
Mof_O 	O 	0.25	0.25	0.75	-2.555
Mof_O 	O 	0.25	0.75	0.25	-2.555
Mof_O 	O 	0.75	0.25	0.25	-2.555
Mof_C 	C 	5.93043e-34	0.2572	0.15817	-0.018
Mof_H 	H 	6.90639e-34	0.258	0.1842	0.024
Mof_C 	C 	-2.50427e-34	0.2546	0.08079	0.005
Mof_C 	C 	-4.02915e-34	0.2504	0.04012	0.008
Mof_C 	C 	-1.62032e-33	0.7428	0.15817	-0.018
Mof_H 	H 	-5.94946e-33	0.742	0.1842	0.024
Mof_C 	C 	-2.46379e-33	0.7454	0.08079	0.005
Mof_C 	C 	-4.82965e-33	0.7496	0.04012	0.008
Mof_C 	C 	3.15636e-33	0.2572	0.84183	-0.01
Mof_H 	H 	1.19122e-32	0.258	0.8158	0.021
Mof_C 	C 	-5.40697e-33	0.2546	0.91921	-0.018
Mof_C 	C 	3.59897e-33	0.2504	0.95988	0.053
Mof_C 	C 	3.15636e-33	0.7428	0.84183	-0.01
Mof_H 	H 	3.05876e-33	0.742	0.8158	0.021
Mof_C 	C 	3.44649e-33	0.7454	0.91921	-0.019
Mof_C 	C 	-1.41079e-32	0.7496	0.95988	0.053
Mof_C 	C 	0.15817	-2.21336e-33	0.2572	-0.018
Mof_H 	H 	0.1842	0	0.258	0.024
Mof_C 	C 	0.08079	0	0.2546	0.005
Mof_C 	C 	0.04012	0	0.2504	0.008
Mof_C 	C 	0.15817	0	0.7428	-0.018
Mof_H 	H 	0.1842	0	0.742	0.024
Mof_C 	C 	0.08079	0	0.7454	0.005
Mof_C 	C 	0.04012	0	0.7496	0.008
Mof_C 	C 	0.84183	-2.21336e-33	0.2572	-0.01
Mof_H 	H 	0.8158	0	0.258	0.021
Mof_C 	C 	0.91921	0	0.2546	-0.018
Mof_C 	C 	0.95988	0	0.2504	0.053
Mof_C 	C 	0.84183	0	0.7428	-0.01
Mof_H 	H 	0.8158	0	0.742	0.021
Mof_C 	C 	0.91921	0	0.7454	-0.019
Mof_C 	C 	0.95988	0	0.7496	0.053
Mof_C 	C 	0.2572	0.15817	-0	-0.018
Mof_H 	H 	0.258	0.1842	-0	0.024
Mof_C 	C 	0.2546	0.08079	-0	0.005
Mof_C 	C 	0.2504	0.04012	-0	0.008
Mof_C 	C 	0.7428	0.15817	-0	-0.018
Mof_H 	H 	0.742	0.1842	-0	0.024
Mof_C 	C 	0.7454	0.08079	-0	0.005
Mof_C 	C 	0.7496	0.04012	-0	0.008
Mof_C 	C 	0.2572	0.84183	-0	-0.01
Mof_H 	H 	0.258	0.8158	-0	0.021
Mof_C 	C 	0.2546	0.91921	-0	-0.018
Mof_C 	C 	0.2504	0.95988	-0	0.053
Mof_C 	C 	0.7428	0.84183	-0	-0.01
Mof_H 	H 	0.742	0.8158	-0	0.021
Mof_C 	C 	0.7454	0.91921	-0	-0.019
Mof_C 	C 	0.7496	0.95988	-0	0.053
Mof_C 	C 	0.7572	0.5	0.34183	-0.013
Mof_H 	H 	0.758	0.5	0.3158	0.023
Mof_C 	C 	0.7546	0.5	0.41921	-0.007
Mof_C 	C 	0.7504	0.5	0.45988	0.031
Mof_C 	C 	0.2428	0.5	0.34183	-0.013
Mof_H 	H 	0.242	0.5	0.3158	0.023
Mof_C 	C 	0.2454	0.5	0.41921	-0.007
Mof_C 	C 	0.2496	0.5	0.45988	0.031
Mof_C 	C 	0.7572	0.5	0.65817	-0.013
Mof_H 	H 	0.758	0.5	0.6842	0.023
Mof_C 	C 	0.7546	0.5	0.58079	-0.007
Mof_C 	C 	0.7504	0.5	0.54012	0.031
Mof_C 	C 	0.2428	0.5	0.65817	-0.013
Mof_H 	H 	0.242	0.5	0.6842	0.023
Mof_C 	C 	0.2454	0.5	0.58079	-0.007
Mof_C 	C 	0.2496	0.5	0.54012	0.031
Mof_C 	C 	0.5	0.65817	0.2428	-0.013
Mof_H 	H 	0.5	0.6842	0.242	0.023
Mof_C 	C 	0.5	0.58079	0.2454	-0.007
Mof_C 	C 	0.5	0.54012	0.2496	0.031
Mof_C 	C 	0.5	0.65817	0.7572	-0.013
Mof_H 	H 	0.5	0.6842	0.758	0.023
Mof_C 	C 	0.5	0.58079	0.7546	-0.007
Mof_C 	C 	0.5	0.54012	0.7504	0.031
Mof_C 	C 	0.5	0.34183	0.2428	-0.013
Mof_H 	H 	0.5	0.3158	0.242	0.023
Mof_C 	C 	0.5	0.41921	0.2454	-0.007
Mof_C 	C 	0.5	0.45988	0.2496	0.031
Mof_C 	C 	0.5	0.34183	0.7572	-0.013
Mof_H 	H 	0.5	0.3158	0.758	0.023
Mof_C 	C 	0.5	0.41921	0.7546	-0.007
Mof_C 	C 	0.5	0.45988	0.7504	0.031
Mof_C 	C 	0.65817	0.7572	0.5	-0.013
Mof_H 	H 	0.6842	0.758	0.5	0.023
Mof_C 	C 	0.58079	0.7546	0.5	-0.007
Mof_C 	C 	0.54012	0.7504	0.5	0.031
Mof_C 	C 	0.65817	0.2428	0.5	-0.013
Mof_H 	H 	0.6842	0.242	0.5	0.023
Mof_C 	C 	0.58079	0.2454	0.5	-0.007
Mof_C 	C 	0.54012	0.2496	0.5	0.031
Mof_C 	C 	0.34183	0.7572	0.5	-0.013
Mof_H 	H 	0.3158	0.758	0.5	0.023
Mof_C 	C 	0.41921	0.7546	0.5	-0.007
Mof_C 	C 	0.45988	0.7504	0.5	0.031
Mof_C 	C 	0.34183	0.2428	0.5	-0.013
Mof_H 	H 	0.3158	0.242	0.5	0.023
Mof_C 	C 	0.41921	0.2454	0.5	-0.007
Mof_C 	C 	0.45988	0.2496	0.5	0.031
_end
