# CIF file generated by openbabel 3.1.0, see https://openbabel.org
data_I
_chemical_name_common 'image0'
_cell_length_a 14.8837
_cell_length_b 12.4554
_cell_length_c 16.6018
_cell_angle_alpha 90
_cell_angle_beta 90
_cell_angle_gamma 90
_space_group_name_H-M_alt 'P 1'
_space_group_name_Hall 'P 1'
loop_
    _symmetry_equiv_pos_as_xyz
    x,y,z
loop_
    _atom_site_label
    _atom_site_type_symbol
    _atom_site_fract_x
    _atom_site_fract_y
    _atom_site_fract_z
    _atom_site_occupancy
    O1       O        0.52700    0.11950    0.00519    1.000
    O2       O        0.50110    0.08490    0.87608    1.000
    C1       C        0.76940    0.42270    0.99840    1.000
    O3       O        0.59340    0.35150    0.66980    1.000
    C2       C        0.59250    0.27000    0.82890    1.000
    H1       H        0.55680    0.23520    0.79110    1.000
    C3       C        0.63550    0.40190    0.72040    1.000
    O4       O        0.67120    0.49150    0.70510    1.000
    C4       C        0.70310    0.37080    0.94060    1.000
    C5       C        0.65310    0.28120    0.96250    1.000
    H2       H        0.65740    0.25440    0.01460    1.000
    C6       C        0.64110    0.36060    0.80630    1.000
    C7       C        0.69430    0.41190    0.86290    1.000
    H3       H        0.72460    0.47460    0.84880    1.000
    C8       C        0.59670    0.23110    0.90690    1.000
    C9       C        0.53860    0.13850    0.93110    1.000
    Mn1      Mn       0.60414    0.48519    0.58091    1.000
    O5       O        0.79100    0.51590    0.98760    1.000
    O6       O        0.80230    0.36670    0.05270    1.000
    O7       O        0.97300    0.88050    0.50519    1.000
    O8       O        0.99890    0.91510    0.37608    1.000
    C10      C        0.73060    0.57730    0.49840    1.000
    O9       O        0.90660    0.64850    0.16980    1.000
    C11      C        0.90750    0.73000    0.32890    1.000
    H4       H        0.94320    0.76480    0.29110    1.000
    C12      C        0.86450    0.59810    0.22040    1.000
    O10      O        0.82880    0.50850    0.20510    1.000
    C13      C        0.79690    0.62920    0.44060    1.000
    C14      C        0.84690    0.71880    0.46250    1.000
    H5       H        0.84260    0.74560    0.51460    1.000
    C15      C        0.85890    0.63940    0.30630    1.000
    C16      C        0.80570    0.58810    0.36290    1.000
    H6       H        0.77540    0.52540    0.34880    1.000
    C17      C        0.90330    0.76890    0.40690    1.000
    C18      C        0.96140    0.86150    0.43110    1.000
    Mn2      Mn       0.89586    0.51481    0.08091    1.000
    O11      O        0.70900    0.48410    0.48760    1.000
    O12      O        0.69770    0.63330    0.55270    1.000
    O13      O        0.47300    0.61950    0.49481    1.000
    O14      O        0.49890    0.58490    0.62392    1.000
    C19      C        0.23060    0.92270    0.50160    1.000
    O15      O        0.40660    0.85150    0.83020    1.000
    C20      C        0.40750    0.77000    0.67110    1.000
    H7       H        0.44320    0.73520    0.70890    1.000
    C21      C        0.36450    0.90190    0.77960    1.000
    O16      O        0.32880    0.99150    0.79490    1.000
    C22      C        0.29690    0.87080    0.55940    1.000
    C23      C        0.34690    0.78120    0.53750    1.000
    H8       H        0.34260    0.75440    0.48540    1.000
    C24      C        0.35890    0.86060    0.69370    1.000
    C25      C        0.30570    0.91190    0.63710    1.000
    H9       H        0.27540    0.97460    0.65120    1.000
    C26      C        0.40330    0.73110    0.59310    1.000
    C27      C        0.46140    0.63850    0.56890    1.000
    Mn3      Mn       0.39586    0.98519    0.91909    1.000
    O17      O        0.20900    0.01590    0.51240    1.000
    O18      O        0.19770    0.86670    0.44730    1.000
    O19      O        0.02700    0.38050    0.99481    1.000
    O20      O        0.00110    0.41510    0.12392    1.000
    C28      C        0.26940    0.07730    0.00160    1.000
    O21      O        0.09340    0.14850    0.33020    1.000
    C29      C        0.09250    0.23000    0.17110    1.000
    H10      H        0.05680    0.26480    0.20890    1.000
    C30      C        0.13550    0.09810    0.27960    1.000
    O22      O        0.17120    0.00850    0.29490    1.000
    C31      C        0.20310    0.12920    0.05940    1.000
    C32      C        0.15310    0.21880    0.03750    1.000
    H11      H        0.15740    0.24560    0.98540    1.000
    C33      C        0.14110    0.13940    0.19370    1.000
    C34      C        0.19430    0.08810    0.13710    1.000
    H12      H        0.22460    0.02540    0.15120    1.000
    C35      C        0.09670    0.26890    0.09310    1.000
    C36      C        0.03860    0.36150    0.06890    1.000
    Mn4      Mn       0.10414    0.01481    0.41909    1.000
    O23      O        0.29100    0.98410    0.01240    1.000
    O24      O        0.30230    0.13330    0.94730    1.000
    O25      O        0.47300    0.88050    0.99481    1.000
    O26      O        0.49890    0.91510    0.12392    1.000
    C37      C        0.23060    0.57730    0.00160    1.000
    O27      O        0.40660    0.64850    0.33020    1.000
    C38      C        0.40750    0.73000    0.17110    1.000
    H13      H        0.44320    0.76480    0.20890    1.000
    C39      C        0.36450    0.59810    0.27960    1.000
    O28      O        0.32880    0.50850    0.29490    1.000
    C40      C        0.29690    0.62920    0.05940    1.000
    C41      C        0.34690    0.71880    0.03750    1.000
    H14      H        0.34260    0.74560    0.98540    1.000
    C42      C        0.35890    0.63940    0.19370    1.000
    C43      C        0.30570    0.58810    0.13710    1.000
    H15      H        0.27540    0.52540    0.15120    1.000
    C44      C        0.40330    0.76890    0.09310    1.000
    C45      C        0.46140    0.86150    0.06890    1.000
    Mn5      Mn       0.39586    0.51481    0.41909    1.000
    O29      O        0.20900    0.48410    0.01240    1.000
    O30      O        0.19770    0.63330    0.94730    1.000
    O31      O        0.02700    0.11950    0.49481    1.000
    O32      O        0.00110    0.08490    0.62392    1.000
    C46      C        0.26940    0.42270    0.50160    1.000
    O33      O        0.09340    0.35150    0.83020    1.000
    C47      C        0.09250    0.27000    0.67110    1.000
    H16      H        0.05680    0.23520    0.70890    1.000
    C48      C        0.13550    0.40190    0.77960    1.000
    O34      O        0.17120    0.49150    0.79490    1.000
    C49      C        0.20310    0.37080    0.55940    1.000
    C50      C        0.15310    0.28120    0.53750    1.000
    H17      H        0.15740    0.25440    0.48540    1.000
    C51      C        0.14110    0.36060    0.69370    1.000
    C52      C        0.19430    0.41190    0.63710    1.000
    H18      H        0.22460    0.47460    0.65120    1.000
    C53      C        0.09670    0.23110    0.59310    1.000
    C54      C        0.03860    0.13850    0.56890    1.000
    Mn6      Mn       0.10414    0.48519    0.91909    1.000
    O35      O        0.29100    0.51590    0.51240    1.000
    O36      O        0.30230    0.36670    0.44730    1.000
    O37      O        0.52700    0.38050    0.50519    1.000
    O38      O        0.50110    0.41510    0.37608    1.000
    C55      C        0.76940    0.07730    0.49840    1.000
    O39      O        0.59340    0.14850    0.16980    1.000
    C56      C        0.59250    0.23000    0.32890    1.000
    H19      H        0.55680    0.26480    0.29110    1.000
    C57      C        0.63550    0.09810    0.22040    1.000
    O40      O        0.67120    0.00850    0.20510    1.000
    C58      C        0.70310    0.12920    0.44060    1.000
    C59      C        0.65310    0.21880    0.46250    1.000
    H20      H        0.65740    0.24560    0.51460    1.000
    C60      C        0.64110    0.13940    0.30630    1.000
    C61      C        0.69430    0.08810    0.36290    1.000
    H21      H        0.72460    0.02540    0.34880    1.000
    C62      C        0.59670    0.26890    0.40690    1.000
    C63      C        0.53860    0.36150    0.43110    1.000
    Mn7      Mn       0.60414    0.01481    0.08091    1.000
    O41      O        0.79100    0.98410    0.48760    1.000
    O42      O        0.80230    0.13330    0.55270    1.000
    O43      O        0.97300    0.61950    0.00519    1.000
    O44      O        0.99890    0.58490    0.87608    1.000
    C64      C        0.73060    0.92270    0.99840    1.000
    O45      O        0.90660    0.85150    0.66980    1.000
    C65      C        0.90750    0.77000    0.82890    1.000
    H22      H        0.94320    0.73520    0.79110    1.000
    C66      C        0.86450    0.90190    0.72040    1.000
    O46      O        0.82880    0.99150    0.70510    1.000
    C67      C        0.79690    0.87080    0.94060    1.000
    C68      C        0.84690    0.78120    0.96250    1.000
    H23      H        0.84260    0.75440    0.01460    1.000
    C69      C        0.85890    0.86060    0.80630    1.000
    C70      C        0.80570    0.91190    0.86290    1.000
    H24      H        0.77540    0.97460    0.84880    1.000
    C71      C        0.90330    0.73110    0.90690    1.000
    C72      C        0.96140    0.63850    0.93110    1.000
    Mn8      Mn       0.89586    0.98519    0.58091    1.000
    O47      O        0.70900    0.01590    0.98760    1.000
    O48      O        0.69770    0.86670    0.05270    1.000
