data_functionalizedCrystal
_audit_creation_method	'EQeq! by Chris Wilmer'
_symmetry_space_group_name_H-M	'P1'
_symmetry_Int_Tables_number	1
_symmetry_cell_setting	triclinic
loop_
_symmetry_equiv_pos_as_xyz
  x,y,z
_cell_length_a	12.0591
_cell_length_b	19.1647
_cell_length_c	4.9114
_cell_angle_alpha	90
_cell_angle_beta	90
_cell_angle_gamma	90
loop_
_atom_site_label
_atom_site_type_symbol
_atom_site_fract_x
_atom_site_fract_y
_atom_site_fract_z
_atom_site_charge
Mof_P 	P 	0.01543	0.10471	0.5024	0.469
Mof_F 	F 	0.1461	0.0135	0.9263	-1.131
Mof_O 	O 	0.003	0.08533	0.2003	-0.766
Mof_O 	O 	0.1424	0.1102	0.5344	-1.055
Mof_O 	O 	0.9587	0.0492	0.6828	-0.358
Mof_C 	C 	0.9484	0.18758	0.5592	0.143
Mof_P 	P 	0.48457	0.39529	0.5024	0.766
Mof_F 	F 	0.3539	0.4865	0.9263	-1.385
Mof_O 	O 	0.497	0.41467	0.2003	-1.054
Mof_O 	O 	0.3576	0.3898	0.5344	-1.163
Mof_O 	O 	0.5413	0.4508	0.6828	-0.741
Mof_C 	C 	0.5516	0.31242	0.5592	-0.04
Mof_P 	P 	0.98457	0.60471	0.4976	0.822
Mof_F 	F 	0.8539	0.5135	0.0737	-1.567
Mof_O 	O 	0.997	0.58533	0.7997	-0.477
Mof_O 	O 	0.8576	0.6102	0.4656	-1.042
Mof_O 	O 	0.0413	0.5492	0.3172	-1.018
Mof_C 	C 	0.0516	0.68758	0.4408	-0.387
Mof_P 	P 	0.51543	0.89529	0.4976	0.63
Mof_F 	F 	0.6461	0.9865	0.0737	-1.361
Mof_O 	O 	0.503	0.91467	0.7997	-0.304
Mof_O 	O 	0.6424	0.8898	0.4656	-0.992
Mof_O 	O 	0.4587	0.9508	0.3172	-0.633
Mof_C 	C 	0.4484	0.81242	0.4408	-0.195
Mof_P 	P 	0.98457	0.89529	0.4976	0.72
Mof_F 	F 	0.8539	0.9865	0.0737	-1.244
Mof_O 	O 	0.997	0.91467	0.7997	-0.16
Mof_O 	O 	0.8576	0.8898	0.4656	-0.992
Mof_O 	O 	0.0413	0.9508	0.3172	-0.602
Mof_C 	C 	0.0516	0.81242	0.4408	-0.352
Mof_P 	P 	0.51543	0.60471	0.4976	0.725
Mof_F 	F 	0.6461	0.5135	0.0737	-1.686
Mof_O 	O 	0.503	0.58533	0.7997	-0.624
Mof_O 	O 	0.6424	0.6102	0.4656	-1.043
Mof_O 	O 	0.4587	0.5492	0.3172	-1.046
Mof_C 	C 	0.4484	0.68758	0.4408	-0.227
Mof_P 	P 	0.01543	0.39529	0.5024	0.583
Mof_F 	F 	0.1461	0.4865	0.9263	-1.306
Mof_O 	O 	0.003	0.41467	0.2003	-0.977
Mof_O 	O 	0.1424	0.3898	0.5344	-1.138
Mof_O 	O 	0.9587	0.4508	0.6828	-0.526
Mof_C 	C 	0.9484	0.31242	0.5592	0.138
Mof_P 	P 	0.48457	0.10471	0.5024	0.655
Mof_F 	F 	0.3539	0.0135	0.9263	-1.209
Mof_O 	O 	0.497	0.08533	0.2003	-0.842
Mof_O 	O 	0.3576	0.1102	0.5344	-1.08
Mof_O 	O 	0.5413	0.0492	0.6828	-0.577
Mof_C 	C 	0.5516	0.18758	0.5592	-0.037
Mof_Al	Al	0.25	0.06234	0.7337	3.877
Mof_Al	Al	0.25	0.43766	0.7337	4.187
Mof_Al	Al	0.75	0.56234	0.2663	3.759
Mof_Al	Al	0.75	0.93766	0.2663	3.757
Mof_C 	C 	0.0124	0.25	0.4514	-0.291
Mof_C 	C 	0.4876	0.25	0.4514	-0.094
Mof_C 	C 	0.9876	0.75	0.5486	0.29
Mof_C 	C 	0.5124	0.75	0.5486	0.105
Mof_Al	Al	-0	0	-0	1.483
Mof_Al	Al	0.5	0.5	-0	3.566
Mof_Al	Al	-5.55992e-33	0.5	-0	2.93
Mof_Al	Al	0.5	0	-0	2.117
_end
