data_functionalizedCrystal
_audit_creation_method	'EQeq! by Chris Wilmer'
_symmetry_space_group_name_H-M	'P1'
_symmetry_Int_Tables_number	1
_symmetry_cell_setting	triclinic
loop_
_symmetry_equiv_pos_as_xyz
  x,y,z
_cell_length_a	17.028
_cell_length_b	17.028
_cell_length_c	23.1439
_cell_angle_alpha	90
_cell_angle_beta	90
_cell_angle_gamma	90
loop_
_atom_site_label
_atom_site_type_symbol
_atom_site_fract_x
_atom_site_fract_y
_atom_site_fract_z
_atom_site_charge
Mof_H 	H 	0.2631	0.7039	0.9757	0.032
Mof_H 	H 	0.3692	0.7961	0.0275	0.042
Mof_C 	C 	0.27081	0.82033	0.11113	-0.074
Mof_H 	H 	0.2575	0.822	0.1519	0.051
Mof_H 	H 	0.3008	0.8672	0.1021	0.041
Mof_C 	C 	0.19489	0.81968	0.0751	-0.053
Mof_H 	H 	0.1923	0.8671	0.0519	0.033
Mof_H 	H 	0.1499	0.8192	0.1008	0.038
Mof_H 	H 	0.7631	0.2039	0.4757	0.036
Mof_H 	H 	0.8692	0.2961	0.5275	0.037
Mof_C 	C 	0.77081	0.32033	0.61113	-0.073
Mof_H 	H 	0.7575	0.322	0.6519	0.05
Mof_H 	H 	0.8008	0.3672	0.6021	0.038
Mof_C 	C 	0.69489	0.31968	0.5751	-0.054
Mof_H 	H 	0.6923	0.3671	0.5519	0.032
Mof_H 	H 	0.6499	0.3192	0.6008	0.037
Mof_H 	H 	0.2369	0.2961	0.4757	0.038
Mof_H 	H 	0.1308	0.2039	0.5275	0.042
Mof_C 	C 	0.22919	0.17967	0.61113	-0.074
Mof_H 	H 	0.2425	0.178	0.6519	0.051
Mof_H 	H 	0.1992	0.1328	0.6021	0.041
Mof_C 	C 	0.30511	0.18032	0.5751	-0.053
Mof_H 	H 	0.3077	0.1329	0.5519	0.032
Mof_H 	H 	0.3501	0.1808	0.6008	0.037
Mof_H 	H 	0.7369	0.7961	0.9757	0.032
Mof_H 	H 	0.6308	0.7039	0.0275	0.043
Mof_C 	C 	0.72919	0.67967	0.11113	-0.075
Mof_H 	H 	0.7425	0.678	0.1519	0.051
Mof_H 	H 	0.6992	0.6328	0.1021	0.041
Mof_C 	C 	0.80511	0.68032	0.0751	-0.051
Mof_H 	H 	0.8077	0.6329	0.0519	0.03
Mof_H 	H 	0.8501	0.6808	0.1008	0.035
Mof_H 	H 	0.5461	0.0131	0.2257	0.036
Mof_H 	H 	0.4539	0.1192	0.2775	0.041
Mof_C 	C 	0.42967	0.02081	0.36113	-0.076
Mof_H 	H 	0.428	0.0075	0.4019	0.051
Mof_H 	H 	0.3828	0.0508	0.3521	0.041
Mof_C 	C 	0.43032	0.94489	0.3251	-0.052
Mof_H 	H 	0.3829	0.9423	0.3019	0.032
Mof_H 	H 	0.4308	0.8999	0.3508	0.037
Mof_H 	H 	0.0461	0.5131	0.7257	0.033
Mof_H 	H 	0.9539	0.6192	0.7775	0.027
Mof_C 	C 	0.92967	0.52081	0.86113	-0.083
Mof_H 	H 	0.928	0.5075	0.9019	0.049
Mof_H 	H 	0.8828	0.5508	0.8521	0.041
Mof_C 	C 	0.93032	0.44489	0.8251	-0.063
Mof_H 	H 	0.8829	0.4423	0.8019	0.033
Mof_H 	H 	0.9308	0.3999	0.8508	0.036
Mof_H 	H 	0.9539	0.9869	0.7257	0.022
Mof_H 	H 	0.0461	0.8808	0.7775	0.037
Mof_C 	C 	0.07033	0.97919	0.86113	-0.077
Mof_H 	H 	0.072	0.9925	0.9019	0.051
Mof_H 	H 	0.1172	0.9492	0.8521	0.04
Mof_C 	C 	0.06968	0.05511	0.8251	-0.049
Mof_H 	H 	0.1171	0.0577	0.8019	0.031
Mof_H 	H 	0.0692	0.1001	0.8508	0.038
Mof_H 	H 	0.4539	0.4869	0.2257	0.037
Mof_H 	H 	0.5461	0.3808	0.2775	0.041
Mof_C 	C 	0.57033	0.47919	0.36113	-0.074
Mof_H 	H 	0.572	0.4925	0.4019	0.051
Mof_H 	H 	0.6172	0.4492	0.3521	0.04
Mof_C 	C 	0.56968	0.55511	0.3251	-0.053
Mof_H 	H 	0.6171	0.5577	0.3019	0.032
Mof_H 	H 	0.5692	0.6001	0.3508	0.037
Mof_H 	H 	0.7631	0.2961	0.4757	0.037
Mof_H 	H 	0.8692	0.2039	0.5275	0.037
Mof_C 	C 	0.77081	0.17967	0.61113	-0.073
Mof_H 	H 	0.7575	0.178	0.6519	0.05
Mof_H 	H 	0.8008	0.1328	0.6021	0.038
Mof_C 	C 	0.69489	0.18032	0.5751	-0.054
Mof_H 	H 	0.6923	0.1329	0.5519	0.032
Mof_H 	H 	0.6499	0.1808	0.6008	0.037
Mof_H 	H 	0.2631	0.7961	0.9757	0.032
Mof_H 	H 	0.3692	0.7039	0.0275	0.043
Mof_C 	C 	0.27081	0.67967	0.11113	-0.074
Mof_H 	H 	0.2575	0.678	0.1519	0.051
Mof_H 	H 	0.3008	0.6328	0.1021	0.041
Mof_C 	C 	0.19489	0.68032	0.0751	-0.053
Mof_H 	H 	0.1923	0.6329	0.0519	0.032
Mof_H 	H 	0.1499	0.6808	0.1008	0.037
Mof_H 	H 	0.7369	0.7039	0.9757	0.033
Mof_H 	H 	0.6308	0.7961	0.0275	0.043
Mof_C 	C 	0.72919	0.82033	0.11113	-0.075
Mof_H 	H 	0.7425	0.822	0.1519	0.052
Mof_H 	H 	0.6992	0.8672	0.1021	0.041
Mof_C 	C 	0.80511	0.81968	0.0751	-0.051
Mof_H 	H 	0.8077	0.8671	0.0519	0.031
Mof_H 	H 	0.8501	0.8192	0.1008	0.035
Mof_H 	H 	0.2369	0.2039	0.4757	0.037
Mof_H 	H 	0.1308	0.2961	0.5275	0.042
Mof_C 	C 	0.22919	0.32033	0.61113	-0.074
Mof_H 	H 	0.2425	0.322	0.6519	0.051
Mof_H 	H 	0.1992	0.3672	0.6021	0.041
Mof_C 	C 	0.30511	0.31968	0.5751	-0.053
Mof_H 	H 	0.3077	0.3671	0.5519	0.032
Mof_H 	H 	0.3501	0.3192	0.6008	0.037
Mof_H 	H 	0.0461	0.9869	0.7257	0.033
Mof_H 	H 	0.9539	0.8808	0.7775	0.027
Mof_C 	C 	0.92967	0.97919	0.86113	-0.086
Mof_H 	H 	0.928	0.9925	0.9019	0.049
Mof_H 	H 	0.8828	0.9492	0.8521	0.042
Mof_C 	C 	0.93032	0.05511	0.8251	-0.059
Mof_H 	H 	0.8829	0.0577	0.8019	0.033
Mof_H 	H 	0.9308	0.1001	0.8508	0.035
Mof_H 	H 	0.5461	0.4869	0.2257	0.037
Mof_H 	H 	0.4539	0.3808	0.2775	0.041
Mof_C 	C 	0.42967	0.47919	0.36113	-0.074
Mof_H 	H 	0.428	0.4925	0.4019	0.051
Mof_H 	H 	0.3828	0.4492	0.3521	0.041
Mof_C 	C 	0.43032	0.55511	0.3251	-0.053
Mof_H 	H 	0.3829	0.5577	0.3019	0.032
Mof_H 	H 	0.4308	0.6001	0.3508	0.037
Mof_H 	H 	0.4539	0.0131	0.2257	0.036
Mof_H 	H 	0.5461	0.1192	0.2775	0.041
Mof_C 	C 	0.57033	0.02081	0.36113	-0.076
Mof_H 	H 	0.572	0.0075	0.4019	0.051
Mof_H 	H 	0.6172	0.0508	0.3521	0.04
Mof_C 	C 	0.56968	0.94489	0.3251	-0.052
Mof_H 	H 	0.6171	0.9423	0.3019	0.032
Mof_H 	H 	0.5692	0.8999	0.3508	0.037
Mof_H 	H 	0.9539	0.5131	0.7257	0.022
Mof_H 	H 	0.0461	0.6192	0.7775	0.038
Mof_C 	C 	0.07033	0.52081	0.86113	-0.073
Mof_H 	H 	0.072	0.5075	0.9019	0.052
Mof_H 	H 	0.1172	0.5508	0.8521	0.04
Mof_C 	C 	0.06968	0.44489	0.8251	-0.053
Mof_H 	H 	0.1171	0.4423	0.8019	0.032
Mof_H 	H 	0.0692	0.3999	0.8508	0.039
Mof_Cu	Cu	0.08857	0.75	0.98424	0.741
Mof_I 	I 	0.13112	0.75	0.87198	-0.599
Mof_N 	N 	0.19156	0.75	0.03658	-0.177
Mof_N 	N 	0.3194	0.75	0.09948	-0.168
Mof_C 	C 	0.26336	0.75	0.00033	-0.048
Mof_C 	C 	0.3382	0.75	0.03675	-0.074
Mof_Cu	Cu	0.41143	0.25	0.48424	0.742
Mof_I 	I 	0.36888	0.25	0.37198	-0.6
Mof_N 	N 	0.30844	0.25	0.53658	-0.176
Mof_N 	N 	0.1806	0.25	0.59948	-0.169
Mof_C 	C 	0.23664	0.25	0.50033	-0.058
Mof_C 	C 	0.1618	0.25	0.53675	-0.07
Mof_Cu	Cu	0.5	0.83857	0.23424	0.742
Mof_I 	I 	0.5	0.88112	0.12198	-0.599
Mof_N 	N 	0.5	0.94156	0.28658	-0.176
Mof_N 	N 	0.5	0.0694	0.34948	-0.169
Mof_C 	C 	0.5	0.01336	0.25033	-0.059
Mof_C 	C 	0.5	0.0882	0.28675	-0.069
Mof_Cu	Cu	3.74173e-33	0.33857	0.73424	0.746
Mof_I 	I 	3.16965e-33	0.38112	0.62198	-0.587
Mof_N 	N 	1.15319e-32	0.44156	0.78658	-0.172
Mof_N 	N 	1.93759e-32	0.5694	0.84948	-0.165
Mof_C 	C 	-3.69971e-33	0.51336	0.75033	-0.038
Mof_C 	C 	1.15328e-32	0.5882	0.78675	-0.051
Mof_Cu	Cu	3.74173e-33	0.16143	0.73424	0.746
Mof_I 	I 	3.16965e-33	0.11888	0.62198	-0.587
Mof_N 	N 	1.15319e-32	0.05844	0.78658	-0.172
Mof_N 	N 	4.329e-33	0.9306	0.84948	-0.165
Mof_C 	C 	1.13472e-32	0.98664	0.75033	-0.041
Mof_C 	C 	1.15328e-32	0.9118	0.78675	-0.051
Mof_Cu	Cu	0.5	0.66143	0.23424	0.742
Mof_I 	I 	0.5	0.61888	0.12198	-0.601
Mof_N 	N 	0.5	0.55844	0.28658	-0.176
Mof_N 	N 	0.5	0.4306	0.34948	-0.169
Mof_C 	C 	0.5	0.48664	0.25033	-0.058
Mof_C 	C 	0.5	0.4118	0.28675	-0.07
Mof_Cu	Cu	0.58857	0.25	0.48424	0.742
Mof_I 	I 	0.63112	0.25	0.37198	-0.602
Mof_N 	N 	0.69156	0.25	0.53658	-0.176
Mof_N 	N 	0.8194	0.25	0.59948	-0.171
Mof_C 	C 	0.76336	0.25	0.50033	-0.059
Mof_C 	C 	0.8382	0.25	0.53675	-0.067
Mof_Cu	Cu	0.91143	0.75	0.98424	0.735
Mof_I 	I 	0.86888	0.75	0.87198	-0.61
Mof_N 	N 	0.80844	0.75	0.03658	-0.178
Mof_N 	N 	0.6806	0.75	0.09948	-0.168
Mof_C 	C 	0.73664	0.75	0.00033	-0.048
Mof_C 	C 	0.6618	0.75	0.03675	-0.074
Mof_Cu	Cu	4.58676e-33	0.8281	0.90006	0.734
Mof_I 	I 	-5.12446e-33	0.87596	0.0094	-0.607
Mof_Cu	Cu	0.5	0.3281	0.40006	0.73
Mof_I 	I 	0.5	0.37596	0.5094	-0.623
Mof_Cu	Cu	0.5	0.1719	0.40006	0.73
Mof_I 	I 	0.5	0.12404	0.5094	-0.623
Mof_Cu	Cu	4.58676e-33	0.6719	0.90006	0.734
Mof_I 	I 	2.39898e-33	0.62404	0.0094	-0.609
Mof_Cu	Cu	0.4219	0.75	0.15006	0.73
Mof_I 	I 	0.37404	0.75	0.2594	-0.623
Mof_Cu	Cu	0.0781	0.25	0.65006	0.731
Mof_I 	I 	0.12596	0.25	0.7594	-0.621
Mof_Cu	Cu	0.9219	0.25	0.65006	0.725
Mof_I 	I 	0.87404	0.25	0.7594	-0.632
Mof_Cu	Cu	0.5781	0.75	0.15006	0.73
Mof_I 	I 	0.62596	0.75	0.2594	-0.623
Mof_H 	H 	0.2369	0.7039	0.5243	0.038
Mof_H 	H 	0.1308	0.7961	0.4725	0.042
Mof_C 	C 	0.22919	0.82033	0.38887	-0.074
Mof_H 	H 	0.2425	0.822	0.3481	0.051
Mof_H 	H 	0.1992	0.8672	0.3979	0.041
Mof_C 	C 	0.30511	0.81968	0.4249	-0.053
Mof_H 	H 	0.3077	0.8671	0.4481	0.032
Mof_H 	H 	0.3501	0.8192	0.3992	0.037
Mof_H 	H 	0.7369	0.2039	0.0243	0.032
Mof_H 	H 	0.6308	0.2961	0.9725	0.043
Mof_C 	C 	0.72919	0.32033	0.88887	-0.075
Mof_H 	H 	0.7425	0.322	0.8481	0.051
Mof_H 	H 	0.6992	0.3672	0.8979	0.041
Mof_C 	C 	0.80511	0.31968	0.9249	-0.051
Mof_H 	H 	0.8077	0.3671	0.9481	0.03
Mof_H 	H 	0.8501	0.3192	0.8992	0.035
Mof_H 	H 	0.2631	0.2961	0.0243	0.033
Mof_H 	H 	0.3692	0.2039	0.9725	0.043
Mof_C 	C 	0.27081	0.17967	0.88887	-0.074
Mof_H 	H 	0.2575	0.178	0.8481	0.051
Mof_H 	H 	0.3008	0.1328	0.8979	0.041
Mof_C 	C 	0.19489	0.18032	0.9249	-0.053
Mof_H 	H 	0.1923	0.1329	0.9481	0.033
Mof_H 	H 	0.1499	0.1808	0.8992	0.038
Mof_H 	H 	0.7631	0.7961	0.5243	0.036
Mof_H 	H 	0.8692	0.7039	0.4725	0.037
Mof_C 	C 	0.77081	0.67967	0.38887	-0.073
Mof_H 	H 	0.7575	0.678	0.3481	0.05
Mof_H 	H 	0.8008	0.6328	0.3979	0.038
Mof_C 	C 	0.69489	0.68032	0.4249	-0.054
Mof_H 	H 	0.6923	0.6329	0.4481	0.032
Mof_H 	H 	0.6499	0.6808	0.3992	0.037
Mof_H 	H 	0.9539	0.0131	0.2743	0.022
Mof_H 	H 	0.0461	0.1192	0.2225	0.037
Mof_C 	C 	0.07033	0.02081	0.13887	-0.077
Mof_H 	H 	0.072	0.0075	0.0981	0.051
Mof_H 	H 	0.1172	0.0508	0.1479	0.04
Mof_C 	C 	0.06968	0.94489	0.1749	-0.049
Mof_H 	H 	0.1171	0.9423	0.1981	0.031
Mof_H 	H 	0.0692	0.8999	0.1492	0.038
Mof_H 	H 	0.4539	0.5131	0.7743	0.037
Mof_H 	H 	0.5461	0.6192	0.7225	0.041
Mof_C 	C 	0.57033	0.52081	0.63887	-0.074
Mof_H 	H 	0.572	0.5075	0.5981	0.051
Mof_H 	H 	0.6172	0.5508	0.6479	0.04
Mof_C 	C 	0.56968	0.44489	0.6749	-0.053
Mof_H 	H 	0.6171	0.4423	0.6981	0.032
Mof_H 	H 	0.5692	0.3999	0.6492	0.037
Mof_H 	H 	0.5461	0.9869	0.7743	0.036
Mof_H 	H 	0.4539	0.8808	0.7225	0.041
Mof_C 	C 	0.42967	0.97919	0.63887	-0.076
Mof_H 	H 	0.428	0.9925	0.5981	0.051
Mof_H 	H 	0.3828	0.9492	0.6479	0.041
Mof_C 	C 	0.43032	0.05511	0.6749	-0.052
Mof_H 	H 	0.3829	0.0577	0.6981	0.032
Mof_H 	H 	0.4308	0.1001	0.6492	0.037
Mof_H 	H 	0.0461	0.4869	0.2743	0.033
Mof_H 	H 	0.9539	0.3808	0.2225	0.027
Mof_C 	C 	0.92967	0.47919	0.13887	-0.083
Mof_H 	H 	0.928	0.4925	0.0981	0.049
Mof_H 	H 	0.8828	0.4492	0.1479	0.041
Mof_C 	C 	0.93032	0.55511	0.1749	-0.063
Mof_H 	H 	0.8829	0.5577	0.1981	0.033
Mof_H 	H 	0.9308	0.6001	0.1492	0.036
Mof_H 	H 	0.7369	0.2961	0.0243	0.033
Mof_H 	H 	0.6308	0.2039	0.9725	0.043
Mof_C 	C 	0.72919	0.17967	0.88887	-0.075
Mof_H 	H 	0.7425	0.178	0.8481	0.052
Mof_H 	H 	0.6992	0.1328	0.8979	0.041
Mof_C 	C 	0.80511	0.18032	0.9249	-0.051
Mof_H 	H 	0.8077	0.1329	0.9481	0.031
Mof_H 	H 	0.8501	0.1808	0.8992	0.035
Mof_H 	H 	0.2369	0.7961	0.5243	0.037
Mof_H 	H 	0.1308	0.7039	0.4725	0.042
Mof_C 	C 	0.22919	0.67967	0.38887	-0.074
Mof_H 	H 	0.2425	0.678	0.3481	0.051
Mof_H 	H 	0.1992	0.6328	0.3979	0.041
Mof_C 	C 	0.30511	0.68032	0.4249	-0.053
Mof_H 	H 	0.3077	0.6329	0.4481	0.032
Mof_H 	H 	0.3501	0.6808	0.3992	0.037
Mof_H 	H 	0.7631	0.7039	0.5243	0.037
Mof_H 	H 	0.8692	0.7961	0.4725	0.037
Mof_C 	C 	0.77081	0.82033	0.38887	-0.073
Mof_H 	H 	0.7575	0.822	0.3481	0.05
Mof_H 	H 	0.8008	0.8672	0.3979	0.038
Mof_C 	C 	0.69489	0.81968	0.4249	-0.054
Mof_H 	H 	0.6923	0.8671	0.4481	0.032
Mof_H 	H 	0.6499	0.8192	0.3992	0.037
Mof_H 	H 	0.2631	0.2039	0.0243	0.032
Mof_H 	H 	0.3692	0.2961	0.9725	0.043
Mof_C 	C 	0.27081	0.32033	0.88887	-0.074
Mof_H 	H 	0.2575	0.322	0.8481	0.051
Mof_H 	H 	0.3008	0.3672	0.8979	0.041
Mof_C 	C 	0.19489	0.31968	0.9249	-0.053
Mof_H 	H 	0.1923	0.3671	0.9481	0.032
Mof_H 	H 	0.1499	0.3192	0.8992	0.037
Mof_H 	H 	0.4539	0.9869	0.7743	0.036
Mof_H 	H 	0.5461	0.8808	0.7225	0.041
Mof_C 	C 	0.57033	0.97919	0.63887	-0.076
Mof_H 	H 	0.572	0.9925	0.5981	0.051
Mof_H 	H 	0.6172	0.9492	0.6479	0.04
Mof_C 	C 	0.56968	0.05511	0.6749	-0.052
Mof_H 	H 	0.6171	0.0577	0.6981	0.032
Mof_H 	H 	0.5692	0.1001	0.6492	0.037
Mof_H 	H 	0.9539	0.4869	0.2743	0.022
Mof_H 	H 	0.0461	0.3808	0.2225	0.038
Mof_C 	C 	0.07033	0.47919	0.13887	-0.073
Mof_H 	H 	0.072	0.4925	0.0981	0.052
Mof_H 	H 	0.1172	0.4492	0.1479	0.04
Mof_C 	C 	0.06968	0.55511	0.1749	-0.053
Mof_H 	H 	0.1171	0.5577	0.1981	0.032
Mof_H 	H 	0.0692	0.6001	0.1492	0.039
Mof_H 	H 	0.0461	0.0131	0.2743	0.033
Mof_H 	H 	0.9539	0.1192	0.2225	0.027
Mof_C 	C 	0.92967	0.02081	0.13887	-0.086
Mof_H 	H 	0.928	0.0075	0.0981	0.049
Mof_H 	H 	0.8828	0.0508	0.1479	0.042
Mof_C 	C 	0.93032	0.94489	0.1749	-0.059
Mof_H 	H 	0.8829	0.9423	0.1981	0.033
Mof_H 	H 	0.9308	0.8999	0.1492	0.035
Mof_H 	H 	0.5461	0.5131	0.7743	0.037
Mof_H 	H 	0.4539	0.6192	0.7225	0.041
Mof_C 	C 	0.42967	0.52081	0.63887	-0.074
Mof_H 	H 	0.428	0.5075	0.5981	0.051
Mof_H 	H 	0.3828	0.5508	0.6479	0.041
Mof_C 	C 	0.43032	0.44489	0.6749	-0.053
Mof_H 	H 	0.3829	0.4423	0.6981	0.032
Mof_H 	H 	0.4308	0.3999	0.6492	0.037
Mof_Cu	Cu	0.41143	0.75	0.51576	0.742
Mof_I 	I 	0.36888	0.75	0.62802	-0.6
Mof_N 	N 	0.30844	0.75	0.46342	-0.176
Mof_N 	N 	0.1806	0.75	0.40052	-0.169
Mof_C 	C 	0.23664	0.75	0.49967	-0.058
Mof_C 	C 	0.1618	0.75	0.46325	-0.07
Mof_Cu	Cu	0.08857	0.25	0.01576	0.741
Mof_I 	I 	0.13112	0.25	0.12802	-0.599
Mof_N 	N 	0.19156	0.25	0.96342	-0.177
Mof_N 	N 	0.3194	0.25	0.90052	-0.168
Mof_C 	C 	0.26336	0.25	0.99967	-0.048
Mof_C 	C 	0.3382	0.25	0.96325	-0.074
Mof_Cu	Cu	5.11605e-33	0.83857	0.26576	0.746
Mof_I 	I 	1.92641e-33	0.88112	0.37802	-0.587
Mof_N 	N 	4.84932e-33	0.94156	0.21342	-0.172
Mof_N 	N 	-1.1138e-33	0.0694	0.15052	-0.165
Mof_C 	C 	5.03405e-33	0.01336	0.24967	-0.041
Mof_C 	C 	4.84846e-33	0.0882	0.21325	-0.051
Mof_Cu	Cu	0.5	0.33857	0.76576	0.742
Mof_I 	I 	0.5	0.38112	0.87802	-0.601
Mof_N 	N 	0.5	0.44156	0.71342	-0.176
Mof_N 	N 	0.5	0.5694	0.65052	-0.169
Mof_C 	C 	0.5	0.51336	0.74967	-0.058
Mof_C 	C 	0.5	0.5882	0.71325	-0.07
Mof_Cu	Cu	0.5	0.16143	0.76576	0.742
Mof_I 	I 	0.5	0.11888	0.87802	-0.599
Mof_N 	N 	0.5	0.05844	0.71342	-0.176
Mof_N 	N 	0.5	0.9306	0.65052	-0.169
Mof_C 	C 	0.5	0.98664	0.74967	-0.059
Mof_C 	C 	0.5	0.9118	0.71325	-0.069
Mof_Cu	Cu	5.11605e-33	0.66143	0.26576	0.746
Mof_I 	I 	-1.31205e-32	0.61888	0.37802	-0.587
Mof_N 	N 	-1.01976e-32	0.55844	0.21342	-0.172
Mof_N 	N 	-4.87552e-33	0.4306	0.15052	-0.165
Mof_C 	C 	-2.48939e-33	0.48664	0.24967	-0.038
Mof_C 	C 	4.84846e-33	0.4118	0.21325	-0.051
Mof_Cu	Cu	0.91143	0.25	0.01576	0.735
Mof_I 	I 	0.86888	0.25	0.12802	-0.61
Mof_N 	N 	0.80844	0.25	0.96342	-0.178
Mof_N 	N 	0.6806	0.25	0.90052	-0.168
Mof_C 	C 	0.73664	0.25	0.99967	-0.048
Mof_C 	C 	0.6618	0.25	0.96325	-0.074
Mof_Cu	Cu	0.58857	0.75	0.51576	0.742
Mof_I 	I 	0.63112	0.75	0.62802	-0.602
Mof_N 	N 	0.69156	0.75	0.46342	-0.176
Mof_N 	N 	0.8194	0.75	0.40052	-0.171
Mof_C 	C 	0.76336	0.75	0.49967	-0.059
Mof_C 	C 	0.8382	0.75	0.46325	-0.067
Mof_Cu	Cu	0.5	0.8281	0.59994	0.73
Mof_I 	I 	0.5	0.87596	0.4906	-0.623
Mof_Cu	Cu	5.21145e-33	0.3281	0.09994	0.734
Mof_I 	I 	-9.99873e-33	0.37596	0.9906	-0.609
Mof_Cu	Cu	1.44973e-33	0.1719	0.09994	0.734
Mof_I 	I 	5.04816e-33	0.12404	0.9906	-0.607
Mof_Cu	Cu	0.5	0.6719	0.59994	0.73
Mof_I 	I 	0.5	0.62404	0.4906	-0.623
Mof_Cu	Cu	0.0781	0.75	0.34994	0.731
Mof_I 	I 	0.12596	0.75	0.2406	-0.621
Mof_Cu	Cu	0.4219	0.25	0.84994	0.73
Mof_I 	I 	0.37404	0.25	0.7406	-0.623
Mof_Cu	Cu	0.5781	0.25	0.84994	0.73
Mof_I 	I 	0.62596	0.25	0.7406	-0.623
Mof_Cu	Cu	0.9219	0.75	0.34994	0.725
Mof_I 	I 	0.87404	0.75	0.2406	-0.632
_end
