data_functionalizedCrystal
_audit_creation_method	'EQeq! by Chris Wilmer'
_symmetry_space_group_name_H-M	'P1'
_symmetry_Int_Tables_number	1
_symmetry_cell_setting	triclinic
loop_
_symmetry_equiv_pos_as_xyz
  x,y,z
_cell_length_a	12.186
_cell_length_b	16.7342
_cell_length_c	27.629
_cell_angle_alpha	106.971
_cell_angle_beta	90
_cell_angle_gamma	111.353
loop_
_atom_site_label
_atom_site_type_symbol
_atom_site_fract_x
_atom_site_fract_y
_atom_site_fract_z
_atom_site_charge
Mof_Zn	Zn	0.15851	0.52102	0.12113	1.228
Mof_Zn	Zn	0.26789	0.35918	0.1246	1.17
Mof_Zn	Zn	0.28485	0.05058	0.82039	1.195
Mof_Zn	Zn	0.63749	0.47898	0.37887	1.228
Mof_Zn	Zn	0.90871	0.64082	0.3754	1.17
Mof_Zn	Zn	0.23427	0.94942	0.67961	1.195
Mof_Zn	Zn	0.84149	0.47898	0.87887	1.228
Mof_Zn	Zn	0.73211	0.64082	0.8754	1.17
Mof_Zn	Zn	0.71515	0.94942	0.17961	1.196
Mof_Zn	Zn	0.36251	0.52102	0.62113	1.229
Mof_Zn	Zn	0.09129	0.35918	0.6246	1.171
Mof_Zn	Zn	0.76573	0.05058	0.32039	1.196
Mof_H 	H 	0.2109	0.2372	0.9611	0.026
Mof_H 	H 	0.0185	0.2176	0.8358	0.042
Mof_H 	H 	0.0326	0.3992	0.9715	0.039
Mof_H 	H 	0.4778	0.5296	0.2608	0.023
Mof_H 	H 	0.7277	0.7802	0.32	0.019
Mof_H 	H 	0.49	0.7284	0.2027	0.017
Mof_H 	H 	0.9737	0.7628	0.5389	0.025
Mof_H 	H 	0.8009	0.7824	0.6642	0.042
Mof_H 	H 	0.6334	0.6008	0.5285	0.039
Mof_H 	H 	0.9482	0.4704	0.2392	0.023
Mof_H 	H 	0.9475	0.2198	0.18	0.019
Mof_H 	H 	0.7616	0.2716	0.2973	0.017
Mof_H 	H 	0.7891	0.7628	0.0389	0.026
Mof_H 	H 	0.9815	0.7824	0.1642	0.042
Mof_H 	H 	0.9674	0.6008	0.0285	0.039
Mof_H 	H 	0.5222	0.4704	0.7392	0.023
Mof_H 	H 	0.2723	0.2198	0.68	0.019
Mof_H 	H 	0.51	0.2716	0.7973	0.017
Mof_H 	H 	0.0263	0.2372	0.4611	0.025
Mof_H 	H 	0.1991	0.2176	0.3358	0.042
Mof_H 	H 	0.3666	0.3992	0.4715	0.039
Mof_H 	H 	0.0518	0.5296	0.7608	0.023
Mof_H 	H 	0.0525	0.7802	0.82	0.019
Mof_H 	H 	0.2384	0.7284	0.7027	0.017
Mof_C 	C 	0.12874	0.32428	0.97403	-0.146
Mof_C 	C 	0.16286	0.25692	0.9454	0.061
Mof_C 	C 	0.12583	0.21726	0.8925	-0.114
Mof_C 	C 	0.04738	0.24516	0.87018	0.042
Mof_C 	C 	0.01289	0.31358	0.89915	-0.114
Mof_C 	C 	0.0548	0.3534	0.95182	0.057
Mof_C 	C 	0.17015	0.3669	0.03048	0.417
Mof_C 	C 	0.16895	0.1499	0.861	0.308
Mof_C 	C 	0.9372	0.3486	0.8738	0.354
Mof_C 	C 	0.4656	0.619	0.2254	-0.158
Mof_C 	C 	0.51245	0.5893	0.26089	0.076
Mof_C 	C 	0.60998	0.65016	0.29557	-0.15
Mof_C 	C 	0.66188	0.73996	0.29661	0.08
Mof_C 	C 	0.6142	0.7692	0.2621	-0.157
Mof_C 	C 	0.51899	0.70898	0.22637	0.084
Mof_C 	C 	0.36335	0.5531	0.18628	0.394
Mof_C 	C 	0.66195	0.6175	0.33164	0.384
Mof_C 	C 	0.66952	0.86604	0.2619	0.392
Mof_C 	C 	0.80446	0.67572	0.52597	-0.146
Mof_C 	C 	0.90594	0.74308	0.5546	0.061
Mof_C 	C 	0.90857	0.78274	0.6075	-0.115
Mof_C 	C 	0.80222	0.75484	0.62982	0.042
Mof_C 	C 	0.69931	0.68642	0.60085	-0.113
Mof_C 	C 	0.7014	0.6466	0.54818	0.057
Mof_C 	C 	0.80325	0.6331	0.46952	0.417
Mof_C 	C 	0.01905	0.8501	0.639	0.308
Mof_C 	C 	0.5886	0.6514	0.6262	0.354
Mof_C 	C 	0.8466	0.381	0.2746	-0.158
Mof_C 	C 	0.92315	0.4107	0.23911	0.076
Mof_C 	C 	0.95982	0.34984	0.20443	-0.15
Mof_C 	C 	0.92192	0.26004	0.20339	0.079
Mof_C 	C 	0.845	0.2308	0.2379	-0.157
Mof_C 	C 	0.81001	0.29102	0.27363	0.084
Mof_C 	C 	0.81025	0.4469	0.31372	0.394
Mof_C 	C 	0.04445	0.3825	0.16836	0.383
Mof_C 	C 	0.80348	0.13396	0.2381	0.392
Mof_C 	C 	0.87126	0.67572	0.02597	-0.146
Mof_C 	C 	0.83714	0.74308	0.0546	0.061
Mof_C 	C 	0.87417	0.78274	0.1075	-0.114
Mof_C 	C 	0.95262	0.75484	0.12982	0.042
Mof_C 	C 	0.98711	0.68642	0.10085	-0.114
Mof_C 	C 	0.9452	0.6466	0.04818	0.057
Mof_C 	C 	0.82985	0.6331	0.96952	0.417
Mof_C 	C 	0.83105	0.8501	0.139	0.308
Mof_C 	C 	0.0628	0.6514	0.1262	0.354
Mof_C 	C 	0.5344	0.381	0.7746	-0.158
Mof_C 	C 	0.48755	0.4107	0.73911	0.076
Mof_C 	C 	0.39002	0.34984	0.70443	-0.15
Mof_C 	C 	0.33812	0.26004	0.70339	0.08
Mof_C 	C 	0.3858	0.2308	0.7379	-0.157
Mof_C 	C 	0.48101	0.29102	0.77363	0.084
Mof_C 	C 	0.63665	0.4469	0.81372	0.394
Mof_C 	C 	0.33805	0.3825	0.66836	0.384
Mof_C 	C 	0.33048	0.13396	0.7381	0.392
Mof_C 	C 	0.19554	0.32428	0.47403	-0.146
Mof_C 	C 	0.09406	0.25692	0.4454	0.061
Mof_C 	C 	0.09143	0.21726	0.3925	-0.115
Mof_C 	C 	0.19778	0.24516	0.37018	0.042
Mof_C 	C 	0.30069	0.31358	0.39915	-0.113
Mof_C 	C 	0.2986	0.3534	0.45182	0.057
Mof_C 	C 	0.19675	0.3669	0.53048	0.417
Mof_C 	C 	0.98095	0.1499	0.361	0.308
Mof_C 	C 	0.4114	0.3486	0.3738	0.354
Mof_C 	C 	0.1534	0.619	0.7254	-0.158
Mof_C 	C 	0.07685	0.5893	0.76089	0.076
Mof_C 	C 	0.04018	0.65016	0.79557	-0.15
Mof_C 	C 	0.07808	0.73996	0.79661	0.079
Mof_C 	C 	0.155	0.7692	0.7621	-0.157
Mof_C 	C 	0.18999	0.70898	0.72637	0.084
Mof_C 	C 	0.18975	0.5531	0.68628	0.394
Mof_C 	C 	0.95555	0.6175	0.83164	0.383
Mof_C 	C 	0.19652	0.86604	0.7619	0.392
Mof_O 	O 	0.14979	0.43658	0.05266	-0.499
Mof_O 	O 	0.22404	0.33148	0.0509	-0.527
Mof_O 	O 	0.24714	0.13208	0.88085	-0.454
Mof_O 	O 	0.13044	0.11168	0.81307	-0.328
Mof_O 	O 	0.912	0.319	0.82818	-0.311
Mof_O 	O 	0.90847	0.40954	0.90458	-0.453
Mof_O 	O 	0.32179	0.58358	0.15675	-0.494
Mof_O 	O 	0.32584	0.47208	0.18508	-0.519
Mof_O 	O 	0.60027	0.53934	0.33384	-0.477
Mof_O 	O 	0.764	0.6692	0.35697	-0.475
Mof_O 	O 	0.74477	0.92234	0.29943	-0.499
Mof_O 	O 	0.63146	0.88552	0.22591	-0.533
Mof_O 	O 	0.71321	0.56342	0.44734	-0.499
Mof_O 	O 	0.89256	0.66852	0.4491	-0.527
Mof_O 	O 	0.11506	0.86792	0.61915	-0.454
Mof_O 	O 	0.01876	0.88832	0.68693	-0.328
Mof_O 	O 	0.593	0.681	0.67182	-0.311
Mof_O 	O 	0.49893	0.59046	0.59542	-0.453
Mof_O 	O 	0.73821	0.41642	0.34325	-0.494
Mof_O 	O 	0.85376	0.52792	0.31492	-0.519
Mof_O 	O 	0.06093	0.46066	0.16616	-0.477
Mof_O 	O 	0.0948	0.3308	0.14303	-0.475
Mof_O 	O 	0.82243	0.07766	0.20057	-0.498
Mof_O 	O 	0.74594	0.11448	0.27409	-0.533
Mof_O 	O 	0.85021	0.56342	0.94734	-0.499
Mof_O 	O 	0.77596	0.66852	0.9491	-0.527
Mof_O 	O 	0.75286	0.86792	0.11915	-0.454
Mof_O 	O 	0.86956	0.88832	0.18693	-0.328
Mof_O 	O 	0.088	0.681	0.17182	-0.311
Mof_O 	O 	0.09153	0.59046	0.09542	-0.453
Mof_O 	O 	0.67821	0.41642	0.84325	-0.494
Mof_O 	O 	0.67416	0.52792	0.81492	-0.519
Mof_O 	O 	0.39973	0.46066	0.66616	-0.477
Mof_O 	O 	0.236	0.3308	0.64303	-0.475
Mof_O 	O 	0.25523	0.07766	0.70057	-0.499
Mof_O 	O 	0.36854	0.11448	0.77409	-0.533
Mof_O 	O 	0.28679	0.43658	0.55266	-0.499
Mof_O 	O 	0.10744	0.33148	0.5509	-0.527
Mof_O 	O 	0.88494	0.13208	0.38085	-0.454
Mof_O 	O 	0.98124	0.11168	0.31307	-0.328
Mof_O 	O 	0.407	0.319	0.32818	-0.311
Mof_O 	O 	0.50107	0.40954	0.40458	-0.453
Mof_O 	O 	0.26179	0.58358	0.65675	-0.494
Mof_O 	O 	0.14624	0.47208	0.68508	-0.519
Mof_O 	O 	0.93907	0.53934	0.83384	-0.477
Mof_O 	O 	0.9052	0.6692	0.85697	-0.475
Mof_O 	O 	0.17757	0.92234	0.79943	-0.498
Mof_O 	O 	0.25406	0.88552	0.72591	-0.533
_end
