data_functionalizedCrystal
_audit_creation_method	'EQeq! by Chris Wilmer'
_symmetry_space_group_name_H-M	'P1'
_symmetry_Int_Tables_number	1
_symmetry_cell_setting	triclinic
loop_
_symmetry_equiv_pos_as_xyz
  x,y,z
_cell_length_a	36.3997
_cell_length_b	36.3997
_cell_length_c	36.3997
_cell_angle_alpha	90
_cell_angle_beta	90
_cell_angle_gamma	90
loop_
_atom_site_label
_atom_site_type_symbol
_atom_site_fract_x
_atom_site_fract_y
_atom_site_fract_z
_atom_site_charge
Mof_Cu	Cu	0.89012	0.67053	0.58582	0.796
Mof_Cu	Cu	0.95316	0.73158	0.55467	0.785
Mof_S 	S 	0.96823	0.71101	0.45733	-0.544
Mof_S 	S 	0.83026	0.68437	0.60173	-0.485
Mof_N 	N 	0.93023	0.69552	0.52054	-0.269
Mof_N 	N 	0.90299	0.67102	0.53238	-0.247
Mof_N 	N 	0.91491	0.66055	0.47489	-0.252
Mof_H 	H 	0.9141	0.6509	0.4534	0.128
Mof_N 	N 	0.86909	0.62337	0.50366	-0.331
Mof_H 	H 	0.8564	0.6186	0.523	0.129
Mof_H 	H 	0.8655	0.611	0.4839	0.146
Mof_N 	N 	0.80433	0.61907	0.57466	-0.268
Mof_N 	N 	0.78059	0.60725	0.54638	-0.255
Mof_N 	N 	0.78403	0.66699	0.54559	-0.251
Mof_H 	H 	0.7804	0.6895	0.5395	0.123
Mof_N 	N 	0.74583	0.63846	0.50081	-0.325
Mof_H 	H 	0.7369	0.6184	0.492	0.102
Mof_H 	H 	0.7398	0.6592	0.4913	0.132
Mof_C 	C 	0.9366	0.68909	0.48587	0.152
Mof_C 	C 	0.89497	0.65052	0.50439	0.217
Mof_C 	C 	0.80555	0.65497	0.57304	0.138
Mof_C 	C 	0.7692	0.63737	0.5294	0.199
Mof_Cu	Cu	0.89012	0.17053	0.08582	0.796
Mof_Cu	Cu	0.95316	0.23158	0.05467	0.784
Mof_S 	S 	0.96823	0.21101	0.95733	-0.542
Mof_S 	S 	0.83026	0.18437	0.10173	-0.485
Mof_N 	N 	0.93023	0.19552	0.02054	-0.273
Mof_N 	N 	0.90299	0.17102	0.03238	-0.246
Mof_N 	N 	0.91491	0.16055	0.97489	-0.249
Mof_H 	H 	0.9141	0.1509	0.9534	0.128
Mof_N 	N 	0.86909	0.12337	0.00366	-0.337
Mof_H 	H 	0.8564	0.1186	0.023	0.129
Mof_H 	H 	0.8655	0.111	0.9839	0.152
Mof_N 	N 	0.80433	0.11907	0.07466	-0.268
Mof_N 	N 	0.78059	0.10725	0.04638	-0.256
Mof_N 	N 	0.78403	0.16699	0.04559	-0.251
Mof_H 	H 	0.7804	0.1895	0.0395	0.122
Mof_N 	N 	0.74583	0.13846	0.00081	-0.34
Mof_H 	H 	0.7369	0.1184	0.992	0.112
Mof_H 	H 	0.7398	0.1592	0.9913	0.141
Mof_C 	C 	0.9366	0.18909	0.98587	0.159
Mof_C 	C 	0.89497	0.15052	0.00439	0.21
Mof_C 	C 	0.80555	0.15497	0.07304	0.138
Mof_C 	C 	0.7692	0.13737	0.0294	0.2
Mof_Cu	Cu	0.39012	0.67053	0.08582	0.796
Mof_Cu	Cu	0.45316	0.73158	0.05467	0.783
Mof_S 	S 	0.46823	0.71101	0.95733	-0.547
Mof_S 	S 	0.33026	0.68437	0.10173	-0.485
Mof_N 	N 	0.43023	0.69552	0.02054	-0.274
Mof_N 	N 	0.40299	0.67102	0.03238	-0.246
Mof_N 	N 	0.41491	0.66055	0.97489	-0.249
Mof_H 	H 	0.4141	0.6509	0.9534	0.128
Mof_N 	N 	0.36909	0.62337	0.00366	-0.337
Mof_H 	H 	0.3564	0.6186	0.023	0.129
Mof_H 	H 	0.3655	0.611	0.9839	0.152
Mof_N 	N 	0.30433	0.61907	0.07466	-0.268
Mof_N 	N 	0.28059	0.60725	0.04638	-0.256
Mof_N 	N 	0.28403	0.66699	0.04559	-0.251
Mof_H 	H 	0.2804	0.6895	0.0395	0.122
Mof_N 	N 	0.24583	0.63846	0.00081	-0.34
Mof_H 	H 	0.2369	0.6184	0.992	0.112
Mof_H 	H 	0.2398	0.6592	0.9913	0.141
Mof_C 	C 	0.4366	0.68909	0.98587	0.159
Mof_C 	C 	0.39497	0.65052	0.00439	0.21
Mof_C 	C 	0.30555	0.65497	0.07304	0.138
Mof_C 	C 	0.2692	0.63737	0.0294	0.2
Mof_Cu	Cu	0.39012	0.17053	0.58582	0.796
Mof_Cu	Cu	0.45316	0.23158	0.55467	0.783
Mof_S 	S 	0.46823	0.21101	0.45733	-0.55
Mof_S 	S 	0.33026	0.18437	0.60173	-0.485
Mof_N 	N 	0.43023	0.19552	0.52054	-0.27
Mof_N 	N 	0.40299	0.17102	0.53238	-0.247
Mof_N 	N 	0.41491	0.16055	0.47489	-0.252
Mof_H 	H 	0.4141	0.1509	0.4534	0.127
Mof_N 	N 	0.36909	0.12337	0.50366	-0.331
Mof_H 	H 	0.3564	0.1186	0.523	0.128
Mof_H 	H 	0.3655	0.111	0.4839	0.145
Mof_N 	N 	0.30433	0.11907	0.57466	-0.268
Mof_N 	N 	0.28059	0.10725	0.54638	-0.255
Mof_N 	N 	0.28403	0.16699	0.54559	-0.251
Mof_H 	H 	0.2804	0.1895	0.5395	0.123
Mof_N 	N 	0.24583	0.13846	0.50081	-0.325
Mof_H 	H 	0.2369	0.1184	0.492	0.102
Mof_H 	H 	0.2398	0.1592	0.4913	0.132
Mof_C 	C 	0.4366	0.18909	0.48587	0.152
Mof_C 	C 	0.39497	0.15052	0.50439	0.216
Mof_C 	C 	0.30555	0.15497	0.57304	0.138
Mof_C 	C 	0.2692	0.13737	0.5294	0.199
Mof_Cu	Cu	0.10988	0.32947	0.58582	0.796
Mof_Cu	Cu	0.04684	0.26842	0.55467	0.782
Mof_S 	S 	0.03177	0.28899	0.45733	-0.554
Mof_S 	S 	0.16974	0.31563	0.60173	-0.485
Mof_N 	N 	0.06977	0.30448	0.52054	-0.27
Mof_N 	N 	0.09701	0.32898	0.53238	-0.247
Mof_N 	N 	0.08509	0.33945	0.47489	-0.252
Mof_H 	H 	0.0859	0.3491	0.4534	0.127
Mof_N 	N 	0.13091	0.37663	0.50366	-0.331
Mof_H 	H 	0.1436	0.3814	0.523	0.128
Mof_H 	H 	0.1345	0.389	0.4839	0.145
Mof_N 	N 	0.19567	0.38093	0.57466	-0.268
Mof_N 	N 	0.21941	0.39275	0.54638	-0.255
Mof_N 	N 	0.21597	0.33301	0.54559	-0.251
Mof_H 	H 	0.2196	0.3105	0.5395	0.123
Mof_N 	N 	0.25417	0.36154	0.50081	-0.325
Mof_H 	H 	0.2631	0.3816	0.492	0.102
Mof_H 	H 	0.2602	0.3408	0.4913	0.132
Mof_C 	C 	0.0634	0.31091	0.48587	0.152
Mof_C 	C 	0.10503	0.34948	0.50439	0.216
Mof_C 	C 	0.19445	0.34503	0.57304	0.138
Mof_C 	C 	0.2308	0.36263	0.5294	0.199
Mof_Cu	Cu	0.10988	0.82947	0.08582	0.796
Mof_Cu	Cu	0.04684	0.76842	0.05467	0.782
Mof_S 	S 	0.03177	0.78899	0.95733	-0.551
Mof_S 	S 	0.16974	0.81563	0.10173	-0.485
Mof_N 	N 	0.06977	0.80448	0.02054	-0.274
Mof_N 	N 	0.09701	0.82898	0.03238	-0.246
Mof_N 	N 	0.08509	0.83945	0.97489	-0.249
Mof_H 	H 	0.0859	0.8491	0.9534	0.128
Mof_N 	N 	0.13091	0.87663	0.00366	-0.337
Mof_H 	H 	0.1436	0.8814	0.023	0.129
Mof_H 	H 	0.1345	0.889	0.9839	0.152
Mof_N 	N 	0.19567	0.88093	0.07466	-0.268
Mof_N 	N 	0.21941	0.89275	0.04638	-0.256
Mof_N 	N 	0.21597	0.83301	0.04559	-0.251
Mof_H 	H 	0.2196	0.8105	0.0395	0.122
Mof_N 	N 	0.25417	0.86154	0.00081	-0.34
Mof_H 	H 	0.2631	0.8816	0.992	0.111
Mof_H 	H 	0.2602	0.8408	0.9913	0.141
Mof_C 	C 	0.0634	0.81091	0.98587	0.159
Mof_C 	C 	0.10503	0.84948	0.00439	0.21
Mof_C 	C 	0.19445	0.84503	0.07304	0.138
Mof_C 	C 	0.2308	0.86263	0.0294	0.2
Mof_Cu	Cu	0.60988	0.32947	0.08582	0.796
Mof_Cu	Cu	0.54684	0.26842	0.05467	0.783
Mof_S 	S 	0.53177	0.28899	0.95733	-0.547
Mof_S 	S 	0.66974	0.31563	0.10173	-0.485
Mof_N 	N 	0.56977	0.30448	0.02054	-0.274
Mof_N 	N 	0.59701	0.32898	0.03238	-0.246
Mof_N 	N 	0.58509	0.33945	0.97489	-0.249
Mof_H 	H 	0.5859	0.3491	0.9534	0.128
Mof_N 	N 	0.63091	0.37663	0.00366	-0.337
Mof_H 	H 	0.6436	0.3814	0.023	0.129
Mof_H 	H 	0.6345	0.389	0.9839	0.152
Mof_N 	N 	0.69567	0.38093	0.07466	-0.268
Mof_N 	N 	0.71941	0.39275	0.04638	-0.256
Mof_N 	N 	0.71597	0.33301	0.04559	-0.251
Mof_H 	H 	0.7196	0.3105	0.0395	0.122
Mof_N 	N 	0.75417	0.36154	0.00081	-0.34
Mof_H 	H 	0.7631	0.3816	0.992	0.111
Mof_H 	H 	0.7602	0.3408	0.9913	0.141
Mof_C 	C 	0.5634	0.31091	0.98587	0.159
Mof_C 	C 	0.60503	0.34948	0.00439	0.21
Mof_C 	C 	0.69445	0.34503	0.07304	0.138
Mof_C 	C 	0.7308	0.36263	0.0294	0.2
Mof_Cu	Cu	0.60988	0.82947	0.58582	0.796
Mof_Cu	Cu	0.54684	0.76842	0.55467	0.783
Mof_S 	S 	0.53177	0.78899	0.45733	-0.55
Mof_S 	S 	0.66974	0.81563	0.60173	-0.485
Mof_N 	N 	0.56977	0.80448	0.52054	-0.27
Mof_N 	N 	0.59701	0.82898	0.53238	-0.247
Mof_N 	N 	0.58509	0.83945	0.47489	-0.252
Mof_H 	H 	0.5859	0.8491	0.4534	0.128
Mof_N 	N 	0.63091	0.87663	0.50366	-0.331
Mof_H 	H 	0.6436	0.8814	0.523	0.129
Mof_H 	H 	0.6345	0.889	0.4839	0.146
Mof_N 	N 	0.69567	0.88093	0.57466	-0.268
Mof_N 	N 	0.71941	0.89275	0.54638	-0.255
Mof_N 	N 	0.71597	0.83301	0.54559	-0.251
Mof_H 	H 	0.7196	0.8105	0.5395	0.123
Mof_N 	N 	0.75417	0.86154	0.50081	-0.325
Mof_H 	H 	0.7631	0.8816	0.492	0.102
Mof_H 	H 	0.7602	0.8408	0.4913	0.132
Mof_C 	C 	0.5634	0.81091	0.48587	0.152
Mof_C 	C 	0.60503	0.84948	0.50439	0.216
Mof_C 	C 	0.69445	0.84503	0.57304	0.138
Mof_C 	C 	0.7308	0.86263	0.5294	0.199
Mof_Cu	Cu	0.10988	0.67053	0.41418	0.796
Mof_Cu	Cu	0.04684	0.73158	0.44533	0.782
Mof_S 	S 	0.03177	0.71101	0.54267	-0.554
Mof_S 	S 	0.16974	0.68437	0.39827	-0.485
Mof_N 	N 	0.06977	0.69552	0.47946	-0.27
Mof_N 	N 	0.09701	0.67102	0.46762	-0.247
Mof_N 	N 	0.08509	0.66055	0.52511	-0.252
Mof_H 	H 	0.0859	0.6509	0.5466	0.127
Mof_N 	N 	0.13091	0.62337	0.49634	-0.331
Mof_H 	H 	0.1436	0.6186	0.477	0.128
Mof_H 	H 	0.1345	0.611	0.5161	0.145
Mof_N 	N 	0.19567	0.61907	0.42534	-0.268
Mof_N 	N 	0.21941	0.60725	0.45362	-0.255
Mof_N 	N 	0.21597	0.66699	0.45441	-0.251
Mof_H 	H 	0.2196	0.6895	0.4605	0.123
Mof_N 	N 	0.25417	0.63846	0.49919	-0.325
Mof_H 	H 	0.2631	0.6184	0.508	0.102
Mof_H 	H 	0.2602	0.6592	0.5087	0.132
Mof_C 	C 	0.0634	0.68909	0.51413	0.152
Mof_C 	C 	0.10503	0.65052	0.49561	0.216
Mof_C 	C 	0.19445	0.65497	0.42696	0.138
Mof_C 	C 	0.2308	0.63737	0.4706	0.199
Mof_Cu	Cu	0.10988	0.17053	0.91418	0.796
Mof_Cu	Cu	0.04684	0.23158	0.94533	0.783
Mof_S 	S 	0.03177	0.21101	0.04267	-0.555
Mof_S 	S 	0.16974	0.18437	0.89827	-0.484
Mof_N 	N 	0.06977	0.19552	0.97946	-0.266
Mof_N 	N 	0.09701	0.17102	0.96762	-0.248
Mof_N 	N 	0.08509	0.16055	0.02511	-0.255
Mof_H 	H 	0.0859	0.1509	0.0466	0.127
Mof_N 	N 	0.13091	0.12337	0.99634	-0.324
Mof_H 	H 	0.1436	0.1186	0.977	0.128
Mof_H 	H 	0.1345	0.111	0.0161	0.138
Mof_N 	N 	0.19567	0.11907	0.92534	-0.268
Mof_N 	N 	0.21941	0.10725	0.95362	-0.253
Mof_N 	N 	0.21597	0.16699	0.95441	-0.25
Mof_H 	H 	0.2196	0.1895	0.9605	0.125
Mof_N 	N 	0.25417	0.13846	0.99919	-0.31
Mof_H 	H 	0.2631	0.1184	0.008	0.093
Mof_H 	H 	0.2602	0.1592	0.0087	0.123
Mof_C 	C 	0.0634	0.18909	0.01413	0.144
Mof_C 	C 	0.10503	0.15052	0.99561	0.221
Mof_C 	C 	0.19445	0.15497	0.92696	0.138
Mof_C 	C 	0.2308	0.13737	0.9706	0.199
Mof_Cu	Cu	0.60988	0.67053	0.91418	0.796
Mof_Cu	Cu	0.54684	0.73158	0.94533	0.784
Mof_S 	S 	0.53177	0.71101	0.04267	-0.551
Mof_S 	S 	0.66974	0.68437	0.89827	-0.484
Mof_N 	N 	0.56977	0.69552	0.97946	-0.266
Mof_N 	N 	0.59701	0.67102	0.96762	-0.247
Mof_N 	N 	0.58509	0.66055	0.02511	-0.255
Mof_H 	H 	0.5859	0.6509	0.0466	0.127
Mof_N 	N 	0.63091	0.62337	0.99634	-0.324
Mof_H 	H 	0.6436	0.6186	0.977	0.128
Mof_H 	H 	0.6345	0.611	0.0161	0.138
Mof_N 	N 	0.69567	0.61907	0.92534	-0.268
Mof_N 	N 	0.71941	0.60725	0.95362	-0.253
Mof_N 	N 	0.71597	0.66699	0.95441	-0.25
Mof_H 	H 	0.7196	0.6895	0.9605	0.124
Mof_N 	N 	0.75417	0.63846	0.99919	-0.31
Mof_H 	H 	0.7631	0.6184	0.008	0.093
Mof_H 	H 	0.7602	0.6592	0.0087	0.123
Mof_C 	C 	0.5634	0.68909	0.01413	0.144
Mof_C 	C 	0.60503	0.65052	0.99561	0.222
Mof_C 	C 	0.69445	0.65497	0.92696	0.138
Mof_C 	C 	0.7308	0.63737	0.9706	0.199
Mof_Cu	Cu	0.60988	0.17053	0.41418	0.796
Mof_Cu	Cu	0.54684	0.23158	0.44533	0.783
Mof_S 	S 	0.53177	0.21101	0.54267	-0.55
Mof_S 	S 	0.66974	0.18437	0.39827	-0.485
Mof_N 	N 	0.56977	0.19552	0.47946	-0.27
Mof_N 	N 	0.59701	0.17102	0.46762	-0.247
Mof_N 	N 	0.58509	0.16055	0.52511	-0.252
Mof_H 	H 	0.5859	0.1509	0.5466	0.127
Mof_N 	N 	0.63091	0.12337	0.49634	-0.331
Mof_H 	H 	0.6436	0.1186	0.477	0.128
Mof_H 	H 	0.6345	0.111	0.5161	0.145
Mof_N 	N 	0.69567	0.11907	0.42534	-0.268
Mof_N 	N 	0.71941	0.10725	0.45362	-0.255
Mof_N 	N 	0.71597	0.16699	0.45441	-0.251
Mof_H 	H 	0.7196	0.1895	0.4605	0.123
Mof_N 	N 	0.75417	0.13846	0.49919	-0.325
Mof_H 	H 	0.7631	0.1184	0.508	0.102
Mof_H 	H 	0.7602	0.1592	0.5087	0.132
Mof_C 	C 	0.5634	0.18909	0.51413	0.152
Mof_C 	C 	0.60503	0.15052	0.49561	0.216
Mof_C 	C 	0.69445	0.15497	0.42696	0.138
Mof_C 	C 	0.7308	0.13737	0.4706	0.199
Mof_Cu	Cu	0.89012	0.32947	0.41418	0.796
Mof_Cu	Cu	0.95316	0.26842	0.44533	0.785
Mof_S 	S 	0.96823	0.28899	0.54267	-0.544
Mof_S 	S 	0.83026	0.31563	0.39827	-0.485
Mof_N 	N 	0.93023	0.30448	0.47946	-0.269
Mof_N 	N 	0.90299	0.32898	0.46762	-0.247
Mof_N 	N 	0.91491	0.33945	0.52511	-0.252
Mof_H 	H 	0.9141	0.3491	0.5466	0.128
Mof_N 	N 	0.86909	0.37663	0.49634	-0.331
Mof_H 	H 	0.8564	0.3814	0.477	0.129
Mof_H 	H 	0.8655	0.389	0.5161	0.146
Mof_N 	N 	0.80433	0.38093	0.42534	-0.268
Mof_N 	N 	0.78059	0.39275	0.45362	-0.255
Mof_N 	N 	0.78403	0.33301	0.45441	-0.251
Mof_H 	H 	0.7804	0.3105	0.4605	0.123
Mof_N 	N 	0.74583	0.36154	0.49919	-0.325
Mof_H 	H 	0.7369	0.3816	0.508	0.102
Mof_H 	H 	0.7398	0.3408	0.5087	0.132
Mof_C 	C 	0.9366	0.31091	0.51413	0.152
Mof_C 	C 	0.89497	0.34948	0.49561	0.217
Mof_C 	C 	0.80555	0.34503	0.42696	0.138
Mof_C 	C 	0.7692	0.36263	0.4706	0.199
Mof_Cu	Cu	0.89012	0.82947	0.91418	0.796
Mof_Cu	Cu	0.95316	0.76842	0.94533	0.785
Mof_S 	S 	0.96823	0.78899	0.04267	-0.545
Mof_S 	S 	0.83026	0.81563	0.89827	-0.484
Mof_N 	N 	0.93023	0.80448	0.97946	-0.265
Mof_N 	N 	0.90299	0.82898	0.96762	-0.247
Mof_N 	N 	0.91491	0.83945	0.02511	-0.255
Mof_H 	H 	0.9141	0.8491	0.0466	0.128
Mof_N 	N 	0.86909	0.87663	0.99634	-0.325
Mof_H 	H 	0.8564	0.8814	0.977	0.128
Mof_H 	H 	0.8655	0.889	0.0161	0.139
Mof_N 	N 	0.80433	0.88093	0.92534	-0.268
Mof_N 	N 	0.78059	0.89275	0.95362	-0.253
Mof_N 	N 	0.78403	0.83301	0.95441	-0.25
Mof_H 	H 	0.7804	0.8105	0.9605	0.124
Mof_N 	N 	0.74583	0.86154	0.99919	-0.31
Mof_H 	H 	0.7369	0.8816	0.008	0.093
Mof_H 	H 	0.7398	0.8408	0.0087	0.123
Mof_C 	C 	0.9366	0.81091	0.01413	0.145
Mof_C 	C 	0.89497	0.84948	0.99561	0.223
Mof_C 	C 	0.80555	0.84503	0.92696	0.138
Mof_C 	C 	0.7692	0.86263	0.9706	0.199
Mof_Cu	Cu	0.39012	0.32947	0.91418	0.796
Mof_Cu	Cu	0.45316	0.26842	0.94533	0.784
Mof_S 	S 	0.46823	0.28899	0.04267	-0.551
Mof_S 	S 	0.33026	0.31563	0.89827	-0.484
Mof_N 	N 	0.43023	0.30448	0.97946	-0.266
Mof_N 	N 	0.40299	0.32898	0.96762	-0.247
Mof_N 	N 	0.41491	0.33945	0.02511	-0.255
Mof_H 	H 	0.4141	0.3491	0.0466	0.127
Mof_N 	N 	0.36909	0.37663	0.99634	-0.324
Mof_H 	H 	0.3564	0.3814	0.977	0.128
Mof_H 	H 	0.3655	0.389	0.0161	0.138
Mof_N 	N 	0.30433	0.38093	0.92534	-0.268
Mof_N 	N 	0.28059	0.39275	0.95362	-0.253
Mof_N 	N 	0.28403	0.33301	0.95441	-0.25
Mof_H 	H 	0.2804	0.3105	0.9605	0.125
Mof_N 	N 	0.24583	0.36154	0.99919	-0.31
Mof_H 	H 	0.2369	0.3816	0.008	0.093
Mof_H 	H 	0.2398	0.3408	0.0087	0.123
Mof_C 	C 	0.4366	0.31091	0.01413	0.144
Mof_C 	C 	0.39497	0.34948	0.99561	0.222
Mof_C 	C 	0.30555	0.34503	0.92696	0.138
Mof_C 	C 	0.2692	0.36263	0.9706	0.199
Mof_Cu	Cu	0.39012	0.82947	0.41418	0.796
Mof_Cu	Cu	0.45316	0.76842	0.44533	0.783
Mof_S 	S 	0.46823	0.78899	0.54267	-0.55
Mof_S 	S 	0.33026	0.81563	0.39827	-0.485
Mof_N 	N 	0.43023	0.80448	0.47946	-0.27
Mof_N 	N 	0.40299	0.82898	0.46762	-0.247
Mof_N 	N 	0.41491	0.83945	0.52511	-0.252
Mof_H 	H 	0.4141	0.8491	0.5466	0.128
Mof_N 	N 	0.36909	0.87663	0.49634	-0.331
Mof_H 	H 	0.3564	0.8814	0.477	0.129
Mof_H 	H 	0.3655	0.889	0.5161	0.146
Mof_N 	N 	0.30433	0.88093	0.42534	-0.268
Mof_N 	N 	0.28059	0.89275	0.45362	-0.255
Mof_N 	N 	0.28403	0.83301	0.45441	-0.251
Mof_H 	H 	0.2804	0.8105	0.4605	0.123
Mof_N 	N 	0.24583	0.86154	0.49919	-0.325
Mof_H 	H 	0.2369	0.8816	0.508	0.102
Mof_H 	H 	0.2398	0.8408	0.5087	0.132
Mof_C 	C 	0.4366	0.81091	0.51413	0.152
Mof_C 	C 	0.39497	0.84948	0.49561	0.216
Mof_C 	C 	0.30555	0.84503	0.42696	0.138
Mof_C 	C 	0.2692	0.86263	0.4706	0.199
Mof_Cu	Cu	0.58582	0.89012	0.67053	0.796
Mof_Cu	Cu	0.55467	0.95316	0.73158	0.785
Mof_S 	S 	0.45733	0.96823	0.71101	-0.544
Mof_S 	S 	0.60173	0.83026	0.68437	-0.485
Mof_N 	N 	0.52054	0.93023	0.69552	-0.269
Mof_N 	N 	0.53238	0.90299	0.67102	-0.247
Mof_N 	N 	0.47489	0.91491	0.66055	-0.252
Mof_H 	H 	0.4534	0.9141	0.6509	0.128
Mof_N 	N 	0.50366	0.86909	0.62337	-0.331
Mof_H 	H 	0.523	0.8564	0.6186	0.129
Mof_H 	H 	0.4839	0.8655	0.611	0.146
Mof_N 	N 	0.57466	0.80433	0.61907	-0.268
Mof_N 	N 	0.54638	0.78059	0.60725	-0.255
Mof_N 	N 	0.54559	0.78403	0.66699	-0.251
Mof_H 	H 	0.5395	0.7804	0.6895	0.123
Mof_N 	N 	0.50081	0.74583	0.63846	-0.325
Mof_H 	H 	0.492	0.7369	0.6184	0.102
Mof_H 	H 	0.4913	0.7398	0.6592	0.132
Mof_C 	C 	0.48587	0.9366	0.68909	0.152
Mof_C 	C 	0.50439	0.89497	0.65052	0.217
Mof_C 	C 	0.57304	0.80555	0.65497	0.138
Mof_C 	C 	0.5294	0.7692	0.63737	0.199
Mof_Cu	Cu	0.58582	0.39012	0.17053	0.796
Mof_Cu	Cu	0.55467	0.45316	0.23158	0.783
Mof_S 	S 	0.45733	0.46823	0.21101	-0.55
Mof_S 	S 	0.60173	0.33026	0.18437	-0.485
Mof_N 	N 	0.52054	0.43023	0.19552	-0.27
Mof_N 	N 	0.53238	0.40299	0.17102	-0.247
Mof_N 	N 	0.47489	0.41491	0.16055	-0.252
Mof_H 	H 	0.4534	0.4141	0.1509	0.127
Mof_N 	N 	0.50366	0.36909	0.12337	-0.331
Mof_H 	H 	0.523	0.3564	0.1186	0.128
Mof_H 	H 	0.4839	0.3655	0.111	0.145
Mof_N 	N 	0.57466	0.30433	0.11907	-0.268
Mof_N 	N 	0.54638	0.28059	0.10725	-0.255
Mof_N 	N 	0.54559	0.28403	0.16699	-0.251
Mof_H 	H 	0.5395	0.2804	0.1895	0.123
Mof_N 	N 	0.50081	0.24583	0.13846	-0.325
Mof_H 	H 	0.492	0.2369	0.1184	0.102
Mof_H 	H 	0.4913	0.2398	0.1592	0.132
Mof_C 	C 	0.48587	0.4366	0.18909	0.152
Mof_C 	C 	0.50439	0.39497	0.15052	0.216
Mof_C 	C 	0.57304	0.30555	0.15497	0.138
Mof_C 	C 	0.5294	0.2692	0.13737	0.199
Mof_Cu	Cu	0.08582	0.89012	0.17053	0.796
Mof_Cu	Cu	0.05467	0.95316	0.23158	0.784
Mof_S 	S 	0.95733	0.96823	0.21101	-0.542
Mof_S 	S 	0.10173	0.83026	0.18437	-0.485
Mof_N 	N 	0.02054	0.93023	0.19552	-0.273
Mof_N 	N 	0.03238	0.90299	0.17102	-0.246
Mof_N 	N 	0.97489	0.91491	0.16055	-0.249
Mof_H 	H 	0.9534	0.9141	0.1509	0.128
Mof_N 	N 	0.00366	0.86909	0.12337	-0.337
Mof_H 	H 	0.023	0.8564	0.1186	0.129
Mof_H 	H 	0.9839	0.8655	0.111	0.152
Mof_N 	N 	0.07466	0.80433	0.11907	-0.268
Mof_N 	N 	0.04638	0.78059	0.10725	-0.256
Mof_N 	N 	0.04559	0.78403	0.16699	-0.251
Mof_H 	H 	0.0395	0.7804	0.1895	0.122
Mof_N 	N 	0.00081	0.74583	0.13846	-0.34
Mof_H 	H 	0.992	0.7369	0.1184	0.112
Mof_H 	H 	0.9913	0.7398	0.1592	0.141
Mof_C 	C 	0.98587	0.9366	0.18909	0.159
Mof_C 	C 	0.00439	0.89497	0.15052	0.21
Mof_C 	C 	0.07304	0.80555	0.15497	0.138
Mof_C 	C 	0.0294	0.7692	0.13737	0.2
Mof_Cu	Cu	0.08582	0.39012	0.67053	0.796
Mof_Cu	Cu	0.05467	0.45316	0.73158	0.783
Mof_S 	S 	0.95733	0.46823	0.71101	-0.547
Mof_S 	S 	0.10173	0.33026	0.68437	-0.485
Mof_N 	N 	0.02054	0.43023	0.69552	-0.274
Mof_N 	N 	0.03238	0.40299	0.67102	-0.246
Mof_N 	N 	0.97489	0.41491	0.66055	-0.249
Mof_H 	H 	0.9534	0.4141	0.6509	0.128
Mof_N 	N 	0.00366	0.36909	0.62337	-0.337
Mof_H 	H 	0.023	0.3564	0.6186	0.129
Mof_H 	H 	0.9839	0.3655	0.611	0.152
Mof_N 	N 	0.07466	0.30433	0.61907	-0.268
Mof_N 	N 	0.04638	0.28059	0.60725	-0.256
Mof_N 	N 	0.04559	0.28403	0.66699	-0.251
Mof_H 	H 	0.0395	0.2804	0.6895	0.122
Mof_N 	N 	0.00081	0.24583	0.63846	-0.34
Mof_H 	H 	0.992	0.2369	0.6184	0.112
Mof_H 	H 	0.9913	0.2398	0.6592	0.141
Mof_C 	C 	0.98587	0.4366	0.68909	0.159
Mof_C 	C 	0.00439	0.39497	0.65052	0.21
Mof_C 	C 	0.07304	0.30555	0.65497	0.138
Mof_C 	C 	0.0294	0.2692	0.63737	0.2
Mof_Cu	Cu	0.58582	0.10988	0.32947	0.796
Mof_Cu	Cu	0.55467	0.04684	0.26842	0.782
Mof_S 	S 	0.45733	0.03177	0.28899	-0.554
Mof_S 	S 	0.60173	0.16974	0.31563	-0.485
Mof_N 	N 	0.52054	0.06977	0.30448	-0.27
Mof_N 	N 	0.53238	0.09701	0.32898	-0.247
Mof_N 	N 	0.47489	0.08509	0.33945	-0.252
Mof_H 	H 	0.4534	0.0859	0.3491	0.127
Mof_N 	N 	0.50366	0.13091	0.37663	-0.331
Mof_H 	H 	0.523	0.1436	0.3814	0.128
Mof_H 	H 	0.4839	0.1345	0.389	0.145
Mof_N 	N 	0.57466	0.19567	0.38093	-0.268
Mof_N 	N 	0.54638	0.21941	0.39275	-0.255
Mof_N 	N 	0.54559	0.21597	0.33301	-0.251
Mof_H 	H 	0.5395	0.2196	0.3105	0.123
Mof_N 	N 	0.50081	0.25417	0.36154	-0.325
Mof_H 	H 	0.492	0.2631	0.3816	0.102
Mof_H 	H 	0.4913	0.2602	0.3408	0.132
Mof_C 	C 	0.48587	0.0634	0.31091	0.152
Mof_C 	C 	0.50439	0.10503	0.34948	0.216
Mof_C 	C 	0.57304	0.19445	0.34503	0.138
Mof_C 	C 	0.5294	0.2308	0.36263	0.199
Mof_Cu	Cu	0.58582	0.60988	0.82947	0.796
Mof_Cu	Cu	0.55467	0.54684	0.76842	0.783
Mof_S 	S 	0.45733	0.53177	0.78899	-0.55
Mof_S 	S 	0.60173	0.66974	0.81563	-0.485
Mof_N 	N 	0.52054	0.56977	0.80448	-0.27
Mof_N 	N 	0.53238	0.59701	0.82898	-0.247
Mof_N 	N 	0.47489	0.58509	0.83945	-0.252
Mof_H 	H 	0.4534	0.5859	0.8491	0.128
Mof_N 	N 	0.50366	0.63091	0.87663	-0.331
Mof_H 	H 	0.523	0.6436	0.8814	0.129
Mof_H 	H 	0.4839	0.6345	0.889	0.146
Mof_N 	N 	0.57466	0.69567	0.88093	-0.268
Mof_N 	N 	0.54638	0.71941	0.89275	-0.255
Mof_N 	N 	0.54559	0.71597	0.83301	-0.251
Mof_H 	H 	0.5395	0.7196	0.8105	0.123
Mof_N 	N 	0.50081	0.75417	0.86154	-0.325
Mof_H 	H 	0.492	0.7631	0.8816	0.102
Mof_H 	H 	0.4913	0.7602	0.8408	0.132
Mof_C 	C 	0.48587	0.5634	0.81091	0.152
Mof_C 	C 	0.50439	0.60503	0.84948	0.216
Mof_C 	C 	0.57304	0.69445	0.84503	0.138
Mof_C 	C 	0.5294	0.7308	0.86263	0.199
Mof_Cu	Cu	0.08582	0.10988	0.82947	0.796
Mof_Cu	Cu	0.05467	0.04684	0.76842	0.782
Mof_S 	S 	0.95733	0.03177	0.78899	-0.551
Mof_S 	S 	0.10173	0.16974	0.81563	-0.485
Mof_N 	N 	0.02054	0.06977	0.80448	-0.274
Mof_N 	N 	0.03238	0.09701	0.82898	-0.246
Mof_N 	N 	0.97489	0.08509	0.83945	-0.249
Mof_H 	H 	0.9534	0.0859	0.8491	0.128
Mof_N 	N 	0.00366	0.13091	0.87663	-0.337
Mof_H 	H 	0.023	0.1436	0.8814	0.129
Mof_H 	H 	0.9839	0.1345	0.889	0.152
Mof_N 	N 	0.07466	0.19567	0.88093	-0.268
Mof_N 	N 	0.04638	0.21941	0.89275	-0.256
Mof_N 	N 	0.04559	0.21597	0.83301	-0.251
Mof_H 	H 	0.0395	0.2196	0.8105	0.122
Mof_N 	N 	0.00081	0.25417	0.86154	-0.34
Mof_H 	H 	0.992	0.2631	0.8816	0.111
Mof_H 	H 	0.9913	0.2602	0.8408	0.141
Mof_C 	C 	0.98587	0.0634	0.81091	0.159
Mof_C 	C 	0.00439	0.10503	0.84948	0.21
Mof_C 	C 	0.07304	0.19445	0.84503	0.138
Mof_C 	C 	0.0294	0.2308	0.86263	0.2
Mof_Cu	Cu	0.08582	0.60988	0.32947	0.796
Mof_Cu	Cu	0.05467	0.54684	0.26842	0.783
Mof_S 	S 	0.95733	0.53177	0.28899	-0.547
Mof_S 	S 	0.10173	0.66974	0.31563	-0.485
Mof_N 	N 	0.02054	0.56977	0.30448	-0.274
Mof_N 	N 	0.03238	0.59701	0.32898	-0.246
Mof_N 	N 	0.97489	0.58509	0.33945	-0.249
Mof_H 	H 	0.9534	0.5859	0.3491	0.128
Mof_N 	N 	0.00366	0.63091	0.37663	-0.337
Mof_H 	H 	0.023	0.6436	0.3814	0.129
Mof_H 	H 	0.9839	0.6345	0.389	0.152
Mof_N 	N 	0.07466	0.69567	0.38093	-0.268
Mof_N 	N 	0.04638	0.71941	0.39275	-0.256
Mof_N 	N 	0.04559	0.71597	0.33301	-0.251
Mof_H 	H 	0.0395	0.7196	0.3105	0.122
Mof_N 	N 	0.00081	0.75417	0.36154	-0.34
Mof_H 	H 	0.992	0.7631	0.3816	0.111
Mof_H 	H 	0.9913	0.7602	0.3408	0.141
Mof_C 	C 	0.98587	0.5634	0.31091	0.159
Mof_C 	C 	0.00439	0.60503	0.34948	0.21
Mof_C 	C 	0.07304	0.69445	0.34503	0.138
Mof_C 	C 	0.0294	0.7308	0.36263	0.2
Mof_Cu	Cu	0.41418	0.10988	0.67053	0.796
Mof_Cu	Cu	0.44533	0.04684	0.73158	0.782
Mof_S 	S 	0.54267	0.03177	0.71101	-0.554
Mof_S 	S 	0.39827	0.16974	0.68437	-0.485
Mof_N 	N 	0.47946	0.06977	0.69552	-0.27
Mof_N 	N 	0.46762	0.09701	0.67102	-0.247
Mof_N 	N 	0.52511	0.08509	0.66055	-0.252
Mof_H 	H 	0.5466	0.0859	0.6509	0.127
Mof_N 	N 	0.49634	0.13091	0.62337	-0.331
Mof_H 	H 	0.477	0.1436	0.6186	0.128
Mof_H 	H 	0.5161	0.1345	0.611	0.145
Mof_N 	N 	0.42534	0.19567	0.61907	-0.268
Mof_N 	N 	0.45362	0.21941	0.60725	-0.255
Mof_N 	N 	0.45441	0.21597	0.66699	-0.251
Mof_H 	H 	0.4605	0.2196	0.6895	0.123
Mof_N 	N 	0.49919	0.25417	0.63846	-0.325
Mof_H 	H 	0.508	0.2631	0.6184	0.102
Mof_H 	H 	0.5087	0.2602	0.6592	0.132
Mof_C 	C 	0.51413	0.0634	0.68909	0.152
Mof_C 	C 	0.49561	0.10503	0.65052	0.216
Mof_C 	C 	0.42696	0.19445	0.65497	0.138
Mof_C 	C 	0.4706	0.2308	0.63737	0.199
Mof_Cu	Cu	0.41418	0.60988	0.17053	0.796
Mof_Cu	Cu	0.44533	0.54684	0.23158	0.783
Mof_S 	S 	0.54267	0.53177	0.21101	-0.55
Mof_S 	S 	0.39827	0.66974	0.18437	-0.485
Mof_N 	N 	0.47946	0.56977	0.19552	-0.27
Mof_N 	N 	0.46762	0.59701	0.17102	-0.247
Mof_N 	N 	0.52511	0.58509	0.16055	-0.252
Mof_H 	H 	0.5466	0.5859	0.1509	0.127
Mof_N 	N 	0.49634	0.63091	0.12337	-0.331
Mof_H 	H 	0.477	0.6436	0.1186	0.128
Mof_H 	H 	0.5161	0.6345	0.111	0.145
Mof_N 	N 	0.42534	0.69567	0.11907	-0.268
Mof_N 	N 	0.45362	0.71941	0.10725	-0.255
Mof_N 	N 	0.45441	0.71597	0.16699	-0.251
Mof_H 	H 	0.4605	0.7196	0.1895	0.123
Mof_N 	N 	0.49919	0.75417	0.13846	-0.325
Mof_H 	H 	0.508	0.7631	0.1184	0.102
Mof_H 	H 	0.5087	0.7602	0.1592	0.132
Mof_C 	C 	0.51413	0.5634	0.18909	0.152
Mof_C 	C 	0.49561	0.60503	0.15052	0.216
Mof_C 	C 	0.42696	0.69445	0.15497	0.138
Mof_C 	C 	0.4706	0.7308	0.13737	0.199
Mof_Cu	Cu	0.91418	0.10988	0.17053	0.796
Mof_Cu	Cu	0.94533	0.04684	0.23158	0.783
Mof_S 	S 	0.04267	0.03177	0.21101	-0.555
Mof_S 	S 	0.89827	0.16974	0.18437	-0.484
Mof_N 	N 	0.97946	0.06977	0.19552	-0.266
Mof_N 	N 	0.96762	0.09701	0.17102	-0.248
Mof_N 	N 	0.02511	0.08509	0.16055	-0.255
Mof_H 	H 	0.0466	0.0859	0.1509	0.127
Mof_N 	N 	0.99634	0.13091	0.12337	-0.324
Mof_H 	H 	0.977	0.1436	0.1186	0.128
Mof_H 	H 	0.0161	0.1345	0.111	0.138
Mof_N 	N 	0.92534	0.19567	0.11907	-0.268
Mof_N 	N 	0.95362	0.21941	0.10725	-0.253
Mof_N 	N 	0.95441	0.21597	0.16699	-0.25
Mof_H 	H 	0.9605	0.2196	0.1895	0.125
Mof_N 	N 	0.99919	0.25417	0.13846	-0.31
Mof_H 	H 	0.008	0.2631	0.1184	0.093
Mof_H 	H 	0.0087	0.2602	0.1592	0.123
Mof_C 	C 	0.01413	0.0634	0.18909	0.144
Mof_C 	C 	0.99561	0.10503	0.15052	0.221
Mof_C 	C 	0.92696	0.19445	0.15497	0.138
Mof_C 	C 	0.9706	0.2308	0.13737	0.199
Mof_Cu	Cu	0.91418	0.60988	0.67053	0.796
Mof_Cu	Cu	0.94533	0.54684	0.73158	0.784
Mof_S 	S 	0.04267	0.53177	0.71101	-0.551
Mof_S 	S 	0.89827	0.66974	0.68437	-0.484
Mof_N 	N 	0.97946	0.56977	0.69552	-0.266
Mof_N 	N 	0.96762	0.59701	0.67102	-0.247
Mof_N 	N 	0.02511	0.58509	0.66055	-0.255
Mof_H 	H 	0.0466	0.5859	0.6509	0.127
Mof_N 	N 	0.99634	0.63091	0.62337	-0.324
Mof_H 	H 	0.977	0.6436	0.6186	0.128
Mof_H 	H 	0.0161	0.6345	0.611	0.138
Mof_N 	N 	0.92534	0.69567	0.61907	-0.268
Mof_N 	N 	0.95362	0.71941	0.60725	-0.253
Mof_N 	N 	0.95441	0.71597	0.66699	-0.25
Mof_H 	H 	0.9605	0.7196	0.6895	0.124
Mof_N 	N 	0.99919	0.75417	0.63846	-0.31
Mof_H 	H 	0.008	0.7631	0.6184	0.093
Mof_H 	H 	0.0087	0.7602	0.6592	0.123
Mof_C 	C 	0.01413	0.5634	0.68909	0.144
Mof_C 	C 	0.99561	0.60503	0.65052	0.222
Mof_C 	C 	0.92696	0.69445	0.65497	0.138
Mof_C 	C 	0.9706	0.7308	0.63737	0.199
Mof_Cu	Cu	0.41418	0.89012	0.32947	0.796
Mof_Cu	Cu	0.44533	0.95316	0.26842	0.785
Mof_S 	S 	0.54267	0.96823	0.28899	-0.544
Mof_S 	S 	0.39827	0.83026	0.31563	-0.485
Mof_N 	N 	0.47946	0.93023	0.30448	-0.269
Mof_N 	N 	0.46762	0.90299	0.32898	-0.247
Mof_N 	N 	0.52511	0.91491	0.33945	-0.252
Mof_H 	H 	0.5466	0.9141	0.3491	0.128
Mof_N 	N 	0.49634	0.86909	0.37663	-0.331
Mof_H 	H 	0.477	0.8564	0.3814	0.129
Mof_H 	H 	0.5161	0.8655	0.389	0.146
Mof_N 	N 	0.42534	0.80433	0.38093	-0.268
Mof_N 	N 	0.45362	0.78059	0.39275	-0.255
Mof_N 	N 	0.45441	0.78403	0.33301	-0.251
Mof_H 	H 	0.4605	0.7804	0.3105	0.123
Mof_N 	N 	0.49919	0.74583	0.36154	-0.325
Mof_H 	H 	0.508	0.7369	0.3816	0.102
Mof_H 	H 	0.5087	0.7398	0.3408	0.132
Mof_C 	C 	0.51413	0.9366	0.31091	0.152
Mof_C 	C 	0.49561	0.89497	0.34948	0.217
Mof_C 	C 	0.42696	0.80555	0.34503	0.138
Mof_C 	C 	0.4706	0.7692	0.36263	0.199
Mof_Cu	Cu	0.41418	0.39012	0.82947	0.796
Mof_Cu	Cu	0.44533	0.45316	0.76842	0.783
Mof_S 	S 	0.54267	0.46823	0.78899	-0.55
Mof_S 	S 	0.39827	0.33026	0.81563	-0.485
Mof_N 	N 	0.47946	0.43023	0.80448	-0.27
Mof_N 	N 	0.46762	0.40299	0.82898	-0.247
Mof_N 	N 	0.52511	0.41491	0.83945	-0.252
Mof_H 	H 	0.5466	0.4141	0.8491	0.128
Mof_N 	N 	0.49634	0.36909	0.87663	-0.331
Mof_H 	H 	0.477	0.3564	0.8814	0.129
Mof_H 	H 	0.5161	0.3655	0.889	0.146
Mof_N 	N 	0.42534	0.30433	0.88093	-0.268
Mof_N 	N 	0.45362	0.28059	0.89275	-0.255
Mof_N 	N 	0.45441	0.28403	0.83301	-0.251
Mof_H 	H 	0.4605	0.2804	0.8105	0.123
Mof_N 	N 	0.49919	0.24583	0.86154	-0.325
Mof_H 	H 	0.508	0.2369	0.8816	0.102
Mof_H 	H 	0.5087	0.2398	0.8408	0.132
Mof_C 	C 	0.51413	0.4366	0.81091	0.152
Mof_C 	C 	0.49561	0.39497	0.84948	0.216
Mof_C 	C 	0.42696	0.30555	0.84503	0.138
Mof_C 	C 	0.4706	0.2692	0.86263	0.199
Mof_Cu	Cu	0.91418	0.89012	0.82947	0.796
Mof_Cu	Cu	0.94533	0.95316	0.76842	0.785
Mof_S 	S 	0.04267	0.96823	0.78899	-0.545
Mof_S 	S 	0.89827	0.83026	0.81563	-0.484
Mof_N 	N 	0.97946	0.93023	0.80448	-0.265
Mof_N 	N 	0.96762	0.90299	0.82898	-0.247
Mof_N 	N 	0.02511	0.91491	0.83945	-0.255
Mof_H 	H 	0.0466	0.9141	0.8491	0.128
Mof_N 	N 	0.99634	0.86909	0.87663	-0.325
Mof_H 	H 	0.977	0.8564	0.8814	0.128
Mof_H 	H 	0.0161	0.8655	0.889	0.139
Mof_N 	N 	0.92534	0.80433	0.88093	-0.268
Mof_N 	N 	0.95362	0.78059	0.89275	-0.253
Mof_N 	N 	0.95441	0.78403	0.83301	-0.25
Mof_H 	H 	0.9605	0.7804	0.8105	0.124
Mof_N 	N 	0.99919	0.74583	0.86154	-0.31
Mof_H 	H 	0.008	0.7369	0.8816	0.093
Mof_H 	H 	0.0087	0.7398	0.8408	0.123
Mof_C 	C 	0.01413	0.9366	0.81091	0.145
Mof_C 	C 	0.99561	0.89497	0.84948	0.223
Mof_C 	C 	0.92696	0.80555	0.84503	0.138
Mof_C 	C 	0.9706	0.7692	0.86263	0.199
Mof_Cu	Cu	0.91418	0.39012	0.32947	0.796
Mof_Cu	Cu	0.94533	0.45316	0.26842	0.784
Mof_S 	S 	0.04267	0.46823	0.28899	-0.551
Mof_S 	S 	0.89827	0.33026	0.31563	-0.484
Mof_N 	N 	0.97946	0.43023	0.30448	-0.266
Mof_N 	N 	0.96762	0.40299	0.32898	-0.247
Mof_N 	N 	0.02511	0.41491	0.33945	-0.255
Mof_H 	H 	0.0466	0.4141	0.3491	0.127
Mof_N 	N 	0.99634	0.36909	0.37663	-0.324
Mof_H 	H 	0.977	0.3564	0.3814	0.128
Mof_H 	H 	0.0161	0.3655	0.389	0.138
Mof_N 	N 	0.92534	0.30433	0.38093	-0.268
Mof_N 	N 	0.95362	0.28059	0.39275	-0.253
Mof_N 	N 	0.95441	0.28403	0.33301	-0.25
Mof_H 	H 	0.9605	0.2804	0.3105	0.125
Mof_N 	N 	0.99919	0.24583	0.36154	-0.31
Mof_H 	H 	0.008	0.2369	0.3816	0.093
Mof_H 	H 	0.0087	0.2398	0.3408	0.123
Mof_C 	C 	0.01413	0.4366	0.31091	0.144
Mof_C 	C 	0.99561	0.39497	0.34948	0.222
Mof_C 	C 	0.92696	0.30555	0.34503	0.138
Mof_C 	C 	0.9706	0.2692	0.36263	0.199
Mof_Cu	Cu	0.67053	0.58582	0.89012	0.796
Mof_Cu	Cu	0.73158	0.55467	0.95316	0.785
Mof_S 	S 	0.71101	0.45733	0.96823	-0.544
Mof_S 	S 	0.68437	0.60173	0.83026	-0.485
Mof_N 	N 	0.69552	0.52054	0.93023	-0.269
Mof_N 	N 	0.67102	0.53238	0.90299	-0.247
Mof_N 	N 	0.66055	0.47489	0.91491	-0.252
Mof_H 	H 	0.6509	0.4534	0.9141	0.128
Mof_N 	N 	0.62337	0.50366	0.86909	-0.331
Mof_H 	H 	0.6186	0.523	0.8564	0.129
Mof_H 	H 	0.611	0.4839	0.8655	0.146
Mof_N 	N 	0.61907	0.57466	0.80433	-0.268
Mof_N 	N 	0.60725	0.54638	0.78059	-0.255
Mof_N 	N 	0.66699	0.54559	0.78403	-0.251
Mof_H 	H 	0.6895	0.5395	0.7804	0.123
Mof_N 	N 	0.63846	0.50081	0.74583	-0.325
Mof_H 	H 	0.6184	0.492	0.7369	0.102
Mof_H 	H 	0.6592	0.4913	0.7398	0.132
Mof_C 	C 	0.68909	0.48587	0.9366	0.152
Mof_C 	C 	0.65052	0.50439	0.89497	0.217
Mof_C 	C 	0.65497	0.57304	0.80555	0.138
Mof_C 	C 	0.63737	0.5294	0.7692	0.199
Mof_Cu	Cu	0.67053	0.08582	0.39012	0.796
Mof_Cu	Cu	0.73158	0.05467	0.45316	0.783
Mof_S 	S 	0.71101	0.95733	0.46823	-0.547
Mof_S 	S 	0.68437	0.10173	0.33026	-0.485
Mof_N 	N 	0.69552	0.02054	0.43023	-0.274
Mof_N 	N 	0.67102	0.03238	0.40299	-0.246
Mof_N 	N 	0.66055	0.97489	0.41491	-0.249
Mof_H 	H 	0.6509	0.9534	0.4141	0.128
Mof_N 	N 	0.62337	0.00366	0.36909	-0.337
Mof_H 	H 	0.6186	0.023	0.3564	0.129
Mof_H 	H 	0.611	0.9839	0.3655	0.152
Mof_N 	N 	0.61907	0.07466	0.30433	-0.268
Mof_N 	N 	0.60725	0.04638	0.28059	-0.256
Mof_N 	N 	0.66699	0.04559	0.28403	-0.251
Mof_H 	H 	0.6895	0.0395	0.2804	0.122
Mof_N 	N 	0.63846	0.00081	0.24583	-0.34
Mof_H 	H 	0.6184	0.992	0.2369	0.112
Mof_H 	H 	0.6592	0.9913	0.2398	0.141
Mof_C 	C 	0.68909	0.98587	0.4366	0.159
Mof_C 	C 	0.65052	0.00439	0.39497	0.21
Mof_C 	C 	0.65497	0.07304	0.30555	0.138
Mof_C 	C 	0.63737	0.0294	0.2692	0.2
Mof_Cu	Cu	0.17053	0.58582	0.39012	0.796
Mof_Cu	Cu	0.23158	0.55467	0.45316	0.783
Mof_S 	S 	0.21101	0.45733	0.46823	-0.55
Mof_S 	S 	0.18437	0.60173	0.33026	-0.485
Mof_N 	N 	0.19552	0.52054	0.43023	-0.27
Mof_N 	N 	0.17102	0.53238	0.40299	-0.247
Mof_N 	N 	0.16055	0.47489	0.41491	-0.252
Mof_H 	H 	0.1509	0.4534	0.4141	0.127
Mof_N 	N 	0.12337	0.50366	0.36909	-0.331
Mof_H 	H 	0.1186	0.523	0.3564	0.128
Mof_H 	H 	0.111	0.4839	0.3655	0.145
Mof_N 	N 	0.11907	0.57466	0.30433	-0.268
Mof_N 	N 	0.10725	0.54638	0.28059	-0.255
Mof_N 	N 	0.16699	0.54559	0.28403	-0.251
Mof_H 	H 	0.1895	0.5395	0.2804	0.123
Mof_N 	N 	0.13846	0.50081	0.24583	-0.325
Mof_H 	H 	0.1184	0.492	0.2369	0.102
Mof_H 	H 	0.1592	0.4913	0.2398	0.132
Mof_C 	C 	0.18909	0.48587	0.4366	0.152
Mof_C 	C 	0.15052	0.50439	0.39497	0.216
Mof_C 	C 	0.15497	0.57304	0.30555	0.138
Mof_C 	C 	0.13737	0.5294	0.2692	0.199
Mof_Cu	Cu	0.17053	0.08582	0.89012	0.796
Mof_Cu	Cu	0.23158	0.05467	0.95316	0.784
Mof_S 	S 	0.21101	0.95733	0.96823	-0.542
Mof_S 	S 	0.18437	0.10173	0.83026	-0.485
Mof_N 	N 	0.19552	0.02054	0.93023	-0.273
Mof_N 	N 	0.17102	0.03238	0.90299	-0.246
Mof_N 	N 	0.16055	0.97489	0.91491	-0.249
Mof_H 	H 	0.1509	0.9534	0.9141	0.128
Mof_N 	N 	0.12337	0.00366	0.86909	-0.337
Mof_H 	H 	0.1186	0.023	0.8564	0.129
Mof_H 	H 	0.111	0.9839	0.8655	0.152
Mof_N 	N 	0.11907	0.07466	0.80433	-0.268
Mof_N 	N 	0.10725	0.04638	0.78059	-0.256
Mof_N 	N 	0.16699	0.04559	0.78403	-0.251
Mof_H 	H 	0.1895	0.0395	0.7804	0.122
Mof_N 	N 	0.13846	0.00081	0.74583	-0.34
Mof_H 	H 	0.1184	0.992	0.7369	0.112
Mof_H 	H 	0.1592	0.9913	0.7398	0.141
Mof_C 	C 	0.18909	0.98587	0.9366	0.159
Mof_C 	C 	0.15052	0.00439	0.89497	0.21
Mof_C 	C 	0.15497	0.07304	0.80555	0.138
Mof_C 	C 	0.13737	0.0294	0.7692	0.2
Mof_Cu	Cu	0.32947	0.58582	0.10988	0.796
Mof_Cu	Cu	0.26842	0.55467	0.04684	0.782
Mof_S 	S 	0.28899	0.45733	0.03177	-0.554
Mof_S 	S 	0.31563	0.60173	0.16974	-0.485
Mof_N 	N 	0.30448	0.52054	0.06977	-0.27
Mof_N 	N 	0.32898	0.53238	0.09701	-0.247
Mof_N 	N 	0.33945	0.47489	0.08509	-0.252
Mof_H 	H 	0.3491	0.4534	0.0859	0.127
Mof_N 	N 	0.37663	0.50366	0.13091	-0.331
Mof_H 	H 	0.3814	0.523	0.1436	0.128
Mof_H 	H 	0.389	0.4839	0.1345	0.145
Mof_N 	N 	0.38093	0.57466	0.19567	-0.268
Mof_N 	N 	0.39275	0.54638	0.21941	-0.255
Mof_N 	N 	0.33301	0.54559	0.21597	-0.251
Mof_H 	H 	0.3105	0.5395	0.2196	0.123
Mof_N 	N 	0.36154	0.50081	0.25417	-0.325
Mof_H 	H 	0.3816	0.492	0.2631	0.102
Mof_H 	H 	0.3408	0.4913	0.2602	0.132
Mof_C 	C 	0.31091	0.48587	0.0634	0.152
Mof_C 	C 	0.34948	0.50439	0.10503	0.216
Mof_C 	C 	0.34503	0.57304	0.19445	0.138
Mof_C 	C 	0.36263	0.5294	0.2308	0.199
Mof_Cu	Cu	0.32947	0.08582	0.60988	0.796
Mof_Cu	Cu	0.26842	0.05467	0.54684	0.783
Mof_S 	S 	0.28899	0.95733	0.53177	-0.547
Mof_S 	S 	0.31563	0.10173	0.66974	-0.485
Mof_N 	N 	0.30448	0.02054	0.56977	-0.274
Mof_N 	N 	0.32898	0.03238	0.59701	-0.246
Mof_N 	N 	0.33945	0.97489	0.58509	-0.249
Mof_H 	H 	0.3491	0.9534	0.5859	0.128
Mof_N 	N 	0.37663	0.00366	0.63091	-0.337
Mof_H 	H 	0.3814	0.023	0.6436	0.129
Mof_H 	H 	0.389	0.9839	0.6345	0.152
Mof_N 	N 	0.38093	0.07466	0.69567	-0.268
Mof_N 	N 	0.39275	0.04638	0.71941	-0.256
Mof_N 	N 	0.33301	0.04559	0.71597	-0.251
Mof_H 	H 	0.3105	0.0395	0.7196	0.122
Mof_N 	N 	0.36154	0.00081	0.75417	-0.34
Mof_H 	H 	0.3816	0.992	0.7631	0.111
Mof_H 	H 	0.3408	0.9913	0.7602	0.141
Mof_C 	C 	0.31091	0.98587	0.5634	0.159
Mof_C 	C 	0.34948	0.00439	0.60503	0.21
Mof_C 	C 	0.34503	0.07304	0.69445	0.138
Mof_C 	C 	0.36263	0.0294	0.7308	0.2
Mof_Cu	Cu	0.82947	0.58582	0.60988	0.796
Mof_Cu	Cu	0.76842	0.55467	0.54684	0.783
Mof_S 	S 	0.78899	0.45733	0.53177	-0.55
Mof_S 	S 	0.81563	0.60173	0.66974	-0.485
Mof_N 	N 	0.80448	0.52054	0.56977	-0.27
Mof_N 	N 	0.82898	0.53238	0.59701	-0.247
Mof_N 	N 	0.83945	0.47489	0.58509	-0.252
Mof_H 	H 	0.8491	0.4534	0.5859	0.128
Mof_N 	N 	0.87663	0.50366	0.63091	-0.331
Mof_H 	H 	0.8814	0.523	0.6436	0.129
Mof_H 	H 	0.889	0.4839	0.6345	0.146
Mof_N 	N 	0.88093	0.57466	0.69567	-0.268
Mof_N 	N 	0.89275	0.54638	0.71941	-0.255
Mof_N 	N 	0.83301	0.54559	0.71597	-0.251
Mof_H 	H 	0.8105	0.5395	0.7196	0.123
Mof_N 	N 	0.86154	0.50081	0.75417	-0.325
Mof_H 	H 	0.8816	0.492	0.7631	0.102
Mof_H 	H 	0.8408	0.4913	0.7602	0.132
Mof_C 	C 	0.81091	0.48587	0.5634	0.152
Mof_C 	C 	0.84948	0.50439	0.60503	0.216
Mof_C 	C 	0.84503	0.57304	0.69445	0.138
Mof_C 	C 	0.86263	0.5294	0.7308	0.199
Mof_Cu	Cu	0.82947	0.08582	0.10988	0.796
Mof_Cu	Cu	0.76842	0.05467	0.04684	0.782
Mof_S 	S 	0.78899	0.95733	0.03177	-0.551
Mof_S 	S 	0.81563	0.10173	0.16974	-0.485
Mof_N 	N 	0.80448	0.02054	0.06977	-0.274
Mof_N 	N 	0.82898	0.03238	0.09701	-0.246
Mof_N 	N 	0.83945	0.97489	0.08509	-0.249
Mof_H 	H 	0.8491	0.9534	0.0859	0.128
Mof_N 	N 	0.87663	0.00366	0.13091	-0.337
Mof_H 	H 	0.8814	0.023	0.1436	0.129
Mof_H 	H 	0.889	0.9839	0.1345	0.152
Mof_N 	N 	0.88093	0.07466	0.19567	-0.268
Mof_N 	N 	0.89275	0.04638	0.21941	-0.256
Mof_N 	N 	0.83301	0.04559	0.21597	-0.251
Mof_H 	H 	0.8105	0.0395	0.2196	0.122
Mof_N 	N 	0.86154	0.00081	0.25417	-0.34
Mof_H 	H 	0.8816	0.992	0.2631	0.111
Mof_H 	H 	0.8408	0.9913	0.2602	0.141
Mof_C 	C 	0.81091	0.98587	0.0634	0.159
Mof_C 	C 	0.84948	0.00439	0.10503	0.21
Mof_C 	C 	0.84503	0.07304	0.19445	0.138
Mof_C 	C 	0.86263	0.0294	0.2308	0.2
Mof_Cu	Cu	0.67053	0.41418	0.10988	0.796
Mof_Cu	Cu	0.73158	0.44533	0.04684	0.782
Mof_S 	S 	0.71101	0.54267	0.03177	-0.554
Mof_S 	S 	0.68437	0.39827	0.16974	-0.485
Mof_N 	N 	0.69552	0.47946	0.06977	-0.27
Mof_N 	N 	0.67102	0.46762	0.09701	-0.247
Mof_N 	N 	0.66055	0.52511	0.08509	-0.252
Mof_H 	H 	0.6509	0.5466	0.0859	0.127
Mof_N 	N 	0.62337	0.49634	0.13091	-0.331
Mof_H 	H 	0.6186	0.477	0.1436	0.128
Mof_H 	H 	0.611	0.5161	0.1345	0.145
Mof_N 	N 	0.61907	0.42534	0.19567	-0.268
Mof_N 	N 	0.60725	0.45362	0.21941	-0.255
Mof_N 	N 	0.66699	0.45441	0.21597	-0.251
Mof_H 	H 	0.6895	0.4605	0.2196	0.123
Mof_N 	N 	0.63846	0.49919	0.25417	-0.325
Mof_H 	H 	0.6184	0.508	0.2631	0.102
Mof_H 	H 	0.6592	0.5087	0.2602	0.132
Mof_C 	C 	0.68909	0.51413	0.0634	0.152
Mof_C 	C 	0.65052	0.49561	0.10503	0.216
Mof_C 	C 	0.65497	0.42696	0.19445	0.138
Mof_C 	C 	0.63737	0.4706	0.2308	0.199
Mof_Cu	Cu	0.67053	0.91418	0.60988	0.796
Mof_Cu	Cu	0.73158	0.94533	0.54684	0.784
Mof_S 	S 	0.71101	0.04267	0.53177	-0.551
Mof_S 	S 	0.68437	0.89827	0.66974	-0.484
Mof_N 	N 	0.69552	0.97946	0.56977	-0.266
Mof_N 	N 	0.67102	0.96762	0.59701	-0.247
Mof_N 	N 	0.66055	0.02511	0.58509	-0.255
Mof_H 	H 	0.6509	0.0466	0.5859	0.127
Mof_N 	N 	0.62337	0.99634	0.63091	-0.324
Mof_H 	H 	0.6186	0.977	0.6436	0.128
Mof_H 	H 	0.611	0.0161	0.6345	0.138
Mof_N 	N 	0.61907	0.92534	0.69567	-0.268
Mof_N 	N 	0.60725	0.95362	0.71941	-0.253
Mof_N 	N 	0.66699	0.95441	0.71597	-0.25
Mof_H 	H 	0.6895	0.9605	0.7196	0.124
Mof_N 	N 	0.63846	0.99919	0.75417	-0.31
Mof_H 	H 	0.6184	0.008	0.7631	0.093
Mof_H 	H 	0.6592	0.0087	0.7602	0.123
Mof_C 	C 	0.68909	0.01413	0.5634	0.144
Mof_C 	C 	0.65052	0.99561	0.60503	0.222
Mof_C 	C 	0.65497	0.92696	0.69445	0.138
Mof_C 	C 	0.63737	0.9706	0.7308	0.199
Mof_Cu	Cu	0.17053	0.41418	0.60988	0.796
Mof_Cu	Cu	0.23158	0.44533	0.54684	0.783
Mof_S 	S 	0.21101	0.54267	0.53177	-0.55
Mof_S 	S 	0.18437	0.39827	0.66974	-0.485
Mof_N 	N 	0.19552	0.47946	0.56977	-0.27
Mof_N 	N 	0.17102	0.46762	0.59701	-0.247
Mof_N 	N 	0.16055	0.52511	0.58509	-0.252
Mof_H 	H 	0.1509	0.5466	0.5859	0.127
Mof_N 	N 	0.12337	0.49634	0.63091	-0.331
Mof_H 	H 	0.1186	0.477	0.6436	0.128
Mof_H 	H 	0.111	0.5161	0.6345	0.145
Mof_N 	N 	0.11907	0.42534	0.69567	-0.268
Mof_N 	N 	0.10725	0.45362	0.71941	-0.255
Mof_N 	N 	0.16699	0.45441	0.71597	-0.251
Mof_H 	H 	0.1895	0.4605	0.7196	0.123
Mof_N 	N 	0.13846	0.49919	0.75417	-0.325
Mof_H 	H 	0.1184	0.508	0.7631	0.102
Mof_H 	H 	0.1592	0.5087	0.7602	0.132
Mof_C 	C 	0.18909	0.51413	0.5634	0.152
Mof_C 	C 	0.15052	0.49561	0.60503	0.216
Mof_C 	C 	0.15497	0.42696	0.69445	0.138
Mof_C 	C 	0.13737	0.4706	0.7308	0.199
Mof_Cu	Cu	0.17053	0.91418	0.10988	0.796
Mof_Cu	Cu	0.23158	0.94533	0.04684	0.783
Mof_S 	S 	0.21101	0.04267	0.03177	-0.555
Mof_S 	S 	0.18437	0.89827	0.16974	-0.484
Mof_N 	N 	0.19552	0.97946	0.06977	-0.266
Mof_N 	N 	0.17102	0.96762	0.09701	-0.248
Mof_N 	N 	0.16055	0.02511	0.08509	-0.255
Mof_H 	H 	0.1509	0.0466	0.0859	0.127
Mof_N 	N 	0.12337	0.99634	0.13091	-0.324
Mof_H 	H 	0.1186	0.977	0.1436	0.128
Mof_H 	H 	0.111	0.0161	0.1345	0.138
Mof_N 	N 	0.11907	0.92534	0.19567	-0.268
Mof_N 	N 	0.10725	0.95362	0.21941	-0.253
Mof_N 	N 	0.16699	0.95441	0.21597	-0.25
Mof_H 	H 	0.1895	0.9605	0.2196	0.125
Mof_N 	N 	0.13846	0.99919	0.25417	-0.31
Mof_H 	H 	0.1184	0.008	0.2631	0.093
Mof_H 	H 	0.1592	0.0087	0.2602	0.123
Mof_C 	C 	0.18909	0.01413	0.0634	0.144
Mof_C 	C 	0.15052	0.99561	0.10503	0.221
Mof_C 	C 	0.15497	0.92696	0.19445	0.138
Mof_C 	C 	0.13737	0.9706	0.2308	0.199
Mof_Cu	Cu	0.32947	0.41418	0.89012	0.796
Mof_Cu	Cu	0.26842	0.44533	0.95316	0.785
Mof_S 	S 	0.28899	0.54267	0.96823	-0.544
Mof_S 	S 	0.31563	0.39827	0.83026	-0.485
Mof_N 	N 	0.30448	0.47946	0.93023	-0.269
Mof_N 	N 	0.32898	0.46762	0.90299	-0.247
Mof_N 	N 	0.33945	0.52511	0.91491	-0.252
Mof_H 	H 	0.3491	0.5466	0.9141	0.128
Mof_N 	N 	0.37663	0.49634	0.86909	-0.331
Mof_H 	H 	0.3814	0.477	0.8564	0.129
Mof_H 	H 	0.389	0.5161	0.8655	0.146
Mof_N 	N 	0.38093	0.42534	0.80433	-0.268
Mof_N 	N 	0.39275	0.45362	0.78059	-0.255
Mof_N 	N 	0.33301	0.45441	0.78403	-0.251
Mof_H 	H 	0.3105	0.4605	0.7804	0.123
Mof_N 	N 	0.36154	0.49919	0.74583	-0.325
Mof_H 	H 	0.3816	0.508	0.7369	0.102
Mof_H 	H 	0.3408	0.5087	0.7398	0.132
Mof_C 	C 	0.31091	0.51413	0.9366	0.152
Mof_C 	C 	0.34948	0.49561	0.89497	0.217
Mof_C 	C 	0.34503	0.42696	0.80555	0.138
Mof_C 	C 	0.36263	0.4706	0.7692	0.199
Mof_Cu	Cu	0.32947	0.91418	0.39012	0.796
Mof_Cu	Cu	0.26842	0.94533	0.45316	0.784
Mof_S 	S 	0.28899	0.04267	0.46823	-0.551
Mof_S 	S 	0.31563	0.89827	0.33026	-0.484
Mof_N 	N 	0.30448	0.97946	0.43023	-0.266
Mof_N 	N 	0.32898	0.96762	0.40299	-0.247
Mof_N 	N 	0.33945	0.02511	0.41491	-0.255
Mof_H 	H 	0.3491	0.0466	0.4141	0.127
Mof_N 	N 	0.37663	0.99634	0.36909	-0.324
Mof_H 	H 	0.3814	0.977	0.3564	0.128
Mof_H 	H 	0.389	0.0161	0.3655	0.138
Mof_N 	N 	0.38093	0.92534	0.30433	-0.268
Mof_N 	N 	0.39275	0.95362	0.28059	-0.253
Mof_N 	N 	0.33301	0.95441	0.28403	-0.25
Mof_H 	H 	0.3105	0.9605	0.2804	0.125
Mof_N 	N 	0.36154	0.99919	0.24583	-0.31
Mof_H 	H 	0.3816	0.008	0.2369	0.093
Mof_H 	H 	0.3408	0.0087	0.2398	0.123
Mof_C 	C 	0.31091	0.01413	0.4366	0.144
Mof_C 	C 	0.34948	0.99561	0.39497	0.222
Mof_C 	C 	0.34503	0.92696	0.30555	0.138
Mof_C 	C 	0.36263	0.9706	0.2692	0.199
Mof_Cu	Cu	0.82947	0.41418	0.39012	0.796
Mof_Cu	Cu	0.76842	0.44533	0.45316	0.783
Mof_S 	S 	0.78899	0.54267	0.46823	-0.55
Mof_S 	S 	0.81563	0.39827	0.33026	-0.485
Mof_N 	N 	0.80448	0.47946	0.43023	-0.27
Mof_N 	N 	0.82898	0.46762	0.40299	-0.247
Mof_N 	N 	0.83945	0.52511	0.41491	-0.252
Mof_H 	H 	0.8491	0.5466	0.4141	0.128
Mof_N 	N 	0.87663	0.49634	0.36909	-0.331
Mof_H 	H 	0.8814	0.477	0.3564	0.129
Mof_H 	H 	0.889	0.5161	0.3655	0.146
Mof_N 	N 	0.88093	0.42534	0.30433	-0.268
Mof_N 	N 	0.89275	0.45362	0.28059	-0.255
Mof_N 	N 	0.83301	0.45441	0.28403	-0.251
Mof_H 	H 	0.8105	0.4605	0.2804	0.123
Mof_N 	N 	0.86154	0.49919	0.24583	-0.325
Mof_H 	H 	0.8816	0.508	0.2369	0.102
Mof_H 	H 	0.8408	0.5087	0.2398	0.132
Mof_C 	C 	0.81091	0.51413	0.4366	0.152
Mof_C 	C 	0.84948	0.49561	0.39497	0.216
Mof_C 	C 	0.84503	0.42696	0.30555	0.138
Mof_C 	C 	0.86263	0.4706	0.2692	0.199
Mof_Cu	Cu	0.82947	0.91418	0.89012	0.796
Mof_Cu	Cu	0.76842	0.94533	0.95316	0.785
Mof_S 	S 	0.78899	0.04267	0.96823	-0.545
Mof_S 	S 	0.81563	0.89827	0.83026	-0.484
Mof_N 	N 	0.80448	0.97946	0.93023	-0.265
Mof_N 	N 	0.82898	0.96762	0.90299	-0.247
Mof_N 	N 	0.83945	0.02511	0.91491	-0.255
Mof_H 	H 	0.8491	0.0466	0.9141	0.128
Mof_N 	N 	0.87663	0.99634	0.86909	-0.325
Mof_H 	H 	0.8814	0.977	0.8564	0.128
Mof_H 	H 	0.889	0.0161	0.8655	0.139
Mof_N 	N 	0.88093	0.92534	0.80433	-0.268
Mof_N 	N 	0.89275	0.95362	0.78059	-0.253
Mof_N 	N 	0.83301	0.95441	0.78403	-0.25
Mof_H 	H 	0.8105	0.9605	0.7804	0.124
Mof_N 	N 	0.86154	0.99919	0.74583	-0.31
Mof_H 	H 	0.8816	0.008	0.7369	0.093
Mof_H 	H 	0.8408	0.0087	0.7398	0.123
Mof_C 	C 	0.81091	0.01413	0.9366	0.145
Mof_C 	C 	0.84948	0.99561	0.89497	0.223
Mof_C 	C 	0.84503	0.92696	0.80555	0.138
Mof_C 	C 	0.86263	0.9706	0.7692	0.199
Mof_Cu	Cu	0.17053	0.39012	0.08582	0.796
Mof_Cu	Cu	0.23158	0.45316	0.05467	0.783
Mof_S 	S 	0.21101	0.46823	0.95733	-0.547
Mof_S 	S 	0.18437	0.33026	0.10173	-0.485
Mof_N 	N 	0.19552	0.43023	0.02054	-0.274
Mof_N 	N 	0.17102	0.40299	0.03238	-0.246
Mof_N 	N 	0.16055	0.41491	0.97489	-0.249
Mof_H 	H 	0.1509	0.4141	0.9534	0.128
Mof_N 	N 	0.12337	0.36909	0.00366	-0.337
Mof_H 	H 	0.1186	0.3564	0.023	0.129
Mof_H 	H 	0.111	0.3655	0.9839	0.152
Mof_N 	N 	0.11907	0.30433	0.07466	-0.268
Mof_N 	N 	0.10725	0.28059	0.04638	-0.256
Mof_N 	N 	0.16699	0.28403	0.04559	-0.251
Mof_H 	H 	0.1895	0.2804	0.0395	0.122
Mof_N 	N 	0.13846	0.24583	0.00081	-0.34
Mof_H 	H 	0.1184	0.2369	0.992	0.112
Mof_H 	H 	0.1592	0.2398	0.9913	0.141
Mof_C 	C 	0.18909	0.4366	0.98587	0.159
Mof_C 	C 	0.15052	0.39497	0.00439	0.21
Mof_C 	C 	0.15497	0.30555	0.07304	0.138
Mof_C 	C 	0.13737	0.2692	0.0294	0.2
Mof_Cu	Cu	0.17053	0.89012	0.58582	0.796
Mof_Cu	Cu	0.23158	0.95316	0.55467	0.785
Mof_S 	S 	0.21101	0.96823	0.45733	-0.544
Mof_S 	S 	0.18437	0.83026	0.60173	-0.485
Mof_N 	N 	0.19552	0.93023	0.52054	-0.269
Mof_N 	N 	0.17102	0.90299	0.53238	-0.247
Mof_N 	N 	0.16055	0.91491	0.47489	-0.252
Mof_H 	H 	0.1509	0.9141	0.4534	0.128
Mof_N 	N 	0.12337	0.86909	0.50366	-0.331
Mof_H 	H 	0.1186	0.8564	0.523	0.128
Mof_H 	H 	0.111	0.8655	0.4839	0.145
Mof_N 	N 	0.11907	0.80433	0.57466	-0.268
Mof_N 	N 	0.10725	0.78059	0.54638	-0.255
Mof_N 	N 	0.16699	0.78403	0.54559	-0.251
Mof_H 	H 	0.1895	0.7804	0.5395	0.123
Mof_N 	N 	0.13846	0.74583	0.50081	-0.325
Mof_H 	H 	0.1184	0.7369	0.492	0.102
Mof_H 	H 	0.1592	0.7398	0.4913	0.132
Mof_C 	C 	0.18909	0.9366	0.48587	0.152
Mof_C 	C 	0.15052	0.89497	0.50439	0.216
Mof_C 	C 	0.15497	0.80555	0.57304	0.138
Mof_C 	C 	0.13737	0.7692	0.5294	0.199
Mof_Cu	Cu	0.67053	0.39012	0.58582	0.796
Mof_Cu	Cu	0.73158	0.45316	0.55467	0.783
Mof_S 	S 	0.71101	0.46823	0.45733	-0.55
Mof_S 	S 	0.68437	0.33026	0.60173	-0.485
Mof_N 	N 	0.69552	0.43023	0.52054	-0.27
Mof_N 	N 	0.67102	0.40299	0.53238	-0.247
Mof_N 	N 	0.66055	0.41491	0.47489	-0.252
Mof_H 	H 	0.6509	0.4141	0.4534	0.128
Mof_N 	N 	0.62337	0.36909	0.50366	-0.331
Mof_H 	H 	0.6186	0.3564	0.523	0.128
Mof_H 	H 	0.611	0.3655	0.4839	0.145
Mof_N 	N 	0.61907	0.30433	0.57466	-0.268
Mof_N 	N 	0.60725	0.28059	0.54638	-0.255
Mof_N 	N 	0.66699	0.28403	0.54559	-0.251
Mof_H 	H 	0.6895	0.2804	0.5395	0.123
Mof_N 	N 	0.63846	0.24583	0.50081	-0.325
Mof_H 	H 	0.6184	0.2369	0.492	0.102
Mof_H 	H 	0.6592	0.2398	0.4913	0.132
Mof_C 	C 	0.68909	0.4366	0.48587	0.152
Mof_C 	C 	0.65052	0.39497	0.50439	0.216
Mof_C 	C 	0.65497	0.30555	0.57304	0.138
Mof_C 	C 	0.63737	0.2692	0.5294	0.199
Mof_Cu	Cu	0.67053	0.89012	0.08582	0.796
Mof_Cu	Cu	0.73158	0.95316	0.05467	0.784
Mof_S 	S 	0.71101	0.96823	0.95733	-0.542
Mof_S 	S 	0.68437	0.83026	0.10173	-0.485
Mof_N 	N 	0.69552	0.93023	0.02054	-0.273
Mof_N 	N 	0.67102	0.90299	0.03238	-0.246
Mof_N 	N 	0.66055	0.91491	0.97489	-0.249
Mof_H 	H 	0.6509	0.9141	0.9534	0.128
Mof_N 	N 	0.62337	0.86909	0.00366	-0.337
Mof_H 	H 	0.6186	0.8564	0.023	0.129
Mof_H 	H 	0.611	0.8655	0.9839	0.153
Mof_N 	N 	0.61907	0.80433	0.07466	-0.268
Mof_N 	N 	0.60725	0.78059	0.04638	-0.256
Mof_N 	N 	0.66699	0.78403	0.04559	-0.251
Mof_H 	H 	0.6895	0.7804	0.0395	0.122
Mof_N 	N 	0.63846	0.74583	0.00081	-0.34
Mof_H 	H 	0.6184	0.7369	0.992	0.111
Mof_H 	H 	0.6592	0.7398	0.9913	0.141
Mof_C 	C 	0.68909	0.9366	0.98587	0.159
Mof_C 	C 	0.65052	0.89497	0.00439	0.211
Mof_C 	C 	0.65497	0.80555	0.07304	0.138
Mof_C 	C 	0.63737	0.7692	0.0294	0.2
Mof_Cu	Cu	0.82947	0.60988	0.08582	0.796
Mof_Cu	Cu	0.76842	0.54684	0.05467	0.783
Mof_S 	S 	0.78899	0.53177	0.95733	-0.547
Mof_S 	S 	0.81563	0.66974	0.10173	-0.485
Mof_N 	N 	0.80448	0.56977	0.02054	-0.274
Mof_N 	N 	0.82898	0.59701	0.03238	-0.246
Mof_N 	N 	0.83945	0.58509	0.97489	-0.249
Mof_H 	H 	0.8491	0.5859	0.9534	0.128
Mof_N 	N 	0.87663	0.63091	0.00366	-0.337
Mof_H 	H 	0.8814	0.6436	0.023	0.129
Mof_H 	H 	0.889	0.6345	0.9839	0.153
Mof_N 	N 	0.88093	0.69567	0.07466	-0.268
Mof_N 	N 	0.89275	0.71941	0.04638	-0.256
Mof_N 	N 	0.83301	0.71597	0.04559	-0.251
Mof_H 	H 	0.8105	0.7196	0.0395	0.122
Mof_N 	N 	0.86154	0.75417	0.00081	-0.34
Mof_H 	H 	0.8816	0.7631	0.992	0.111
Mof_H 	H 	0.8408	0.7602	0.9913	0.141
Mof_C 	C 	0.81091	0.5634	0.98587	0.159
Mof_C 	C 	0.84948	0.60503	0.00439	0.21
Mof_C 	C 	0.84503	0.69445	0.07304	0.138
Mof_C 	C 	0.86263	0.7308	0.0294	0.2
Mof_Cu	Cu	0.82947	0.10988	0.58582	0.796
Mof_Cu	Cu	0.76842	0.04684	0.55467	0.782
Mof_S 	S 	0.78899	0.03177	0.45733	-0.554
Mof_S 	S 	0.81563	0.16974	0.60173	-0.485
Mof_N 	N 	0.80448	0.06977	0.52054	-0.27
Mof_N 	N 	0.82898	0.09701	0.53238	-0.247
Mof_N 	N 	0.83945	0.08509	0.47489	-0.252
Mof_H 	H 	0.8491	0.0859	0.4534	0.127
Mof_N 	N 	0.87663	0.13091	0.50366	-0.331
Mof_H 	H 	0.8814	0.1436	0.523	0.129
Mof_H 	H 	0.889	0.1345	0.4839	0.146
Mof_N 	N 	0.88093	0.19567	0.57466	-0.268
Mof_N 	N 	0.89275	0.21941	0.54638	-0.255
Mof_N 	N 	0.83301	0.21597	0.54559	-0.251
Mof_H 	H 	0.8105	0.2196	0.5395	0.123
Mof_N 	N 	0.86154	0.25417	0.50081	-0.325
Mof_H 	H 	0.8816	0.2631	0.492	0.102
Mof_H 	H 	0.8408	0.2602	0.4913	0.132
Mof_C 	C 	0.81091	0.0634	0.48587	0.152
Mof_C 	C 	0.84948	0.10503	0.50439	0.216
Mof_C 	C 	0.84503	0.19445	0.57304	0.138
Mof_C 	C 	0.86263	0.2308	0.5294	0.199
Mof_Cu	Cu	0.32947	0.60988	0.58582	0.796
Mof_Cu	Cu	0.26842	0.54684	0.55467	0.783
Mof_S 	S 	0.28899	0.53177	0.45733	-0.55
Mof_S 	S 	0.31563	0.66974	0.60173	-0.485
Mof_N 	N 	0.30448	0.56977	0.52054	-0.27
Mof_N 	N 	0.32898	0.59701	0.53238	-0.247
Mof_N 	N 	0.33945	0.58509	0.47489	-0.252
Mof_H 	H 	0.3491	0.5859	0.4534	0.128
Mof_N 	N 	0.37663	0.63091	0.50366	-0.331
Mof_H 	H 	0.3814	0.6436	0.523	0.128
Mof_H 	H 	0.389	0.6345	0.4839	0.145
Mof_N 	N 	0.38093	0.69567	0.57466	-0.268
Mof_N 	N 	0.39275	0.71941	0.54638	-0.255
Mof_N 	N 	0.33301	0.71597	0.54559	-0.251
Mof_H 	H 	0.3105	0.7196	0.5395	0.123
Mof_N 	N 	0.36154	0.75417	0.50081	-0.325
Mof_H 	H 	0.3816	0.7631	0.492	0.102
Mof_H 	H 	0.3408	0.7602	0.4913	0.132
Mof_C 	C 	0.31091	0.5634	0.48587	0.152
Mof_C 	C 	0.34948	0.60503	0.50439	0.216
Mof_C 	C 	0.34503	0.69445	0.57304	0.138
Mof_C 	C 	0.36263	0.7308	0.5294	0.199
Mof_Cu	Cu	0.32947	0.10988	0.08582	0.796
Mof_Cu	Cu	0.26842	0.04684	0.05467	0.782
Mof_S 	S 	0.28899	0.03177	0.95733	-0.551
Mof_S 	S 	0.31563	0.16974	0.10173	-0.485
Mof_N 	N 	0.30448	0.06977	0.02054	-0.274
Mof_N 	N 	0.32898	0.09701	0.03238	-0.246
Mof_N 	N 	0.33945	0.08509	0.97489	-0.249
Mof_H 	H 	0.3491	0.0859	0.9534	0.127
Mof_N 	N 	0.37663	0.13091	0.00366	-0.337
Mof_H 	H 	0.3814	0.1436	0.023	0.129
Mof_H 	H 	0.389	0.1345	0.9839	0.152
Mof_N 	N 	0.38093	0.19567	0.07466	-0.268
Mof_N 	N 	0.39275	0.21941	0.04638	-0.256
Mof_N 	N 	0.33301	0.21597	0.04559	-0.251
Mof_H 	H 	0.3105	0.2196	0.0395	0.122
Mof_N 	N 	0.36154	0.25417	0.00081	-0.34
Mof_H 	H 	0.3816	0.2631	0.992	0.112
Mof_H 	H 	0.3408	0.2602	0.9913	0.141
Mof_C 	C 	0.31091	0.0634	0.98587	0.159
Mof_C 	C 	0.34948	0.10503	0.00439	0.21
Mof_C 	C 	0.34503	0.19445	0.07304	0.138
Mof_C 	C 	0.36263	0.2308	0.0294	0.2
Mof_Cu	Cu	0.17053	0.60988	0.91418	0.796
Mof_Cu	Cu	0.23158	0.54684	0.94533	0.784
Mof_S 	S 	0.21101	0.53177	0.04267	-0.551
Mof_S 	S 	0.18437	0.66974	0.89827	-0.484
Mof_N 	N 	0.19552	0.56977	0.97946	-0.266
Mof_N 	N 	0.17102	0.59701	0.96762	-0.247
Mof_N 	N 	0.16055	0.58509	0.02511	-0.255
Mof_H 	H 	0.1509	0.5859	0.0466	0.127
Mof_N 	N 	0.12337	0.63091	0.99634	-0.324
Mof_H 	H 	0.1186	0.6436	0.977	0.128
Mof_H 	H 	0.111	0.6345	0.0161	0.138
Mof_N 	N 	0.11907	0.69567	0.92534	-0.268
Mof_N 	N 	0.10725	0.71941	0.95362	-0.253
Mof_N 	N 	0.16699	0.71597	0.95441	-0.25
Mof_H 	H 	0.1895	0.7196	0.9605	0.125
Mof_N 	N 	0.13846	0.75417	0.99919	-0.31
Mof_H 	H 	0.1184	0.7631	0.008	0.093
Mof_H 	H 	0.1592	0.7602	0.0087	0.123
Mof_C 	C 	0.18909	0.5634	0.01413	0.144
Mof_C 	C 	0.15052	0.60503	0.99561	0.222
Mof_C 	C 	0.15497	0.69445	0.92696	0.138
Mof_C 	C 	0.13737	0.7308	0.9706	0.199
Mof_Cu	Cu	0.17053	0.10988	0.41418	0.796
Mof_Cu	Cu	0.23158	0.04684	0.44533	0.782
Mof_S 	S 	0.21101	0.03177	0.54267	-0.554
Mof_S 	S 	0.18437	0.16974	0.39827	-0.485
Mof_N 	N 	0.19552	0.06977	0.47946	-0.27
Mof_N 	N 	0.17102	0.09701	0.46762	-0.247
Mof_N 	N 	0.16055	0.08509	0.52511	-0.252
Mof_H 	H 	0.1509	0.0859	0.5466	0.127
Mof_N 	N 	0.12337	0.13091	0.49634	-0.331
Mof_H 	H 	0.1186	0.1436	0.477	0.128
Mof_H 	H 	0.111	0.1345	0.5161	0.145
Mof_N 	N 	0.11907	0.19567	0.42534	-0.268
Mof_N 	N 	0.10725	0.21941	0.45362	-0.255
Mof_N 	N 	0.16699	0.21597	0.45441	-0.251
Mof_H 	H 	0.1895	0.2196	0.4605	0.123
Mof_N 	N 	0.13846	0.25417	0.49919	-0.325
Mof_H 	H 	0.1184	0.2631	0.508	0.102
Mof_H 	H 	0.1592	0.2602	0.5087	0.132
Mof_C 	C 	0.18909	0.0634	0.51413	0.151
Mof_C 	C 	0.15052	0.10503	0.49561	0.215
Mof_C 	C 	0.15497	0.19445	0.42696	0.138
Mof_C 	C 	0.13737	0.2308	0.4706	0.199
Mof_Cu	Cu	0.67053	0.60988	0.41418	0.796
Mof_Cu	Cu	0.73158	0.54684	0.44533	0.783
Mof_S 	S 	0.71101	0.53177	0.54267	-0.55
Mof_S 	S 	0.68437	0.66974	0.39827	-0.485
Mof_N 	N 	0.69552	0.56977	0.47946	-0.27
Mof_N 	N 	0.67102	0.59701	0.46762	-0.247
Mof_N 	N 	0.66055	0.58509	0.52511	-0.252
Mof_H 	H 	0.6509	0.5859	0.5466	0.128
Mof_N 	N 	0.62337	0.63091	0.49634	-0.331
Mof_H 	H 	0.6186	0.6436	0.477	0.128
Mof_H 	H 	0.611	0.6345	0.5161	0.145
Mof_N 	N 	0.61907	0.69567	0.42534	-0.268
Mof_N 	N 	0.60725	0.71941	0.45362	-0.255
Mof_N 	N 	0.66699	0.71597	0.45441	-0.251
Mof_H 	H 	0.6895	0.7196	0.4605	0.123
Mof_N 	N 	0.63846	0.75417	0.49919	-0.325
Mof_H 	H 	0.6184	0.7631	0.508	0.102
Mof_H 	H 	0.6592	0.7602	0.5087	0.132
Mof_C 	C 	0.68909	0.5634	0.51413	0.152
Mof_C 	C 	0.65052	0.60503	0.49561	0.216
Mof_C 	C 	0.65497	0.69445	0.42696	0.138
Mof_C 	C 	0.63737	0.7308	0.4706	0.199
Mof_Cu	Cu	0.67053	0.10988	0.91418	0.796
Mof_Cu	Cu	0.73158	0.04684	0.94533	0.783
Mof_S 	S 	0.71101	0.03177	0.04267	-0.555
Mof_S 	S 	0.68437	0.16974	0.89827	-0.484
Mof_N 	N 	0.69552	0.06977	0.97946	-0.266
Mof_N 	N 	0.67102	0.09701	0.96762	-0.248
Mof_N 	N 	0.66055	0.08509	0.02511	-0.255
Mof_H 	H 	0.6509	0.0859	0.0466	0.127
Mof_N 	N 	0.62337	0.13091	0.99634	-0.324
Mof_H 	H 	0.6186	0.1436	0.977	0.128
Mof_H 	H 	0.611	0.1345	0.0161	0.138
Mof_N 	N 	0.61907	0.19567	0.92534	-0.268
Mof_N 	N 	0.60725	0.21941	0.95362	-0.253
Mof_N 	N 	0.66699	0.21597	0.95441	-0.25
Mof_H 	H 	0.6895	0.2196	0.9605	0.125
Mof_N 	N 	0.63846	0.25417	0.99919	-0.31
Mof_H 	H 	0.6184	0.2631	0.008	0.093
Mof_H 	H 	0.6592	0.2602	0.0087	0.123
Mof_C 	C 	0.68909	0.0634	0.01413	0.144
Mof_C 	C 	0.65052	0.10503	0.99561	0.222
Mof_C 	C 	0.65497	0.19445	0.92696	0.138
Mof_C 	C 	0.63737	0.2308	0.9706	0.199
Mof_Cu	Cu	0.82947	0.39012	0.91418	0.796
Mof_Cu	Cu	0.76842	0.45316	0.94533	0.784
Mof_S 	S 	0.78899	0.46823	0.04267	-0.551
Mof_S 	S 	0.81563	0.33026	0.89827	-0.484
Mof_N 	N 	0.80448	0.43023	0.97946	-0.266
Mof_N 	N 	0.82898	0.40299	0.96762	-0.247
Mof_N 	N 	0.83945	0.41491	0.02511	-0.255
Mof_H 	H 	0.8491	0.4141	0.0466	0.128
Mof_N 	N 	0.87663	0.36909	0.99634	-0.325
Mof_H 	H 	0.8814	0.3564	0.977	0.128
Mof_H 	H 	0.889	0.3655	0.0161	0.139
Mof_N 	N 	0.88093	0.30433	0.92534	-0.268
Mof_N 	N 	0.89275	0.28059	0.95362	-0.253
Mof_N 	N 	0.83301	0.28403	0.95441	-0.25
Mof_H 	H 	0.8105	0.2804	0.9605	0.125
Mof_N 	N 	0.86154	0.24583	0.99919	-0.31
Mof_H 	H 	0.8816	0.2369	0.008	0.093
Mof_H 	H 	0.8408	0.2398	0.0087	0.123
Mof_C 	C 	0.81091	0.4366	0.01413	0.145
Mof_C 	C 	0.84948	0.39497	0.99561	0.222
Mof_C 	C 	0.84503	0.30555	0.92696	0.138
Mof_C 	C 	0.86263	0.2692	0.9706	0.199
Mof_Cu	Cu	0.82947	0.89012	0.41418	0.796
Mof_Cu	Cu	0.76842	0.95316	0.44533	0.785
Mof_S 	S 	0.78899	0.96823	0.54267	-0.544
Mof_S 	S 	0.81563	0.83026	0.39827	-0.485
Mof_N 	N 	0.80448	0.93023	0.47946	-0.269
Mof_N 	N 	0.82898	0.90299	0.46762	-0.247
Mof_N 	N 	0.83945	0.91491	0.52511	-0.252
Mof_H 	H 	0.8491	0.9141	0.5466	0.128
Mof_N 	N 	0.87663	0.86909	0.49634	-0.331
Mof_H 	H 	0.8814	0.8564	0.477	0.129
Mof_H 	H 	0.889	0.8655	0.5161	0.146
Mof_N 	N 	0.88093	0.80433	0.42534	-0.268
Mof_N 	N 	0.89275	0.78059	0.45362	-0.255
Mof_N 	N 	0.83301	0.78403	0.45441	-0.251
Mof_H 	H 	0.8105	0.7804	0.4605	0.123
Mof_N 	N 	0.86154	0.74583	0.49919	-0.325
Mof_H 	H 	0.8816	0.7369	0.508	0.102
Mof_H 	H 	0.8408	0.7398	0.5087	0.132
Mof_C 	C 	0.81091	0.9366	0.51413	0.152
Mof_C 	C 	0.84948	0.89497	0.49561	0.217
Mof_C 	C 	0.84503	0.80555	0.42696	0.138
Mof_C 	C 	0.86263	0.7692	0.4706	0.199
Mof_Cu	Cu	0.32947	0.39012	0.41418	0.796
Mof_Cu	Cu	0.26842	0.45316	0.44533	0.783
Mof_S 	S 	0.28899	0.46823	0.54267	-0.55
Mof_S 	S 	0.31563	0.33026	0.39827	-0.485
Mof_N 	N 	0.30448	0.43023	0.47946	-0.27
Mof_N 	N 	0.32898	0.40299	0.46762	-0.247
Mof_N 	N 	0.33945	0.41491	0.52511	-0.252
Mof_H 	H 	0.3491	0.4141	0.5466	0.128
Mof_N 	N 	0.37663	0.36909	0.49634	-0.331
Mof_H 	H 	0.3814	0.3564	0.477	0.128
Mof_H 	H 	0.389	0.3655	0.5161	0.145
Mof_N 	N 	0.38093	0.30433	0.42534	-0.268
Mof_N 	N 	0.39275	0.28059	0.45362	-0.255
Mof_N 	N 	0.33301	0.28403	0.45441	-0.251
Mof_H 	H 	0.3105	0.2804	0.4605	0.123
Mof_N 	N 	0.36154	0.24583	0.49919	-0.325
Mof_H 	H 	0.3816	0.2369	0.508	0.102
Mof_H 	H 	0.3408	0.2398	0.5087	0.132
Mof_C 	C 	0.31091	0.4366	0.51413	0.152
Mof_C 	C 	0.34948	0.39497	0.49561	0.216
Mof_C 	C 	0.34503	0.30555	0.42696	0.138
Mof_C 	C 	0.36263	0.2692	0.4706	0.199
Mof_Cu	Cu	0.32947	0.89012	0.91418	0.796
Mof_Cu	Cu	0.26842	0.95316	0.94533	0.785
Mof_S 	S 	0.28899	0.96823	0.04267	-0.545
Mof_S 	S 	0.31563	0.83026	0.89827	-0.484
Mof_N 	N 	0.30448	0.93023	0.97946	-0.265
Mof_N 	N 	0.32898	0.90299	0.96762	-0.247
Mof_N 	N 	0.33945	0.91491	0.02511	-0.255
Mof_H 	H 	0.3491	0.9141	0.0466	0.128
Mof_N 	N 	0.37663	0.86909	0.99634	-0.325
Mof_H 	H 	0.3814	0.8564	0.977	0.128
Mof_H 	H 	0.389	0.8655	0.0161	0.139
Mof_N 	N 	0.38093	0.80433	0.92534	-0.268
Mof_N 	N 	0.39275	0.78059	0.95362	-0.253
Mof_N 	N 	0.33301	0.78403	0.95441	-0.25
Mof_H 	H 	0.3105	0.7804	0.9605	0.125
Mof_N 	N 	0.36154	0.74583	0.99919	-0.31
Mof_H 	H 	0.3816	0.7369	0.008	0.093
Mof_H 	H 	0.3408	0.7398	0.0087	0.123
Mof_C 	C 	0.31091	0.9366	0.01413	0.145
Mof_C 	C 	0.34948	0.89497	0.99561	0.223
Mof_C 	C 	0.34503	0.80555	0.92696	0.138
Mof_C 	C 	0.36263	0.7692	0.9706	0.199
Mof_Cu	Cu	0.39012	0.08582	0.17053	0.796
Mof_Cu	Cu	0.45316	0.05467	0.23158	0.783
Mof_S 	S 	0.46823	0.95733	0.21101	-0.547
Mof_S 	S 	0.33026	0.10173	0.18437	-0.485
Mof_N 	N 	0.43023	0.02054	0.19552	-0.274
Mof_N 	N 	0.40299	0.03238	0.17102	-0.246
Mof_N 	N 	0.41491	0.97489	0.16055	-0.249
Mof_H 	H 	0.4141	0.9534	0.1509	0.128
Mof_N 	N 	0.36909	0.00366	0.12337	-0.337
Mof_H 	H 	0.3564	0.023	0.1186	0.129
Mof_H 	H 	0.3655	0.9839	0.111	0.152
Mof_N 	N 	0.30433	0.07466	0.11907	-0.268
Mof_N 	N 	0.28059	0.04638	0.10725	-0.256
Mof_N 	N 	0.28403	0.04559	0.16699	-0.251
Mof_H 	H 	0.2804	0.0395	0.1895	0.122
Mof_N 	N 	0.24583	0.00081	0.13846	-0.34
Mof_H 	H 	0.2369	0.992	0.1184	0.112
Mof_H 	H 	0.2398	0.9913	0.1592	0.141
Mof_C 	C 	0.4366	0.98587	0.18909	0.159
Mof_C 	C 	0.39497	0.00439	0.15052	0.21
Mof_C 	C 	0.30555	0.07304	0.15497	0.138
Mof_C 	C 	0.2692	0.0294	0.13737	0.2
Mof_Cu	Cu	0.39012	0.58582	0.67053	0.796
Mof_Cu	Cu	0.45316	0.55467	0.73158	0.783
Mof_S 	S 	0.46823	0.45733	0.71101	-0.55
Mof_S 	S 	0.33026	0.60173	0.68437	-0.485
Mof_N 	N 	0.43023	0.52054	0.69552	-0.27
Mof_N 	N 	0.40299	0.53238	0.67102	-0.247
Mof_N 	N 	0.41491	0.47489	0.66055	-0.252
Mof_H 	H 	0.4141	0.4534	0.6509	0.128
Mof_N 	N 	0.36909	0.50366	0.62337	-0.331
Mof_H 	H 	0.3564	0.523	0.6186	0.128
Mof_H 	H 	0.3655	0.4839	0.611	0.145
Mof_N 	N 	0.30433	0.57466	0.61907	-0.268
Mof_N 	N 	0.28059	0.54638	0.60725	-0.255
Mof_N 	N 	0.28403	0.54559	0.66699	-0.251
Mof_H 	H 	0.2804	0.5395	0.6895	0.123
Mof_N 	N 	0.24583	0.50081	0.63846	-0.325
Mof_H 	H 	0.2369	0.492	0.6184	0.102
Mof_H 	H 	0.2398	0.4913	0.6592	0.132
Mof_C 	C 	0.4366	0.48587	0.68909	0.152
Mof_C 	C 	0.39497	0.50439	0.65052	0.216
Mof_C 	C 	0.30555	0.57304	0.65497	0.138
Mof_C 	C 	0.2692	0.5294	0.63737	0.199
Mof_Cu	Cu	0.89012	0.08582	0.67053	0.796
Mof_Cu	Cu	0.95316	0.05467	0.73158	0.784
Mof_S 	S 	0.96823	0.95733	0.71101	-0.542
Mof_S 	S 	0.83026	0.10173	0.68437	-0.485
Mof_N 	N 	0.93023	0.02054	0.69552	-0.273
Mof_N 	N 	0.90299	0.03238	0.67102	-0.246
Mof_N 	N 	0.91491	0.97489	0.66055	-0.249
Mof_H 	H 	0.9141	0.9534	0.6509	0.128
Mof_N 	N 	0.86909	0.00366	0.62337	-0.337
Mof_H 	H 	0.8564	0.023	0.6186	0.129
Mof_H 	H 	0.8655	0.9839	0.611	0.153
Mof_N 	N 	0.80433	0.07466	0.61907	-0.268
Mof_N 	N 	0.78059	0.04638	0.60725	-0.256
Mof_N 	N 	0.78403	0.04559	0.66699	-0.251
Mof_H 	H 	0.7804	0.0395	0.6895	0.122
Mof_N 	N 	0.74583	0.00081	0.63846	-0.34
Mof_H 	H 	0.7369	0.992	0.6184	0.111
Mof_H 	H 	0.7398	0.9913	0.6592	0.141
Mof_C 	C 	0.9366	0.98587	0.68909	0.159
Mof_C 	C 	0.89497	0.00439	0.65052	0.211
Mof_C 	C 	0.80555	0.07304	0.65497	0.138
Mof_C 	C 	0.7692	0.0294	0.63737	0.2
Mof_Cu	Cu	0.89012	0.58582	0.17053	0.796
Mof_Cu	Cu	0.95316	0.55467	0.23158	0.785
Mof_S 	S 	0.96823	0.45733	0.21101	-0.544
Mof_S 	S 	0.83026	0.60173	0.18437	-0.485
Mof_N 	N 	0.93023	0.52054	0.19552	-0.269
Mof_N 	N 	0.90299	0.53238	0.17102	-0.247
Mof_N 	N 	0.91491	0.47489	0.16055	-0.252
Mof_H 	H 	0.9141	0.4534	0.1509	0.128
Mof_N 	N 	0.86909	0.50366	0.12337	-0.331
Mof_H 	H 	0.8564	0.523	0.1186	0.128
Mof_H 	H 	0.8655	0.4839	0.111	0.145
Mof_N 	N 	0.80433	0.57466	0.11907	-0.268
Mof_N 	N 	0.78059	0.54638	0.10725	-0.255
Mof_N 	N 	0.78403	0.54559	0.16699	-0.251
Mof_H 	H 	0.7804	0.5395	0.1895	0.123
Mof_N 	N 	0.74583	0.50081	0.13846	-0.325
Mof_H 	H 	0.7369	0.492	0.1184	0.102
Mof_H 	H 	0.7398	0.4913	0.1592	0.132
Mof_C 	C 	0.9366	0.48587	0.18909	0.152
Mof_C 	C 	0.89497	0.50439	0.15052	0.216
Mof_C 	C 	0.80555	0.57304	0.15497	0.138
Mof_C 	C 	0.7692	0.5294	0.13737	0.199
Mof_Cu	Cu	0.60988	0.08582	0.82947	0.796
Mof_Cu	Cu	0.54684	0.05467	0.76842	0.783
Mof_S 	S 	0.53177	0.95733	0.78899	-0.547
Mof_S 	S 	0.66974	0.10173	0.81563	-0.485
Mof_N 	N 	0.56977	0.02054	0.80448	-0.274
Mof_N 	N 	0.59701	0.03238	0.82898	-0.246
Mof_N 	N 	0.58509	0.97489	0.83945	-0.249
Mof_H 	H 	0.5859	0.9534	0.8491	0.128
Mof_N 	N 	0.63091	0.00366	0.87663	-0.337
Mof_H 	H 	0.6436	0.023	0.8814	0.129
Mof_H 	H 	0.6345	0.9839	0.889	0.153
Mof_N 	N 	0.69567	0.07466	0.88093	-0.268
Mof_N 	N 	0.71941	0.04638	0.89275	-0.256
Mof_N 	N 	0.71597	0.04559	0.83301	-0.251
Mof_H 	H 	0.7196	0.0395	0.8105	0.122
Mof_N 	N 	0.75417	0.00081	0.86154	-0.34
Mof_H 	H 	0.7631	0.992	0.8816	0.111
Mof_H 	H 	0.7602	0.9913	0.8408	0.141
Mof_C 	C 	0.5634	0.98587	0.81091	0.159
Mof_C 	C 	0.60503	0.00439	0.84948	0.21
Mof_C 	C 	0.69445	0.07304	0.84503	0.138
Mof_C 	C 	0.7308	0.0294	0.86263	0.2
Mof_Cu	Cu	0.60988	0.58582	0.32947	0.796
Mof_Cu	Cu	0.54684	0.55467	0.26842	0.783
Mof_S 	S 	0.53177	0.45733	0.28899	-0.55
Mof_S 	S 	0.66974	0.60173	0.31563	-0.485
Mof_N 	N 	0.56977	0.52054	0.30448	-0.27
Mof_N 	N 	0.59701	0.53238	0.32898	-0.247
Mof_N 	N 	0.58509	0.47489	0.33945	-0.252
Mof_H 	H 	0.5859	0.4534	0.3491	0.128
Mof_N 	N 	0.63091	0.50366	0.37663	-0.331
Mof_H 	H 	0.6436	0.523	0.3814	0.128
Mof_H 	H 	0.6345	0.4839	0.389	0.145
Mof_N 	N 	0.69567	0.57466	0.38093	-0.268
Mof_N 	N 	0.71941	0.54638	0.39275	-0.255
Mof_N 	N 	0.71597	0.54559	0.33301	-0.251
Mof_H 	H 	0.7196	0.5395	0.3105	0.123
Mof_N 	N 	0.75417	0.50081	0.36154	-0.325
Mof_H 	H 	0.7631	0.492	0.3816	0.102
Mof_H 	H 	0.7602	0.4913	0.3408	0.132
Mof_C 	C 	0.5634	0.48587	0.31091	0.152
Mof_C 	C 	0.60503	0.50439	0.34948	0.216
Mof_C 	C 	0.69445	0.57304	0.34503	0.138
Mof_C 	C 	0.7308	0.5294	0.36263	0.199
Mof_Cu	Cu	0.10988	0.08582	0.32947	0.796
Mof_Cu	Cu	0.04684	0.05467	0.26842	0.782
Mof_S 	S 	0.03177	0.95733	0.28899	-0.551
Mof_S 	S 	0.16974	0.10173	0.31563	-0.485
Mof_N 	N 	0.06977	0.02054	0.30448	-0.274
Mof_N 	N 	0.09701	0.03238	0.32898	-0.246
Mof_N 	N 	0.08509	0.97489	0.33945	-0.249
Mof_H 	H 	0.0859	0.9534	0.3491	0.127
Mof_N 	N 	0.13091	0.00366	0.37663	-0.337
Mof_H 	H 	0.1436	0.023	0.3814	0.129
Mof_H 	H 	0.1345	0.9839	0.389	0.152
Mof_N 	N 	0.19567	0.07466	0.38093	-0.268
Mof_N 	N 	0.21941	0.04638	0.39275	-0.256
Mof_N 	N 	0.21597	0.04559	0.33301	-0.251
Mof_H 	H 	0.2196	0.0395	0.3105	0.122
Mof_N 	N 	0.25417	0.00081	0.36154	-0.34
Mof_H 	H 	0.2631	0.992	0.3816	0.112
Mof_H 	H 	0.2602	0.9913	0.3408	0.141
Mof_C 	C 	0.0634	0.98587	0.31091	0.159
Mof_C 	C 	0.10503	0.00439	0.34948	0.21
Mof_C 	C 	0.19445	0.07304	0.34503	0.138
Mof_C 	C 	0.2308	0.0294	0.36263	0.2
Mof_Cu	Cu	0.10988	0.58582	0.82947	0.796
Mof_Cu	Cu	0.04684	0.55467	0.76842	0.782
Mof_S 	S 	0.03177	0.45733	0.78899	-0.554
Mof_S 	S 	0.16974	0.60173	0.81563	-0.485
Mof_N 	N 	0.06977	0.52054	0.80448	-0.27
Mof_N 	N 	0.09701	0.53238	0.82898	-0.247
Mof_N 	N 	0.08509	0.47489	0.83945	-0.252
Mof_H 	H 	0.0859	0.4534	0.8491	0.127
Mof_N 	N 	0.13091	0.50366	0.87663	-0.331
Mof_H 	H 	0.1436	0.523	0.8814	0.129
Mof_H 	H 	0.1345	0.4839	0.889	0.146
Mof_N 	N 	0.19567	0.57466	0.88093	-0.268
Mof_N 	N 	0.21941	0.54638	0.89275	-0.255
Mof_N 	N 	0.21597	0.54559	0.83301	-0.251
Mof_H 	H 	0.2196	0.5395	0.8105	0.123
Mof_N 	N 	0.25417	0.50081	0.86154	-0.325
Mof_H 	H 	0.2631	0.492	0.8816	0.102
Mof_H 	H 	0.2602	0.4913	0.8408	0.132
Mof_C 	C 	0.0634	0.48587	0.81091	0.152
Mof_C 	C 	0.10503	0.50439	0.84948	0.216
Mof_C 	C 	0.19445	0.57304	0.84503	0.138
Mof_C 	C 	0.2308	0.5294	0.86263	0.199
Mof_Cu	Cu	0.60988	0.91418	0.17053	0.796
Mof_Cu	Cu	0.54684	0.94533	0.23158	0.784
Mof_S 	S 	0.53177	0.04267	0.21101	-0.551
Mof_S 	S 	0.66974	0.89827	0.18437	-0.484
Mof_N 	N 	0.56977	0.97946	0.19552	-0.266
Mof_N 	N 	0.59701	0.96762	0.17102	-0.247
Mof_N 	N 	0.58509	0.02511	0.16055	-0.255
Mof_H 	H 	0.5859	0.0466	0.1509	0.127
Mof_N 	N 	0.63091	0.99634	0.12337	-0.324
Mof_H 	H 	0.6436	0.977	0.1186	0.128
Mof_H 	H 	0.6345	0.0161	0.111	0.138
Mof_N 	N 	0.69567	0.92534	0.11907	-0.268
Mof_N 	N 	0.71941	0.95362	0.10725	-0.253
Mof_N 	N 	0.71597	0.95441	0.16699	-0.25
Mof_H 	H 	0.7196	0.9605	0.1895	0.125
Mof_N 	N 	0.75417	0.99919	0.13846	-0.31
Mof_H 	H 	0.7631	0.008	0.1184	0.093
Mof_H 	H 	0.7602	0.0087	0.1592	0.123
Mof_C 	C 	0.5634	0.01413	0.18909	0.144
Mof_C 	C 	0.60503	0.99561	0.15052	0.222
Mof_C 	C 	0.69445	0.92696	0.15497	0.138
Mof_C 	C 	0.7308	0.9706	0.13737	0.199
Mof_Cu	Cu	0.60988	0.41418	0.67053	0.796
Mof_Cu	Cu	0.54684	0.44533	0.73158	0.783
Mof_S 	S 	0.53177	0.54267	0.71101	-0.55
Mof_S 	S 	0.66974	0.39827	0.68437	-0.485
Mof_N 	N 	0.56977	0.47946	0.69552	-0.27
Mof_N 	N 	0.59701	0.46762	0.67102	-0.247
Mof_N 	N 	0.58509	0.52511	0.66055	-0.252
Mof_H 	H 	0.5859	0.5466	0.6509	0.128
Mof_N 	N 	0.63091	0.49634	0.62337	-0.331
Mof_H 	H 	0.6436	0.477	0.6186	0.128
Mof_H 	H 	0.6345	0.5161	0.611	0.145
Mof_N 	N 	0.69567	0.42534	0.61907	-0.268
Mof_N 	N 	0.71941	0.45362	0.60725	-0.255
Mof_N 	N 	0.71597	0.45441	0.66699	-0.251
Mof_H 	H 	0.7196	0.4605	0.6895	0.123
Mof_N 	N 	0.75417	0.49919	0.63846	-0.325
Mof_H 	H 	0.7631	0.508	0.6184	0.102
Mof_H 	H 	0.7602	0.5087	0.6592	0.132
Mof_C 	C 	0.5634	0.51413	0.68909	0.152
Mof_C 	C 	0.60503	0.49561	0.65052	0.216
Mof_C 	C 	0.69445	0.42696	0.65497	0.138
Mof_C 	C 	0.7308	0.4706	0.63737	0.199
Mof_Cu	Cu	0.10988	0.91418	0.67053	0.796
Mof_Cu	Cu	0.04684	0.94533	0.73158	0.783
Mof_S 	S 	0.03177	0.04267	0.71101	-0.555
Mof_S 	S 	0.16974	0.89827	0.68437	-0.484
Mof_N 	N 	0.06977	0.97946	0.69552	-0.266
Mof_N 	N 	0.09701	0.96762	0.67102	-0.248
Mof_N 	N 	0.08509	0.02511	0.66055	-0.255
Mof_H 	H 	0.0859	0.0466	0.6509	0.127
Mof_N 	N 	0.13091	0.99634	0.62337	-0.324
Mof_H 	H 	0.1436	0.977	0.6186	0.128
Mof_H 	H 	0.1345	0.0161	0.611	0.138
Mof_N 	N 	0.19567	0.92534	0.61907	-0.268
Mof_N 	N 	0.21941	0.95362	0.60725	-0.253
Mof_N 	N 	0.21597	0.95441	0.66699	-0.25
Mof_H 	H 	0.2196	0.9605	0.6895	0.125
Mof_N 	N 	0.25417	0.99919	0.63846	-0.31
Mof_H 	H 	0.2631	0.008	0.6184	0.093
Mof_H 	H 	0.2602	0.0087	0.6592	0.123
Mof_C 	C 	0.0634	0.01413	0.68909	0.144
Mof_C 	C 	0.10503	0.99561	0.65052	0.222
Mof_C 	C 	0.19445	0.92696	0.65497	0.138
Mof_C 	C 	0.2308	0.9706	0.63737	0.199
Mof_Cu	Cu	0.10988	0.41418	0.17053	0.796
Mof_Cu	Cu	0.04684	0.44533	0.23158	0.782
Mof_S 	S 	0.03177	0.54267	0.21101	-0.554
Mof_S 	S 	0.16974	0.39827	0.18437	-0.485
Mof_N 	N 	0.06977	0.47946	0.19552	-0.27
Mof_N 	N 	0.09701	0.46762	0.17102	-0.247
Mof_N 	N 	0.08509	0.52511	0.16055	-0.252
Mof_H 	H 	0.0859	0.5466	0.1509	0.127
Mof_N 	N 	0.13091	0.49634	0.12337	-0.331
Mof_H 	H 	0.1436	0.477	0.1186	0.128
Mof_H 	H 	0.1345	0.5161	0.111	0.145
Mof_N 	N 	0.19567	0.42534	0.11907	-0.268
Mof_N 	N 	0.21941	0.45362	0.10725	-0.255
Mof_N 	N 	0.21597	0.45441	0.16699	-0.251
Mof_H 	H 	0.2196	0.4605	0.1895	0.123
Mof_N 	N 	0.25417	0.49919	0.13846	-0.325
Mof_H 	H 	0.2631	0.508	0.1184	0.102
Mof_H 	H 	0.2602	0.5087	0.1592	0.132
Mof_C 	C 	0.0634	0.51413	0.18909	0.151
Mof_C 	C 	0.10503	0.49561	0.15052	0.215
Mof_C 	C 	0.19445	0.42696	0.15497	0.138
Mof_C 	C 	0.2308	0.4706	0.13737	0.199
Mof_Cu	Cu	0.39012	0.91418	0.82947	0.796
Mof_Cu	Cu	0.45316	0.94533	0.76842	0.784
Mof_S 	S 	0.46823	0.04267	0.78899	-0.551
Mof_S 	S 	0.33026	0.89827	0.81563	-0.484
Mof_N 	N 	0.43023	0.97946	0.80448	-0.266
Mof_N 	N 	0.40299	0.96762	0.82898	-0.247
Mof_N 	N 	0.41491	0.02511	0.83945	-0.255
Mof_H 	H 	0.4141	0.0466	0.8491	0.128
Mof_N 	N 	0.36909	0.99634	0.87663	-0.325
Mof_H 	H 	0.3564	0.977	0.8814	0.128
Mof_H 	H 	0.3655	0.0161	0.889	0.139
Mof_N 	N 	0.30433	0.92534	0.88093	-0.268
Mof_N 	N 	0.28059	0.95362	0.89275	-0.253
Mof_N 	N 	0.28403	0.95441	0.83301	-0.25
Mof_H 	H 	0.2804	0.9605	0.8105	0.125
Mof_N 	N 	0.24583	0.99919	0.86154	-0.31
Mof_H 	H 	0.2369	0.008	0.8816	0.093
Mof_H 	H 	0.2398	0.0087	0.8408	0.123
Mof_C 	C 	0.4366	0.01413	0.81091	0.145
Mof_C 	C 	0.39497	0.99561	0.84948	0.222
Mof_C 	C 	0.30555	0.92696	0.84503	0.138
Mof_C 	C 	0.2692	0.9706	0.86263	0.199
Mof_Cu	Cu	0.39012	0.41418	0.32947	0.796
Mof_Cu	Cu	0.45316	0.44533	0.26842	0.783
Mof_S 	S 	0.46823	0.54267	0.28899	-0.55
Mof_S 	S 	0.33026	0.39827	0.31563	-0.485
Mof_N 	N 	0.43023	0.47946	0.30448	-0.27
Mof_N 	N 	0.40299	0.46762	0.32898	-0.247
Mof_N 	N 	0.41491	0.52511	0.33945	-0.252
Mof_H 	H 	0.4141	0.5466	0.3491	0.128
Mof_N 	N 	0.36909	0.49634	0.37663	-0.331
Mof_H 	H 	0.3564	0.477	0.3814	0.128
Mof_H 	H 	0.3655	0.5161	0.389	0.145
Mof_N 	N 	0.30433	0.42534	0.38093	-0.268
Mof_N 	N 	0.28059	0.45362	0.39275	-0.255
Mof_N 	N 	0.28403	0.45441	0.33301	-0.251
Mof_H 	H 	0.2804	0.4605	0.3105	0.123
Mof_N 	N 	0.24583	0.49919	0.36154	-0.325
Mof_H 	H 	0.2369	0.508	0.3816	0.102
Mof_H 	H 	0.2398	0.5087	0.3408	0.132
Mof_C 	C 	0.4366	0.51413	0.31091	0.152
Mof_C 	C 	0.39497	0.49561	0.34948	0.216
Mof_C 	C 	0.30555	0.42696	0.34503	0.138
Mof_C 	C 	0.2692	0.4706	0.36263	0.199
Mof_Cu	Cu	0.89012	0.91418	0.32947	0.796
Mof_Cu	Cu	0.95316	0.94533	0.26842	0.785
Mof_S 	S 	0.96823	0.04267	0.28899	-0.545
Mof_S 	S 	0.83026	0.89827	0.31563	-0.484
Mof_N 	N 	0.93023	0.97946	0.30448	-0.265
Mof_N 	N 	0.90299	0.96762	0.32898	-0.247
Mof_N 	N 	0.91491	0.02511	0.33945	-0.255
Mof_H 	H 	0.9141	0.0466	0.3491	0.128
Mof_N 	N 	0.86909	0.99634	0.37663	-0.325
Mof_H 	H 	0.8564	0.977	0.3814	0.128
Mof_H 	H 	0.8655	0.0161	0.389	0.139
Mof_N 	N 	0.80433	0.92534	0.38093	-0.268
Mof_N 	N 	0.78059	0.95362	0.39275	-0.253
Mof_N 	N 	0.78403	0.95441	0.33301	-0.25
Mof_H 	H 	0.7804	0.9605	0.3105	0.125
Mof_N 	N 	0.74583	0.99919	0.36154	-0.31
Mof_H 	H 	0.7369	0.008	0.3816	0.093
Mof_H 	H 	0.7398	0.0087	0.3408	0.123
Mof_C 	C 	0.9366	0.01413	0.31091	0.145
Mof_C 	C 	0.89497	0.99561	0.34948	0.223
Mof_C 	C 	0.80555	0.92696	0.34503	0.138
Mof_C 	C 	0.7692	0.9706	0.36263	0.199
Mof_Cu	Cu	0.89012	0.41418	0.82947	0.796
Mof_Cu	Cu	0.95316	0.44533	0.76842	0.785
Mof_S 	S 	0.96823	0.54267	0.78899	-0.544
Mof_S 	S 	0.83026	0.39827	0.81563	-0.485
Mof_N 	N 	0.93023	0.47946	0.80448	-0.269
Mof_N 	N 	0.90299	0.46762	0.82898	-0.247
Mof_N 	N 	0.91491	0.52511	0.83945	-0.252
Mof_H 	H 	0.9141	0.5466	0.8491	0.128
Mof_N 	N 	0.86909	0.49634	0.87663	-0.331
Mof_H 	H 	0.8564	0.477	0.8814	0.129
Mof_H 	H 	0.8655	0.5161	0.889	0.146
Mof_N 	N 	0.80433	0.42534	0.88093	-0.268
Mof_N 	N 	0.78059	0.45362	0.89275	-0.255
Mof_N 	N 	0.78403	0.45441	0.83301	-0.251
Mof_H 	H 	0.7804	0.4605	0.8105	0.123
Mof_N 	N 	0.74583	0.49919	0.86154	-0.325
Mof_H 	H 	0.7369	0.508	0.8816	0.102
Mof_H 	H 	0.7398	0.5087	0.8408	0.132
Mof_C 	C 	0.9366	0.51413	0.81091	0.152
Mof_C 	C 	0.89497	0.49561	0.84948	0.217
Mof_C 	C 	0.80555	0.42696	0.84503	0.138
Mof_C 	C 	0.7692	0.4706	0.86263	0.199
Mof_Cu	Cu	0.08582	0.17053	0.39012	0.796
Mof_Cu	Cu	0.05467	0.23158	0.45316	0.783
Mof_S 	S 	0.95733	0.21101	0.46823	-0.547
Mof_S 	S 	0.10173	0.18437	0.33026	-0.485
Mof_N 	N 	0.02054	0.19552	0.43023	-0.274
Mof_N 	N 	0.03238	0.17102	0.40299	-0.246
Mof_N 	N 	0.97489	0.16055	0.41491	-0.249
Mof_H 	H 	0.9534	0.1509	0.4141	0.128
Mof_N 	N 	0.00366	0.12337	0.36909	-0.337
Mof_H 	H 	0.023	0.1186	0.3564	0.129
Mof_H 	H 	0.9839	0.111	0.3655	0.152
Mof_N 	N 	0.07466	0.11907	0.30433	-0.268
Mof_N 	N 	0.04638	0.10725	0.28059	-0.256
Mof_N 	N 	0.04559	0.16699	0.28403	-0.251
Mof_H 	H 	0.0395	0.1895	0.2804	0.122
Mof_N 	N 	0.00081	0.13846	0.24583	-0.34
Mof_H 	H 	0.992	0.1184	0.2369	0.112
Mof_H 	H 	0.9913	0.1592	0.2398	0.141
Mof_C 	C 	0.98587	0.18909	0.4366	0.159
Mof_C 	C 	0.00439	0.15052	0.39497	0.21
Mof_C 	C 	0.07304	0.15497	0.30555	0.138
Mof_C 	C 	0.0294	0.13737	0.2692	0.2
Mof_Cu	Cu	0.08582	0.67053	0.89012	0.796
Mof_Cu	Cu	0.05467	0.73158	0.95316	0.784
Mof_S 	S 	0.95733	0.71101	0.96823	-0.542
Mof_S 	S 	0.10173	0.68437	0.83026	-0.485
Mof_N 	N 	0.02054	0.69552	0.93023	-0.273
Mof_N 	N 	0.03238	0.67102	0.90299	-0.246
Mof_N 	N 	0.97489	0.66055	0.91491	-0.249
Mof_H 	H 	0.9534	0.6509	0.9141	0.128
Mof_N 	N 	0.00366	0.62337	0.86909	-0.337
Mof_H 	H 	0.023	0.6186	0.8564	0.129
Mof_H 	H 	0.9839	0.611	0.8655	0.153
Mof_N 	N 	0.07466	0.61907	0.80433	-0.268
Mof_N 	N 	0.04638	0.60725	0.78059	-0.256
Mof_N 	N 	0.04559	0.66699	0.78403	-0.251
Mof_H 	H 	0.0395	0.6895	0.7804	0.122
Mof_N 	N 	0.00081	0.63846	0.74583	-0.34
Mof_H 	H 	0.992	0.6184	0.7369	0.111
Mof_H 	H 	0.9913	0.6592	0.7398	0.141
Mof_C 	C 	0.98587	0.68909	0.9366	0.159
Mof_C 	C 	0.00439	0.65052	0.89497	0.211
Mof_C 	C 	0.07304	0.65497	0.80555	0.138
Mof_C 	C 	0.0294	0.63737	0.7692	0.2
Mof_Cu	Cu	0.58582	0.17053	0.89012	0.796
Mof_Cu	Cu	0.55467	0.23158	0.95316	0.785
Mof_S 	S 	0.45733	0.21101	0.96823	-0.544
Mof_S 	S 	0.60173	0.18437	0.83026	-0.485
Mof_N 	N 	0.52054	0.19552	0.93023	-0.269
Mof_N 	N 	0.53238	0.17102	0.90299	-0.247
Mof_N 	N 	0.47489	0.16055	0.91491	-0.252
Mof_H 	H 	0.4534	0.1509	0.9141	0.128
Mof_N 	N 	0.50366	0.12337	0.86909	-0.331
Mof_H 	H 	0.523	0.1186	0.8564	0.128
Mof_H 	H 	0.4839	0.111	0.8655	0.145
Mof_N 	N 	0.57466	0.11907	0.80433	-0.268
Mof_N 	N 	0.54638	0.10725	0.78059	-0.255
Mof_N 	N 	0.54559	0.16699	0.78403	-0.251
Mof_H 	H 	0.5395	0.1895	0.7804	0.123
Mof_N 	N 	0.50081	0.13846	0.74583	-0.325
Mof_H 	H 	0.492	0.1184	0.7369	0.102
Mof_H 	H 	0.4913	0.1592	0.7398	0.132
Mof_C 	C 	0.48587	0.18909	0.9366	0.152
Mof_C 	C 	0.50439	0.15052	0.89497	0.216
Mof_C 	C 	0.57304	0.15497	0.80555	0.138
Mof_C 	C 	0.5294	0.13737	0.7692	0.199
Mof_Cu	Cu	0.58582	0.67053	0.39012	0.796
Mof_Cu	Cu	0.55467	0.73158	0.45316	0.783
Mof_S 	S 	0.45733	0.71101	0.46823	-0.55
Mof_S 	S 	0.60173	0.68437	0.33026	-0.485
Mof_N 	N 	0.52054	0.69552	0.43023	-0.27
Mof_N 	N 	0.53238	0.67102	0.40299	-0.247
Mof_N 	N 	0.47489	0.66055	0.41491	-0.252
Mof_H 	H 	0.4534	0.6509	0.4141	0.128
Mof_N 	N 	0.50366	0.62337	0.36909	-0.331
Mof_H 	H 	0.523	0.6186	0.3564	0.128
Mof_H 	H 	0.4839	0.611	0.3655	0.145
Mof_N 	N 	0.57466	0.61907	0.30433	-0.268
Mof_N 	N 	0.54638	0.60725	0.28059	-0.255
Mof_N 	N 	0.54559	0.66699	0.28403	-0.251
Mof_H 	H 	0.5395	0.6895	0.2804	0.123
Mof_N 	N 	0.50081	0.63846	0.24583	-0.325
Mof_H 	H 	0.492	0.6184	0.2369	0.102
Mof_H 	H 	0.4913	0.6592	0.2398	0.132
Mof_C 	C 	0.48587	0.68909	0.4366	0.152
Mof_C 	C 	0.50439	0.65052	0.39497	0.216
Mof_C 	C 	0.57304	0.65497	0.30555	0.138
Mof_C 	C 	0.5294	0.63737	0.2692	0.199
Mof_Cu	Cu	0.08582	0.82947	0.60988	0.796
Mof_Cu	Cu	0.05467	0.76842	0.54684	0.783
Mof_S 	S 	0.95733	0.78899	0.53177	-0.547
Mof_S 	S 	0.10173	0.81563	0.66974	-0.485
Mof_N 	N 	0.02054	0.80448	0.56977	-0.274
Mof_N 	N 	0.03238	0.82898	0.59701	-0.246
Mof_N 	N 	0.97489	0.83945	0.58509	-0.249
Mof_H 	H 	0.9534	0.8491	0.5859	0.128
Mof_N 	N 	0.00366	0.87663	0.63091	-0.337
Mof_H 	H 	0.023	0.8814	0.6436	0.129
Mof_H 	H 	0.9839	0.889	0.6345	0.153
Mof_N 	N 	0.07466	0.88093	0.69567	-0.268
Mof_N 	N 	0.04638	0.89275	0.71941	-0.256
Mof_N 	N 	0.04559	0.83301	0.71597	-0.251
Mof_H 	H 	0.0395	0.8105	0.7196	0.122
Mof_N 	N 	0.00081	0.86154	0.75417	-0.34
Mof_H 	H 	0.992	0.8816	0.7631	0.111
Mof_H 	H 	0.9913	0.8408	0.7602	0.141
Mof_C 	C 	0.98587	0.81091	0.5634	0.159
Mof_C 	C 	0.00439	0.84948	0.60503	0.21
Mof_C 	C 	0.07304	0.84503	0.69445	0.138
Mof_C 	C 	0.0294	0.86263	0.7308	0.2
Mof_Cu	Cu	0.08582	0.32947	0.10988	0.796
Mof_Cu	Cu	0.05467	0.26842	0.04684	0.782
Mof_S 	S 	0.95733	0.28899	0.03177	-0.551
Mof_S 	S 	0.10173	0.31563	0.16974	-0.485
Mof_N 	N 	0.02054	0.30448	0.06977	-0.274
Mof_N 	N 	0.03238	0.32898	0.09701	-0.246
Mof_N 	N 	0.97489	0.33945	0.08509	-0.249
Mof_H 	H 	0.9534	0.3491	0.0859	0.127
Mof_N 	N 	0.00366	0.37663	0.13091	-0.337
Mof_H 	H 	0.023	0.3814	0.1436	0.129
Mof_H 	H 	0.9839	0.389	0.1345	0.152
Mof_N 	N 	0.07466	0.38093	0.19567	-0.268
Mof_N 	N 	0.04638	0.39275	0.21941	-0.256
Mof_N 	N 	0.04559	0.33301	0.21597	-0.251
Mof_H 	H 	0.0395	0.3105	0.2196	0.122
Mof_N 	N 	0.00081	0.36154	0.25417	-0.34
Mof_H 	H 	0.992	0.3816	0.2631	0.112
Mof_H 	H 	0.9913	0.3408	0.2602	0.141
Mof_C 	C 	0.98587	0.31091	0.0634	0.159
Mof_C 	C 	0.00439	0.34948	0.10503	0.21
Mof_C 	C 	0.07304	0.34503	0.19445	0.138
Mof_C 	C 	0.0294	0.36263	0.2308	0.2
Mof_Cu	Cu	0.58582	0.82947	0.10988	0.796
Mof_Cu	Cu	0.55467	0.76842	0.04684	0.782
Mof_S 	S 	0.45733	0.78899	0.03177	-0.554
Mof_S 	S 	0.60173	0.81563	0.16974	-0.485
Mof_N 	N 	0.52054	0.80448	0.06977	-0.27
Mof_N 	N 	0.53238	0.82898	0.09701	-0.247
Mof_N 	N 	0.47489	0.83945	0.08509	-0.252
Mof_H 	H 	0.4534	0.8491	0.0859	0.127
Mof_N 	N 	0.50366	0.87663	0.13091	-0.331
Mof_H 	H 	0.523	0.8814	0.1436	0.129
Mof_H 	H 	0.4839	0.889	0.1345	0.146
Mof_N 	N 	0.57466	0.88093	0.19567	-0.268
Mof_N 	N 	0.54638	0.89275	0.21941	-0.255
Mof_N 	N 	0.54559	0.83301	0.21597	-0.251
Mof_H 	H 	0.5395	0.8105	0.2196	0.123
Mof_N 	N 	0.50081	0.86154	0.25417	-0.325
Mof_H 	H 	0.492	0.8816	0.2631	0.102
Mof_H 	H 	0.4913	0.8408	0.2602	0.132
Mof_C 	C 	0.48587	0.81091	0.0634	0.152
Mof_C 	C 	0.50439	0.84948	0.10503	0.216
Mof_C 	C 	0.57304	0.84503	0.19445	0.138
Mof_C 	C 	0.5294	0.86263	0.2308	0.199
Mof_Cu	Cu	0.58582	0.32947	0.60988	0.796
Mof_Cu	Cu	0.55467	0.26842	0.54684	0.783
Mof_S 	S 	0.45733	0.28899	0.53177	-0.55
Mof_S 	S 	0.60173	0.31563	0.66974	-0.485
Mof_N 	N 	0.52054	0.30448	0.56977	-0.27
Mof_N 	N 	0.53238	0.32898	0.59701	-0.247
Mof_N 	N 	0.47489	0.33945	0.58509	-0.252
Mof_H 	H 	0.4534	0.3491	0.5859	0.128
Mof_N 	N 	0.50366	0.37663	0.63091	-0.331
Mof_H 	H 	0.523	0.3814	0.6436	0.128
Mof_H 	H 	0.4839	0.389	0.6345	0.145
Mof_N 	N 	0.57466	0.38093	0.69567	-0.268
Mof_N 	N 	0.54638	0.39275	0.71941	-0.255
Mof_N 	N 	0.54559	0.33301	0.71597	-0.251
Mof_H 	H 	0.5395	0.3105	0.7196	0.123
Mof_N 	N 	0.50081	0.36154	0.75417	-0.325
Mof_H 	H 	0.492	0.3816	0.7631	0.102
Mof_H 	H 	0.4913	0.3408	0.7602	0.132
Mof_C 	C 	0.48587	0.31091	0.5634	0.152
Mof_C 	C 	0.50439	0.34948	0.60503	0.216
Mof_C 	C 	0.57304	0.34503	0.69445	0.138
Mof_C 	C 	0.5294	0.36263	0.7308	0.199
Mof_Cu	Cu	0.91418	0.17053	0.60988	0.796
Mof_Cu	Cu	0.94533	0.23158	0.54684	0.784
Mof_S 	S 	0.04267	0.21101	0.53177	-0.551
Mof_S 	S 	0.89827	0.18437	0.66974	-0.484
Mof_N 	N 	0.97946	0.19552	0.56977	-0.266
Mof_N 	N 	0.96762	0.17102	0.59701	-0.247
Mof_N 	N 	0.02511	0.16055	0.58509	-0.255
Mof_H 	H 	0.0466	0.1509	0.5859	0.127
Mof_N 	N 	0.99634	0.12337	0.63091	-0.324
Mof_H 	H 	0.977	0.1186	0.6436	0.128
Mof_H 	H 	0.0161	0.111	0.6345	0.138
Mof_N 	N 	0.92534	0.11907	0.69567	-0.268
Mof_N 	N 	0.95362	0.10725	0.71941	-0.253
Mof_N 	N 	0.95441	0.16699	0.71597	-0.25
Mof_H 	H 	0.9605	0.1895	0.7196	0.125
Mof_N 	N 	0.99919	0.13846	0.75417	-0.31
Mof_H 	H 	0.008	0.1184	0.7631	0.093
Mof_H 	H 	0.0087	0.1592	0.7602	0.123
Mof_C 	C 	0.01413	0.18909	0.5634	0.144
Mof_C 	C 	0.99561	0.15052	0.60503	0.222
Mof_C 	C 	0.92696	0.15497	0.69445	0.138
Mof_C 	C 	0.9706	0.13737	0.7308	0.199
Mof_Cu	Cu	0.91418	0.67053	0.10988	0.796
Mof_Cu	Cu	0.94533	0.73158	0.04684	0.783
Mof_S 	S 	0.04267	0.71101	0.03177	-0.555
Mof_S 	S 	0.89827	0.68437	0.16974	-0.484
Mof_N 	N 	0.97946	0.69552	0.06977	-0.266
Mof_N 	N 	0.96762	0.67102	0.09701	-0.248
Mof_N 	N 	0.02511	0.66055	0.08509	-0.255
Mof_H 	H 	0.0466	0.6509	0.0859	0.127
Mof_N 	N 	0.99634	0.62337	0.13091	-0.324
Mof_H 	H 	0.977	0.6186	0.1436	0.128
Mof_H 	H 	0.0161	0.611	0.1345	0.138
Mof_N 	N 	0.92534	0.61907	0.19567	-0.268
Mof_N 	N 	0.95362	0.60725	0.21941	-0.253
Mof_N 	N 	0.95441	0.66699	0.21597	-0.25
Mof_H 	H 	0.9605	0.6895	0.2196	0.125
Mof_N 	N 	0.99919	0.63846	0.25417	-0.31
Mof_H 	H 	0.008	0.6184	0.2631	0.093
Mof_H 	H 	0.0087	0.6592	0.2602	0.123
Mof_C 	C 	0.01413	0.68909	0.0634	0.144
Mof_C 	C 	0.99561	0.65052	0.10503	0.222
Mof_C 	C 	0.92696	0.65497	0.19445	0.138
Mof_C 	C 	0.9706	0.63737	0.2308	0.199
Mof_Cu	Cu	0.41418	0.17053	0.10988	0.796
Mof_Cu	Cu	0.44533	0.23158	0.04684	0.782
Mof_S 	S 	0.54267	0.21101	0.03177	-0.554
Mof_S 	S 	0.39827	0.18437	0.16974	-0.485
Mof_N 	N 	0.47946	0.19552	0.06977	-0.27
Mof_N 	N 	0.46762	0.17102	0.09701	-0.247
Mof_N 	N 	0.52511	0.16055	0.08509	-0.252
Mof_H 	H 	0.5466	0.1509	0.0859	0.127
Mof_N 	N 	0.49634	0.12337	0.13091	-0.331
Mof_H 	H 	0.477	0.1186	0.1436	0.128
Mof_H 	H 	0.5161	0.111	0.1345	0.145
Mof_N 	N 	0.42534	0.11907	0.19567	-0.268
Mof_N 	N 	0.45362	0.10725	0.21941	-0.255
Mof_N 	N 	0.45441	0.16699	0.21597	-0.251
Mof_H 	H 	0.4605	0.1895	0.2196	0.123
Mof_N 	N 	0.49919	0.13846	0.25417	-0.325
Mof_H 	H 	0.508	0.1184	0.2631	0.102
Mof_H 	H 	0.5087	0.1592	0.2602	0.132
Mof_C 	C 	0.51413	0.18909	0.0634	0.151
Mof_C 	C 	0.49561	0.15052	0.10503	0.215
Mof_C 	C 	0.42696	0.15497	0.19445	0.138
Mof_C 	C 	0.4706	0.13737	0.2308	0.199
Mof_Cu	Cu	0.41418	0.67053	0.60988	0.796
Mof_Cu	Cu	0.44533	0.73158	0.54684	0.783
Mof_S 	S 	0.54267	0.71101	0.53177	-0.55
Mof_S 	S 	0.39827	0.68437	0.66974	-0.485
Mof_N 	N 	0.47946	0.69552	0.56977	-0.27
Mof_N 	N 	0.46762	0.67102	0.59701	-0.247
Mof_N 	N 	0.52511	0.66055	0.58509	-0.252
Mof_H 	H 	0.5466	0.6509	0.5859	0.128
Mof_N 	N 	0.49634	0.62337	0.63091	-0.331
Mof_H 	H 	0.477	0.6186	0.6436	0.128
Mof_H 	H 	0.5161	0.611	0.6345	0.145
Mof_N 	N 	0.42534	0.61907	0.69567	-0.268
Mof_N 	N 	0.45362	0.60725	0.71941	-0.255
Mof_N 	N 	0.45441	0.66699	0.71597	-0.251
Mof_H 	H 	0.4605	0.6895	0.7196	0.123
Mof_N 	N 	0.49919	0.63846	0.75417	-0.325
Mof_H 	H 	0.508	0.6184	0.7631	0.102
Mof_H 	H 	0.5087	0.6592	0.7602	0.132
Mof_C 	C 	0.51413	0.68909	0.5634	0.152
Mof_C 	C 	0.49561	0.65052	0.60503	0.216
Mof_C 	C 	0.42696	0.65497	0.69445	0.138
Mof_C 	C 	0.4706	0.63737	0.7308	0.199
Mof_Cu	Cu	0.91418	0.82947	0.39012	0.796
Mof_Cu	Cu	0.94533	0.76842	0.45316	0.784
Mof_S 	S 	0.04267	0.78899	0.46823	-0.551
Mof_S 	S 	0.89827	0.81563	0.33026	-0.484
Mof_N 	N 	0.97946	0.80448	0.43023	-0.266
Mof_N 	N 	0.96762	0.82898	0.40299	-0.247
Mof_N 	N 	0.02511	0.83945	0.41491	-0.255
Mof_H 	H 	0.0466	0.8491	0.4141	0.128
Mof_N 	N 	0.99634	0.87663	0.36909	-0.325
Mof_H 	H 	0.977	0.8814	0.3564	0.128
Mof_H 	H 	0.0161	0.889	0.3655	0.139
Mof_N 	N 	0.92534	0.88093	0.30433	-0.268
Mof_N 	N 	0.95362	0.89275	0.28059	-0.253
Mof_N 	N 	0.95441	0.83301	0.28403	-0.25
Mof_H 	H 	0.9605	0.8105	0.2804	0.125
Mof_N 	N 	0.99919	0.86154	0.24583	-0.31
Mof_H 	H 	0.008	0.8816	0.2369	0.093
Mof_H 	H 	0.0087	0.8408	0.2398	0.123
Mof_C 	C 	0.01413	0.81091	0.4366	0.145
Mof_C 	C 	0.99561	0.84948	0.39497	0.222
Mof_C 	C 	0.92696	0.84503	0.30555	0.138
Mof_C 	C 	0.9706	0.86263	0.2692	0.199
Mof_Cu	Cu	0.91418	0.32947	0.89012	0.796
Mof_Cu	Cu	0.94533	0.26842	0.95316	0.785
Mof_S 	S 	0.04267	0.28899	0.96823	-0.545
Mof_S 	S 	0.89827	0.31563	0.83026	-0.484
Mof_N 	N 	0.97946	0.30448	0.93023	-0.265
Mof_N 	N 	0.96762	0.32898	0.90299	-0.247
Mof_N 	N 	0.02511	0.33945	0.91491	-0.255
Mof_H 	H 	0.0466	0.3491	0.9141	0.128
Mof_N 	N 	0.99634	0.37663	0.86909	-0.325
Mof_H 	H 	0.977	0.3814	0.8564	0.128
Mof_H 	H 	0.0161	0.389	0.8655	0.139
Mof_N 	N 	0.92534	0.38093	0.80433	-0.268
Mof_N 	N 	0.95362	0.39275	0.78059	-0.253
Mof_N 	N 	0.95441	0.33301	0.78403	-0.25
Mof_H 	H 	0.9605	0.3105	0.7804	0.125
Mof_N 	N 	0.99919	0.36154	0.74583	-0.31
Mof_H 	H 	0.008	0.3816	0.7369	0.093
Mof_H 	H 	0.0087	0.3408	0.7398	0.123
Mof_C 	C 	0.01413	0.31091	0.9366	0.145
Mof_C 	C 	0.99561	0.34948	0.89497	0.223
Mof_C 	C 	0.92696	0.34503	0.80555	0.138
Mof_C 	C 	0.9706	0.36263	0.7692	0.199
Mof_Cu	Cu	0.41418	0.82947	0.89012	0.796
Mof_Cu	Cu	0.44533	0.76842	0.95316	0.785
Mof_S 	S 	0.54267	0.78899	0.96823	-0.544
Mof_S 	S 	0.39827	0.81563	0.83026	-0.485
Mof_N 	N 	0.47946	0.80448	0.93023	-0.269
Mof_N 	N 	0.46762	0.82898	0.90299	-0.247
Mof_N 	N 	0.52511	0.83945	0.91491	-0.252
Mof_H 	H 	0.5466	0.8491	0.9141	0.128
Mof_N 	N 	0.49634	0.87663	0.86909	-0.331
Mof_H 	H 	0.477	0.8814	0.8564	0.129
Mof_H 	H 	0.5161	0.889	0.8655	0.146
Mof_N 	N 	0.42534	0.88093	0.80433	-0.268
Mof_N 	N 	0.45362	0.89275	0.78059	-0.255
Mof_N 	N 	0.45441	0.83301	0.78403	-0.251
Mof_H 	H 	0.4605	0.8105	0.7804	0.123
Mof_N 	N 	0.49919	0.86154	0.74583	-0.325
Mof_H 	H 	0.508	0.8816	0.7369	0.102
Mof_H 	H 	0.5087	0.8408	0.7398	0.132
Mof_C 	C 	0.51413	0.81091	0.9366	0.152
Mof_C 	C 	0.49561	0.84948	0.89497	0.217
Mof_C 	C 	0.42696	0.84503	0.80555	0.138
Mof_C 	C 	0.4706	0.86263	0.7692	0.199
Mof_Cu	Cu	0.41418	0.32947	0.39012	0.796
Mof_Cu	Cu	0.44533	0.26842	0.45316	0.783
Mof_S 	S 	0.54267	0.28899	0.46823	-0.55
Mof_S 	S 	0.39827	0.31563	0.33026	-0.485
Mof_N 	N 	0.47946	0.30448	0.43023	-0.27
Mof_N 	N 	0.46762	0.32898	0.40299	-0.247
Mof_N 	N 	0.52511	0.33945	0.41491	-0.252
Mof_H 	H 	0.5466	0.3491	0.4141	0.128
Mof_N 	N 	0.49634	0.37663	0.36909	-0.331
Mof_H 	H 	0.477	0.3814	0.3564	0.128
Mof_H 	H 	0.5161	0.389	0.3655	0.145
Mof_N 	N 	0.42534	0.38093	0.30433	-0.268
Mof_N 	N 	0.45362	0.39275	0.28059	-0.255
Mof_N 	N 	0.45441	0.33301	0.28403	-0.251
Mof_H 	H 	0.4605	0.3105	0.2804	0.123
Mof_N 	N 	0.49919	0.36154	0.24583	-0.325
Mof_H 	H 	0.508	0.3816	0.2369	0.102
Mof_H 	H 	0.5087	0.3408	0.2398	0.132
Mof_C 	C 	0.51413	0.31091	0.4366	0.152
Mof_C 	C 	0.49561	0.34948	0.39497	0.216
Mof_C 	C 	0.42696	0.34503	0.30555	0.138
Mof_C 	C 	0.4706	0.36263	0.2692	0.199
Mof_Cu	Cu	0.85207	0.64793	0.64793	0.744
Mof_Br	Br	0.90142	0.59858	0.59858	-0.7
Mof_Cu	Cu	0.85207	0.14793	0.14793	0.744
Mof_Br	Br	0.90142	0.09858	0.09858	-0.702
Mof_Cu	Cu	0.14793	0.35207	0.64793	0.744
Mof_Br	Br	0.09858	0.40142	0.59858	-0.702
Mof_Cu	Cu	0.14793	0.85207	0.14793	0.744
Mof_Br	Br	0.09858	0.90142	0.09858	-0.702
Mof_Cu	Cu	0.14793	0.64793	0.35207	0.744
Mof_Br	Br	0.09858	0.59858	0.40142	-0.702
Mof_Cu	Cu	0.14793	0.14793	0.85207	0.744
Mof_Br	Br	0.09858	0.09858	0.90142	-0.702
Mof_Cu	Cu	0.85207	0.35207	0.35207	0.744
Mof_Br	Br	0.90142	0.40142	0.40142	-0.7
Mof_Cu	Cu	0.85207	0.85207	0.85207	0.744
Mof_Br	Br	0.90142	0.90142	0.90142	-0.697
Mof_Cu	Cu	0.64793	0.85207	0.64793	0.744
Mof_Br	Br	0.59858	0.90142	0.59858	-0.7
Mof_Cu	Cu	0.64793	0.14793	0.35207	0.744
Mof_Br	Br	0.59858	0.09858	0.40142	-0.702
Mof_Cu	Cu	0.35207	0.14793	0.64793	0.744
Mof_Br	Br	0.40142	0.09858	0.59858	-0.702
Mof_Cu	Cu	0.35207	0.85207	0.35207	0.744
Mof_Br	Br	0.40142	0.90142	0.40142	-0.7
Mof_Cu	Cu	0.64793	0.64793	0.85207	0.744
Mof_Br	Br	0.59858	0.59858	0.90142	-0.7
Mof_Cu	Cu	0.35207	0.64793	0.14793	0.744
Mof_Br	Br	0.40142	0.59858	0.09858	-0.702
Mof_Cu	Cu	0.64793	0.35207	0.14793	0.744
Mof_Br	Br	0.59858	0.40142	0.09858	-0.702
Mof_Cu	Cu	0.35207	0.35207	0.85207	0.744
Mof_Br	Br	0.40142	0.40142	0.90142	-0.7
Mof_Cu	Cu	0.14793	0.35207	0.14793	0.744
Mof_Br	Br	0.09858	0.40142	0.09858	-0.703
Mof_Cu	Cu	0.85207	0.64793	0.14793	0.744
Mof_Br	Br	0.90142	0.59858	0.09858	-0.701
Mof_Cu	Cu	0.14793	0.64793	0.85207	0.744
Mof_Br	Br	0.09858	0.59858	0.90142	-0.701
Mof_Cu	Cu	0.85207	0.35207	0.85207	0.744
Mof_Br	Br	0.90142	0.40142	0.90142	-0.698
Mof_Cu	Cu	0.35207	0.14793	0.14793	0.744
Mof_Br	Br	0.40142	0.09858	0.09858	-0.703
Mof_Cu	Cu	0.35207	0.64793	0.64793	0.744
Mof_Br	Br	0.40142	0.59858	0.59858	-0.701
Mof_Cu	Cu	0.64793	0.14793	0.85207	0.744
Mof_Br	Br	0.59858	0.09858	0.90142	-0.701
Mof_Cu	Cu	0.64793	0.64793	0.35207	0.744
Mof_Br	Br	0.59858	0.59858	0.40142	-0.701
Mof_Cu	Cu	0.64793	0.85207	0.14793	0.744
Mof_Br	Br	0.59858	0.90142	0.09858	-0.701
Mof_Cu	Cu	0.64793	0.35207	0.64793	0.744
Mof_Br	Br	0.59858	0.40142	0.59858	-0.701
Mof_Cu	Cu	0.35207	0.85207	0.85207	0.744
Mof_Br	Br	0.40142	0.90142	0.90142	-0.698
Mof_Cu	Cu	0.35207	0.35207	0.35207	0.744
Mof_Br	Br	0.40142	0.40142	0.40142	-0.701
Mof_Cu	Cu	0.14793	0.14793	0.35207	0.744
Mof_Br	Br	0.09858	0.09858	0.40142	-0.703
Mof_Cu	Cu	0.14793	0.85207	0.64793	0.744
Mof_Br	Br	0.09858	0.90142	0.59858	-0.701
Mof_Cu	Cu	0.85207	0.14793	0.64793	0.744
Mof_Br	Br	0.90142	0.09858	0.59858	-0.701
Mof_Cu	Cu	0.85207	0.85207	0.35207	0.744
Mof_Br	Br	0.90142	0.90142	0.40142	-0.698
Mof_Cu	Cu	-2.31272e-33	0.75	0.5	0.696
Mof_Cu	Cu	-2.09371e-33	0.25	-0	0.693
Mof_Cu	Cu	0.5	0.75	-0	0.696
Mof_Cu	Cu	0.5	0.25	0.5	0.7
Mof_Cu	Cu	-1.06876e-32	0.25	0.5	0.696
Mof_Cu	Cu	-8.37485e-33	0.75	-0	0.693
Mof_Cu	Cu	0.5	0.25	-0	0.696
Mof_Cu	Cu	0.5	0.75	0.5	0.7
Mof_Cu	Cu	0.5	-8.37485e-33	0.75	0.696
Mof_Cu	Cu	0.5	0.5	0.25	0.7
Mof_Cu	Cu	-1.15636e-33	0	0.25	0.693
Mof_Cu	Cu	2.81205e-33	0.5	0.75	0.696
Mof_Cu	Cu	0.5	0	0.25	0.696
Mof_Cu	Cu	0.5	0.5	0.75	0.7
Mof_Cu	Cu	-5.5628e-33	-8.37485e-33	0.75	0.693
Mof_Cu	Cu	-5.34379e-33	0.5	0.25	0.696
Mof_Cu	Cu	0.75	0.5	-0	0.696
Mof_Cu	Cu	0.75	0	0.5	0.696
Mof_Cu	Cu	0.25	0.5	0.5	0.7
Mof_Cu	Cu	0.25	0	-0	0.693
Mof_Cu	Cu	0.25	0.5	-0	0.696
Mof_Cu	Cu	0.25	0	0.5	0.696
Mof_Cu	Cu	0.75	0.5	0.5	0.7
Mof_Cu	Cu	0.75	0	-0	0.693
_end
