data_functionalizedCrystal
_audit_creation_method	'EQeq! by Chris Wilmer'
_symmetry_space_group_name_H-M	'P1'
_symmetry_Int_Tables_number	1
_symmetry_cell_setting	triclinic
loop_
_symmetry_equiv_pos_as_xyz
  x,y,z
_cell_length_a	13.4807
_cell_length_b	13.4807
_cell_length_c	13.4807
_cell_angle_alpha	86.5535
_cell_angle_beta	86.5535
_cell_angle_gamma	86.5535
loop_
_atom_site_label
_atom_site_type_symbol
_atom_site_fract_x
_atom_site_fract_y
_atom_site_fract_z
_atom_site_charge
Mof_Cu	Cu	0.01975	0.59171	0.01975	0.907
Mof_Cu	Cu	0.01975	0.01975	0.59171	0.907
Mof_Cu	Cu	0.59171	0.01975	0.01975	0.907
Mof_Cu	Cu	0.40829	0.98025	0.98025	0.907
Mof_Cu	Cu	0.98025	0.98025	0.40829	0.907
Mof_Cu	Cu	0.98025	0.40829	0.98025	0.907
Mof_H 	H 	0.9999	0.4415	0.6598	0.053
Mof_H 	H 	0.6598	0.9999	0.4415	0.053
Mof_H 	H 	0.4415	0.6598	0.9999	0.053
Mof_H 	H 	0.5585	0.0001	0.3402	0.053
Mof_H 	H 	0.0001	0.3402	0.5585	0.053
Mof_H 	H 	0.3402	0.5585	0.0001	0.053
Mof_H 	H 	0.0001	0.5585	0.3402	0.053
Mof_H 	H 	0.3402	0.0001	0.5585	0.053
Mof_H 	H 	0.5585	0.3402	0.0001	0.053
Mof_H 	H 	0.4415	0.9999	0.6598	0.053
Mof_H 	H 	0.9999	0.6598	0.4415	0.053
Mof_H 	H 	0.6598	0.4415	0.9999	0.053
Mof_H 	H 	0.0158	0.7278	0.7278	0.052
Mof_H 	H 	0.7278	0.0158	0.7278	0.052
Mof_H 	H 	0.7278	0.7278	0.0158	0.052
Mof_H 	H 	0.2722	0.9842	0.2722	0.052
Mof_H 	H 	0.9842	0.2722	0.2722	0.052
Mof_H 	H 	0.2722	0.2722	0.9842	0.052
Mof_C 	C 	0.00734	0.54835	0.81755	0.366
Mof_C 	C 	0.00222	0.50996	0.63906	-0.012
Mof_C 	C 	0.00717	0.57969	0.70955	-0.086
Mof_C 	C 	0.81755	0.00734	0.54835	0.366
Mof_C 	C 	0.63906	0.00222	0.50996	-0.012
Mof_C 	C 	0.70955	0.00717	0.57969	-0.086
Mof_C 	C 	0.54835	0.81755	0.00734	0.366
Mof_C 	C 	0.50996	0.63906	0.00222	-0.012
Mof_C 	C 	0.57969	0.70955	0.00717	-0.086
Mof_C 	C 	0.45165	0.99266	0.18245	0.366
Mof_C 	C 	0.49004	0.99778	0.36094	-0.012
Mof_C 	C 	0.42031	0.99283	0.29045	-0.086
Mof_C 	C 	0.99266	0.18245	0.45165	0.366
Mof_C 	C 	0.99778	0.36094	0.49004	-0.012
Mof_C 	C 	0.99283	0.29045	0.42031	-0.086
Mof_C 	C 	0.18245	0.45165	0.99266	0.366
Mof_C 	C 	0.36094	0.49004	0.99778	-0.012
Mof_C 	C 	0.29045	0.42031	0.99283	-0.086
Mof_C 	C 	0.99266	0.45165	0.18245	0.366
Mof_C 	C 	0.99778	0.49004	0.36094	-0.012
Mof_C 	C 	0.99283	0.42031	0.29045	-0.086
Mof_C 	C 	0.18245	0.99266	0.45165	0.366
Mof_C 	C 	0.36094	0.99778	0.49004	-0.012
Mof_C 	C 	0.29045	0.99283	0.42031	-0.086
Mof_C 	C 	0.45165	0.18245	0.99266	0.366
Mof_C 	C 	0.49004	0.36094	0.99778	-0.012
Mof_C 	C 	0.42031	0.29045	0.99283	-0.086
Mof_C 	C 	0.54835	0.00734	0.81755	0.366
Mof_C 	C 	0.50996	0.00222	0.63906	-0.012
Mof_C 	C 	0.57969	0.00717	0.70955	-0.086
Mof_C 	C 	0.00734	0.81755	0.54835	0.366
Mof_C 	C 	0.00222	0.63906	0.50996	-0.012
Mof_C 	C 	0.00717	0.70955	0.57969	-0.086
Mof_C 	C 	0.81755	0.54835	0.00734	0.366
Mof_C 	C 	0.63906	0.50996	0.00222	-0.012
Mof_C 	C 	0.70955	0.57969	0.00717	-0.086
Mof_C 	C 	0.00056	0.53856	0.53856	0.003
Mof_C 	C 	0.01088	0.67983	0.67983	0.032
Mof_C 	C 	0.53856	0.00056	0.53856	0.003
Mof_C 	C 	0.67983	0.01088	0.67983	0.032
Mof_C 	C 	0.53856	0.53856	0.00056	0.003
Mof_C 	C 	0.67983	0.67983	0.01088	0.032
Mof_C 	C 	0.46144	0.99944	0.46144	0.003
Mof_C 	C 	0.32017	0.98912	0.32017	0.032
Mof_C 	C 	0.99944	0.46144	0.46144	0.003
Mof_C 	C 	0.98912	0.32017	0.32017	0.032
Mof_C 	C 	0.46144	0.46144	0.99944	0.003
Mof_C 	C 	0.32017	0.32017	0.98912	0.032
Mof_O 	O 	0.02302	0.61402	0.87579	-0.41
Mof_O 	O 	0.9901	0.45935	0.8415	-0.408
Mof_O 	O 	0.87579	0.02302	0.61402	-0.41
Mof_O 	O 	0.8415	0.9901	0.45935	-0.408
Mof_O 	O 	0.61402	0.87579	0.02302	-0.41
Mof_O 	O 	0.45935	0.8415	0.9901	-0.408
Mof_O 	O 	0.38598	0.97698	0.12421	-0.41
Mof_O 	O 	0.54065	0.0099	0.1585	-0.408
Mof_O 	O 	0.97698	0.12421	0.38598	-0.41
Mof_O 	O 	0.0099	0.1585	0.54065	-0.408
Mof_O 	O 	0.12421	0.38598	0.97698	-0.41
Mof_O 	O 	0.1585	0.54065	0.0099	-0.408
Mof_O 	O 	0.97698	0.38598	0.12421	-0.41
Mof_O 	O 	0.0099	0.54065	0.1585	-0.408
Mof_O 	O 	0.12421	0.97698	0.38598	-0.41
Mof_O 	O 	0.1585	0.0099	0.54065	-0.408
Mof_O 	O 	0.38598	0.12421	0.97698	-0.41
Mof_O 	O 	0.54065	0.1585	0.0099	-0.408
Mof_O 	O 	0.61402	0.02302	0.87579	-0.41
Mof_O 	O 	0.45935	0.9901	0.8415	-0.408
Mof_O 	O 	0.02302	0.87579	0.61402	-0.41
Mof_O 	O 	0.9901	0.8415	0.45935	-0.408
Mof_O 	O 	0.87579	0.61402	0.02302	-0.41
Mof_O 	O 	0.8415	0.45935	0.9901	-0.408
_end
