data_functionalizedCrystal
_audit_creation_method	'EQeq! by Chris Wilmer'
_symmetry_space_group_name_H-M	'P1'
_symmetry_Int_Tables_number	1
_symmetry_cell_setting	triclinic
loop_
_symmetry_equiv_pos_as_xyz
  x,y,z
_cell_length_a	27.579
_cell_length_b	10.154
_cell_length_c	20.35
_cell_angle_alpha	90
_cell_angle_beta	127.334
_cell_angle_gamma	90
loop_
_atom_site_label
_atom_site_type_symbol
_atom_site_fract_x
_atom_site_fract_y
_atom_site_fract_z
_atom_site_charge
Mof_Cu	Cu	0.1605	0.7411	0.2655	0.905
Mof_O 	O 	0.15547	0.592	0.3308	-0.356
Mof_O 	O 	0.1625	0.474	0.2459	-0.3
Mof_O 	O 	0.1541	0.8897	0.3413	-0.35
Mof_O 	O 	0.1548	0.9932	0.2487	-0.313
Mof_N 	N 	0.06853	0.7307	0.1791	-0.221
Mof_N 	N 	0.16888	0.2516	0.6685	-0.215
Mof_N 	N 	0.75188	0.7484	0.8543	-0.217
Mof_C 	C 	0.0433	0.6516	0.1152	0.1
Mof_H 	H 	0.0687	0.5956	0.1124	-0.004
Mof_C 	C 	0.982	0.646	0.0524	-0.149
Mof_H 	H 	0.9671	0.5882	0.0086	0.084
Mof_C 	C 	0.9425	0.7261	0.054	0.07
Mof_C 	C 	0.9684	0.8046	0.1229	-0.145
Mof_H 	H 	0.9437	0.8577	0.1287	0.088
Mof_C 	C 	0.0306	0.8048	0.1832	0.093
Mof_H 	H 	0.0469	0.8593	0.2288	0.004
Mof_C 	C 	0.8764	0.7299	0.9852	0.06
Mof_C 	C 	0.8542	0.7038	0.9048	-0.135
Mof_H 	H 	0.8808	0.6809	0.8931	0.091
Mof_C 	C 	0.792	0.712	0.8417	0.084
Mof_H 	H 	0.7778	0.6911	0.7882	0.012
Mof_C 	C 	0.7734	0.7719	0.9327	0.087
Mof_H 	H 	0.7458	0.7951	0.9428	0.011
Mof_C 	C 	0.8339	0.7636	0.9984	-0.145
Mof_H 	H 	0.8466	0.7803	0.0516	0.101
Mof_C 	C 	0.1558	0.9921	0.3105	0.319
Mof_C 	C 	0.1912	0.3515	0.6515	0.094
Mof_H 	H 	0.2082	0.4224	0.6879	0.008
Mof_C 	C 	0.1456	0.1513	0.6157	0.092
Mof_H 	H 	0.1302	0.0799	0.6262	0.011
Mof_C 	C 	0.16	0.4839	0.3048	0.311
Mof_C 	C 	0.1611	0.3594	0.3461	-0.071
Mof_C 	C 	0.1592	0.2389	0.3134	0.015
Mof_H 	H 	0.1579	0.2359	0.2667	0.052
Mof_C 	C 	0.1592	0.1229	0.3485	-0.079
Mof_C 	C 	0.1633	0.1277	0.4197	-0.01
Mof_H 	H 	0.1648	0.0497	0.4449	0.045
Mof_C 	C 	0.165	0.2481	0.454	-0.031
Mof_C 	C 	0.1643	0.3634	0.4168	-0.011
Mof_H 	H 	0.166	0.4443	0.4396	0.051
Mof_C 	C 	0.1433	0.1477	0.5464	-0.157
Mof_H 	H 	0.1257	0.0757	0.5111	0.091
Mof_C 	C 	0.1668	0.2506	0.5285	0.103
Mof_C 	C 	0.1903	0.3552	0.5834	-0.158
Mof_H 	H 	0.2057	0.4284	0.5741	0.095
Mof_Cu	Cu	0.6605	0.2411	0.2655	0.904
Mof_O 	O 	0.65547	0.092	0.3308	-0.357
Mof_O 	O 	0.6625	0.974	0.2459	-0.301
Mof_O 	O 	0.6541	0.3897	0.3413	-0.351
Mof_O 	O 	0.6548	0.4932	0.2487	-0.314
Mof_N 	N 	0.56853	0.2307	0.1791	-0.222
Mof_N 	N 	0.66888	0.7516	0.6685	-0.216
Mof_N 	N 	0.25188	0.2484	0.8543	-0.219
Mof_C 	C 	0.5433	0.1516	0.1152	0.099
Mof_H 	H 	0.5687	0.0956	0.1124	-0.005
Mof_C 	C 	0.482	0.146	0.0524	-0.149
Mof_H 	H 	0.4671	0.0882	0.0086	0.084
Mof_C 	C 	0.4425	0.2261	0.054	0.07
Mof_C 	C 	0.4684	0.3046	0.1229	-0.145
Mof_H 	H 	0.4437	0.3577	0.1287	0.088
Mof_C 	C 	0.5306	0.3048	0.1832	0.093
Mof_H 	H 	0.5469	0.3593	0.2288	0.004
Mof_C 	C 	0.3764	0.2299	0.9852	0.06
Mof_C 	C 	0.3542	0.2038	0.9048	-0.135
Mof_H 	H 	0.3808	0.1809	0.8931	0.091
Mof_C 	C 	0.292	0.212	0.8417	0.084
Mof_H 	H 	0.2778	0.1911	0.7882	0.012
Mof_C 	C 	0.2734	0.2719	0.9327	0.087
Mof_H 	H 	0.2458	0.2951	0.9428	0.011
Mof_C 	C 	0.3339	0.2636	0.9984	-0.145
Mof_H 	H 	0.3466	0.2803	0.0516	0.101
Mof_C 	C 	0.6558	0.4921	0.3105	0.319
Mof_C 	C 	0.6912	0.8515	0.6515	0.094
Mof_H 	H 	0.7082	0.9224	0.6879	0.008
Mof_C 	C 	0.6456	0.6513	0.6157	0.092
Mof_H 	H 	0.6302	0.5799	0.6262	0.011
Mof_C 	C 	0.66	0.9839	0.3048	0.31
Mof_C 	C 	0.6611	0.8594	0.3461	-0.071
Mof_C 	C 	0.6592	0.7389	0.3134	0.015
Mof_H 	H 	0.6579	0.7359	0.2667	0.052
Mof_C 	C 	0.6592	0.6229	0.3485	-0.079
Mof_C 	C 	0.6633	0.6277	0.4197	-0.01
Mof_H 	H 	0.6648	0.5497	0.4449	0.046
Mof_C 	C 	0.665	0.7481	0.454	-0.031
Mof_C 	C 	0.6643	0.8634	0.4168	-0.011
Mof_H 	H 	0.666	0.9443	0.4396	0.051
Mof_C 	C 	0.6433	0.6477	0.5464	-0.157
Mof_H 	H 	0.6257	0.5757	0.5111	0.091
Mof_C 	C 	0.6668	0.7506	0.5285	0.103
Mof_C 	C 	0.6903	0.8552	0.5834	-0.158
Mof_H 	H 	0.7057	0.9284	0.5741	0.094
Mof_Cu	Cu	0.1605	0.2589	0.7655	0.904
Mof_O 	O 	0.15547	0.408	0.8308	-0.357
Mof_O 	O 	0.1625	0.526	0.7459	-0.3
Mof_O 	O 	0.1541	0.1103	0.8413	-0.351
Mof_O 	O 	0.1548	0.0068	0.7487	-0.314
Mof_N 	N 	0.06853	0.2693	0.6791	-0.222
Mof_N 	N 	0.16888	0.7484	0.1685	-0.216
Mof_N 	N 	0.75188	0.2516	0.3543	-0.219
Mof_C 	C 	0.0433	0.3484	0.6152	0.099
Mof_H 	H 	0.0687	0.4044	0.6124	-0.005
Mof_C 	C 	0.982	0.354	0.5524	-0.149
Mof_H 	H 	0.9671	0.4118	0.5086	0.084
Mof_C 	C 	0.9425	0.2739	0.554	0.07
Mof_C 	C 	0.9684	0.1954	0.6229	-0.145
Mof_H 	H 	0.9437	0.1423	0.6287	0.088
Mof_C 	C 	0.0306	0.1952	0.6832	0.093
Mof_H 	H 	0.0469	0.1407	0.7288	0.004
Mof_C 	C 	0.8764	0.2701	0.4852	0.06
Mof_C 	C 	0.8542	0.2962	0.4048	-0.135
Mof_H 	H 	0.8808	0.3191	0.3931	0.091
Mof_C 	C 	0.792	0.288	0.3417	0.084
Mof_H 	H 	0.7778	0.3089	0.2882	0.012
Mof_C 	C 	0.7734	0.2281	0.4327	0.087
Mof_H 	H 	0.7458	0.2049	0.4428	0.011
Mof_C 	C 	0.8339	0.2364	0.4984	-0.145
Mof_H 	H 	0.8466	0.2197	0.5516	0.101
Mof_C 	C 	0.1558	0.0079	0.8105	0.319
Mof_C 	C 	0.1912	0.6485	0.1515	0.094
Mof_H 	H 	0.2082	0.5776	0.1879	0.008
Mof_C 	C 	0.1456	0.8487	0.1157	0.092
Mof_H 	H 	0.1302	0.9201	0.1262	0.011
Mof_C 	C 	0.16	0.5161	0.8048	0.311
Mof_C 	C 	0.1611	0.6406	0.8461	-0.071
Mof_C 	C 	0.1592	0.7611	0.8134	0.014
Mof_H 	H 	0.1579	0.7641	0.7667	0.052
Mof_C 	C 	0.1592	0.8771	0.8485	-0.078
Mof_C 	C 	0.1633	0.8723	0.9197	-0.011
Mof_H 	H 	0.1648	0.9503	0.9449	0.046
Mof_C 	C 	0.165	0.7519	0.954	-0.031
Mof_C 	C 	0.1643	0.6366	0.9168	-0.011
Mof_H 	H 	0.166	0.5557	0.9396	0.051
Mof_C 	C 	0.1433	0.8523	0.0464	-0.157
Mof_H 	H 	0.1257	0.9243	0.0111	0.091
Mof_C 	C 	0.1668	0.7494	0.0285	0.103
Mof_C 	C 	0.1903	0.6448	0.0834	-0.158
Mof_H 	H 	0.2057	0.5716	0.0741	0.094
Mof_Cu	Cu	0.6605	0.7589	0.7655	0.904
Mof_O 	O 	0.65547	0.908	0.8308	-0.357
Mof_O 	O 	0.6625	0.026	0.7459	-0.3
Mof_O 	O 	0.6541	0.6103	0.8413	-0.351
Mof_O 	O 	0.6548	0.5068	0.7487	-0.314
Mof_N 	N 	0.56853	0.7693	0.6791	-0.222
Mof_N 	N 	0.66888	0.2484	0.1685	-0.216
Mof_N 	N 	0.25188	0.7516	0.3543	-0.219
Mof_C 	C 	0.5433	0.8484	0.6152	0.099
Mof_H 	H 	0.5687	0.9044	0.6124	-0.005
Mof_C 	C 	0.482	0.854	0.5524	-0.149
Mof_H 	H 	0.4671	0.9118	0.5086	0.084
Mof_C 	C 	0.4425	0.7739	0.554	0.07
Mof_C 	C 	0.4684	0.6954	0.6229	-0.145
Mof_H 	H 	0.4437	0.6423	0.6287	0.088
Mof_C 	C 	0.5306	0.6952	0.6832	0.093
Mof_H 	H 	0.5469	0.6407	0.7288	0.004
Mof_C 	C 	0.3764	0.7701	0.4852	0.06
Mof_C 	C 	0.3542	0.7962	0.4048	-0.135
Mof_H 	H 	0.3808	0.8191	0.3931	0.091
Mof_C 	C 	0.292	0.788	0.3417	0.084
Mof_H 	H 	0.2778	0.8089	0.2882	0.012
Mof_C 	C 	0.2734	0.7281	0.4327	0.087
Mof_H 	H 	0.2458	0.7049	0.4428	0.011
Mof_C 	C 	0.3339	0.7364	0.4984	-0.145
Mof_H 	H 	0.3466	0.7197	0.5516	0.101
Mof_C 	C 	0.6558	0.5079	0.8105	0.319
Mof_C 	C 	0.6912	0.1485	0.1515	0.094
Mof_H 	H 	0.7082	0.0776	0.1879	0.008
Mof_C 	C 	0.6456	0.3487	0.1157	0.092
Mof_H 	H 	0.6302	0.4201	0.1262	0.011
Mof_C 	C 	0.66	0.0161	0.8048	0.31
Mof_C 	C 	0.6611	0.1406	0.8461	-0.071
Mof_C 	C 	0.6592	0.2611	0.8134	0.015
Mof_H 	H 	0.6579	0.2641	0.7667	0.052
Mof_C 	C 	0.6592	0.3771	0.8485	-0.079
Mof_C 	C 	0.6633	0.3723	0.9197	-0.01
Mof_H 	H 	0.6648	0.4503	0.9449	0.045
Mof_C 	C 	0.665	0.2519	0.954	-0.031
Mof_C 	C 	0.6643	0.1366	0.9168	-0.011
Mof_H 	H 	0.666	0.0557	0.9396	0.051
Mof_C 	C 	0.6433	0.3523	0.0464	-0.158
Mof_H 	H 	0.6257	0.4243	0.0111	0.091
Mof_C 	C 	0.6668	0.2494	0.0285	0.103
Mof_C 	C 	0.6903	0.1448	0.0834	-0.158
Mof_H 	H 	0.7057	0.0716	0.0741	0.095
Mof_Cu	Cu	0.8395	0.7411	0.2345	0.904
Mof_O 	O 	0.84453	0.592	0.1692	-0.357
Mof_O 	O 	0.8375	0.474	0.2541	-0.3
Mof_O 	O 	0.8459	0.8897	0.1587	-0.351
Mof_O 	O 	0.8452	0.9932	0.2513	-0.314
Mof_N 	N 	0.93147	0.7307	0.3209	-0.222
Mof_N 	N 	0.83112	0.2516	0.8315	-0.216
Mof_N 	N 	0.24812	0.7484	0.6457	-0.219
Mof_C 	C 	0.9567	0.6516	0.3848	0.099
Mof_H 	H 	0.9313	0.5956	0.3876	-0.005
Mof_C 	C 	0.018	0.646	0.4476	-0.149
Mof_H 	H 	0.0329	0.5882	0.4914	0.084
Mof_C 	C 	0.0575	0.7261	0.446	0.07
Mof_C 	C 	0.0316	0.8046	0.3771	-0.145
Mof_H 	H 	0.0563	0.8577	0.3713	0.088
Mof_C 	C 	0.9694	0.8048	0.3168	0.093
Mof_H 	H 	0.9531	0.8593	0.2712	0.004
Mof_C 	C 	0.1236	0.7299	0.5148	0.06
Mof_C 	C 	0.1458	0.7038	0.5952	-0.135
Mof_H 	H 	0.1192	0.6809	0.6069	0.091
Mof_C 	C 	0.208	0.712	0.6583	0.084
Mof_H 	H 	0.2222	0.6911	0.7118	0.012
Mof_C 	C 	0.2266	0.7719	0.5673	0.087
Mof_H 	H 	0.2542	0.7951	0.5572	0.011
Mof_C 	C 	0.1661	0.7636	0.5016	-0.145
Mof_H 	H 	0.1534	0.7803	0.4484	0.101
Mof_C 	C 	0.8442	0.9921	0.1895	0.319
Mof_C 	C 	0.8088	0.3515	0.8485	0.094
Mof_H 	H 	0.7918	0.4224	0.8121	0.008
Mof_C 	C 	0.8544	0.1513	0.8843	0.092
Mof_H 	H 	0.8698	0.0799	0.8738	0.011
Mof_C 	C 	0.84	0.4839	0.1952	0.311
Mof_C 	C 	0.8389	0.3594	0.1539	-0.071
Mof_C 	C 	0.8408	0.2389	0.1866	0.014
Mof_H 	H 	0.8421	0.2359	0.2333	0.052
Mof_C 	C 	0.8408	0.1229	0.1515	-0.078
Mof_C 	C 	0.8367	0.1277	0.0803	-0.011
Mof_H 	H 	0.8352	0.0497	0.0551	0.046
Mof_C 	C 	0.835	0.2481	0.046	-0.031
Mof_C 	C 	0.8357	0.3634	0.0832	-0.011
Mof_H 	H 	0.834	0.4443	0.0604	0.051
Mof_C 	C 	0.8567	0.1477	0.9536	-0.157
Mof_H 	H 	0.8743	0.0757	0.9889	0.091
Mof_C 	C 	0.8332	0.2506	0.9715	0.103
Mof_C 	C 	0.8097	0.3552	0.9166	-0.158
Mof_H 	H 	0.7943	0.4284	0.9259	0.094
Mof_Cu	Cu	0.3395	0.2411	0.2345	0.904
Mof_O 	O 	0.34453	0.092	0.1692	-0.357
Mof_O 	O 	0.3375	0.974	0.2541	-0.3
Mof_O 	O 	0.3459	0.3897	0.1587	-0.351
Mof_O 	O 	0.3452	0.4932	0.2513	-0.314
Mof_N 	N 	0.43147	0.2307	0.3209	-0.222
Mof_N 	N 	0.33112	0.7516	0.8315	-0.216
Mof_N 	N 	0.74812	0.2484	0.6457	-0.219
Mof_C 	C 	0.4567	0.1516	0.3848	0.099
Mof_H 	H 	0.4313	0.0956	0.3876	-0.005
Mof_C 	C 	0.518	0.146	0.4476	-0.149
Mof_H 	H 	0.5329	0.0882	0.4914	0.084
Mof_C 	C 	0.5575	0.2261	0.446	0.07
Mof_C 	C 	0.5316	0.3046	0.3771	-0.145
Mof_H 	H 	0.5563	0.3577	0.3713	0.088
Mof_C 	C 	0.4694	0.3048	0.3168	0.093
Mof_H 	H 	0.4531	0.3593	0.2712	0.004
Mof_C 	C 	0.6236	0.2299	0.5148	0.06
Mof_C 	C 	0.6458	0.2038	0.5952	-0.135
Mof_H 	H 	0.6192	0.1809	0.6069	0.091
Mof_C 	C 	0.708	0.212	0.6583	0.084
Mof_H 	H 	0.7222	0.1911	0.7118	0.012
Mof_C 	C 	0.7266	0.2719	0.5673	0.087
Mof_H 	H 	0.7542	0.2951	0.5572	0.011
Mof_C 	C 	0.6661	0.2636	0.5016	-0.145
Mof_H 	H 	0.6534	0.2803	0.4484	0.101
Mof_C 	C 	0.3442	0.4921	0.1895	0.319
Mof_C 	C 	0.3088	0.8515	0.8485	0.094
Mof_H 	H 	0.2918	0.9224	0.8121	0.008
Mof_C 	C 	0.3544	0.6513	0.8843	0.092
Mof_H 	H 	0.3698	0.5799	0.8738	0.011
Mof_C 	C 	0.34	0.9839	0.1952	0.31
Mof_C 	C 	0.3389	0.8594	0.1539	-0.071
Mof_C 	C 	0.3408	0.7389	0.1866	0.015
Mof_H 	H 	0.3421	0.7359	0.2333	0.052
Mof_C 	C 	0.3408	0.6229	0.1515	-0.079
Mof_C 	C 	0.3367	0.6277	0.0803	-0.01
Mof_H 	H 	0.3352	0.5497	0.0551	0.045
Mof_C 	C 	0.335	0.7481	0.046	-0.031
Mof_C 	C 	0.3357	0.8634	0.0832	-0.011
Mof_H 	H 	0.334	0.9443	0.0604	0.051
Mof_C 	C 	0.3567	0.6477	0.9536	-0.158
Mof_H 	H 	0.3743	0.5757	0.9889	0.091
Mof_C 	C 	0.3332	0.7506	0.9715	0.103
Mof_C 	C 	0.3097	0.8552	0.9166	-0.158
Mof_H 	H 	0.2943	0.9284	0.9259	0.095
Mof_Cu	Cu	0.8395	0.2589	0.7345	0.904
Mof_O 	O 	0.84453	0.408	0.6692	-0.357
Mof_O 	O 	0.8375	0.526	0.7541	-0.301
Mof_O 	O 	0.8459	0.1103	0.6587	-0.351
Mof_O 	O 	0.8452	0.0068	0.7513	-0.314
Mof_N 	N 	0.93147	0.2693	0.8209	-0.222
Mof_N 	N 	0.83112	0.7484	0.3315	-0.216
Mof_N 	N 	0.24812	0.2516	0.1457	-0.218
Mof_C 	C 	0.9567	0.3484	0.8848	0.099
Mof_H 	H 	0.9313	0.4044	0.8876	-0.005
Mof_C 	C 	0.018	0.354	0.9476	-0.149
Mof_H 	H 	0.0329	0.4118	0.9914	0.084
Mof_C 	C 	0.0575	0.2739	0.946	0.07
Mof_C 	C 	0.0316	0.1954	0.8771	-0.145
Mof_H 	H 	0.0563	0.1423	0.8713	0.088
Mof_C 	C 	0.9694	0.1952	0.8168	0.093
Mof_H 	H 	0.9531	0.1407	0.7712	0.004
Mof_C 	C 	0.1236	0.2701	0.0148	0.06
Mof_C 	C 	0.1458	0.2962	0.0952	-0.135
Mof_H 	H 	0.1192	0.3191	0.1069	0.091
Mof_C 	C 	0.208	0.288	0.1583	0.084
Mof_H 	H 	0.2222	0.3089	0.2118	0.012
Mof_C 	C 	0.2266	0.2281	0.0673	0.087
Mof_H 	H 	0.2542	0.2049	0.0572	0.011
Mof_C 	C 	0.1661	0.2364	0.0016	-0.145
Mof_H 	H 	0.1534	0.2197	0.9484	0.101
Mof_C 	C 	0.8442	0.0079	0.6895	0.319
Mof_C 	C 	0.8088	0.6485	0.3485	0.094
Mof_H 	H 	0.7918	0.5776	0.3121	0.008
Mof_C 	C 	0.8544	0.8487	0.3843	0.092
Mof_H 	H 	0.8698	0.9201	0.3738	0.011
Mof_C 	C 	0.84	0.5161	0.6952	0.311
Mof_C 	C 	0.8389	0.6406	0.6539	-0.071
Mof_C 	C 	0.8408	0.7611	0.6866	0.015
Mof_H 	H 	0.8421	0.7641	0.7333	0.052
Mof_C 	C 	0.8408	0.8771	0.6515	-0.079
Mof_C 	C 	0.8367	0.8723	0.5803	-0.01
Mof_H 	H 	0.8352	0.9503	0.5551	0.045
Mof_C 	C 	0.835	0.7519	0.546	-0.031
Mof_C 	C 	0.8357	0.6366	0.5832	-0.011
Mof_H 	H 	0.834	0.5557	0.5604	0.051
Mof_C 	C 	0.8567	0.8523	0.4536	-0.157
Mof_H 	H 	0.8743	0.9243	0.4889	0.091
Mof_C 	C 	0.8332	0.7494	0.4715	0.103
Mof_C 	C 	0.8097	0.6448	0.4166	-0.158
Mof_H 	H 	0.7943	0.5716	0.4259	0.095
Mof_Cu	Cu	0.3395	0.7589	0.7345	0.904
Mof_O 	O 	0.34453	0.908	0.6692	-0.357
Mof_O 	O 	0.3375	0.026	0.7541	-0.301
Mof_O 	O 	0.3459	0.6103	0.6587	-0.351
Mof_O 	O 	0.3452	0.5068	0.7513	-0.314
Mof_N 	N 	0.43147	0.7693	0.8209	-0.222
Mof_N 	N 	0.33112	0.2484	0.3315	-0.216
Mof_N 	N 	0.74812	0.7516	0.1457	-0.219
Mof_C 	C 	0.4567	0.8484	0.8848	0.099
Mof_H 	H 	0.4313	0.9044	0.8876	-0.005
Mof_C 	C 	0.518	0.854	0.9476	-0.149
Mof_H 	H 	0.5329	0.9118	0.9914	0.084
Mof_C 	C 	0.5575	0.7739	0.946	0.07
Mof_C 	C 	0.5316	0.6954	0.8771	-0.145
Mof_H 	H 	0.5563	0.6423	0.8713	0.088
Mof_C 	C 	0.4694	0.6952	0.8168	0.093
Mof_H 	H 	0.4531	0.6407	0.7712	0.004
Mof_C 	C 	0.6236	0.7701	0.0148	0.06
Mof_C 	C 	0.6458	0.7962	0.0952	-0.135
Mof_H 	H 	0.6192	0.8191	0.1069	0.091
Mof_C 	C 	0.708	0.788	0.1583	0.084
Mof_H 	H 	0.7222	0.8089	0.2118	0.012
Mof_C 	C 	0.7266	0.7281	0.0673	0.087
Mof_H 	H 	0.7542	0.7049	0.0572	0.011
Mof_C 	C 	0.6661	0.7364	0.0016	-0.145
Mof_H 	H 	0.6534	0.7197	0.9484	0.101
Mof_C 	C 	0.3442	0.5079	0.6895	0.319
Mof_C 	C 	0.3088	0.1485	0.3485	0.094
Mof_H 	H 	0.2918	0.0776	0.3121	0.008
Mof_C 	C 	0.3544	0.3487	0.3843	0.092
Mof_H 	H 	0.3698	0.4201	0.3738	0.011
Mof_C 	C 	0.34	0.0161	0.6952	0.31
Mof_C 	C 	0.3389	0.1406	0.6539	-0.071
Mof_C 	C 	0.3408	0.2611	0.6866	0.015
Mof_H 	H 	0.3421	0.2641	0.7333	0.052
Mof_C 	C 	0.3408	0.3771	0.6515	-0.079
Mof_C 	C 	0.3367	0.3723	0.5803	-0.01
Mof_H 	H 	0.3352	0.4503	0.5551	0.046
Mof_C 	C 	0.335	0.2519	0.546	-0.031
Mof_C 	C 	0.3357	0.1366	0.5832	-0.011
Mof_H 	H 	0.334	0.0557	0.5604	0.051
Mof_C 	C 	0.3567	0.3523	0.4536	-0.157
Mof_H 	H 	0.3743	0.4243	0.4889	0.091
Mof_C 	C 	0.3332	0.2494	0.4715	0.103
Mof_C 	C 	0.3097	0.1448	0.4166	-0.158
Mof_H 	H 	0.2943	0.0716	0.4259	0.094
_end
