# CIF file generated by openbabel 3.1.0, see https://openbabel.org
data_I
_chemical_name_common 'image0'
_cell_length_a 10.2208
_cell_length_b 23.966
_cell_length_c 11.4286
_cell_angle_alpha 90
_cell_angle_beta 91.7114
_cell_angle_gamma 90
_space_group_name_H-M_alt 'P 1'
_space_group_name_Hall 'P 1'
loop_
    _symmetry_equiv_pos_as_xyz
    x,y,z
loop_
    _atom_site_label
    _atom_site_type_symbol
    _atom_site_fract_x
    _atom_site_fract_y
    _atom_site_fract_z
    _atom_site_occupancy
    Co1      Co       0.99598    0.66051    0.58053    1.000
    Co2      Co       0.49338    0.74161    0.56191    1.000
    O1       O        0.30580    0.70760    0.56160    1.000
    O2       O        0.80800    0.69410    0.56940    1.000
    O3       O        0.18500    0.63150    0.58520    1.000
    O4       O        0.68250    0.77050    0.56350    1.000
    N1       N        0.99570    0.65370    0.77150    1.000
    N2       N        0.49270    0.74880    0.75140    1.000
    N3       N        0.49690    0.74280    0.37190    1.000
    C1       C        0.10660    0.66020    0.32750    1.000
    H1       H        0.18650    0.66750    0.36920    1.000
    N4       N        0.00060    0.65500    0.38990    1.000
    C2       C        0.38410    0.73660    0.81060    1.000
    H2       H        0.30700    0.72590    0.76790    1.000
    C3       C        0.60410    0.73660    0.31170    1.000
    H3       H        0.68360    0.72910    0.35390    1.000
    C4       C        0.11200    0.65600    0.20870    1.000
    H4       H        0.19230    0.66000    0.16980    1.000
    C5       C        0.60800    0.74050    0.19060    1.000
    H5       H        0.68770    0.73550    0.15130    1.000
    C6       C        0.88330    0.66260    0.95090    1.000
    H6       H        0.80500    0.67210    0.98910    1.000
    O5       O        0.52770    0.65230    0.55940    1.000
    H7       H        0.53700    0.65100    0.48310    1.000
    C7       C        0.99650    0.64590    0.14750    1.000
    O6       O        0.02500    0.75070    0.59300    1.000
    H8       H        0.07700    0.77100    0.63900    1.000
    C8       C        0.29160    0.65620    0.57600    1.000
    N5       N        0.08810    0.07900    0.42550    1.000
    C9       C        0.99140    0.64520    0.01670    1.000
    C10      C        0.21470    0.07190    0.40290    1.000
    H9       H        0.26190    0.10240    0.37170    1.000
    C11      C        0.38100    0.73910    0.93220    1.000
    H10      H        0.30140    0.73160    0.97000    1.000
    C12      C        0.88750    0.66650    0.83100    1.000
    H11      H        0.81140    0.67850    0.78840    1.000
    C13      C        0.38600    0.75420    0.31030    1.000
    H12      H        0.30760    0.75960    0.35140    1.000
    C14      C        0.89020    0.64280    0.33060    1.000
    H13      H        0.81280    0.63730    0.37320    1.000
    C15      C        0.49290    0.75170    0.12900    1.000
    C16      C        0.79030    0.74590    0.56610    1.000
    N6       N        0.41350    0.82350    0.54690    1.000
    C17      C        0.59940    0.76430    0.81520    1.000
    H14      H        0.67580    0.77430    0.77460    1.000
    C18      C        0.60480    0.76670    0.93630    1.000
    H15      H        0.68300    0.77790    0.97690    1.000
    C19      C        0.09930    0.62860    0.95400    1.000
    H16      H        0.17450    0.61410    0.99420    1.000
    C20      C        0.38140    0.75860    0.19040    1.000
    H17      H        0.30070    0.76630    0.15030    1.000
    C21      C        0.09740    0.63330    0.83330    1.000
    H18      H        0.17220    0.62140    0.79260    1.000
    C22      C        0.41410    0.61870    0.58160    1.000
    H19      H        0.40510    0.58980    0.51880    1.000
    C23      C        0.49200    0.75230    0.99880    1.000
    C24      C        0.28290    0.92400    0.49460    1.000
    C25      C        0.88280    0.63770    0.21070    1.000
    H20      H        0.80220    0.62870    0.17150    1.000
    C26      C        0.91270    0.78380    0.57120    1.000
    H21      H        0.90430    0.81110    0.63680    1.000
    C27      C        0.21390    0.97680    0.46700    1.000
    C28      C        0.27950    0.02230    0.42290    1.000
    H22      H        0.36980    0.01930    0.40640    1.000
    C29      C        0.23560    0.88630    0.57560    1.000
    H23      H        0.15650    0.89390    0.61440    1.000
    C30      C        0.42720    0.58950    0.69810    1.000
    C31      C        0.39960    0.90950    0.44070    1.000
    H24      H        0.43660    0.93390    0.38520    1.000
    C32      C        0.02340    0.03370    0.46250    1.000
    H25      H        0.93190    0.03700    0.47330    1.000
    C33      C        0.51080    0.58600    0.89790    1.000
    H26      H        0.56760    0.60070    0.95750    1.000
    C34      C        0.35150    0.54280    0.72180    1.000
    H27      H        0.29720    0.52720    0.66130    1.000
    C35      C        0.07980    0.98400    0.48530    1.000
    H28      H        0.02920    0.95390    0.51360    1.000
    C36      C        0.50890    0.61050    0.78630    1.000
    H29      H        0.56380    0.64150    0.77130    1.000
    C37      C        0.91860    0.81610    0.45530    1.000
    C38      C        0.46010    0.85980    0.46880    1.000
    H30      H        0.53880    0.85060    0.43110    1.000
    C39      C        0.99950    0.79870    0.36710    1.000
    H31      H        0.06110    0.76980    0.38230    1.000
    C40      C        0.43280    0.54140    0.92290    1.000
    H32      H        0.43170    0.52610    0.99960    1.000
    C41      C        0.35390    0.51880    0.83100    1.000
    H33      H        0.30210    0.48670    0.84490    1.000
    C42      C        0.83810    0.86100    0.43730    1.000
    H34      H        0.78470    0.87370    0.49840    1.000
    C43      C        0.83420    0.88790    0.33040    1.000
    H35      H        0.77900    0.91930    0.31810    1.000
    C44      C        0.30460    0.83790    0.59930    1.000
    H36      H        0.27190    0.81330    0.65670    1.000
    C45      C        0.99150    0.82370    0.25440    1.000
    H37      H        0.03990    0.80960    0.19100    1.000
    C46      C        0.91110    0.86870    0.24160    1.000
    H38      H        0.90780    0.88780    0.16870    1.000
    Co3      Co       0.00402    0.16051    0.41947    1.000
    Co4      Co       0.50662    0.24161    0.43809    1.000
    O7       O        0.69420    0.20760    0.43840    1.000
    O8       O        0.19200    0.19410    0.43060    1.000
    O9       O        0.81500    0.13150    0.41480    1.000
    O10      O        0.31750    0.27050    0.43650    1.000
    N7       N        0.00430    0.15370    0.22850    1.000
    N8       N        0.50730    0.24880    0.24860    1.000
    N9       N        0.50310    0.24280    0.62810    1.000
    C47      C        0.89340    0.16020    0.67250    1.000
    H39      H        0.81350    0.16750    0.63080    1.000
    N10      N        0.99940    0.15500    0.61010    1.000
    C48      C        0.61590    0.23660    0.18940    1.000
    H40      H        0.69300    0.22590    0.23210    1.000
    C49      C        0.39590    0.23660    0.68830    1.000
    H41      H        0.31640    0.22910    0.64610    1.000
    C50      C        0.88800    0.15600    0.79130    1.000
    H42      H        0.80770    0.16000    0.83020    1.000
    C51      C        0.39200    0.24050    0.80940    1.000
    H43      H        0.31230    0.23550    0.84870    1.000
    C52      C        0.11670    0.16260    0.04910    1.000
    H44      H        0.19500    0.17210    0.01090    1.000
    O11      O        0.47230    0.15230    0.44060    1.000
    H45      H        0.46300    0.15100    0.51690    1.000
    C53      C        0.00350    0.14590    0.85250    1.000
    O12      O        0.97500    0.25070    0.40700    1.000
    H46      H        0.92300    0.27100    0.36100    1.000
    C54      C        0.70840    0.15620    0.42400    1.000
    N11      N        0.91190    0.57900    0.57450    1.000
    C55      C        0.00860    0.14520    0.98330    1.000
    C56      C        0.78530    0.57190    0.59710    1.000
    H47      H        0.73810    0.60240    0.62830    1.000
    C57      C        0.61900    0.23910    0.06780    1.000
    H48      H        0.69860    0.23160    0.03000    1.000
    C58      C        0.11250    0.16650    0.16900    1.000
    H49      H        0.18860    0.17850    0.21160    1.000
    C59      C        0.61400    0.25420    0.68970    1.000
    H50      H        0.69240    0.25960    0.64860    1.000
    C60      C        0.10980    0.14280    0.66940    1.000
    H51      H        0.18720    0.13730    0.62680    1.000
    C61      C        0.50710    0.25170    0.87100    1.000
    C62      C        0.20970    0.24590    0.43390    1.000
    N12      N        0.58650    0.32350    0.45310    1.000
    C63      C        0.40060    0.26430    0.18480    1.000
    H52      H        0.32420    0.27430    0.22540    1.000
    C64      C        0.39520    0.26670    0.06370    1.000
    H53      H        0.31700    0.27790    0.02310    1.000
    C65      C        0.90070    0.12860    0.04600    1.000
    H54      H        0.82550    0.11410    0.00580    1.000
    C66      C        0.61860    0.25860    0.80960    1.000
    H55      H        0.69930    0.26630    0.84970    1.000
    C67      C        0.90260    0.13330    0.16670    1.000
    H56      H        0.82780    0.12140    0.20740    1.000
    C68      C        0.58590    0.11870    0.41840    1.000
    H57      H        0.59490    0.08980    0.48120    1.000
    C69      C        0.50800    0.25230    0.00120    1.000
    C70      C        0.71710    0.42400    0.50540    1.000
    C71      C        0.11720    0.13770    0.78930    1.000
    H58      H        0.19780    0.12870    0.82850    1.000
    C72      C        0.08730    0.28380    0.42880    1.000
    H59      H        0.09570    0.31110    0.36320    1.000
    C73      C        0.78610    0.47680    0.53300    1.000
    C74      C        0.72050    0.52230    0.57710    1.000
    H60      H        0.63020    0.51930    0.59360    1.000
    C75      C        0.76440    0.38630    0.42440    1.000
    H61      H        0.84350    0.39390    0.38560    1.000
    C76      C        0.57280    0.08950    0.30190    1.000
    C77      C        0.60040    0.40950    0.55930    1.000
    H62      H        0.56340    0.43390    0.61480    1.000
    C78      C        0.97660    0.53370    0.53750    1.000
    H63      H        0.06810    0.53700    0.52670    1.000
    C79      C        0.48920    0.08600    0.10210    1.000
    H64      H        0.43240    0.10070    0.04250    1.000
    C80      C        0.64850    0.04280    0.27820    1.000
    H65      H        0.70280    0.02720    0.33870    1.000
    C81      C        0.92020    0.48400    0.51470    1.000
    H66      H        0.97080    0.45390    0.48640    1.000
    C82      C        0.49110    0.11050    0.21370    1.000
    H67      H        0.43620    0.14150    0.22870    1.000
    C83      C        0.08140    0.31610    0.54470    1.000
    C84      C        0.53990    0.35980    0.53120    1.000
    H68      H        0.46120    0.35060    0.56890    1.000
    C85      C        0.00050    0.29870    0.63290    1.000
    H69      H        0.93890    0.26980    0.61770    1.000
    C86      C        0.56720    0.04140    0.07710    1.000
    H70      H        0.56830    0.02610    0.00040    1.000
    C87      C        0.64610    0.01880    0.16900    1.000
    H71      H        0.69790    0.98670    0.15510    1.000
    C88      C        0.16190    0.36100    0.56270    1.000
    H72      H        0.21530    0.37370    0.50160    1.000
    C89      C        0.16580    0.38790    0.66960    1.000
    H73      H        0.22100    0.41930    0.68190    1.000
    C90      C        0.69540    0.33790    0.40070    1.000
    H74      H        0.72810    0.31330    0.34330    1.000
    C91      C        0.00850    0.32370    0.74560    1.000
    H75      H        0.96010    0.30960    0.80900    1.000
    C92      C        0.08890    0.36870    0.75840    1.000
    H76      H        0.09220    0.38780    0.83130    1.000
