data_functionalizedCrystal
_audit_creation_method	'EQeq! by Chris Wilmer'
_symmetry_space_group_name_H-M	'P1'
_symmetry_Int_Tables_number	1
_symmetry_cell_setting	triclinic
loop_
_symmetry_equiv_pos_as_xyz
  x,y,z
_cell_length_a	22.002
_cell_length_b	16.7356
_cell_length_c	25.5607
_cell_angle_alpha	90
_cell_angle_beta	115.199
_cell_angle_gamma	90
loop_
_atom_site_label
_atom_site_type_symbol
_atom_site_fract_x
_atom_site_fract_y
_atom_site_fract_z
_atom_site_charge
Mof_Ag	Ag	0.84423	0.95667	0.36683	0.524
Mof_Ag	Ag	0.82171	0.25616	0.86644	0.534
Mof_C 	C 	0.0976	0.4716	0.9991	0.104
Mof_C 	C 	0.5326	0.3103	0.409	-0.148
Mof_H 	H 	0.554	0.2896	0.3876	0.085
Mof_C 	C 	0.6234	0.2557	0.5003	0.098
Mof_C 	C 	0.0037	0.385	0.9946	-0.132
Mof_H 	H 	0.0235	0.3834	0.0348	0.085
Mof_C 	C 	0.5597	0.3002	0.468	0.065
Mof_C 	C 	0.1817	0.5526	0.0053	0.094
Mof_C 	C 	0.0331	0.4274	0.965	0.067
Mof_C 	C 	0.7975	0.0837	0.5037	-0.134
Mof_H 	H 	0.8197	0.0877	0.5437	0.086
Mof_C 	C 	0.7094	0.2251	0.5858	0.101
Mof_C 	C 	0.9442	0.3448	0.9629	0.087
Mof_H 	H 	0.9246	0.3169	0.9832	-0.012
Mof_C 	C 	0.277	0.6385	0.0083	-0.133
Mof_H 	H 	0.2978	0.6348	0.0485	0.074
Mof_C 	C 	0.2202	0.6527	0.8908	0.067
Mof_H 	H 	0.2004	0.6574	0.8508	-0.025
Mof_C 	C 	0.7427	0.2367	0.6495	0.066
Mof_C 	C 	0.7352	0.1212	0.473	0.069
Mof_C 	C 	0.1788	0.4558	0.179	-0.144
Mof_H 	H 	0.1348	0.438	0.1587	0.085
Mof_C 	C 	0.2141	0.6015	0.9758	0.054
Mof_C 	C 	0.7354	0.0643	0.3874	0.085
Mof_H 	H 	0.7138	0.0573	0.3476	-0.009
Mof_C 	C 	0.2121	0.4914	0.1506	0.064
Mof_C 	C 	0.5258	0.3343	0.4976	-0.149
Mof_H 	H 	0.5432	0.3304	0.5376	0.078
Mof_C 	C 	0.4672	0.3735	0.4675	0.079
Mof_H 	H 	0.4453	0.3959	0.488	-0.021
Mof_C 	C 	0.1799	0.5021	0.0862	0.095
Mof_C 	C 	0.1863	0.6097	0.9171	-0.135
Mof_H 	H 	0.1448	0.5867	0.8946	0.078
Mof_C 	C 	0.3068	0.6807	0.9782	0.074
Mof_H 	H 	0.3478	0.7055	0.9993	-0.011
Mof_C 	C 	0.7038	0.1094	0.4137	-0.135
Mof_H 	H 	0.6619	0.1317	0.3919	0.085
Mof_C 	C 	0.7051	0.1718	0.5034	0.103
Mof_C 	C 	0.4729	0.3519	0.3822	0.077
Mof_H 	H 	0.4556	0.3594	0.3424	-0.022
Mof_C 	C 	0.825	0.0406	0.4729	0.092
Mof_H 	H 	0.867	0.0175	0.4934	-0.015
Mof_C 	C 	0.0015	0.4277	0.9054	-0.139
Mof_H 	H 	0.0192	0.4571	0.8842	0.08
Mof_C 	C 	0.3056	0.5048	0.2405	0.081
Mof_H 	H 	0.3495	0.5223	0.2615	-0.027
Mof_C 	C 	0.2114	0.4468	0.2385	0.084
Mof_H 	H 	0.1882	0.4232	0.2576	-0.017
Mof_C 	C 	0.9438	0.3843	0.8778	0.083
Mof_H 	H 	0.9245	0.3826	0.8376	-0.007
Mof_C 	C 	0.7448	0.2948	0.735	0.073
Mof_H 	H 	0.7262	0.33	0.7524	-0.019
Mof_C 	C 	0.2777	0.5165	0.1818	-0.153
Mof_H 	H 	0.3019	0.5403	0.1638	0.076
Mof_C 	C 	0.7142	0.2869	0.6762	-0.141
Mof_H 	H 	0.6749	0.3146	0.6544	0.072
Mof_C 	C 	0.8025	0.1994	0.6836	-0.154
Mof_H 	H 	0.825	0.1683	0.6673	0.087
Mof_C 	C 	0.8275	0.2098	0.7421	0.099
Mof_H 	H 	0.867	0.183	0.7648	-0.025
Mof_N 	N 	0.7955	0.03	0.4163	-0.194
Mof_N 	N 	0.439	0.3817	0.41	-0.215
Mof_N 	N 	0.8006	0.2542	0.769	-0.202
Mof_N 	N 	0.6478	0.2101	0.4708	-0.137
Mof_N 	N 	0.6525	0.266	0.5574	-0.142
Mof_N 	N 	0.7375	0.1774	0.5609	-0.138
Mof_N 	N 	0.2793	0.6872	0.9206	-0.208
Mof_N 	N 	0.9134	0.3437	0.9056	-0.188
Mof_N 	N 	0.2749	0.4704	0.2698	-0.201
Mof_N 	N 	0.1255	0.5129	0.9718	-0.142
Mof_N 	N 	0.123	0.463	0.0569	-0.138
Mof_N 	N 	0.2109	0.549	0.0631	-0.15
Mof_Ag	Ag	0.34423	0.45667	0.36683	0.523
Mof_Ag	Ag	0.32171	0.75616	0.86644	0.534
Mof_C 	C 	0.5976	0.9716	0.9991	0.101
Mof_C 	C 	0.0326	0.8103	0.409	-0.149
Mof_H 	H 	0.054	0.7896	0.3876	0.084
Mof_C 	C 	0.1234	0.7557	0.5003	0.097
Mof_C 	C 	0.5037	0.885	0.9946	-0.139
Mof_H 	H 	0.5235	0.8834	0.0348	0.087
Mof_C 	C 	0.0597	0.8002	0.468	0.064
Mof_C 	C 	0.6817	0.0526	0.0053	0.095
Mof_C 	C 	0.5331	0.9274	0.965	0.069
Mof_C 	C 	0.2975	0.5837	0.5037	-0.135
Mof_H 	H 	0.3197	0.5877	0.5437	0.085
Mof_C 	C 	0.2094	0.7251	0.5858	0.1
Mof_C 	C 	0.4442	0.8448	0.9629	0.091
Mof_H 	H 	0.4246	0.8169	0.9832	-0.015
Mof_C 	C 	0.777	0.1385	0.0083	-0.129
Mof_H 	H 	0.7978	0.1348	0.0485	0.071
Mof_C 	C 	0.7202	0.1527	0.8908	0.065
Mof_H 	H 	0.7004	0.1574	0.8508	-0.026
Mof_C 	C 	0.2427	0.7367	0.6495	0.065
Mof_C 	C 	0.2352	0.6212	0.473	0.068
Mof_C 	C 	0.6788	0.9558	0.179	-0.145
Mof_H 	H 	0.6348	0.938	0.1587	0.084
Mof_C 	C 	0.7141	0.1015	0.9758	0.049
Mof_C 	C 	0.2354	0.5643	0.3874	0.084
Mof_H 	H 	0.2138	0.5573	0.3476	-0.01
Mof_C 	C 	0.7121	0.9914	0.1506	0.063
Mof_C 	C 	0.0258	0.8343	0.4976	-0.151
Mof_H 	H 	0.0432	0.8304	0.5376	0.077
Mof_C 	C 	0.9672	0.8735	0.4675	0.078
Mof_H 	H 	0.9453	0.8959	0.488	-0.022
Mof_C 	C 	0.6799	0.0021	0.0862	0.095
Mof_C 	C 	0.6863	0.1097	0.9171	-0.132
Mof_H 	H 	0.6448	0.0867	0.8946	0.077
Mof_C 	C 	0.8068	0.1807	0.9782	0.07
Mof_H 	H 	0.8478	0.2055	0.9993	-0.011
Mof_C 	C 	0.2038	0.6094	0.4137	-0.135
Mof_H 	H 	0.1619	0.6317	0.3919	0.085
Mof_C 	C 	0.2051	0.6718	0.5034	0.103
Mof_C 	C 	0.9729	0.8519	0.3822	0.078
Mof_H 	H 	0.9556	0.8594	0.3424	-0.022
Mof_C 	C 	0.325	0.5406	0.4729	0.092
Mof_H 	H 	0.367	0.5175	0.4934	-0.015
Mof_C 	C 	0.5015	0.9277	0.9054	-0.143
Mof_H 	H 	0.5192	0.9571	0.8842	0.081
Mof_C 	C 	0.8056	0.0048	0.2405	0.082
Mof_H 	H 	0.8495	0.0223	0.2615	-0.027
Mof_C 	C 	0.7114	0.9468	0.2385	0.084
Mof_H 	H 	0.6882	0.9232	0.2576	-0.017
Mof_C 	C 	0.4438	0.8843	0.8778	0.087
Mof_H 	H 	0.4245	0.8826	0.8376	-0.008
Mof_C 	C 	0.2448	0.7948	0.735	0.073
Mof_H 	H 	0.2262	0.83	0.7524	-0.019
Mof_C 	C 	0.7777	0.0165	0.1818	-0.153
Mof_H 	H 	0.8019	0.0403	0.1638	0.076
Mof_C 	C 	0.2142	0.7869	0.6762	-0.141
Mof_H 	H 	0.1749	0.8146	0.6544	0.072
Mof_C 	C 	0.3025	0.6994	0.6836	-0.154
Mof_H 	H 	0.325	0.6683	0.6673	0.087
Mof_C 	C 	0.3275	0.7098	0.7421	0.099
Mof_H 	H 	0.367	0.683	0.7648	-0.025
Mof_N 	N 	0.2955	0.53	0.4163	-0.194
Mof_N 	N 	0.939	0.8817	0.41	-0.215
Mof_N 	N 	0.3006	0.7542	0.769	-0.202
Mof_N 	N 	0.1478	0.7101	0.4708	-0.137
Mof_N 	N 	0.1525	0.766	0.5574	-0.142
Mof_N 	N 	0.2375	0.6774	0.5609	-0.138
Mof_N 	N 	0.7793	0.1872	0.9206	-0.207
Mof_N 	N 	0.4134	0.8437	0.9056	-0.19
Mof_N 	N 	0.7749	0.9704	0.2698	-0.201
Mof_N 	N 	0.6255	0.0129	0.9718	-0.142
Mof_N 	N 	0.623	0.963	0.0569	-0.138
Mof_N 	N 	0.7109	0.049	0.0631	-0.15
Mof_Ag	Ag	0.15577	0.95667	0.13317	0.523
Mof_Ag	Ag	0.17829	0.25616	0.63356	0.534
Mof_C 	C 	0.9024	0.4716	0.5009	0.101
Mof_C 	C 	0.4674	0.3103	0.091	-0.149
Mof_H 	H 	0.446	0.2896	0.1124	0.083
Mof_C 	C 	0.3766	0.2557	0.9997	0.098
Mof_C 	C 	0.9963	0.385	0.5054	-0.139
Mof_H 	H 	0.9765	0.3834	0.4652	0.087
Mof_C 	C 	0.4403	0.3002	0.032	0.064
Mof_C 	C 	0.8183	0.5526	0.4947	0.095
Mof_C 	C 	0.9669	0.4274	0.535	0.069
Mof_C 	C 	0.2025	0.0837	0.9963	-0.132
Mof_H 	H 	0.1803	0.0877	0.9563	0.084
Mof_C 	C 	0.2906	0.2251	0.9142	0.1
Mof_C 	C 	0.0558	0.3448	0.5371	0.091
Mof_H 	H 	0.0754	0.3169	0.5168	-0.015
Mof_C 	C 	0.723	0.6385	0.4917	-0.131
Mof_H 	H 	0.7022	0.6348	0.4515	0.072
Mof_C 	C 	0.7798	0.6527	0.6092	0.065
Mof_H 	H 	0.7996	0.6574	0.6492	-0.026
Mof_C 	C 	0.2573	0.2367	0.8505	0.065
Mof_C 	C 	0.2648	0.1212	0.027	0.066
Mof_C 	C 	0.8212	0.4558	0.321	-0.145
Mof_H 	H 	0.8652	0.438	0.3413	0.084
Mof_C 	C 	0.7859	0.6015	0.5242	0.051
Mof_C 	C 	0.2646	0.0643	0.1126	0.083
Mof_H 	H 	0.2862	0.0573	0.1524	-0.01
Mof_C 	C 	0.7879	0.4914	0.3494	0.063
Mof_C 	C 	0.4742	0.3343	0.0024	-0.151
Mof_H 	H 	0.4568	0.3304	0.9624	0.077
Mof_C 	C 	0.5328	0.3735	0.0325	0.078
Mof_H 	H 	0.5547	0.3959	0.012	-0.023
Mof_C 	C 	0.8201	0.5021	0.4138	0.095
Mof_C 	C 	0.8137	0.6097	0.5829	-0.133
Mof_H 	H 	0.8552	0.5867	0.6054	0.077
Mof_C 	C 	0.6932	0.6807	0.5218	0.072
Mof_H 	H 	0.6522	0.7055	0.5007	-0.011
Mof_C 	C 	0.2962	0.1094	0.0863	-0.133
Mof_H 	H 	0.3381	0.1317	0.1081	0.084
Mof_C 	C 	0.2949	0.1718	0.9966	0.104
Mof_C 	C 	0.5271	0.3519	0.1178	0.077
Mof_H 	H 	0.5444	0.3594	0.1576	-0.022
Mof_C 	C 	0.175	0.0406	0.0271	0.09
Mof_H 	H 	0.133	0.0175	0.0066	-0.015
Mof_C 	C 	0.9985	0.4277	0.5946	-0.143
Mof_H 	H 	0.9808	0.4571	0.6158	0.081
Mof_C 	C 	0.6944	0.5048	0.2595	0.081
Mof_H 	H 	0.6505	0.5223	0.2385	-0.027
Mof_C 	C 	0.7886	0.4468	0.2615	0.084
Mof_H 	H 	0.8118	0.4232	0.2424	-0.016
Mof_C 	C 	0.0562	0.3843	0.6222	0.087
Mof_H 	H 	0.0755	0.3826	0.6624	-0.008
Mof_C 	C 	0.2552	0.2948	0.765	0.073
Mof_H 	H 	0.2738	0.33	0.7476	-0.019
Mof_C 	C 	0.7223	0.5165	0.3182	-0.153
Mof_H 	H 	0.6981	0.5403	0.3362	0.076
Mof_C 	C 	0.2858	0.2869	0.8238	-0.141
Mof_H 	H 	0.3251	0.3146	0.8456	0.072
Mof_C 	C 	0.1975	0.1994	0.8164	-0.154
Mof_H 	H 	0.175	0.1683	0.8327	0.087
Mof_C 	C 	0.1725	0.2098	0.7579	0.099
Mof_H 	H 	0.133	0.183	0.7352	-0.025
Mof_N 	N 	0.2045	0.03	0.0837	-0.193
Mof_N 	N 	0.561	0.3817	0.09	-0.215
Mof_N 	N 	0.1994	0.2542	0.731	-0.202
Mof_N 	N 	0.3522	0.2101	0.0292	-0.138
Mof_N 	N 	0.3475	0.266	0.9426	-0.142
Mof_N 	N 	0.2625	0.1774	0.9391	-0.138
Mof_N 	N 	0.7207	0.6872	0.5794	-0.207
Mof_N 	N 	0.0866	0.3437	0.5944	-0.19
Mof_N 	N 	0.7251	0.4704	0.2302	-0.201
Mof_N 	N 	0.8745	0.5129	0.5282	-0.142
Mof_N 	N 	0.877	0.463	0.4431	-0.138
Mof_N 	N 	0.7891	0.549	0.4369	-0.15
Mof_Ag	Ag	0.65577	0.45667	0.13317	0.523
Mof_Ag	Ag	0.67829	0.75616	0.63356	0.534
Mof_C 	C 	0.4024	0.9716	0.5009	0.101
Mof_C 	C 	0.9674	0.8103	0.091	-0.146
Mof_H 	H 	0.946	0.7896	0.1124	0.083
Mof_C 	C 	0.8766	0.7557	0.9997	0.096
Mof_C 	C 	0.4963	0.885	0.5054	-0.139
Mof_H 	H 	0.4765	0.8834	0.4652	0.087
Mof_C 	C 	0.9403	0.8002	0.032	0.063
Mof_C 	C 	0.3183	0.0526	0.4947	0.095
Mof_C 	C 	0.4669	0.9274	0.535	0.069
Mof_C 	C 	0.7025	0.5837	0.9963	-0.139
Mof_H 	H 	0.6803	0.5877	0.9563	0.086
Mof_C 	C 	0.7906	0.7251	0.9142	0.1
Mof_C 	C 	0.5558	0.8448	0.5371	0.091
Mof_H 	H 	0.5754	0.8169	0.5168	-0.014
Mof_C 	C 	0.223	0.1385	0.4917	-0.131
Mof_H 	H 	0.2022	0.1348	0.4515	0.072
Mof_C 	C 	0.2798	0.1527	0.6092	0.065
Mof_H 	H 	0.2996	0.1574	0.6492	-0.026
Mof_C 	C 	0.7573	0.7367	0.8505	0.065
Mof_C 	C 	0.7648	0.6212	0.027	0.071
Mof_C 	C 	0.3212	0.9558	0.321	-0.145
Mof_H 	H 	0.3652	0.938	0.3413	0.084
Mof_C 	C 	0.2859	0.1015	0.5242	0.051
Mof_C 	C 	0.7646	0.5643	0.1126	0.085
Mof_H 	H 	0.7862	0.5573	0.1524	-0.011
Mof_C 	C 	0.2879	0.9914	0.3494	0.063
Mof_C 	C 	0.9742	0.8343	0.0024	-0.145
Mof_H 	H 	0.9568	0.8304	0.9624	0.074
Mof_C 	C 	0.0328	0.8735	0.0325	0.074
Mof_H 	H 	0.0547	0.8959	0.012	-0.021
Mof_C 	C 	0.3201	0.0021	0.4138	0.095
Mof_C 	C 	0.3137	0.1097	0.5829	-0.133
Mof_H 	H 	0.3552	0.0867	0.6054	0.077
Mof_C 	C 	0.1932	0.1807	0.5218	0.072
Mof_H 	H 	0.1522	0.2055	0.5007	-0.011
Mof_C 	C 	0.7962	0.6094	0.0863	-0.136
Mof_H 	H 	0.8381	0.6317	0.1081	0.085
Mof_C 	C 	0.7949	0.6718	0.9966	0.101
Mof_C 	C 	0.0271	0.8519	0.1178	0.075
Mof_H 	H 	0.0444	0.8594	0.1576	-0.021
Mof_C 	C 	0.675	0.5406	0.0271	0.094
Mof_H 	H 	0.633	0.5175	0.0066	-0.016
Mof_C 	C 	0.4985	0.9277	0.5946	-0.142
Mof_H 	H 	0.4808	0.9571	0.6158	0.081
Mof_C 	C 	0.1944	0.0048	0.2595	0.081
Mof_H 	H 	0.1505	0.0223	0.2385	-0.027
Mof_C 	C 	0.2886	0.9468	0.2615	0.084
Mof_H 	H 	0.3118	0.9232	0.2424	-0.017
Mof_C 	C 	0.5562	0.8843	0.6222	0.086
Mof_H 	H 	0.5755	0.8826	0.6624	-0.008
Mof_C 	C 	0.7552	0.7948	0.765	0.073
Mof_H 	H 	0.7738	0.83	0.7476	-0.019
Mof_C 	C 	0.2223	0.0165	0.3182	-0.153
Mof_H 	H 	0.1981	0.0403	0.3362	0.076
Mof_C 	C 	0.7858	0.7869	0.8238	-0.141
Mof_H 	H 	0.8251	0.8146	0.8456	0.072
Mof_C 	C 	0.6975	0.6994	0.8164	-0.154
Mof_H 	H 	0.675	0.6683	0.8327	0.087
Mof_C 	C 	0.6725	0.7098	0.7579	0.099
Mof_H 	H 	0.633	0.683	0.7352	-0.025
Mof_N 	N 	0.7045	0.53	0.0837	-0.194
Mof_N 	N 	0.061	0.8817	0.09	-0.214
Mof_N 	N 	0.6994	0.7542	0.731	-0.202
Mof_N 	N 	0.8522	0.7101	0.0292	-0.136
Mof_N 	N 	0.8475	0.766	0.9426	-0.142
Mof_N 	N 	0.7625	0.6774	0.9391	-0.137
Mof_N 	N 	0.2207	0.1872	0.5794	-0.207
Mof_N 	N 	0.5866	0.8437	0.5944	-0.19
Mof_N 	N 	0.2251	0.9704	0.2302	-0.201
Mof_N 	N 	0.3745	0.0129	0.5282	-0.142
Mof_N 	N 	0.377	0.963	0.4431	-0.138
Mof_N 	N 	0.2891	0.049	0.4369	-0.15
Mof_Ag	Ag	0.15577	0.04333	0.63317	0.523
Mof_Ag	Ag	0.17829	0.74384	0.13356	0.533
Mof_C 	C 	0.9024	0.5284	0.0009	0.103
Mof_C 	C 	0.4674	0.6897	0.591	-0.149
Mof_H 	H 	0.446	0.7104	0.6124	0.084
Mof_C 	C 	0.3766	0.7443	0.4997	0.097
Mof_C 	C 	0.9963	0.615	0.0054	-0.133
Mof_H 	H 	0.9765	0.6166	0.9652	0.084
Mof_C 	C 	0.4403	0.6998	0.532	0.064
Mof_C 	C 	0.8183	0.4474	0.9947	0.093
Mof_C 	C 	0.9669	0.5726	0.035	0.066
Mof_C 	C 	0.2025	0.9163	0.4963	-0.135
Mof_H 	H 	0.1803	0.9123	0.4563	0.085
Mof_C 	C 	0.2906	0.7749	0.4142	0.1
Mof_C 	C 	0.0558	0.6552	0.0371	0.086
Mof_H 	H 	0.0754	0.6831	0.0168	-0.013
Mof_C 	C 	0.723	0.3615	0.9917	-0.134
Mof_H 	H 	0.7022	0.3652	0.9515	0.073
Mof_C 	C 	0.7798	0.3473	0.1092	0.066
Mof_H 	H 	0.7996	0.3426	0.1492	-0.026
Mof_C 	C 	0.2573	0.7633	0.3505	0.065
Mof_C 	C 	0.2648	0.8788	0.527	0.068
Mof_C 	C 	0.8212	0.5442	0.821	-0.145
Mof_H 	H 	0.8652	0.562	0.8413	0.084
Mof_C 	C 	0.7859	0.3985	0.0242	0.053
Mof_C 	C 	0.2646	0.9357	0.6126	0.084
Mof_H 	H 	0.2862	0.9427	0.6524	-0.01
Mof_C 	C 	0.7879	0.5086	0.8494	0.063
Mof_C 	C 	0.4742	0.6657	0.5024	-0.15
Mof_H 	H 	0.4568	0.6696	0.4624	0.077
Mof_C 	C 	0.5328	0.6265	0.5325	0.078
Mof_H 	H 	0.5547	0.6041	0.512	-0.022
Mof_C 	C 	0.8201	0.4979	0.9138	0.095
Mof_C 	C 	0.8137	0.3903	0.0829	-0.135
Mof_H 	H 	0.8552	0.4133	0.1054	0.078
Mof_C 	C 	0.6932	0.3193	0.0218	0.074
Mof_H 	H 	0.6522	0.2945	0.0007	-0.011
Mof_C 	C 	0.2962	0.8906	0.5863	-0.135
Mof_H 	H 	0.3381	0.8683	0.6081	0.085
Mof_C 	C 	0.2949	0.8282	0.4966	0.103
Mof_C 	C 	0.5271	0.6481	0.6178	0.077
Mof_H 	H 	0.5444	0.6406	0.6576	-0.022
Mof_C 	C 	0.175	0.9594	0.5271	0.092
Mof_H 	H 	0.133	0.9825	0.5066	-0.015
Mof_C 	C 	0.9985	0.5723	0.0946	-0.139
Mof_H 	H 	0.9808	0.5429	0.1158	0.08
Mof_C 	C 	0.6944	0.4952	0.7595	0.081
Mof_H 	H 	0.6505	0.4777	0.7385	-0.027
Mof_C 	C 	0.7886	0.5532	0.7615	0.084
Mof_H 	H 	0.8118	0.5768	0.7424	-0.017
Mof_C 	C 	0.0562	0.6157	0.1222	0.083
Mof_H 	H 	0.0755	0.6174	0.1624	-0.007
Mof_C 	C 	0.2552	0.7052	0.265	0.073
Mof_H 	H 	0.2738	0.67	0.2476	-0.019
Mof_C 	C 	0.7223	0.4835	0.8182	-0.153
Mof_H 	H 	0.6981	0.4597	0.8362	0.076
Mof_C 	C 	0.2858	0.7131	0.3238	-0.141
Mof_H 	H 	0.3251	0.6854	0.3456	0.072
Mof_C 	C 	0.1975	0.8006	0.3164	-0.154
Mof_H 	H 	0.175	0.8317	0.3327	0.087
Mof_C 	C 	0.1725	0.7902	0.2579	0.099
Mof_H 	H 	0.133	0.817	0.2352	-0.025
Mof_N 	N 	0.2045	0.97	0.5837	-0.194
Mof_N 	N 	0.561	0.6183	0.59	-0.215
Mof_N 	N 	0.1994	0.7458	0.231	-0.202
Mof_N 	N 	0.3522	0.7899	0.5292	-0.137
Mof_N 	N 	0.3475	0.734	0.4426	-0.142
Mof_N 	N 	0.2625	0.8226	0.4391	-0.138
Mof_N 	N 	0.7207	0.3128	0.0794	-0.208
Mof_N 	N 	0.0866	0.6563	0.0944	-0.188
Mof_N 	N 	0.7251	0.5296	0.7302	-0.201
Mof_N 	N 	0.8745	0.4871	0.0282	-0.142
Mof_N 	N 	0.877	0.537	0.9431	-0.138
Mof_N 	N 	0.7891	0.451	0.9369	-0.15
Mof_Ag	Ag	0.65577	0.54333	0.63317	0.523
Mof_Ag	Ag	0.67829	0.24384	0.13356	0.534
Mof_C 	C 	0.4024	0.0284	0.0009	0.101
Mof_C 	C 	0.9674	0.1897	0.591	-0.149
Mof_H 	H 	0.946	0.2104	0.6124	0.084
Mof_C 	C 	0.8766	0.2443	0.4997	0.097
Mof_C 	C 	0.4963	0.115	0.0054	-0.139
Mof_H 	H 	0.4765	0.1166	0.9652	0.087
Mof_C 	C 	0.9403	0.1998	0.532	0.064
Mof_C 	C 	0.3183	0.9474	0.9947	0.095
Mof_C 	C 	0.4669	0.0726	0.035	0.069
Mof_C 	C 	0.7025	0.4163	0.4963	-0.135
Mof_H 	H 	0.6803	0.4123	0.4563	0.085
Mof_C 	C 	0.7906	0.2749	0.4142	0.1
Mof_C 	C 	0.5558	0.1552	0.0371	0.091
Mof_H 	H 	0.5754	0.1831	0.0168	-0.015
Mof_C 	C 	0.223	0.8615	0.9917	-0.129
Mof_H 	H 	0.2022	0.8652	0.9515	0.071
Mof_C 	C 	0.2798	0.8473	0.1092	0.065
Mof_H 	H 	0.2996	0.8426	0.1492	-0.026
Mof_C 	C 	0.7573	0.2633	0.3505	0.065
Mof_C 	C 	0.7648	0.3788	0.527	0.068
Mof_C 	C 	0.3212	0.0442	0.821	-0.145
Mof_H 	H 	0.3652	0.062	0.8413	0.084
Mof_C 	C 	0.2859	0.8985	0.0242	0.049
Mof_C 	C 	0.7646	0.4357	0.6126	0.084
Mof_H 	H 	0.7862	0.4427	0.6524	-0.01
Mof_C 	C 	0.2879	0.0086	0.8494	0.063
Mof_C 	C 	0.9742	0.1657	0.5024	-0.151
Mof_H 	H 	0.9568	0.1696	0.4624	0.077
Mof_C 	C 	0.0328	0.1265	0.5325	0.078
Mof_H 	H 	0.0547	0.1041	0.512	-0.022
Mof_C 	C 	0.3201	0.9979	0.9138	0.095
Mof_C 	C 	0.3137	0.8903	0.0829	-0.132
Mof_H 	H 	0.3552	0.9133	0.1054	0.077
Mof_C 	C 	0.1932	0.8193	0.0218	0.07
Mof_H 	H 	0.1522	0.7945	0.0007	-0.011
Mof_C 	C 	0.7962	0.3906	0.5863	-0.135
Mof_H 	H 	0.8381	0.3683	0.6081	0.085
Mof_C 	C 	0.7949	0.3282	0.4966	0.103
Mof_C 	C 	0.0271	0.1481	0.6178	0.078
Mof_H 	H 	0.0444	0.1406	0.6576	-0.022
Mof_C 	C 	0.675	0.4594	0.5271	0.092
Mof_H 	H 	0.633	0.4825	0.5066	-0.015
Mof_C 	C 	0.4985	0.0723	0.0946	-0.143
Mof_H 	H 	0.4808	0.0429	0.1158	0.081
Mof_C 	C 	0.1944	0.9952	0.7595	0.082
Mof_H 	H 	0.1505	0.9777	0.7385	-0.027
Mof_C 	C 	0.2886	0.0532	0.7615	0.084
Mof_H 	H 	0.3118	0.0768	0.7424	-0.017
Mof_C 	C 	0.5562	0.1157	0.1222	0.087
Mof_H 	H 	0.5755	0.1174	0.1624	-0.008
Mof_C 	C 	0.7552	0.2052	0.265	0.073
Mof_H 	H 	0.7738	0.17	0.2476	-0.019
Mof_C 	C 	0.2223	0.9835	0.8182	-0.153
Mof_H 	H 	0.1981	0.9597	0.8362	0.076
Mof_C 	C 	0.7858	0.2131	0.3238	-0.141
Mof_H 	H 	0.8251	0.1854	0.3456	0.072
Mof_C 	C 	0.6975	0.3006	0.3164	-0.154
Mof_H 	H 	0.675	0.3317	0.3327	0.087
Mof_C 	C 	0.6725	0.2902	0.2579	0.099
Mof_H 	H 	0.633	0.317	0.2352	-0.025
Mof_N 	N 	0.7045	0.47	0.5837	-0.194
Mof_N 	N 	0.061	0.1183	0.59	-0.215
Mof_N 	N 	0.6994	0.2458	0.231	-0.202
Mof_N 	N 	0.8522	0.2899	0.5292	-0.137
Mof_N 	N 	0.8475	0.234	0.4426	-0.142
Mof_N 	N 	0.7625	0.3226	0.4391	-0.138
Mof_N 	N 	0.2207	0.8128	0.0794	-0.207
Mof_N 	N 	0.5866	0.1563	0.0944	-0.19
Mof_N 	N 	0.2251	0.0296	0.7302	-0.201
Mof_N 	N 	0.3745	0.9871	0.0282	-0.142
Mof_N 	N 	0.377	0.037	0.9431	-0.138
Mof_N 	N 	0.2891	0.951	0.9369	-0.15
Mof_Ag	Ag	0.84423	0.04333	0.86683	0.523
Mof_Ag	Ag	0.82171	0.74384	0.36644	0.534
Mof_C 	C 	0.0976	0.5284	0.4991	0.101
Mof_C 	C 	0.5326	0.6897	0.909	-0.149
Mof_H 	H 	0.554	0.7104	0.8876	0.083
Mof_C 	C 	0.6234	0.7443	0.0003	0.098
Mof_C 	C 	0.0037	0.615	0.4946	-0.139
Mof_H 	H 	0.0235	0.6166	0.5348	0.087
Mof_C 	C 	0.5597	0.6998	0.968	0.064
Mof_C 	C 	0.1817	0.4474	0.5053	0.095
Mof_C 	C 	0.0331	0.5726	0.465	0.069
Mof_C 	C 	0.7975	0.9163	0.0037	-0.132
Mof_H 	H 	0.8197	0.9123	0.0437	0.084
Mof_C 	C 	0.7094	0.7749	0.0858	0.1
Mof_C 	C 	0.9442	0.6552	0.4629	0.091
Mof_H 	H 	0.9246	0.6831	0.4832	-0.015
Mof_C 	C 	0.277	0.3615	0.5083	-0.131
Mof_H 	H 	0.2978	0.3652	0.5485	0.072
Mof_C 	C 	0.2202	0.3473	0.3908	0.065
Mof_H 	H 	0.2004	0.3426	0.3508	-0.026
Mof_C 	C 	0.7427	0.7633	0.1495	0.065
Mof_C 	C 	0.7352	0.8788	0.973	0.066
Mof_C 	C 	0.1788	0.5442	0.679	-0.145
Mof_H 	H 	0.1348	0.562	0.6587	0.084
Mof_C 	C 	0.2141	0.3985	0.4758	0.051
Mof_C 	C 	0.7354	0.9357	0.8874	0.083
Mof_H 	H 	0.7138	0.9427	0.8476	-0.01
Mof_C 	C 	0.2121	0.5086	0.6506	0.063
Mof_C 	C 	0.5258	0.6657	0.9976	-0.151
Mof_H 	H 	0.5432	0.6696	0.0376	0.077
Mof_C 	C 	0.4672	0.6265	0.9675	0.078
Mof_H 	H 	0.4453	0.6041	0.988	-0.023
Mof_C 	C 	0.1799	0.4979	0.5862	0.095
Mof_C 	C 	0.1863	0.3903	0.4171	-0.133
Mof_H 	H 	0.1448	0.4133	0.3946	0.077
Mof_C 	C 	0.3068	0.3193	0.4782	0.072
Mof_H 	H 	0.3478	0.2945	0.4993	-0.011
Mof_C 	C 	0.7038	0.8906	0.9137	-0.133
Mof_H 	H 	0.6619	0.8683	0.8919	0.084
Mof_C 	C 	0.7051	0.8282	0.0034	0.104
Mof_C 	C 	0.4729	0.6481	0.8822	0.077
Mof_H 	H 	0.4556	0.6406	0.8424	-0.022
Mof_C 	C 	0.825	0.9594	0.9729	0.09
Mof_H 	H 	0.867	0.9825	0.9934	-0.015
Mof_C 	C 	0.0015	0.5723	0.4054	-0.143
Mof_H 	H 	0.0192	0.5429	0.3842	0.081
Mof_C 	C 	0.3056	0.4952	0.7405	0.081
Mof_H 	H 	0.3495	0.4777	0.7615	-0.027
Mof_C 	C 	0.2114	0.5532	0.7385	0.084
Mof_H 	H 	0.1882	0.5768	0.7576	-0.016
Mof_C 	C 	0.9438	0.6157	0.3778	0.087
Mof_H 	H 	0.9245	0.6174	0.3376	-0.008
Mof_C 	C 	0.7448	0.7052	0.235	0.073
Mof_H 	H 	0.7262	0.67	0.2524	-0.019
Mof_C 	C 	0.2777	0.4835	0.6818	-0.153
Mof_H 	H 	0.3019	0.4597	0.6638	0.076
Mof_C 	C 	0.7142	0.7131	0.1762	-0.141
Mof_H 	H 	0.6749	0.6854	0.1544	0.072
Mof_C 	C 	0.8025	0.8006	0.1836	-0.154
Mof_H 	H 	0.825	0.8317	0.1673	0.087
Mof_C 	C 	0.8275	0.7902	0.2421	0.099
Mof_H 	H 	0.867	0.817	0.2648	-0.025
Mof_N 	N 	0.7955	0.97	0.9163	-0.193
Mof_N 	N 	0.439	0.6183	0.91	-0.215
Mof_N 	N 	0.8006	0.7458	0.269	-0.202
Mof_N 	N 	0.6478	0.7899	0.9708	-0.138
Mof_N 	N 	0.6525	0.734	0.0574	-0.142
Mof_N 	N 	0.7375	0.8226	0.0609	-0.138
Mof_N 	N 	0.2793	0.3128	0.4206	-0.207
Mof_N 	N 	0.9134	0.6563	0.4056	-0.19
Mof_N 	N 	0.2749	0.5296	0.7698	-0.201
Mof_N 	N 	0.1255	0.4871	0.4718	-0.142
Mof_N 	N 	0.123	0.537	0.5569	-0.138
Mof_N 	N 	0.2109	0.451	0.5631	-0.15
Mof_Ag	Ag	0.34423	0.54333	0.86683	0.523
Mof_Ag	Ag	0.32171	0.24384	0.36644	0.534
Mof_C 	C 	0.5976	0.0284	0.4991	0.101
Mof_C 	C 	0.0326	0.1897	0.909	-0.146
Mof_H 	H 	0.054	0.2104	0.8876	0.083
Mof_C 	C 	0.1234	0.2443	0.0003	0.096
Mof_C 	C 	0.5037	0.115	0.4946	-0.139
Mof_H 	H 	0.5235	0.1166	0.5348	0.087
Mof_C 	C 	0.0597	0.1998	0.968	0.063
Mof_C 	C 	0.6817	0.9474	0.5053	0.095
Mof_C 	C 	0.5331	0.0726	0.465	0.069
Mof_C 	C 	0.2975	0.4163	0.0037	-0.139
Mof_H 	H 	0.3197	0.4123	0.0437	0.086
Mof_C 	C 	0.2094	0.2749	0.0858	0.1
Mof_C 	C 	0.4442	0.1552	0.4629	0.091
Mof_H 	H 	0.4246	0.1831	0.4832	-0.014
Mof_C 	C 	0.777	0.8615	0.5083	-0.131
Mof_H 	H 	0.7978	0.8652	0.5485	0.072
Mof_C 	C 	0.7202	0.8473	0.3908	0.065
Mof_H 	H 	0.7004	0.8426	0.3508	-0.026
Mof_C 	C 	0.2427	0.2633	0.1495	0.065
Mof_C 	C 	0.2352	0.3788	0.973	0.071
Mof_C 	C 	0.6788	0.0442	0.679	-0.145
Mof_H 	H 	0.6348	0.062	0.6587	0.084
Mof_C 	C 	0.7141	0.8985	0.4758	0.051
Mof_C 	C 	0.2354	0.4357	0.8874	0.085
Mof_H 	H 	0.2138	0.4427	0.8476	-0.011
Mof_C 	C 	0.7121	0.0086	0.6506	0.063
Mof_C 	C 	0.0258	0.1657	0.9976	-0.145
Mof_H 	H 	0.0432	0.1696	0.0376	0.074
Mof_C 	C 	0.9672	0.1265	0.9675	0.074
Mof_H 	H 	0.9453	0.1041	0.988	-0.021
Mof_C 	C 	0.6799	0.9979	0.5862	0.095
Mof_C 	C 	0.6863	0.8903	0.4171	-0.133
Mof_H 	H 	0.6448	0.9133	0.3946	0.077
Mof_C 	C 	0.8068	0.8193	0.4782	0.072
Mof_H 	H 	0.8478	0.7945	0.4993	-0.011
Mof_C 	C 	0.2038	0.3906	0.9137	-0.136
Mof_H 	H 	0.1619	0.3683	0.8919	0.085
Mof_C 	C 	0.2051	0.3282	0.0034	0.101
Mof_C 	C 	0.9729	0.1481	0.8822	0.075
Mof_H 	H 	0.9556	0.1406	0.8424	-0.021
Mof_C 	C 	0.325	0.4594	0.9729	0.094
Mof_H 	H 	0.367	0.4825	0.9934	-0.016
Mof_C 	C 	0.5015	0.0723	0.4054	-0.142
Mof_H 	H 	0.5192	0.0429	0.3842	0.081
Mof_C 	C 	0.8056	0.9952	0.7405	0.081
Mof_H 	H 	0.8495	0.9777	0.7615	-0.027
Mof_C 	C 	0.7114	0.0532	0.7385	0.084
Mof_H 	H 	0.6882	0.0768	0.7576	-0.017
Mof_C 	C 	0.4438	0.1157	0.3778	0.086
Mof_H 	H 	0.4245	0.1174	0.3376	-0.008
Mof_C 	C 	0.2448	0.2052	0.235	0.073
Mof_H 	H 	0.2262	0.17	0.2524	-0.019
Mof_C 	C 	0.7777	0.9835	0.6818	-0.153
Mof_H 	H 	0.8019	0.9597	0.6638	0.076
Mof_C 	C 	0.2142	0.2131	0.1762	-0.141
Mof_H 	H 	0.1749	0.1854	0.1544	0.072
Mof_C 	C 	0.3025	0.3006	0.1836	-0.154
Mof_H 	H 	0.325	0.3317	0.1673	0.087
Mof_C 	C 	0.3275	0.2902	0.2421	0.099
Mof_H 	H 	0.367	0.317	0.2648	-0.025
Mof_N 	N 	0.2955	0.47	0.9163	-0.194
Mof_N 	N 	0.939	0.1183	0.91	-0.214
Mof_N 	N 	0.3006	0.2458	0.269	-0.202
Mof_N 	N 	0.1478	0.2899	0.9708	-0.136
Mof_N 	N 	0.1525	0.234	0.0574	-0.142
Mof_N 	N 	0.2375	0.3226	0.0609	-0.137
Mof_N 	N 	0.7793	0.8128	0.4206	-0.207
Mof_N 	N 	0.4134	0.1563	0.4056	-0.19
Mof_N 	N 	0.7749	0.0296	0.7698	-0.201
Mof_N 	N 	0.6255	0.9871	0.4718	-0.142
Mof_N 	N 	0.623	0.037	0.5569	-0.138
Mof_N 	N 	0.7109	0.951	0.5631	-0.15
_end
