data_functionalizedCrystal
_audit_creation_method	'EQeq! by Chris Wilmer'
_symmetry_space_group_name_H-M	'P1'
_symmetry_Int_Tables_number	1
_symmetry_cell_setting	triclinic
loop_
_symmetry_equiv_pos_as_xyz
  x,y,z
_cell_length_a	6.8061
_cell_length_b	8.2468
_cell_length_c	9.0956
_cell_angle_alpha	103.824
_cell_angle_beta	94.823
_cell_angle_gamma	102.719
loop_
_atom_site_label
_atom_site_type_symbol
_atom_site_fract_x
_atom_site_fract_y
_atom_site_fract_z
_atom_site_charge
Mof_O 	O 	0.076	0.7964	0.0937	-0.224
Mof_O 	O 	0.2444	0.5269	0.1377	-0.205
Mof_O 	O 	0.7966	0.8068	0.3099	-0.118
Mof_O 	O 	0.7857	0.953	0.624	-0.107
Mof_O 	O 	0.4845	0.8391	0.3082	-0.132
Mof_O 	O 	0.8826	0.8199	0.7944	-0.267
Mof_C 	C 	0.7789	0.822	0.675	0.314
Mof_O 	O 	0.4602	0.3608	0.0863	-0.256
Mof_C 	C 	0.6199	0.7707	0.3475	0.267
Mof_C 	C 	0.6346	0.6568	0.5841	-0.017
Mof_C 	C 	0.5642	0.6318	0.4291	0.008
Mof_C 	C 	0.4322	0.475	0.3452	-0.015
Mof_C 	C 	0.3735	0.4486	0.1755	0.292
Mof_U 	U 	0.11287	0.74819	0.27496	0.018
Mof_O 	O 	0.924	0.2036	0.9063	-0.121
Mof_O 	O 	0.7556	0.4731	0.8623	-0.096
Mof_O 	O 	0.2034	0.1932	0.6901	-0.224
Mof_O 	O 	0.2143	0.047	0.376	-0.269
Mof_O 	O 	0.5155	0.1609	0.6918	-0.195
Mof_O 	O 	0.1174	0.1801	0.2056	-0.447
Mof_C 	C 	0.2211	0.178	0.325	0.334
Mof_O 	O 	0.5398	0.6392	0.9137	-0.127
Mof_C 	C 	0.3801	0.2293	0.6525	0.297
Mof_C 	C 	0.3654	0.3432	0.4159	-0.043
Mof_C 	C 	0.4358	0.3682	0.5709	-0.014
Mof_C 	C 	0.5678	0.525	0.6548	0.005
Mof_C 	C 	0.6265	0.5514	0.8245	0.27
Mof_U 	U 	0.88713	0.25181	0.72504	0.039
Mof_Co	Co	-0	0	-0	1.033
_end
