# CIF file generated by openbabel 3.1.0, see https://openbabel.org
data_I
_chemical_name_common 'POBGAQ01_clean'
_cell_length_a 16.9434
_cell_length_b 35.6426
_cell_length_c 40.319
_cell_angle_alpha 90
_cell_angle_beta 90
_cell_angle_gamma 90
_space_group_name_H-M_alt 'P 1'
_space_group_name_Hall 'P 1'
loop_
    _symmetry_equiv_pos_as_xyz
    x,y,z
loop_
    _atom_site_label
    _atom_site_type_symbol
    _atom_site_fract_x
    _atom_site_fract_y
    _atom_site_fract_z
    _atom_site_occupancy
    Fe1      Fe       0.25000    0.25791    0.00000    1.000
    Fe2      Fe       0.25000    0.24209    0.50000    1.000
    Fe3      Fe       0.86531    0.75000    0.75000    1.000
    Fe4      Fe       0.63469    0.75000    0.25000    1.000
    B1       B        0.88870    0.74960    0.63861    1.000
    B2       B        0.61130    0.75040    0.13861    1.000
    B3       B        0.61130    0.74960    0.36139    1.000
    B4       B        0.88870    0.75040    0.86139    1.000
    H1       H        0.16950    0.32870    0.97050    1.000
    H2       H        0.26320    0.39890    0.88160    1.000
    H3       H        0.37500    0.35250    0.56910    1.000
    H4       H        0.36160    0.52600    0.29870    1.000
    H5       H        0.89540    0.77670    0.62950    1.000
    H6       H        0.73810    0.63050    0.78370    1.000
    H7       H        0.18870    0.29940    0.60900    1.000
    H8       H        0.08760    0.97130    0.20540    1.000
    H9       H        0.03570    0.03440    0.19050    1.000
    H10      H        0.12500    0.35250    0.43090    1.000
    H11      H        0.46430    0.46560    0.69050    1.000
    H12      H        0.84340    0.74110    0.62290    1.000
    H13      H        0.10650    0.12240    0.11290    1.000
    H14      H        0.65660    0.58310    0.76980    1.000
    H15      H        0.77770    0.76930    0.21220    1.000
    H16      H        0.57630    0.87670    0.77690    1.000
    H17      H        0.34380    0.62270    0.23240    1.000
    H18      H        0.82470    0.81930    0.71370    1.000
    H19      H        0.12870    0.21930    0.44630    1.000
    H20      H        0.07710    0.91630    0.78030    1.000
    H21      H        0.23190    0.35540    0.35690    1.000
    H22      H        0.42290    0.91630    0.21970    1.000
    H23      H        0.45460    0.08280    0.73460    1.000
    H24      H        0.67530    0.68070    0.21370    1.000
    H25      H        0.41240    0.97130    0.79460    1.000
    H26      H        0.99000    0.86900    0.78780    1.000
    H27      H        0.44850    0.37990    0.81160    1.000
    H28      H        0.04540    0.41720    0.23460    1.000
    H29      H        0.36430    0.18440    0.97810    1.000
    H30      H        0.90910    0.52600    0.20860    1.000
    H31      H        0.45210    0.42480    0.64500    1.000
    H32      H        0.84340    0.75890    0.87710    1.000
    H33      H        0.76190    0.63050    0.21630    1.000
    H34      H        0.73810    0.86950    0.71630    1.000
    H35      H        0.33210    0.53430    0.78160    1.000
    H36      H        0.63050    0.81720    0.79500    1.000
    H37      H        0.27470    0.08270    0.76920    1.000
    H38      H        0.99000    0.63100    0.71220    1.000
    H39      H        0.31130    0.20060    0.10900    1.000
    H40      H        0.93530    0.76270    0.87410    1.000
    H41      H        0.39350    0.12240    0.88710    1.000
    H42      H        0.37500    0.14750    0.93090    1.000
    H43      H        0.25780    0.06470    0.65830    1.000
    H44      H        0.25780    0.43530    0.84170    1.000
    H45      H        0.72230    0.73070    0.71220    1.000
    H46      H        0.39510    0.68200    0.21180    1.000
    H47      H        0.86950    0.68280    0.29500    1.000
    H48      H        0.82470    0.68070    0.78630    1.000
    H49      H        0.26810    0.35540    0.64310    1.000
    H50      H        0.18430    0.37420    0.93070    1.000
    H51      H        0.16950    0.17130    0.52950    1.000
    H52      H        0.10490    0.68200    0.78820    1.000
    H53      H        0.23570    0.47300    0.20410    1.000
    H54      H        0.26430    0.47300    0.79590    1.000
    H55      H        0.39350    0.37760    0.61290    1.000
    H56      H        0.23300    0.37670    0.31300    1.000
    H57      H        0.51000    0.63100    0.28780    1.000
    H58      H        0.07710    0.58370    0.71970    1.000
    H59      H        0.12870    0.28070    0.05370    1.000
    H60      H        0.04790    0.07520    0.14500    1.000
    H61      H        0.92370    0.87670    0.22310    1.000
    H62      H        0.26700    0.12330    0.81300    1.000
    H63      H        0.36160    0.97400    0.20130    1.000
    H64      H        0.13840    0.52600    0.70130    1.000
    H65      H        0.26320    0.10110    0.61840    1.000
    H66      H        0.04790    0.42480    0.35500    1.000
    H67      H        0.26660    0.57910    0.22130    1.000
    H68      H        0.24220    0.06470    0.34170    1.000
    H69      H        0.49460    0.48100    0.78720    1.000
    H70      H        0.26660    0.92090    0.27870    1.000
    H71      H        0.56470    0.76270    0.12590    1.000
    H72      H        0.59090    0.52600    0.79140    1.000
    H73      H        0.72230    0.76930    0.78780    1.000
    H74      H        0.13840    0.97400    0.79870    1.000
    H75      H        0.23840    0.48050    0.70460    1.000
    H76      H        0.31130    0.29940    0.39100    1.000
    H77      H        0.51370    0.92730    0.79240    1.000
    H78      H        0.10490    0.81800    0.71180    1.000
    H79      H        0.26700    0.37670    0.68700    1.000
    H80      H        0.11490    0.35760    0.14070    1.000
    H81      H        0.60460    0.72330    0.12950    1.000
    H82      H        0.11490    0.14240    0.35930    1.000
    H83      H        0.57630    0.62330    0.72310    1.000
    H84      H        0.15620    0.87730    0.73240    1.000
    H85      H        0.23680    0.10110    0.38160    1.000
    H86      H        0.00810    0.77020    0.71580    1.000
    H87      H        0.38510    0.35760    0.85930    1.000
    H88      H        0.46430    0.03440    0.80950    1.000
    H89      H        0.37130    0.28070    0.94630    1.000
    H90      H        0.22530    0.41730    0.26920    1.000
    H91      H        0.84340    0.91690    0.26980    1.000
    H92      H        0.67530    0.81930    0.28630    1.000
    H93      H        0.23300    0.12330    0.18700    1.000
    H94      H        0.39510    0.81800    0.28820    1.000
    H95      H        0.42290    0.58370    0.28030    1.000
    H96      H        0.84340    0.58310    0.23020    1.000
    H97      H        0.10650    0.37760    0.38710    1.000
    H98      H        0.00810    0.72980    0.78420    1.000
    H99      H        0.11080    0.32370    0.09820    1.000
    H100     H        0.98630    0.92730    0.20760    1.000
    H101     H        0.90100    0.81970    0.78690    1.000
    H102     H        0.92370    0.62330    0.27690    1.000
    H103     H        0.33210    0.96570    0.71840    1.000
    H104     H        0.13570    0.31560    0.47810    1.000
    H105     H        0.15620    0.62270    0.76760    1.000
    H106     H        0.45460    0.41720    0.76540    1.000
    H107     H        0.04540    0.08280    0.26540    1.000
    H108     H        0.18870    0.20060    0.89100    1.000
    H109     H        0.90910    0.97400    0.29140    1.000
    H110     H        0.18430    0.12580    0.56930    1.000
    H111     H        0.89540    0.72330    0.87050    1.000
    H112     H        0.16790    0.96570    0.28160    1.000
    H113     H        0.31570    0.37420    0.06930    1.000
    H114     H        0.27470    0.41730    0.73080    1.000
    H115     H        0.93530    0.73730    0.62590    1.000
    H116     H        0.49190    0.77020    0.28420    1.000
    H117     H        0.86950    0.81720    0.20500    1.000
    H118     H        0.38510    0.14240    0.64070    1.000
    H119     H        0.34380    0.87730    0.26760    1.000
    H120     H        0.44850    0.12010    0.68840    1.000
    H121     H        0.41240    0.52870    0.70540    1.000
    H122     H        0.98630    0.57270    0.29240    1.000
    H123     H        0.26160    0.48050    0.29540    1.000
    H124     H        0.11080    0.17630    0.40180    1.000
    H125     H        0.05150    0.37990    0.18840    1.000
    H126     H        0.32200    0.23750    0.06180    1.000
    H127     H        0.16790    0.53430    0.21840    1.000
    H128     H        0.31570    0.12580    0.43070    1.000
    H129     H        0.17800    0.23750    0.93820    1.000
    H130     H        0.37130    0.21930    0.55370    1.000
    H131     H        0.26160    0.01950    0.20460    1.000
    H132     H        0.59900    0.81970    0.21310    1.000
    H133     H        0.26430    0.02700    0.70410    1.000
    H134     H        0.77770    0.73070    0.28780    1.000
    H135     H        0.59900    0.68030    0.28690    1.000
    H136     H        0.33050    0.32870    0.02950    1.000
    H137     H        0.05150    0.12010    0.31160    1.000
    H138     H        0.23340    0.92090    0.72130    1.000
    H139     H        0.65660    0.74110    0.37710    1.000
    H140     H        0.56470    0.73730    0.37410    1.000
    H141     H        0.38920    0.17630    0.59820    1.000
    H142     H        0.08760    0.52870    0.29460    1.000
    H143     H        0.23570    0.02700    0.29590    1.000
    H144     H        0.49190    0.72980    0.21580    1.000
    H145     H        0.23840    0.01950    0.79540    1.000
    H146     H        0.60460    0.77670    0.37050    1.000
    H147     H        0.03570    0.46560    0.30950    1.000
    H148     H        0.45210    0.07520    0.85500    1.000
    H149     H        0.65660    0.91690    0.73020    1.000
    H150     H        0.12500    0.14750    0.06910    1.000
    H151     H        0.51370    0.57270    0.70760    1.000
    H152     H        0.00540    0.48100    0.21280    1.000
    H153     H        0.32200    0.26250    0.43820    1.000
    H154     H        0.49460    0.01900    0.71280    1.000
    H155     H        0.23340    0.57910    0.77870    1.000
    H156     H        0.51000    0.86900    0.21220    1.000
    H157     H        0.76190    0.86950    0.28370    1.000
    H158     H        0.13570    0.18440    0.02190    1.000
    H159     H        0.26810    0.14460    0.85690    1.000
    H160     H        0.17800    0.26250    0.56180    1.000
    H161     H        0.33050    0.17130    0.47050    1.000
    H162     H        0.63050    0.68280    0.70500    1.000
    H163     H        0.38920    0.32370    0.90180    1.000
    H164     H        0.24220    0.43530    0.15830    1.000
    H165     H        0.22530    0.08270    0.23080    1.000
    H166     H        0.00540    0.01900    0.28720    1.000
    H167     H        0.23680    0.39890    0.11840    1.000
    H168     H        0.90100    0.68030    0.71310    1.000
    H169     H        0.65660    0.75890    0.12290    1.000
    H170     H        0.59090    0.97400    0.70860    1.000
    H171     H        0.23190    0.14460    0.14310    1.000
    H172     H        0.36430    0.31560    0.52190    1.000
    C1       C        0.23460    0.55963    0.76333    1.000
    C2       C        0.00430    0.79045    0.73022    1.000
    C3       C        0.66840    0.68192    0.72170    1.000
    C4       C        0.36760    0.02537    0.75539    1.000
    C5       C        0.30370    0.35640    0.62560    1.000
    C6       C        0.43570    0.68081    0.22728    1.000
    C7       C        0.83160    0.68192    0.27830    1.000
    C8       C        0.00400    0.99994    0.27148    1.000
    C9       C        0.88430    0.58684    0.24516    1.000
    C10      C        0.30200    0.04568    0.70098    1.000
    C11      C        0.27880    0.35510    0.06710    1.000
    C12      C        0.35090    0.09775    0.66894    1.000
    C13      C        0.34540    0.32500    0.91560    1.000
    C14      C        0.15460    0.17500    0.41560    1.000
    C15      C        0.72460    0.71013    0.72639    1.000
    C16      C        0.27880    0.14490    0.43290    1.000
    C17      C        0.61500    0.61933    0.73904    1.000
    C18      C        0.33550    0.33447    0.56760    1.000
    C19      C        0.32910    0.18760    0.96065    1.000
    C20      C        0.38420    0.88081    0.25226    1.000
    C21      C        0.16450    0.16553    0.06760    1.000
    C22      C        0.07730    0.05141    0.18972    1.000
    C23      C        0.21330    0.14765    0.41160    1.000
    C24      C        0.06430    0.68081    0.77272    1.000
    C25      C        0.19630    0.35640    0.37440    1.000
    C26      C        0.17090    0.31240    0.46065    1.000
    C27      C        0.05230    0.97225    0.22308    1.000
    C28      C        0.36820    0.05214    0.78507    1.000
    C29      C        0.94240    0.68061    0.72830    1.000
    C30      C        0.08960    0.39837    0.19157    1.000
    C31      C        0.14570    0.37523    0.37100    1.000
    C32      C        0.76690    0.65040    0.23102    1.000
    C33      C        0.88430    0.91316    0.25484    1.000
    C34      C        0.21750    0.28052    0.56330    1.000
    C35      C        0.08750    0.24500    0.51350    1.000
    C36      C        0.73310    0.84960    0.73102    1.000
    C37      C        0.43570    0.81919    0.27272    1.000
    C38      C        0.22390    0.30260    0.59156    1.000
    C39      C        0.30590    0.10488    0.81274    1.000
    C40      C        0.49600    0.50006    0.77148    1.000
    C41      C        0.99600    0.84968    0.77249    1.000
    C42      C        0.20250    0.06864    0.32613    1.000
    C43      C        0.05620    0.85009    0.75049    1.000
    C44      C        0.21430    0.17180    0.54290    1.000
    C45      C        0.26540    0.55963    0.23667    1.000
    C46      C        0.13180    0.44786    0.28507    1.000
    C47      C        0.35430    0.37523    0.62900    1.000
    C48      C        0.16640    0.29910    0.05750    1.000
    C49      C        0.20640    0.96746    0.26523    1.000
    C50      C        0.29750    0.43136    0.82613    1.000
    C51      C        0.08490    0.42123    0.21905    1.000
    C52      C        0.29570    0.50269    0.74281    1.000
    C53      C        0.67430    0.65073    0.74546    1.000
    C54      C        0.17780    0.52812    0.71731    1.000
    C55      C        0.23830    0.99956    0.78054    1.000
    C56      C        0.28290    0.32960    0.59373    1.000
    C57      C        0.28570    0.32820    0.04290    1.000
    C58      C        0.13790    0.05013    0.27624    1.000
    C59      C        0.20430    0.50269    0.25719    1.000
    C60      C        0.32230    0.94221    0.23883    1.000
    C61      C        0.14300    0.39781    0.33790    1.000
    C62      C        0.71460    0.68089    0.22980    1.000
    C63      C        0.55760    0.81939    0.22830    1.000
    C64      C        0.29360    0.53254    0.76523    1.000
    C65      C        0.33360    0.20090    0.55750    1.000
    C66      C        0.34800    0.12323    0.64137    1.000
    C67      C        0.17770    0.55779    0.73883    1.000
    C68      C        0.26540    0.94037    0.26333    1.000
    C69      C        0.29760    0.37863    0.88240    1.000
    C70      C        0.28250    0.28052    0.43670    1.000
    C71      C        0.19410    0.39512    0.31274    1.000
    C72      C        0.23460    0.94037    0.73667    1.000
    C73      C        0.55760    0.68061    0.27170    1.000
    C74      C        0.19800    0.04568    0.29902    1.000
    C75      C        0.41620    0.07641    0.83755    1.000
    C76      C        0.18940    0.41953    0.28655    1.000
    C77      C        0.49570    0.70955    0.23022    1.000
    C78      C        0.99180    0.94474    0.22460    1.000
    C79      C        0.38300    0.58759    0.26488    1.000
    C80      C        0.50820    0.55526    0.72460    1.000
    C81      C        0.32910    0.31240    0.53935    1.000
    C82      C        0.16450    0.33447    0.43240    1.000
    C83      C        0.07730    0.44859    0.31028    1.000
    C84      C        0.08490    0.07877    0.28095    1.000
    C85      C        0.13180    0.05214    0.21493    1.000
    C86      C        0.50400    0.65032    0.27249    1.000
    C87      C        0.66840    0.81808    0.77830    1.000
    C88      C        0.55450    0.97278    0.72582    1.000
    C89      C        0.50400    0.84968    0.22751    1.000
    C90      C        0.61570    0.91316    0.74516    1.000
    C91      C        0.94550    0.97278    0.27418    1.000
    C92      C        0.15460    0.32500    0.08440    1.000
    C93      C        0.43870    0.00001    0.75384    1.000
    C94      C        0.44770    0.52775    0.72308    1.000
    C95      C        0.17770    0.94221    0.76117    1.000
    C96      C        0.99600    0.65032    0.72751    1.000
    C97      C        0.36210    0.05013    0.72376    1.000
    C98      C        0.20250    0.43136    0.17387    1.000
    C99      C        0.13790    0.44987    0.22376    1.000
    C100     C        0.15200    0.12323    0.35863    1.000
    C101     C        0.14910    0.09775    0.33106    1.000
    C102     C        0.27610    0.30260    0.40844    1.000
    C103     C        0.21710    0.17040    0.09373    1.000
    C104     C        0.15200    0.37677    0.14137    1.000
    C105     C        0.33360    0.29910    0.94250    1.000
    C106     C        0.49570    0.79045    0.26978    1.000
    C107     C        0.41040    0.10163    0.69157    1.000
    C108     C        0.78540    0.81911    0.72980    1.000
    C109     C        0.13240    0.47463    0.25539    1.000
    C110     C        0.36760    0.47463    0.74461    1.000
    C111     C        0.83160    0.81808    0.22170    1.000
    C112     C        0.06430    0.81919    0.72728    1.000
    C113     C        0.29360    0.96746    0.73477    1.000
    C114     C        0.49600    0.99994    0.72852    1.000
    C115     C        0.41510    0.07877    0.71905    1.000
    C116     C        0.76690    0.84960    0.26898    1.000
    C117     C        0.41040    0.39837    0.80843    1.000
    C118     C        0.22120    0.35510    0.93290    1.000
    C119     C        0.41250    0.25500    0.01350    1.000
    C120     C        0.55870    0.94396    0.74871    1.000
    C121     C        0.73310    0.65040    0.76898    1.000
    C122     C        0.28670    0.14765    0.58840    1.000
    C123     C        0.14910    0.40225    0.16894    1.000
    C124     C        0.61500    0.88067    0.76096    1.000
    C125     C        0.21430    0.32820    0.95710    1.000
    C126     C        0.63310    0.75130    0.17830    1.000
    C127     C        0.30200    0.45432    0.79902    1.000
    C128     C        0.41250    0.24500    0.48650    1.000
    C129     C        0.08960    0.10163    0.30843    1.000
    C130     C        0.16640    0.20090    0.44250    1.000
    C131     C        0.94130    0.55604    0.24871    1.000
    C132     C        0.32220    0.97188    0.21731    1.000
    C133     C        0.99180    0.55526    0.27540    1.000
    C134     C        0.08380    0.42359    0.33755    1.000
    C135     C        0.17780    0.97188    0.78269    1.000
    C136     C        0.42270    0.44859    0.68972    1.000
    C137     C        0.44380    0.64991    0.25049    1.000
    C138     C        0.42270    0.05141    0.81028    1.000
    C139     C        0.82570    0.65073    0.25454    1.000
    C140     C        0.31060    0.08047    0.78655    1.000
    C141     C        0.36820    0.44786    0.71493    1.000
    C142     C        0.35430    0.12477    0.87100    1.000
    C143     C        0.00430    0.70955    0.76978    1.000
    C144     C        0.41620    0.42359    0.66245    1.000
    C145     C        0.28250    0.21948    0.06330    1.000
    C146     C        0.18940    0.08047    0.21345    1.000
    C147     C        0.41510    0.42123    0.78095    1.000
    C148     C        0.14570    0.12477    0.12900    1.000
    C149     C        0.23830    0.50044    0.71946    1.000
    C150     C        0.28290    0.17040    0.90627    1.000
    C151     C        0.05230    0.52775    0.27692    1.000
    C152     C        0.88500    0.61933    0.26096    1.000
    C153     C        0.21710    0.32960    0.40627    1.000
    C154     C        0.05620    0.64991    0.74951    1.000
    C155     C        0.08380    0.07641    0.16245    1.000
    C156     C        0.44380    0.85009    0.24951    1.000
    C157     C        0.33550    0.16553    0.93240    1.000
    C158     C        0.11580    0.88081    0.74774    1.000
    C159     C        0.22390    0.19740    0.90844    1.000
    C160     C        0.55870    0.55604    0.75129    1.000
    C161     C        0.29750    0.06864    0.67387    1.000
    C162     C        0.94130    0.94396    0.25129    1.000
    C163     C        0.77540    0.71013    0.27361    1.000
    C164     C        0.61570    0.58684    0.75484    1.000
    C165     C        0.36210    0.44987    0.77624    1.000
    C166     C        0.35090    0.40225    0.83106    1.000
    C167     C        0.94240    0.81939    0.77170    1.000
    C168     C        0.50820    0.94474    0.77540    1.000
    C169     C        0.77540    0.78987    0.22639    1.000
    C170     C        0.06130    0.00001    0.24616    1.000
    C171     C        0.94550    0.52722    0.22582    1.000
    C172     C        0.34540    0.17500    0.58440    1.000
    C173     C        0.19410    0.10488    0.18726    1.000
    C174     C        0.13240    0.02537    0.24461    1.000
    C175     C        0.38420    0.61919    0.24774    1.000
    C176     C        0.00400    0.50006    0.22852    1.000
    C177     C        0.21330    0.35235    0.08840    1.000
    C178     C        0.14300    0.10219    0.16210    1.000
    C179     C        0.30590    0.39512    0.68726    1.000
    C180     C        0.32230    0.55779    0.26117    1.000
    C181     C        0.67430    0.84927    0.75454    1.000
    C182     C        0.34800    0.37677    0.85863    1.000
    C183     C        0.08750    0.25500    0.98650    1.000
    C184     C        0.11580    0.61919    0.75226    1.000
    C185     C        0.22120    0.14490    0.56710    1.000
    C186     C        0.55450    0.52722    0.77418    1.000
    C187     C        0.35700    0.10219    0.83790    1.000
    C188     C        0.86690    0.74870    0.67830    1.000
    C189     C        0.38300    0.91241    0.23512    1.000
    C190     C        0.88500    0.88067    0.23904    1.000
    C191     C        0.28570    0.17180    0.45710    1.000
    C192     C        0.11700    0.58759    0.73512    1.000
    C193     C        0.21750    0.21948    0.93670    1.000
    C194     C        0.26170    0.50044    0.28054    1.000
    C195     C        0.71460    0.81911    0.27020    1.000
    C196     C        0.17090    0.18760    0.03935    1.000
    C197     C        0.20640    0.53254    0.23477    1.000
    C198     C        0.86690    0.75130    0.82170    1.000
    C199     C        0.30370    0.14360    0.87440    1.000
    C200     C        0.27610    0.19740    0.09156    1.000
    C201     C        0.31060    0.41953    0.71345    1.000
    C202     C        0.78540    0.68089    0.77020    1.000
    C203     C        0.44770    0.97225    0.77692    1.000
    C204     C        0.32220    0.52812    0.28269    1.000
    C205     C        0.43870    0.49999    0.74616    1.000
    C206     C        0.19800    0.45432    0.20098    1.000
    C207     C        0.11700    0.91241    0.76488    1.000
    C208     C        0.20430    0.99731    0.24281    1.000
    C209     C        0.29760    0.12137    0.61760    1.000
    C210     C        0.35700    0.39781    0.66210    1.000
    C211     C        0.06130    0.49999    0.25384    1.000
    C212     C        0.28670    0.35235    0.91160    1.000
    C213     C        0.29570    0.99731    0.75719    1.000
    C214     C        0.72460    0.78987    0.77361    1.000
    C215     C        0.26170    0.99956    0.21946    1.000
    C216     C        0.63310    0.74870    0.32170    1.000
    C217     C        0.82570    0.84927    0.24546    1.000
    C218     C        0.20240    0.37863    0.11760    1.000
    C219     C        0.20240    0.12137    0.38240    1.000
    C220     C        0.19630    0.14360    0.12560    1.000
    N1       N        0.35590    0.24250    0.49070    1.000
    N2       N        0.14410    0.25750    0.99070    1.000
    N3       N        0.26900    0.30053    0.96284    1.000
    N4       N        0.71820    0.71016    0.25046    1.000
    N5       N        0.71820    0.78984    0.24954    1.000
    N6       N        0.14410    0.24250    0.50930    1.000
    N7       N        0.27010    0.28539    0.53718    1.000
    N8       N        0.22990    0.28539    0.46282    1.000
    N9       N        0.78180    0.71016    0.74954    1.000
    N10      N        0.78180    0.78984    0.75046    1.000
    N11      N        0.55350    0.79017    0.24926    1.000
    N12      N        0.94650    0.79017    0.75074    1.000
    N13      N        0.27010    0.21461    0.96282    1.000
    N14      N        0.35590    0.25750    0.00930    1.000
    N15      N        0.87130    0.75200    0.70220    1.000
    N16      N        0.22990    0.21461    0.03718    1.000
    N17      N        0.26900    0.19947    0.53716    1.000
    N18      N        0.94650    0.70983    0.74926    1.000
    N19      N        0.62870    0.75200    0.29780    1.000
    N20      N        0.55350    0.70983    0.25074    1.000
    N21      N        0.23100    0.19947    0.46284    1.000
    N22      N        0.23100    0.30053    0.03716    1.000
    N23      N        0.87130    0.74800    0.79780    1.000
    N24      N        0.62870    0.74800    0.20220    1.000
    Fe5      Fe       0.75000    0.74209    0.00000    1.000
    Fe6      Fe       0.36531    0.25000    0.75000    1.000
    Fe7      Fe       0.75000    0.75791    0.50000    1.000
    Fe8      Fe       0.13469    0.25000    0.25000    1.000
    B5       B        0.11130    0.25040    0.36139    1.000
    B6       B        0.38870    0.25040    0.63861    1.000
    B7       B        0.38870    0.24960    0.86139    1.000
    B8       B        0.11130    0.24960    0.13861    1.000
    H173     H        0.73300    0.87670    0.18700    1.000
    H174     H        0.73680    0.89890    0.38160    1.000
    H175     H        0.82200    0.73750    0.43820    1.000
    H176     H        0.09900    0.31970    0.28690    1.000
    H177     H        0.54790    0.57520    0.35500    1.000
    H178     H        0.82200    0.76250    0.06180    1.000
    H179     H        0.68430    0.87420    0.56930    1.000
    H180     H        0.58760    0.47130    0.29460    1.000
    H181     H        0.15660    0.25890    0.37710    1.000
    H182     H        0.89350    0.62240    0.61290    1.000
    H183     H        0.76660    0.07910    0.27870    1.000
    H184     H        0.99460    0.98100    0.71280    1.000
    H185     H        0.76700    0.62330    0.68700    1.000
    H186     H        0.83050    0.67130    0.02950    1.000
    H187     H        0.10460    0.22330    0.37050    1.000
    H188     H        0.36950    0.31720    0.29500    1.000
    H189     H        0.17530    0.31930    0.21370    1.000
    H190     H        0.73840    0.51950    0.70460    1.000
    H191     H        0.89510    0.31800    0.21180    1.000
    H192     H        0.26190    0.36950    0.21630    1.000
    H193     H        0.66950    0.82870    0.52950    1.000
    H194     H        0.61490    0.85760    0.35930    1.000
    H195     H        0.60490    0.18200    0.71180    1.000
    H196     H        0.57710    0.41630    0.71970    1.000
    H197     H        0.88920    0.67630    0.90180    1.000
    H198     H        0.26190    0.13050    0.28370    1.000
    H199     H        0.07630    0.12330    0.77690    1.000
    H200     H        0.60650    0.62240    0.38710    1.000
    H201     H        0.75780    0.93530    0.65830    1.000
    H202     H        0.84380    0.37730    0.23240    1.000
    H203     H        0.73840    0.98050    0.79540    1.000
    H204     H        0.86160    0.47400    0.29870    1.000
    H205     H        0.66790    0.03430    0.28160    1.000
    H206     H        0.50810    0.22980    0.71580    1.000
    H207     H        0.43530    0.23730    0.87410    1.000
    H208     H        0.87500    0.85250    0.93090    1.000
    H209     H        0.34340    0.41690    0.23020    1.000
    H210     H        0.06470    0.26270    0.37410    1.000
    H211     H        0.63570    0.68440    0.47810    1.000
    H212     H        0.72530    0.58270    0.26920    1.000
    H213     H        0.53570    0.96560    0.19050    1.000
    H214     H        0.42370    0.37670    0.27690    1.000
    H215     H        0.83210    0.03430    0.71840    1.000
    H216     H        0.09090    0.47400    0.79140    1.000
    H217     H        0.73680    0.60110    0.11840    1.000
    H218     H        0.81130    0.79940    0.10900    1.000
    H219     H        0.92290    0.08370    0.21970    1.000
    H220     H        0.91240    0.02870    0.79460    1.000
    H221     H        0.09900    0.18030    0.21310    1.000
    H222     H        0.95460    0.58280    0.76540    1.000
    H223     H        0.87130    0.71930    0.94630    1.000
    H224     H        0.55150    0.87990    0.31160    1.000
    H225     H        0.48630    0.42730    0.29240    1.000
    H226     H        0.54540    0.58280    0.23460    1.000
    H227     H        0.76810    0.85540    0.85690    1.000
    H228     H        0.63840    0.02600    0.79870    1.000
    H229     H        0.89350    0.87760    0.88710    1.000
    H230     H        0.95210    0.57520    0.64500    1.000
    H231     H        0.32470    0.31930    0.78630    1.000
    H232     H        0.77470    0.91730    0.76920    1.000
    H233     H        0.06470    0.23730    0.12590    1.000
    H234     H        0.73190    0.85540    0.14310    1.000
    H235     H        0.83210    0.46570    0.78160    1.000
    H236     H        0.54540    0.91720    0.26540    1.000
    H237     H        0.50540    0.98100    0.28720    1.000
    H238     H        0.77470    0.58270    0.73080    1.000
    H239     H        0.61080    0.82370    0.40180    1.000
    H240     H        0.76320    0.89890    0.61840    1.000
    H241     H        0.81570    0.62580    0.06930    1.000
    H242     H        0.40910    0.02600    0.29140    1.000
    H243     H        0.48630    0.07270    0.20760    1.000
    H244     H        0.99460    0.51900    0.78720    1.000
    H245     H        0.76810    0.64460    0.64310    1.000
    H246     H        0.72530    0.91730    0.23080    1.000
    H247     H        0.50540    0.51900    0.21280    1.000
    H248     H        0.61080    0.67630    0.09820    1.000
    H249     H        0.01370    0.42730    0.70760    1.000
    H250     H        0.62500    0.85250    0.06910    1.000
    H251     H        0.42370    0.12330    0.22310    1.000
    H252     H        0.95460    0.91720    0.73460    1.000
    H253     H        0.61490    0.64240    0.14070    1.000
    H254     H        0.88510    0.85760    0.64070    1.000
    H255     H        0.81570    0.87420    0.43070    1.000
    H256     H        0.81130    0.70060    0.39100    1.000
    H257     H        0.39540    0.27670    0.87050    1.000
    H258     H        0.87130    0.78070    0.55370    1.000
    H259     H        0.15660    0.08310    0.73020    1.000
    H260     H        0.86430    0.81560    0.97810    1.000
    H261     H        0.27770    0.23070    0.21220    1.000
    H262     H        0.73300    0.62330    0.31300    1.000
    H263     H        0.74220    0.93530    0.34170    1.000
    H264     H        0.53570    0.53440    0.30950    1.000
    H265     H        0.68870    0.70060    0.60900    1.000
    H266     H        0.88920    0.82370    0.59820    1.000
    H267     H        0.84380    0.12270    0.26760    1.000
    H268     H        0.76430    0.52700    0.79590    1.000
    H269     H        0.15660    0.24110    0.12290    1.000
    H270     H        0.57710    0.08370    0.78030    1.000
    H271     H        0.73340    0.07910    0.72130    1.000
    H272     H        0.15660    0.41690    0.76980    1.000
    H273     H        0.62500    0.64750    0.43090    1.000
    H274     H        0.62870    0.71930    0.05370    1.000
    H275     H        0.65620    0.12270    0.73240    1.000
    H276     H        0.96430    0.96560    0.80950    1.000
    H277     H        0.92290    0.41630    0.28030    1.000
    H278     H        0.89510    0.18200    0.28820    1.000
    H279     H        0.76160    0.98050    0.20460    1.000
    H280     H        0.50810    0.27020    0.78420    1.000
    H281     H        0.67800    0.76250    0.93820    1.000
    H282     H        0.10460    0.27670    0.12950    1.000
    H283     H        0.49000    0.13100    0.78780    1.000
    H284     H        0.68870    0.79940    0.89100    1.000
    H285     H        0.76700    0.87670    0.81300    1.000
    H286     H        0.40910    0.47400    0.20860    1.000
    H287     H        0.13050    0.18280    0.79500    1.000
    H288     H        0.40100    0.18030    0.78690    1.000
    H289     H        0.91240    0.47130    0.70540    1.000
    H290     H        0.73340    0.42090    0.77870    1.000
    H291     H        0.49000    0.36900    0.71220    1.000
    H292     H        0.36950    0.18280    0.20500    1.000
    H293     H        0.32470    0.18070    0.71370    1.000
    H294     H        0.94850    0.87990    0.68840    1.000
    H295     H        0.73190    0.64460    0.35690    1.000
    H296     H        0.60490    0.31800    0.78820    1.000
    H297     H        0.86160    0.02600    0.20130    1.000
    H298     H        0.99190    0.27020    0.21580    1.000
    H299     H        0.65620    0.37730    0.76760    1.000
    H300     H        0.95210    0.92480    0.85500    1.000
    H301     H        0.01000    0.13100    0.21220    1.000
    H302     H        0.66790    0.46570    0.21840    1.000
    H303     H        0.13050    0.31720    0.70500    1.000
    H304     H        0.67800    0.73750    0.56180    1.000
    H305     H        0.87500    0.64750    0.56910    1.000
    H306     H        0.76430    0.97300    0.70410    1.000
    H307     H        0.09090    0.02600    0.70860    1.000
    H308     H        0.96430    0.53440    0.69050    1.000
    H309     H        0.75780    0.56470    0.84170    1.000
    H310     H        0.88510    0.64240    0.85930    1.000
    H311     H        0.73570    0.52700    0.20410    1.000
    H312     H        0.23810    0.13050    0.71630    1.000
    H313     H        0.55150    0.62010    0.18840    1.000
    H314     H        0.62870    0.78070    0.44630    1.000
    H315     H        0.94850    0.62010    0.81160    1.000
    H316     H        0.74220    0.56470    0.15830    1.000
    H317     H        0.63840    0.47400    0.70130    1.000
    H318     H        0.86430    0.68440    0.52190    1.000
    H319     H        0.63570    0.81560    0.02190    1.000
    H320     H        0.34340    0.25890    0.62290    1.000
    H321     H        0.54790    0.92480    0.14500    1.000
    H322     H        0.40100    0.31970    0.71310    1.000
    H323     H        0.68430    0.62580    0.93070    1.000
    H324     H        0.07630    0.37670    0.72310    1.000
    H325     H        0.17530    0.18070    0.28630    1.000
    H326     H        0.34340    0.08310    0.26980    1.000
    H327     H        0.01370    0.07270    0.79240    1.000
    H328     H        0.76660    0.42090    0.22130    1.000
    H329     H        0.83050    0.82870    0.47050    1.000
    H330     H        0.66950    0.67130    0.97050    1.000
    H331     H        0.58760    0.02870    0.20540    1.000
    H332     H        0.34340    0.24110    0.87710    1.000
    H333     H        0.23810    0.36950    0.78370    1.000
    H334     H        0.27770    0.26930    0.28780    1.000
    H335     H        0.99190    0.22980    0.28420    1.000
    H336     H        0.73570    0.97300    0.29590    1.000
    H337     H        0.76160    0.51950    0.29540    1.000
    H338     H        0.22230    0.23070    0.78780    1.000
    H339     H        0.39540    0.22330    0.62950    1.000
    H340     H        0.43530    0.26270    0.62590    1.000
    H341     H        0.76320    0.60110    0.88160    1.000
    H342     H        0.60650    0.87760    0.11290    1.000
    H343     H        0.22230    0.26930    0.71220    1.000
    H344     H        0.01000    0.36900    0.28780    1.000
    C221     C        0.80200    0.54568    0.79902    1.000
    C222     C        0.36690    0.24870    0.82170    1.000
    C223     C        0.55620    0.14991    0.75049    1.000
    C224     C        0.86760    0.52537    0.74461    1.000
    C225     C        0.61580    0.38081    0.75226    1.000
    C226     C        0.91510    0.92123    0.71905    1.000
    C227     C        0.76170    0.49956    0.28054    1.000
    C228     C        0.05450    0.47278    0.77418    1.000
    C229     C        0.85430    0.62477    0.62900    1.000
    C230     C        0.86760    0.97463    0.75539    1.000
    C231     C        0.71430    0.82820    0.54290    1.000
    C232     C        0.67780    0.02812    0.78269    1.000
    C233     C        0.58380    0.92359    0.16245    1.000
    C234     C        0.68940    0.91953    0.21345    1.000
    C235     C        0.85090    0.90225    0.66894    1.000
    C236     C        0.56430    0.31919    0.77272    1.000
    C237     C        0.78670    0.64765    0.91160    1.000
    C238     C        0.93570    0.18081    0.27272    1.000
    C239     C        0.27540    0.21013    0.22639    1.000
    C240     C        0.13310    0.25130    0.32170    1.000
    C241     C        0.71710    0.67040    0.40627    1.000
    C242     C        0.82910    0.81240    0.96065    1.000
    C243     C        0.63790    0.94987    0.27624    1.000
    C244     C        0.16840    0.18192    0.77830    1.000
    C245     C        0.91040    0.60163    0.80843    1.000
    C246     C        0.78250    0.78052    0.06330    1.000
    C247     C        0.64300    0.89781    0.16210    1.000
    C248     C        0.79360    0.03254    0.73477    1.000
    C249     C        0.83360    0.70090    0.94250    1.000
    C250     C        0.58490    0.92123    0.28095    1.000
    C251     C        0.72390    0.69740    0.59156    1.000
    C252     C        0.93570    0.31919    0.22728    1.000
    C253     C        0.55230    0.47225    0.27692    1.000
    C254     C        0.71750    0.71948    0.56330    1.000
    C255     C        0.80370    0.64360    0.62560    1.000
    C256     C        0.77610    0.80260    0.09156    1.000
    C257     C        0.57730    0.55141    0.31028    1.000
    C258     C        0.00400    0.34968    0.27249    1.000
    C259     C        0.72120    0.85510    0.56710    1.000
    C260     C        0.92270    0.94859    0.81028    1.000
    C261     C        0.73460    0.44037    0.76333    1.000
    C262     C        0.56130    0.99999    0.24616    1.000
    C263     C        0.11570    0.08684    0.74516    1.000
    C264     C        0.99600    0.00006    0.72852    1.000
    C265     C        0.94770    0.47225    0.72308    1.000
    C266     C        0.88300    0.41241    0.26488    1.000
    C267     C        0.50430    0.20955    0.73022    1.000
    C268     C        0.69800    0.95432    0.29902    1.000
    C269     C        0.70240    0.87863    0.38240    1.000
    C270     C        0.58750    0.74500    0.98650    1.000
    C271     C        0.69410    0.89512    0.18726    1.000
    C272     C        0.66450    0.83447    0.06760    1.000
    C273     C        0.82220    0.47188    0.28269    1.000
    C274     C        0.05870    0.05604    0.74871    1.000
    C275     C        0.22460    0.21013    0.77361    1.000
    C276     C        0.38430    0.08684    0.25484    1.000
    C277     C        0.21460    0.18089    0.27020    1.000
    C278     C        0.81060    0.58047    0.71345    1.000
    C279     C        0.64570    0.87523    0.12900    1.000
    C280     C        0.33160    0.31808    0.27830    1.000
    C281     C        0.86820    0.55214    0.71493    1.000
    C282     C        0.49180    0.05526    0.22460    1.000
    C283     C        0.71430    0.67180    0.95710    1.000
    C284     C        0.58750    0.75500    0.51350    1.000
    C285     C        0.22460    0.28987    0.72639    1.000
    C286     C        0.92270    0.55141    0.68972    1.000
    C287     C        0.28540    0.31911    0.77020    1.000
    C288     C        0.13310    0.24870    0.17830    1.000
    C289     C        0.88420    0.11919    0.25226    1.000
    C290     C        0.69630    0.64360    0.37440    1.000
    C291     C        0.44550    0.02722    0.27418    1.000
    C292     C        0.78290    0.67040    0.59373    1.000
    C293     C        0.44240    0.18061    0.77170    1.000
    C294     C        0.23310    0.34960    0.76898    1.000
    C295     C        0.49180    0.44474    0.27540    1.000
    C296     C        0.69410    0.60488    0.31274    1.000
    C297     C        0.76170    0.00044    0.21946    1.000
    C298     C        0.67090    0.68760    0.46065    1.000
    C299     C        0.11570    0.41316    0.75484    1.000
    C300     C        0.70640    0.46746    0.23477    1.000
    C301     C        0.50400    0.49994    0.22852    1.000
    C302     C        0.70240    0.62137    0.11760    1.000
    C303     C        0.38500    0.38067    0.26096    1.000
    C304     C        0.70250    0.93136    0.32613    1.000
    C305     C        0.63790    0.55013    0.22376    1.000
    C306     C        0.78250    0.71948    0.43670    1.000
    C307     C        0.16840    0.31808    0.72170    1.000
    C308     C        0.94380    0.14991    0.24951    1.000
    C309     C        0.91620    0.92359    0.83755    1.000
    C310     C        0.85700    0.89781    0.83790    1.000
    C311     C        0.83360    0.79910    0.55750    1.000
    C312     C        0.69800    0.54568    0.20098    1.000
    C313     C        0.64910    0.59775    0.16894    1.000
    C314     C        0.44240    0.31939    0.72830    1.000
    C315     C        0.78670    0.85235    0.58840    1.000
    C316     C        0.63240    0.97463    0.24461    1.000
    C317     C        0.64570    0.62477    0.37100    1.000
    C318     C        0.71330    0.64765    0.08840    1.000
    C319     C        0.05760    0.31939    0.27170    1.000
    C320     C        0.94770    0.02775    0.77692    1.000
    C321     C        0.91620    0.57641    0.66245    1.000
    C322     C        0.00820    0.44474    0.72460    1.000
    C323     C        0.71750    0.78052    0.93670    1.000
    C324     C        0.49600    0.34968    0.72751    1.000
    C325     C        0.70430    0.49731    0.25719    1.000
    C326     C        0.56130    0.50001    0.25384    1.000
    C327     C        0.99570    0.20955    0.26978    1.000
    C328     C        0.72120    0.64490    0.93290    1.000
    C329     C        0.79570    0.49731    0.74281    1.000
    C330     C        0.58490    0.57877    0.21905    1.000
    C331     C        0.21460    0.31911    0.22980    1.000
    C332     C        0.81060    0.91953    0.78655    1.000
    C333     C        0.86210    0.94987    0.72376    1.000
    C334     C        0.67090    0.81240    0.03935    1.000
    C335     C        0.58960    0.60163    0.19157    1.000
    C336     C        0.55620    0.35009    0.74951    1.000
    C337     C        0.67780    0.47188    0.71731    1.000
    C338     C        0.99600    0.49994    0.77148    1.000
    C339     C        0.94380    0.35009    0.25049    1.000
    C340     C        0.82220    0.02812    0.21731    1.000
    C341     C        0.73830    0.00044    0.78054    1.000
    C342     C        0.91250    0.74500    0.01350    1.000
    C343     C        0.27540    0.28987    0.27361    1.000
    C344     C        0.65460    0.82500    0.41560    1.000
    C345     C        0.23310    0.15040    0.73102    1.000
    C346     C        0.26690    0.15040    0.26898    1.000
    C347     C        0.73830    0.49956    0.71946    1.000
    C348     C        0.26690    0.34960    0.23102    1.000
    C349     C        0.77610    0.69740    0.40844    1.000
    C350     C        0.63180    0.55214    0.28507    1.000
    C351     C        0.63180    0.94786    0.21493    1.000
    C352     C        0.84540    0.82500    0.58440    1.000
    C353     C        0.56430    0.18081    0.72728    1.000
    C354     C        0.84540    0.67500    0.91560    1.000
    C355     C        0.66640    0.79910    0.44250    1.000
    C356     C        0.73460    0.05963    0.73667    1.000
    C357     C        0.57730    0.94859    0.18972    1.000
    C358     C        0.79760    0.62137    0.88240    1.000
    C359     C        0.79360    0.46746    0.76523    1.000
    C360     C        0.76540    0.05963    0.26333    1.000
    C361     C        0.32570    0.34927    0.25454    1.000
    C362     C        0.68940    0.58047    0.28655    1.000
    C363     C        0.70430    0.00269    0.24281    1.000
    C364     C        0.78570    0.82820    0.45710    1.000
    C365     C        0.78290    0.82960    0.90627    1.000
    C366     C        0.88300    0.08759    0.23512    1.000
    C367     C        0.05450    0.02722    0.72582    1.000
    C368     C        0.84800    0.87677    0.64137    1.000
    C369     C        0.11500    0.11933    0.76096    1.000
    C370     C        0.80590    0.89512    0.81274    1.000
    C371     C        0.85090    0.59775    0.83106    1.000
    C372     C        0.71710    0.82960    0.09373    1.000
    C373     C        0.32570    0.15073    0.24546    1.000
    C374     C        0.83550    0.66553    0.56760    1.000
    C375     C        0.72390    0.80260    0.90844    1.000
    C376     C        0.38500    0.11933    0.23904    1.000
    C377     C        0.65200    0.62323    0.14137    1.000
    C378     C        0.61580    0.11919    0.74774    1.000
    C379     C        0.44130    0.05604    0.25129    1.000
    C380     C        0.66450    0.66553    0.43240    1.000
    C381     C        0.36690    0.25130    0.67830    1.000
    C382     C        0.93870    0.50001    0.74616    1.000
    C383     C        0.99570    0.29045    0.23022    1.000
    C384     C        0.38430    0.41316    0.24516    1.000
    C385     C        0.67770    0.05779    0.76117    1.000
    C386     C        0.82910    0.68760    0.53935    1.000
    C387     C        0.00400    0.15032    0.22751    1.000
    C388     C        0.80200    0.95432    0.70098    1.000
    C389     C        0.86210    0.55013    0.77624    1.000
    C390     C        0.58960    0.89837    0.30843    1.000
    C391     C        0.80590    0.60488    0.68726    1.000
    C392     C        0.91250    0.75500    0.48650    1.000
    C393     C        0.82230    0.44221    0.26117    1.000
    C394     C        0.85430    0.87523    0.87100    1.000
    C395     C        0.65200    0.87677    0.35863    1.000
    C396     C        0.70640    0.03254    0.26523    1.000
    C397     C        0.49600    0.15032    0.77249    1.000
    C398     C        0.91040    0.89837    0.69157    1.000
    C399     C        0.05870    0.44396    0.75129    1.000
    C400     C        0.64910    0.90225    0.33106    1.000
    C401     C        0.84800    0.62323    0.85863    1.000
    C402     C        0.86820    0.94786    0.78507    1.000
    C403     C        0.17430    0.15073    0.75454    1.000
    C404     C        0.77880    0.64490    0.06710    1.000
    C405     C        0.00820    0.05526    0.77540    1.000
    C406     C        0.44130    0.44396    0.24871    1.000
    C407     C        0.85700    0.60219    0.66210    1.000
    C408     C        0.05760    0.18061    0.22830    1.000
    C409     C        0.65460    0.67500    0.08440    1.000
    C410     C        0.71330    0.85235    0.41160    1.000
    C411     C        0.50400    0.00006    0.27148    1.000
    C412     C        0.91510    0.57877    0.78095    1.000
    C413     C        0.67770    0.44221    0.73883    1.000
    C414     C        0.79570    0.00269    0.75719    1.000
    C415     C        0.79750    0.93136    0.67387    1.000
    C416     C        0.55230    0.02775    0.22308    1.000
    C417     C        0.70250    0.56864    0.17387    1.000
    C418     C        0.82230    0.05779    0.23883    1.000
    C419     C        0.93870    0.99999    0.75384    1.000
    C420     C        0.50430    0.29045    0.76978    1.000
    C421     C        0.11500    0.38067    0.73904    1.000
    C422     C        0.66640    0.70090    0.05750    1.000
    C423     C        0.63240    0.52537    0.25539    1.000
    C424     C        0.64300    0.60219    0.33790    1.000
    C425     C        0.33160    0.18192    0.22170    1.000
    C426     C        0.79750    0.56864    0.82613    1.000
    C427     C        0.61700    0.08759    0.76488    1.000
    C428     C        0.77880    0.85510    0.43290    1.000
    C429     C        0.83550    0.83447    0.93240    1.000
    C430     C        0.69630    0.85640    0.12560    1.000
    C431     C        0.80370    0.85640    0.87440    1.000
    C432     C        0.61700    0.41241    0.73512    1.000
    C433     C        0.88420    0.38081    0.24774    1.000
    C434     C        0.78570    0.67180    0.04290    1.000
    C435     C        0.17430    0.34927    0.74546    1.000
    C436     C        0.28540    0.18089    0.72980    1.000
    C437     C        0.44550    0.47278    0.22582    1.000
    C438     C        0.79760    0.87863    0.61760    1.000
    C439     C        0.76540    0.44037    0.23667    1.000
    C440     C        0.58380    0.57641    0.33755    1.000
    N25      N        0.12870    0.24800    0.29780    1.000
    N26      N        0.85590    0.75750    0.49070    1.000
    N27      N        0.64410    0.75750    0.50930    1.000
    N28      N        0.28180    0.28984    0.74954    1.000
    N29      N        0.44650    0.20983    0.75074    1.000
    N30      N        0.77010    0.71461    0.53718    1.000
    N31      N        0.12870    0.25200    0.20220    1.000
    N32      N        0.76900    0.80053    0.53716    1.000
    N33      N        0.21820    0.28984    0.25046    1.000
    N34      N        0.44650    0.29017    0.74926    1.000
    N35      N        0.85590    0.74250    0.00930    1.000
    N36      N        0.73100    0.69947    0.03716    1.000
    N37      N        0.05350    0.29017    0.25074    1.000
    N38      N        0.37130    0.24800    0.70220    1.000
    N39      N        0.73100    0.80053    0.46284    1.000
    N40      N        0.05350    0.20983    0.24926    1.000
    N41      N        0.72990    0.78539    0.03718    1.000
    N42      N        0.28180    0.21016    0.75046    1.000
    N43      N        0.64410    0.74250    0.99070    1.000
    N44      N        0.72990    0.71461    0.46282    1.000
    N45      N        0.76900    0.69947    0.96284    1.000
    N46      N        0.77010    0.78539    0.96282    1.000
    N47      N        0.37130    0.25200    0.79780    1.000
    N48      N        0.21820    0.21016    0.24954    1.000
