data_functionalizedCrystal
_audit_creation_method	'EQeq! by Chris Wilmer'
_symmetry_space_group_name_H-M	'P1'
_symmetry_Int_Tables_number	1
_symmetry_cell_setting	triclinic
loop_
_symmetry_equiv_pos_as_xyz
  x,y,z
_cell_length_a	25.9146
_cell_length_b	22.8097
_cell_length_c	19.7065
_cell_angle_alpha	90
_cell_angle_beta	90
_cell_angle_gamma	90
loop_
_atom_site_label
_atom_site_type_symbol
_atom_site_fract_x
_atom_site_fract_y
_atom_site_fract_z
_atom_site_charge
Mof_C 	C 	0.22135	0.20638	0.20841	0.06
Mof_C 	C 	0.17837	0.22751	0.17187	-0.079
Mof_C 	C 	0.14613	0.18989	0.13595	0.047
Mof_C 	C 	0.15619	0.12958	0.13274	-0.108
Mof_C 	C 	0.201	0.10796	0.16415	0.055
Mof_C 	C 	0.2335	0.14603	0.20133	-0.079
Mof_C 	C 	0.25463	0.25181	0.24825	-0.08
Mof_C 	C 	0.279	0.2887	0.19151	0.068
Mof_C 	C 	0.29648	0.2252	0.29507	0.065
Mof_C 	C 	0.22178	0.28953	0.29698	0.064
Mof_C 	C 	0.2633	0.34659	0.17605	-0.092
Mof_C 	C 	0.29482	0.38255	0.13678	0.059
Mof_C 	C 	0.34071	0.35997	0.11047	-0.132
Mof_C 	C 	0.35045	0.29965	0.11375	0.066
Mof_C 	C 	0.31884	0.26385	0.15248	-0.088
Mof_C 	C 	0.34748	0.24812	0.29951	-0.085
Mof_C 	C 	0.38501	0.2212	0.34014	0.053
Mof_C 	C 	0.3716	0.17305	0.38	-0.119
Mof_C 	C 	0.31951	0.1559	0.38359	0.062
Mof_C 	C 	0.28249	0.18174	0.34205	-0.084
Mof_C 	C 	0.17257	0.27128	0.31797	-0.088
Mof_C 	C 	0.14063	0.30923	0.35325	0.052
Mof_C 	C 	0.15719	0.36604	0.37039	-0.132
Mof_C 	C 	0.20879	0.38133	0.35959	0.053
Mof_C 	C 	0.24131	0.34253	0.32467	-0.088
Mof_H 	H 	0.16877	0.2737	0.17279	0.062
Mof_H 	H 	0.11243	0.2081	0.11112	0.048
Mof_H 	H 	0.20999	0.06164	0.16172	0.068
Mof_H 	H 	0.2679	0.12792	0.22414	0.075
Mof_H 	H 	0.22863	0.36547	0.1973	0.062
Mof_H 	H 	0.28545	0.42862	0.13149	0.039
Mof_H 	H 	0.38451	0.28098	0.09026	0.053
Mof_H 	H 	0.32899	0.21804	0.15815	0.072
Mof_H 	H 	0.35922	0.28608	0.27057	0.065
Mof_H 	H 	0.42473	0.23578	0.33738	0.039
Mof_H 	H 	0.30804	0.11945	0.4155	0.053
Mof_H 	H 	0.24308	0.16613	0.34471	0.066
Mof_H 	H 	0.15766	0.22834	0.30542	0.066
Mof_H 	H 	0.102	0.29444	0.36537	0.05
Mof_H 	H 	0.22317	0.42385	0.37508	0.04
Mof_H 	H 	0.2807	0.35582	0.31475	0.06
Mof_C 	C 	0.72007	0.70475	0.19274	0.068
Mof_C 	C 	0.68092	0.72734	0.15075	-0.09
Mof_C 	C 	0.64886	0.68942	0.11566	0.061
Mof_C 	C 	0.65751	0.62893	0.11874	-0.14
Mof_C 	C 	0.70265	0.60726	0.14807	0.064
Mof_C 	C 	0.73466	0.64544	0.18386	-0.094
Mof_C 	C 	0.74354	0.74545	0.24662	-0.08
Mof_C 	C 	0.77553	0.79007	0.20369	0.062
Mof_C 	C 	0.77766	0.71188	0.29789	0.064
Mof_C 	C 	0.70056	0.77272	0.29126	0.065
Mof_C 	C 	0.76301	0.85015	0.19506	-0.092
Mof_C 	C 	0.79515	0.88767	0.15667	0.047
Mof_C 	C 	0.83996	0.8658	0.12545	-0.125
Mof_C 	C 	0.85017	0.80556	0.12977	0.058
Mof_C 	C 	0.81828	0.76843	0.16702	-0.085
Mof_C 	C 	0.827	0.73218	0.31594	-0.09
Mof_C 	C 	0.85994	0.69719	0.35378	0.055
Mof_C 	C 	0.84431	0.64144	0.37625	-0.127
Mof_C 	C 	0.79266	0.62491	0.36821	0.049
Mof_C 	C 	0.75916	0.66083	0.33097	-0.088
Mof_C 	C 	0.64975	0.74901	0.29555	-0.091
Mof_C 	C 	0.61126	0.77648	0.3341	0.058
Mof_C 	C 	0.62351	0.826	0.37221	-0.137
Mof_C 	C 	0.67525	0.84442	0.37595	0.056
Mof_C 	C 	0.7132	0.81807	0.3364	-0.092
Mof_H 	H 	0.67142	0.77358	0.15166	0.061
Mof_H 	H 	0.61543	0.70695	0.08958	0.032
Mof_H 	H 	0.71119	0.56078	0.14724	0.038
Mof_H 	H 	0.76884	0.62748	0.20738	0.063
Mof_H 	H 	0.72876	0.8686	0.21786	0.053
Mof_H 	H 	0.78608	0.93394	0.15356	0.013
Mof_H 	H 	0.88393	0.78714	0.10529	0.047
Mof_H 	H 	0.82818	0.72235	0.16935	0.065
Mof_H 	H 	0.84127	0.77431	0.29921	0.061
Mof_H 	H 	0.89865	0.71316	0.3632	0.054
Mof_H 	H 	0.77895	0.58329	0.38754	0.041
Mof_H 	H 	0.71978	0.64637	0.32336	0.059
Mof_H 	H 	0.63889	0.70979	0.26837	0.065
Mof_H 	H 	0.57184	0.76088	0.33147	0.038
Mof_H 	H 	0.68581	0.8819	0.40678	0.019
Mof_H 	H 	0.75233	0.83458	0.33923	0.053
Mof_C 	C 	0.70327	0.22654	0.69687	0.065
Mof_C 	C 	0.65247	0.24982	0.69078	-0.085
Mof_C 	C 	0.61507	0.22217	0.65065	0.051
Mof_C 	C 	0.62841	0.17275	0.61294	-0.119
Mof_C 	C 	0.6804	0.15493	0.61086	0.061
Mof_C 	C 	0.71727	0.18153	0.65193	-0.084
Mof_C 	C 	0.745	0.25426	0.74304	-0.08
Mof_C 	C 	0.77897	0.2893	0.69306	0.065
Mof_C 	C 	0.77715	0.20998	0.78614	0.061
Mof_C 	C 	0.72017	0.29368	0.79705	0.068
Mof_C 	C 	0.76001	0.34066	0.66104	-0.088
Mof_C 	C 	0.79312	0.37737	0.62427	0.05
Mof_C 	C 	0.84482	0.36138	0.61568	-0.128
Mof_C 	C 	0.86097	0.30554	0.63727	0.057
Mof_C 	C 	0.82845	0.26978	0.67473	-0.089
Mof_C 	C 	0.81931	0.23208	0.8236	-0.083
Mof_C 	C 	0.85061	0.19545	0.86232	0.05
Mof_C 	C 	0.84047	0.13521	0.86715	-0.113
Mof_C 	C 	0.79632	0.11287	0.83478	0.05
Mof_C 	C 	0.7647	0.14992	0.79507	-0.082
Mof_C 	C 	0.68052	0.26993	0.83729	-0.095
Mof_C 	C 	0.64842	0.30675	0.87379	0.06
Mof_C 	C 	0.65738	0.36723	0.87373	-0.15
Mof_C 	C 	0.70267	0.38971	0.8457	0.063
Mof_C 	C 	0.73476	0.35266	0.80852	-0.098
Mof_H 	H 	0.64075	0.28876	0.71793	0.064
Mof_H 	H 	0.57548	0.23733	0.65211	0.038
Mof_H 	H 	0.69189	0.11755	0.58043	0.057
Mof_H 	H 	0.75657	0.16545	0.65048	0.067
Mof_H 	H 	0.72052	0.35457	0.66894	0.059
Mof_H 	H 	0.77906	0.41909	0.60568	0.04
Mof_H 	H 	0.89977	0.29005	0.62742	0.058
Mof_H 	H 	0.84307	0.22762	0.69085	0.069
Mof_H 	H 	0.82906	0.2782	0.82111	0.06
Mof_H 	H 	0.88391	0.21423	0.88749	0.046
Mof_H 	H 	0.78738	0.06657	0.83805	0.058
Mof_H 	H 	0.73084	0.13118	0.77158	0.071
Mof_H 	H 	0.671	0.22375	0.83439	0.065
Mof_H 	H 	0.6148	0.28847	0.89873	0.028
Mof_H 	H 	0.71134	0.4361	0.84866	0.033
Mof_H 	H 	0.76914	0.37124	0.78618	0.06
Mof_C 	C 	0.22303	0.71056	0.69889	0.063
Mof_C 	C 	0.17398	0.72984	0.67831	-0.09
Mof_C 	C 	0.1416	0.69296	0.64219	0.049
Mof_C 	C 	0.15759	0.6363	0.62364	-0.133
Mof_C 	C 	0.20909	0.6202	0.63395	0.051
Mof_C 	C 	0.24203	0.65791	0.6698	-0.089
Mof_C 	C 	0.25616	0.74678	0.74889	-0.081
Mof_C 	C 	0.29906	0.77317	0.70348	0.065
Mof_C 	C 	0.27941	0.70863	0.80537	0.067
Mof_C 	C 	0.2231	0.79234	0.78885	0.061
Mof_C 	C 	0.28613	0.81681	0.65621	-0.092
Mof_C 	C 	0.32399	0.84254	0.61597	0.057
Mof_C 	C 	0.37593	0.82517	0.62113	-0.136
Mof_C 	C 	0.38854	0.7771	0.66151	0.057
Mof_C 	C 	0.35015	0.75018	0.70077	-0.091
Mof_C 	C 	0.31854	0.73269	0.84631	-0.095
Mof_C 	C 	0.34995	0.69603	0.88426	0.06
Mof_C 	C 	0.34059	0.63558	0.88491	-0.143
Mof_C 	C 	0.29514	0.61342	0.85688	0.057
Mof_C 	C 	0.26384	0.65025	0.81835	-0.097
Mof_C 	C 	0.17987	0.77135	0.82501	-0.089
Mof_C 	C 	0.14716	0.80917	0.85988	0.051
Mof_C 	C 	0.157	0.86954	0.86241	-0.138
Mof_C 	C 	0.20213	0.89102	0.83166	0.049
Mof_C 	C 	0.23508	0.85276	0.79548	-0.096
Mof_H 	H 	0.15947	0.77274	0.69179	0.058
Mof_H 	H 	0.10309	0.70843	0.63052	0.046
Mof_H 	H 	0.22305	0.57781	0.61738	0.041
Mof_H 	H 	0.28129	0.64394	0.67938	0.06
Mof_H 	H 	0.24683	0.83259	0.6523	0.053
Mof_H 	H 	0.31321	0.87896	0.58361	0.019
Mof_H 	H 	0.42817	0.76238	0.66542	0.037
Mof_H 	H 	0.36129	0.71208	0.72985	0.066
Mof_H 	H 	0.32855	0.77868	0.84246	0.056
Mof_H 	H 	0.38364	0.71423	0.90911	0.033
Mof_H 	H 	0.28602	0.56715	0.86024	0.032
Mof_H 	H 	0.22954	0.63172	0.79574	0.059
Mof_H 	H 	0.17032	0.72514	0.82427	0.059
Mof_H 	H 	0.11326	0.79106	0.88435	0.032
Mof_H 	H 	0.21099	0.93738	0.83372	0.013
Mof_H 	H 	0.26961	0.87082	0.77297	0.054
Mof_C 	C 	0.22152	0.20699	0.78513	0.061
Mof_C 	C 	0.2336	0.14661	0.79204	-0.084
Mof_C 	C 	0.2012	0.10858	0.82939	0.054
Mof_C 	C 	0.15657	0.13029	0.86117	-0.121
Mof_C 	C 	0.14662	0.19063	0.85818	0.047
Mof_C 	C 	0.17875	0.22819	0.82203	-0.084
Mof_C 	C 	0.25468	0.25237	0.74509	-0.08
Mof_C 	C 	0.27919	0.28927	0.8017	0.068
Mof_C 	C 	0.22171	0.29004	0.69648	0.064
Mof_C 	C 	0.29639	0.22568	0.69813	0.065
Mof_C 	C 	0.31893	0.26428	0.8408	-0.095
Mof_C 	C 	0.35045	0.29992	0.87984	0.062
Mof_C 	C 	0.34074	0.36024	0.88332	-0.143
Mof_C 	C 	0.29501	0.38299	0.85676	0.057
Mof_C 	C 	0.26357	0.34718	0.81719	-0.097
Mof_C 	C 	0.24121	0.34294	0.66852	-0.089
Mof_C 	C 	0.20867	0.38162	0.63347	0.052
Mof_C 	C 	0.15705	0.36631	0.62286	-0.133
Mof_C 	C 	0.14046	0.30961	0.6404	0.051
Mof_C 	C 	0.17243	0.27177	0.6758	-0.089
Mof_C 	C 	0.2822	0.18233	0.65112	-0.084
Mof_C 	C 	0.31908	0.15637	0.60949	0.061
Mof_C 	C 	0.37123	0.17328	0.61302	-0.12
Mof_C 	C 	0.38483	0.22136	0.65289	0.052
Mof_C 	C 	0.34745	0.24839	0.69364	-0.085
Mof_H 	H 	0.26787	0.12844	0.76895	0.072
Mof_H 	H 	0.21007	0.06223	0.83159	0.06
Mof_H 	H 	0.11305	0.20889	0.88327	0.034
Mof_H 	H 	0.16921	0.27441	0.8212	0.058
Mof_H 	H 	0.32903	0.21846	0.83506	0.065
Mof_H 	H 	0.38441	0.28114	0.90345	0.039
Mof_H 	H 	0.28569	0.42906	0.86213	0.033
Mof_H 	H 	0.22899	0.36618	0.79584	0.059
Mof_H 	H 	0.28063	0.35622	0.67826	0.06
Mof_H 	H 	0.22305	0.42406	0.6177	0.04
Mof_H 	H 	0.10181	0.29479	0.62846	0.051
Mof_H 	H 	0.1575	0.2289	0.6886	0.066
Mof_H 	H 	0.24274	0.16688	0.64854	0.066
Mof_H 	H 	0.30745	0.11998	0.57757	0.055
Mof_H 	H 	0.42461	0.23575	0.6556	0.038
Mof_H 	H 	0.35936	0.28626	0.72263	0.065
Mof_C 	C 	0.71998	0.70406	0.80051	0.068
Mof_C 	C 	0.73444	0.64471	0.80935	-0.098
Mof_C 	C 	0.70248	0.60669	0.84545	0.063
Mof_C 	C 	0.65753	0.62856	0.87507	-0.149
Mof_C 	C 	0.64901	0.68906	0.87806	0.059
Mof_C 	C 	0.681	0.72681	0.84266	-0.095
Mof_C 	C 	0.74351	0.74473	0.74668	-0.081
Mof_C 	C 	0.77561	0.78914	0.78972	0.061
Mof_C 	C 	0.70054	0.77215	0.70214	0.065
Mof_C 	C 	0.77757	0.71121	0.69531	0.064
Mof_C 	C 	0.8183	0.76727	0.82635	-0.088
Mof_C 	C 	0.8502	0.80415	0.8639	0.053
Mof_C 	C 	0.84011	0.86441	0.86849	-0.129
Mof_C 	C 	0.79539	0.8865	0.83722	0.044
Mof_C 	C 	0.76322	0.84922	0.79858	-0.094
Mof_C 	C 	0.71322	0.81752	0.65703	-0.092
Mof_C 	C 	0.6753	0.84388	0.61743	0.057
Mof_C 	C 	0.62353	0.82553	0.62115	-0.137
Mof_C 	C 	0.61124	0.77603	0.65928	0.057
Mof_C 	C 	0.6497	0.74852	0.69784	-0.091
Mof_C 	C 	0.75907	0.66018	0.66218	-0.088
Mof_C 	C 	0.79254	0.62443	0.62468	0.049
Mof_C 	C 	0.84413	0.64112	0.61643	-0.128
Mof_C 	C 	0.85972	0.69685	0.63898	0.055
Mof_C 	C 	0.82683	0.73167	0.67709	-0.09
Mof_H 	H 	0.76849	0.62661	0.78566	0.06
Mof_H 	H 	0.7109	0.56018	0.8463	0.033
Mof_H 	H 	0.61571	0.70673	0.90432	0.021
Mof_H 	H 	0.6716	0.77309	0.84174	0.056
Mof_H 	H 	0.82811	0.72116	0.82381	0.061
Mof_H 	H 	0.88387	0.78553	0.88837	0.045
Mof_H 	H 	0.78641	0.93279	0.84049	0.014
Mof_H 	H 	0.72905	0.86784	0.77576	0.054
Mof_H 	H 	0.75236	0.83398	0.65423	0.054
Mof_H 	H 	0.68592	0.88133	0.5866	0.02
Mof_H 	H 	0.5718	0.76048	0.66192	0.036
Mof_H 	H 	0.63879	0.70931	0.72503	0.065
Mof_H 	H 	0.71973	0.64565	0.66989	0.059
Mof_H 	H 	0.77886	0.58281	0.60531	0.04
Mof_H 	H 	0.89838	0.71293	0.62943	0.053
Mof_H 	H 	0.84107	0.77379	0.69389	0.061
Mof_C 	C 	0.70313	0.22611	0.29641	0.065
Mof_C 	C 	0.71695	0.18116	0.34152	-0.085
Mof_C 	C 	0.67993	0.15473	0.38252	0.061
Mof_C 	C 	0.628	0.17271	0.38023	-0.124
Mof_C 	C 	0.61483	0.22209	0.34237	0.053
Mof_C 	C 	0.65237	0.24957	0.30231	-0.086
Mof_C 	C 	0.74499	0.25358	0.25024	-0.079
Mof_C 	C 	0.77901	0.28862	0.30016	0.064
Mof_C 	C 	0.72032	0.29304	0.19612	0.069
Mof_C 	C 	0.77703	0.20904	0.20732	0.062
Mof_C 	C 	0.82858	0.26925	0.31833	-0.088
Mof_C 	C 	0.86115	0.30517	0.35552	0.057
Mof_C 	C 	0.84497	0.36102	0.37704	-0.127
Mof_C 	C 	0.79321	0.37686	0.36867	0.05
Mof_C 	C 	0.76006	0.34001	0.33215	-0.087
Mof_C 	C 	0.73499	0.35201	0.18473	-0.094
Mof_C 	C 	0.70283	0.38923	0.1479	0.064
Mof_C 	C 	0.65739	0.36693	0.12009	-0.139
Mof_C 	C 	0.64838	0.30645	0.11978	0.064
Mof_C 	C 	0.68057	0.26946	0.15592	-0.088
Mof_C 	C 	0.76446	0.14897	0.19866	-0.079
Mof_C 	C 	0.79604	0.11166	0.15919	0.053
Mof_C 	C 	0.84026	0.13377	0.12678	-0.108
Mof_C 	C 	0.85054	0.19399	0.13135	0.053
Mof_C 	C 	0.81926	0.23087	0.1698	-0.08
Mof_H 	H 	0.75621	0.16496	0.34313	0.066
Mof_H 	H 	0.69125	0.11735	0.41305	0.052
Mof_H 	H 	0.57527	0.23735	0.34075	0.038
Mof_H 	H 	0.64079	0.28852	0.27507	0.064
Mof_H 	H 	0.84322	0.22709	0.30226	0.067
Mof_H 	H 	0.90001	0.28979	0.36521	0.058
Mof_H 	H 	0.77912	0.41858	0.38724	0.04
Mof_H 	H 	0.72054	0.35385	0.32437	0.059
Mof_H 	H 	0.76946	0.37047	0.20699	0.062
Mof_H 	H 	0.71156	0.43562	0.14506	0.039
Mof_H 	H 	0.61466	0.28831	0.09494	0.04
Mof_H 	H 	0.67098	0.22329	0.15872	0.07
Mof_H 	H 	0.73054	0.13041	0.2222	0.071
Mof_H 	H 	0.78701	0.06538	0.1561	0.063
Mof_H 	H 	0.88392	0.21257	0.10615	0.048
Mof_H 	H 	0.82912	0.27697	0.17206	0.064
Mof_C 	C 	0.22311	0.71107	0.29458	0.063
Mof_C 	C 	0.24215	0.65834	0.32345	-0.089
Mof_C 	C 	0.20922	0.62048	0.35912	0.052
Mof_C 	C 	0.15772	0.63651	0.36949	-0.132
Mof_C 	C 	0.14172	0.69324	0.35128	0.049
Mof_C 	C 	0.17408	0.73028	0.31534	-0.089
Mof_C 	C 	0.25613	0.74735	0.24451	-0.08
Mof_C 	C 	0.29914	0.77368	0.28983	0.065
Mof_C 	C 	0.22298	0.79295	0.20468	0.062
Mof_C 	C 	0.27929	0.7092	0.18793	0.067
Mof_C 	C 	0.35016	0.7505	0.29255	-0.09
Mof_C 	C 	0.38866	0.77728	0.33178	0.058
Mof_C 	C 	0.3762	0.82538	0.37219	-0.135
Mof_C 	C 	0.32431	0.84297	0.37733	0.058
Mof_C 	C 	0.28636	0.81739	0.33708	-0.091
Mof_C 	C 	0.23497	0.85336	0.19795	-0.093
Mof_C 	C 	0.20194	0.89163	0.16186	0.049
Mof_C 	C 	0.1567	0.87018	0.13134	-0.128
Mof_C 	C 	0.14682	0.80983	0.13403	0.052
Mof_C 	C 	0.17962	0.77199	0.16876	-0.084
Mof_C 	C 	0.26363	0.65085	0.17494	-0.092
Mof_C 	C 	0.29498	0.61388	0.13667	0.059
Mof_C 	C 	0.34058	0.63588	0.10888	-0.132
Mof_C 	C 	0.35001	0.69633	0.1094	0.063
Mof_C 	C 	0.31853	0.73313	0.14708	-0.09
Mof_H 	H 	0.2814	0.6444	0.31376	0.06
Mof_H 	H 	0.2232	0.57802	0.37546	0.041
Mof_H 	H 	0.10321	0.70865	0.36304	0.046
Mof_H 	H 	0.15956	0.77322	0.30205	0.059
Mof_H 	H 	0.36118	0.71233	0.2635	0.066
Mof_H 	H 	0.42823	0.76239	0.32787	0.038
Mof_H 	H 	0.31365	0.87943	0.40969	0.017
Mof_H 	H 	0.24711	0.83332	0.34102	0.053
Mof_H 	H 	0.26957	0.8714	0.22028	0.056
Mof_H 	H 	0.21087	0.93797	0.15964	0.015
Mof_H 	H 	0.11285	0.79173	0.10972	0.046
Mof_H 	H 	0.17004	0.72578	0.16956	0.063
Mof_H 	H 	0.22923	0.63244	0.19745	0.062
Mof_H 	H 	0.28579	0.56763	0.13337	0.038
Mof_H 	H 	0.3838	0.71442	0.08467	0.045
Mof_H 	H 	0.32861	0.7791	0.15088	0.061
Mof_O 	O 	0.06915	0.10446	0.11862	-0.621
Mof_O 	O 	0.12841	0.05174	0.0568	-0.546
Mof_C 	C 	0.11612	0.0916	0.10156	0.457
Mof_O 	O 	0.9272	0.89076	0.11167	-0.636
Mof_O 	O 	0.86795	0.94618	0.05317	-0.624
Mof_C 	C 	0.88022	0.90404	0.09499	0.461
Mof_O 	O 	0.06945	0.89526	0.11799	-0.646
Mof_O 	O 	0.12858	0.94848	0.05653	-0.629
Mof_C 	C 	0.11641	0.90832	0.10091	0.452
Mof_O 	O 	0.9273	0.10896	0.11215	-0.632
Mof_O 	O 	0.86799	0.05383	0.05342	-0.546
Mof_C 	C 	0.88034	0.09575	0.09556	0.464
Mof_Zr	Zr	0.99833	0.07276	0.08163	3.22
Mof_O 	O 	0.99633	0.06339	0.18828	-0.555
Mof_O 	O 	0.00212	0.1653	0.08801	-0.59
Mof_Zr	Zr	0.99832	0.92716	0.08167	3.212
Mof_O 	O 	0.99341	0.93276	0.18879	-0.599
Mof_O 	O 	0.00261	0.83459	0.08664	-0.581
Mof_O 	O 	0.04558	2e-05	0.09484	-1.268
Mof_O 	O 	0.95209	1.08354e-33	0.09398	-1.484
Mof_O 	O 	0.92766	0.11162	0.88365	-0.603
Mof_O 	O 	0.86815	0.05411	0.93883	-0.575
Mof_C 	C 	0.88059	0.09726	0.89844	0.457
Mof_O 	O 	0.06971	0.89416	0.87613	-0.65
Mof_O 	O 	0.12881	0.94853	0.93616	-0.641
Mof_C 	C 	0.11667	0.90772	0.8926	0.456
Mof_O 	O 	0.9275	0.88819	0.88416	-0.619
Mof_O 	O 	0.86804	0.94591	0.93916	-0.638
Mof_C 	C 	0.88041	0.90258	0.89904	0.458
Mof_O 	O 	0.06948	0.10577	0.87579	-0.632
Mof_O 	O 	0.12869	0.05169	0.93595	-0.574
Mof_C 	C 	0.11644	0.09229	0.89214	0.457
Mof_Zr	Zr	0.99828	0.07259	0.91025	3.223
Mof_O 	O 	0.99271	0.06307	0.80353	-0.547
Mof_O 	O 	0.00053	0.16453	0.8972	-0.554
Mof_Zr	Zr	0.99829	0.92737	0.91022	3.217
Mof_O 	O 	0.99272	0.937	0.80352	-0.597
Mof_O 	O 	0.00054	0.83549	0.89667	-0.558
Mof_Zr	Zr	0.0772	3e-05	0.99612	3.203
Mof_Zr	Zr	0.91968	0	0.99608	3.202
Mof_O 	O 	0.9518	0.99997	0.89796	-1.668
Mof_O 	O 	0.04577	0.99999	0.897	-1.408
Mof_O 	O 	0.95252	0.08468	0.99602	-1.355
Mof_O 	O 	0.04314	0.91609	0.99604	-1.664
Mof_O 	O 	0.04317	0.08392	0.99606	-1.633
Mof_O 	O 	0.95255	0.91529	0.99602	-1.376
Mof_H 	H 	0.92832	0.99996	0.13338	0.291
Mof_H 	H 	0.06517	0.88061	0.99647	0.377
Mof_H 	H 	0.92743	0.99993	0.85917	0.383
Mof_H 	H 	0.06521	0.11938	0.99656	0.364
Mof_H 	H 	0.97976	0.81886	0.05078	0.2
Mof_H 	H 	0.00599	0.81806	0.94198	0.154
Mof_H 	H 	0.0275	0.94663	0.78603	0.185
Mof_H 	H 	0.02735	0.05275	0.78608	0.224
Mof_H 	H 	0.00551	0.1818	0.94268	0.149
Mof_H 	H 	0.97993	0.18123	0.05155	0.203
Mof_H 	H 	0.99542	0.1037	0.20698	0.205
Mof_H 	H 	0.02466	0.95335	0.20514	0.187
Mof_O 	O 	0.07168	0.60735	0.61527	-0.653
Mof_O 	O 	0.13091	0.55504	0.55329	-0.605
Mof_C 	C 	0.11842	0.59589	0.59641	0.461
Mof_O 	O 	0.93097	0.38914	0.60546	-0.632
Mof_O 	O 	0.8712	0.44638	0.55093	-0.607
Mof_C 	C 	0.88405	0.4021	0.58911	0.471
Mof_O 	O 	0.07154	0.39642	0.61548	-0.654
Mof_O 	O 	0.13084	0.44833	0.55321	-0.604
Mof_C 	C 	0.11824	0.40749	0.59633	0.462
Mof_O 	O 	0.93065	0.61444	0.60538	-0.631
Mof_O 	O 	0.87106	0.55682	0.551	-0.608
Mof_C 	C 	0.88373	0.60111	0.58924	0.47
Mof_Zr	Zr	0.00075	0.57385	0.58242	3.217
Mof_O 	O 	0.99446	0.56389	0.68897	-0.584
Mof_O 	O 	0.00428	0.66549	0.59741	-0.563
Mof_Zr	Zr	0.0008	0.43002	0.58255	3.217
Mof_O 	O 	0.9945	0.44036	0.68905	-0.584
Mof_O 	O 	0.00425	0.33843	0.59796	-0.559
Mof_O 	O 	0.04869	0.50194	0.59581	-1.355
Mof_O 	O 	0.95378	0.5019	0.5947	-1.629
Mof_O 	O 	0.93083	0.61468	0.38736	-0.629
Mof_O 	O 	0.87114	0.55688	0.4413	-0.608
Mof_C 	C 	0.88387	0.60129	0.40329	0.47
Mof_O 	O 	0.07169	0.39626	0.37738	-0.653
Mof_O 	O 	0.13091	0.44826	0.43968	-0.603
Mof_C 	C 	0.11837	0.40734	0.39664	0.462
Mof_O 	O 	0.93111	0.38888	0.38726	-0.631
Mof_O 	O 	0.87127	0.44627	0.44145	-0.607
Mof_C 	C 	0.88417	0.40188	0.40347	0.471
Mof_O 	O 	0.07182	0.60739	0.37747	-0.652
Mof_O 	O 	0.13099	0.55505	0.43952	-0.604
Mof_C 	C 	0.11854	0.59595	0.39644	0.461
Mof_Zr	Zr	0.00085	0.57377	0.41001	3.217
Mof_O 	O 	0.99465	0.56344	0.3035	-0.583
Mof_O 	O 	0.00427	0.66529	0.39412	-0.56
Mof_Zr	Zr	0.00089	0.42995	0.41004	3.217
Mof_O 	O 	0.9947	0.44031	0.30353	-0.582
Mof_O 	O 	0.00432	0.3384	0.39438	-0.558
Mof_Zr	Zr	0.07933	0.50182	0.49635	3.195
Mof_Zr	Zr	0.92248	0.50177	0.49618	3.195
Mof_O 	O 	0.95386	0.50182	0.39771	-1.629
Mof_O 	O 	0.04882	0.50186	0.3968	-1.354
Mof_O 	O 	0.95596	0.58607	0.49618	-1.337
Mof_O 	O 	0.04471	0.41816	0.49635	-1.628
Mof_O 	O 	0.04474	0.58556	0.49626	-1.627
Mof_O 	O 	0.9561	0.41761	0.49626	-1.337
Mof_H 	H 	0.92888	0.50187	0.6329	0.406
Mof_H 	H 	0.06518	0.3815	0.49642	0.376
Mof_H 	H 	0.92895	0.50177	0.35951	0.407
Mof_H 	H 	0.06531	0.62215	0.49632	0.375
Mof_H 	H 	0.99875	0.32006	0.55312	0.172
Mof_H 	H 	0.99957	0.31996	0.43933	0.171
Mof_H 	H 	0.02979	0.44768	0.2856	0.204
Mof_H 	H 	0.02976	0.55625	0.28556	0.204
Mof_H 	H 	0.9997	0.6838	0.43906	0.167
Mof_H 	H 	0.99783	0.68372	0.55272	0.169
Mof_H 	H 	0.02948	0.55613	0.70693	0.201
Mof_H 	H 	0.02953	0.44793	0.70703	0.201
Mof_O 	O 	0.40664	0.9199	0.37691	-0.664
Mof_O 	O 	0.45115	0.85165	0.43983	-0.599
Mof_C 	C 	0.41532	0.86689	0.39663	0.464
Mof_O 	O 	0.59905	0.07761	0.3868	-0.622
Mof_O 	O 	0.55004	0.14659	0.44225	-0.599
Mof_C 	C 	0.58898	0.13085	0.40421	0.466
Mof_O 	O 	0.59242	0.92024	0.37619	-0.667
Mof_O 	O 	0.54849	0.85197	0.43987	-0.598
Mof_C 	C 	0.58414	0.8673	0.3964	0.467
Mof_O 	O 	0.39976	0.07763	0.38787	-0.602
Mof_O 	O 	0.4496	0.1467	0.44182	-0.599
Mof_C 	C 	0.41036	0.13099	0.40432	0.462
Mof_Zr	Zr	0.43696	0.99936	0.41055	3.204
Mof_O 	O 	0.44651	0.00646	0.3041	-0.465
Mof_O 	O 	0.35634	0.9954	0.3949	-0.675
Mof_Zr	Zr	0.56264	0.99928	0.41118	3.205
Mof_O 	O 	0.55228	0.00287	0.30495	-0.538
Mof_O 	O 	0.64361	0.99575	0.39839	-0.695
Mof_O 	O 	0.49984	0.94441	0.39773	-1.376
Mof_O 	O 	0.49988	0.05331	0.39858	-1.599
Mof_O 	O 	0.39892	0.07769	0.60462	-0.603
Mof_O 	O 	0.44943	0.14677	0.55176	-0.6
Mof_C 	C 	0.40985	0.13109	0.58866	0.462
Mof_O 	O 	0.59285	0.91992	0.61663	-0.67
Mof_O 	O 	0.54816	0.85159	0.55413	-0.6
Mof_C 	C 	0.58419	0.8669	0.59701	0.465
Mof_O 	O 	0.6002	0.07738	0.60485	-0.603
Mof_O 	O 	0.54992	0.14662	0.55195	-0.598
Mof_C 	C 	0.58948	0.1308	0.58884	0.462
Mof_O 	O 	0.40596	0.91986	0.61607	-0.669
Mof_O 	O 	0.45106	0.85155	0.55397	-0.6
Mof_C 	C 	0.41493	0.86681	0.5967	0.464
Mof_Zr	Zr	0.43654	0.99942	0.58302	3.204
Mof_O 	O 	0.44578	0.00701	0.68946	-0.482
Mof_O 	O 	0.35595	0.99548	0.599	-0.588
Mof_Zr	Zr	0.56221	0.99937	0.58358	3.204
Mof_O 	O 	0.55187	0.00698	0.68983	-0.483
Mof_O 	O 	0.64255	0.99567	0.60158	-0.587
Mof_Zr	Zr	0.49961	0.90938	0.49709	3.194
Mof_Zr	Zr	0.49963	0.08912	0.497	3.195
Mof_O 	O 	0.49937	0.05342	0.59551	-1.602
Mof_O 	O 	0.49935	0.94442	0.59658	-1.386
Mof_O 	O 	0.42588	0.05013	0.4967	-1.3
Mof_O 	O 	0.57289	0.94945	0.49736	-1.655
Mof_O 	O 	0.42631	0.94954	0.49675	-1.654
Mof_O 	O 	0.5733	0.05007	0.49732	-1.302
Mof_H 	H 	0.50001	0.08146	0.36022	0.4
Mof_H 	H 	0.6054	0.92666	0.49707	0.371
Mof_H 	H 	0.49932	0.08192	0.63352	0.4
Mof_H 	H 	0.39381	0.92674	0.49659	0.371
Mof_H 	H 	0.65902	0.00386	0.44331	0.273
Mof_H 	H 	0.6595	0.99609	0.55665	0.128
Mof_H 	H 	0.54726	0.96695	0.70827	0.126
Mof_H 	H 	0.45128	0.9671	0.70781	0.126
Mof_H 	H 	0.3396	0.99873	0.55383	0.128
Mof_H 	H 	0.34006	0.00025	0.43991	0.269
Mof_H 	H 	0.45497	0.96695	0.28652	0.132
Mof_H 	H 	0.58736	0.00513	0.28518	0.228
Mof_O 	O 	0.57049	0.60392	0.11452	-0.645
Mof_O 	O 	0.62828	0.54848	0.05395	-0.595
Mof_C 	C 	0.6168	0.59021	0.09561	0.472
Mof_O 	O 	0.42813	0.38344	0.10283	-0.619
Mof_O 	O 	0.36963	0.44433	0.05139	-0.598
Mof_C 	C 	0.38152	0.39874	0.08717	0.479
Mof_O 	O 	0.57038	0.39154	0.11477	-0.645
Mof_O 	O 	0.62824	0.44677	0.05406	-0.594
Mof_C 	C 	0.6167	0.40522	0.09596	0.473
Mof_O 	O 	0.42803	0.61203	0.10235	-0.619
Mof_O 	O 	0.36954	0.5509	0.05122	-0.598
Mof_C 	C 	0.38142	0.59669	0.08664	0.478
Mof_Zr	Zr	0.49876	0.57017	0.08346	3.219
Mof_O 	O 	0.49222	0.56004	0.1899	-0.598
Mof_O 	O 	0.50238	0.66152	0.10057	-0.55
Mof_Zr	Zr	0.49875	0.42518	0.08346	3.219
Mof_O 	O 	0.49221	0.43534	0.18991	-0.596
Mof_O 	O 	0.5024	0.33381	0.10047	-0.547
Mof_O 	O 	0.5462	0.49767	0.09679	-1.339
Mof_O 	O 	0.45218	0.49768	0.09594	-1.612
Mof_O 	O 	0.42803	0.61188	0.89169	-0.629
Mof_O 	O 	0.36955	0.55083	0.94296	-0.627
Mof_C 	C 	0.38143	0.59653	0.90741	0.478
Mof_O 	O 	0.57037	0.39166	0.87939	-0.653
Mof_O 	O 	0.62825	0.44681	0.94018	-0.623
Mof_C 	C 	0.61669	0.40535	0.89817	0.474
Mof_O 	O 	0.42814	0.38355	0.89124	-0.63
Mof_O 	O 	0.36964	0.44437	0.94281	-0.627
Mof_C 	C 	0.38154	0.39887	0.9069	0.479
Mof_O 	O 	0.5705	0.60376	0.8796	-0.653
Mof_O 	O 	0.62829	0.54837	0.94025	-0.623
Mof_C 	C 	0.6168	0.59001	0.89848	0.474
Mof_Zr	Zr	0.49877	0.57015	0.91081	3.217
Mof_O 	O 	0.49222	0.5601	0.80435	-0.598
Mof_O 	O 	0.50243	0.66153	0.89394	-0.554
Mof_Zr	Zr	0.49875	0.42517	0.91084	3.217
Mof_O 	O 	0.49221	0.4352	0.80437	-0.597
Mof_O 	O 	0.50245	0.33376	0.89417	-0.551
Mof_Zr	Zr	0.5764	0.49762	0.99714	3.194
Mof_Zr	Zr	0.42137	0.49762	0.99714	3.193
Mof_O 	O 	0.4522	0.49766	0.89835	-1.626
Mof_O 	O 	0.54619	0.49765	0.89749	-1.35
Mof_O 	O 	0.45433	0.58215	0.99712	-1.361
Mof_O 	O 	0.54261	0.41355	0.99714	-1.638
Mof_O 	O 	0.54262	0.58172	0.99712	-1.637
Mof_O 	O 	0.45428	0.41311	0.99714	-1.362
Mof_H 	H 	0.42702	0.49771	0.13385	0.401
Mof_H 	H 	0.56342	0.37712	0.9971	0.365
Mof_H 	H 	0.42707	0.49769	0.8604	0.405
Mof_H 	H 	0.56336	0.61819	0.99707	0.365
Mof_H 	H 	0.49957	0.31506	0.05537	0.177
Mof_H 	H 	0.49917	0.31511	0.93927	0.154
Mof_H 	H 	0.52732	0.44253	0.7865	0.205
Mof_H 	H 	0.52738	0.55317	0.78645	0.205
Mof_H 	H 	0.49942	0.68023	0.93905	0.152
Mof_H 	H 	0.49977	0.6803	0.05546	0.17
Mof_H 	H 	0.52742	0.55335	0.2078	0.204
Mof_H 	H 	0.52737	0.4424	0.20779	0.205
_end
