# CIF file generated by openbabel 3.1.0, see https://openbabel.org
data_I
_chemical_name_common 'image0'
_cell_length_a 14.13
_cell_length_b 13.178
_cell_length_c 14.018
_cell_angle_alpha 90
_cell_angle_beta 90.561
_cell_angle_gamma 90
_space_group_name_H-M_alt 'P 1'
_space_group_name_Hall 'P 1'
loop_
    _symmetry_equiv_pos_as_xyz
    x,y,z
loop_
    _atom_site_label
    _atom_site_type_symbol
    _atom_site_fract_x
    _atom_site_fract_y
    _atom_site_fract_z
    _atom_site_occupancy
    Al1      Al       0.12390    0.85810    0.22570    1.000
    Al2      Al       0.01920    0.74250    0.62290    1.000
    Co1      Co       0.12390    0.14190    0.72570    1.000
    Co2      Co       0.01920    0.25750    0.12290    1.000
    P1       P        0.02540    0.26250    0.89330    1.000
    P2       P        0.14430    0.62910    0.77500    1.000
    O1       O        0.05970    0.26340    0.99790    1.000
    O2       O        0.99340    0.36910    0.86810    1.000
    O3       O        0.11850    0.52200    0.74120    1.000
    O4       O        0.08320    0.65500    0.85900    1.000
    O5       O        0.08920    0.00270    0.74760    1.000
    O6       O        0.12620    0.70360    0.69640    1.000
    O7       O        0.99090    0.87850    0.66130    1.000
    O8       O        0.10600    0.23110    0.83020    1.000
    O9       O        0.24510    0.63440    0.80730    1.000
    O10      O        0.94360    0.18790    0.88380    1.000
    Al3      Al       0.62390    0.35810    0.22570    1.000
    Al4      Al       0.51920    0.24250    0.62290    1.000
    Co3      Co       0.62390    0.64190    0.72570    1.000
    Co4      Co       0.51920    0.75750    0.12290    1.000
    P3       P        0.52540    0.76250    0.89330    1.000
    P4       P        0.64430    0.12910    0.77500    1.000
    O11      O        0.55970    0.76340    0.99790    1.000
    O12      O        0.49340    0.86910    0.86810    1.000
    O13      O        0.61850    0.02200    0.74120    1.000
    O14      O        0.58320    0.15500    0.85900    1.000
    O15      O        0.58920    0.50270    0.74760    1.000
    O16      O        0.62620    0.20360    0.69640    1.000
    O17      O        0.49090    0.37850    0.66130    1.000
    O18      O        0.60600    0.73110    0.83020    1.000
    O19      O        0.74510    0.13440    0.80730    1.000
    O20      O        0.44360    0.68790    0.88380    1.000
    Al5      Al       0.87610    0.85810    0.27430    1.000
    Al6      Al       0.98080    0.74250    0.87710    1.000
    Co5      Co       0.87610    0.14190    0.77430    1.000
    Co6      Co       0.98080    0.25750    0.37710    1.000
    P5       P        0.97460    0.26250    0.60670    1.000
    P6       P        0.85570    0.62910    0.72500    1.000
    O21      O        0.94030    0.26340    0.50210    1.000
    O22      O        0.00660    0.36910    0.63190    1.000
    O23      O        0.88150    0.52200    0.75880    1.000
    O24      O        0.91680    0.65500    0.64100    1.000
    O25      O        0.91080    0.00270    0.75240    1.000
    O26      O        0.87380    0.70360    0.80360    1.000
    O27      O        0.00910    0.87850    0.83870    1.000
    O28      O        0.89400    0.23110    0.66980    1.000
    O29      O        0.75490    0.63440    0.69270    1.000
    O30      O        0.05640    0.18790    0.61620    1.000
    Al7      Al       0.37610    0.35810    0.27430    1.000
    Al8      Al       0.48080    0.24250    0.87710    1.000
    Co7      Co       0.37610    0.64190    0.77430    1.000
    Co8      Co       0.48080    0.75750    0.37710    1.000
    P7       P        0.47460    0.76250    0.60670    1.000
    P8       P        0.35570    0.12910    0.72500    1.000
    O31      O        0.44030    0.76340    0.50210    1.000
    O32      O        0.50660    0.86910    0.63190    1.000
    O33      O        0.38150    0.02200    0.75880    1.000
    O34      O        0.41680    0.15500    0.64100    1.000
    O35      O        0.41080    0.50270    0.75240    1.000
    O36      O        0.37380    0.20360    0.80360    1.000
    O37      O        0.50910    0.37850    0.83870    1.000
    O38      O        0.39400    0.73110    0.66980    1.000
    O39      O        0.25490    0.13440    0.69270    1.000
    O40      O        0.55640    0.68790    0.61620    1.000
    P9       P        0.97460    0.73750    0.10670    1.000
    P10      P        0.85570    0.37090    0.22500    1.000
    O41      O        0.94030    0.73660    0.00210    1.000
    O42      O        0.00660    0.63090    0.13190    1.000
    O43      O        0.88150    0.47800    0.25880    1.000
    O44      O        0.91680    0.34500    0.14100    1.000
    O45      O        0.91080    0.99730    0.25240    1.000
    O46      O        0.87380    0.29640    0.30360    1.000
    O47      O        0.00910    0.12150    0.33870    1.000
    O48      O        0.89400    0.76890    0.16980    1.000
    O49      O        0.75490    0.36560    0.19270    1.000
    O50      O        0.05640    0.81210    0.11620    1.000
    P11      P        0.47460    0.23750    0.10670    1.000
    P12      P        0.35570    0.87090    0.22500    1.000
    O51      O        0.44030    0.23660    0.00210    1.000
    O52      O        0.50660    0.13090    0.13190    1.000
    O53      O        0.38150    0.97800    0.25880    1.000
    O54      O        0.41680    0.84500    0.14100    1.000
    O55      O        0.41080    0.49730    0.25240    1.000
    O56      O        0.37380    0.79640    0.30360    1.000
    O57      O        0.50910    0.62150    0.33870    1.000
    O58      O        0.39400    0.26890    0.16980    1.000
    O59      O        0.25490    0.86560    0.19270    1.000
    O60      O        0.55640    0.31210    0.11620    1.000
    P13      P        0.02540    0.73750    0.39330    1.000
    P14      P        0.14430    0.37090    0.27500    1.000
    O61      O        0.05970    0.73660    0.49790    1.000
    O62      O        0.99340    0.63090    0.36810    1.000
    O63      O        0.11850    0.47800    0.24120    1.000
    O64      O        0.08320    0.34500    0.35900    1.000
    O65      O        0.08920    0.99730    0.24760    1.000
    O66      O        0.12620    0.29640    0.19640    1.000
    O67      O        0.99090    0.12150    0.16130    1.000
    O68      O        0.10600    0.76890    0.33020    1.000
    O69      O        0.24510    0.36560    0.30730    1.000
    O70      O        0.94360    0.81210    0.38380    1.000
    P15      P        0.52540    0.23750    0.39330    1.000
    P16      P        0.64430    0.87090    0.27500    1.000
    O71      O        0.55970    0.23660    0.49790    1.000
    O72      O        0.49340    0.13090    0.36810    1.000
    O73      O        0.61850    0.97800    0.24120    1.000
    O74      O        0.58320    0.84500    0.35900    1.000
    O75      O        0.58920    0.49730    0.24760    1.000
    O76      O        0.62620    0.79640    0.19640    1.000
    O77      O        0.49090    0.62150    0.16130    1.000
    O78      O        0.60600    0.26890    0.33020    1.000
    O79      O        0.74510    0.86560    0.30730    1.000
    O80      O        0.44360    0.31210    0.38380    1.000
    Co9      Co       0.00000    0.44680    0.75000    1.000
    P17      P        0.00000    0.94060    0.75000    1.000
    Co10     Co       0.50000    0.94680    0.75000    1.000
    P18      P        0.50000    0.44060    0.75000    1.000
    Co11     Co       0.00000    0.55320    0.25000    1.000
    P19      P        0.00000    0.05940    0.25000    1.000
    Co12     Co       0.50000    0.05320    0.25000    1.000
    P20      P        0.50000    0.55940    0.25000    1.000
