data_functionalizedCrystal
_audit_creation_method	'EQeq! by Chris Wilmer'
_symmetry_space_group_name_H-M	'P1'
_symmetry_Int_Tables_number	1
_symmetry_cell_setting	triclinic
loop_
_symmetry_equiv_pos_as_xyz
  x,y,z
_cell_length_a	17.0073
_cell_length_b	17.0073
_cell_length_c	24.523
_cell_angle_alpha	73.8582
_cell_angle_beta	73.8582
_cell_angle_gamma	88.3634
loop_
_atom_site_label
_atom_site_type_symbol
_atom_site_fract_x
_atom_site_fract_y
_atom_site_fract_z
_atom_site_charge
Mof_Mn	Mn	0.1263	0.7128	0.5849	0.922
Mof_Mn	Mn	0.2872	0.8737	0.9151	0.925
Mof_Mn	Mn	0.8737	0.2872	0.4151	0.924
Mof_Mn	Mn	0.7128	0.1263	0.0849	0.921
Mof_Cu	Cu	4.89216e-17	0	0.5	0.857
Mof_Cu	Cu	-0	0	-0	0.848
Mof_Cu	Cu	1.41329e-17	0.5	0.5	0.873
Mof_Cu	Cu	0.5	0	-0	0.864
Mof_Cu	Cu	0.26533	0.73467	0.75	0.88
Mof_Cu	Cu	0.73467	0.26533	0.25	0.88
Mof_H 	H 	0.1198	0.841	0.3061	0.03
Mof_H 	H 	0.2387	0.9311	0.2581	0.036
Mof_H 	H 	0.2751	0.0287	0.2955	0.012
Mof_H 	H 	0.0224	0.7854	0.3845	-0.01
Mof_H 	H 	0.0209	0.7965	0.4461	-0.001
Mof_H 	H 	0.8953	0.8311	0.4269	0.136
Mof_H 	H 	0.9382	0.9092	0.4303	0.141
Mof_H 	H 	0.9398	0.8982	0.3686	0.168
Mof_H 	H 	0.2494	0.083	0.3819	0.037
Mof_H 	H 	0.175	0.052	0.4387	-0.002
Mof_H 	H 	0.3031	0.0153	0.466	0.101
Mof_H 	H 	0.2525	0.9341	0.4764	0.118
Mof_H 	H 	0.3268	0.9648	0.4197	0.132
Mof_H 	H 	0.3241	0.3801	0.4969	-0.028
Mof_H 	H 	0.3768	0.4434	0.4038	0.107
Mof_H 	H 	0.3193	0.5299	0.3481	-0.044
Mof_H 	H 	0.1633	0.4573	0.5925	-0.01
Mof_H 	H 	0.2303	0.3913	0.5936	-0.016
Mof_H 	H 	0.0968	0.3252	0.6279	0.164
Mof_H 	H 	0.081	0.37	0.567	0.147
Mof_H 	H 	0.1471	0.3039	0.5702	0.156
Mof_H 	H 	0.1246	0.586	0.3869	-0.089
Mof_H 	H 	0.1718	0.6476	0.405	-0.053
Mof_H 	H 	0.1956	0.6882	0.3012	0.228
Mof_H 	H 	0.2791	0.6657	0.3156	0.233
Mof_H 	H 	0.2321	0.6037	0.2974	0.23
Mof_H 	H 	0.3962	0.0258	0.5632	-0.008
Mof_H 	H 	0.5272	0.978	0.5415	0.052
Mof_H 	H 	0.5465	0.8389	0.5733	0.034
Mof_H 	H 	0.2322	0.9348	0.6613	-0.056
Mof_H 	H 	0.2587	0.0029	0.5993	-0.075
Mof_H 	H 	0.4754	0.6966	0.6343	0.049
Mof_H 	H 	0.3792	0.6908	0.6488	0.052
Mof_H 	H 	0.1645	0.8987	0.5942	0.239
Mof_H 	H 	0.2507	0.8991	0.5492	0.246
Mof_H 	H 	0.2258	0.8314	0.6102	0.28
Mof_H 	H 	0.4353	0.6489	0.5607	0.06
Mof_H 	H 	0.3924	0.7312	0.5432	0.08
Mof_H 	H 	0.159	0.8802	0.1939	0.025
Mof_H 	H 	0.0689	0.7613	0.2419	0.027
Mof_H 	H 	0.9713	0.7249	0.2045	0.043
Mof_H 	H 	0.2146	0.9776	0.1155	-0.032
Mof_H 	H 	0.2035	0.9791	0.0539	-0.028
Mof_H 	H 	0.1689	0.1047	0.0731	0.162
Mof_H 	H 	0.0908	0.0618	0.0697	0.155
Mof_H 	H 	0.1018	0.0602	0.1314	0.187
Mof_H 	H 	0.917	0.7506	0.1181	-0.02
Mof_H 	H 	0.948	0.825	0.0613	-0.056
Mof_H 	H 	0.9847	0.6969	0.034	0.216
Mof_H 	H 	0.0659	0.7475	0.0236	0.208
Mof_H 	H 	0.0352	0.6732	0.0803	0.217
Mof_H 	H 	0.6199	0.6759	0.0031	0.09
Mof_H 	H 	0.5566	0.6232	0.0962	-0.034
Mof_H 	H 	0.4701	0.6807	0.1519	0.09
Mof_H 	H 	0.5427	0.8367	0.9075	0.038
Mof_H 	H 	0.6087	0.7697	0.9064	0.034
Mof_H 	H 	0.6748	0.9032	0.8721	0.125
Mof_H 	H 	0.63	0.919	0.933	0.115
Mof_H 	H 	0.6961	0.8529	0.9298	0.12
Mof_H 	H 	0.414	0.8754	0.1131	-0.007
Mof_H 	H 	0.3524	0.8282	0.095	0.019
Mof_H 	H 	0.3118	0.8044	0.1988	0.162
Mof_H 	H 	0.3343	0.7209	0.1844	0.164
Mof_H 	H 	0.3963	0.7679	0.2026	0.163
Mof_H 	H 	0.9742	0.6038	0.9368	0.084
Mof_H 	H 	0.022	0.4728	0.9585	-0.002
Mof_H 	H 	0.1611	0.4535	0.9267	0.07
Mof_H 	H 	0.0652	0.7678	0.8387	0.013
Mof_H 	H 	0.9971	0.7413	0.9007	0.025
Mof_H 	H 	0.3034	0.5246	0.8657	0.063
Mof_H 	H 	0.3092	0.6208	0.8512	0.068
Mof_H 	H 	0.1013	0.8355	0.9058	0.176
Mof_H 	H 	0.1009	0.7493	0.9508	0.176
Mof_H 	H 	0.1686	0.7742	0.8898	0.219
Mof_H 	H 	0.3511	0.5647	0.9393	0.052
Mof_H 	H 	0.2688	0.6076	0.9568	0.074
Mof_H 	H 	0.8802	0.159	0.6939	0.024
Mof_H 	H 	0.7613	0.0689	0.7419	0.027
Mof_H 	H 	0.7249	0.9713	0.7045	0.041
Mof_H 	H 	0.9776	0.2146	0.6155	-0.029
Mof_H 	H 	0.9791	0.2035	0.5539	-0.021
Mof_H 	H 	0.1047	0.1689	0.5731	0.17
Mof_H 	H 	0.0618	0.0908	0.5697	0.16
Mof_H 	H 	0.0602	0.1018	0.6314	0.189
Mof_H 	H 	0.7506	0.917	0.6181	-0.022
Mof_H 	H 	0.825	0.948	0.5613	-0.057
Mof_H 	H 	0.6969	0.9847	0.534	0.225
Mof_H 	H 	0.7475	0.0659	0.5236	0.219
Mof_H 	H 	0.6732	0.0352	0.5803	0.223
Mof_H 	H 	0.6759	0.6199	0.5031	-0.021
Mof_H 	H 	0.6232	0.5566	0.5962	0.098
Mof_H 	H 	0.6807	0.4701	0.6519	-0.033
Mof_H 	H 	0.8367	0.5427	0.4075	-0.015
Mof_H 	H 	0.7697	0.6087	0.4064	-0.018
Mof_H 	H 	0.9032	0.6748	0.3721	0.17
Mof_H 	H 	0.919	0.63	0.433	0.157
Mof_H 	H 	0.8529	0.6961	0.4298	0.163
Mof_H 	H 	0.8754	0.414	0.6131	-0.067
Mof_H 	H 	0.8282	0.3524	0.595	-0.041
Mof_H 	H 	0.8044	0.3118	0.6988	0.217
Mof_H 	H 	0.7209	0.3343	0.6844	0.22
Mof_H 	H 	0.7679	0.3963	0.7026	0.22
Mof_H 	H 	0.6038	0.9742	0.4368	0.079
Mof_H 	H 	0.4728	0.022	0.4585	-0.005
Mof_H 	H 	0.4535	0.1611	0.4267	0.068
Mof_H 	H 	0.7678	0.0652	0.3387	0.013
Mof_H 	H 	0.7413	0.9971	0.4007	0.022
Mof_H 	H 	0.5246	0.3034	0.3657	0.064
Mof_H 	H 	0.6208	0.3092	0.3512	0.068
Mof_H 	H 	0.8355	0.1013	0.4058	0.174
Mof_H 	H 	0.7493	0.1009	0.4508	0.169
Mof_H 	H 	0.7742	0.1686	0.3898	0.217
Mof_H 	H 	0.5647	0.3511	0.4393	0.054
Mof_H 	H 	0.6076	0.2688	0.4568	0.073
Mof_H 	H 	0.841	0.1198	0.8061	0.028
Mof_H 	H 	0.9311	0.2387	0.7581	0.035
Mof_H 	H 	0.0287	0.2751	0.7955	0.012
Mof_H 	H 	0.7854	0.0224	0.8845	-0.009
Mof_H 	H 	0.7965	0.0209	0.9461	0.005
Mof_H 	H 	0.8311	0.8953	0.9269	0.147
Mof_H 	H 	0.9092	0.9382	0.9303	0.149
Mof_H 	H 	0.8982	0.9398	0.8686	0.174
Mof_H 	H 	0.083	0.2494	0.8819	0.036
Mof_H 	H 	0.052	0.175	0.9387	-0.001
Mof_H 	H 	0.0153	0.3031	0.966	0.109
Mof_H 	H 	0.9341	0.2525	0.9764	0.131
Mof_H 	H 	0.9648	0.3268	0.9197	0.138
Mof_H 	H 	0.3801	0.3241	0.9969	-0.168
Mof_H 	H 	0.4434	0.3768	0.9038	0.274
Mof_H 	H 	0.5299	0.3193	0.8481	-0.198
Mof_H 	H 	0.4573	0.1633	0.0925	-0.076
Mof_H 	H 	0.3913	0.2303	0.0936	-0.082
Mof_H 	H 	0.3252	0.0968	0.1279	0.221
Mof_H 	H 	0.37	0.081	0.067	0.201
Mof_H 	H 	0.3039	0.1471	0.0702	0.21
Mof_H 	H 	0.586	0.1246	0.8869	-0.163
Mof_H 	H 	0.6476	0.1718	0.905	-0.127
Mof_H 	H 	0.6882	0.1956	0.8012	0.298
Mof_H 	H 	0.6657	0.2791	0.8156	0.304
Mof_H 	H 	0.6037	0.2321	0.7974	0.302
Mof_H 	H 	0.0258	0.3962	0.0632	-0.012
Mof_H 	H 	0.978	0.5272	0.0415	0.048
Mof_H 	H 	0.8389	0.5465	0.0733	0.033
Mof_H 	H 	0.9348	0.2322	0.1613	-0.055
Mof_H 	H 	0.0029	0.2587	0.0993	-0.077
Mof_H 	H 	0.6966	0.4754	0.1343	0.05
Mof_H 	H 	0.6908	0.3792	0.1488	0.052
Mof_H 	H 	0.8987	0.1645	0.0942	0.235
Mof_H 	H 	0.8991	0.2507	0.0492	0.237
Mof_H 	H 	0.8314	0.2258	0.1102	0.277
Mof_H 	H 	0.6489	0.4353	0.0607	0.061
Mof_H 	H 	0.7312	0.3924	0.0432	0.078
Mof_C 	C 	0.0895	0.8653	0.5108	0.079
Mof_C 	C 	0.0423	0.8663	0.5722	0.209
Mof_C 	C 	0.1228	0.936	0.4074	0.06
Mof_C 	C 	0.0927	0.8791	0.3787	-0.035
Mof_C 	C 	0.1353	0.8767	0.3244	-0.044
Mof_C 	C 	0.2075	0.9335	0.2953	-0.052
Mof_C 	C 	0.2331	0.9895	0.3179	-0.015
Mof_C 	C 	0.1883	0.9839	0.3824	-0.01
Mof_C 	C 	0.0207	0.8257	0.406	0.057
Mof_C 	C 	0.9411	0.8701	0.4082	-0.481
Mof_C 	C 	0.22	0.0344	0.4112	-0.052
Mof_C 	C 	0.2821	0.9817	0.4471	-0.333
Mof_C 	C 	0.1063	0.5881	0.5295	0.118
Mof_C 	C 	0.0202	0.6096	0.5578	0.206
Mof_C 	C 	0.1842	0.5084	0.4733	0.182
Mof_C 	C 	0.2227	0.4475	0.5079	-0.142
Mof_C 	C 	0.2966	0.4218	0.4777	0.123
Mof_C 	C 	0.3251	0.4583	0.4218	-0.248
Mof_C 	C 	0.2941	0.5103	0.3885	0.177
Mof_C 	C 	0.2176	0.538	0.416	-0.216
Mof_C 	C 	0.1874	0.414	0.5756	0.123
Mof_C 	C 	0.122	0.347	0.5862	-0.523
Mof_C 	C 	0.1788	0.6052	0.3848	0.27
Mof_C 	C 	0.2259	0.6445	0.3184	-0.715
Mof_C 	C 	0.2429	0.7353	0.6454	0.057
Mof_C 	C 	0.17	0.6834	0.6926	0.267
Mof_C 	C 	0.3372	0.9154	0.6081	-0.114
Mof_C 	C 	0.404	0.97	0.576	0.043
Mof_C 	C 	0.4825	0.9413	0.5629	-0.079
Mof_C 	C 	0.4941	0.8581	0.582	-0.048
Mof_C 	C 	0.4272	0.8034	0.6141	0.007
Mof_C 	C 	0.3488	0.832	0.6271	0.069
Mof_C 	C 	0.259	0.945	0.6194	0.239
Mof_C 	C 	0.429	0.7188	0.6204	-0.102
Mof_C 	C 	0.2213	0.8879	0.5904	-0.723
Mof_C 	C 	0.4367	0.7067	0.5575	-0.161
Mof_C 	C 	0.1347	0.9105	0.9892	0.085
Mof_C 	C 	0.1337	0.9577	0.9278	0.249
Mof_C 	C 	0.064	0.8772	0.0926	0.103
Mof_C 	C 	0.1209	0.9073	0.1213	-0.082
Mof_C 	C 	0.1233	0.8647	0.1756	-0.024
Mof_C 	C 	0.0665	0.7925	0.2047	-0.049
Mof_C 	C 	0.0105	0.7669	0.1821	-0.045
Mof_C 	C 	0.0161	0.8117	0.1176	-0.104
Mof_C 	C 	0.1743	0.9793	0.094	0.162
Mof_C 	C 	0.1299	0.0589	0.0918	-0.602
Mof_C 	C 	0.9656	0.78	0.0888	0.162
Mof_C 	C 	0.0183	0.7179	0.0529	-0.651
Mof_C 	C 	0.4119	0.8937	0.9705	0.104
Mof_C 	C 	0.3904	0.9798	0.9422	0.237
Mof_C 	C 	0.4916	0.8158	0.0267	-0.008
Mof_C 	C 	0.5525	0.7773	0.9921	0.082
Mof_C 	C 	0.5782	0.7034	0.0223	-0.227
Mof_C 	C 	0.5417	0.6749	0.0782	0.168
Mof_C 	C 	0.4897	0.7059	0.1115	-0.191
Mof_C 	C 	0.462	0.7824	0.084	0.032
Mof_C 	C 	0.586	0.8126	0.9244	-0.045
Mof_C 	C 	0.653	0.878	0.9138	-0.387
Mof_C 	C 	0.3948	0.8212	0.1152	0.03
Mof_C 	C 	0.3555	0.7741	0.1816	-0.493
Mof_C 	C 	0.2647	0.7571	0.8546	0.063
Mof_C 	C 	0.3166	0.83	0.8074	0.266
Mof_C 	C 	0.0846	0.6628	0.8919	0.039
Mof_C 	C 	0.03	0.596	0.924	-0.159
Mof_C 	C 	0.0587	0.5175	0.9371	0.054
Mof_C 	C 	0.1419	0.5059	0.918	-0.147
Mof_C 	C 	0.1966	0.5728	0.8859	0.078
Mof_C 	C 	0.168	0.6512	0.8729	-0.006
Mof_C 	C 	0.055	0.741	0.8806	-0.012
Mof_C 	C 	0.2812	0.571	0.8796	-0.155
Mof_C 	C 	0.1121	0.7787	0.9096	-0.522
Mof_C 	C 	0.2933	0.5633	0.9425	-0.137
Mof_C 	C 	0.9105	0.1347	0.4892	0.071
Mof_C 	C 	0.9577	0.1337	0.4278	0.257
Mof_C 	C 	0.8772	0.064	0.5926	0.104
Mof_C 	C 	0.9073	0.1209	0.6213	-0.08
Mof_C 	C 	0.8647	0.1233	0.6756	-0.023
Mof_C 	C 	0.7925	0.0665	0.7047	-0.051
Mof_C 	C 	0.7669	0.0105	0.6821	-0.04
Mof_C 	C 	0.8117	0.0161	0.6176	-0.106
Mof_C 	C 	0.9793	0.1743	0.594	0.159
Mof_C 	C 	0.0589	0.1299	0.5918	-0.604
Mof_C 	C 	0.78	0.9656	0.5888	0.168
Mof_C 	C 	0.7179	0.0183	0.5529	-0.666
Mof_C 	C 	0.8937	0.4119	0.4705	0.11
Mof_C 	C 	0.9798	0.3904	0.4422	0.239
Mof_C 	C 	0.8158	0.4916	0.5267	0.169
Mof_C 	C 	0.7773	0.5525	0.4921	-0.133
Mof_C 	C 	0.7034	0.5782	0.5223	0.103
Mof_C 	C 	0.6749	0.5417	0.5782	-0.22
Mof_C 	C 	0.7059	0.4897	0.6115	0.149
Mof_C 	C 	0.7824	0.462	0.584	-0.191
Mof_C 	C 	0.8126	0.586	0.4244	0.127
Mof_C 	C 	0.878	0.653	0.4138	-0.54
Mof_C 	C 	0.8212	0.3948	0.6152	0.237
Mof_C 	C 	0.7741	0.3555	0.6816	-0.68
Mof_C 	C 	0.7571	0.2647	0.3546	0.064
Mof_C 	C 	0.83	0.3166	0.3074	0.266
Mof_C 	C 	0.6628	0.0846	0.3919	0.036
Mof_C 	C 	0.596	0.03	0.424	-0.157
Mof_C 	C 	0.5175	0.0587	0.4371	0.05
Mof_C 	C 	0.5059	0.1419	0.418	-0.146
Mof_C 	C 	0.5728	0.1966	0.3859	0.076
Mof_C 	C 	0.6512	0.168	0.3729	-0.005
Mof_C 	C 	0.741	0.055	0.3806	-0.011
Mof_C 	C 	0.571	0.2812	0.3796	-0.153
Mof_C 	C 	0.7787	0.1121	0.4096	-0.517
Mof_C 	C 	0.5633	0.2933	0.4425	-0.14
Mof_C 	C 	0.8653	0.0895	0.0108	0.06
Mof_C 	C 	0.8663	0.0423	0.0722	0.21
Mof_C 	C 	0.936	0.1228	0.9074	0.063
Mof_C 	C 	0.8791	0.0927	0.8787	-0.035
Mof_C 	C 	0.8767	0.1353	0.8244	-0.043
Mof_C 	C 	0.9335	0.2075	0.7953	-0.052
Mof_C 	C 	0.9895	0.2331	0.8179	-0.015
Mof_C 	C 	0.9839	0.1883	0.8824	-0.01
Mof_C 	C 	0.8257	0.0207	0.906	0.065
Mof_C 	C 	0.8701	0.9411	0.9082	-0.499
Mof_C 	C 	0.0344	0.22	0.9112	-0.047
Mof_C 	C 	0.9817	0.2821	0.9471	-0.345
Mof_C 	C 	0.5881	0.1063	0.0295	0.129
Mof_C 	C 	0.6096	0.0202	0.0578	0.2
Mof_C 	C 	0.5084	0.1842	0.9733	0.407
Mof_C 	C 	0.4475	0.2227	0.0079	-0.411
Mof_C 	C 	0.4218	0.2966	0.9777	0.539
Mof_C 	C 	0.4583	0.3251	0.9218	-0.737
Mof_C 	C 	0.5103	0.2941	0.8885	0.606
Mof_C 	C 	0.538	0.2176	0.916	-0.497
Mof_C 	C 	0.414	0.1874	0.0756	0.338
Mof_C 	C 	0.347	0.122	0.0862	-0.715
Mof_C 	C 	0.6052	0.1788	0.8848	0.53
Mof_C 	C 	0.6445	0.2259	0.8184	-0.95
Mof_C 	C 	0.7353	0.2429	0.1454	0.058
Mof_C 	C 	0.6834	0.17	0.1926	0.266
Mof_C 	C 	0.9154	0.3372	0.1081	-0.115
Mof_C 	C 	0.97	0.404	0.076	0.041
Mof_C 	C 	0.9413	0.4825	0.0629	-0.081
Mof_C 	C 	0.8581	0.4941	0.082	-0.048
Mof_C 	C 	0.8034	0.4272	0.1141	0.006
Mof_C 	C 	0.832	0.3488	0.1271	0.069
Mof_C 	C 	0.945	0.259	0.1194	0.236
Mof_C 	C 	0.7188	0.429	0.1204	-0.101
Mof_C 	C 	0.8879	0.2213	0.0904	-0.714
Mof_C 	C 	0.7067	0.4367	0.0575	-0.164
Mof_N 	N 	0.2967	0.7599	0.6645	-0.241
Mof_N 	N 	0.0787	0.9275	0.4681	-0.234
Mof_N 	N 	0.1081	0.5337	0.5004	-0.266
Mof_N 	N 	0.2401	0.7033	0.8355	-0.232
Mof_N 	N 	0.0725	0.9213	0.0319	-0.248
Mof_N 	N 	0.4663	0.8919	0.9996	-0.222
Mof_N 	N 	0.7033	0.2401	0.3355	-0.232
Mof_N 	N 	0.9213	0.0725	0.5319	-0.24
Mof_N 	N 	0.8919	0.4663	0.4996	-0.258
Mof_N 	N 	0.7599	0.2967	0.1645	-0.241
Mof_N 	N 	0.9275	0.0787	0.9681	-0.219
Mof_N 	N 	0.5337	0.1081	0.0004	-0.31
Mof_O 	O 	0.1718	0.6716	0.7456	-0.383
Mof_O 	O 	0.1356	0.8066	0.5033	-0.29
Mof_O 	O 	0.0507	0.8089	0.6148	-0.341
Mof_O 	O 	0.9932	0.9222	0.5775	-0.383
Mof_O 	O 	0.1635	0.6195	0.5394	-0.299
Mof_O 	O 	0.0111	0.6583	0.5871	-0.36
Mof_O 	O 	0.9597	0.5741	0.5485	-0.378
Mof_O 	O 	0.2425	0.7491	0.5915	-0.323
Mof_O 	O 	0.118	0.6556	0.6762	-0.35
Mof_O 	O 	0.3284	0.8282	0.7544	-0.378
Mof_O 	O 	0.1934	0.8644	0.9967	-0.287
Mof_O 	O 	0.1911	0.9493	0.8852	-0.336
Mof_O 	O 	0.0778	0.0068	0.9225	-0.425
Mof_O 	O 	0.3805	0.8365	0.9606	-0.295
Mof_O 	O 	0.3417	0.9889	0.9129	-0.357
Mof_O 	O 	0.4259	0.0403	0.9515	-0.405
Mof_O 	O 	0.2509	0.7575	0.9085	-0.317
Mof_O 	O 	0.3444	0.882	0.8238	-0.345
Mof_O 	O 	0.8282	0.3284	0.2544	-0.377
Mof_O 	O 	0.8644	0.1934	0.4967	-0.289
Mof_O 	O 	0.9493	0.1911	0.3852	-0.336
Mof_O 	O 	0.0068	0.0778	0.4225	-0.433
Mof_O 	O 	0.8365	0.3805	0.4606	-0.3
Mof_O 	O 	0.9889	0.3417	0.4129	-0.356
Mof_O 	O 	0.0403	0.4259	0.4515	-0.414
Mof_O 	O 	0.7575	0.2509	0.4085	-0.319
Mof_O 	O 	0.882	0.3444	0.3238	-0.345
Mof_O 	O 	0.6716	0.1718	0.2456	-0.383
Mof_O 	O 	0.8066	0.1356	0.0033	-0.293
Mof_O 	O 	0.8089	0.0507	0.1148	-0.342
Mof_O 	O 	0.9222	0.9932	0.0775	-0.383
Mof_O 	O 	0.6195	0.1635	0.0394	-0.305
Mof_O 	O 	0.6583	0.0111	0.0871	-0.359
Mof_O 	O 	0.5741	0.9597	0.0485	-0.377
Mof_O 	O 	0.7491	0.2425	0.0915	-0.325
Mof_O 	O 	0.6556	0.118	0.1762	-0.349
Mof_H 	H 	0.5871	0.9323	0.2608	0.046
Mof_H 	H 	0.6301	0.9467	0.1934	0.046
Mof_H 	H 	0.5132	0.8172	0.2428	0.094
Mof_H 	H 	0.529	0.884	0.1805	0.101
Mof_H 	H 	0.4116	0.9044	0.2741	-0.027
Mof_H 	H 	0.4866	0.9556	0.2766	-0.017
Mof_H 	H 	0.4268	0.0376	0.2044	0.153
Mof_H 	H 	0.4396	0.9688	0.1719	0.164
Mof_H 	H 	0.5156	0.0176	0.1731	0.167
Mof_H 	H 	0.6681	0.7465	0.3197	0.018
Mof_H 	H 	0.5826	0.7498	0.3071	0.022
Mof_H 	H 	0.6332	0.8696	0.3579	0.108
Mof_H 	H 	0.5426	0.8578	0.3539	0.11
Mof_H 	H 	0.6309	0.7325	0.4143	-0.039
Mof_H 	H 	0.5508	0.7104	0.4018	-0.033
Mof_H 	H 	0.5249	0.6965	0.5034	0.229
Mof_H 	H 	0.4718	0.7662	0.4777	0.227
Mof_H 	H 	0.5525	0.7887	0.4903	0.22
Mof_H 	H 	0.6263	0.7665	0.2082	-0.118
Mof_H 	H 	0.7126	0.746	0.2179	-0.121
Mof_H 	H 	0.7703	0.8557	0.1414	0.329
Mof_H 	H 	0.684	0.878	0.132	0.348
Mof_H 	H 	0.7643	0.7329	0.1144	-0.331
Mof_H 	H 	0.6747	0.7483	0.1101	-0.322
Mof_H 	H 	0.7653	0.7795	0.018	0.558
Mof_H 	H 	0.8118	0.8446	0.0338	0.549
Mof_H 	H 	0.7221	0.8585	0.0292	0.566
Mof_H 	H 	0.7215	0.9415	0.2474	0.035
Mof_H 	H 	0.7588	0.918	0.1877	0.026
Mof_H 	H 	0.7686	0.8088	0.2979	0.105
Mof_H 	H 	0.8171	0.8017	0.236	0.107
Mof_H 	H 	0.8746	0.8706	0.309	-0.066
Mof_H 	H 	0.9268	0.8342	0.2586	-0.052
Mof_H 	H 	0.9544	0.9808	0.2323	0.24
Mof_H 	H 	0.8622	0.9938	0.2341	0.254
Mof_H 	H 	0.9193	0.9579	0.1856	0.27
Mof_C 	C 	0.6026	0.9054	0.2296	-0.012
Mof_C 	C 	0.5263	0.8747	0.2219	-0.228
Mof_C 	C 	0.4645	0.9321	0.2517	0.147
Mof_C 	C 	0.4613	0.9947	0.1951	-0.483
Mof_C 	C 	0.6272	0.7832	0.3081	0.011
Mof_C 	C 	0.5927	0.8309	0.3575	-0.272
Mof_C 	C 	0.5773	0.7517	0.412	0.186
Mof_C 	C 	0.5267	0.7507	0.4773	-0.656
Mof_C 	C 	0.6788	0.7906	0.2053	0.499
Mof_C 	C 	0.7169	0.8329	0.1449	-0.99
Mof_C 	C 	0.7275	0.7751	0.1035	1.167
Mof_C 	C 	0.7594	0.818	0.0408	-1.814
Mof_C 	C 	0.7363	0.8963	0.2302	0.017
Mof_C 	C 	0.8006	0.8406	0.2589	-0.271
Mof_C 	C 	0.8833	0.8705	0.2682	0.243
Mof_C 	C 	0.9071	0.9593	0.226	-0.735
Mof_N 	N 	0.666	0.8398	0.2448	-0.189
Mof_H 	H 	0.0677	0.4129	0.2392	0.013
Mof_H 	H 	0.0533	0.3699	0.3066	0.001
Mof_H 	H 	0.1828	0.4868	0.2572	0.157
Mof_H 	H 	0.116	0.471	0.3195	0.16
Mof_H 	H 	0.0956	0.5884	0.2259	-0.159
Mof_H 	H 	0.0444	0.5134	0.2234	-0.15
Mof_H 	H 	0.9624	0.5732	0.2956	0.38
Mof_H 	H 	0.0312	0.5604	0.3281	0.359
Mof_H 	H 	0.9824	0.4844	0.3269	0.397
Mof_H 	H 	0.2535	0.3319	0.1803	0.017
Mof_H 	H 	0.2502	0.4174	0.1929	0.017
Mof_H 	H 	0.1304	0.3668	0.1421	0.112
Mof_H 	H 	0.1422	0.4574	0.1461	0.114
Mof_H 	H 	0.2675	0.3691	0.0857	-0.049
Mof_H 	H 	0.2896	0.4492	0.0982	-0.045
Mof_H 	H 	0.3035	0.4751	0.9966	0.266
Mof_H 	H 	0.2338	0.5282	0.0223	0.245
Mof_H 	H 	0.2113	0.4475	0.0097	0.239
Mof_H 	H 	0.2335	0.3737	0.2918	-0.116
Mof_H 	H 	0.254	0.2874	0.2821	-0.117
Mof_H 	H 	0.1443	0.2297	0.3586	0.317
Mof_H 	H 	0.122	0.316	0.368	0.334
Mof_H 	H 	0.2671	0.2357	0.3856	-0.322
Mof_H 	H 	0.2517	0.3253	0.3899	-0.312
Mof_H 	H 	0.2205	0.2347	0.482	0.547
Mof_H 	H 	0.1554	0.1882	0.4662	0.533
Mof_H 	H 	0.1415	0.2779	0.4708	0.551
Mof_H 	H 	0.0585	0.2785	0.2526	0.028
Mof_H 	H 	0.082	0.2412	0.3123	0.021
Mof_H 	H 	0.1912	0.2314	0.2021	0.102
Mof_H 	H 	0.1983	0.1829	0.264	0.102
Mof_H 	H 	0.1294	0.1254	0.191	-0.062
Mof_H 	H 	0.1658	0.0732	0.2414	-0.052
Mof_H 	H 	0.0192	0.0456	0.2677	0.192
Mof_H 	H 	0.0062	0.1378	0.2659	0.219
Mof_H 	H 	0.0421	0.0807	0.3144	0.235
Mof_C 	C 	0.0946	0.3974	0.2704	0.088
Mof_C 	C 	0.1253	0.4737	0.2781	-0.442
Mof_C 	C 	0.0679	0.5355	0.2483	0.551
Mof_C 	C 	0.0053	0.5387	0.3049	-1.167
Mof_C 	C 	0.2168	0.3728	0.1919	0.018
Mof_C 	C 	0.1691	0.4073	0.1425	-0.29
Mof_C 	C 	0.2483	0.4227	0.088	0.223
Mof_C 	C 	0.2493	0.4733	0.0227	-0.74
Mof_C 	C 	0.2094	0.3212	0.2947	0.485
Mof_C 	C 	0.1671	0.2831	0.3551	-0.964
Mof_C 	C 	0.2249	0.2725	0.3965	1.132
Mof_C 	C 	0.182	0.2406	0.4592	-1.771
Mof_C 	C 	0.1037	0.2637	0.2698	0.017
Mof_C 	C 	0.1594	0.1994	0.2411	-0.259
Mof_C 	C 	0.1295	0.1167	0.2318	0.207
Mof_C 	C 	0.0407	0.0929	0.274	-0.66
Mof_N 	N 	0.1602	0.334	0.2552	-0.198
Mof_H 	H 	0.4129	0.0677	0.7392	0.014
Mof_H 	H 	0.3699	0.0533	0.8066	0.003
Mof_H 	H 	0.4868	0.1828	0.7572	0.153
Mof_H 	H 	0.471	0.116	0.8195	0.158
Mof_H 	H 	0.5884	0.0956	0.7259	-0.153
Mof_H 	H 	0.5134	0.0444	0.7234	-0.144
Mof_H 	H 	0.5732	0.9624	0.7956	0.37
Mof_H 	H 	0.5604	0.0312	0.8281	0.353
Mof_H 	H 	0.4844	0.9824	0.8269	0.385
Mof_H 	H 	0.3319	0.2535	0.6803	0.018
Mof_H 	H 	0.4174	0.2502	0.6929	0.019
Mof_H 	H 	0.3668	0.1304	0.6421	0.107
Mof_H 	H 	0.4574	0.1422	0.6461	0.109
Mof_H 	H 	0.3691	0.2675	0.5857	-0.038
Mof_H 	H 	0.4492	0.2896	0.5982	-0.033
Mof_H 	H 	0.4751	0.3035	0.4966	0.228
Mof_H 	H 	0.5282	0.2338	0.5223	0.225
Mof_H 	H 	0.4475	0.2113	0.5097	0.219
Mof_H 	H 	0.3737	0.2335	0.7918	-0.122
Mof_H 	H 	0.2874	0.254	0.7821	-0.123
Mof_H 	H 	0.2297	0.1443	0.8586	0.327
Mof_H 	H 	0.316	0.122	0.868	0.344
Mof_H 	H 	0.2357	0.2671	0.8856	-0.336
Mof_H 	H 	0.3253	0.2517	0.8899	-0.326
Mof_H 	H 	0.2347	0.2205	0.982	0.571
Mof_H 	H 	0.1882	0.1554	0.9662	0.557
Mof_H 	H 	0.2779	0.1415	0.9708	0.574
Mof_H 	H 	0.2785	0.0585	0.7526	0.029
Mof_H 	H 	0.2412	0.082	0.8123	0.021
Mof_H 	H 	0.2314	0.1912	0.7021	0.102
Mof_H 	H 	0.1829	0.1983	0.764	0.101
Mof_H 	H 	0.1254	0.1294	0.691	-0.061
Mof_H 	H 	0.0732	0.1658	0.7414	-0.051
Mof_H 	H 	0.0456	0.0192	0.7677	0.193
Mof_H 	H 	0.1378	0.0062	0.7659	0.22
Mof_H 	H 	0.0807	0.0421	0.8144	0.236
Mof_C 	C 	0.3974	0.0946	0.7704	0.083
Mof_C 	C 	0.4737	0.1253	0.7781	-0.433
Mof_C 	C 	0.5355	0.0679	0.7483	0.532
Mof_C 	C 	0.5387	0.0053	0.8049	-1.135
Mof_C 	C 	0.3728	0.2168	0.6919	0.012
Mof_C 	C 	0.4073	0.1691	0.6425	-0.271
Mof_C 	C 	0.4227	0.2483	0.588	0.185
Mof_C 	C 	0.4733	0.2493	0.5227	-0.655
Mof_C 	C 	0.3212	0.2094	0.7947	0.504
Mof_C 	C 	0.2831	0.1671	0.8551	-0.996
Mof_C 	C 	0.2725	0.2249	0.8965	1.18
Mof_C 	C 	0.2406	0.182	0.9592	-1.838
Mof_C 	C 	0.2637	0.1037	0.7698	0.017
Mof_C 	C 	0.1994	0.1594	0.7411	-0.259
Mof_C 	C 	0.1167	0.1295	0.7318	0.207
Mof_C 	C 	0.0929	0.0407	0.774	-0.662
Mof_N 	N 	0.334	0.1602	0.7552	-0.2
Mof_H 	H 	0.9323	0.5871	0.7608	0.044
Mof_H 	H 	0.9467	0.6301	0.6934	0.044
Mof_H 	H 	0.8172	0.5132	0.7428	0.095
Mof_H 	H 	0.884	0.529	0.6805	0.103
Mof_H 	H 	0.9044	0.4116	0.7741	-0.033
Mof_H 	H 	0.9556	0.4866	0.7766	-0.022
Mof_H 	H 	0.0376	0.4268	0.7044	0.163
Mof_H 	H 	0.9688	0.4396	0.6719	0.174
Mof_H 	H 	0.0176	0.5156	0.6731	0.176
Mof_H 	H 	0.7465	0.6681	0.8197	0.019
Mof_H 	H 	0.7498	0.5826	0.8071	0.023
Mof_H 	H 	0.8696	0.6332	0.8579	0.103
Mof_H 	H 	0.8578	0.5426	0.8539	0.105
Mof_H 	H 	0.7325	0.6309	0.9143	-0.027
Mof_H 	H 	0.7104	0.5508	0.9018	-0.02
Mof_H 	H 	0.6965	0.5249	0.0034	0.192
Mof_H 	H 	0.7662	0.4718	0.9777	0.209
Mof_H 	H 	0.7887	0.5525	0.9903	0.201
Mof_H 	H 	0.7665	0.6263	0.7082	-0.122
Mof_H 	H 	0.746	0.7126	0.7179	-0.124
Mof_H 	H 	0.8557	0.7703	0.6414	0.335
Mof_H 	H 	0.878	0.684	0.632	0.353
Mof_H 	H 	0.7329	0.7643	0.6144	-0.339
Mof_H 	H 	0.7483	0.6747	0.6101	-0.33
Mof_H 	H 	0.7795	0.7653	0.518	0.574
Mof_H 	H 	0.8446	0.8118	0.5338	0.565
Mof_H 	H 	0.8585	0.7221	0.5292	0.581
Mof_H 	H 	0.9415	0.7215	0.7474	0.035
Mof_H 	H 	0.918	0.7588	0.6877	0.026
Mof_H 	H 	0.8088	0.7686	0.7979	0.105
Mof_H 	H 	0.8017	0.8171	0.736	0.107
Mof_H 	H 	0.8706	0.8746	0.809	-0.065
Mof_H 	H 	0.8342	0.9268	0.7586	-0.052
Mof_H 	H 	0.9808	0.9544	0.7323	0.238
Mof_H 	H 	0.9938	0.8622	0.7341	0.252
Mof_H 	H 	0.9579	0.9193	0.6856	0.269
Mof_C 	C 	0.9054	0.6026	0.7296	-0.008
Mof_C 	C 	0.8747	0.5263	0.7219	-0.237
Mof_C 	C 	0.9321	0.4645	0.7517	0.164
Mof_C 	C 	0.9947	0.4613	0.6951	-0.513
Mof_C 	C 	0.7832	0.6272	0.8081	0.005
Mof_C 	C 	0.8309	0.5927	0.8575	-0.252
Mof_C 	C 	0.7517	0.5773	0.912	0.148
Mof_C 	C 	0.7507	0.5267	0.9773	-0.572
Mof_C 	C 	0.7906	0.6788	0.7053	0.51
Mof_C 	C 	0.8329	0.7169	0.6449	-1.009
Mof_C 	C 	0.7751	0.7275	0.6035	1.197
Mof_C 	C 	0.818	0.7594	0.5408	-1.855
Mof_C 	C 	0.8963	0.7363	0.7302	0.017
Mof_C 	C 	0.8406	0.8006	0.7589	-0.27
Mof_C 	C 	0.8705	0.8833	0.7682	0.24
Mof_C 	C 	0.9593	0.9071	0.726	-0.731
Mof_N 	N 	0.8398	0.666	0.7448	-0.191
_end
