data_functionalizedCrystal
_audit_creation_method	'EQeq! by Chris Wilmer'
_symmetry_space_group_name_H-M	'P1'
_symmetry_Int_Tables_number	1
_symmetry_cell_setting	triclinic
loop_
_symmetry_equiv_pos_as_xyz
  x,y,z
_cell_length_a	15.577
_cell_length_b	16.394
_cell_length_c	12.593
_cell_angle_alpha	90
_cell_angle_beta	92.84
_cell_angle_gamma	90
loop_
_atom_site_label
_atom_site_type_symbol
_atom_site_fract_x
_atom_site_fract_y
_atom_site_fract_z
_atom_site_charge
Mof_Gd	Gd	0.12131	0.188	0.90939	1.92
Mof_S 	S 	0.10586	0.21912	0.66557	0.77
Mof_S 	S 	0.18587	0.34943	0.0762	0.8
Mof_O 	O 	0.0545	0.0617	0.9002	-0.43
Mof_O 	O 	0.102	0.1412	0.7262	-0.537
Mof_O 	O 	0.086	0.144	0.0754	-0.436
Mof_O 	O 	0.0224	0.2333	0.6079	-0.5
Mof_O 	O 	0.1312	0.3169	0.99	-0.467
Mof_O 	O 	0.1212	0.2827	0.7488	-0.385
Mof_O 	O 	0.0737	0.0428	0.1853	-0.339
Mof_O 	O 	0.1746	0.2178	0.5939	-0.252
Mof_O 	O 	0.2562	0.3976	0.0356	-0.444
Mof_C 	C 	0.0656	0.0731	0.0949	0.404
Mof_O 	O 	0.1315	0.3916	0.1471	-0.258
Mof_O 	O 	0.2308	0.2828	0.1317	-0.463
Mof_C 	C 	0.0374	0.0204	0.9964	-0.102
Mof_H 	H 	0.0801	0.9764	0.9987	0.08
Mof_Gd	Gd	0.62131	0.688	0.90939	1.965
Mof_S 	S 	0.60586	0.71912	0.66557	0.768
Mof_S 	S 	0.68587	0.84943	0.0762	0.794
Mof_O 	O 	0.5545	0.5617	0.9002	-0.443
Mof_O 	O 	0.602	0.6412	0.7262	-0.535
Mof_O 	O 	0.586	0.644	0.0754	-0.425
Mof_O 	O 	0.5224	0.7333	0.6079	-0.461
Mof_O 	O 	0.6312	0.8169	0.99	-0.455
Mof_O 	O 	0.6212	0.7827	0.7488	-0.374
Mof_O 	O 	0.5737	0.5428	0.1853	-0.327
Mof_O 	O 	0.6746	0.7178	0.5939	-0.242
Mof_O 	O 	0.7562	0.8976	0.0356	-0.445
Mof_C 	C 	0.5656	0.5731	0.0949	0.387
Mof_O 	O 	0.6315	0.8916	0.1471	-0.242
Mof_O 	O 	0.7308	0.7828	0.1317	-0.463
Mof_C 	C 	0.5374	0.5204	0.9964	-0.002
Mof_H 	H 	0.5801	0.4764	0.9987	0.06
Mof_Gd	Gd	0.87869	0.188	0.59061	2.006
Mof_S 	S 	0.89414	0.21912	0.83443	0.759
Mof_S 	S 	0.81413	0.34943	0.4238	0.797
Mof_O 	O 	0.9455	0.0617	0.5998	-0.429
Mof_O 	O 	0.898	0.1412	0.7738	-0.513
Mof_O 	O 	0.914	0.144	0.4246	-0.41
Mof_O 	O 	0.9776	0.2333	0.8921	-0.418
Mof_O 	O 	0.8688	0.3169	0.51	-0.449
Mof_O 	O 	0.8788	0.2827	0.7512	-0.363
Mof_O 	O 	0.9263	0.0428	0.3147	-0.291
Mof_O 	O 	0.8254	0.2178	0.9061	-0.237
Mof_O 	O 	0.7438	0.3976	0.4644	-0.437
Mof_C 	C 	0.9344	0.0731	0.4051	0.372
Mof_O 	O 	0.8685	0.3916	0.3529	-0.227
Mof_O 	O 	0.7692	0.2828	0.3683	-0.458
Mof_C 	C 	0.9626	0.0204	0.5036	0.081
Mof_H 	H 	0.9199	0.9764	0.5013	0.047
Mof_Gd	Gd	0.37869	0.688	0.59061	1.961
Mof_S 	S 	0.39414	0.71912	0.83443	0.769
Mof_S 	S 	0.31413	0.84943	0.4238	0.798
Mof_O 	O 	0.4455	0.5617	0.5998	-0.442
Mof_O 	O 	0.398	0.6412	0.7738	-0.537
Mof_O 	O 	0.414	0.644	0.4246	-0.424
Mof_O 	O 	0.4776	0.7333	0.8921	-0.461
Mof_O 	O 	0.3688	0.8169	0.51	-0.458
Mof_O 	O 	0.3788	0.7827	0.7512	-0.375
Mof_O 	O 	0.4263	0.5428	0.3147	-0.33
Mof_O 	O 	0.3254	0.7178	0.9061	-0.248
Mof_O 	O 	0.2438	0.8976	0.4644	-0.437
Mof_C 	C 	0.4344	0.5731	0.4051	0.39
Mof_O 	O 	0.3685	0.8916	0.3529	-0.243
Mof_O 	O 	0.2692	0.7828	0.3683	-0.457
Mof_C 	C 	0.4626	0.5204	0.5036	-0.01
Mof_H 	H 	0.4199	0.4764	0.5013	0.059
Mof_Gd	Gd	0.87869	0.812	0.09061	1.999
Mof_S 	S 	0.89414	0.78088	0.33443	0.76
Mof_S 	S 	0.81413	0.65057	0.9238	0.803
Mof_O 	O 	0.9455	0.9383	0.0998	-0.428
Mof_O 	O 	0.898	0.8588	0.2738	-0.514
Mof_O 	O 	0.914	0.856	0.9246	-0.408
Mof_O 	O 	0.9776	0.7667	0.3921	-0.419
Mof_O 	O 	0.8688	0.6831	0.01	-0.454
Mof_O 	O 	0.8788	0.7173	0.2512	-0.363
Mof_O 	O 	0.9263	0.9572	0.8147	-0.291
Mof_O 	O 	0.8254	0.7822	0.4061	-0.237
Mof_O 	O 	0.7438	0.6024	0.9644	-0.437
Mof_C 	C 	0.9344	0.9269	0.9051	0.379
Mof_O 	O 	0.8685	0.6084	0.8529	-0.227
Mof_O 	O 	0.7692	0.7172	0.8683	-0.459
Mof_C 	C 	0.9626	0.9796	0.0036	0.07
Mof_H 	H 	0.9199	0.0236	0.0013	0.049
Mof_Gd	Gd	0.37869	0.312	0.09061	1.959
Mof_S 	S 	0.39414	0.28088	0.33443	0.769
Mof_S 	S 	0.31413	0.15057	0.9238	0.8
Mof_O 	O 	0.4455	0.4383	0.0998	-0.441
Mof_O 	O 	0.398	0.3588	0.2738	-0.537
Mof_O 	O 	0.414	0.356	0.9246	-0.424
Mof_O 	O 	0.4776	0.2667	0.3921	-0.462
Mof_O 	O 	0.3688	0.1831	0.01	-0.46
Mof_O 	O 	0.3788	0.2173	0.2512	-0.376
Mof_O 	O 	0.4263	0.4572	0.8147	-0.331
Mof_O 	O 	0.3254	0.2822	0.4061	-0.249
Mof_O 	O 	0.2438	0.1024	0.9644	-0.437
Mof_C 	C 	0.4344	0.4269	0.9051	0.395
Mof_O 	O 	0.3685	0.1084	0.8529	-0.243
Mof_O 	O 	0.2692	0.2172	0.8683	-0.457
Mof_C 	C 	0.4626	0.4796	0.0036	-0.019
Mof_H 	H 	0.4199	0.5236	0.0013	0.061
Mof_Gd	Gd	0.12131	0.812	0.40939	1.919
Mof_S 	S 	0.10586	0.78088	0.16557	0.77
Mof_S 	S 	0.18587	0.65057	0.5762	0.802
Mof_O 	O 	0.0545	0.9383	0.4002	-0.429
Mof_O 	O 	0.102	0.8588	0.2262	-0.537
Mof_O 	O 	0.086	0.856	0.5754	-0.435
Mof_O 	O 	0.0224	0.7667	0.1079	-0.499
Mof_O 	O 	0.1312	0.6831	0.49	-0.469
Mof_O 	O 	0.1212	0.7173	0.2488	-0.385
Mof_O 	O 	0.0737	0.9572	0.6853	-0.339
Mof_O 	O 	0.1746	0.7822	0.0939	-0.253
Mof_O 	O 	0.2562	0.6024	0.5356	-0.444
Mof_C 	C 	0.0656	0.9269	0.5949	0.403
Mof_O 	O 	0.1315	0.6084	0.6471	-0.258
Mof_O 	O 	0.2308	0.7172	0.6317	-0.463
Mof_C 	C 	0.0374	0.9796	0.4964	-0.103
Mof_H 	H 	0.0801	0.0236	0.4987	0.077
Mof_Gd	Gd	0.62131	0.312	0.40939	1.962
Mof_S 	S 	0.60586	0.28088	0.16557	0.768
Mof_S 	S 	0.68587	0.15057	0.5762	0.8
Mof_O 	O 	0.5545	0.4383	0.4002	-0.442
Mof_O 	O 	0.602	0.3588	0.2262	-0.535
Mof_O 	O 	0.586	0.356	0.5754	-0.424
Mof_O 	O 	0.5224	0.2667	0.1079	-0.462
Mof_O 	O 	0.6312	0.1831	0.49	-0.46
Mof_O 	O 	0.6212	0.2173	0.2488	-0.374
Mof_O 	O 	0.5737	0.4572	0.6853	-0.328
Mof_O 	O 	0.6746	0.2822	0.0939	-0.244
Mof_O 	O 	0.7562	0.1024	0.5356	-0.444
Mof_C 	C 	0.5656	0.4269	0.5949	0.391
Mof_O 	O 	0.6315	0.1084	0.6471	-0.243
Mof_O 	O 	0.7308	0.2172	0.6317	-0.464
Mof_C 	C 	0.5374	0.4796	0.4964	-0.012
Mof_H 	H 	0.5801	0.5236	0.4987	0.061
Mof_Fe	Fe	4.42442e-18	0.0484	0.75	0.811
Mof_Fe	Fe	0.5	0.5484	0.75	0.896
Mof_Fe	Fe	7.95333e-34	0.9516	0.25	0.814
Mof_Fe	Fe	0.5	0.4516	0.25	0.895
_end
