data_functionalizedCrystal
_audit_creation_method	'EQeq! by Chris Wilmer'
_symmetry_space_group_name_H-M	'P1'
_symmetry_Int_Tables_number	1
_symmetry_cell_setting	triclinic
loop_
_symmetry_equiv_pos_as_xyz
  x,y,z
_cell_length_a	18.6069
_cell_length_b	18.6069
_cell_length_c	18.6069
_cell_angle_alpha	60
_cell_angle_beta	60
_cell_angle_gamma	60
loop_
_atom_site_label
_atom_site_type_symbol
_atom_site_fract_x
_atom_site_fract_y
_atom_site_fract_z
_atom_site_charge
Mof_Cu	Cu	0.5	0.5	0.07056	0.906
Mof_Cu	Cu	0.5	0.5	0.92944	0.906
Mof_Cu	Cu	0.07056	0.92944	0.5	0.906
Mof_Cu	Cu	0.92944	0.07056	0.5	0.906
Mof_Cu	Cu	0.5	0.07056	0.92944	0.906
Mof_Cu	Cu	0.5	0.92944	0.07056	0.906
Mof_Cu	Cu	0.07056	0.5	0.5	0.905
Mof_Cu	Cu	0.92944	0.5	0.5	0.905
Mof_Cu	Cu	0.5	0.92944	0.5	0.905
Mof_Cu	Cu	0.5	0.07056	0.5	0.905
Mof_Cu	Cu	0.07056	0.5	0.92944	0.905
Mof_Cu	Cu	0.92944	0.5	0.07056	0.905
Mof_H 	H 	0.4666	0.7722	0.989	0.047
Mof_H 	H 	0.7722	0.4666	0.7722	0.048
Mof_H 	H 	0.989	0.7722	0.4666	0.047
Mof_H 	H 	0.7722	0.989	0.7722	0.048
Mof_H 	H 	0.4666	0.989	0.7722	0.047
Mof_H 	H 	0.7722	0.7722	0.989	0.048
Mof_H 	H 	0.989	0.4666	0.7722	0.047
Mof_H 	H 	0.7722	0.7722	0.4666	0.048
Mof_H 	H 	0.4666	0.7722	0.7722	0.048
Mof_H 	H 	0.7722	0.989	0.4666	0.047
Mof_H 	H 	0.989	0.7722	0.7722	0.048
Mof_H 	H 	0.7722	0.4666	0.989	0.047
Mof_H 	H 	0.2278	0.5334	0.011	0.047
Mof_H 	H 	0.5334	0.2278	0.2278	0.048
Mof_H 	H 	0.2278	0.011	0.5334	0.047
Mof_H 	H 	0.011	0.2278	0.2278	0.048
Mof_H 	H 	0.011	0.5334	0.2278	0.047
Mof_H 	H 	0.2278	0.2278	0.011	0.048
Mof_H 	H 	0.5334	0.011	0.2278	0.047
Mof_H 	H 	0.2278	0.2278	0.5334	0.048
Mof_H 	H 	0.2278	0.5334	0.2278	0.048
Mof_H 	H 	0.011	0.2278	0.5334	0.047
Mof_H 	H 	0.2278	0.011	0.2278	0.048
Mof_H 	H 	0.5334	0.2278	0.011	0.047
Mof_C 	C 	0.47414	0.66286	0.9315	0.359
Mof_C 	C 	0.4653	0.7581	0.8883	-0.105
Mof_C 	C 	0.66286	0.47414	0.9315	0.359
Mof_C 	C 	0.7581	0.4653	0.8883	-0.105
Mof_C 	C 	0.9315	0.9315	0.47414	0.346
Mof_C 	C 	0.8883	0.8883	0.4653	-0.102
Mof_C 	C 	0.9315	0.9315	0.66286	0.338
Mof_C 	C 	0.8883	0.8883	0.7581	-0.098
Mof_C 	C 	0.47414	0.9315	0.9315	0.346
Mof_C 	C 	0.4653	0.8883	0.8883	-0.102
Mof_C 	C 	0.66286	0.9315	0.9315	0.338
Mof_C 	C 	0.7581	0.8883	0.8883	-0.098
Mof_C 	C 	0.9315	0.47414	0.66286	0.359
Mof_C 	C 	0.8883	0.4653	0.7581	-0.105
Mof_C 	C 	0.9315	0.66286	0.47414	0.359
Mof_C 	C 	0.8883	0.7581	0.4653	-0.105
Mof_C 	C 	0.47414	0.9315	0.66286	0.359
Mof_C 	C 	0.4653	0.8883	0.7581	-0.105
Mof_C 	C 	0.66286	0.9315	0.47414	0.359
Mof_C 	C 	0.7581	0.8883	0.4653	-0.105
Mof_C 	C 	0.9315	0.66286	0.9315	0.338
Mof_C 	C 	0.8883	0.7581	0.8883	-0.098
Mof_C 	C 	0.9315	0.47414	0.9315	0.346
Mof_C 	C 	0.8883	0.4653	0.8883	-0.102
Mof_C 	C 	0.33714	0.52586	0.0685	0.359
Mof_C 	C 	0.2419	0.5347	0.1117	-0.105
Mof_C 	C 	0.52586	0.33714	0.0685	0.359
Mof_C 	C 	0.5347	0.2419	0.1117	-0.105
Mof_C 	C 	0.0685	0.0685	0.52586	0.346
Mof_C 	C 	0.1117	0.1117	0.5347	-0.102
Mof_C 	C 	0.0685	0.0685	0.33714	0.338
Mof_C 	C 	0.1117	0.1117	0.2419	-0.098
Mof_C 	C 	0.0685	0.52586	0.0685	0.346
Mof_C 	C 	0.1117	0.5347	0.1117	-0.102
Mof_C 	C 	0.0685	0.33714	0.0685	0.338
Mof_C 	C 	0.1117	0.2419	0.1117	-0.098
Mof_C 	C 	0.52586	0.0685	0.33714	0.359
Mof_C 	C 	0.5347	0.1117	0.2419	-0.105
Mof_C 	C 	0.33714	0.0685	0.52586	0.359
Mof_C 	C 	0.2419	0.1117	0.5347	-0.105
Mof_C 	C 	0.0685	0.52586	0.33714	0.359
Mof_C 	C 	0.1117	0.5347	0.2419	-0.105
Mof_C 	C 	0.0685	0.33714	0.52586	0.359
Mof_C 	C 	0.1117	0.2419	0.5347	-0.105
Mof_C 	C 	0.33714	0.0685	0.0685	0.338
Mof_C 	C 	0.2419	0.1117	0.1117	-0.098
Mof_C 	C 	0.52586	0.0685	0.0685	0.346
Mof_C 	C 	0.5347	0.1117	0.1117	-0.102
Mof_C 	C 	0.4659	0.8013	0.9315	0.048
Mof_C 	C 	0.8013	0.4659	0.8013	0.05
Mof_C 	C 	0.9315	0.8013	0.4659	0.048
Mof_C 	C 	0.8013	0.9315	0.8013	0.041
Mof_C 	C 	0.4659	0.9315	0.8013	0.048
Mof_C 	C 	0.8013	0.8013	0.9315	0.041
Mof_C 	C 	0.9315	0.4659	0.8013	0.048
Mof_C 	C 	0.8013	0.8013	0.4659	0.05
Mof_C 	C 	0.4659	0.8013	0.8013	0.05
Mof_C 	C 	0.8013	0.9315	0.4659	0.048
Mof_C 	C 	0.9315	0.8013	0.8013	0.041
Mof_C 	C 	0.8013	0.4659	0.9315	0.048
Mof_C 	C 	0.1987	0.5341	0.0685	0.048
Mof_C 	C 	0.5341	0.1987	0.1987	0.05
Mof_C 	C 	0.1987	0.0685	0.5341	0.048
Mof_C 	C 	0.0685	0.1987	0.1987	0.041
Mof_C 	C 	0.0685	0.5341	0.1987	0.048
Mof_C 	C 	0.1987	0.1987	0.0685	0.041
Mof_C 	C 	0.5341	0.0685	0.1987	0.048
Mof_C 	C 	0.1987	0.1987	0.5341	0.05
Mof_C 	C 	0.1987	0.5341	0.1987	0.05
Mof_C 	C 	0.0685	0.1987	0.5341	0.048
Mof_C 	C 	0.1987	0.0685	0.1987	0.041
Mof_C 	C 	0.5341	0.1987	0.0685	0.048
Mof_O 	O 	0.47922	0.62612	0.00784	-0.401
Mof_O 	O 	0.62612	0.47922	0.88682	-0.403
Mof_O 	O 	0.00784	0.88682	0.47922	-0.395
Mof_O 	O 	0.88682	0.00784	0.62612	-0.391
Mof_O 	O 	0.47922	0.00784	0.88682	-0.395
Mof_O 	O 	0.62612	0.88682	0.00784	-0.391
Mof_O 	O 	0.00784	0.47922	0.62612	-0.401
Mof_O 	O 	0.88682	0.62612	0.47922	-0.403
Mof_O 	O 	0.47922	0.88682	0.62612	-0.403
Mof_O 	O 	0.62612	0.00784	0.47922	-0.401
Mof_O 	O 	0.00784	0.62612	0.88682	-0.391
Mof_O 	O 	0.88682	0.47922	0.00784	-0.395
Mof_O 	O 	0.37388	0.52078	0.99216	-0.401
Mof_O 	O 	0.52078	0.37388	0.11318	-0.403
Mof_O 	O 	0.11318	0.99216	0.52078	-0.395
Mof_O 	O 	0.99216	0.11318	0.37388	-0.391
Mof_O 	O 	0.99216	0.52078	0.11318	-0.395
Mof_O 	O 	0.11318	0.37388	0.99216	-0.391
Mof_O 	O 	0.52078	0.99216	0.37388	-0.401
Mof_O 	O 	0.37388	0.11318	0.52078	-0.403
Mof_O 	O 	0.11318	0.52078	0.37388	-0.403
Mof_O 	O 	0.99216	0.37388	0.52078	-0.401
Mof_O 	O 	0.37388	0.99216	0.11318	-0.391
Mof_O 	O 	0.52078	0.11318	0.99216	-0.395
Mof_O 	O 	0.52078	0.37388	0.99216	-0.401
Mof_O 	O 	0.37388	0.52078	0.11318	-0.403
Mof_O 	O 	0.99216	0.11318	0.52078	-0.395
Mof_O 	O 	0.11318	0.99216	0.37388	-0.391
Mof_O 	O 	0.52078	0.99216	0.11318	-0.395
Mof_O 	O 	0.37388	0.11318	0.99216	-0.391
Mof_O 	O 	0.99216	0.52078	0.37388	-0.401
Mof_O 	O 	0.11318	0.37388	0.52078	-0.403
Mof_O 	O 	0.52078	0.11318	0.37388	-0.403
Mof_O 	O 	0.37388	0.99216	0.52078	-0.401
Mof_O 	O 	0.99216	0.37388	0.11318	-0.391
Mof_O 	O 	0.11318	0.52078	0.99216	-0.395
Mof_O 	O 	0.62612	0.47922	0.00784	-0.401
Mof_O 	O 	0.47922	0.62612	0.88682	-0.403
Mof_O 	O 	0.88682	0.00784	0.47922	-0.395
Mof_O 	O 	0.00784	0.88682	0.62612	-0.391
Mof_O 	O 	0.00784	0.47922	0.88682	-0.395
Mof_O 	O 	0.88682	0.62612	0.00784	-0.391
Mof_O 	O 	0.47922	0.00784	0.62612	-0.401
Mof_O 	O 	0.62612	0.88682	0.47922	-0.403
Mof_O 	O 	0.88682	0.47922	0.62612	-0.403
Mof_O 	O 	0.00784	0.62612	0.47922	-0.401
Mof_O 	O 	0.62612	0.00784	0.88682	-0.391
Mof_O 	O 	0.47922	0.88682	0.00784	-0.395
_end
