# CIF file generated by openbabel 3.1.0, see https://openbabel.org
data_I
_chemical_name_common 'GAMTAQ_clean'
_cell_length_a 8.618
_cell_length_b 11.028
_cell_length_c 11.126
_cell_angle_alpha 64.06
_cell_angle_beta 80.57
_cell_angle_gamma 73.21
_space_group_name_H-M_alt 'P 1'
_space_group_name_Hall 'P 1'
loop_
    _symmetry_equiv_pos_as_xyz
    x,y,z
loop_
    _atom_site_label
    _atom_site_type_symbol
    _atom_site_fract_x
    _atom_site_fract_y
    _atom_site_fract_z
    _atom_site_occupancy
    La1      La       0.75348    0.49366    0.99858    1.000
    La2      La       0.24652    0.50634    0.00142    1.000
    H1       H        0.74590    0.55240    0.47410    1.000
    H2       H        0.40520    0.88940    0.48390    1.000
    H3       H        0.74040    0.93450    0.17800    1.000
    H4       H        0.98770    0.60040    0.31040    1.000
    H5       H        0.96260    0.74490    0.18080    1.000
    H6       H        0.37710    0.66840    0.63840    1.000
    H7       H        0.48210    0.53250    0.61850    1.000
    H8       H        0.43900    0.12120    0.33010    1.000
    H9       H        0.56980    0.13940    0.20780    1.000
    H10      H        0.25410    0.44760    0.52590    1.000
    H11      H        0.59480    0.11060    0.51610    1.000
    H12      H        0.25960    0.06550    0.82200    1.000
    H13      H        0.01230    0.39960    0.68960    1.000
    H14      H        0.03740    0.25510    0.81920    1.000
    H15      H        0.62290    0.33160    0.36160    1.000
    H16      H        0.51790    0.46750    0.38150    1.000
    H17      H        0.56100    0.87880    0.66990    1.000
    H18      H        0.43020    0.86060    0.79220    1.000
    C1       C        0.76610    0.73500    0.31510    1.000
    C2       C        0.69890    0.64970    0.43520    1.000
    C3       C        0.56390    0.70700    0.49740    1.000
    C4       C        0.49670    0.85000    0.44060    1.000
    C5       C        0.56200    0.93640    0.32060    1.000
    C6       C        0.69560    0.87680    0.25980    1.000
    C7       C        0.90830    0.67150    0.24370    1.000
    C8       C        0.85960    0.60480    0.16730    1.000
    C9       C        0.48900    0.61690    0.62620    1.000
    C10      C        0.58170    0.57260    0.74950    1.000
    C11      C        0.48450    0.08990    0.25790    1.000
    C12      C        0.35000    0.13220    0.16310    1.000
    C13      C        0.23390    0.26500    0.68490    1.000
    C14      C        0.30110    0.35030    0.56480    1.000
    C15      C        0.43610    0.29300    0.50260    1.000
    C16      C        0.50330    0.15000    0.55940    1.000
    C17      C        0.43800    0.06360    0.67940    1.000
    C18      C        0.30440    0.12320    0.74020    1.000
    C19      C        0.09170    0.32850    0.75630    1.000
    C20      C        0.14040    0.39520    0.83270    1.000
    C21      C        0.51100    0.38310    0.37380    1.000
    C22      C        0.41830    0.42740    0.25050    1.000
    C23      C        0.51550    0.91010    0.74210    1.000
    C24      C        0.65000    0.86780    0.83690    1.000
    O1       O        0.71920    0.59100    0.17700    1.000
    O2       O        0.96810    0.56220    0.09130    1.000
    O3       O        0.50220    0.54840    0.86290    1.000
    O4       O        0.73120    0.55790    0.74360    1.000
    O5       O        0.27780    0.25980    0.11810    1.000
    O6       O        0.31660    0.04580    0.13610    1.000
    O7       O        0.28080    0.40900    0.82300    1.000
    O8       O        0.03190    0.43780    0.90870    1.000
    O9       O        0.49780    0.45160    0.13710    1.000
    O10      O        0.26880    0.44210    0.25640    1.000
    O11      O        0.72220    0.74020    0.88190    1.000
    O12      O        0.68340    0.95420    0.86390    1.000
