# CIF file generated by openbabel 3.1.0, see https://openbabel.org
data_I
_chemical_name_common 'image0'
_cell_length_a 10.0173
_cell_length_b 19.8278
_cell_length_c 10.0473
_cell_angle_alpha 90
_cell_angle_beta 113.771
_cell_angle_gamma 90
_space_group_name_H-M_alt 'P 1'
_space_group_name_Hall 'P 1'
loop_
    _symmetry_equiv_pos_as_xyz
    x,y,z
loop_
    _atom_site_label
    _atom_site_type_symbol
    _atom_site_fract_x
    _atom_site_fract_y
    _atom_site_fract_z
    _atom_site_occupancy
    C1       C        0.46600    0.06193    0.04420    1.000
    V1       V        0.28701    0.25997    0.73871    1.000
    V2       V        0.26825    0.10894    0.49708    1.000
    P1       P        0.00944    0.36448    0.67902    1.000
    P2       P        0.51163    0.13468    0.82832    1.000
    F1       F        0.19426    0.19330    0.58641    1.000
    F2       F        0.34077    0.31324    0.91588    1.000
    F3       F        0.19739    0.05531    0.59976    1.000
    O1       O        0.10650    0.31496    0.64370    1.000
    O2       O        0.85190    0.34022    0.63020    1.000
    O3       O        0.06510    0.37979    0.84220    1.000
    O4       O        0.46350    0.11777    0.66700    1.000
    O5       O        0.67180    0.15704    0.88100    1.000
    O6       O        0.41590    0.18663    0.85860    1.000
    C2       C        0.00590    0.44103    0.58020    1.000
    C3       C        0.10380    0.45093    0.51500    1.000
    H1       H        0.17530    0.41760    0.52510    1.000
    C4       C        0.90220    0.49089    0.56450    1.000
    H2       H        0.83510    0.48500    0.60860    1.000
    C5       C        0.50290    0.05911    0.92380    1.000
    C6       C        0.46240    0.00349    0.11950    1.000
    H3       H        0.43640    0.00600    0.20050    1.000
    H4       H        0.44310    0.10410    0.07470    1.000
    H5       H        0.74700    0.16200    0.98800    1.000
    C7       C        0.53400    0.56193    0.45580    1.000
    V3       V        0.71299    0.75997    0.76129    1.000
    V4       V        0.73175    0.60894    0.00292    1.000
    P3       P        0.99056    0.86448    0.82098    1.000
    P4       P        0.48837    0.63468    0.67168    1.000
    F4       F        0.80574    0.69330    0.91359    1.000
    F5       F        0.65923    0.81324    0.58412    1.000
    F6       F        0.80261    0.55531    0.90024    1.000
    O7       O        0.89350    0.81496    0.85630    1.000
    O8       O        0.14810    0.84022    0.86980    1.000
    O9       O        0.93490    0.87979    0.65780    1.000
    O10      O        0.53650    0.61777    0.83300    1.000
    O11      O        0.32820    0.65704    0.61900    1.000
    O12      O        0.58410    0.68663    0.64140    1.000
    C8       C        0.99410    0.94103    0.91980    1.000
    C9       C        0.89620    0.95093    0.98500    1.000
    H6       H        0.82470    0.91760    0.97490    1.000
    C10      C        0.09780    0.99089    0.93550    1.000
    H7       H        0.16490    0.98500    0.89140    1.000
    C11      C        0.49710    0.55911    0.57620    1.000
    C12      C        0.53760    0.50349    0.38050    1.000
    H8       H        0.56360    0.50600    0.29950    1.000
    H9       H        0.55690    0.60410    0.42530    1.000
    H10      H        0.25300    0.66200    0.51200    1.000
    C13      C        0.53400    0.93807    0.95580    1.000
    V5       V        0.71299    0.74003    0.26129    1.000
    V6       V        0.73175    0.89106    0.50292    1.000
    P5       P        0.99056    0.63552    0.32098    1.000
    P6       P        0.48837    0.86532    0.17168    1.000
    F7       F        0.80574    0.80670    0.41359    1.000
    F8       F        0.65923    0.68676    0.08412    1.000
    F9       F        0.80261    0.94469    0.40024    1.000
    O13      O        0.89350    0.68504    0.35630    1.000
    O14      O        0.14810    0.65978    0.36980    1.000
    O15      O        0.93490    0.62021    0.15780    1.000
    O16      O        0.53650    0.88223    0.33300    1.000
    O17      O        0.32820    0.84296    0.11900    1.000
    O18      O        0.58410    0.81337    0.14140    1.000
    C14      C        0.99410    0.55897    0.41980    1.000
    C15      C        0.89620    0.54907    0.48500    1.000
    H11      H        0.82470    0.58240    0.47490    1.000
    C16      C        0.09780    0.50911    0.43550    1.000
    H12      H        0.16490    0.51500    0.39140    1.000
    C17      C        0.49710    0.94089    0.07620    1.000
    C18      C        0.53760    0.99651    0.88050    1.000
    H13      H        0.56360    0.99400    0.79950    1.000
    H14      H        0.55690    0.89590    0.92530    1.000
    H15      H        0.25300    0.83800    0.01200    1.000
    C19      C        0.46600    0.43807    0.54420    1.000
    V7       V        0.28701    0.24003    0.23871    1.000
    V8       V        0.26825    0.39106    0.99708    1.000
    P7       P        0.00944    0.13552    0.17902    1.000
    P8       P        0.51163    0.36532    0.32832    1.000
    F10      F        0.19426    0.30670    0.08641    1.000
    F11      F        0.34077    0.18676    0.41588    1.000
    F12      F        0.19739    0.44469    0.09976    1.000
    O19      O        0.10650    0.18504    0.14370    1.000
    O20      O        0.85190    0.15978    0.13020    1.000
    O21      O        0.06510    0.12021    0.34220    1.000
    O22      O        0.46350    0.38223    0.16700    1.000
    O23      O        0.67180    0.34296    0.38100    1.000
    O24      O        0.41590    0.31337    0.35860    1.000
    C20      C        0.00590    0.05897    0.08020    1.000
    C21      C        0.10380    0.04907    0.01500    1.000
    H16      H        0.17530    0.08240    0.02510    1.000
    C22      C        0.90220    0.00911    0.06450    1.000
    H17      H        0.83510    0.01500    0.10860    1.000
    C23      C        0.50290    0.44089    0.42380    1.000
    C24      C        0.46240    0.49651    0.61950    1.000
    H18      H        0.43640    0.49400    0.70050    1.000
    H19      H        0.44310    0.39590    0.57470    1.000
    H20      H        0.74700    0.33800    0.48800    1.000
