# CIF file generated by openbabel 3.1.0, see https://openbabel.org
data_I
_chemical_name_common 'image0'
_cell_length_a 9.506
_cell_length_b 15.482
_cell_length_c 12.498
_cell_angle_alpha 90
_cell_angle_beta 94.954
_cell_angle_gamma 90
_space_group_name_H-M_alt 'P 1'
_space_group_name_Hall 'P 1'
loop_
    _symmetry_equiv_pos_as_xyz
    x,y,z
loop_
    _atom_site_label
    _atom_site_type_symbol
    _atom_site_fract_x
    _atom_site_fract_y
    _atom_site_fract_z
    _atom_site_occupancy
    Zn1      Zn       0.14014    0.08367    0.45719    1.000
    C1       C        0.27180    0.88980    0.68540    1.000
    C2       C        0.41020    0.90210    0.66160    1.000
    H1       H        0.43110    0.94430    0.61240    1.000
    C3       C        0.51830    0.85140    0.71160    1.000
    C4       C        0.48700    0.79090    0.78790    1.000
    H2       H        0.55910    0.75780    0.82200    1.000
    C5       C        0.34840    0.77910    0.81410    1.000
    C6       C        0.24170    0.82840    0.76180    1.000
    H3       H        0.14880    0.82040    0.77790    1.000
    C7       C        0.15250    0.93600    0.62060    1.000
    C8       C        0.66600    0.85850    0.67560    1.000
    C9       C        0.31270    0.71030    0.89280    1.000
    O1       O        0.18690    0.97960    0.54330    1.000
    O2       O        0.02920    0.92380    0.64530    1.000
    O3       O        0.18950    0.68940    0.89910    1.000
    O4       O        0.41630    0.67580    0.94830    1.000
    O5       O        0.75190    0.79960    0.69830    1.000
    O6       O        0.69040    0.92290    0.61920    1.000
    Zn2      Zn       0.35986    0.58367    0.04281    1.000
    C10      C        0.22820    0.38980    0.81460    1.000
    C11      C        0.08980    0.40210    0.83840    1.000
    H4       H        0.06890    0.44430    0.88760    1.000
    C12      C        0.98170    0.35140    0.78840    1.000
    C13      C        0.01300    0.29090    0.71210    1.000
    H5       H        0.94090    0.25780    0.67800    1.000
    C14      C        0.15160    0.27910    0.68590    1.000
    C15      C        0.25830    0.32840    0.73820    1.000
    H6       H        0.35120    0.32040    0.72210    1.000
    C16      C        0.34750    0.43600    0.87940    1.000
    C17      C        0.83400    0.35850    0.82440    1.000
    C18      C        0.18730    0.21030    0.60720    1.000
    O7       O        0.31310    0.47960    0.95670    1.000
    O8       O        0.47080    0.42380    0.85470    1.000
    O9       O        0.31050    0.18940    0.60090    1.000
    O10      O        0.08370    0.17580    0.55170    1.000
    O11      O        0.74810    0.29960    0.80170    1.000
    O12      O        0.80960    0.42290    0.88080    1.000
    Zn3      Zn       0.85986    0.91633    0.54281    1.000
    C19      C        0.72820    0.11020    0.31460    1.000
    C20      C        0.58980    0.09790    0.33840    1.000
    H7       H        0.56890    0.05570    0.38760    1.000
    C21      C        0.48170    0.14860    0.28840    1.000
    C22      C        0.51300    0.20910    0.21210    1.000
    H8       H        0.44090    0.24220    0.17800    1.000
    C23      C        0.65160    0.22090    0.18590    1.000
    C24      C        0.75830    0.17160    0.23820    1.000
    H9       H        0.85120    0.17960    0.22210    1.000
    C25      C        0.84750    0.06400    0.37940    1.000
    C26      C        0.33400    0.14150    0.32440    1.000
    C27      C        0.68730    0.28970    0.10720    1.000
    O13      O        0.81310    0.02040    0.45670    1.000
    O14      O        0.97080    0.07620    0.35470    1.000
    O15      O        0.81050    0.31060    0.10090    1.000
    O16      O        0.58370    0.32420    0.05170    1.000
    O17      O        0.24810    0.20040    0.30170    1.000
    O18      O        0.30960    0.07710    0.38080    1.000
    Zn4      Zn       0.64014    0.41633    0.95719    1.000
    C28      C        0.77180    0.61020    0.18540    1.000
    C29      C        0.91020    0.59790    0.16160    1.000
    H10      H        0.93110    0.55570    0.11240    1.000
    C30      C        0.01830    0.64860    0.21160    1.000
    C31      C        0.98700    0.70910    0.28790    1.000
    H11      H        0.05910    0.74220    0.32200    1.000
    C32      C        0.84840    0.72090    0.31410    1.000
    C33      C        0.74170    0.67160    0.26180    1.000
    H12      H        0.64880    0.67960    0.27790    1.000
    C34      C        0.65250    0.56400    0.12060    1.000
    C35      C        0.16600    0.64150    0.17560    1.000
    C36      C        0.81270    0.78970    0.39280    1.000
    O19      O        0.68690    0.52040    0.04330    1.000
    O20      O        0.52920    0.57620    0.14530    1.000
    O21      O        0.68950    0.81060    0.39910    1.000
    O22      O        0.91630    0.82420    0.44830    1.000
    O23      O        0.25190    0.70040    0.19830    1.000
    O24      O        0.19040    0.57710    0.11920    1.000
