# CIF file generated by openbabel 3.1.0, see https://openbabel.org
data_I
_chemical_name_common 'image0'
_cell_length_a 21.5645
_cell_length_b 21.5645
_cell_length_c 9.4379
_cell_angle_alpha 90
_cell_angle_beta 90
_cell_angle_gamma 120
_space_group_name_H-M_alt 'P 1'
_space_group_name_Hall 'P 1'
loop_
    _symmetry_equiv_pos_as_xyz
    x,y,z
loop_
    _atom_site_label
    _atom_site_type_symbol
    _atom_site_fract_x
    _atom_site_fract_y
    _atom_site_fract_z
    _atom_site_occupancy
    H1       H        0.91500    0.41670    0.10100    1.000
    C1       C        0.96290    0.42600    0.08120    1.000
    O1       O        0.07648    0.47305    0.38180    1.000
    C2       C        0.19836    0.46030    0.37390    1.000
    H2       H        0.17640    0.45990    0.28640    1.000
    H3       H        0.58330    0.49830    0.10100    1.000
    C3       C        0.57400    0.53690    0.08120    1.000
    O2       O        0.52695    0.60343    0.38180    1.000
    C4       C        0.53970    0.73806    0.37390    1.000
    H4       H        0.54010    0.71650    0.28640    1.000
    H5       H        0.50170    0.08500    0.10100    1.000
    C5       C        0.46310    0.03710    0.08120    1.000
    O3       O        0.39657    0.92352    0.38180    1.000
    C6       C        0.26194    0.80164    0.37390    1.000
    H6       H        0.28350    0.82360    0.28640    1.000
    H7       H        0.08500    0.58330    0.10100    1.000
    C7       C        0.03710    0.57400    0.08120    1.000
    O4       O        0.92352    0.52695    0.38180    1.000
    C8       C        0.80164    0.53970    0.37390    1.000
    H8       H        0.82360    0.54010    0.28640    1.000
    H9       H        0.41670    0.50170    0.10100    1.000
    C9       C        0.42600    0.46310    0.08120    1.000
    O5       O        0.47305    0.39657    0.38180    1.000
    C10      C        0.46030    0.26194    0.37390    1.000
    H10      H        0.45990    0.28350    0.28640    1.000
    H11      H        0.49830    0.91500    0.10100    1.000
    C11      C        0.53690    0.96290    0.08120    1.000
    O6       O        0.60343    0.07648    0.38180    1.000
    C12      C        0.73806    0.19836    0.37390    1.000
    H12      H        0.71650    0.17640    0.28640    1.000
    H13      H        0.41670    0.91500    0.89900    1.000
    C13      C        0.42600    0.96290    0.91880    1.000
    O7       O        0.47305    0.07648    0.61820    1.000
    C14      C        0.46030    0.19836    0.62610    1.000
    H14      H        0.45990    0.17640    0.71360    1.000
    H15      H        0.49830    0.58330    0.89900    1.000
    C15      C        0.53690    0.57400    0.91880    1.000
    O8       O        0.60343    0.52695    0.61820    1.000
    C16      C        0.73806    0.53970    0.62610    1.000
    H16      H        0.71650    0.54010    0.71360    1.000
    H17      H        0.08500    0.50170    0.89900    1.000
    C17      C        0.03710    0.46310    0.91880    1.000
    O9       O        0.92352    0.39657    0.61820    1.000
    C18      C        0.80164    0.26194    0.62610    1.000
    H18      H        0.82360    0.28350    0.71360    1.000
    H19      H        0.58330    0.08500    0.89900    1.000
    C19      C        0.57400    0.03710    0.91880    1.000
    O10      O        0.52695    0.92352    0.61820    1.000
    C20      C        0.53970    0.80164    0.62610    1.000
    H20      H        0.54010    0.82360    0.71360    1.000
    H21      H        0.50170    0.41670    0.89900    1.000
    C21      C        0.46310    0.42600    0.91880    1.000
    O11      O        0.39657    0.47305    0.61820    1.000
    C22      C        0.26194    0.46030    0.62610    1.000
    H22      H        0.28350    0.45990    0.71360    1.000
    H23      H        0.91500    0.49830    0.89900    1.000
    C23      C        0.96290    0.53690    0.91880    1.000
    O12      O        0.07648    0.60343    0.61820    1.000
    C24      C        0.19836    0.73806    0.62610    1.000
    H24      H        0.17640    0.71650    0.71360    1.000
    H25      H        0.08500    0.58330    0.89900    1.000
    C25      C        0.03710    0.57400    0.91880    1.000
    O13      O        0.92352    0.52695    0.61820    1.000
    C26      C        0.80164    0.53970    0.62610    1.000
    H26      H        0.82360    0.54010    0.71360    1.000
    H27      H        0.41670    0.50170    0.89900    1.000
    C27      C        0.42600    0.46310    0.91880    1.000
    O14      O        0.47305    0.39657    0.61820    1.000
    C28      C        0.46030    0.26194    0.62610    1.000
    H28      H        0.45990    0.28350    0.71360    1.000
    H29      H        0.49830    0.91500    0.89900    1.000
    C29      C        0.53690    0.96290    0.91880    1.000
    O15      O        0.60343    0.07648    0.61820    1.000
    C30      C        0.73806    0.19836    0.62610    1.000
    H30      H        0.71650    0.17640    0.71360    1.000
    H31      H        0.91500    0.41670    0.89900    1.000
    C31      C        0.96290    0.42600    0.91880    1.000
    O16      O        0.07648    0.47305    0.61820    1.000
    C32      C        0.19836    0.46030    0.62610    1.000
    H32      H        0.17640    0.45990    0.71360    1.000
    H33      H        0.58330    0.49830    0.89900    1.000
    C33      C        0.57400    0.53690    0.91880    1.000
    O17      O        0.52695    0.60343    0.61820    1.000
    C34      C        0.53970    0.73806    0.62610    1.000
    H34      H        0.54010    0.71650    0.71360    1.000
    H35      H        0.50170    0.08500    0.89900    1.000
    C35      C        0.46310    0.03710    0.91880    1.000
    O18      O        0.39657    0.92352    0.61820    1.000
    C36      C        0.26194    0.80164    0.62610    1.000
    H36      H        0.28350    0.82360    0.71360    1.000
    H37      H        0.58330    0.08500    0.10100    1.000
    C37      C        0.57400    0.03710    0.08120    1.000
    O19      O        0.52695    0.92352    0.38180    1.000
    C38      C        0.53970    0.80164    0.37390    1.000
    H38      H        0.54010    0.82360    0.28640    1.000
    H39      H        0.50170    0.41670    0.10100    1.000
    C39      C        0.46310    0.42600    0.08120    1.000
    O20      O        0.39657    0.47305    0.38180    1.000
    C40      C        0.26194    0.46030    0.37390    1.000
    H40      H        0.28350    0.45990    0.28640    1.000
    H41      H        0.91500    0.49830    0.10100    1.000
    C41      C        0.96290    0.53690    0.08120    1.000
    O21      O        0.07648    0.60343    0.38180    1.000
    C42      C        0.19836    0.73806    0.37390    1.000
    H42      H        0.17640    0.71650    0.28640    1.000
    H43      H        0.41670    0.91500    0.10100    1.000
    C43      C        0.42600    0.96290    0.08120    1.000
    O22      O        0.47305    0.07648    0.38180    1.000
    C44      C        0.46030    0.19836    0.37390    1.000
    H44      H        0.45990    0.17640    0.28640    1.000
    H45      H        0.49830    0.58330    0.10100    1.000
    C45      C        0.53690    0.57400    0.08120    1.000
    O23      O        0.60343    0.52695    0.38180    1.000
    C46      C        0.73806    0.53970    0.37390    1.000
    H46      H        0.71650    0.54010    0.28640    1.000
    H47      H        0.08500    0.50170    0.10100    1.000
    C47      C        0.03710    0.46310    0.08120    1.000
    O24      O        0.92352    0.39657    0.38180    1.000
    C48      C        0.80164    0.26194    0.37390    1.000
    H48      H        0.82360    0.28350    0.28640    1.000
    C49      C        0.92390    0.46195    0.08090    1.000
    C50      C        0.53805    0.46195    0.08090    1.000
    C51      C        0.53805    0.07610    0.08090    1.000
    C52      C        0.07610    0.53805    0.08090    1.000
    C53      C        0.46195    0.53805    0.08090    1.000
    C54      C        0.46195    0.92390    0.08090    1.000
    C55      C        0.46195    0.92390    0.91910    1.000
    C56      C        0.46195    0.53805    0.91910    1.000
    C57      C        0.07610    0.53805    0.91910    1.000
    C58      C        0.53805    0.07610    0.91910    1.000
    C59      C        0.53805    0.46195    0.91910    1.000
    C60      C        0.92390    0.46195    0.91910    1.000
    Co1      Co       0.00000    0.50000    0.35855    1.000
    N1       N        0.00000    0.50000    0.13720    1.000
    Co2      Co       0.50000    0.50000    0.35855    1.000
    N2       N        0.50000    0.50000    0.13720    1.000
    Co3      Co       0.50000    0.00000    0.35855    1.000
    N3       N        0.50000    0.00000    0.13720    1.000
    Co4      Co       0.50000    0.00000    0.64145    1.000
    N4       N        0.50000    0.00000    0.86280    1.000
    Co5      Co       0.50000    0.50000    0.64145    1.000
    N5       N        0.50000    0.50000    0.86280    1.000
    Co6      Co       0.00000    0.50000    0.64145    1.000
    N6       N        0.00000    0.50000    0.86280    1.000
    H49      H        0.00000    0.41800    0.09700    1.000
    H50      H        0.58200    0.58200    0.09700    1.000
    H51      H        0.41800    0.00000    0.09700    1.000
    H52      H        0.00000    0.58200    0.09700    1.000
    H53      H        0.41800    0.41800    0.09700    1.000
    H54      H        0.58200    0.00000    0.09700    1.000
    H55      H        0.41800    0.00000    0.90300    1.000
    H56      H        0.58200    0.58200    0.90300    1.000
    H57      H        0.00000    0.41800    0.90300    1.000
    H58      H        0.58200    0.00000    0.90300    1.000
    H59      H        0.41800    0.41800    0.90300    1.000
    H60      H        0.00000    0.58200    0.90300    1.000
    C61      C        0.10160    0.46900    0.50000    1.000
    C62      C        0.16590    0.46080    0.50000    1.000
    C63      C        0.53100    0.63260    0.50000    1.000
    C64      C        0.53920    0.70510    0.50000    1.000
    C65      C        0.36740    0.89840    0.50000    1.000
    C66      C        0.29490    0.83410    0.50000    1.000
    C67      C        0.89840    0.53100    0.50000    1.000
    C68      C        0.83410    0.53920    0.50000    1.000
    C69      C        0.46900    0.36740    0.50000    1.000
    C70      C        0.46080    0.29490    0.50000    1.000
    C71      C        0.63260    0.10160    0.50000    1.000
    C72      C        0.70510    0.16590    0.50000    1.000
    C73      C        0.46900    0.10160    0.50000    1.000
    C74      C        0.46080    0.16590    0.50000    1.000
    C75      C        0.63260    0.53100    0.50000    1.000
    C76      C        0.70510    0.53920    0.50000    1.000
    C77      C        0.89840    0.36740    0.50000    1.000
    C78      C        0.83410    0.29490    0.50000    1.000
    C79      C        0.53100    0.89840    0.50000    1.000
    C80      C        0.53920    0.83410    0.50000    1.000
    C81      C        0.36740    0.46900    0.50000    1.000
    C82      C        0.29490    0.46080    0.50000    1.000
    C83      C        0.10160    0.63260    0.50000    1.000
    C84      C        0.16590    0.70510    0.50000    1.000
