# CIF file generated by openbabel 3.1.0, see https://openbabel.org
data_I
_chemical_name_common 'FAFGAU_clean'
_cell_length_a 8.061
_cell_length_b 8.5497
_cell_length_c 19.74
_cell_angle_alpha 88.2567
_cell_angle_beta 86.3
_cell_angle_gamma 61.8733
_space_group_name_H-M_alt 'P 1'
_space_group_name_Hall 'P 1'
loop_
    _symmetry_equiv_pos_as_xyz
    x,y,z
loop_
    _atom_site_label
    _atom_site_type_symbol
    _atom_site_fract_x
    _atom_site_fract_y
    _atom_site_fract_z
    _atom_site_occupancy
    Nd1      Nd       0.70784    0.07546    0.01188    1.000
    Nd2      Nd       0.21670    0.07546    0.48812    1.000
    Nd3      Nd       0.29216    0.92454    0.98812    1.000
    Nd4      Nd       0.78330    0.92454    0.51188    1.000
    H1       H        0.80700    0.28600    0.16200    1.000
    H2       H        0.99500    0.24400    0.19900    1.000
    H3       H        0.85200    0.54800    0.17500    1.000
    H4       H        0.03000    0.45800    0.12200    1.000
    H5       H        0.65400    0.55600    0.09100    1.000
    H6       H        0.83300    0.46800    0.03800    1.000
    H7       H        0.44400    0.44800    0.20900    1.000
    H8       H        0.25500    0.46600    0.18000    1.000
    H9       H        0.31700    0.19000    0.23300    1.000
    H10      H        0.90700    0.28600    0.33800    1.000
    H11      H        0.76100    0.24400    0.30100    1.000
    H12      H        0.60000    0.54800    0.32500    1.000
    H13      H        0.51200    0.45800    0.37800    1.000
    H14      H        0.79000    0.55600    0.40900    1.000
    H15      H        0.69900    0.46800    0.46200    1.000
    H16      H        0.10800    0.44800    0.29100    1.000
    H17      H        0.27900    0.46600    0.32000    1.000
    H18      H        0.49300    0.19000    0.26700    1.000
    H19      H        0.19300    0.71400    0.83800    1.000
    H20      H        0.00500    0.75600    0.80100    1.000
    H21      H        0.14800    0.45200    0.82500    1.000
    H22      H        0.97000    0.54200    0.87800    1.000
    H23      H        0.34600    0.44400    0.90900    1.000
    H24      H        0.16700    0.53200    0.96200    1.000
    H25      H        0.55600    0.55200    0.79100    1.000
    H26      H        0.74500    0.53400    0.82000    1.000
    H27      H        0.68300    0.81000    0.76700    1.000
    H28      H        0.09300    0.71400    0.66200    1.000
    H29      H        0.23900    0.75600    0.69900    1.000
    H30      H        0.40000    0.45200    0.67500    1.000
    H31      H        0.48800    0.54200    0.62200    1.000
    H32      H        0.21000    0.44400    0.59100    1.000
    H33      H        0.30100    0.53200    0.53800    1.000
    H34      H        0.89200    0.55200    0.70900    1.000
    H35      H        0.72100    0.53400    0.68000    1.000
    H36      H        0.50700    0.81000    0.73300    1.000
    C1       C        0.04690    0.14860    0.10190    1.000
    C2       C        0.93130    0.28140    0.15530    1.000
    C3       C        0.90640    0.46820    0.13540    1.000
    C4       C        0.77730    0.54860    0.07790    1.000
    C5       C        0.75220    0.72740    0.05730    1.000
    C6       C        0.49650    0.27440    0.12980    1.000
    C7       C        0.38340    0.38100    0.19210    1.000
    C8       C        0.80450    0.14860    0.39810    1.000
    C9       C        0.78730    0.28140    0.34470    1.000
    C10      C        0.62540    0.46820    0.36460    1.000
    C11      C        0.67410    0.54860    0.42210    1.000
    C12      C        0.52040    0.72740    0.44270    1.000
    C13      C        0.22910    0.27440    0.37020    1.000
    C14      C        0.23560    0.38100    0.30790    1.000
    C15      C        0.95310    0.85140    0.89810    1.000
    C16      C        0.06870    0.71860    0.84470    1.000
    C17      C        0.09360    0.53180    0.86460    1.000
    C18      C        0.22270    0.45140    0.92210    1.000
    C19      C        0.24780    0.27260    0.94270    1.000
    C20      C        0.50350    0.72560    0.87020    1.000
    C21      C        0.61660    0.61900    0.80790    1.000
    C22      C        0.19550    0.85140    0.60190    1.000
    C23      C        0.21270    0.71860    0.65530    1.000
    C24      C        0.37460    0.53180    0.63540    1.000
    C25      C        0.32590    0.45140    0.57790    1.000
    C26      C        0.47960    0.27260    0.55730    1.000
    C27      C        0.77090    0.72560    0.62980    1.000
    C28      C        0.76440    0.61900    0.69210    1.000
    C29      C        0.36690    0.26620    0.25000    1.000
    C30      C        0.63310    0.73380    0.75000    1.000
    O1       O        0.96840    0.08980    0.06210    1.000
    O2       O        0.78090    0.90160    0.90580    1.000
    O3       O        0.59500    0.83960    0.03400    1.000
    O4       O        0.88280    0.76720    0.06070    1.000
    O5       O        0.59910    0.11040    0.13280    1.000
    O6       O        0.49030    0.35480    0.07400    1.000
    O7       O        0.94180    0.08980    0.43790    1.000
    O8       O        0.31750    0.90160    0.59420    1.000
    O9       O        0.56540    0.83960    0.46600    1.000
    O10      O        0.35000    0.76720    0.43930    1.000
    O11      O        0.29050    0.11040    0.36720    1.000
    O12      O        0.15490    0.35480    0.42600    1.000
    O13      O        0.03160    0.91020    0.93790    1.000
    O14      O        0.21910    0.09840    0.09420    1.000
    O15      O        0.40500    0.16040    0.96600    1.000
    O16      O        0.11720    0.23280    0.93930    1.000
    O17      O        0.40090    0.88960    0.86720    1.000
    O18      O        0.50970    0.64520    0.92600    1.000
    O19      O        0.05820    0.91020    0.56210    1.000
    O20      O        0.68250    0.09840    0.40580    1.000
    O21      O        0.43460    0.16040    0.53400    1.000
    O22      O        0.65000    0.23280    0.56070    1.000
    O23      O        0.70950    0.88960    0.63280    1.000
    O24      O        0.84510    0.64520    0.57400    1.000
