data_functionalizedCrystal
_audit_creation_method	'EQeq! by Chris Wilmer'
_symmetry_space_group_name_H-M	'P1'
_symmetry_Int_Tables_number	1
_symmetry_cell_setting	triclinic
loop_
_symmetry_equiv_pos_as_xyz
  x,y,z
_cell_length_a	16.1871
_cell_length_b	16.3069
_cell_length_c	9.9762
_cell_angle_alpha	90
_cell_angle_beta	114.628
_cell_angle_gamma	90
loop_
_atom_site_label
_atom_site_type_symbol
_atom_site_fract_x
_atom_site_fract_y
_atom_site_fract_z
_atom_site_charge
Mof_C 	C 	0.4204	0.1528	0.3337	0.05
Mof_H 	H 	0.4285	0.0963	0.3365	-0.003
Mof_C 	C 	0.4931	0.20128	0.4161	-0.081
Mof_H 	H 	0.5494	0.178	0.4727	0.077
Mof_C 	C 	0.4812	0.2858	0.4138	-0.017
Mof_C 	C 	0.397	0.3181	0.3249	-0.079
Mof_H 	H 	0.3876	0.3745	0.32	0.065
Mof_C 	C 	0.3274	0.2658	0.2441	0.039
Mof_H 	H 	0.2711	0.2879	0.184	0.006
Mof_C 	C 	0.5585	0.3419	0.5039	0.29
Mof_C 	C 	0.1975	0.98755	0.8965	0.211
Mof_N 	N 	0.33776	0.18363	0.2488	-0.256
Mof_N 	N 	0.24226	0.04886	0.9879	-0.263
Mof_N 	N 	0.31426	0.06762	0.9555	-0.068
Mof_N 	N 	0.31316	0.0207	0.8519	-0.073
Mof_N 	N 	0.23977	0.9687	0.8104	-0.271
Mof_N 	N 	0.1238	0.94967	0.897	-0.347
Mof_H 	H 	0.0997	0.9093	0.8381	0.148
Mof_H 	H 	0.1008	0.9658	0.9562	0.166
Mof_O 	O 	0.63509	0.30625	0.5748	-0.456
Mof_O 	O 	0.54619	0.41627	0.5049	-0.333
Mof_Zn	Zn	0.22743	0.10838	0.14975	1.195
Mof_C 	C 	0.9204	0.6528	0.3337	0.05
Mof_H 	H 	0.9285	0.5963	0.3365	-0.003
Mof_C 	C 	0.9931	0.70128	0.4161	-0.082
Mof_H 	H 	0.0494	0.678	0.4727	0.077
Mof_C 	C 	0.9812	0.7858	0.4138	-0.017
Mof_C 	C 	0.897	0.8181	0.3249	-0.08
Mof_H 	H 	0.8876	0.8745	0.32	0.065
Mof_C 	C 	0.8274	0.7658	0.2441	0.039
Mof_H 	H 	0.7711	0.7879	0.184	0.006
Mof_C 	C 	0.0585	0.8419	0.5039	0.289
Mof_C 	C 	0.6975	0.48755	0.8965	0.214
Mof_N 	N 	0.83776	0.68363	0.2488	-0.255
Mof_N 	N 	0.74226	0.54886	0.9879	-0.265
Mof_N 	N 	0.81426	0.56762	0.9555	-0.068
Mof_N 	N 	0.81316	0.5207	0.8519	-0.075
Mof_N 	N 	0.73977	0.4687	0.8104	-0.271
Mof_N 	N 	0.6238	0.44967	0.897	-0.348
Mof_H 	H 	0.5997	0.4093	0.8381	0.149
Mof_H 	H 	0.6008	0.4658	0.9562	0.168
Mof_O 	O 	0.13509	0.80625	0.5748	-0.456
Mof_O 	O 	0.04619	0.91627	0.5049	-0.333
Mof_Zn	Zn	0.72743	0.60838	0.14975	1.195
Mof_C 	C 	0.4204	0.8472	0.8337	0.049
Mof_H 	H 	0.4285	0.9037	0.8365	-0.003
Mof_C 	C 	0.4931	0.79872	0.9161	-0.081
Mof_H 	H 	0.5494	0.822	0.9727	0.076
Mof_C 	C 	0.4812	0.7142	0.9138	-0.019
Mof_C 	C 	0.397	0.6819	0.8249	-0.079
Mof_H 	H 	0.3876	0.6255	0.82	0.064
Mof_C 	C 	0.3274	0.7342	0.7441	0.039
Mof_H 	H 	0.2711	0.7121	0.684	0.006
Mof_C 	C 	0.5585	0.6581	0.0039	0.291
Mof_C 	C 	0.1975	0.01245	0.3965	0.215
Mof_N 	N 	0.33776	0.81637	0.7488	-0.255
Mof_N 	N 	0.24226	0.95114	0.4879	-0.265
Mof_N 	N 	0.31426	0.93238	0.4555	-0.068
Mof_N 	N 	0.31316	0.9793	0.3519	-0.074
Mof_N 	N 	0.23977	0.0313	0.3104	-0.271
Mof_N 	N 	0.1238	0.05033	0.397	-0.348
Mof_H 	H 	0.0997	0.0907	0.3381	0.149
Mof_H 	H 	0.1008	0.0342	0.4562	0.168
Mof_O 	O 	0.63509	0.69375	0.0748	-0.456
Mof_O 	O 	0.54619	0.58373	0.0049	-0.334
Mof_Zn	Zn	0.22743	0.89162	0.64975	1.195
Mof_C 	C 	0.9204	0.3472	0.8337	0.05
Mof_H 	H 	0.9285	0.4037	0.8365	-0.003
Mof_C 	C 	0.9931	0.29872	0.9161	-0.08
Mof_H 	H 	0.0494	0.322	0.9727	0.076
Mof_C 	C 	0.9812	0.2142	0.9138	-0.016
Mof_C 	C 	0.897	0.1819	0.8249	-0.08
Mof_H 	H 	0.8876	0.1255	0.82	0.065
Mof_C 	C 	0.8274	0.2342	0.7441	0.04
Mof_H 	H 	0.7711	0.2121	0.684	0.006
Mof_C 	C 	0.0585	0.1581	0.0039	0.289
Mof_C 	C 	0.6975	0.51245	0.3965	0.214
Mof_N 	N 	0.83776	0.31637	0.7488	-0.255
Mof_N 	N 	0.74226	0.45114	0.4879	-0.265
Mof_N 	N 	0.81426	0.43238	0.4555	-0.068
Mof_N 	N 	0.81316	0.4793	0.3519	-0.075
Mof_N 	N 	0.73977	0.5313	0.3104	-0.271
Mof_N 	N 	0.6238	0.55033	0.397	-0.348
Mof_H 	H 	0.5997	0.5907	0.3381	0.149
Mof_H 	H 	0.6008	0.5342	0.4562	0.168
Mof_O 	O 	0.13509	0.19375	0.0748	-0.456
Mof_O 	O 	0.04619	0.08373	0.0049	-0.333
Mof_Zn	Zn	0.72743	0.39162	0.64975	1.195
Mof_C 	C 	0.5796	0.1528	0.1663	0.049
Mof_H 	H 	0.5715	0.0963	0.1635	-0.003
Mof_C 	C 	0.5069	0.20128	0.0839	-0.081
Mof_H 	H 	0.4506	0.178	0.0273	0.076
Mof_C 	C 	0.5188	0.2858	0.0862	-0.019
Mof_C 	C 	0.603	0.3181	0.1751	-0.079
Mof_H 	H 	0.6124	0.3745	0.18	0.064
Mof_C 	C 	0.6726	0.2658	0.2559	0.039
Mof_H 	H 	0.7289	0.2879	0.316	0.006
Mof_C 	C 	0.4415	0.3419	0.9961	0.291
Mof_C 	C 	0.8025	0.98755	0.6035	0.215
Mof_N 	N 	0.66224	0.18363	0.2512	-0.255
Mof_N 	N 	0.75774	0.04886	0.5121	-0.265
Mof_N 	N 	0.68574	0.06762	0.5445	-0.068
Mof_N 	N 	0.68684	0.0207	0.6481	-0.074
Mof_N 	N 	0.76023	0.9687	0.6896	-0.271
Mof_N 	N 	0.8762	0.94967	0.603	-0.348
Mof_H 	H 	0.9003	0.9093	0.6619	0.149
Mof_H 	H 	0.8992	0.9658	0.5438	0.168
Mof_O 	O 	0.36491	0.30625	0.9252	-0.456
Mof_O 	O 	0.45381	0.41627	0.9951	-0.334
Mof_Zn	Zn	0.77257	0.10838	0.35025	1.195
Mof_C 	C 	0.0796	0.6528	0.1663	0.05
Mof_H 	H 	0.0715	0.5963	0.1635	-0.003
Mof_C 	C 	0.0069	0.70128	0.0839	-0.08
Mof_H 	H 	0.9506	0.678	0.0273	0.076
Mof_C 	C 	0.0188	0.7858	0.0862	-0.016
Mof_C 	C 	0.103	0.8181	0.1751	-0.08
Mof_H 	H 	0.1124	0.8745	0.18	0.065
Mof_C 	C 	0.1726	0.7658	0.2559	0.04
Mof_H 	H 	0.2289	0.7879	0.316	0.006
Mof_C 	C 	0.9415	0.8419	0.9961	0.289
Mof_C 	C 	0.3025	0.48755	0.6035	0.214
Mof_N 	N 	0.16224	0.68363	0.2512	-0.255
Mof_N 	N 	0.25774	0.54886	0.5121	-0.265
Mof_N 	N 	0.18574	0.56762	0.5445	-0.068
Mof_N 	N 	0.18684	0.5207	0.6481	-0.075
Mof_N 	N 	0.26023	0.4687	0.6896	-0.271
Mof_N 	N 	0.3762	0.44967	0.603	-0.348
Mof_H 	H 	0.4003	0.4093	0.6619	0.149
Mof_H 	H 	0.3992	0.4658	0.5438	0.168
Mof_O 	O 	0.86491	0.80625	0.9252	-0.456
Mof_O 	O 	0.95381	0.91627	0.9951	-0.333
Mof_Zn	Zn	0.27257	0.60838	0.35025	1.195
Mof_C 	C 	0.5796	0.8472	0.6663	0.05
Mof_H 	H 	0.5715	0.9037	0.6635	-0.003
Mof_C 	C 	0.5069	0.79872	0.5839	-0.081
Mof_H 	H 	0.4506	0.822	0.5273	0.077
Mof_C 	C 	0.5188	0.7142	0.5862	-0.017
Mof_C 	C 	0.603	0.6819	0.6751	-0.079
Mof_H 	H 	0.6124	0.6255	0.68	0.065
Mof_C 	C 	0.6726	0.7342	0.7559	0.039
Mof_H 	H 	0.7289	0.7121	0.816	0.006
Mof_C 	C 	0.4415	0.6581	0.4961	0.29
Mof_C 	C 	0.8025	0.01245	0.1035	0.211
Mof_N 	N 	0.66224	0.81637	0.7512	-0.256
Mof_N 	N 	0.75774	0.95114	0.0121	-0.263
Mof_N 	N 	0.68574	0.93238	0.0445	-0.068
Mof_N 	N 	0.68684	0.9793	0.1481	-0.073
Mof_N 	N 	0.76023	0.0313	0.1896	-0.271
Mof_N 	N 	0.8762	0.05033	0.103	-0.347
Mof_H 	H 	0.9003	0.0907	0.1619	0.148
Mof_H 	H 	0.8992	0.0342	0.0438	0.166
Mof_O 	O 	0.36491	0.69375	0.4252	-0.456
Mof_O 	O 	0.45381	0.58373	0.4951	-0.333
Mof_Zn	Zn	0.77257	0.89162	0.85025	1.195
Mof_C 	C 	0.0796	0.3472	0.6663	0.05
Mof_H 	H 	0.0715	0.4037	0.6635	-0.003
Mof_C 	C 	0.0069	0.29872	0.5839	-0.082
Mof_H 	H 	0.9506	0.322	0.5273	0.077
Mof_C 	C 	0.0188	0.2142	0.5862	-0.017
Mof_C 	C 	0.103	0.1819	0.6751	-0.08
Mof_H 	H 	0.1124	0.1255	0.68	0.065
Mof_C 	C 	0.1726	0.2342	0.7559	0.039
Mof_H 	H 	0.2289	0.2121	0.816	0.006
Mof_C 	C 	0.9415	0.1581	0.4961	0.289
Mof_C 	C 	0.3025	0.51245	0.1035	0.214
Mof_N 	N 	0.16224	0.31637	0.7512	-0.255
Mof_N 	N 	0.25774	0.45114	0.0121	-0.265
Mof_N 	N 	0.18574	0.43238	0.0445	-0.068
Mof_N 	N 	0.18684	0.4793	0.1481	-0.075
Mof_N 	N 	0.26023	0.5313	0.1896	-0.271
Mof_N 	N 	0.3762	0.55033	0.103	-0.348
Mof_H 	H 	0.4003	0.5907	0.1619	0.149
Mof_H 	H 	0.3992	0.5342	0.0438	0.168
Mof_O 	O 	0.86491	0.19375	0.4252	-0.456
Mof_O 	O 	0.95381	0.08373	0.4951	-0.333
Mof_Zn	Zn	0.27257	0.39162	0.85025	1.195
_end
