data_functionalizedCrystal
_audit_creation_method	'EQeq! by Chris Wilmer'
_symmetry_space_group_name_H-M	'P1'
_symmetry_Int_Tables_number	1
_symmetry_cell_setting	triclinic
loop_
_symmetry_equiv_pos_as_xyz
  x,y,z
_cell_length_a	8.562
_cell_length_b	8.839
_cell_length_c	16.904
_cell_angle_alpha	82.238
_cell_angle_beta	89.592
_cell_angle_gamma	78.252
loop_
_atom_site_label
_atom_site_type_symbol
_atom_site_fract_x
_atom_site_fract_y
_atom_site_fract_z
_atom_site_charge
Mof_N 	N 	0.5048	0.4664	0.224	-0.149
Mof_N 	N 	0.1347	0.9246	0.1545	-0.31
Mof_B 	B 	0.1748	0.7657	0.1228	0.936
Mof_N 	N 	0.0226	0.6985	0.1176	-0.313
Mof_N 	N 	0.9942	0.1479	0.1873	-0.147
Mof_N 	N 	0.2466	0.78	0.039	-0.313
Mof_N 	N 	0.8468	0.5452	0.1434	-0.144
Mof_N 	N 	0.3197	0.7181	0.9189	-0.149
Mof_C 	C 	0.9846	0.5754	0.1633	0.138
Mof_H 	H 	0.0495	0.5168	0.2051	-0.012
Mof_C 	C 	0.2945	0.6293	0.263	0.059
Mof_H 	H 	0.2193	0.6819	0.295	0.016
Mof_N 	N 	0.2969	0.6538	0.1806	-0.314
Mof_C 	C 	0.2287	0.694	0.9808	0.131
Mof_H 	H 	0.1594	0.6249	0.984	-0.021
Mof_C 	C 	0.2394	0.001	0.187	0.043
Mof_H 	H 	0.3491	0.9664	0.1939	0.007
Mof_C 	C 	0.8971	0.7503	0.0634	0.048
Mof_H 	H 	0.8868	0.8343	0.0229	-0
Mof_C 	C 	0.421	0.5151	0.2887	-0.025
Mof_H 	H 	0.4472	0.4757	0.3419	0.075
Mof_C 	C 	0.4259	0.5504	0.1613	0.136
Mof_H 	H 	0.4556	0.5398	0.109	-0.023
Mof_C 	C 	0.3594	0.8647	0.0114	0.048
Mof_H 	H 	0.3986	0.9352	0.038	-0.002
Mof_C 	C 	0.1512	0.1362	0.2072	-0.013
Mof_H 	H 	0.1917	0.2096	0.2309	0.046
Mof_C 	C 	0.9898	0.0203	0.1565	0.134
Mof_H 	H 	0.8964	0.9977	0.1378	-0.025
Mof_C 	C 	0.4025	0.8258	0.9384	-0.027
Mof_H 	H 	0.477	0.8661	0.9062	0.034
Mof_C 	C 	0.7922	0.6562	0.0802	-0.021
Mof_H 	H 	0.6964	0.6656	0.0526	0.036
Mof_Cd	Cd	0.75854	0.32394	0.21271	0.39
Mof_O 	O 	0.7111	0.3335	0.3982	-0.276
Mof_O 	O 	0.7027	0.4356	0.5331	-0.434
Mof_H 	H 	0.6631	0.4133	0.4934	0.291
Mof_C 	C 	0.8396	0.3742	0.3811	0.327
Mof_C 	C 	0.9233	0.4375	0.4431	-0.118
Mof_C 	C 	0.9273	0.5288	0.571	-0.107
Mof_H 	H 	0.8779	0.5483	0.6188	0.097
Mof_C 	C 	0.8493	0.4665	0.5156	0.235
Mof_O 	O 	0.9039	0.3676	0.3141	-0.286
Mof_N 	N 	0.4952	0.5336	0.776	-0.148
Mof_N 	N 	0.8653	0.0754	0.8455	-0.309
Mof_B 	B 	0.8252	0.2343	0.8772	0.937
Mof_N 	N 	0.9774	0.3015	0.8824	-0.312
Mof_N 	N 	0.0058	0.8521	0.8127	-0.147
Mof_N 	N 	0.7534	0.22	0.961	-0.313
Mof_N 	N 	0.1532	0.4548	0.8566	-0.144
Mof_N 	N 	0.6803	0.2819	0.0811	-0.149
Mof_C 	C 	0.0154	0.4246	0.8367	0.138
Mof_H 	H 	0.9505	0.4832	0.7949	-0.012
Mof_C 	C 	0.7055	0.3707	0.737	0.059
Mof_H 	H 	0.7807	0.3181	0.705	0.016
Mof_N 	N 	0.7031	0.3462	0.8194	-0.314
Mof_C 	C 	0.7713	0.306	0.0192	0.131
Mof_H 	H 	0.8406	0.3751	0.016	-0.021
Mof_C 	C 	0.7606	0.999	0.813	0.043
Mof_H 	H 	0.6509	0.0336	0.8061	0.007
Mof_C 	C 	0.1029	0.2497	0.9366	0.048
Mof_H 	H 	0.1132	0.1657	0.9771	-0
Mof_C 	C 	0.579	0.4849	0.7113	-0.025
Mof_H 	H 	0.5528	0.5243	0.6581	0.075
Mof_C 	C 	0.5741	0.4496	0.8387	0.136
Mof_H 	H 	0.5444	0.4602	0.891	-0.023
Mof_C 	C 	0.6406	0.1353	0.9886	0.048
Mof_H 	H 	0.6014	0.0648	0.962	-0.002
Mof_C 	C 	0.8488	0.8638	0.7928	-0.013
Mof_H 	H 	0.8083	0.7904	0.7691	0.046
Mof_C 	C 	0.0102	0.9797	0.8435	0.134
Mof_H 	H 	0.1036	0.0023	0.8622	-0.025
Mof_C 	C 	0.5975	0.1742	0.0616	-0.027
Mof_H 	H 	0.523	0.1339	0.0938	0.034
Mof_C 	C 	0.2078	0.3438	0.9198	-0.021
Mof_H 	H 	0.3036	0.3344	0.9474	0.036
Mof_Cd	Cd	0.24146	0.67606	0.78729	0.39
Mof_O 	O 	0.2889	0.6665	0.6018	-0.276
Mof_O 	O 	0.2973	0.5644	0.4669	-0.434
Mof_H 	H 	0.3369	0.5867	0.5066	0.291
Mof_C 	C 	0.1604	0.6258	0.6189	0.327
Mof_C 	C 	0.0767	0.5625	0.5569	-0.118
Mof_C 	C 	0.0727	0.4712	0.429	-0.107
Mof_H 	H 	0.1221	0.4517	0.3812	0.097
Mof_C 	C 	0.1507	0.5335	0.4844	0.235
Mof_O 	O 	0.0961	0.6324	0.6859	-0.286
_end
