# CIF file generated by openbabel 3.1.0, see https://openbabel.org
data_I
_chemical_name_common 'image0'
_cell_length_a 24.6648
_cell_length_b 10.049
_cell_length_c 21.4914
_cell_angle_alpha 90
_cell_angle_beta 104.424
_cell_angle_gamma 90
_space_group_name_H-M_alt 'P 1'
_space_group_name_Hall 'P 1'
loop_
    _symmetry_equiv_pos_as_xyz
    x,y,z
loop_
    _atom_site_label
    _atom_site_type_symbol
    _atom_site_fract_x
    _atom_site_fract_y
    _atom_site_fract_z
    _atom_site_occupancy
    Cu1      Cu       0.70008    0.09372    0.52967    1.000
    O1       O        0.73519    0.30050    0.56499    1.000
    O2       O        0.81296    0.41460    0.56345    1.000
    O3       O        0.79517    0.56120    0.87946    1.000
    O4       O        0.85040    0.38450    0.90620    1.000
    N1       N        0.62182    0.16200    0.51692    1.000
    N2       N        0.27462    0.50380    0.54030    1.000
    C1       C        0.77885    0.36320    0.59160    1.000
    C2       C        0.78973    0.38700    0.66166    1.000
    C3       C        0.75642    0.31930    0.69865    1.000
    H1       H        0.72740    0.25990    0.67850    1.000
    C4       C        0.76807    0.34340    0.76486    1.000
    C5       C        0.81064    0.43250    0.79615    1.000
    C6       C        0.84280    0.49710    0.75920    1.000
    H2       H        0.87180    0.55660    0.77950    1.000
    C7       C        0.83240    0.47410    0.69280    1.000
    H3       H        0.85450    0.51810    0.66870    1.000
    C8       C        0.82080    0.45650    0.86650    1.000
    C9       C        0.57910    0.11350    0.47240    1.000
    H4       H        0.58670    0.05200    0.44200    1.000
    C10      C        0.52400    0.14810    0.46810    1.000
    H5       H        0.49470    0.10820    0.43640    1.000
    C11      C        0.51170    0.24130    0.51020    1.000
    C12      C        0.55650    0.29290    0.55560    1.000
    H6       H        0.55020    0.35590    0.58600    1.000
    C13      C        0.61030    0.25360    0.55690    1.000
    H7       H        0.64050    0.29310    0.58760    1.000
    C14      C        0.45360    0.27870    0.50680    1.000
    H8       H        0.42480    0.23590    0.47570    1.000
    C15      C        0.43900    0.36860    0.54450    1.000
    H9       H        0.46840    0.41020    0.57550    1.000
    C16      C        0.38180    0.41010    0.54300    1.000
    C17      C        0.37320    0.50870    0.58480    1.000
    H10      H        0.40430    0.54700    0.61470    1.000
    C18      C        0.31950    0.55130    0.58310    1.000
    H11      H        0.31430    0.61610    0.61320    1.000
    C19      C        0.28250    0.40780    0.50040    1.000
    H12      H        0.25060    0.37270    0.47050    1.000
    C20      C        0.33420    0.35720    0.50040    1.000
    H13      H        0.33770    0.28740    0.47180    1.000
    Br1      Br       0.70335    0.33680    0.80126    1.000
    Br2      Br       0.83481    0.65740    0.64576    1.000
    C21      C        0.74972    0.35760    0.69460    1.000
    H14      H        0.71480    0.32160    0.67170    1.000
    C22      C        0.75910    0.37940    0.76120    1.000
    C23      C        0.85250    0.46270    0.76320    1.000
    H15      H        0.88760    0.49770    0.78610    1.000
    C24      C        0.84180    0.44050    0.69640    1.000
    H16      H        0.86960    0.46170    0.67440    1.000
    C25      C        0.77690    0.29110    0.70210    1.000
    H17      H        0.76110    0.20910    0.68430    1.000
    C26      C        0.78660    0.31170    0.76890    1.000
    H18      H        0.77690    0.24470    0.79540    1.000
    C27      C        0.82390    0.53210    0.75540    1.000
    H19      H        0.83930    0.61450    0.77310    1.000
    C28      C        0.81420    0.50920    0.68880    1.000
    Br3      Br       0.72469    0.25740    0.81221    1.000
    Cu2      Cu       0.20008    0.59372    0.52967    1.000
    O5       O        0.23519    0.80050    0.56499    1.000
    O6       O        0.31296    0.91460    0.56345    1.000
    O7       O        0.29517    0.06120    0.87946    1.000
    O8       O        0.35040    0.88450    0.90620    1.000
    N3       N        0.12182    0.66200    0.51692    1.000
    N4       N        0.77462    0.00380    0.54030    1.000
    C29      C        0.27885    0.86320    0.59160    1.000
    C30      C        0.28973    0.88700    0.66166    1.000
    C31      C        0.25642    0.81930    0.69865    1.000
    H20      H        0.22740    0.75990    0.67850    1.000
    C32      C        0.26807    0.84340    0.76486    1.000
    C33      C        0.31064    0.93250    0.79615    1.000
    C34      C        0.34280    0.99710    0.75920    1.000
    H21      H        0.37180    0.05660    0.77950    1.000
    C35      C        0.33240    0.97410    0.69280    1.000
    H22      H        0.35450    0.01810    0.66870    1.000
    C36      C        0.32080    0.95650    0.86650    1.000
    C37      C        0.07910    0.61350    0.47240    1.000
    H23      H        0.08670    0.55200    0.44200    1.000
    C38      C        0.02400    0.64810    0.46810    1.000
    H24      H        0.99470    0.60820    0.43640    1.000
    C39      C        0.01170    0.74130    0.51020    1.000
    C40      C        0.05650    0.79290    0.55560    1.000
    H25      H        0.05020    0.85590    0.58600    1.000
    C41      C        0.11030    0.75360    0.55690    1.000
    H26      H        0.14050    0.79310    0.58760    1.000
    C42      C        0.95360    0.77870    0.50680    1.000
    H27      H        0.92480    0.73590    0.47570    1.000
    C43      C        0.93900    0.86860    0.54450    1.000
    H28      H        0.96840    0.91020    0.57550    1.000
    C44      C        0.88180    0.91010    0.54300    1.000
    C45      C        0.87320    0.00870    0.58480    1.000
    H29      H        0.90430    0.04700    0.61470    1.000
    C46      C        0.81950    0.05130    0.58310    1.000
    H30      H        0.81430    0.11610    0.61320    1.000
    C47      C        0.78250    0.90780    0.50040    1.000
    H31      H        0.75060    0.87270    0.47050    1.000
    C48      C        0.83420    0.85720    0.50040    1.000
    H32      H        0.83770    0.78740    0.47180    1.000
    Br4      Br       0.20335    0.83680    0.80126    1.000
    Br5      Br       0.33481    0.15740    0.64576    1.000
    C49      C        0.24972    0.85760    0.69460    1.000
    H33      H        0.21480    0.82160    0.67170    1.000
    C50      C        0.25910    0.87940    0.76120    1.000
    C51      C        0.35250    0.96270    0.76320    1.000
    H34      H        0.38760    0.99770    0.78610    1.000
    C52      C        0.34180    0.94050    0.69640    1.000
    H35      H        0.36960    0.96170    0.67440    1.000
    C53      C        0.27690    0.79110    0.70210    1.000
    H36      H        0.26110    0.70910    0.68430    1.000
    C54      C        0.28660    0.81170    0.76890    1.000
    H37      H        0.27690    0.74470    0.79540    1.000
    C55      C        0.32390    0.03210    0.75540    1.000
    H38      H        0.33930    0.11450    0.77310    1.000
    C56      C        0.31420    0.00920    0.68880    1.000
    Br6      Br       0.22469    0.75740    0.81221    1.000
    Cu3      Cu       0.29992    0.09372    0.97033    1.000
    O9       O        0.26481    0.30050    0.93501    1.000
    O10      O        0.18704    0.41460    0.93655    1.000
    O11      O        0.20483    0.56120    0.62054    1.000
    O12      O        0.14960    0.38450    0.59380    1.000
    N5       N        0.37818    0.16200    0.98308    1.000
    N6       N        0.72538    0.50380    0.95970    1.000
    C57      C        0.22115    0.36320    0.90840    1.000
    C58      C        0.21027    0.38700    0.83834    1.000
    C59      C        0.24358    0.31930    0.80135    1.000
    H39      H        0.27260    0.25990    0.82150    1.000
    C60      C        0.23193    0.34340    0.73514    1.000
    C61      C        0.18936    0.43250    0.70385    1.000
    C62      C        0.15720    0.49710    0.74080    1.000
    H40      H        0.12820    0.55660    0.72050    1.000
    C63      C        0.16760    0.47410    0.80720    1.000
    H41      H        0.14550    0.51810    0.83130    1.000
    C64      C        0.17920    0.45650    0.63350    1.000
    C65      C        0.42090    0.11350    0.02760    1.000
    H42      H        0.41330    0.05200    0.05800    1.000
    C66      C        0.47600    0.14810    0.03190    1.000
    H43      H        0.50530    0.10820    0.06360    1.000
    C67      C        0.48830    0.24130    0.98980    1.000
    C68      C        0.44350    0.29290    0.94440    1.000
    H44      H        0.44980    0.35590    0.91400    1.000
    C69      C        0.38970    0.25360    0.94310    1.000
    H45      H        0.35950    0.29310    0.91240    1.000
    C70      C        0.54640    0.27870    0.99320    1.000
    H46      H        0.57520    0.23590    0.02430    1.000
    C71      C        0.56100    0.36860    0.95550    1.000
    H47      H        0.53160    0.41020    0.92450    1.000
    C72      C        0.61820    0.41010    0.95700    1.000
    C73      C        0.62680    0.50870    0.91520    1.000
    H48      H        0.59570    0.54700    0.88530    1.000
    C74      C        0.68050    0.55130    0.91690    1.000
    H49      H        0.68570    0.61610    0.88680    1.000
    C75      C        0.71750    0.40780    0.99960    1.000
    H50      H        0.74940    0.37270    0.02950    1.000
    C76      C        0.66580    0.35720    0.99960    1.000
    H51      H        0.66230    0.28740    0.02820    1.000
    Br7      Br       0.29665    0.33680    0.69874    1.000
    Br8      Br       0.16519    0.65740    0.85424    1.000
    C77      C        0.25028    0.35760    0.80540    1.000
    H52      H        0.28520    0.32160    0.82830    1.000
    C78      C        0.24090    0.37940    0.73880    1.000
    C79      C        0.14750    0.46270    0.73680    1.000
    H53      H        0.11240    0.49770    0.71390    1.000
    C80      C        0.15820    0.44050    0.80360    1.000
    H54      H        0.13040    0.46170    0.82560    1.000
    C81      C        0.22310    0.29110    0.79790    1.000
    H55      H        0.23890    0.20910    0.81570    1.000
    C82      C        0.21340    0.31170    0.73110    1.000
    H56      H        0.22310    0.24470    0.70460    1.000
    C83      C        0.17610    0.53210    0.74460    1.000
    H57      H        0.16070    0.61450    0.72690    1.000
    C84      C        0.18580    0.50920    0.81120    1.000
    Br9      Br       0.27531    0.25740    0.68779    1.000
    Cu4      Cu       0.79992    0.59372    0.97033    1.000
    O13      O        0.76481    0.80050    0.93501    1.000
    O14      O        0.68704    0.91460    0.93655    1.000
    O15      O        0.70483    0.06120    0.62054    1.000
    O16      O        0.64960    0.88450    0.59380    1.000
    N7       N        0.87818    0.66200    0.98308    1.000
    N8       N        0.22538    0.00380    0.95970    1.000
    C85      C        0.72115    0.86320    0.90840    1.000
    C86      C        0.71027    0.88700    0.83834    1.000
    C87      C        0.74358    0.81930    0.80135    1.000
    H58      H        0.77260    0.75990    0.82150    1.000
    C88      C        0.73193    0.84340    0.73514    1.000
    C89      C        0.68936    0.93250    0.70385    1.000
    C90      C        0.65720    0.99710    0.74080    1.000
    H59      H        0.62820    0.05660    0.72050    1.000
    C91      C        0.66760    0.97410    0.80720    1.000
    H60      H        0.64550    0.01810    0.83130    1.000
    C92      C        0.67920    0.95650    0.63350    1.000
    C93      C        0.92090    0.61350    0.02760    1.000
    H61      H        0.91330    0.55200    0.05800    1.000
    C94      C        0.97600    0.64810    0.03190    1.000
    H62      H        0.00530    0.60820    0.06360    1.000
    C95      C        0.98830    0.74130    0.98980    1.000
    C96      C        0.94350    0.79290    0.94440    1.000
    H63      H        0.94980    0.85590    0.91400    1.000
    C97      C        0.88970    0.75360    0.94310    1.000
    H64      H        0.85950    0.79310    0.91240    1.000
    C98      C        0.04640    0.77870    0.99320    1.000
    H65      H        0.07520    0.73590    0.02430    1.000
    C99      C        0.06100    0.86860    0.95550    1.000
    H66      H        0.03160    0.91020    0.92450    1.000
    C100     C        0.11820    0.91010    0.95700    1.000
    C101     C        0.12680    0.00870    0.91520    1.000
    H67      H        0.09570    0.04700    0.88530    1.000
    C102     C        0.18050    0.05130    0.91690    1.000
    H68      H        0.18570    0.11610    0.88680    1.000
    C103     C        0.21750    0.90780    0.99960    1.000
    H69      H        0.24940    0.87270    0.02950    1.000
    C104     C        0.16580    0.85720    0.99960    1.000
    H70      H        0.16230    0.78740    0.02820    1.000
    Br10     Br       0.79665    0.83680    0.69874    1.000
    Br11     Br       0.66519    0.15740    0.85424    1.000
    C105     C        0.75028    0.85760    0.80540    1.000
    H71      H        0.78520    0.82160    0.82830    1.000
    C106     C        0.74090    0.87940    0.73880    1.000
    C107     C        0.64750    0.96270    0.73680    1.000
    H72      H        0.61240    0.99770    0.71390    1.000
    C108     C        0.65820    0.94050    0.80360    1.000
    H73      H        0.63040    0.96170    0.82560    1.000
    C109     C        0.72310    0.79110    0.79790    1.000
    H74      H        0.73890    0.70910    0.81570    1.000
    C110     C        0.71340    0.81170    0.73110    1.000
    H75      H        0.72310    0.74470    0.70460    1.000
    C111     C        0.67610    0.03210    0.74460    1.000
    H76      H        0.66070    0.11450    0.72690    1.000
    C112     C        0.68580    0.00920    0.81120    1.000
    Br12     Br       0.77531    0.75740    0.68779    1.000
    Cu5      Cu       0.29992    0.90628    0.47033    1.000
    O17      O        0.26481    0.69950    0.43501    1.000
    O18      O        0.18704    0.58540    0.43655    1.000
    O19      O        0.20483    0.43880    0.12054    1.000
    O20      O        0.14960    0.61550    0.09380    1.000
    N9       N        0.37818    0.83800    0.48308    1.000
    N10      N        0.72538    0.49620    0.45970    1.000
    C113     C        0.22115    0.63680    0.40840    1.000
    C114     C        0.21027    0.61300    0.33834    1.000
    C115     C        0.24358    0.68070    0.30135    1.000
    H77      H        0.27260    0.74010    0.32150    1.000
    C116     C        0.23193    0.65660    0.23514    1.000
    C117     C        0.18936    0.56750    0.20385    1.000
    C118     C        0.15720    0.50290    0.24080    1.000
    H78      H        0.12820    0.44340    0.22050    1.000
    C119     C        0.16760    0.52590    0.30720    1.000
    H79      H        0.14550    0.48190    0.33130    1.000
    C120     C        0.17920    0.54350    0.13350    1.000
    C121     C        0.42090    0.88650    0.52760    1.000
    H80      H        0.41330    0.94800    0.55800    1.000
    C122     C        0.47600    0.85190    0.53190    1.000
    H81      H        0.50530    0.89180    0.56360    1.000
    C123     C        0.48830    0.75870    0.48980    1.000
    C124     C        0.44350    0.70710    0.44440    1.000
    H82      H        0.44980    0.64410    0.41400    1.000
    C125     C        0.38970    0.74640    0.44310    1.000
    H83      H        0.35950    0.70690    0.41240    1.000
    C126     C        0.54640    0.72130    0.49320    1.000
    H84      H        0.57520    0.76410    0.52430    1.000
    C127     C        0.56100    0.63140    0.45550    1.000
    H85      H        0.53160    0.58980    0.42450    1.000
    C128     C        0.61820    0.58990    0.45700    1.000
    C129     C        0.62680    0.49130    0.41520    1.000
    H86      H        0.59570    0.45300    0.38530    1.000
    C130     C        0.68050    0.44870    0.41690    1.000
    H87      H        0.68570    0.38390    0.38680    1.000
    C131     C        0.71750    0.59220    0.49960    1.000
    H88      H        0.74940    0.62730    0.52950    1.000
    C132     C        0.66580    0.64280    0.49960    1.000
    H89      H        0.66230    0.71260    0.52820    1.000
    Br13     Br       0.29665    0.66320    0.19874    1.000
    Br14     Br       0.16519    0.34260    0.35424    1.000
    C133     C        0.25028    0.64240    0.30540    1.000
    H90      H        0.28520    0.67840    0.32830    1.000
    C134     C        0.24090    0.62060    0.23880    1.000
    C135     C        0.14750    0.53730    0.23680    1.000
    H91      H        0.11240    0.50230    0.21390    1.000
    C136     C        0.15820    0.55950    0.30360    1.000
    H92      H        0.13040    0.53830    0.32560    1.000
    C137     C        0.22310    0.70890    0.29790    1.000
    H93      H        0.23890    0.79090    0.31570    1.000
    C138     C        0.21340    0.68830    0.23110    1.000
    H94      H        0.22310    0.75530    0.20460    1.000
    C139     C        0.17610    0.46790    0.24460    1.000
    H95      H        0.16070    0.38550    0.22690    1.000
    C140     C        0.18580    0.49080    0.31120    1.000
    Br15     Br       0.27531    0.74260    0.18779    1.000
    Cu6      Cu       0.79992    0.40628    0.47033    1.000
    O21      O        0.76481    0.19950    0.43501    1.000
    O22      O        0.68704    0.08540    0.43655    1.000
    O23      O        0.70483    0.93880    0.12054    1.000
    O24      O        0.64960    0.11550    0.09380    1.000
    N11      N        0.87818    0.33800    0.48308    1.000
    N12      N        0.22538    0.99620    0.45970    1.000
    C141     C        0.72115    0.13680    0.40840    1.000
    C142     C        0.71027    0.11300    0.33834    1.000
    C143     C        0.74358    0.18070    0.30135    1.000
    H96      H        0.77260    0.24010    0.32150    1.000
    C144     C        0.73193    0.15660    0.23514    1.000
    C145     C        0.68936    0.06750    0.20385    1.000
    C146     C        0.65720    0.00290    0.24080    1.000
    H97      H        0.62820    0.94340    0.22050    1.000
    C147     C        0.66760    0.02590    0.30720    1.000
    H98      H        0.64550    0.98190    0.33130    1.000
    C148     C        0.67920    0.04350    0.13350    1.000
    C149     C        0.92090    0.38650    0.52760    1.000
    H99      H        0.91330    0.44800    0.55800    1.000
    C150     C        0.97600    0.35190    0.53190    1.000
    H100     H        0.00530    0.39180    0.56360    1.000
    C151     C        0.98830    0.25870    0.48980    1.000
    C152     C        0.94350    0.20710    0.44440    1.000
    H101     H        0.94980    0.14410    0.41400    1.000
    C153     C        0.88970    0.24640    0.44310    1.000
    H102     H        0.85950    0.20690    0.41240    1.000
    C154     C        0.04640    0.22130    0.49320    1.000
    H103     H        0.07520    0.26410    0.52430    1.000
    C155     C        0.06100    0.13140    0.45550    1.000
    H104     H        0.03160    0.08980    0.42450    1.000
    C156     C        0.11820    0.08990    0.45700    1.000
    C157     C        0.12680    0.99130    0.41520    1.000
    H105     H        0.09570    0.95300    0.38530    1.000
    C158     C        0.18050    0.94870    0.41690    1.000
    H106     H        0.18570    0.88390    0.38680    1.000
    C159     C        0.21750    0.09220    0.49960    1.000
    H107     H        0.24940    0.12730    0.52950    1.000
    C160     C        0.16580    0.14280    0.49960    1.000
    H108     H        0.16230    0.21260    0.52820    1.000
    Br16     Br       0.79665    0.16320    0.19874    1.000
    Br17     Br       0.66519    0.84260    0.35424    1.000
    C161     C        0.75028    0.14240    0.30540    1.000
    H109     H        0.78520    0.17840    0.32830    1.000
    C162     C        0.74090    0.12060    0.23880    1.000
    C163     C        0.64750    0.03730    0.23680    1.000
    H110     H        0.61240    0.00230    0.21390    1.000
    C164     C        0.65820    0.05950    0.30360    1.000
    H111     H        0.63040    0.03830    0.32560    1.000
    C165     C        0.72310    0.20890    0.29790    1.000
    H112     H        0.73890    0.29090    0.31570    1.000
    C166     C        0.71340    0.18830    0.23110    1.000
    H113     H        0.72310    0.25530    0.20460    1.000
    C167     C        0.67610    0.96790    0.24460    1.000
    H114     H        0.66070    0.88550    0.22690    1.000
    C168     C        0.68580    0.99080    0.31120    1.000
    Br18     Br       0.77531    0.24260    0.18779    1.000
    Cu7      Cu       0.70008    0.90628    0.02967    1.000
    O25      O        0.73519    0.69950    0.06499    1.000
    O26      O        0.81296    0.58540    0.06345    1.000
    O27      O        0.79517    0.43880    0.37946    1.000
    O28      O        0.85040    0.61550    0.40620    1.000
    N13      N        0.62182    0.83800    0.01692    1.000
    N14      N        0.27462    0.49620    0.04030    1.000
    C169     C        0.77885    0.63680    0.09160    1.000
    C170     C        0.78973    0.61300    0.16166    1.000
    C171     C        0.75642    0.68070    0.19865    1.000
    H115     H        0.72740    0.74010    0.17850    1.000
    C172     C        0.76807    0.65660    0.26486    1.000
    C173     C        0.81064    0.56750    0.29615    1.000
    C174     C        0.84280    0.50290    0.25920    1.000
    H116     H        0.87180    0.44340    0.27950    1.000
    C175     C        0.83240    0.52590    0.19280    1.000
    H117     H        0.85450    0.48190    0.16870    1.000
    C176     C        0.82080    0.54350    0.36650    1.000
    C177     C        0.57910    0.88650    0.97240    1.000
    H118     H        0.58670    0.94800    0.94200    1.000
    C178     C        0.52400    0.85190    0.96810    1.000
    H119     H        0.49470    0.89180    0.93640    1.000
    C179     C        0.51170    0.75870    0.01020    1.000
    C180     C        0.55650    0.70710    0.05560    1.000
    H120     H        0.55020    0.64410    0.08600    1.000
    C181     C        0.61030    0.74640    0.05690    1.000
    H121     H        0.64050    0.70690    0.08760    1.000
    C182     C        0.45360    0.72130    0.00680    1.000
    H122     H        0.42480    0.76410    0.97570    1.000
    C183     C        0.43900    0.63140    0.04450    1.000
    H123     H        0.46840    0.58980    0.07550    1.000
    C184     C        0.38180    0.58990    0.04300    1.000
    C185     C        0.37320    0.49130    0.08480    1.000
    H124     H        0.40430    0.45300    0.11470    1.000
    C186     C        0.31950    0.44870    0.08310    1.000
    H125     H        0.31430    0.38390    0.11320    1.000
    C187     C        0.28250    0.59220    0.00040    1.000
    H126     H        0.25060    0.62730    0.97050    1.000
    C188     C        0.33420    0.64280    0.00040    1.000
    H127     H        0.33770    0.71260    0.97180    1.000
    Br19     Br       0.70335    0.66320    0.30126    1.000
    Br20     Br       0.83481    0.34260    0.14576    1.000
    C189     C        0.74972    0.64240    0.19460    1.000
    H128     H        0.71480    0.67840    0.17170    1.000
    C190     C        0.75910    0.62060    0.26120    1.000
    C191     C        0.85250    0.53730    0.26320    1.000
    H129     H        0.88760    0.50230    0.28610    1.000
    C192     C        0.84180    0.55950    0.19640    1.000
    H130     H        0.86960    0.53830    0.17440    1.000
    C193     C        0.77690    0.70890    0.20210    1.000
    H131     H        0.76110    0.79090    0.18430    1.000
    C194     C        0.78660    0.68830    0.26890    1.000
    H132     H        0.77690    0.75530    0.29540    1.000
    C195     C        0.82390    0.46790    0.25540    1.000
    H133     H        0.83930    0.38550    0.27310    1.000
    C196     C        0.81420    0.49080    0.18880    1.000
    Br21     Br       0.72469    0.74260    0.31221    1.000
    Cu8      Cu       0.20008    0.40628    0.02967    1.000
    O29      O        0.23519    0.19950    0.06499    1.000
    O30      O        0.31296    0.08540    0.06345    1.000
    O31      O        0.29517    0.93880    0.37946    1.000
    O32      O        0.35040    0.11550    0.40620    1.000
    N15      N        0.12182    0.33800    0.01692    1.000
    N16      N        0.77462    0.99620    0.04030    1.000
    C197     C        0.27885    0.13680    0.09160    1.000
    C198     C        0.28973    0.11300    0.16166    1.000
    C199     C        0.25642    0.18070    0.19865    1.000
    H134     H        0.22740    0.24010    0.17850    1.000
    C200     C        0.26807    0.15660    0.26486    1.000
    C201     C        0.31064    0.06750    0.29615    1.000
    C202     C        0.34280    0.00290    0.25920    1.000
    H135     H        0.37180    0.94340    0.27950    1.000
    C203     C        0.33240    0.02590    0.19280    1.000
    H136     H        0.35450    0.98190    0.16870    1.000
    C204     C        0.32080    0.04350    0.36650    1.000
    C205     C        0.07910    0.38650    0.97240    1.000
    H137     H        0.08670    0.44800    0.94200    1.000
    C206     C        0.02400    0.35190    0.96810    1.000
    H138     H        0.99470    0.39180    0.93640    1.000
    C207     C        0.01170    0.25870    0.01020    1.000
    C208     C        0.05650    0.20710    0.05560    1.000
    H139     H        0.05020    0.14410    0.08600    1.000
    C209     C        0.11030    0.24640    0.05690    1.000
    H140     H        0.14050    0.20690    0.08760    1.000
    C210     C        0.95360    0.22130    0.00680    1.000
    H141     H        0.92480    0.26410    0.97570    1.000
    C211     C        0.93900    0.13140    0.04450    1.000
    H142     H        0.96840    0.08980    0.07550    1.000
    C212     C        0.88180    0.08990    0.04300    1.000
    C213     C        0.87320    0.99130    0.08480    1.000
    H143     H        0.90430    0.95300    0.11470    1.000
    C214     C        0.81950    0.94870    0.08310    1.000
    H144     H        0.81430    0.88390    0.11320    1.000
    C215     C        0.78250    0.09220    0.00040    1.000
    H145     H        0.75060    0.12730    0.97050    1.000
    C216     C        0.83420    0.14280    0.00040    1.000
    H146     H        0.83770    0.21260    0.97180    1.000
    Br22     Br       0.20335    0.16320    0.30126    1.000
    Br23     Br       0.33481    0.84260    0.14576    1.000
    C217     C        0.24972    0.14240    0.19460    1.000
    H147     H        0.21480    0.17840    0.17170    1.000
    C218     C        0.25910    0.12060    0.26120    1.000
    C219     C        0.35250    0.03730    0.26320    1.000
    H148     H        0.38760    0.00230    0.28610    1.000
    C220     C        0.34180    0.05950    0.19640    1.000
    H149     H        0.36960    0.03830    0.17440    1.000
    C221     C        0.27690    0.20890    0.20210    1.000
    H150     H        0.26110    0.29090    0.18430    1.000
    C222     C        0.28660    0.18830    0.26890    1.000
    H151     H        0.27690    0.25530    0.29540    1.000
    C223     C        0.32390    0.96790    0.25540    1.000
    H152     H        0.33930    0.88550    0.27310    1.000
    C224     C        0.31420    0.99080    0.18880    1.000
    Br24     Br       0.22469    0.24260    0.31221    1.000
