# CIF file generated by openbabel 3.1.0, see https://openbabel.org
data_I
_chemical_name_common 'image0'
_cell_length_a 13.5393
_cell_length_b 13.5393
_cell_length_c 15.0443
_cell_angle_alpha 90
_cell_angle_beta 90
_cell_angle_gamma 120
_space_group_name_H-M_alt 'P 1'
_space_group_name_Hall 'P 1'
loop_
    _symmetry_equiv_pos_as_xyz
    x,y,z
loop_
    _atom_site_label
    _atom_site_type_symbol
    _atom_site_fract_x
    _atom_site_fract_y
    _atom_site_fract_z
    _atom_site_occupancy
    Zn1      Zn       0.08880    0.63793    0.07900    1.000
    P1       P        0.12850    0.44093    0.05675    1.000
    O1       O        0.18620    0.56650    0.08710    1.000
    O2       O        0.19420    0.78230    0.02700    1.000
    O3       O        0.03360    0.64160    0.19900    1.000
    O4       O        0.94530    0.57350    0.02380    1.000
    Zn2      Zn       0.75547    0.97126    0.41233    1.000
    P2       P        0.79517    0.77426    0.39008    1.000
    O5       O        0.85287    0.89983    0.42043    1.000
    O6       O        0.86087    0.11563    0.36033    1.000
    O7       O        0.70027    0.97493    0.53233    1.000
    O8       O        0.61197    0.90683    0.35713    1.000
    Zn3      Zn       0.42213    0.30460    0.74567    1.000
    P3       P        0.46183    0.10760    0.72342    1.000
    O9       O        0.51953    0.23317    0.75377    1.000
    O10      O        0.52753    0.44897    0.69367    1.000
    O11      O        0.36693    0.30827    0.86567    1.000
    O12      O        0.27863    0.24017    0.69047    1.000
    Zn4      Zn       0.36207    0.45087    0.07900    1.000
    P4       P        0.55907    0.68757    0.05675    1.000
    O13      O        0.43350    0.61970    0.08710    1.000
    O14      O        0.21770    0.41190    0.02700    1.000
    O15      O        0.35840    0.39200    0.19900    1.000
    O16      O        0.42650    0.37180    0.02380    1.000
    Zn5      Zn       0.02874    0.78420    0.41233    1.000
    P5       P        0.22574    0.02090    0.39008    1.000
    O17      O        0.10017    0.95303    0.42043    1.000
    O18      O        0.88437    0.74523    0.36033    1.000
    O19      O        0.02507    0.72533    0.53233    1.000
    O20      O        0.09317    0.70513    0.35713    1.000
    Zn6      Zn       0.69540    0.11754    0.74567    1.000
    P6       P        0.89240    0.35424    0.72342    1.000
    O21      O        0.76683    0.28637    0.75377    1.000
    O22      O        0.55103    0.07857    0.69367    1.000
    O23      O        0.69173    0.05867    0.86567    1.000
    O24      O        0.75983    0.03847    0.69047    1.000
    Zn7      Zn       0.54913    0.91120    0.07900    1.000
    P7       P        0.31243    0.87150    0.05675    1.000
    O25      O        0.38030    0.81380    0.08710    1.000
    O26      O        0.58810    0.80580    0.02700    1.000
    O27      O        0.60800    0.96640    0.19900    1.000
    O28      O        0.62820    0.05470    0.02380    1.000
    Zn8      Zn       0.21580    0.24453    0.41233    1.000
    P8       P        0.97910    0.20483    0.39008    1.000
    O29      O        0.04697    0.14713    0.42043    1.000
    O30      O        0.25477    0.13913    0.36033    1.000
    O31      O        0.27467    0.29973    0.53233    1.000
    O32      O        0.29487    0.38803    0.35713    1.000
    Zn9      Zn       0.88246    0.57787    0.74567    1.000
    P9       P        0.64576    0.53817    0.72342    1.000
    O33      O        0.71363    0.48047    0.75377    1.000
    O34      O        0.92143    0.47247    0.69367    1.000
    O35      O        0.94133    0.63307    0.86567    1.000
    O36      O        0.96153    0.72137    0.69047    1.000
    Zn10     Zn       0.91120    0.36207    0.92100    1.000
    P10      P        0.87150    0.55907    0.94325    1.000
    O37      O        0.81380    0.43350    0.91290    1.000
    O38      O        0.80580    0.21770    0.97300    1.000
    O39      O        0.96640    0.35840    0.80100    1.000
    O40      O        0.05470    0.42650    0.97620    1.000
    Zn11     Zn       0.57787    0.69540    0.25433    1.000
    P11      P        0.53817    0.89240    0.27658    1.000
    O41      O        0.48047    0.76683    0.24623    1.000
    O42      O        0.47247    0.55103    0.30633    1.000
    O43      O        0.63307    0.69173    0.13433    1.000
    O44      O        0.72137    0.75983    0.30953    1.000
    Zn12     Zn       0.24453    0.02874    0.58767    1.000
    P12      P        0.20483    0.22574    0.60992    1.000
    O45      O        0.14713    0.10017    0.57957    1.000
    O46      O        0.13913    0.88437    0.63967    1.000
    O47      O        0.29973    0.02507    0.46767    1.000
    O48      O        0.38803    0.09317    0.64287    1.000
    Zn13     Zn       0.63793    0.54913    0.92100    1.000
    P13      P        0.44093    0.31243    0.94325    1.000
    O49      O        0.56650    0.38030    0.91290    1.000
    O50      O        0.78230    0.58810    0.97300    1.000
    O51      O        0.64160    0.60800    0.80100    1.000
    O52      O        0.57350    0.62820    0.97620    1.000
    Zn14     Zn       0.30460    0.88246    0.25433    1.000
    P14      P        0.10760    0.64576    0.27658    1.000
    O53      O        0.23317    0.71363    0.24623    1.000
    O54      O        0.44897    0.92143    0.30633    1.000
    O55      O        0.30827    0.94133    0.13433    1.000
    O56      O        0.24017    0.96153    0.30953    1.000
    Zn15     Zn       0.97126    0.21580    0.58767    1.000
    P15      P        0.77426    0.97910    0.60992    1.000
    O57      O        0.89983    0.04697    0.57957    1.000
    O58      O        0.11563    0.25477    0.63967    1.000
    O59      O        0.97493    0.27467    0.46767    1.000
    O60      O        0.90683    0.29487    0.64287    1.000
    Zn16     Zn       0.45087    0.08880    0.92100    1.000
    P16      P        0.68757    0.12850    0.94325    1.000
    O61      O        0.61970    0.18620    0.91290    1.000
    O62      O        0.41190    0.19420    0.97300    1.000
    O63      O        0.39200    0.03360    0.80100    1.000
    O64      O        0.37180    0.94530    0.97620    1.000
    Zn17     Zn       0.11754    0.42213    0.25433    1.000
    P17      P        0.35424    0.46183    0.27658    1.000
    O65      O        0.28637    0.51953    0.24623    1.000
    O66      O        0.07857    0.52753    0.30633    1.000
    O67      O        0.05867    0.36693    0.13433    1.000
    O68      O        0.03847    0.27863    0.30953    1.000
    Zn18     Zn       0.78420    0.75547    0.58767    1.000
    P18      P        0.02090    0.79517    0.60992    1.000
    O69      O        0.95303    0.85287    0.57957    1.000
    O70      O        0.74523    0.86087    0.63967    1.000
    O71      O        0.72533    0.70027    0.46767    1.000
    O72      O        0.70513    0.61197    0.64287    1.000
    Co1      Co       0.33333    0.66667    0.16667    1.000
    Co2      Co       0.00000    0.00000    0.50000    1.000
    Co3      Co       0.66667    0.33333    0.83333    1.000
