data_functionalizedCrystal
_audit_creation_method	'EQeq! by Chris Wilmer'
_symmetry_space_group_name_H-M	'P1'
_symmetry_Int_Tables_number	1
_symmetry_cell_setting	triclinic
loop_
_symmetry_equiv_pos_as_xyz
  x,y,z
_cell_length_a	19.6065
_cell_length_b	19.6065
_cell_length_c	22.1808
_cell_angle_alpha	90
_cell_angle_beta	90
_cell_angle_gamma	90
loop_
_atom_site_label
_atom_site_type_symbol
_atom_site_fract_x
_atom_site_fract_y
_atom_site_fract_z
_atom_site_charge
Mof_S 	S 	0.10739	0.96119	0.43858	-0.095
Mof_C 	C 	0.08265	0.96845	0.3685	0.096
Mof_N 	N 	0.06556	0.97137	0.31835	-0.167
Mof_S 	S 	0.10679	0.84415	0.11317	-0.148
Mof_C 	C 	0.08149	0.90941	0.15337	0.091
Mof_N 	N 	0.0655	0.9564	0.18158	-0.17
Mof_S 	S 	0.07477	0.23083	0.21185	-0.208
Mof_C 	C 	0.05813	0.15184	0.22998	0.078
Mof_N 	N 	0.0475	0.09596	0.24354	-0.207
Mof_S 	S 	0.60739	0.46119	0.93858	-0.137
Mof_C 	C 	0.58265	0.46845	0.8685	0.098
Mof_N 	N 	0.56556	0.47137	0.81835	-0.192
Mof_S 	S 	0.60679	0.34415	0.61317	-0.15
Mof_C 	C 	0.58149	0.40941	0.65337	0.099
Mof_N 	N 	0.5655	0.4564	0.68158	-0.194
Mof_S 	S 	0.57477	0.73083	0.71185	-0.144
Mof_C 	C 	0.55813	0.65184	0.72998	0.098
Mof_N 	N 	0.5475	0.59596	0.74354	-0.196
Mof_S 	S 	0.89261	0.03881	0.43858	-0.108
Mof_C 	C 	0.91735	0.03155	0.3685	0.093
Mof_N 	N 	0.93444	0.02863	0.31835	-0.17
Mof_S 	S 	0.89321	0.15585	0.11317	-0.16
Mof_C 	C 	0.91851	0.09059	0.15337	0.103
Mof_N 	N 	0.9345	0.0436	0.18158	-0.178
Mof_S 	S 	0.92523	0.76917	0.21185	-0.094
Mof_C 	C 	0.94187	0.84816	0.22998	0.113
Mof_N 	N 	0.9525	0.90404	0.24354	-0.145
Mof_S 	S 	0.39261	0.53881	0.93858	-0.14
Mof_C 	C 	0.41735	0.53155	0.8685	0.097
Mof_N 	N 	0.43444	0.52863	0.81835	-0.193
Mof_S 	S 	0.39321	0.65585	0.61317	-0.157
Mof_C 	C 	0.41851	0.59059	0.65337	0.098
Mof_N 	N 	0.4345	0.5436	0.68158	-0.195
Mof_S 	S 	0.42523	0.26917	0.71185	-0.161
Mof_C 	C 	0.44187	0.34816	0.72998	0.099
Mof_N 	N 	0.4525	0.40404	0.74354	-0.198
Mof_S 	S 	0.96119	0.89261	0.56142	-0.041
Mof_C 	C 	0.96845	0.91735	0.6315	0.118
Mof_N 	N 	0.97137	0.93444	0.68165	-0.14
Mof_S 	S 	0.84415	0.89321	0.88683	-0.132
Mof_C 	C 	0.90941	0.91851	0.84663	0.12
Mof_N 	N 	0.9564	0.9345	0.81842	-0.144
Mof_S 	S 	0.23083	0.92523	0.78815	-0.106
Mof_C 	C 	0.15184	0.94187	0.77002	0.102
Mof_N 	N 	0.09596	0.9525	0.75646	-0.173
Mof_S 	S 	0.46119	0.39261	0.06142	-0.157
Mof_C 	C 	0.46845	0.41735	0.1315	0.097
Mof_N 	N 	0.47137	0.43444	0.18165	-0.195
Mof_S 	S 	0.34415	0.39321	0.38683	-0.159
Mof_C 	C 	0.40941	0.41851	0.34663	0.098
Mof_N 	N 	0.4564	0.4345	0.31842	-0.195
Mof_S 	S 	0.73083	0.42523	0.28815	-0.148
Mof_C 	C 	0.65184	0.44187	0.27002	0.097
Mof_N 	N 	0.59596	0.4525	0.25646	-0.197
Mof_S 	S 	0.03881	0.10739	0.56142	-0.165
Mof_C 	C 	0.03155	0.08265	0.6315	0.07
Mof_N 	N 	0.02863	0.06556	0.68165	-0.199
Mof_S 	S 	0.15585	0.10679	0.88683	-0.161
Mof_C 	C 	0.09059	0.08149	0.84663	0.075
Mof_N 	N 	0.0436	0.0655	0.81842	-0.202
Mof_S 	S 	0.76917	0.07477	0.78815	-0.19
Mof_C 	C 	0.84816	0.05813	0.77002	0.092
Mof_N 	N 	0.90404	0.0475	0.75646	-0.176
Mof_S 	S 	0.53881	0.60739	0.06142	-0.152
Mof_C 	C 	0.53155	0.58265	0.1315	0.098
Mof_N 	N 	0.52863	0.56556	0.18165	-0.193
Mof_S 	S 	0.65585	0.60679	0.38683	-0.149
Mof_C 	C 	0.59059	0.58149	0.34663	0.099
Mof_N 	N 	0.5436	0.5655	0.31842	-0.194
Mof_S 	S 	0.26917	0.57477	0.28815	-0.16
Mof_C 	C 	0.34816	0.55813	0.27002	0.098
Mof_N 	N 	0.40404	0.5475	0.25646	-0.198
Mof_S 	S 	0.39261	0.96119	0.31142	-0.094
Mof_C 	C 	0.41735	0.96845	0.3815	0.109
Mof_N 	N 	0.43444	0.97137	0.43165	-0.166
Mof_S 	S 	0.39321	0.84415	0.63683	-0.144
Mof_C 	C 	0.41851	0.90941	0.59663	0.106
Mof_N 	N 	0.4345	0.9564	0.56842	-0.168
Mof_S 	S 	0.42523	0.23083	0.53815	-0.161
Mof_C 	C 	0.44187	0.15184	0.52002	0.09
Mof_N 	N 	0.4525	0.09596	0.50646	-0.201
Mof_S 	S 	0.89261	0.46119	0.81142	-0.097
Mof_C 	C 	0.91735	0.46845	0.8815	0.109
Mof_N 	N 	0.93444	0.47137	0.93165	-0.162
Mof_S 	S 	0.89321	0.34415	0.13683	-0.15
Mof_C 	C 	0.91851	0.40941	0.09663	0.111
Mof_N 	N 	0.9345	0.4564	0.06842	-0.172
Mof_S 	S 	0.92523	0.73083	0.03815	-0.101
Mof_C 	C 	0.94187	0.65184	0.02002	0.106
Mof_N 	N 	0.9525	0.59596	0.00646	-0.171
Mof_S 	S 	0.60739	0.03881	0.31142	-0.159
Mof_C 	C 	0.58265	0.03155	0.3815	0.084
Mof_N 	N 	0.56556	0.02863	0.43165	-0.197
Mof_S 	S 	0.60679	0.15585	0.63683	-0.158
Mof_C 	C 	0.58149	0.09059	0.59663	0.09
Mof_N 	N 	0.5655	0.0436	0.56842	-0.2
Mof_S 	S 	0.57477	0.76917	0.53815	-0.143
Mof_C 	C 	0.55813	0.84816	0.52002	0.104
Mof_N 	N 	0.5475	0.90404	0.50646	-0.171
Mof_S 	S 	0.10739	0.53881	0.81142	-0.152
Mof_C 	C 	0.08265	0.53155	0.8815	0.087
Mof_N 	N 	0.06556	0.52863	0.93165	-0.191
Mof_S 	S 	0.10679	0.65585	0.13683	-0.157
Mof_C 	C 	0.08149	0.59059	0.09663	0.082
Mof_N 	N 	0.0655	0.5436	0.06842	-0.197
Mof_S 	S 	0.07477	0.26917	0.03815	-0.213
Mof_C 	C 	0.05813	0.34816	0.02002	0.085
Mof_N 	N 	0.0475	0.40404	0.00646	-0.205
Mof_S 	S 	0.53881	0.89261	0.18858	-0.1
Mof_C 	C 	0.53155	0.91735	0.1185	0.106
Mof_N 	N 	0.52863	0.93444	0.06835	-0.172
Mof_S 	S 	0.65585	0.89321	0.86317	-0.145
Mof_C 	C 	0.59059	0.91851	0.90337	0.113
Mof_N 	N 	0.5436	0.9345	0.93158	-0.171
Mof_S 	S 	0.26917	0.92523	0.96185	-0.103
Mof_C 	C 	0.34816	0.94187	0.97998	0.111
Mof_N 	N 	0.40404	0.9525	0.99354	-0.169
Mof_S 	S 	0.03881	0.39261	0.68858	-0.162
Mof_C 	C 	0.03155	0.41735	0.6185	0.082
Mof_N 	N 	0.02863	0.43444	0.56835	-0.198
Mof_S 	S 	0.15585	0.39321	0.36317	-0.167
Mof_C 	C 	0.09059	0.41851	0.40337	0.089
Mof_N 	N 	0.0436	0.4345	0.43158	-0.201
Mof_S 	S 	0.76917	0.42523	0.46185	-0.145
Mof_C 	C 	0.84816	0.44187	0.47998	0.104
Mof_N 	N 	0.90404	0.4525	0.49354	-0.171
Mof_S 	S 	0.46119	0.10739	0.18858	-0.157
Mof_C 	C 	0.46845	0.08265	0.1185	0.083
Mof_N 	N 	0.47137	0.06556	0.06835	-0.201
Mof_S 	S 	0.34415	0.10679	0.86317	-0.156
Mof_C 	C 	0.40941	0.08149	0.90337	0.084
Mof_N 	N 	0.4564	0.0655	0.93158	-0.197
Mof_S 	S 	0.73083	0.07477	0.96185	-0.188
Mof_C 	C 	0.65184	0.05813	0.97998	0.087
Mof_N 	N 	0.59596	0.0475	0.99354	-0.2
Mof_S 	S 	0.96119	0.60739	0.68858	-0.089
Mof_C 	C 	0.96845	0.58265	0.6185	0.11
Mof_N 	N 	0.97137	0.56556	0.56835	-0.165
Mof_S 	S 	0.84415	0.60679	0.36317	-0.137
Mof_C 	C 	0.90941	0.58149	0.40337	0.107
Mof_N 	N 	0.9564	0.5655	0.43158	-0.167
Mof_S 	S 	0.23083	0.57477	0.46185	-0.158
Mof_C 	C 	0.15184	0.55813	0.47998	0.091
Mof_N 	N 	0.09596	0.5475	0.49354	-0.201
Mof_Fe	Fe	1.04888e-33	0	0.24728	0.533
Mof_Fe	Fe	0.5	0.5	0.74728	0.69
Mof_Fe	Fe	-2.7283e-33	0	0.75272	0.535
Mof_Fe	Fe	0.5	0.5	0.25272	0.689
Mof_Fe	Fe	0.5	0	0.50272	0.611
Mof_Fe	Fe	-1.00615e-33	0.5	0.00272	0.602
Mof_Fe	Fe	0.5	0	0.99728	0.622
Mof_Fe	Fe	2.10931e-33	0.5	0.49728	0.611
Mof_Ag	Ag	-3.80026e-33	-5.92111e-33	0.5	0.344
Mof_Ag	Ag	0.5	0.5	-0	0.527
Mof_Ag	Ag	0.5	-2.96055e-33	0.25	0.444
Mof_Ag	Ag	3.18127e-33	0.5	0.75	0.446
Mof_Ag	Ag	0.01364	0.75	0.125	0.447
Mof_Ag	Ag	0.98636	0.25	0.125	0.648
Mof_Ag	Ag	0.75	0.98636	0.875	0.656
Mof_Ag	Ag	0.25	0.48636	0.375	0.541
Mof_Ag	Ag	0.25	0.01364	0.875	0.439
Mof_Ag	Ag	0.75	0.51364	0.375	0.55
Mof_Ag	Ag	0.48636	0.75	0.625	0.549
Mof_Ag	Ag	0.51364	0.25	0.625	0.542
_end
