data_functionalizedCrystal
_audit_creation_method	'EQeq! by Chris Wilmer'
_symmetry_space_group_name_H-M	'P1'
_symmetry_Int_Tables_number	1
_symmetry_cell_setting	triclinic
loop_
_symmetry_equiv_pos_as_xyz
  x,y,z
_cell_length_a	20.0034
_cell_length_b	20.2188
_cell_length_c	20.9731
_cell_angle_alpha	90
_cell_angle_beta	90
_cell_angle_gamma	90
loop_
_atom_site_label
_atom_site_type_symbol
_atom_site_fract_x
_atom_site_fract_y
_atom_site_fract_z
_atom_site_charge
Mof_Be	Be	0.5982	0.4929	0.6371	0.782
Mof_Be	Be	0.5431	0.2936	0.6211	0.77
Mof_Be	Be	0.3693	0.3628	0.5502	0.777
Mof_Be	Be	0.1802	0.4095	0.4899	0.792
Mof_Be	Be	0.1388	0.439	0.6794	0.782
Mof_Be	Be	0.0497	0.6108	0.6263	0.784
Mof_P 	P 	0.63286	0.36973	0.70394	0.512
Mof_H 	H 	0.6941	0.3457	0.7137	-0.013
Mof_P 	P 	0.50339	0.41899	0.56226	0.504
Mof_H 	H 	0.5192	0.4317	0.4945	0.015
Mof_P 	P 	0.40938	0.25026	0.62333	0.523
Mof_H 	H 	0.3633	0.2614	0.6642	-0.029
Mof_P 	P 	0.31267	0.41712	0.4343	0.536
Mof_H 	H 	0.3017	0.3872	0.3823	-0.038
Mof_P 	P 	0.23799	0.36396	0.60771	0.516
Mof_H 	H 	0.2395	0.3016	0.6355	-0.01
Mof_P 	P 	0.08055	0.48376	0.56331	0.512
Mof_H 	H 	0.0222	0.4575	0.5365	-0.006
Mof_P 	P 	0.11249	0.56223	0.74204	0.522
Mof_H 	H 	0.1524	0.6126	0.7527	-0.024
Mof_P 	P 	0.92854	0.65773	0.57157	-0.534
Mof_H 	H 	0.9566	0.6484	0.5209	0.19
Mof_O 	O 	0.60455	0.38764	0.76922	-0.347
Mof_O 	O 	0.59491	0.31141	0.6776	-0.372
Mof_O 	O 	0.63947	0.42824	0.66052	-0.372
Mof_O 	O 	0.52648	0.47162	0.60793	-0.356
Mof_O 	O 	0.47168	0.27748	0.65453	-0.373
Mof_O 	O 	0.39043	0.2872	0.5632	-0.366
Mof_O 	O 	0.53748	0.35302	0.56989	-0.368
Mof_O 	O 	0.42807	0.4156	0.5654	-0.354
Mof_O 	O 	0.30967	0.38408	0.59782	-0.362
Mof_O 	O 	0.34553	0.36612	0.47632	-0.368
Mof_O 	O 	0.35714	0.47429	0.41898	-0.367
Mof_O 	O 	0.24695	0.44195	0.46009	-0.364
Mof_O 	O 	0.19757	0.35799	0.54736	-0.372
Mof_O 	O 	0.20865	0.4087	0.65724	-0.374
Mof_O 	O 	0.13441	0.4699	0.51515	-0.362
Mof_O 	O 	0.08481	0.44201	0.62282	-0.375
Mof_O 	O 	0.15474	0.50904	0.71185	-0.381
Mof_O 	O 	0.08364	0.54396	0.80594	-0.369
Mof_O 	O 	0.07713	0.55685	0.57591	-0.363
Mof_O 	O 	0.05743	0.58768	0.69956	-0.37
Mof_O 	O 	0.41118	0.17743	0.61014	-0.374
Mof_O 	O 	0.96861	0.61869	0.61815	-0.371
Mof_O 	O 	0.85772	0.63135	0.56605	-0.412
Mof_O 	O 	0.92842	0.73093	0.58221	-0.37
Mof_P 	P 	0.9095	0.6621	0.6031	1.008
Mof_Be	Be	0.9018	0.5071	0.1371	0.781
Mof_Be	Be	0.9569	0.7064	0.1211	0.767
Mof_Be	Be	0.1307	0.6372	0.0502	0.777
Mof_Be	Be	0.3198	0.5905	0.9899	0.79
Mof_Be	Be	0.3612	0.561	0.1794	0.781
Mof_Be	Be	0.4503	0.3892	0.1263	0.783
Mof_P 	P 	0.86714	0.63027	0.20394	0.511
Mof_H 	H 	0.8059	0.6543	0.2137	-0.014
Mof_P 	P 	0.99661	0.58101	0.06226	0.501
Mof_H 	H 	0.9808	0.5683	0.9945	0.015
Mof_P 	P 	0.09062	0.74974	0.12333	0.522
Mof_H 	H 	0.1367	0.7386	0.1642	-0.03
Mof_P 	P 	0.18733	0.58288	0.9343	0.536
Mof_H 	H 	0.1983	0.6128	0.8823	-0.038
Mof_P 	P 	0.26201	0.63604	0.10771	0.516
Mof_H 	H 	0.2605	0.6984	0.1355	-0.009
Mof_P 	P 	0.41945	0.51624	0.06331	0.512
Mof_H 	H 	0.4778	0.5425	0.0365	-0.006
Mof_P 	P 	0.38751	0.43777	0.24204	0.522
Mof_H 	H 	0.3476	0.3874	0.2527	-0.024
Mof_P 	P 	0.57146	0.34227	0.07157	-0.534
Mof_H 	H 	0.5434	0.3516	0.0209	0.19
Mof_O 	O 	0.89545	0.61236	0.26922	-0.347
Mof_O 	O 	0.90509	0.68859	0.1776	-0.372
Mof_O 	O 	0.86053	0.57176	0.16052	-0.372
Mof_O 	O 	0.97352	0.52838	0.10793	-0.356
Mof_O 	O 	0.02832	0.72252	0.15453	-0.371
Mof_O 	O 	0.10957	0.7128	0.0632	-0.365
Mof_O 	O 	0.96252	0.64698	0.06989	-0.368
Mof_O 	O 	0.07193	0.5844	0.0654	-0.353
Mof_O 	O 	0.19033	0.61592	0.09782	-0.362
Mof_O 	O 	0.15447	0.63388	0.97632	-0.369
Mof_O 	O 	0.14286	0.52571	0.91898	-0.367
Mof_O 	O 	0.25305	0.55805	0.96009	-0.364
Mof_O 	O 	0.30243	0.64201	0.04736	-0.371
Mof_O 	O 	0.29135	0.5913	0.15724	-0.374
Mof_O 	O 	0.36559	0.5301	0.01515	-0.361
Mof_O 	O 	0.41519	0.55799	0.12282	-0.374
Mof_O 	O 	0.34526	0.49096	0.21185	-0.381
Mof_O 	O 	0.41636	0.45604	0.30594	-0.369
Mof_O 	O 	0.42287	0.44315	0.07591	-0.363
Mof_O 	O 	0.44257	0.41232	0.19956	-0.37
Mof_O 	O 	0.08882	0.82257	0.11014	-0.373
Mof_O 	O 	0.53139	0.38131	0.11815	-0.371
Mof_O 	O 	0.64228	0.36865	0.06605	-0.412
Mof_O 	O 	0.57158	0.26907	0.08221	-0.37
Mof_P 	P 	0.5905	0.3379	0.1031	1.008
Mof_Be	Be	0.4018	0.9929	0.8629	0.779
Mof_Be	Be	0.4569	0.7936	0.8789	0.769
Mof_Be	Be	0.6307	0.8628	0.9498	0.775
Mof_Be	Be	0.8198	0.9095	0.0101	0.793
Mof_Be	Be	0.8612	0.939	0.8206	0.778
Mof_Be	Be	0.9503	0.1108	0.8737	0.785
Mof_P 	P 	0.36714	0.86973	0.79606	0.511
Mof_H 	H 	0.3059	0.8457	0.7863	-0.014
Mof_P 	P 	0.49661	0.91899	0.93774	0.502
Mof_H 	H 	0.4808	0.9317	0.0055	0.015
Mof_P 	P 	0.59062	0.75026	0.87667	0.522
Mof_H 	H 	0.6367	0.7614	0.8358	-0.03
Mof_P 	P 	0.68733	0.91712	0.0657	0.536
Mof_H 	H 	0.6983	0.8872	0.1177	-0.038
Mof_P 	P 	0.76201	0.86396	0.89229	0.516
Mof_H 	H 	0.7605	0.8016	0.8645	-0.01
Mof_P 	P 	0.91945	0.98376	0.93669	0.509
Mof_H 	H 	0.9778	0.9575	0.9635	-0.007
Mof_P 	P 	0.88751	0.06223	0.75796	0.522
Mof_H 	H 	0.8476	0.1126	0.7473	-0.024
Mof_P 	P 	0.07146	0.15773	0.92843	-0.532
Mof_H 	H 	0.0434	0.1484	0.9791	0.19
Mof_O 	O 	0.39545	0.88764	0.73078	-0.347
Mof_O 	O 	0.40509	0.81141	0.8224	-0.372
Mof_O 	O 	0.36053	0.92824	0.83948	-0.372
Mof_O 	O 	0.47352	0.97162	0.89207	-0.356
Mof_O 	O 	0.52832	0.77748	0.84547	-0.373
Mof_O 	O 	0.60957	0.7872	0.9368	-0.366
Mof_O 	O 	0.46252	0.85302	0.93011	-0.368
Mof_O 	O 	0.57193	0.9156	0.9346	-0.355
Mof_O 	O 	0.69033	0.88408	0.90218	-0.362
Mof_O 	O 	0.65447	0.86612	0.02368	-0.367
Mof_O 	O 	0.64286	0.97429	0.08102	-0.366
Mof_O 	O 	0.75305	0.94195	0.03991	-0.363
Mof_O 	O 	0.80243	0.85799	0.95264	-0.373
Mof_O 	O 	0.79135	0.9087	0.84276	-0.374
Mof_O 	O 	0.86559	0.9699	0.98485	-0.363
Mof_O 	O 	0.91519	0.94201	0.87718	-0.375
Mof_O 	O 	0.84526	0.00904	0.78815	-0.378
Mof_O 	O 	0.91636	0.04396	0.69406	-0.366
Mof_O 	O 	0.92287	0.05685	0.92409	-0.359
Mof_O 	O 	0.94257	0.08768	0.80044	-0.369
Mof_O 	O 	0.58882	0.67743	0.88986	-0.374
Mof_O 	O 	0.03139	0.11869	0.88185	-0.373
Mof_O 	O 	0.14228	0.13135	0.93395	-0.412
Mof_O 	O 	0.07158	0.23093	0.91779	-0.37
Mof_P 	P 	0.0905	0.1621	0.8969	1.006
Mof_Be	Be	0.0982	0.0071	0.3629	0.777
Mof_Be	Be	0.0431	0.2064	0.3789	0.768
Mof_Be	Be	0.8693	0.1372	0.4498	0.776
Mof_Be	Be	0.6802	0.0905	0.5101	0.791
Mof_Be	Be	0.6388	0.061	0.3206	0.781
Mof_Be	Be	0.5497	0.8892	0.3737	0.783
Mof_P 	P 	0.13286	0.13027	0.29606	0.51
Mof_H 	H 	0.1941	0.1543	0.2863	-0.014
Mof_P 	P 	0.00339	0.08101	0.43774	0.501
Mof_H 	H 	0.0192	0.0683	0.5055	0.013
Mof_P 	P 	0.90938	0.24974	0.37667	0.522
Mof_H 	H 	0.8633	0.2386	0.3358	-0.03
Mof_P 	P 	0.81267	0.08288	0.5657	0.536
Mof_H 	H 	0.8017	0.1128	0.6177	-0.038
Mof_P 	P 	0.73799	0.13604	0.39229	0.516
Mof_H 	H 	0.7395	0.1984	0.3645	-0.01
Mof_P 	P 	0.58055	0.01624	0.43669	0.512
Mof_H 	H 	0.5222	0.0425	0.4635	-0.007
Mof_P 	P 	0.61249	0.93777	0.25796	0.522
Mof_H 	H 	0.6524	0.8874	0.2473	-0.024
Mof_P 	P 	0.42854	0.84227	0.42843	-0.536
Mof_H 	H 	0.4566	0.8516	0.4791	0.191
Mof_O 	O 	0.10455	0.11236	0.23078	-0.347
Mof_O 	O 	0.09491	0.18859	0.3224	-0.372
Mof_O 	O 	0.13947	0.07176	0.33948	-0.372
Mof_O 	O 	0.02648	0.02838	0.39207	-0.356
Mof_O 	O 	0.97168	0.22252	0.34547	-0.372
Mof_O 	O 	0.89043	0.2128	0.4368	-0.365
Mof_O 	O 	0.03748	0.14698	0.43011	-0.368
Mof_O 	O 	0.92807	0.0844	0.4346	-0.353
Mof_O 	O 	0.80967	0.11592	0.40218	-0.362
Mof_O 	O 	0.84553	0.13388	0.52368	-0.368
Mof_O 	O 	0.85714	0.02571	0.58102	-0.365
Mof_O 	O 	0.74695	0.05805	0.53991	-0.363
Mof_O 	O 	0.69757	0.14201	0.45264	-0.372
Mof_O 	O 	0.70865	0.0913	0.34276	-0.374
Mof_O 	O 	0.63441	0.0301	0.48485	-0.362
Mof_O 	O 	0.58481	0.05799	0.37718	-0.375
Mof_O 	O 	0.65474	0.99096	0.28815	-0.381
Mof_O 	O 	0.58364	0.95604	0.19406	-0.368
Mof_O 	O 	0.57713	0.94315	0.42409	-0.363
Mof_O 	O 	0.55743	0.91232	0.30044	-0.37
Mof_O 	O 	0.91118	0.32257	0.38986	-0.374
Mof_O 	O 	0.46861	0.88131	0.38185	-0.371
Mof_O 	O 	0.35772	0.86865	0.43395	-0.412
Mof_O 	O 	0.42842	0.76907	0.41779	-0.37
Mof_P 	P 	0.4095	0.8379	0.3969	1.01
Mof_Be	Be	0.4018	0.5071	0.3629	0.781
Mof_Be	Be	0.4569	0.7064	0.3789	0.769
Mof_Be	Be	0.6307	0.6372	0.4498	0.776
Mof_Be	Be	0.8198	0.5905	0.5101	0.791
Mof_Be	Be	0.8612	0.561	0.3206	0.781
Mof_Be	Be	0.9503	0.3892	0.3737	0.783
Mof_P 	P 	0.36714	0.63027	0.29606	0.511
Mof_H 	H 	0.3059	0.6543	0.2863	-0.014
Mof_P 	P 	0.49661	0.58101	0.43774	0.503
Mof_H 	H 	0.4808	0.5683	0.5055	0.014
Mof_P 	P 	0.59062	0.74974	0.37667	0.522
Mof_H 	H 	0.6367	0.7386	0.3358	-0.03
Mof_P 	P 	0.68733	0.58288	0.5657	0.536
Mof_H 	H 	0.6983	0.6128	0.6177	-0.038
Mof_P 	P 	0.76201	0.63604	0.39229	0.516
Mof_H 	H 	0.7605	0.6984	0.3645	-0.01
Mof_P 	P 	0.91945	0.51624	0.43669	0.512
Mof_H 	H 	0.9778	0.5425	0.4635	-0.006
Mof_P 	P 	0.88751	0.43777	0.25796	0.522
Mof_H 	H 	0.8476	0.3874	0.2473	-0.024
Mof_P 	P 	0.07146	0.34227	0.42843	-0.534
Mof_H 	H 	0.0434	0.3516	0.4791	0.19
Mof_O 	O 	0.39545	0.61236	0.23078	-0.347
Mof_O 	O 	0.40509	0.68859	0.3224	-0.372
Mof_O 	O 	0.36053	0.57176	0.33948	-0.372
Mof_O 	O 	0.47352	0.52838	0.39207	-0.356
Mof_O 	O 	0.52832	0.72252	0.34547	-0.373
Mof_O 	O 	0.60957	0.7128	0.4368	-0.366
Mof_O 	O 	0.46252	0.64698	0.43011	-0.368
Mof_O 	O 	0.57193	0.5844	0.4346	-0.354
Mof_O 	O 	0.69033	0.61592	0.40218	-0.362
Mof_O 	O 	0.65447	0.63388	0.52368	-0.368
Mof_O 	O 	0.64286	0.52571	0.58102	-0.367
Mof_O 	O 	0.75305	0.55805	0.53991	-0.364
Mof_O 	O 	0.80243	0.64201	0.45264	-0.372
Mof_O 	O 	0.79135	0.5913	0.34276	-0.374
Mof_O 	O 	0.86559	0.5301	0.48485	-0.362
Mof_O 	O 	0.91519	0.55799	0.37718	-0.375
Mof_O 	O 	0.84526	0.49096	0.28815	-0.381
Mof_O 	O 	0.91636	0.45604	0.19406	-0.369
Mof_O 	O 	0.92287	0.44315	0.42409	-0.363
Mof_O 	O 	0.94257	0.41232	0.30044	-0.37
Mof_O 	O 	0.58882	0.82257	0.38986	-0.374
Mof_O 	O 	0.03139	0.38131	0.38185	-0.371
Mof_O 	O 	0.14228	0.36865	0.43395	-0.412
Mof_O 	O 	0.07158	0.26907	0.41779	-0.37
Mof_P 	P 	0.0905	0.3379	0.3969	1.008
Mof_Be	Be	0.0982	0.4929	0.8629	0.781
Mof_Be	Be	0.0431	0.2936	0.8789	0.767
Mof_Be	Be	0.8693	0.3628	0.9498	0.777
Mof_Be	Be	0.6802	0.4095	0.0101	0.79
Mof_Be	Be	0.6388	0.439	0.8206	0.781
Mof_Be	Be	0.5497	0.6108	0.8737	0.783
Mof_P 	P 	0.13286	0.36973	0.79606	0.511
Mof_H 	H 	0.1941	0.3457	0.7863	-0.014
Mof_P 	P 	0.00339	0.41899	0.93774	0.501
Mof_H 	H 	0.0192	0.4317	0.0055	0.015
Mof_P 	P 	0.90938	0.25026	0.87667	0.522
Mof_H 	H 	0.8633	0.2614	0.8358	-0.03
Mof_P 	P 	0.81267	0.41712	0.0657	0.536
Mof_H 	H 	0.8017	0.3872	0.1177	-0.038
Mof_P 	P 	0.73799	0.36396	0.89229	0.516
Mof_H 	H 	0.7395	0.3016	0.8645	-0.009
Mof_P 	P 	0.58055	0.48376	0.93669	0.512
Mof_H 	H 	0.5222	0.4575	0.9635	-0.006
Mof_P 	P 	0.61249	0.56223	0.75796	0.522
Mof_H 	H 	0.6524	0.6126	0.7473	-0.024
Mof_P 	P 	0.42854	0.65773	0.92843	-0.534
Mof_H 	H 	0.4566	0.6484	0.9791	0.19
Mof_O 	O 	0.10455	0.38764	0.73078	-0.347
Mof_O 	O 	0.09491	0.31141	0.8224	-0.372
Mof_O 	O 	0.13947	0.42824	0.83948	-0.372
Mof_O 	O 	0.02648	0.47162	0.89207	-0.356
Mof_O 	O 	0.97168	0.27748	0.84547	-0.371
Mof_O 	O 	0.89043	0.2872	0.9368	-0.365
Mof_O 	O 	0.03748	0.35302	0.93011	-0.368
Mof_O 	O 	0.92807	0.4156	0.9346	-0.353
Mof_O 	O 	0.80967	0.38408	0.90218	-0.362
Mof_O 	O 	0.84553	0.36612	0.02368	-0.369
Mof_O 	O 	0.85714	0.47429	0.08102	-0.367
Mof_O 	O 	0.74695	0.44195	0.03991	-0.364
Mof_O 	O 	0.69757	0.35799	0.95264	-0.371
Mof_O 	O 	0.70865	0.4087	0.84276	-0.374
Mof_O 	O 	0.63441	0.4699	0.98485	-0.361
Mof_O 	O 	0.58481	0.44201	0.87718	-0.374
Mof_O 	O 	0.65474	0.50904	0.78815	-0.381
Mof_O 	O 	0.58364	0.54396	0.69406	-0.369
Mof_O 	O 	0.57713	0.55685	0.92409	-0.363
Mof_O 	O 	0.55743	0.58768	0.80044	-0.37
Mof_O 	O 	0.91118	0.17743	0.88986	-0.373
Mof_O 	O 	0.46861	0.61869	0.88185	-0.371
Mof_O 	O 	0.35772	0.63135	0.93395	-0.412
Mof_O 	O 	0.42842	0.73093	0.91779	-0.37
Mof_P 	P 	0.4095	0.6621	0.8969	1.008
Mof_Be	Be	0.5982	0.0071	0.1371	0.779
Mof_Be	Be	0.5431	0.2064	0.1211	0.769
Mof_Be	Be	0.3693	0.1372	0.0502	0.775
Mof_Be	Be	0.1802	0.0905	0.9899	0.793
Mof_Be	Be	0.1388	0.061	0.1794	0.778
Mof_Be	Be	0.0497	0.8892	0.1263	0.785
Mof_P 	P 	0.63286	0.13027	0.20394	0.511
Mof_H 	H 	0.6941	0.1543	0.2137	-0.014
Mof_P 	P 	0.50339	0.08101	0.06226	0.502
Mof_H 	H 	0.5192	0.0683	0.9945	0.015
Mof_P 	P 	0.40938	0.24974	0.12333	0.522
Mof_H 	H 	0.3633	0.2386	0.1642	-0.03
Mof_P 	P 	0.31267	0.08288	0.9343	0.536
Mof_H 	H 	0.3017	0.1128	0.8823	-0.038
Mof_P 	P 	0.23799	0.13604	0.10771	0.516
Mof_H 	H 	0.2395	0.1984	0.1355	-0.01
Mof_P 	P 	0.08055	0.01624	0.06331	0.509
Mof_H 	H 	0.0222	0.0425	0.0365	-0.007
Mof_P 	P 	0.11249	0.93777	0.24204	0.522
Mof_H 	H 	0.1524	0.8874	0.2527	-0.024
Mof_P 	P 	0.92854	0.84227	0.07157	-0.532
Mof_H 	H 	0.9566	0.8516	0.0209	0.19
Mof_O 	O 	0.60455	0.11236	0.26922	-0.347
Mof_O 	O 	0.59491	0.18859	0.1776	-0.372
Mof_O 	O 	0.63947	0.07176	0.16052	-0.372
Mof_O 	O 	0.52648	0.02838	0.10793	-0.356
Mof_O 	O 	0.47168	0.22252	0.15453	-0.373
Mof_O 	O 	0.39043	0.2128	0.0632	-0.366
Mof_O 	O 	0.53748	0.14698	0.06989	-0.368
Mof_O 	O 	0.42807	0.0844	0.0654	-0.355
Mof_O 	O 	0.30967	0.11592	0.09782	-0.362
Mof_O 	O 	0.34553	0.13388	0.97632	-0.367
Mof_O 	O 	0.35714	0.02571	0.91898	-0.366
Mof_O 	O 	0.24695	0.05805	0.96009	-0.363
Mof_O 	O 	0.19757	0.14201	0.04736	-0.373
Mof_O 	O 	0.20865	0.0913	0.15724	-0.374
Mof_O 	O 	0.13441	0.0301	0.01515	-0.363
Mof_O 	O 	0.08481	0.05799	0.12282	-0.375
Mof_O 	O 	0.15474	0.99096	0.21185	-0.378
Mof_O 	O 	0.08364	0.95604	0.30594	-0.366
Mof_O 	O 	0.07713	0.94315	0.07591	-0.359
Mof_O 	O 	0.05743	0.91232	0.19956	-0.369
Mof_O 	O 	0.41118	0.32257	0.11014	-0.374
Mof_O 	O 	0.96861	0.88131	0.11815	-0.373
Mof_O 	O 	0.85772	0.86865	0.06605	-0.412
Mof_O 	O 	0.92842	0.76907	0.08221	-0.37
Mof_P 	P 	0.9095	0.8379	0.1031	1.006
Mof_Be	Be	0.9018	0.9929	0.6371	0.777
Mof_Be	Be	0.9569	0.7936	0.6211	0.768
Mof_Be	Be	0.1307	0.8628	0.5502	0.776
Mof_Be	Be	0.3198	0.9095	0.4899	0.791
Mof_Be	Be	0.3612	0.939	0.6794	0.781
Mof_Be	Be	0.4503	0.1108	0.6263	0.783
Mof_P 	P 	0.86714	0.86973	0.70394	0.51
Mof_H 	H 	0.8059	0.8457	0.7137	-0.014
Mof_P 	P 	0.99661	0.91899	0.56226	0.501
Mof_H 	H 	0.9808	0.9317	0.4945	0.013
Mof_P 	P 	0.09062	0.75026	0.62333	0.522
Mof_H 	H 	0.1367	0.7614	0.6642	-0.03
Mof_P 	P 	0.18733	0.91712	0.4343	0.536
Mof_H 	H 	0.1983	0.8872	0.3823	-0.038
Mof_P 	P 	0.26201	0.86396	0.60771	0.516
Mof_H 	H 	0.2605	0.8016	0.6355	-0.01
Mof_P 	P 	0.41945	0.98376	0.56331	0.512
Mof_H 	H 	0.4778	0.9575	0.5365	-0.007
Mof_P 	P 	0.38751	0.06223	0.74204	0.522
Mof_H 	H 	0.3476	0.1126	0.7527	-0.024
Mof_P 	P 	0.57146	0.15773	0.57157	-0.536
Mof_H 	H 	0.5434	0.1484	0.5209	0.191
Mof_O 	O 	0.89545	0.88764	0.76922	-0.347
Mof_O 	O 	0.90509	0.81141	0.6776	-0.372
Mof_O 	O 	0.86053	0.92824	0.66052	-0.372
Mof_O 	O 	0.97352	0.97162	0.60793	-0.356
Mof_O 	O 	0.02832	0.77748	0.65453	-0.372
Mof_O 	O 	0.10957	0.7872	0.5632	-0.365
Mof_O 	O 	0.96252	0.85302	0.56989	-0.368
Mof_O 	O 	0.07193	0.9156	0.5654	-0.353
Mof_O 	O 	0.19033	0.88408	0.59782	-0.362
Mof_O 	O 	0.15447	0.86612	0.47632	-0.368
Mof_O 	O 	0.14286	0.97429	0.41898	-0.365
Mof_O 	O 	0.25305	0.94195	0.46009	-0.363
Mof_O 	O 	0.30243	0.85799	0.54736	-0.372
Mof_O 	O 	0.29135	0.9087	0.65724	-0.374
Mof_O 	O 	0.36559	0.9699	0.51515	-0.362
Mof_O 	O 	0.41519	0.94201	0.62282	-0.375
Mof_O 	O 	0.34526	0.00904	0.71185	-0.381
Mof_O 	O 	0.41636	0.04396	0.80594	-0.368
Mof_O 	O 	0.42287	0.05685	0.57591	-0.363
Mof_O 	O 	0.44257	0.08768	0.69956	-0.37
Mof_O 	O 	0.08882	0.67743	0.61014	-0.374
Mof_O 	O 	0.53139	0.11869	0.61815	-0.371
Mof_O 	O 	0.64228	0.13135	0.56605	-0.412
Mof_O 	O 	0.57158	0.23093	0.58221	-0.37
Mof_P 	P 	0.5905	0.1621	0.6031	1.01
_end
