# CIF file generated by openbabel 3.1.0, see https://openbabel.org
data_I
_chemical_name_common 'image0'
_cell_length_a 43.2392
_cell_length_b 43.2392
_cell_length_c 41.8921
_cell_angle_alpha 90
_cell_angle_beta 90
_cell_angle_gamma 120
_space_group_name_H-M_alt 'P 1'
_space_group_name_Hall 'P 1'
loop_
    _symmetry_equiv_pos_as_xyz
    x,y,z
loop_
    _atom_site_label
    _atom_site_type_symbol
    _atom_site_fract_x
    _atom_site_fract_y
    _atom_site_fract_z
    _atom_site_occupancy
    In1      In       0.62728    0.09353    0.79099    1.000
    In2      In       0.37506    0.90423    0.46729    1.000
    O1       O        0.56780    0.05670    0.78890    1.000
    O2       O        0.59520    0.08370    0.74490    1.000
    O3       O        0.34890    0.90410    0.51490    1.000
    O4       O        0.40700    0.93490    0.50920    1.000
    O5       O        0.66930    0.11290    0.83030    1.000
    O6       O        0.61450    0.07190    0.84120    1.000
    O7       O        0.82430    0.27520    0.08070    1.000
    O8       O        0.83770    0.24220    0.11010    1.000
    O9       O        0.62280    0.92130    0.11480    1.000
    O10      O        0.57220    0.90750    0.09110    1.000
    O11      O        0.61230    0.13430    0.80790    1.000
    O12      O        0.65810    0.15140    0.77560    1.000
    N1       N        0.40320    0.99680    0.71490    1.000
    N2       N        0.42810    0.98880    0.66770    1.000
    N3       N        0.36750    0.97350    0.66920    1.000
    N4       N        0.70610    0.12200    0.99460    1.000
    N5       N        0.69860    0.09010    0.04240    1.000
    N6       N        0.66160    0.06140    0.99790    1.000
    N7       N        0.69510    0.32770    0.79260    1.000
    C1       C        0.56700    0.06310    0.75910    1.000
    C2       C        0.53170    0.04640    0.74350    1.000
    C3       C        0.52930    0.04550    0.71090    1.000
    H1       H        0.55040    0.05630    0.69830    1.000
    C4       C        0.49610    0.02880    0.69610    1.000
    H2       H        0.49470    0.02760    0.67340    1.000
    C5       C        0.46580    0.01450    0.71340    1.000
    C6       C        0.46730    0.01520    0.74640    1.000
    H3       H        0.44610    0.00510    0.75880    1.000
    C7       C        0.50110    0.03130    0.76120    1.000
    H4       H        0.50270    0.03170    0.78380    1.000
    C8       C        0.43050    0.99880    0.69780    1.000
    C9       C        0.37260    0.98480    0.69960    1.000
    C10      C        0.39580    0.97450    0.65440    1.000
    O13      O        0.24840    0.95360    0.79680    1.000
    O14      O        0.24010    0.98880    0.76620    1.000
    C11      C        0.34340    0.98470    0.71740    1.000
    C12      C        0.34170    0.97960    0.74980    1.000
    H5       H        0.36020    0.97790    0.76040    1.000
    C13      C        0.31380    0.97690    0.76700    1.000
    H6       H        0.31230    0.97180    0.78920    1.000
    C14      C        0.29010    0.98110    0.75370    1.000
    C15      C        0.29140    0.98950    0.72100    1.000
    H7       H        0.27440    0.99470    0.71180    1.000
    C16      C        0.31880    0.98990    0.70240    1.000
    H8       H        0.31990    0.99370    0.68000    1.000
    C17      C        0.25650    0.97310    0.77270    1.000
    C18      C        0.39100    0.96150    0.62190    1.000
    C19      C        0.35700    0.94110    0.60890    1.000
    H9       H        0.33650    0.93530    0.62140    1.000
    C20      C        0.35300    0.92940    0.57800    1.000
    H10      H        0.32970    0.91620    0.56900    1.000
    C21      C        0.38290    0.93660    0.55970    1.000
    C22      C        0.41640    0.95650    0.57290    1.000
    H11      H        0.43690    0.96200    0.56050    1.000
    C23      C        0.42050    0.96830    0.60360    1.000
    H12      H        0.44380    0.98130    0.61260    1.000
    C24      C        0.37900    0.92420    0.52590    1.000
    C25      C        0.64660    0.09220    0.85000    1.000
    C26      C        0.63200    0.06540    0.90420    1.000
    H13      H        0.60990    0.04700    0.89610    1.000
    C27      C        0.65510    0.09180    0.88420    1.000
    C28      C        0.63990    0.06470    0.93560    1.000
    H14      H        0.62380    0.04570    0.94900    1.000
    C29      C        0.67200    0.09210    0.94810    1.000
    C30      C        0.69520    0.11890    0.92810    1.000
    H15      H        0.71690    0.13780    0.93630    1.000
    C31      C        0.68730    0.11850    0.89630    1.000
    H16      H        0.70400    0.13660    0.88260    1.000
    C32      C        0.68030    0.09160    0.98190    1.000
    C33      C        0.71450    0.12000    0.02420    1.000
    C34      C        0.65440    0.02810    0.04630    1.000
    C35      C        0.74200    0.15320    0.04010    1.000
    C36      C        0.75410    0.18580    0.02610    1.000
    H17      H        0.74600    0.18750    0.00550    1.000
    C37      C        0.77820    0.21620    0.04220    1.000
    H18      H        0.78430    0.23890    0.03370    1.000
    C38      C        0.79350    0.21460    0.07000    1.000
    C39      C        0.78380    0.18160    0.08270    1.000
    H19      H        0.79510    0.18010    0.10160    1.000
    C40      C        0.75760    0.15020    0.06840    1.000
    H20      H        0.75050    0.12750    0.07750    1.000
    C41      C        0.82110    0.24580    0.08750    1.000
    C42      C        0.67230    0.06160    0.02810    1.000
    C43      C        0.67140    0.02340    0.07240    1.000
    H21      H        0.69390    0.04230    0.07920    1.000
    C44      C        0.65530    0.99130    0.08860    1.000
    H22      H        0.66700    0.98780    0.10630    1.000
    C45      C        0.62250    0.96440    0.07900    1.000
    C46      C        0.60500    0.96880    0.05310    1.000
    H23      H        0.58210    0.95010    0.04690    1.000
    C47      C        0.62140    0.00060    0.03640    1.000
    H24      H        0.61010    0.00360    0.01820    1.000
    C48      C        0.60470    0.92930    0.09570    1.000
    C49      C        0.63760    0.15830    0.79230    1.000
    C50      C        0.64410    0.19540    0.79330    1.000
    C51      C        0.67480    0.22320    0.77960    1.000
    H25      H        0.69170    0.21830    0.76990    1.000
    C52      C        0.68080    0.25750    0.77990    1.000
    H26      H        0.70230    0.27640    0.77120    1.000
    C53      C        0.65550    0.26430    0.79280    1.000
    C54      C        0.62490    0.23730    0.80630    1.000
    H27      H        0.60770    0.24240    0.81540    1.000
    C55      C        0.61900    0.20220    0.80650    1.000
    H28      H        0.59790    0.18340    0.81580    1.000
    C56      C        0.66130    0.30110    0.79250    1.000
    O15      O        0.36100    0.84400    0.48400    1.000
    O16      O        0.41700    0.86500    0.49200    1.000
    C57      C        0.38600    0.84350    0.49970    1.000
    C58      C        0.37300    0.80360    0.50710    1.000
    C59      C        0.33750    0.77700    0.50970    1.000
    C60      C        0.32890    0.74210    0.51630    1.000
    C61      C        0.35580    0.73380    0.52000    1.000
    C62      C        0.39140    0.76040    0.51770    1.000
    C63      C        0.40000    0.79530    0.51100    1.000
    N8       N        0.37320    0.68790    0.52000    1.000
    C64      C        0.34620    0.69410    0.52000    1.000
    O17      O        0.24400    0.98000    0.78200    1.000
    O18      O        0.24240    0.00800    0.73790    1.000
    C65      C        0.34050    0.98200    0.71400    1.000
    C66      C        0.30600    0.95800    0.70430    1.000
    H29      H        0.30170    0.94180    0.68770    1.000
    C67      C        0.27720    0.95900    0.71880    1.000
    H30      H        0.25350    0.94280    0.71200    1.000
    C68      C        0.28320    0.98300    0.74300    1.000
    C69      C        0.31800    0.00700    0.75290    1.000
    H31      H        0.32200    0.02360    0.76950    1.000
    C70      C        0.34650    0.00600    0.73800    1.000
    H32      H        0.37020    0.02260    0.74520    1.000
    C71      C        0.25600    0.99100    0.75200    1.000
    O19      O        0.33790    0.84940    0.46540    1.000
    O20      O        0.39030    0.86690    0.48390    1.000
    C72      C        0.35910    0.84240    0.47950    1.000
    C73      C        0.35150    0.80360    0.48250    1.000
    C74      C        0.31770    0.77420    0.47790    1.000
    C75      C        0.31240    0.73990    0.48100    1.000
    C76      C        0.34100    0.73500    0.48870    1.000
    C77      C        0.37480    0.76440    0.49330    1.000
    C78      C        0.38000    0.79870    0.49020    1.000
    N9       N        0.36690    0.69760    0.48850    1.000
    C79      C        0.33610    0.69720    0.48850    1.000
    In3      In       0.29395    0.42686    0.12432    1.000
    In4      In       0.04173    0.23756    0.80062    1.000
    O21      O        0.23447    0.39003    0.12223    1.000
    O22      O        0.26187    0.41703    0.07823    1.000
    O23      O        0.01557    0.23743    0.84823    1.000
    O24      O        0.07367    0.26823    0.84253    1.000
    O25      O        0.33597    0.44623    0.16363    1.000
    O26      O        0.28117    0.40523    0.17453    1.000
    O27      O        0.49097    0.60853    0.41403    1.000
    O28      O        0.50437    0.57553    0.44343    1.000
    O29      O        0.28947    0.25463    0.44813    1.000
    O30      O        0.23887    0.24083    0.42443    1.000
    O31      O        0.27897    0.46763    0.14123    1.000
    O32      O        0.32477    0.48473    0.10893    1.000
    N10      N        0.06987    0.33013    0.04823    1.000
    N11      N        0.09477    0.32213    0.00103    1.000
    N12      N        0.03417    0.30683    0.00253    1.000
    N13      N        0.37277    0.45533    0.32793    1.000
    N14      N        0.36527    0.42343    0.37573    1.000
    N15      N        0.32827    0.39473    0.33123    1.000
    N16      N        0.36177    0.66103    0.12593    1.000
    C80      C        0.23367    0.39643    0.09243    1.000
    C81      C        0.19837    0.37973    0.07683    1.000
    C82      C        0.19597    0.37883    0.04423    1.000
    H33      H        0.21707    0.38963    0.03163    1.000
    C83      C        0.16277    0.36213    0.02943    1.000
    H34      H        0.16137    0.36093    0.00673    1.000
    C84      C        0.13247    0.34783    0.04673    1.000
    C85      C        0.13397    0.34853    0.07973    1.000
    H35      H        0.11277    0.33843    0.09213    1.000
    C86      C        0.16777    0.36463    0.09453    1.000
    H36      H        0.16937    0.36503    0.11713    1.000
    C87      C        0.09717    0.33213    0.03113    1.000
    C88      C        0.03927    0.31813    0.03293    1.000
    C89      C        0.06247    0.30783    0.98773    1.000
    O33      O        0.91507    0.28693    0.13013    1.000
    O34      O        0.90677    0.32213    0.09953    1.000
    C90      C        0.01007    0.31803    0.05073    1.000
    C91      C        0.00837    0.31293    0.08313    1.000
    H37      H        0.02687    0.31123    0.09373    1.000
    C92      C        0.98047    0.31023    0.10033    1.000
    H38      H        0.97897    0.30513    0.12253    1.000
    C93      C        0.95677    0.31443    0.08703    1.000
    C94      C        0.95807    0.32283    0.05433    1.000
    H39      H        0.94107    0.32803    0.04513    1.000
    C95      C        0.98547    0.32323    0.03573    1.000
    H40      H        0.98657    0.32703    0.01333    1.000
    C96      C        0.92317    0.30643    0.10603    1.000
    C97      C        0.05767    0.29483    0.95523    1.000
    C98      C        0.02367    0.27443    0.94223    1.000
    H41      H        0.00317    0.26863    0.95473    1.000
    C99      C        0.01967    0.26273    0.91133    1.000
    H42      H        0.99637    0.24953    0.90233    1.000
    C100     C        0.04957    0.26993    0.89303    1.000
    C101     C        0.08307    0.28983    0.90623    1.000
    H43      H        0.10357    0.29533    0.89383    1.000
    C102     C        0.08717    0.30163    0.93693    1.000
    H44      H        0.11047    0.31463    0.94593    1.000
    C103     C        0.04567    0.25753    0.85923    1.000
    C104     C        0.31327    0.42553    0.18333    1.000
    C105     C        0.29867    0.39873    0.23753    1.000
    H45      H        0.27657    0.38033    0.22943    1.000
    C106     C        0.32177    0.42513    0.21753    1.000
    C107     C        0.30657    0.39803    0.26893    1.000
    H46      H        0.29047    0.37903    0.28233    1.000
    C108     C        0.33867    0.42543    0.28143    1.000
    C109     C        0.36187    0.45223    0.26143    1.000
    H47      H        0.38357    0.47113    0.26963    1.000
    C110     C        0.35397    0.45183    0.22963    1.000
    H48      H        0.37067    0.46993    0.21593    1.000
    C111     C        0.34697    0.42493    0.31523    1.000
    C112     C        0.38117    0.45333    0.35753    1.000
    C113     C        0.32107    0.36143    0.37963    1.000
    C114     C        0.40867    0.48653    0.37343    1.000
    C115     C        0.42077    0.51913    0.35943    1.000
    H49      H        0.41267    0.52083    0.33883    1.000
    C116     C        0.44487    0.54953    0.37553    1.000
    H50      H        0.45097    0.57223    0.36703    1.000
    C117     C        0.46017    0.54793    0.40333    1.000
    C118     C        0.45047    0.51493    0.41603    1.000
    H51      H        0.46177    0.51343    0.43493    1.000
    C119     C        0.42427    0.48353    0.40173    1.000
    H52      H        0.41717    0.46083    0.41083    1.000
    C120     C        0.48777    0.57913    0.42083    1.000
    C121     C        0.33897    0.39493    0.36143    1.000
    C122     C        0.33807    0.35673    0.40573    1.000
    H53      H        0.36057    0.37563    0.41253    1.000
    C123     C        0.32197    0.32463    0.42193    1.000
    H54      H        0.33367    0.32113    0.43963    1.000
    C124     C        0.28917    0.29773    0.41233    1.000
    C125     C        0.27167    0.30213    0.38643    1.000
    H55      H        0.24877    0.28343    0.38023    1.000
    C126     C        0.28807    0.33393    0.36973    1.000
    H56      H        0.27677    0.33693    0.35153    1.000
    C127     C        0.27137    0.26263    0.42903    1.000
    C128     C        0.30427    0.49163    0.12563    1.000
    C129     C        0.31077    0.52873    0.12663    1.000
    C130     C        0.34147    0.55653    0.11293    1.000
    H57      H        0.35837    0.55163    0.10323    1.000
    C131     C        0.34747    0.59083    0.11323    1.000
    H58      H        0.36897    0.60973    0.10453    1.000
    C132     C        0.32217    0.59763    0.12613    1.000
    C133     C        0.29157    0.57063    0.13963    1.000
    H59      H        0.27437    0.57573    0.14873    1.000
    C134     C        0.28567    0.53553    0.13983    1.000
    H60      H        0.26457    0.51673    0.14913    1.000
    C135     C        0.32797    0.63443    0.12583    1.000
    O35      O        0.02767    0.17733    0.81733    1.000
    O36      O        0.08367    0.19833    0.82533    1.000
    C136     C        0.05267    0.17683    0.83303    1.000
    C137     C        0.03967    0.13693    0.84043    1.000
    C138     C        0.00417    0.11033    0.84303    1.000
    C139     C        0.99557    0.07543    0.84963    1.000
    C140     C        0.02247    0.06713    0.85333    1.000
    C141     C        0.05807    0.09373    0.85103    1.000
    C142     C        0.06667    0.12863    0.84433    1.000
    N17      N        0.03987    0.02123    0.85333    1.000
    C143     C        0.01287    0.02743    0.85333    1.000
    O37      O        0.91067    0.31333    0.11533    1.000
    O38      O        0.90907    0.34133    0.07123    1.000
    C144     C        0.00717    0.31533    0.04733    1.000
    C145     C        0.97267    0.29133    0.03763    1.000
    H61      H        0.96837    0.27513    0.02103    1.000
    C146     C        0.94387    0.29233    0.05213    1.000
    H62      H        0.92017    0.27613    0.04533    1.000
    C147     C        0.94987    0.31633    0.07633    1.000
    C148     C        0.98467    0.34033    0.08623    1.000
    H63      H        0.98867    0.35693    0.10283    1.000
    C149     C        0.01317    0.33933    0.07133    1.000
    H64      H        0.03687    0.35593    0.07853    1.000
    C150     C        0.92267    0.32433    0.08533    1.000
    O39      O        0.00457    0.18273    0.79873    1.000
    O40      O        0.05697    0.20023    0.81723    1.000
    C151     C        0.02577    0.17573    0.81283    1.000
    C152     C        0.01817    0.13693    0.81583    1.000
    C153     C        0.98437    0.10753    0.81123    1.000
    C154     C        0.97907    0.07323    0.81433    1.000
    C155     C        0.00767    0.06833    0.82203    1.000
    C156     C        0.04147    0.09773    0.82663    1.000
    C157     C        0.04667    0.13203    0.82353    1.000
    N18      N        0.03357    0.03093    0.82183    1.000
    C158     C        0.00277    0.03053    0.82183    1.000
    In5      In       0.96061    0.76020    0.45766    1.000
    In6      In       0.70839    0.57090    0.13396    1.000
    O41      O        0.90113    0.72337    0.45557    1.000
    O42      O        0.92853    0.75037    0.41157    1.000
    O43      O        0.68223    0.57077    0.18157    1.000
    O44      O        0.74033    0.60157    0.17587    1.000
    O45      O        0.00263    0.77957    0.49697    1.000
    O46      O        0.94783    0.73857    0.50787    1.000
    O47      O        0.15763    0.94187    0.74737    1.000
    O48      O        0.17103    0.90887    0.77677    1.000
    O49      O        0.95613    0.58797    0.78147    1.000
    O50      O        0.90553    0.57417    0.75777    1.000
    O51      O        0.94563    0.80097    0.47457    1.000
    O52      O        0.99143    0.81807    0.44227    1.000
    N19      N        0.73653    0.66347    0.38157    1.000
    N20      N        0.76143    0.65547    0.33437    1.000
    N21      N        0.70083    0.64017    0.33587    1.000
    N22      N        0.03943    0.78867    0.66127    1.000
    N23      N        0.03193    0.75677    0.70907    1.000
    N24      N        0.99493    0.72807    0.66457    1.000
    N25      N        0.02843    0.99437    0.45927    1.000
    C159     C        0.90033    0.72977    0.42577    1.000
    C160     C        0.86503    0.71307    0.41017    1.000
    C161     C        0.86263    0.71217    0.37757    1.000
    H65      H        0.88373    0.72297    0.36497    1.000
    C162     C        0.82943    0.69547    0.36277    1.000
    H66      H        0.82803    0.69427    0.34007    1.000
    C163     C        0.79913    0.68117    0.38007    1.000
    C164     C        0.80063    0.68187    0.41307    1.000
    H67      H        0.77943    0.67177    0.42547    1.000
    C165     C        0.83443    0.69797    0.42787    1.000
    H68      H        0.83603    0.69837    0.45047    1.000
    C166     C        0.76383    0.66547    0.36447    1.000
    C167     C        0.70593    0.65147    0.36627    1.000
    C168     C        0.72913    0.64117    0.32107    1.000
    O53      O        0.58173    0.62027    0.46347    1.000
    O54      O        0.57343    0.65547    0.43287    1.000
    C169     C        0.67673    0.65137    0.38407    1.000
    C170     C        0.67503    0.64627    0.41647    1.000
    H69      H        0.69353    0.64457    0.42707    1.000
    C171     C        0.64713    0.64357    0.43367    1.000
    H70      H        0.64563    0.63847    0.45587    1.000
    C172     C        0.62343    0.64777    0.42037    1.000
    C173     C        0.62473    0.65617    0.38767    1.000
    H71      H        0.60773    0.66137    0.37847    1.000
    C174     C        0.65213    0.65657    0.36907    1.000
    H72      H        0.65323    0.66037    0.34667    1.000
    C175     C        0.58983    0.63977    0.43937    1.000
    C176     C        0.72433    0.62817    0.28857    1.000
    C177     C        0.69033    0.60777    0.27557    1.000
    H73      H        0.66983    0.60197    0.28807    1.000
    C178     C        0.68633    0.59607    0.24467    1.000
    H74      H        0.66303    0.58287    0.23567    1.000
    C179     C        0.71623    0.60327    0.22637    1.000
    C180     C        0.74973    0.62317    0.23957    1.000
    H75      H        0.77023    0.62867    0.22717    1.000
    C181     C        0.75383    0.63497    0.27027    1.000
    H76      H        0.77713    0.64797    0.27927    1.000
    C182     C        0.71233    0.59087    0.19257    1.000
    C183     C        0.97993    0.75887    0.51667    1.000
    C184     C        0.96533    0.73207    0.57087    1.000
    H77      H        0.94323    0.71367    0.56277    1.000
    C185     C        0.98843    0.75847    0.55087    1.000
    C186     C        0.97323    0.73137    0.60227    1.000
    H78      H        0.95713    0.71237    0.61567    1.000
    C187     C        0.00533    0.75877    0.61477    1.000
    C188     C        0.02853    0.78557    0.59477    1.000
    H79      H        0.05023    0.80447    0.60297    1.000
    C189     C        0.02063    0.78517    0.56297    1.000
    H80      H        0.03733    0.80327    0.54927    1.000
    C190     C        0.01363    0.75827    0.64857    1.000
    C191     C        0.04783    0.78667    0.69087    1.000
    C192     C        0.98773    0.69477    0.71297    1.000
    C193     C        0.07533    0.81987    0.70677    1.000
    C194     C        0.08743    0.85247    0.69277    1.000
    H81      H        0.07933    0.85417    0.67217    1.000
    C195     C        0.11153    0.88287    0.70887    1.000
    H82      H        0.11763    0.90557    0.70037    1.000
    C196     C        0.12683    0.88127    0.73667    1.000
    C197     C        0.11713    0.84827    0.74937    1.000
    H83      H        0.12843    0.84677    0.76827    1.000
    C198     C        0.09093    0.81687    0.73507    1.000
    H84      H        0.08383    0.79417    0.74417    1.000
    C199     C        0.15443    0.91247    0.75417    1.000
    C200     C        0.00563    0.72827    0.69477    1.000
    C201     C        0.00473    0.69007    0.73907    1.000
    H85      H        0.02723    0.70897    0.74587    1.000
    C202     C        0.98863    0.65797    0.75527    1.000
    H86      H        0.00033    0.65447    0.77297    1.000
    C203     C        0.95583    0.63107    0.74567    1.000
    C204     C        0.93833    0.63547    0.71977    1.000
    H87      H        0.91543    0.61677    0.71357    1.000
    C205     C        0.95473    0.66727    0.70307    1.000
    H88      H        0.94343    0.67027    0.68487    1.000
    C206     C        0.93803    0.59597    0.76237    1.000
    C207     C        0.97093    0.82497    0.45897    1.000
    C208     C        0.97743    0.86207    0.45997    1.000
    C209     C        0.00813    0.88987    0.44627    1.000
    H89      H        0.02503    0.88497    0.43657    1.000
    C210     C        0.01413    0.92417    0.44657    1.000
    H90      H        0.03563    0.94307    0.43787    1.000
    C211     C        0.98883    0.93097    0.45947    1.000
    C212     C        0.95823    0.90397    0.47297    1.000
    H91      H        0.94103    0.90907    0.48207    1.000
    C213     C        0.95233    0.86887    0.47317    1.000
    H92      H        0.93123    0.85007    0.48247    1.000
    C214     C        0.99463    0.96777    0.45917    1.000
    O55      O        0.69433    0.51067    0.15067    1.000
    O56      O        0.75033    0.53167    0.15867    1.000
    C215     C        0.71933    0.51017    0.16637    1.000
    C216     C        0.70633    0.47027    0.17377    1.000
    C217     C        0.67083    0.44367    0.17637    1.000
    C218     C        0.66223    0.40877    0.18297    1.000
    C219     C        0.68913    0.40047    0.18667    1.000
    C220     C        0.72473    0.42707    0.18437    1.000
    C221     C        0.73333    0.46197    0.17767    1.000
    N26      N        0.70653    0.35457    0.18667    1.000
    C222     C        0.67953    0.36077    0.18667    1.000
    O57      O        0.57733    0.64667    0.44867    1.000
    O58      O        0.57573    0.67467    0.40457    1.000
    C223     C        0.67383    0.64867    0.38067    1.000
    C224     C        0.63933    0.62467    0.37097    1.000
    H93      H        0.63503    0.60847    0.35437    1.000
    C225     C        0.61053    0.62567    0.38547    1.000
    H94      H        0.58683    0.60947    0.37867    1.000
    C226     C        0.61653    0.64967    0.40967    1.000
    C227     C        0.65133    0.67367    0.41957    1.000
    H95      H        0.65533    0.69027    0.43617    1.000
    C228     C        0.67983    0.67267    0.40467    1.000
    H96      H        0.70353    0.68927    0.41187    1.000
    C229     C        0.58933    0.65767    0.41867    1.000
    O59      O        0.67123    0.51607    0.13207    1.000
    O60      O        0.72363    0.53357    0.15057    1.000
    C230     C        0.69243    0.50907    0.14617    1.000
    C231     C        0.68483    0.47027    0.14917    1.000
    C232     C        0.65103    0.44087    0.14457    1.000
    C233     C        0.64573    0.40657    0.14767    1.000
    C234     C        0.67433    0.40167    0.15537    1.000
    C235     C        0.70813    0.43107    0.15997    1.000
    C236     C        0.71333    0.46537    0.15687    1.000
    N27      N        0.70023    0.36427    0.15517    1.000
    C237     C        0.66943    0.36387    0.15517    1.000
    In7      In       0.90647    0.53375    0.79099    1.000
    In8      In       0.09577    0.47083    0.46729    1.000
    O61      O        0.94330    0.51110    0.78890    1.000
    O62      O        0.91630    0.51150    0.74490    1.000
    O63      O        0.09590    0.44480    0.51490    1.000
    O64      O        0.06510    0.47210    0.50920    1.000
    O65      O        0.88710    0.55640    0.83030    1.000
    O66      O        0.92810    0.54260    0.84120    1.000
    O67      O        0.72480    0.54910    0.08070    1.000
    O68      O        0.75780    0.59550    0.11010    1.000
    O69      O        0.07870    0.70150    0.11480    1.000
    O70      O        0.09250    0.66470    0.09110    1.000
    O71      O        0.86570    0.47800    0.80790    1.000
    O72      O        0.84860    0.50670    0.77560    1.000
    N28      N        0.00320    0.40640    0.71490    1.000
    N29      N        0.01120    0.43930    0.66770    1.000
    N30      N        0.02650    0.39400    0.66920    1.000
    N31      N        0.87800    0.58410    0.99460    1.000
    N32      N        0.90990    0.60850    0.04240    1.000
    N33      N        0.93860    0.60020    0.99790    1.000
    N34      N        0.67230    0.36740    0.79260    1.000
    C238     C        0.93690    0.50390    0.75910    1.000
    C239     C        0.95360    0.48530    0.74350    1.000
    C240     C        0.95450    0.48380    0.71090    1.000
    H97      H        0.94370    0.49410    0.69830    1.000
    C241     C        0.97120    0.46730    0.69610    1.000
    H98      H        0.97240    0.46710    0.67340    1.000
    C242     C        0.98550    0.45130    0.71340    1.000
    C243     C        0.98480    0.45210    0.74640    1.000
    H99      H        0.99490    0.44100    0.75880    1.000
    C244     C        0.96870    0.46980    0.76120    1.000
    H100     H        0.96830    0.47100    0.78380    1.000
    C245     C        0.00120    0.43170    0.69780    1.000
    C246     C        0.01520    0.38780    0.69960    1.000
    C247     C        0.02550    0.42130    0.65440    1.000
    O73      O        0.04640    0.29480    0.79680    1.000
    O74      O        0.01120    0.25130    0.76620    1.000
    C248     C        0.01530    0.35870    0.71740    1.000
    C249     C        0.02040    0.36210    0.74980    1.000
    H101     H        0.02210    0.38230    0.76040    1.000
    C250     C        0.02310    0.33690    0.76700    1.000
    H102     H        0.02820    0.34050    0.78920    1.000
    C251     C        0.01890    0.30900    0.75370    1.000
    C252     C        0.01050    0.30190    0.72100    1.000
    H103     H        0.00530    0.27970    0.71180    1.000
    C253     C        0.01010    0.32890    0.70240    1.000
    H104     H        0.00630    0.32620    0.68000    1.000
    C254     C        0.02690    0.28340    0.77270    1.000
    C255     C        0.03850    0.42950    0.62190    1.000
    C256     C        0.05890    0.41590    0.60890    1.000
    H105     H        0.06470    0.40120    0.62140    1.000
    C257     C        0.07060    0.42360    0.57800    1.000
    H106     H        0.08380    0.41350    0.56900    1.000
    C258     C        0.06340    0.44630    0.55970    1.000
    C259     C        0.04350    0.45990    0.57290    1.000
    H107     H        0.03800    0.47490    0.56050    1.000
    C260     C        0.03170    0.45220    0.60360    1.000
    H108     H        0.01870    0.46250    0.61260    1.000
    C261     C        0.07580    0.45480    0.52590    1.000
    C262     C        0.90780    0.55440    0.85000    1.000
    C263     C        0.93460    0.56660    0.90420    1.000
    H109     H        0.95300    0.56290    0.89610    1.000
    C264     C        0.90820    0.56330    0.88420    1.000
    C265     C        0.93530    0.57520    0.93560    1.000
    H110     H        0.95430    0.57810    0.94900    1.000
    C266     C        0.90790    0.57990    0.94810    1.000
    C267     C        0.88110    0.57630    0.92810    1.000
    H111     H        0.86220    0.57910    0.93630    1.000
    C268     C        0.88150    0.56880    0.89630    1.000
    H112     H        0.86340    0.56740    0.88260    1.000
    C269     C        0.90840    0.58870    0.98190    1.000
    C270     C        0.88000    0.59450    0.02420    1.000
    C271     C        0.97190    0.62630    0.04630    1.000
    C272     C        0.84680    0.58880    0.04010    1.000
    C273     C        0.81420    0.56830    0.02610    1.000
    H113     H        0.81250    0.55850    0.00550    1.000
    C274     C        0.78380    0.56200    0.04220    1.000
    H114     H        0.76110    0.54540    0.03370    1.000
    C275     C        0.78540    0.57890    0.07000    1.000
    C276     C        0.81840    0.60220    0.08270    1.000
    H115     H        0.81990    0.61500    0.10160    1.000
    C277     C        0.84980    0.60740    0.06840    1.000
    H116     H        0.87250    0.62300    0.07750    1.000
    C278     C        0.75420    0.57530    0.08750    1.000
    C279     C        0.93840    0.61070    0.02810    1.000
    C280     C        0.97660    0.64800    0.07240    1.000
    H117     H        0.95770    0.65160    0.07920    1.000
    C281     C        0.00870    0.66400    0.08860    1.000
    H118     H        0.01220    0.67920    0.10630    1.000
    C282     C        0.03560    0.65810    0.07900    1.000
    C283     C        0.03120    0.63620    0.05310    1.000
    H119     H        0.04990    0.63200    0.04690    1.000
    C284     C        0.99940    0.62080    0.03640    1.000
    H120     H        0.99640    0.60650    0.01820    1.000
    C285     C        0.07070    0.67540    0.09570    1.000
    C286     C        0.84170    0.47930    0.79230    1.000
    C287     C        0.80460    0.44870    0.79330    1.000
    C288     C        0.77680    0.45160    0.77960    1.000
    H121     H        0.78170    0.47340    0.76990    1.000
    C289     C        0.74250    0.42330    0.77990    1.000
    H122     H        0.72360    0.42590    0.77120    1.000
    C290     C        0.73570    0.39120    0.79280    1.000
    C291     C        0.76270    0.38760    0.80630    1.000
    H123     H        0.75760    0.36530    0.81540    1.000
    C292     C        0.79780    0.41680    0.80650    1.000
    H124     H        0.81660    0.41450    0.81580    1.000
    C293     C        0.69890    0.36020    0.79250    1.000
    O75      O        0.15600    0.51700    0.48400    1.000
    O76      O        0.13500    0.55200    0.49200    1.000
    C294     C        0.15650    0.54250    0.49970    1.000
    C295     C        0.19640    0.56940    0.50710    1.000
    C296     C        0.22300    0.56050    0.50970    1.000
    C297     C        0.25790    0.58680    0.51630    1.000
    C298     C        0.26620    0.62200    0.52000    1.000
    C299     C        0.23960    0.63100    0.51770    1.000
    C300     C        0.20470    0.60470    0.51100    1.000
    N35      N        0.31210    0.68530    0.52000    1.000
    C301     C        0.30590    0.65210    0.52000    1.000
    O77      O        0.02000    0.26400    0.78200    1.000
    O78      O        0.99200    0.23440    0.73790    1.000
    C302     C        0.01800    0.35850    0.71400    1.000
    C303     C        0.04200    0.34800    0.70430    1.000
    H125     H        0.05820    0.35990    0.68770    1.000
    C304     C        0.04100    0.31820    0.71880    1.000
    H126     H        0.05720    0.31070    0.71200    1.000
    C305     C        0.01700    0.30020    0.74300    1.000
    C306     C        0.99300    0.31100    0.75290    1.000
    H127     H        0.97640    0.29840    0.76950    1.000
    C307     C        0.99400    0.34050    0.73800    1.000
    H128     H        0.97740    0.34760    0.74520    1.000
    C308     C        0.00900    0.26500    0.75200    1.000
    O79      O        0.15060    0.48850    0.46540    1.000
    O80      O        0.13310    0.52340    0.48390    1.000
    C309     C        0.15760    0.51670    0.47950    1.000
    C310     C        0.19640    0.54790    0.48250    1.000
    C311     C        0.22580    0.54350    0.47790    1.000
    C312     C        0.26010    0.57250    0.48100    1.000
    C313     C        0.26500    0.60600    0.48870    1.000
    C314     C        0.23560    0.61040    0.49330    1.000
    C315     C        0.20130    0.58130    0.49020    1.000
    N36      N        0.30240    0.66930    0.48850    1.000
    C316     C        0.30280    0.63890    0.48850    1.000
    In9      In       0.57314    0.86708    0.12432    1.000
    In10     In       0.76244    0.80416    0.80062    1.000
    O81      O        0.60997    0.84443    0.12223    1.000
    O82      O        0.58297    0.84483    0.07823    1.000
    O83      O        0.76257    0.77813    0.84823    1.000
    O84      O        0.73177    0.80543    0.84253    1.000
    O85      O        0.55377    0.88973    0.16363    1.000
    O86      O        0.59477    0.87593    0.17453    1.000
    O87      O        0.39147    0.88243    0.41403    1.000
    O88      O        0.42447    0.92883    0.44343    1.000
    O89      O        0.74537    0.03483    0.44813    1.000
    O90      O        0.75917    0.99803    0.42443    1.000
    O91      O        0.53237    0.81133    0.14123    1.000
    O92      O        0.51527    0.84003    0.10893    1.000
    N37      N        0.66987    0.73973    0.04823    1.000
    N38      N        0.67787    0.77263    0.00103    1.000
    N39      N        0.69317    0.72733    0.00253    1.000
    N40      N        0.54467    0.91743    0.32793    1.000
    N41      N        0.57657    0.94183    0.37573    1.000
    N42      N        0.60527    0.93353    0.33123    1.000
    N43      N        0.33897    0.70073    0.12593    1.000
    C317     C        0.60357    0.83723    0.09243    1.000
    C318     C        0.62027    0.81863    0.07683    1.000
    C319     C        0.62117    0.81713    0.04423    1.000
    H129     H        0.61037    0.82743    0.03163    1.000
    C320     C        0.63787    0.80063    0.02943    1.000
    H130     H        0.63907    0.80043    0.00673    1.000
    C321     C        0.65217    0.78463    0.04673    1.000
    C322     C        0.65147    0.78543    0.07973    1.000
    H131     H        0.66157    0.77433    0.09213    1.000
    C323     C        0.63537    0.80313    0.09453    1.000
    H132     H        0.63497    0.80433    0.11713    1.000
    C324     C        0.66787    0.76503    0.03113    1.000
    C325     C        0.68187    0.72113    0.03293    1.000
    C326     C        0.69217    0.75463    0.98773    1.000
    O93      O        0.71307    0.62813    0.13013    1.000
    O94      O        0.67787    0.58463    0.09953    1.000
    C327     C        0.68197    0.69203    0.05073    1.000
    C328     C        0.68707    0.69543    0.08313    1.000
    H133     H        0.68877    0.71563    0.09373    1.000
    C329     C        0.68977    0.67023    0.10033    1.000
    H134     H        0.69487    0.67383    0.12253    1.000
    C330     C        0.68557    0.64233    0.08703    1.000
    C331     C        0.67717    0.63523    0.05433    1.000
    H135     H        0.67197    0.61303    0.04513    1.000
    C332     C        0.67677    0.66223    0.03573    1.000
    H136     H        0.67297    0.65953    0.01333    1.000
    C333     C        0.69357    0.61673    0.10603    1.000
    C334     C        0.70517    0.76283    0.95523    1.000
    C335     C        0.72557    0.74923    0.94223    1.000
    H137     H        0.73137    0.73453    0.95473    1.000
    C336     C        0.73727    0.75693    0.91133    1.000
    H138     H        0.75047    0.74683    0.90233    1.000
    C337     C        0.73007    0.77963    0.89303    1.000
    C338     C        0.71017    0.79323    0.90623    1.000
    H139     H        0.70467    0.80823    0.89383    1.000
    C339     C        0.69837    0.78553    0.93693    1.000
    H140     H        0.68537    0.79583    0.94593    1.000
    C340     C        0.74247    0.78813    0.85923    1.000
    C341     C        0.57447    0.88773    0.18333    1.000
    C342     C        0.60127    0.89993    0.23753    1.000
    H141     H        0.61967    0.89623    0.22943    1.000
    C343     C        0.57487    0.89663    0.21753    1.000
    C344     C        0.60197    0.90853    0.26893    1.000
    H142     H        0.62097    0.91143    0.28233    1.000
    C345     C        0.57457    0.91323    0.28143    1.000
    C346     C        0.54777    0.90963    0.26143    1.000
    H143     H        0.52887    0.91243    0.26963    1.000
    C347     C        0.54817    0.90213    0.22963    1.000
    H144     H        0.53007    0.90073    0.21593    1.000
    C348     C        0.57507    0.92203    0.31523    1.000
    C349     C        0.54667    0.92783    0.35753    1.000
    C350     C        0.63857    0.95963    0.37963    1.000
    C351     C        0.51347    0.92213    0.37343    1.000
    C352     C        0.48087    0.90163    0.35943    1.000
    H145     H        0.47917    0.89183    0.33883    1.000
    C353     C        0.45047    0.89533    0.37553    1.000
    H146     H        0.42777    0.87873    0.36703    1.000
    C354     C        0.45207    0.91223    0.40333    1.000
    C355     C        0.48507    0.93553    0.41603    1.000
    H147     H        0.48657    0.94833    0.43493    1.000
    C356     C        0.51647    0.94073    0.40173    1.000
    H148     H        0.53917    0.95633    0.41083    1.000
    C357     C        0.42087    0.90863    0.42083    1.000
    C358     C        0.60507    0.94403    0.36143    1.000
    C359     C        0.64327    0.98133    0.40573    1.000
    H149     H        0.62437    0.98493    0.41253    1.000
    C360     C        0.67537    0.99733    0.42193    1.000
    H150     H        0.67887    0.01253    0.43963    1.000
    C361     C        0.70227    0.99143    0.41233    1.000
    C362     C        0.69787    0.96953    0.38643    1.000
    H151     H        0.71657    0.96533    0.38023    1.000
    C363     C        0.66607    0.95413    0.36973    1.000
    H152     H        0.66307    0.93983    0.35153    1.000
    C364     C        0.73737    0.00873    0.42903    1.000
    C365     C        0.50837    0.81263    0.12563    1.000
    C366     C        0.47127    0.78203    0.12663    1.000
    C367     C        0.44347    0.78493    0.11293    1.000
    H153     H        0.44837    0.80673    0.10323    1.000
    C368     C        0.40917    0.75663    0.11323    1.000
    H154     H        0.39027    0.75923    0.10453    1.000
    C369     C        0.40237    0.72453    0.12613    1.000
    C370     C        0.42937    0.72093    0.13963    1.000
    H155     H        0.42427    0.69863    0.14873    1.000
    C371     C        0.46447    0.75013    0.13983    1.000
    H156     H        0.48327    0.74783    0.14913    1.000
    C372     C        0.36557    0.69353    0.12583    1.000
    O95      O        0.82267    0.85033    0.81733    1.000
    O96      O        0.80167    0.88533    0.82533    1.000
    C373     C        0.82317    0.87583    0.83303    1.000
    C374     C        0.86307    0.90273    0.84043    1.000
    C375     C        0.88967    0.89383    0.84303    1.000
    C376     C        0.92457    0.92013    0.84963    1.000
    C377     C        0.93287    0.95533    0.85333    1.000
    C378     C        0.90627    0.96433    0.85103    1.000
    C379     C        0.87137    0.93803    0.84433    1.000
    N44      N        0.97877    0.01863    0.85333    1.000
    C380     C        0.97257    0.98543    0.85333    1.000
    O97      O        0.68667    0.59733    0.11533    1.000
    O98      O        0.65867    0.56773    0.07123    1.000
    C381     C        0.68467    0.69183    0.04733    1.000
    C382     C        0.70867    0.68133    0.03763    1.000
    H157     H        0.72487    0.69323    0.02103    1.000
    C383     C        0.70767    0.65153    0.05213    1.000
    H158     H        0.72387    0.64403    0.04533    1.000
    C384     C        0.68367    0.63353    0.07633    1.000
    C385     C        0.65967    0.64433    0.08623    1.000
    H159     H        0.64307    0.63173    0.10283    1.000
    C386     C        0.66067    0.67383    0.07133    1.000
    H160     H        0.64407    0.68093    0.07853    1.000
    C387     C        0.67567    0.59833    0.08533    1.000
    O99      O        0.81727    0.82183    0.79873    1.000
    O100     O        0.79977    0.85673    0.81723    1.000
    C388     C        0.82427    0.85003    0.81283    1.000
    C389     C        0.86307    0.88123    0.81583    1.000
    C390     C        0.89247    0.87683    0.81123    1.000
    C391     C        0.92677    0.90583    0.81433    1.000
    C392     C        0.93167    0.93933    0.82203    1.000
    C393     C        0.90227    0.94373    0.82663    1.000
    C394     C        0.86797    0.91463    0.82353    1.000
    N45      N        0.96907    0.00263    0.82183    1.000
    C395     C        0.96947    0.97223    0.82183    1.000
    In11     In       0.23980    0.20042    0.45766    1.000
    In12     In       0.42910    0.13750    0.13396    1.000
    O101     O        0.27663    0.17777    0.45557    1.000
    O102     O        0.24963    0.17817    0.41157    1.000
    O103     O        0.42923    0.11147    0.18157    1.000
    O104     O        0.39843    0.13877    0.17587    1.000
    O105     O        0.22043    0.22307    0.49697    1.000
    O106     O        0.26143    0.20927    0.50787    1.000
    O107     O        0.05813    0.21577    0.74737    1.000
    O108     O        0.09113    0.26217    0.77677    1.000
    O109     O        0.41203    0.36817    0.78147    1.000
    O110     O        0.42583    0.33137    0.75777    1.000
    O111     O        0.19903    0.14467    0.47457    1.000
    O112     O        0.18193    0.17337    0.44227    1.000
    N46      N        0.33653    0.07307    0.38157    1.000
    N47      N        0.34453    0.10597    0.33437    1.000
    N48      N        0.35983    0.06067    0.33587    1.000
    N49      N        0.21133    0.25077    0.66127    1.000
    N50      N        0.24323    0.27517    0.70907    1.000
    N51      N        0.27193    0.26687    0.66457    1.000
    N52      N        0.00563    0.03407    0.45927    1.000
    C396     C        0.27023    0.17057    0.42577    1.000
    C397     C        0.28693    0.15197    0.41017    1.000
    C398     C        0.28783    0.15047    0.37757    1.000
    H161     H        0.27703    0.16077    0.36497    1.000
    C399     C        0.30453    0.13397    0.36277    1.000
    H162     H        0.30573    0.13377    0.34007    1.000
    C400     C        0.31883    0.11797    0.38007    1.000
    C401     C        0.31813    0.11877    0.41307    1.000
    H163     H        0.32823    0.10767    0.42547    1.000
    C402     C        0.30203    0.13647    0.42787    1.000
    H164     H        0.30163    0.13767    0.45047    1.000
    C403     C        0.33453    0.09837    0.36447    1.000
    C404     C        0.34853    0.05447    0.36627    1.000
    C405     C        0.35883    0.08797    0.32107    1.000
    O113     O        0.37973    0.96147    0.46347    1.000
    O114     O        0.34453    0.91797    0.43287    1.000
    C406     C        0.34863    0.02537    0.38407    1.000
    C407     C        0.35373    0.02877    0.41647    1.000
    H165     H        0.35543    0.04897    0.42707    1.000
    C408     C        0.35643    0.00357    0.43367    1.000
    H166     H        0.36153    0.00717    0.45587    1.000
    C409     C        0.35223    0.97567    0.42037    1.000
    C410     C        0.34383    0.96857    0.38767    1.000
    H167     H        0.33863    0.94637    0.37847    1.000
    C411     C        0.34343    0.99557    0.36907    1.000
    H168     H        0.33963    0.99287    0.34667    1.000
    C412     C        0.36023    0.95007    0.43937    1.000
    C413     C        0.37183    0.09617    0.28857    1.000
    C414     C        0.39223    0.08257    0.27557    1.000
    H169     H        0.39803    0.06787    0.28807    1.000
    C415     C        0.40393    0.09027    0.24467    1.000
    H170     H        0.41713    0.08017    0.23567    1.000
    C416     C        0.39673    0.11297    0.22637    1.000
    C417     C        0.37683    0.12657    0.23957    1.000
    H171     H        0.37133    0.14157    0.22717    1.000
    C418     C        0.36503    0.11887    0.27027    1.000
    H172     H        0.35203    0.12917    0.27927    1.000
    C419     C        0.40913    0.12147    0.19257    1.000
    C420     C        0.24113    0.22107    0.51667    1.000
    C421     C        0.26793    0.23327    0.57087    1.000
    H173     H        0.28633    0.22957    0.56277    1.000
    C422     C        0.24153    0.22997    0.55087    1.000
    C423     C        0.26863    0.24187    0.60227    1.000
    H174     H        0.28763    0.24477    0.61567    1.000
    C424     C        0.24123    0.24657    0.61477    1.000
    C425     C        0.21443    0.24297    0.59477    1.000
    H175     H        0.19553    0.24577    0.60297    1.000
    C426     C        0.21483    0.23547    0.56297    1.000
    H176     H        0.19673    0.23407    0.54927    1.000
    C427     C        0.24173    0.25537    0.64857    1.000
    C428     C        0.21333    0.26117    0.69087    1.000
    C429     C        0.30523    0.29297    0.71297    1.000
    C430     C        0.18013    0.25547    0.70677    1.000
    C431     C        0.14753    0.23497    0.69277    1.000
    H177     H        0.14583    0.22517    0.67217    1.000
    C432     C        0.11713    0.22867    0.70887    1.000
    H178     H        0.09443    0.21207    0.70037    1.000
    C433     C        0.11873    0.24557    0.73667    1.000
    C434     C        0.15173    0.26887    0.74937    1.000
    H179     H        0.15323    0.28167    0.76827    1.000
    C435     C        0.18313    0.27407    0.73507    1.000
    H180     H        0.20583    0.28967    0.74417    1.000
    C436     C        0.08753    0.24197    0.75417    1.000
    C437     C        0.27173    0.27737    0.69477    1.000
    C438     C        0.30993    0.31467    0.73907    1.000
    H181     H        0.29103    0.31827    0.74587    1.000
    C439     C        0.34203    0.33067    0.75527    1.000
    H182     H        0.34553    0.34587    0.77297    1.000
    C440     C        0.36893    0.32477    0.74567    1.000
    C441     C        0.36453    0.30287    0.71977    1.000
    H183     H        0.38323    0.29867    0.71357    1.000
    C442     C        0.33273    0.28747    0.70307    1.000
    H184     H        0.32973    0.27317    0.68487    1.000
    C443     C        0.40403    0.34207    0.76237    1.000
    C444     C        0.17503    0.14597    0.45897    1.000
    C445     C        0.13793    0.11537    0.45997    1.000
    C446     C        0.11013    0.11827    0.44627    1.000
    H185     H        0.11503    0.14007    0.43657    1.000
    C447     C        0.07583    0.08997    0.44657    1.000
    H186     H        0.05693    0.09257    0.43787    1.000
    C448     C        0.06903    0.05787    0.45947    1.000
    C449     C        0.09603    0.05427    0.47297    1.000
    H187     H        0.09093    0.03197    0.48207    1.000
    C450     C        0.13113    0.08347    0.47317    1.000
    H188     H        0.14993    0.08117    0.48247    1.000
    C451     C        0.03223    0.02687    0.45917    1.000
    O115     O        0.48933    0.18367    0.15067    1.000
    O116     O        0.46833    0.21867    0.15867    1.000
    C452     C        0.48983    0.20917    0.16637    1.000
    C453     C        0.52973    0.23607    0.17377    1.000
    C454     C        0.55633    0.22717    0.17637    1.000
    C455     C        0.59123    0.25347    0.18297    1.000
    C456     C        0.59953    0.28867    0.18667    1.000
    C457     C        0.57293    0.29767    0.18437    1.000
    C458     C        0.53803    0.27137    0.17767    1.000
    N53      N        0.64543    0.35197    0.18667    1.000
    C459     C        0.63923    0.31877    0.18667    1.000
    O117     O        0.35333    0.93067    0.44867    1.000
    O118     O        0.32533    0.90107    0.40457    1.000
    C460     C        0.35133    0.02517    0.38067    1.000
    C461     C        0.37533    0.01467    0.37097    1.000
    H189     H        0.39153    0.02657    0.35437    1.000
    C462     C        0.37433    0.98487    0.38547    1.000
    H190     H        0.39053    0.97737    0.37867    1.000
    C463     C        0.35033    0.96687    0.40967    1.000
    C464     C        0.32633    0.97767    0.41957    1.000
    H191     H        0.30973    0.96507    0.43617    1.000
    C465     C        0.32733    0.00717    0.40467    1.000
    H192     H        0.31073    0.01427    0.41187    1.000
    C466     C        0.34233    0.93167    0.41867    1.000
    O119     O        0.48393    0.15517    0.13207    1.000
    O120     O        0.46643    0.19007    0.15057    1.000
    C467     C        0.49093    0.18337    0.14617    1.000
    C468     C        0.52973    0.21457    0.14917    1.000
    C469     C        0.55913    0.21017    0.14457    1.000
    C470     C        0.59343    0.23917    0.14767    1.000
    C471     C        0.59833    0.27267    0.15537    1.000
    C472     C        0.56893    0.27707    0.15997    1.000
    C473     C        0.53463    0.24797    0.15687    1.000
    N54      N        0.63573    0.33597    0.15517    1.000
    C474     C        0.63613    0.30557    0.15517    1.000
    In13     In       0.46625    0.37272    0.79099    1.000
    In14     In       0.52917    0.62494    0.46729    1.000
    O121     O        0.48890    0.43220    0.78890    1.000
    O122     O        0.48850    0.40480    0.74490    1.000
    O123     O        0.55520    0.65110    0.51490    1.000
    O124     O        0.52790    0.59300    0.50920    1.000
    O125     O        0.44360    0.33070    0.83030    1.000
    O126     O        0.45740    0.38550    0.84120    1.000
    O127     O        0.45090    0.17570    0.08070    1.000
    O128     O        0.40450    0.16230    0.11010    1.000
    O129     O        0.29850    0.37720    0.11480    1.000
    O130     O        0.33530    0.42780    0.09110    1.000
    O131     O        0.52200    0.38770    0.80790    1.000
    O132     O        0.49330    0.34190    0.77560    1.000
    N55      N        0.59360    0.59680    0.71490    1.000
    N56      N        0.56070    0.57190    0.66770    1.000
    N57      N        0.60600    0.63250    0.66920    1.000
    N58      N        0.41590    0.29390    0.99460    1.000
    N59      N        0.39150    0.30140    0.04240    1.000
    N60      N        0.39980    0.33840    0.99790    1.000
    N61      N        0.63260    0.30490    0.79260    1.000
    C475     C        0.49610    0.43300    0.75910    1.000
    C476     C        0.51470    0.46830    0.74350    1.000
    C477     C        0.51620    0.47070    0.71090    1.000
    H193     H        0.50590    0.44960    0.69830    1.000
    C478     C        0.53270    0.50390    0.69610    1.000
    H194     H        0.53290    0.50530    0.67340    1.000
    C479     C        0.54870    0.53420    0.71340    1.000
    C480     C        0.54790    0.53270    0.74640    1.000
    H195     H        0.55900    0.55390    0.75880    1.000
    C481     C        0.53020    0.49890    0.76120    1.000
    H196     H        0.52900    0.49730    0.78380    1.000
    C482     C        0.56830    0.56950    0.69780    1.000
    C483     C        0.61220    0.62740    0.69960    1.000
    C484     C        0.57870    0.60420    0.65440    1.000
    O133     O        0.70520    0.75160    0.79680    1.000
    O134     O        0.74870    0.75990    0.76620    1.000
    C485     C        0.64130    0.65660    0.71740    1.000
    C486     C        0.63790    0.65830    0.74980    1.000
    H197     H        0.61770    0.63980    0.76040    1.000
    C487     C        0.66310    0.68620    0.76700    1.000
    H198     H        0.65950    0.68770    0.78920    1.000
    C488     C        0.69100    0.70990    0.75370    1.000
    C489     C        0.69810    0.70860    0.72100    1.000
    H199     H        0.72030    0.72560    0.71180    1.000
    C490     C        0.67110    0.68120    0.70240    1.000
    H200     H        0.67380    0.68010    0.68000    1.000
    C491     C        0.71660    0.74350    0.77270    1.000
    C492     C        0.57050    0.60900    0.62190    1.000
    C493     C        0.58410    0.64300    0.60890    1.000
    H201     H        0.59880    0.66350    0.62140    1.000
    C494     C        0.57640    0.64700    0.57800    1.000
    H202     H        0.58650    0.67030    0.56900    1.000
    C495     C        0.55370    0.61710    0.55970    1.000
    C496     C        0.54010    0.58360    0.57290    1.000
    H203     H        0.52510    0.56310    0.56050    1.000
    C497     C        0.54780    0.57950    0.60360    1.000
    H204     H        0.53750    0.55620    0.61260    1.000
    C498     C        0.54520    0.62100    0.52590    1.000
    C499     C        0.44560    0.35340    0.85000    1.000
    C500     C        0.43340    0.36800    0.90420    1.000
    H205     H        0.43710    0.39010    0.89610    1.000
    C501     C        0.43670    0.34490    0.88420    1.000
    C502     C        0.42480    0.36010    0.93560    1.000
    H206     H        0.42190    0.37620    0.94900    1.000
    C503     C        0.42010    0.32800    0.94810    1.000
    C504     C        0.42370    0.30480    0.92810    1.000
    H207     H        0.42090    0.28310    0.93630    1.000
    C505     C        0.43120    0.31270    0.89630    1.000
    H208     H        0.43260    0.29600    0.88260    1.000
    C506     C        0.41130    0.31970    0.98190    1.000
    C507     C        0.40550    0.28550    0.02420    1.000
    C508     C        0.37370    0.34560    0.04630    1.000
    C509     C        0.41120    0.25800    0.04010    1.000
    C510     C        0.43170    0.24590    0.02610    1.000
    H209     H        0.44150    0.25400    0.00550    1.000
    C511     C        0.43800    0.22180    0.04220    1.000
    H210     H        0.45460    0.21570    0.03370    1.000
    C512     C        0.42110    0.20650    0.07000    1.000
    C513     C        0.39780    0.21620    0.08270    1.000
    H211     H        0.38500    0.20490    0.10160    1.000
    C514     C        0.39260    0.24240    0.06840    1.000
    H212     H        0.37700    0.24950    0.07750    1.000
    C515     C        0.42470    0.17890    0.08750    1.000
    C516     C        0.38930    0.32770    0.02810    1.000
    C517     C        0.35200    0.32860    0.07240    1.000
    H213     H        0.34840    0.30610    0.07920    1.000
    C518     C        0.33600    0.34470    0.08860    1.000
    H214     H        0.32080    0.33300    0.10630    1.000
    C519     C        0.34190    0.37750    0.07900    1.000
    C520     C        0.36380    0.39500    0.05310    1.000
    H215     H        0.36800    0.41790    0.04690    1.000
    C521     C        0.37920    0.37860    0.03640    1.000
    H216     H        0.39350    0.38990    0.01820    1.000
    C522     C        0.32460    0.39530    0.09570    1.000
    C523     C        0.52070    0.36240    0.79230    1.000
    C524     C        0.55130    0.35590    0.79330    1.000
    C525     C        0.54840    0.32520    0.77960    1.000
    H217     H        0.52660    0.30830    0.76990    1.000
    C526     C        0.57670    0.31920    0.77990    1.000
    H218     H        0.57410    0.29770    0.77120    1.000
    C527     C        0.60880    0.34450    0.79280    1.000
    C528     C        0.61240    0.37510    0.80630    1.000
    H219     H        0.63470    0.39230    0.81540    1.000
    C529     C        0.58320    0.38100    0.80650    1.000
    H220     H        0.58550    0.40210    0.81580    1.000
    C530     C        0.63980    0.33870    0.79250    1.000
    O135     O        0.48300    0.63900    0.48400    1.000
    O136     O        0.44800    0.58300    0.49200    1.000
    C531     C        0.45750    0.61400    0.49970    1.000
    C532     C        0.43060    0.62700    0.50710    1.000
    C533     C        0.43950    0.66250    0.50970    1.000
    C534     C        0.41320    0.67110    0.51630    1.000
    C535     C        0.37800    0.64420    0.52000    1.000
    C536     C        0.36900    0.60860    0.51770    1.000
    C537     C        0.39530    0.60000    0.51100    1.000
    N62      N        0.31470    0.62680    0.52000    1.000
    C538     C        0.34790    0.65380    0.52000    1.000
    O137     O        0.73600    0.75600    0.78200    1.000
    O138     O        0.76560    0.75760    0.73790    1.000
    C539     C        0.64150    0.65950    0.71400    1.000
    C540     C        0.65200    0.69400    0.70430    1.000
    H221     H        0.64010    0.69830    0.68770    1.000
    C541     C        0.68180    0.72280    0.71880    1.000
    H222     H        0.68930    0.74650    0.71200    1.000
    C542     C        0.69980    0.71680    0.74300    1.000
    C543     C        0.68900    0.68200    0.75290    1.000
    H223     H        0.70160    0.67800    0.76950    1.000
    C544     C        0.65950    0.65350    0.73800    1.000
    H224     H        0.65240    0.62980    0.74520    1.000
    C545     C        0.73500    0.74400    0.75200    1.000
    O139     O        0.51150    0.66210    0.46540    1.000
    O140     O        0.47660    0.60970    0.48390    1.000
    C546     C        0.48330    0.64090    0.47950    1.000
    C547     C        0.45210    0.64850    0.48250    1.000
    C548     C        0.45650    0.68230    0.47790    1.000
    C549     C        0.42750    0.68760    0.48100    1.000
    C550     C        0.39400    0.65900    0.48870    1.000
    C551     C        0.38960    0.62520    0.49330    1.000
    C552     C        0.41870    0.62000    0.49020    1.000
    N63      N        0.33070    0.63310    0.48850    1.000
    C553     C        0.36110    0.66390    0.48850    1.000
    In15     In       0.13292    0.70605    0.12432    1.000
    In16     In       0.19584    0.95827    0.80062    1.000
    O141     O        0.15557    0.76553    0.12223    1.000
    O142     O        0.15517    0.73813    0.07823    1.000
    O143     O        0.22187    0.98443    0.84823    1.000
    O144     O        0.19457    0.92633    0.84253    1.000
    O145     O        0.11027    0.66403    0.16363    1.000
    O146     O        0.12407    0.71883    0.17453    1.000
    O147     O        0.11757    0.50903    0.41403    1.000
    O148     O        0.07117    0.49563    0.44343    1.000
    O149     O        0.96517    0.71053    0.44813    1.000
    O150     O        0.00197    0.76113    0.42443    1.000
    O151     O        0.18867    0.72103    0.14123    1.000
    O152     O        0.15997    0.67523    0.10893    1.000
    N64      N        0.26027    0.93013    0.04823    1.000
    N65      N        0.22737    0.90523    0.00103    1.000
    N66      N        0.27267    0.96583    0.00253    1.000
    N67      N        0.08257    0.62723    0.32793    1.000
    N68      N        0.05817    0.63473    0.37573    1.000
    N69      N        0.06647    0.67173    0.33123    1.000
    N70      N        0.29927    0.63823    0.12593    1.000
    C554     C        0.16277    0.76633    0.09243    1.000
    C555     C        0.18137    0.80163    0.07683    1.000
    C556     C        0.18287    0.80403    0.04423    1.000
    H225     H        0.17257    0.78293    0.03163    1.000
    C557     C        0.19937    0.83723    0.02943    1.000
    H226     H        0.19957    0.83863    0.00673    1.000
    C558     C        0.21537    0.86753    0.04673    1.000
    C559     C        0.21457    0.86603    0.07973    1.000
    H227     H        0.22567    0.88723    0.09213    1.000
    C560     C        0.19687    0.83223    0.09453    1.000
    H228     H        0.19567    0.83063    0.11713    1.000
    C561     C        0.23497    0.90283    0.03113    1.000
    C562     C        0.27887    0.96073    0.03293    1.000
    C563     C        0.24537    0.93753    0.98773    1.000
    O153     O        0.37187    0.08493    0.13013    1.000
    O154     O        0.41537    0.09323    0.09953    1.000
    C564     C        0.30797    0.98993    0.05073    1.000
    C565     C        0.30457    0.99163    0.08313    1.000
    H229     H        0.28437    0.97313    0.09373    1.000
    C566     C        0.32977    0.01953    0.10033    1.000
    H230     H        0.32617    0.02103    0.12253    1.000
    C567     C        0.35767    0.04323    0.08703    1.000
    C568     C        0.36477    0.04193    0.05433    1.000
    H231     H        0.38697    0.05893    0.04513    1.000
    C569     C        0.33777    0.01453    0.03573    1.000
    H232     H        0.34047    0.01343    0.01333    1.000
    C570     C        0.38327    0.07683    0.10603    1.000
    C571     C        0.23717    0.94233    0.95523    1.000
    C572     C        0.25077    0.97633    0.94223    1.000
    H233     H        0.26547    0.99683    0.95473    1.000
    C573     C        0.24307    0.98033    0.91133    1.000
    H234     H        0.25317    0.00363    0.90233    1.000
    C574     C        0.22037    0.95043    0.89303    1.000
    C575     C        0.20677    0.91693    0.90623    1.000
    H235     H        0.19177    0.89643    0.89383    1.000
    C576     C        0.21447    0.91283    0.93693    1.000
    H236     H        0.20417    0.88953    0.94593    1.000
    C577     C        0.21187    0.95433    0.85923    1.000
    C578     C        0.11227    0.68673    0.18333    1.000
    C579     C        0.10007    0.70133    0.23753    1.000
    H237     H        0.10377    0.72343    0.22943    1.000
    C580     C        0.10337    0.67823    0.21753    1.000
    C581     C        0.09147    0.69343    0.26893    1.000
    H238     H        0.08857    0.70953    0.28233    1.000
    C582     C        0.08677    0.66133    0.28143    1.000
    C583     C        0.09037    0.63813    0.26143    1.000
    H239     H        0.08757    0.61643    0.26963    1.000
    C584     C        0.09787    0.64603    0.22963    1.000
    H240     H        0.09927    0.62933    0.21593    1.000
    C585     C        0.07797    0.65303    0.31523    1.000
    C586     C        0.07217    0.61883    0.35753    1.000
    C587     C        0.04037    0.67893    0.37963    1.000
    C588     C        0.07787    0.59133    0.37343    1.000
    C589     C        0.09837    0.57923    0.35943    1.000
    H241     H        0.10817    0.58733    0.33883    1.000
    C590     C        0.10467    0.55513    0.37553    1.000
    H242     H        0.12127    0.54903    0.36703    1.000
    C591     C        0.08777    0.53983    0.40333    1.000
    C592     C        0.06447    0.54953    0.41603    1.000
    H243     H        0.05167    0.53823    0.43493    1.000
    C593     C        0.05927    0.57573    0.40173    1.000
    H244     H        0.04367    0.58283    0.41083    1.000
    C594     C        0.09137    0.51223    0.42083    1.000
    C595     C        0.05597    0.66103    0.36143    1.000
    C596     C        0.01867    0.66193    0.40573    1.000
    H245     H        0.01507    0.63943    0.41253    1.000
    C597     C        0.00267    0.67803    0.42193    1.000
    H246     H        0.98747    0.66633    0.43963    1.000
    C598     C        0.00857    0.71083    0.41233    1.000
    C599     C        0.03047    0.72833    0.38643    1.000
    H247     H        0.03467    0.75123    0.38023    1.000
    C600     C        0.04587    0.71193    0.36973    1.000
    H248     H        0.06017    0.72323    0.35153    1.000
    C601     C        0.99127    0.72863    0.42903    1.000
    C602     C        0.18737    0.69573    0.12563    1.000
    C603     C        0.21797    0.68923    0.12663    1.000
    C604     C        0.21507    0.65853    0.11293    1.000
    H249     H        0.19327    0.64163    0.10323    1.000
    C605     C        0.24337    0.65253    0.11323    1.000
    H250     H        0.24077    0.63103    0.10453    1.000
    C606     C        0.27547    0.67783    0.12613    1.000
    C607     C        0.27907    0.70843    0.13963    1.000
    H251     H        0.30137    0.72563    0.14873    1.000
    C608     C        0.24987    0.71433    0.13983    1.000
    H252     H        0.25217    0.73543    0.14913    1.000
    C609     C        0.30647    0.67203    0.12583    1.000
    O155     O        0.14967    0.97233    0.81733    1.000
    O156     O        0.11467    0.91633    0.82533    1.000
    C610     C        0.12417    0.94733    0.83303    1.000
    C611     C        0.09727    0.96033    0.84043    1.000
    C612     C        0.10617    0.99583    0.84303    1.000
    C613     C        0.07987    0.00443    0.84963    1.000
    C614     C        0.04467    0.97753    0.85333    1.000
    C615     C        0.03567    0.94193    0.85103    1.000
    C616     C        0.06197    0.93333    0.84433    1.000
    N71      N        0.98137    0.96013    0.85333    1.000
    C617     C        0.01457    0.98713    0.85333    1.000
    O157     O        0.40267    0.08933    0.11533    1.000
    O158     O        0.43227    0.09093    0.07123    1.000
    C618     C        0.30817    0.99283    0.04733    1.000
    C619     C        0.31867    0.02733    0.03763    1.000
    H253     H        0.30677    0.03163    0.02103    1.000
    C620     C        0.34847    0.05613    0.05213    1.000
    H254     H        0.35597    0.07983    0.04533    1.000
    C621     C        0.36647    0.05013    0.07633    1.000
    C622     C        0.35567    0.01533    0.08623    1.000
    H255     H        0.36827    0.01133    0.10283    1.000
    C623     C        0.32617    0.98683    0.07133    1.000
    H256     H        0.31907    0.96313    0.07853    1.000
    C624     C        0.40167    0.07733    0.08533    1.000
    O159     O        0.17817    0.99543    0.79873    1.000
    O160     O        0.14327    0.94303    0.81723    1.000
    C625     C        0.14997    0.97423    0.81283    1.000
    C626     C        0.11877    0.98183    0.81583    1.000
    C627     C        0.12317    0.01563    0.81123    1.000
    C628     C        0.09417    0.02093    0.81433    1.000
    C629     C        0.06067    0.99233    0.82203    1.000
    C630     C        0.05627    0.95853    0.82663    1.000
    C631     C        0.08537    0.95333    0.82353    1.000
    N72      N        0.99737    0.96643    0.82183    1.000
    C632     C        0.02777    0.99723    0.82183    1.000
    In17     In       0.79958    0.03939    0.45766    1.000
    In18     In       0.86250    0.29161    0.13396    1.000
    O161     O        0.82223    0.09887    0.45557    1.000
    O162     O        0.82183    0.07147    0.41157    1.000
    O163     O        0.88853    0.31777    0.18157    1.000
    O164     O        0.86123    0.25967    0.17587    1.000
    O165     O        0.77693    0.99737    0.49697    1.000
    O166     O        0.79073    0.05217    0.50787    1.000
    O167     O        0.78423    0.84237    0.74737    1.000
    O168     O        0.73783    0.82897    0.77677    1.000
    O169     O        0.63183    0.04387    0.78147    1.000
    O170     O        0.66863    0.09447    0.75777    1.000
    O171     O        0.85533    0.05437    0.47457    1.000
    O172     O        0.82663    0.00857    0.44227    1.000
    N73      N        0.92693    0.26347    0.38157    1.000
    N74      N        0.89403    0.23857    0.33437    1.000
    N75      N        0.93933    0.29917    0.33587    1.000
    N76      N        0.74923    0.96057    0.66127    1.000
    N77      N        0.72483    0.96807    0.70907    1.000
    N78      N        0.73313    0.00507    0.66457    1.000
    N79      N        0.96593    0.97157    0.45927    1.000
    C633     C        0.82943    0.09967    0.42577    1.000
    C634     C        0.84803    0.13497    0.41017    1.000
    C635     C        0.84953    0.13737    0.37757    1.000
    H257     H        0.83923    0.11627    0.36497    1.000
    C636     C        0.86603    0.17057    0.36277    1.000
    H258     H        0.86623    0.17197    0.34007    1.000
    C637     C        0.88203    0.20087    0.38007    1.000
    C638     C        0.88123    0.19937    0.41307    1.000
    H259     H        0.89233    0.22057    0.42547    1.000
    C639     C        0.86353    0.16557    0.42787    1.000
    H260     H        0.86233    0.16397    0.45047    1.000
    C640     C        0.90163    0.23617    0.36447    1.000
    C641     C        0.94553    0.29407    0.36627    1.000
    C642     C        0.91203    0.27087    0.32107    1.000
    O173     O        0.03853    0.41827    0.46347    1.000
    O174     O        0.08203    0.42657    0.43287    1.000
    C643     C        0.97463    0.32327    0.38407    1.000
    C644     C        0.97123    0.32497    0.41647    1.000
    H261     H        0.95103    0.30647    0.42707    1.000
    C645     C        0.99643    0.35287    0.43367    1.000
    H262     H        0.99283    0.35437    0.45587    1.000
    C646     C        0.02433    0.37657    0.42037    1.000
    C647     C        0.03143    0.37527    0.38767    1.000
    H263     H        0.05363    0.39227    0.37847    1.000
    C648     C        0.00443    0.34787    0.36907    1.000
    H264     H        0.00713    0.34677    0.34667    1.000
    C649     C        0.04993    0.41017    0.43937    1.000
    C650     C        0.90383    0.27567    0.28857    1.000
    C651     C        0.91743    0.30967    0.27557    1.000
    H265     H        0.93213    0.33017    0.28807    1.000
    C652     C        0.90973    0.31367    0.24467    1.000
    H266     H        0.91983    0.33697    0.23567    1.000
    C653     C        0.88703    0.28377    0.22637    1.000
    C654     C        0.87343    0.25027    0.23957    1.000
    H267     H        0.85843    0.22977    0.22717    1.000
    C655     C        0.88113    0.24617    0.27027    1.000
    H268     H        0.87083    0.22287    0.27927    1.000
    C656     C        0.87853    0.28767    0.19257    1.000
    C657     C        0.77893    0.02007    0.51667    1.000
    C658     C        0.76673    0.03467    0.57087    1.000
    H269     H        0.77043    0.05677    0.56277    1.000
    C659     C        0.77003    0.01157    0.55087    1.000
    C660     C        0.75813    0.02677    0.60227    1.000
    H270     H        0.75523    0.04287    0.61567    1.000
    C661     C        0.75343    0.99467    0.61477    1.000
    C662     C        0.75703    0.97147    0.59477    1.000
    H271     H        0.75423    0.94977    0.60297    1.000
    C663     C        0.76453    0.97937    0.56297    1.000
    H272     H        0.76593    0.96267    0.54927    1.000
    C664     C        0.74463    0.98637    0.64857    1.000
    C665     C        0.73883    0.95217    0.69087    1.000
    C666     C        0.70703    0.01227    0.71297    1.000
    C667     C        0.74453    0.92467    0.70677    1.000
    C668     C        0.76503    0.91257    0.69277    1.000
    H273     H        0.77483    0.92067    0.67217    1.000
    C669     C        0.77133    0.88847    0.70887    1.000
    H274     H        0.78793    0.88237    0.70037    1.000
    C670     C        0.75443    0.87317    0.73667    1.000
    C671     C        0.73113    0.88287    0.74937    1.000
    H275     H        0.71833    0.87157    0.76827    1.000
    C672     C        0.72593    0.90907    0.73507    1.000
    H276     H        0.71033    0.91617    0.74417    1.000
    C673     C        0.75803    0.84557    0.75417    1.000
    C674     C        0.72263    0.99437    0.69477    1.000
    C675     C        0.68533    0.99527    0.73907    1.000
    H277     H        0.68173    0.97277    0.74587    1.000
    C676     C        0.66933    0.01137    0.75527    1.000
    H278     H        0.65413    0.99967    0.77297    1.000
    C677     C        0.67523    0.04417    0.74567    1.000
    C678     C        0.69713    0.06167    0.71977    1.000
    H279     H        0.70133    0.08457    0.71357    1.000
    C679     C        0.71253    0.04527    0.70307    1.000
    H280     H        0.72683    0.05657    0.68487    1.000
    C680     C        0.65793    0.06197    0.76237    1.000
    C681     C        0.85403    0.02907    0.45897    1.000
    C682     C        0.88463    0.02257    0.45997    1.000
    C683     C        0.88173    0.99187    0.44627    1.000
    H281     H        0.85993    0.97497    0.43657    1.000
    C684     C        0.91003    0.98587    0.44657    1.000
    H282     H        0.90743    0.96437    0.43787    1.000
    C685     C        0.94213    0.01117    0.45947    1.000
    C686     C        0.94573    0.04177    0.47297    1.000
    H283     H        0.96803    0.05897    0.48207    1.000
    C687     C        0.91653    0.04767    0.47317    1.000
    H284     H        0.91883    0.06877    0.48247    1.000
    C688     C        0.97313    0.00537    0.45917    1.000
    O175     O        0.81633    0.30567    0.15067    1.000
    O176     O        0.78133    0.24967    0.15867    1.000
    C689     C        0.79083    0.28067    0.16637    1.000
    C690     C        0.76393    0.29367    0.17377    1.000
    C691     C        0.77283    0.32917    0.17637    1.000
    C692     C        0.74653    0.33777    0.18297    1.000
    C693     C        0.71133    0.31087    0.18667    1.000
    C694     C        0.70233    0.27527    0.18437    1.000
    C695     C        0.72863    0.26667    0.17767    1.000
    N80      N        0.64803    0.29347    0.18667    1.000
    C696     C        0.68123    0.32047    0.18667    1.000
    O177     O        0.06933    0.42267    0.44867    1.000
    O178     O        0.09893    0.42427    0.40457    1.000
    C697     C        0.97483    0.32617    0.38067    1.000
    C698     C        0.98533    0.36067    0.37097    1.000
    H285     H        0.97343    0.36497    0.35437    1.000
    C699     C        0.01513    0.38947    0.38547    1.000
    H286     H        0.02263    0.41317    0.37867    1.000
    C700     C        0.03313    0.38347    0.40967    1.000
    C701     C        0.02233    0.34867    0.41957    1.000
    H287     H        0.03493    0.34467    0.43617    1.000
    C702     C        0.99283    0.32017    0.40467    1.000
    H288     H        0.98573    0.29647    0.41187    1.000
    C703     C        0.06833    0.41067    0.41867    1.000
    O179     O        0.84483    0.32877    0.13207    1.000
    O180     O        0.80993    0.27637    0.15057    1.000
    C704     C        0.81663    0.30757    0.14617    1.000
    C705     C        0.78543    0.31517    0.14917    1.000
    C706     C        0.78983    0.34897    0.14457    1.000
    C707     C        0.76083    0.35427    0.14767    1.000
    C708     C        0.72733    0.32567    0.15537    1.000
    C709     C        0.72293    0.29187    0.15997    1.000
    C710     C        0.75203    0.28667    0.15687    1.000
    N81      N        0.66403    0.29977    0.15517    1.000
    C711     C        0.69443    0.33057    0.15517    1.000
    In19     In       0.37272    0.90647    0.20901    1.000
    In20     In       0.62494    0.09577    0.53271    1.000
    O181     O        0.43220    0.94330    0.21110    1.000
    O182     O        0.40480    0.91630    0.25510    1.000
    O183     O        0.65110    0.09590    0.48510    1.000
    O184     O        0.59300    0.06510    0.49080    1.000
    O185     O        0.33070    0.88710    0.16970    1.000
    O186     O        0.38550    0.92810    0.15880    1.000
    O187     O        0.17570    0.72480    0.91930    1.000
    O188     O        0.16230    0.75780    0.88990    1.000
    O189     O        0.37720    0.07870    0.88520    1.000
    O190     O        0.42780    0.09250    0.90890    1.000
    O191     O        0.38770    0.86570    0.19210    1.000
    O192     O        0.34190    0.84860    0.22440    1.000
    N82      N        0.59680    0.00320    0.28510    1.000
    N83      N        0.57190    0.01120    0.33230    1.000
    N84      N        0.63250    0.02650    0.33080    1.000
    N85      N        0.29390    0.87800    0.00540    1.000
    N86      N        0.30140    0.90990    0.95760    1.000
    N87      N        0.33840    0.93860    0.00210    1.000
    N88      N        0.30490    0.67230    0.20740    1.000
    C712     C        0.43300    0.93690    0.24090    1.000
    C713     C        0.46830    0.95360    0.25650    1.000
    C714     C        0.47070    0.95450    0.28910    1.000
    H289     H        0.44960    0.94370    0.30170    1.000
    C715     C        0.50390    0.97120    0.30390    1.000
    H290     H        0.50530    0.97240    0.32660    1.000
    C716     C        0.53420    0.98550    0.28660    1.000
    C717     C        0.53270    0.98480    0.25360    1.000
    H291     H        0.55390    0.99490    0.24120    1.000
    C718     C        0.49890    0.96870    0.23880    1.000
    H292     H        0.49730    0.96830    0.21620    1.000
    C719     C        0.56950    0.00120    0.30220    1.000
    C720     C        0.62740    0.01520    0.30040    1.000
    C721     C        0.60420    0.02550    0.34560    1.000
    O193     O        0.75160    0.04640    0.20320    1.000
    O194     O        0.75990    0.01120    0.23380    1.000
    C722     C        0.65660    0.01530    0.28260    1.000
    C723     C        0.65830    0.02040    0.25020    1.000
    H293     H        0.63980    0.02210    0.23960    1.000
    C724     C        0.68620    0.02310    0.23300    1.000
    H294     H        0.68770    0.02820    0.21080    1.000
    C725     C        0.70990    0.01890    0.24630    1.000
    C726     C        0.70860    0.01050    0.27900    1.000
    H295     H        0.72560    0.00530    0.28820    1.000
    C727     C        0.68120    0.01010    0.29760    1.000
    H296     H        0.68010    0.00630    0.32000    1.000
    C728     C        0.74350    0.02690    0.22730    1.000
    C729     C        0.60900    0.03850    0.37810    1.000
    C730     C        0.64300    0.05890    0.39110    1.000
    H297     H        0.66350    0.06470    0.37860    1.000
    C731     C        0.64700    0.07060    0.42200    1.000
    H298     H        0.67030    0.08380    0.43100    1.000
    C732     C        0.61710    0.06340    0.44030    1.000
    C733     C        0.58360    0.04350    0.42710    1.000
    H299     H        0.56310    0.03800    0.43950    1.000
    C734     C        0.57950    0.03170    0.39640    1.000
    H300     H        0.55620    0.01870    0.38740    1.000
    C735     C        0.62100    0.07580    0.47410    1.000
    C736     C        0.35340    0.90780    0.15000    1.000
    C737     C        0.36800    0.93460    0.09580    1.000
    H301     H        0.39010    0.95300    0.10390    1.000
    C738     C        0.34490    0.90820    0.11580    1.000
    C739     C        0.36010    0.93530    0.06440    1.000
    H302     H        0.37620    0.95430    0.05100    1.000
    C740     C        0.32800    0.90790    0.05190    1.000
    C741     C        0.30480    0.88110    0.07190    1.000
    H303     H        0.28310    0.86220    0.06370    1.000
    C742     C        0.31270    0.88150    0.10370    1.000
    H304     H        0.29600    0.86340    0.11740    1.000
    C743     C        0.31970    0.90840    0.01810    1.000
    C744     C        0.28550    0.88000    0.97580    1.000
    C745     C        0.34560    0.97190    0.95370    1.000
    C746     C        0.25800    0.84680    0.95990    1.000
    C747     C        0.24590    0.81420    0.97390    1.000
    H305     H        0.25400    0.81250    0.99450    1.000
    C748     C        0.22180    0.78380    0.95780    1.000
    H306     H        0.21570    0.76110    0.96630    1.000
    C749     C        0.20650    0.78540    0.93000    1.000
    C750     C        0.21620    0.81840    0.91730    1.000
    H307     H        0.20490    0.81990    0.89840    1.000
    C751     C        0.24240    0.84980    0.93160    1.000
    H308     H        0.24950    0.87250    0.92250    1.000
    C752     C        0.17890    0.75420    0.91250    1.000
    C753     C        0.32770    0.93840    0.97190    1.000
    C754     C        0.32860    0.97660    0.92760    1.000
    H309     H        0.30610    0.95770    0.92080    1.000
    C755     C        0.34470    0.00870    0.91140    1.000
    H310     H        0.33300    0.01220    0.89370    1.000
    C756     C        0.37750    0.03560    0.92100    1.000
    C757     C        0.39500    0.03120    0.94690    1.000
    H311     H        0.41790    0.04990    0.95310    1.000
    C758     C        0.37860    0.99940    0.96360    1.000
    H312     H        0.38990    0.99640    0.98180    1.000
    C759     C        0.39530    0.07070    0.90430    1.000
    C760     C        0.36240    0.84170    0.20770    1.000
    C761     C        0.35590    0.80460    0.20670    1.000
    C762     C        0.32520    0.77680    0.22040    1.000
    H313     H        0.30830    0.78170    0.23010    1.000
    C763     C        0.31920    0.74250    0.22010    1.000
    H314     H        0.29770    0.72360    0.22880    1.000
    C764     C        0.34450    0.73570    0.20720    1.000
    C765     C        0.37510    0.76270    0.19370    1.000
    H315     H        0.39230    0.75760    0.18460    1.000
    C766     C        0.38100    0.79780    0.19350    1.000
    H316     H        0.40210    0.81660    0.18420    1.000
    C767     C        0.33870    0.69890    0.20750    1.000
    O195     O        0.63900    0.15600    0.51600    1.000
    O196     O        0.58300    0.13500    0.50800    1.000
    C768     C        0.61400    0.15650    0.50030    1.000
    C769     C        0.62700    0.19640    0.49290    1.000
    C770     C        0.66250    0.22300    0.49030    1.000
    C771     C        0.67110    0.25790    0.48370    1.000
    C772     C        0.64420    0.26620    0.48000    1.000
    C773     C        0.60860    0.23960    0.48230    1.000
    C774     C        0.60000    0.20470    0.48900    1.000
    N89      N        0.62680    0.31210    0.48000    1.000
    C775     C        0.65380    0.30590    0.48000    1.000
    O197     O        0.75600    0.02000    0.21800    1.000
    O198     O        0.75760    0.99200    0.26210    1.000
    C776     C        0.65950    0.01800    0.28600    1.000
    C777     C        0.69400    0.04200    0.29570    1.000
    H317     H        0.69830    0.05820    0.31230    1.000
    C778     C        0.72280    0.04100    0.28120    1.000
    H318     H        0.74650    0.05720    0.28800    1.000
    C779     C        0.71680    0.01700    0.25700    1.000
    C780     C        0.68200    0.99300    0.24710    1.000
    H319     H        0.67800    0.97640    0.23050    1.000
    C781     C        0.65350    0.99400    0.26200    1.000
    H320     H        0.62980    0.97740    0.25480    1.000
    C782     C        0.74400    0.00900    0.24800    1.000
    O199     O        0.66210    0.15060    0.53460    1.000
    O200     O        0.60970    0.13310    0.51610    1.000
    C783     C        0.64090    0.15760    0.52050    1.000
    C784     C        0.64850    0.19640    0.51750    1.000
    C785     C        0.68230    0.22580    0.52210    1.000
    C786     C        0.68760    0.26010    0.51900    1.000
    C787     C        0.65900    0.26500    0.51130    1.000
    C788     C        0.62520    0.23560    0.50670    1.000
    C789     C        0.62000    0.20130    0.50980    1.000
    N90      N        0.63310    0.30240    0.51150    1.000
    C790     C        0.66390    0.30280    0.51150    1.000
    In21     In       0.03939    0.23980    0.54234    1.000
    In22     In       0.29161    0.42910    0.86604    1.000
    O201     O        0.09887    0.27663    0.54443    1.000
    O202     O        0.07147    0.24963    0.58843    1.000
    O203     O        0.31777    0.42923    0.81843    1.000
    O204     O        0.25967    0.39843    0.82413    1.000
    O205     O        0.99737    0.22043    0.50303    1.000
    O206     O        0.05217    0.26143    0.49213    1.000
    O207     O        0.84237    0.05813    0.25263    1.000
    O208     O        0.82897    0.09113    0.22323    1.000
    O209     O        0.04387    0.41203    0.21853    1.000
    O210     O        0.09447    0.42583    0.24223    1.000
    O211     O        0.05437    0.19903    0.52543    1.000
    O212     O        0.00857    0.18193    0.55773    1.000
    N91      N        0.26347    0.33653    0.61843    1.000
    N92      N        0.23857    0.34453    0.66563    1.000
    N93      N        0.29917    0.35983    0.66413    1.000
    N94      N        0.96057    0.21133    0.33873    1.000
    N95      N        0.96807    0.24323    0.29093    1.000
    N96      N        0.00507    0.27193    0.33543    1.000
    N97      N        0.97157    0.00563    0.54073    1.000
    C791     C        0.09967    0.27023    0.57423    1.000
    C792     C        0.13497    0.28693    0.58983    1.000
    C793     C        0.13737    0.28783    0.62243    1.000
    H321     H        0.11627    0.27703    0.63503    1.000
    C794     C        0.17057    0.30453    0.63723    1.000
    H322     H        0.17197    0.30573    0.65993    1.000
    C795     C        0.20087    0.31883    0.61993    1.000
    C796     C        0.19937    0.31813    0.58693    1.000
    H323     H        0.22057    0.32823    0.57453    1.000
    C797     C        0.16557    0.30203    0.57213    1.000
    H324     H        0.16397    0.30163    0.54953    1.000
    C798     C        0.23617    0.33453    0.63553    1.000
    C799     C        0.29407    0.34853    0.63373    1.000
    C800     C        0.27087    0.35883    0.67893    1.000
    O213     O        0.41827    0.37973    0.53653    1.000
    O214     O        0.42657    0.34453    0.56713    1.000
    C801     C        0.32327    0.34863    0.61593    1.000
    C802     C        0.32497    0.35373    0.58353    1.000
    H325     H        0.30647    0.35543    0.57293    1.000
    C803     C        0.35287    0.35643    0.56633    1.000
    H326     H        0.35437    0.36153    0.54413    1.000
    C804     C        0.37657    0.35223    0.57963    1.000
    C805     C        0.37527    0.34383    0.61233    1.000
    H327     H        0.39227    0.33863    0.62153    1.000
    C806     C        0.34787    0.34343    0.63093    1.000
    H328     H        0.34677    0.33963    0.65333    1.000
    C807     C        0.41017    0.36023    0.56063    1.000
    C808     C        0.27567    0.37183    0.71143    1.000
    C809     C        0.30967    0.39223    0.72443    1.000
    H329     H        0.33017    0.39803    0.71193    1.000
    C810     C        0.31367    0.40393    0.75533    1.000
    H330     H        0.33697    0.41713    0.76433    1.000
    C811     C        0.28377    0.39673    0.77363    1.000
    C812     C        0.25027    0.37683    0.76043    1.000
    H331     H        0.22977    0.37133    0.77283    1.000
    C813     C        0.24617    0.36503    0.72973    1.000
    H332     H        0.22287    0.35203    0.72073    1.000
    C814     C        0.28767    0.40913    0.80743    1.000
    C815     C        0.02007    0.24113    0.48333    1.000
    C816     C        0.03467    0.26793    0.42913    1.000
    H333     H        0.05677    0.28633    0.43723    1.000
    C817     C        0.01157    0.24153    0.44913    1.000
    C818     C        0.02677    0.26863    0.39773    1.000
    H334     H        0.04287    0.28763    0.38433    1.000
    C819     C        0.99467    0.24123    0.38523    1.000
    C820     C        0.97147    0.21443    0.40523    1.000
    H335     H        0.94977    0.19553    0.39703    1.000
    C821     C        0.97937    0.21483    0.43703    1.000
    H336     H        0.96267    0.19673    0.45073    1.000
    C822     C        0.98637    0.24173    0.35143    1.000
    C823     C        0.95217    0.21333    0.30913    1.000
    C824     C        0.01227    0.30523    0.28703    1.000
    C825     C        0.92467    0.18013    0.29323    1.000
    C826     C        0.91257    0.14753    0.30723    1.000
    H337     H        0.92067    0.14583    0.32783    1.000
    C827     C        0.88847    0.11713    0.29113    1.000
    H338     H        0.88237    0.09443    0.29963    1.000
    C828     C        0.87317    0.11873    0.26333    1.000
    C829     C        0.88287    0.15173    0.25063    1.000
    H339     H        0.87157    0.15323    0.23173    1.000
    C830     C        0.90907    0.18313    0.26493    1.000
    H340     H        0.91617    0.20583    0.25583    1.000
    C831     C        0.84557    0.08753    0.24583    1.000
    C832     C        0.99437    0.27173    0.30523    1.000
    C833     C        0.99527    0.30993    0.26093    1.000
    H341     H        0.97277    0.29103    0.25413    1.000
    C834     C        0.01137    0.34203    0.24473    1.000
    H342     H        0.99967    0.34553    0.22703    1.000
    C835     C        0.04417    0.36893    0.25433    1.000
    C836     C        0.06167    0.36453    0.28023    1.000
    H343     H        0.08457    0.38323    0.28643    1.000
    C837     C        0.04527    0.33273    0.29693    1.000
    H344     H        0.05657    0.32973    0.31513    1.000
    C838     C        0.06197    0.40403    0.23763    1.000
    C839     C        0.02907    0.17503    0.54103    1.000
    C840     C        0.02257    0.13793    0.54003    1.000
    C841     C        0.99187    0.11013    0.55373    1.000
    H345     H        0.97497    0.11503    0.56343    1.000
    C842     C        0.98587    0.07583    0.55343    1.000
    H346     H        0.96437    0.05693    0.56213    1.000
    C843     C        0.01117    0.06903    0.54053    1.000
    C844     C        0.04177    0.09603    0.52703    1.000
    H347     H        0.05897    0.09093    0.51793    1.000
    C845     C        0.04767    0.13113    0.52683    1.000
    H348     H        0.06877    0.14993    0.51753    1.000
    C846     C        0.00537    0.03223    0.54083    1.000
    O215     O        0.30567    0.48933    0.84933    1.000
    O216     O        0.24967    0.46833    0.84133    1.000
    C847     C        0.28067    0.48983    0.83363    1.000
    C848     C        0.29367    0.52973    0.82623    1.000
    C849     C        0.32917    0.55633    0.82363    1.000
    C850     C        0.33777    0.59123    0.81703    1.000
    C851     C        0.31087    0.59953    0.81333    1.000
    C852     C        0.27527    0.57293    0.81563    1.000
    C853     C        0.26667    0.53803    0.82233    1.000
    N98      N        0.29347    0.64543    0.81333    1.000
    C854     C        0.32047    0.63923    0.81333    1.000
    O217     O        0.42267    0.35333    0.55133    1.000
    O218     O        0.42427    0.32533    0.59543    1.000
    C855     C        0.32617    0.35133    0.61933    1.000
    C856     C        0.36067    0.37533    0.62903    1.000
    H349     H        0.36497    0.39153    0.64563    1.000
    C857     C        0.38947    0.37433    0.61453    1.000
    H350     H        0.41317    0.39053    0.62133    1.000
    C858     C        0.38347    0.35033    0.59033    1.000
    C859     C        0.34867    0.32633    0.58043    1.000
    H351     H        0.34467    0.30973    0.56383    1.000
    C860     C        0.32017    0.32733    0.59533    1.000
    H352     H        0.29647    0.31073    0.58813    1.000
    C861     C        0.41067    0.34233    0.58133    1.000
    O219     O        0.32877    0.48393    0.86793    1.000
    O220     O        0.27637    0.46643    0.84943    1.000
    C862     C        0.30757    0.49093    0.85383    1.000
    C863     C        0.31517    0.52973    0.85083    1.000
    C864     C        0.34897    0.55913    0.85543    1.000
    C865     C        0.35427    0.59343    0.85233    1.000
    C866     C        0.32567    0.59833    0.84463    1.000
    C867     C        0.29187    0.56893    0.84003    1.000
    C868     C        0.28667    0.53463    0.84313    1.000
    N99      N        0.29977    0.63573    0.84483    1.000
    C869     C        0.33057    0.63613    0.84483    1.000
    In23     In       0.70605    0.57314    0.87568    1.000
    In24     In       0.95827    0.76244    0.19938    1.000
    O221     O        0.76553    0.60997    0.87777    1.000
    O222     O        0.73813    0.58297    0.92177    1.000
    O223     O        0.98443    0.76257    0.15177    1.000
    O224     O        0.92633    0.73177    0.15747    1.000
    O225     O        0.66403    0.55377    0.83637    1.000
    O226     O        0.71883    0.59477    0.82547    1.000
    O227     O        0.50903    0.39147    0.58597    1.000
    O228     O        0.49563    0.42447    0.55657    1.000
    O229     O        0.71053    0.74537    0.55187    1.000
    O230     O        0.76113    0.75917    0.57557    1.000
    O231     O        0.72103    0.53237    0.85877    1.000
    O232     O        0.67523    0.51527    0.89107    1.000
    N100     N        0.93013    0.66987    0.95177    1.000
    N101     N        0.90523    0.67787    0.99897    1.000
    N102     N        0.96583    0.69317    0.99747    1.000
    N103     N        0.62723    0.54467    0.67207    1.000
    N104     N        0.63473    0.57657    0.62427    1.000
    N105     N        0.67173    0.60527    0.66877    1.000
    N106     N        0.63823    0.33897    0.87407    1.000
    C870     C        0.76633    0.60357    0.90757    1.000
    C871     C        0.80163    0.62027    0.92317    1.000
    C872     C        0.80403    0.62117    0.95577    1.000
    H353     H        0.78293    0.61037    0.96837    1.000
    C873     C        0.83723    0.63787    0.97057    1.000
    H354     H        0.83863    0.63907    0.99327    1.000
    C874     C        0.86753    0.65217    0.95327    1.000
    C875     C        0.86603    0.65147    0.92027    1.000
    H355     H        0.88723    0.66157    0.90787    1.000
    C876     C        0.83223    0.63537    0.90547    1.000
    H356     H        0.83063    0.63497    0.88287    1.000
    C877     C        0.90283    0.66787    0.96887    1.000
    C878     C        0.96073    0.68187    0.96707    1.000
    C879     C        0.93753    0.69217    0.01227    1.000
    O233     O        0.08493    0.71307    0.86987    1.000
    O234     O        0.09323    0.67787    0.90047    1.000
    C880     C        0.98993    0.68197    0.94927    1.000
    C881     C        0.99163    0.68707    0.91687    1.000
    H357     H        0.97313    0.68877    0.90627    1.000
    C882     C        0.01953    0.68977    0.89967    1.000
    H358     H        0.02103    0.69487    0.87747    1.000
    C883     C        0.04323    0.68557    0.91297    1.000
    C884     C        0.04193    0.67717    0.94567    1.000
    H359     H        0.05893    0.67197    0.95487    1.000
    C885     C        0.01453    0.67677    0.96427    1.000
    H360     H        0.01343    0.67297    0.98667    1.000
    C886     C        0.07683    0.69357    0.89397    1.000
    C887     C        0.94233    0.70517    0.04477    1.000
    C888     C        0.97633    0.72557    0.05777    1.000
    H361     H        0.99683    0.73137    0.04527    1.000
    C889     C        0.98033    0.73727    0.08867    1.000
    H362     H        0.00363    0.75047    0.09767    1.000
    C890     C        0.95043    0.73007    0.10697    1.000
    C891     C        0.91693    0.71017    0.09377    1.000
    H363     H        0.89643    0.70467    0.10617    1.000
    C892     C        0.91283    0.69837    0.06307    1.000
    H364     H        0.88953    0.68537    0.05407    1.000
    C893     C        0.95433    0.74247    0.14077    1.000
    C894     C        0.68673    0.57447    0.81667    1.000
    C895     C        0.70133    0.60127    0.76247    1.000
    H365     H        0.72343    0.61967    0.77057    1.000
    C896     C        0.67823    0.57487    0.78247    1.000
    C897     C        0.69343    0.60197    0.73107    1.000
    H366     H        0.70953    0.62097    0.71767    1.000
    C898     C        0.66133    0.57457    0.71857    1.000
    C899     C        0.63813    0.54777    0.73857    1.000
    H367     H        0.61643    0.52887    0.73037    1.000
    C900     C        0.64603    0.54817    0.77037    1.000
    H368     H        0.62933    0.53007    0.78407    1.000
    C901     C        0.65303    0.57507    0.68477    1.000
    C902     C        0.61883    0.54667    0.64247    1.000
    C903     C        0.67893    0.63857    0.62037    1.000
    C904     C        0.59133    0.51347    0.62657    1.000
    C905     C        0.57923    0.48087    0.64057    1.000
    H369     H        0.58733    0.47917    0.66117    1.000
    C906     C        0.55513    0.45047    0.62447    1.000
    H370     H        0.54903    0.42777    0.63297    1.000
    C907     C        0.53983    0.45207    0.59667    1.000
    C908     C        0.54953    0.48507    0.58397    1.000
    H371     H        0.53823    0.48657    0.56507    1.000
    C909     C        0.57573    0.51647    0.59827    1.000
    H372     H        0.58283    0.53917    0.58917    1.000
    C910     C        0.51223    0.42087    0.57917    1.000
    C911     C        0.66103    0.60507    0.63857    1.000
    C912     C        0.66193    0.64327    0.59427    1.000
    H373     H        0.63943    0.62437    0.58747    1.000
    C913     C        0.67803    0.67537    0.57807    1.000
    H374     H        0.66633    0.67887    0.56037    1.000
    C914     C        0.71083    0.70227    0.58767    1.000
    C915     C        0.72833    0.69787    0.61357    1.000
    H375     H        0.75123    0.71657    0.61977    1.000
    C916     C        0.71193    0.66607    0.63027    1.000
    H376     H        0.72323    0.66307    0.64847    1.000
    C917     C        0.72863    0.73737    0.57097    1.000
    C918     C        0.69573    0.50837    0.87437    1.000
    C919     C        0.68923    0.47127    0.87337    1.000
    C920     C        0.65853    0.44347    0.88707    1.000
    H377     H        0.64163    0.44837    0.89677    1.000
    C921     C        0.65253    0.40917    0.88677    1.000
    H378     H        0.63103    0.39027    0.89547    1.000
    C922     C        0.67783    0.40237    0.87387    1.000
    C923     C        0.70843    0.42937    0.86037    1.000
    H379     H        0.72563    0.42427    0.85127    1.000
    C924     C        0.71433    0.46447    0.86017    1.000
    H380     H        0.73543    0.48327    0.85087    1.000
    C925     C        0.67203    0.36557    0.87417    1.000
    O235     O        0.97233    0.82267    0.18267    1.000
    O236     O        0.91633    0.80167    0.17467    1.000
    C926     C        0.94733    0.82317    0.16697    1.000
    C927     C        0.96033    0.86307    0.15957    1.000
    C928     C        0.99583    0.88967    0.15697    1.000
    C929     C        0.00443    0.92457    0.15037    1.000
    C930     C        0.97753    0.93287    0.14667    1.000
    C931     C        0.94193    0.90627    0.14897    1.000
    C932     C        0.93333    0.87137    0.15567    1.000
    N107     N        0.96013    0.97877    0.14667    1.000
    C933     C        0.98713    0.97257    0.14667    1.000
    O237     O        0.08933    0.68667    0.88467    1.000
    O238     O        0.09093    0.65867    0.92877    1.000
    C934     C        0.99283    0.68467    0.95267    1.000
    C935     C        0.02733    0.70867    0.96237    1.000
    H381     H        0.03163    0.72487    0.97897    1.000
    C936     C        0.05613    0.70767    0.94787    1.000
    H382     H        0.07983    0.72387    0.95467    1.000
    C937     C        0.05013    0.68367    0.92367    1.000
    C938     C        0.01533    0.65967    0.91377    1.000
    H383     H        0.01133    0.64307    0.89717    1.000
    C939     C        0.98683    0.66067    0.92867    1.000
    H384     H        0.96313    0.64407    0.92147    1.000
    C940     C        0.07733    0.67567    0.91467    1.000
    O239     O        0.99543    0.81727    0.20127    1.000
    O240     O        0.94303    0.79977    0.18277    1.000
    C941     C        0.97423    0.82427    0.18717    1.000
    C942     C        0.98183    0.86307    0.18417    1.000
    C943     C        0.01563    0.89247    0.18877    1.000
    C944     C        0.02093    0.92677    0.18567    1.000
    C945     C        0.99233    0.93167    0.17797    1.000
    C946     C        0.95853    0.90227    0.17337    1.000
    C947     C        0.95333    0.86797    0.17647    1.000
    N108     N        0.96643    0.96907    0.17817    1.000
    C948     C        0.99723    0.96947    0.17817    1.000
    In25     In       0.09353    0.46625    0.20901    1.000
    In26     In       0.90423    0.52917    0.53271    1.000
    O241     O        0.05670    0.48890    0.21110    1.000
    O242     O        0.08370    0.48850    0.25510    1.000
    O243     O        0.90410    0.55520    0.48510    1.000
    O244     O        0.93490    0.52790    0.49080    1.000
    O245     O        0.11290    0.44360    0.16970    1.000
    O246     O        0.07190    0.45740    0.15880    1.000
    O247     O        0.27520    0.45090    0.91930    1.000
    O248     O        0.24220    0.40450    0.88990    1.000
    O249     O        0.92130    0.29850    0.88520    1.000
    O250     O        0.90750    0.33530    0.90890    1.000
    O251     O        0.13430    0.52200    0.19210    1.000
    O252     O        0.15140    0.49330    0.22440    1.000
    N109     N        0.99680    0.59360    0.28510    1.000
    N110     N        0.98880    0.56070    0.33230    1.000
    N111     N        0.97350    0.60600    0.33080    1.000
    N112     N        0.12200    0.41590    0.00540    1.000
    N113     N        0.09010    0.39150    0.95760    1.000
    N114     N        0.06140    0.39980    0.00210    1.000
    N115     N        0.32770    0.63260    0.20740    1.000
    C949     C        0.06310    0.49610    0.24090    1.000
    C950     C        0.04640    0.51470    0.25650    1.000
    C951     C        0.04550    0.51620    0.28910    1.000
    H385     H        0.05630    0.50590    0.30170    1.000
    C952     C        0.02880    0.53270    0.30390    1.000
    H386     H        0.02760    0.53290    0.32660    1.000
    C953     C        0.01450    0.54870    0.28660    1.000
    C954     C        0.01520    0.54790    0.25360    1.000
    H387     H        0.00510    0.55900    0.24120    1.000
    C955     C        0.03130    0.53020    0.23880    1.000
    H388     H        0.03170    0.52900    0.21620    1.000
    C956     C        0.99880    0.56830    0.30220    1.000
    C957     C        0.98480    0.61220    0.30040    1.000
    C958     C        0.97450    0.57870    0.34560    1.000
    O253     O        0.95360    0.70520    0.20320    1.000
    O254     O        0.98880    0.74870    0.23380    1.000
    C959     C        0.98470    0.64130    0.28260    1.000
    C960     C        0.97960    0.63790    0.25020    1.000
    H389     H        0.97790    0.61770    0.23960    1.000
    C961     C        0.97690    0.66310    0.23300    1.000
    H390     H        0.97180    0.65950    0.21080    1.000
    C962     C        0.98110    0.69100    0.24630    1.000
    C963     C        0.98950    0.69810    0.27900    1.000
    H391     H        0.99470    0.72030    0.28820    1.000
    C964     C        0.98990    0.67110    0.29760    1.000
    H392     H        0.99370    0.67380    0.32000    1.000
    C965     C        0.97310    0.71660    0.22730    1.000
    C966     C        0.96150    0.57050    0.37810    1.000
    C967     C        0.94110    0.58410    0.39110    1.000
    H393     H        0.93530    0.59880    0.37860    1.000
    C968     C        0.92940    0.57640    0.42200    1.000
    H394     H        0.91620    0.58650    0.43100    1.000
    C969     C        0.93660    0.55370    0.44030    1.000
    C970     C        0.95650    0.54010    0.42710    1.000
    H395     H        0.96200    0.52510    0.43950    1.000
    C971     C        0.96830    0.54780    0.39640    1.000
    H396     H        0.98130    0.53750    0.38740    1.000
    C972     C        0.92420    0.54520    0.47410    1.000
    C973     C        0.09220    0.44560    0.15000    1.000
    C974     C        0.06540    0.43340    0.09580    1.000
    H397     H        0.04700    0.43710    0.10390    1.000
    C975     C        0.09180    0.43670    0.11580    1.000
    C976     C        0.06470    0.42480    0.06440    1.000
    H398     H        0.04570    0.42190    0.05100    1.000
    C977     C        0.09210    0.42010    0.05190    1.000
    C978     C        0.11890    0.42370    0.07190    1.000
    H399     H        0.13780    0.42090    0.06370    1.000
    C979     C        0.11850    0.43120    0.10370    1.000
    H400     H        0.13660    0.43260    0.11740    1.000
    C980     C        0.09160    0.41130    0.01810    1.000
    C981     C        0.12000    0.40550    0.97580    1.000
    C982     C        0.02810    0.37370    0.95370    1.000
    C983     C        0.15320    0.41120    0.95990    1.000
    C984     C        0.18580    0.43170    0.97390    1.000
    H401     H        0.18750    0.44150    0.99450    1.000
    C985     C        0.21620    0.43800    0.95780    1.000
    H402     H        0.23890    0.45460    0.96630    1.000
    C986     C        0.21460    0.42110    0.93000    1.000
    C987     C        0.18160    0.39780    0.91730    1.000
    H403     H        0.18010    0.38500    0.89840    1.000
    C988     C        0.15020    0.39260    0.93160    1.000
    H404     H        0.12750    0.37700    0.92250    1.000
    C989     C        0.24580    0.42470    0.91250    1.000
    C990     C        0.06160    0.38930    0.97190    1.000
    C991     C        0.02340    0.35200    0.92760    1.000
    H405     H        0.04230    0.34840    0.92080    1.000
    C992     C        0.99130    0.33600    0.91140    1.000
    H406     H        0.98780    0.32080    0.89370    1.000
    C993     C        0.96440    0.34190    0.92100    1.000
    C994     C        0.96880    0.36380    0.94690    1.000
    H407     H        0.95010    0.36800    0.95310    1.000
    C995     C        0.00060    0.37920    0.96360    1.000
    H408     H        0.00360    0.39350    0.98180    1.000
    C996     C        0.92930    0.32460    0.90430    1.000
    C997     C        0.15830    0.52070    0.20770    1.000
    C998     C        0.19540    0.55130    0.20670    1.000
    C999     C        0.22320    0.54840    0.22040    1.000
    H409     H        0.21830    0.52660    0.23010    1.000
    C1000    C        0.25750    0.57670    0.22010    1.000
    H410     H        0.27640    0.57410    0.22880    1.000
    C1001    C        0.26430    0.60880    0.20720    1.000
    C1002    C        0.23730    0.61240    0.19370    1.000
    H411     H        0.24240    0.63470    0.18460    1.000
    C1003    C        0.20220    0.58320    0.19350    1.000
    H412     H        0.18340    0.58550    0.18420    1.000
    C1004    C        0.30110    0.63980    0.20750    1.000
    O255     O        0.84400    0.48300    0.51600    1.000
    O256     O        0.86500    0.44800    0.50800    1.000
    C1005    C        0.84350    0.45750    0.50030    1.000
    C1006    C        0.80360    0.43060    0.49290    1.000
    C1007    C        0.77700    0.43950    0.49030    1.000
    C1008    C        0.74210    0.41320    0.48370    1.000
    C1009    C        0.73380    0.37800    0.48000    1.000
    C1010    C        0.76040    0.36900    0.48230    1.000
    C1011    C        0.79530    0.39530    0.48900    1.000
    N116     N        0.68790    0.31470    0.48000    1.000
    C1012    C        0.69410    0.34790    0.48000    1.000
    O257     O        0.98000    0.73600    0.21800    1.000
    O258     O        0.00800    0.76560    0.26210    1.000
    C1013    C        0.98200    0.64150    0.28600    1.000
    C1014    C        0.95800    0.65200    0.29570    1.000
    H413     H        0.94180    0.64010    0.31230    1.000
    C1015    C        0.95900    0.68180    0.28120    1.000
    H414     H        0.94280    0.68930    0.28800    1.000
    C1016    C        0.98300    0.69980    0.25700    1.000
    C1017    C        0.00700    0.68900    0.24710    1.000
    H415     H        0.02360    0.70160    0.23050    1.000
    C1018    C        0.00600    0.65950    0.26200    1.000
    H416     H        0.02260    0.65240    0.25480    1.000
    C1019    C        0.99100    0.73500    0.24800    1.000
    O259     O        0.84940    0.51150    0.53460    1.000
    O260     O        0.86690    0.47660    0.51610    1.000
    C1020    C        0.84240    0.48330    0.52050    1.000
    C1021    C        0.80360    0.45210    0.51750    1.000
    C1022    C        0.77420    0.45650    0.52210    1.000
    C1023    C        0.73990    0.42750    0.51900    1.000
    C1024    C        0.73500    0.39400    0.51130    1.000
    C1025    C        0.76440    0.38960    0.50670    1.000
    C1026    C        0.79870    0.41870    0.50980    1.000
    N117     N        0.69760    0.33070    0.51150    1.000
    C1027    C        0.69720    0.36110    0.51150    1.000
    In27     In       0.76020    0.79958    0.54234    1.000
    In28     In       0.57090    0.86250    0.86604    1.000
    O261     O        0.72337    0.82223    0.54443    1.000
    O262     O        0.75037    0.82183    0.58843    1.000
    O263     O        0.57077    0.88853    0.81843    1.000
    O264     O        0.60157    0.86123    0.82413    1.000
    O265     O        0.77957    0.77693    0.50303    1.000
    O266     O        0.73857    0.79073    0.49213    1.000
    O267     O        0.94187    0.78423    0.25263    1.000
    O268     O        0.90887    0.73783    0.22323    1.000
    O269     O        0.58797    0.63183    0.21853    1.000
    O270     O        0.57417    0.66863    0.24223    1.000
    O271     O        0.80097    0.85533    0.52543    1.000
    O272     O        0.81807    0.82663    0.55773    1.000
    N118     N        0.66347    0.92693    0.61843    1.000
    N119     N        0.65547    0.89403    0.66563    1.000
    N120     N        0.64017    0.93933    0.66413    1.000
    N121     N        0.78867    0.74923    0.33873    1.000
    N122     N        0.75677    0.72483    0.29093    1.000
    N123     N        0.72807    0.73313    0.33543    1.000
    N124     N        0.99437    0.96593    0.54073    1.000
    C1028    C        0.72977    0.82943    0.57423    1.000
    C1029    C        0.71307    0.84803    0.58983    1.000
    C1030    C        0.71217    0.84953    0.62243    1.000
    H417     H        0.72297    0.83923    0.63503    1.000
    C1031    C        0.69547    0.86603    0.63723    1.000
    H418     H        0.69427    0.86623    0.65993    1.000
    C1032    C        0.68117    0.88203    0.61993    1.000
    C1033    C        0.68187    0.88123    0.58693    1.000
    H419     H        0.67177    0.89233    0.57453    1.000
    C1034    C        0.69797    0.86353    0.57213    1.000
    H420     H        0.69837    0.86233    0.54953    1.000
    C1035    C        0.66547    0.90163    0.63553    1.000
    C1036    C        0.65147    0.94553    0.63373    1.000
    C1037    C        0.64117    0.91203    0.67893    1.000
    O273     O        0.62027    0.03853    0.53653    1.000
    O274     O        0.65547    0.08203    0.56713    1.000
    C1038    C        0.65137    0.97463    0.61593    1.000
    C1039    C        0.64627    0.97123    0.58353    1.000
    H421     H        0.64457    0.95103    0.57293    1.000
    C1040    C        0.64357    0.99643    0.56633    1.000
    H422     H        0.63847    0.99283    0.54413    1.000
    C1041    C        0.64777    0.02433    0.57963    1.000
    C1042    C        0.65617    0.03143    0.61233    1.000
    H423     H        0.66137    0.05363    0.62153    1.000
    C1043    C        0.65657    0.00443    0.63093    1.000
    H424     H        0.66037    0.00713    0.65333    1.000
    C1044    C        0.63977    0.04993    0.56063    1.000
    C1045    C        0.62817    0.90383    0.71143    1.000
    C1046    C        0.60777    0.91743    0.72443    1.000
    H425     H        0.60197    0.93213    0.71193    1.000
    C1047    C        0.59607    0.90973    0.75533    1.000
    H426     H        0.58287    0.91983    0.76433    1.000
    C1048    C        0.60327    0.88703    0.77363    1.000
    C1049    C        0.62317    0.87343    0.76043    1.000
    H427     H        0.62867    0.85843    0.77283    1.000
    C1050    C        0.63497    0.88113    0.72973    1.000
    H428     H        0.64797    0.87083    0.72073    1.000
    C1051    C        0.59087    0.87853    0.80743    1.000
    C1052    C        0.75887    0.77893    0.48333    1.000
    C1053    C        0.73207    0.76673    0.42913    1.000
    H429     H        0.71367    0.77043    0.43723    1.000
    C1054    C        0.75847    0.77003    0.44913    1.000
    C1055    C        0.73137    0.75813    0.39773    1.000
    H430     H        0.71237    0.75523    0.38433    1.000
    C1056    C        0.75877    0.75343    0.38523    1.000
    C1057    C        0.78557    0.75703    0.40523    1.000
    H431     H        0.80447    0.75423    0.39703    1.000
    C1058    C        0.78517    0.76453    0.43703    1.000
    H432     H        0.80327    0.76593    0.45073    1.000
    C1059    C        0.75827    0.74463    0.35143    1.000
    C1060    C        0.78667    0.73883    0.30913    1.000
    C1061    C        0.69477    0.70703    0.28703    1.000
    C1062    C        0.81987    0.74453    0.29323    1.000
    C1063    C        0.85247    0.76503    0.30723    1.000
    H433     H        0.85417    0.77483    0.32783    1.000
    C1064    C        0.88287    0.77133    0.29113    1.000
    H434     H        0.90557    0.78793    0.29963    1.000
    C1065    C        0.88127    0.75443    0.26333    1.000
    C1066    C        0.84827    0.73113    0.25063    1.000
    H435     H        0.84677    0.71833    0.23173    1.000
    C1067    C        0.81687    0.72593    0.26493    1.000
    H436     H        0.79417    0.71033    0.25583    1.000
    C1068    C        0.91247    0.75803    0.24583    1.000
    C1069    C        0.72827    0.72263    0.30523    1.000
    C1070    C        0.69007    0.68533    0.26093    1.000
    H437     H        0.70897    0.68173    0.25413    1.000
    C1071    C        0.65797    0.66933    0.24473    1.000
    H438     H        0.65447    0.65413    0.22703    1.000
    C1072    C        0.63107    0.67523    0.25433    1.000
    C1073    C        0.63547    0.69713    0.28023    1.000
    H439     H        0.61677    0.70133    0.28643    1.000
    C1074    C        0.66727    0.71253    0.29693    1.000
    H440     H        0.67027    0.72683    0.31513    1.000
    C1075    C        0.59597    0.65793    0.23763    1.000
    C1076    C        0.82497    0.85403    0.54103    1.000
    C1077    C        0.86207    0.88463    0.54003    1.000
    C1078    C        0.88987    0.88173    0.55373    1.000
    H441     H        0.88497    0.85993    0.56343    1.000
    C1079    C        0.92417    0.91003    0.55343    1.000
    H442     H        0.94307    0.90743    0.56213    1.000
    C1080    C        0.93097    0.94213    0.54053    1.000
    C1081    C        0.90397    0.94573    0.52703    1.000
    H443     H        0.90907    0.96803    0.51793    1.000
    C1082    C        0.86887    0.91653    0.52683    1.000
    H444     H        0.85007    0.91883    0.51753    1.000
    C1083    C        0.96777    0.97313    0.54083    1.000
    O275     O        0.51067    0.81633    0.84933    1.000
    O276     O        0.53167    0.78133    0.84133    1.000
    C1084    C        0.51017    0.79083    0.83363    1.000
    C1085    C        0.47027    0.76393    0.82623    1.000
    C1086    C        0.44367    0.77283    0.82363    1.000
    C1087    C        0.40877    0.74653    0.81703    1.000
    C1088    C        0.40047    0.71133    0.81333    1.000
    C1089    C        0.42707    0.70233    0.81563    1.000
    C1090    C        0.46197    0.72863    0.82233    1.000
    N125     N        0.35457    0.64803    0.81333    1.000
    C1091    C        0.36077    0.68123    0.81333    1.000
    O277     O        0.64667    0.06933    0.55133    1.000
    O278     O        0.67467    0.09893    0.59543    1.000
    C1092    C        0.64867    0.97483    0.61933    1.000
    C1093    C        0.62467    0.98533    0.62903    1.000
    H445     H        0.60847    0.97343    0.64563    1.000
    C1094    C        0.62567    0.01513    0.61453    1.000
    H446     H        0.60947    0.02263    0.62133    1.000
    C1095    C        0.64967    0.03313    0.59033    1.000
    C1096    C        0.67367    0.02233    0.58043    1.000
    H447     H        0.69027    0.03493    0.56383    1.000
    C1097    C        0.67267    0.99283    0.59533    1.000
    H448     H        0.68927    0.98573    0.58813    1.000
    C1098    C        0.65767    0.06833    0.58133    1.000
    O279     O        0.51607    0.84483    0.86793    1.000
    O280     O        0.53357    0.80993    0.84943    1.000
    C1099    C        0.50907    0.81663    0.85383    1.000
    C1100    C        0.47027    0.78543    0.85083    1.000
    C1101    C        0.44087    0.78983    0.85543    1.000
    C1102    C        0.40657    0.76083    0.85233    1.000
    C1103    C        0.40167    0.72733    0.84463    1.000
    C1104    C        0.43107    0.72293    0.84003    1.000
    C1105    C        0.46537    0.75203    0.84313    1.000
    N126     N        0.36427    0.66403    0.84483    1.000
    C1106    C        0.36387    0.69443    0.84483    1.000
    In29     In       0.42686    0.13292    0.87568    1.000
    In30     In       0.23756    0.19584    0.19938    1.000
    O281     O        0.39003    0.15557    0.87777    1.000
    O282     O        0.41703    0.15517    0.92177    1.000
    O283     O        0.23743    0.22187    0.15177    1.000
    O284     O        0.26823    0.19457    0.15747    1.000
    O285     O        0.44623    0.11027    0.83637    1.000
    O286     O        0.40523    0.12407    0.82547    1.000
    O287     O        0.60853    0.11757    0.58597    1.000
    O288     O        0.57553    0.07117    0.55657    1.000
    O289     O        0.25463    0.96517    0.55187    1.000
    O290     O        0.24083    0.00197    0.57557    1.000
    O291     O        0.46763    0.18867    0.85877    1.000
    O292     O        0.48473    0.15997    0.89107    1.000
    N127     N        0.33013    0.26027    0.95177    1.000
    N128     N        0.32213    0.22737    0.99897    1.000
    N129     N        0.30683    0.27267    0.99747    1.000
    N130     N        0.45533    0.08257    0.67207    1.000
    N131     N        0.42343    0.05817    0.62427    1.000
    N132     N        0.39473    0.06647    0.66877    1.000
    N133     N        0.66103    0.29927    0.87407    1.000
    C1107    C        0.39643    0.16277    0.90757    1.000
    C1108    C        0.37973    0.18137    0.92317    1.000
    C1109    C        0.37883    0.18287    0.95577    1.000
    H449     H        0.38963    0.17257    0.96837    1.000
    C1110    C        0.36213    0.19937    0.97057    1.000
    H450     H        0.36093    0.19957    0.99327    1.000
    C1111    C        0.34783    0.21537    0.95327    1.000
    C1112    C        0.34853    0.21457    0.92027    1.000
    H451     H        0.33843    0.22567    0.90787    1.000
    C1113    C        0.36463    0.19687    0.90547    1.000
    H452     H        0.36503    0.19567    0.88287    1.000
    C1114    C        0.33213    0.23497    0.96887    1.000
    C1115    C        0.31813    0.27887    0.96707    1.000
    C1116    C        0.30783    0.24537    0.01227    1.000
    O293     O        0.28693    0.37187    0.86987    1.000
    O294     O        0.32213    0.41537    0.90047    1.000
    C1117    C        0.31803    0.30797    0.94927    1.000
    C1118    C        0.31293    0.30457    0.91687    1.000
    H453     H        0.31123    0.28437    0.90627    1.000
    C1119    C        0.31023    0.32977    0.89967    1.000
    H454     H        0.30513    0.32617    0.87747    1.000
    C1120    C        0.31443    0.35767    0.91297    1.000
    C1121    C        0.32283    0.36477    0.94567    1.000
    H455     H        0.32803    0.38697    0.95487    1.000
    C1122    C        0.32323    0.33777    0.96427    1.000
    H456     H        0.32703    0.34047    0.98667    1.000
    C1123    C        0.30643    0.38327    0.89397    1.000
    C1124    C        0.29483    0.23717    0.04477    1.000
    C1125    C        0.27443    0.25077    0.05777    1.000
    H457     H        0.26863    0.26547    0.04527    1.000
    C1126    C        0.26273    0.24307    0.08867    1.000
    H458     H        0.24953    0.25317    0.09767    1.000
    C1127    C        0.26993    0.22037    0.10697    1.000
    C1128    C        0.28983    0.20677    0.09377    1.000
    H459     H        0.29533    0.19177    0.10617    1.000
    C1129    C        0.30163    0.21447    0.06307    1.000
    H460     H        0.31463    0.20417    0.05407    1.000
    C1130    C        0.25753    0.21187    0.14077    1.000
    C1131    C        0.42553    0.11227    0.81667    1.000
    C1132    C        0.39873    0.10007    0.76247    1.000
    H461     H        0.38033    0.10377    0.77057    1.000
    C1133    C        0.42513    0.10337    0.78247    1.000
    C1134    C        0.39803    0.09147    0.73107    1.000
    H462     H        0.37903    0.08857    0.71767    1.000
    C1135    C        0.42543    0.08677    0.71857    1.000
    C1136    C        0.45223    0.09037    0.73857    1.000
    H463     H        0.47113    0.08757    0.73037    1.000
    C1137    C        0.45183    0.09787    0.77037    1.000
    H464     H        0.46993    0.09927    0.78407    1.000
    C1138    C        0.42493    0.07797    0.68477    1.000
    C1139    C        0.45333    0.07217    0.64247    1.000
    C1140    C        0.36143    0.04037    0.62037    1.000
    C1141    C        0.48653    0.07787    0.62657    1.000
    C1142    C        0.51913    0.09837    0.64057    1.000
    H465     H        0.52083    0.10817    0.66117    1.000
    C1143    C        0.54953    0.10467    0.62447    1.000
    H466     H        0.57223    0.12127    0.63297    1.000
    C1144    C        0.54793    0.08777    0.59667    1.000
    C1145    C        0.51493    0.06447    0.58397    1.000
    H467     H        0.51343    0.05167    0.56507    1.000
    C1146    C        0.48353    0.05927    0.59827    1.000
    H468     H        0.46083    0.04367    0.58917    1.000
    C1147    C        0.57913    0.09137    0.57917    1.000
    C1148    C        0.39493    0.05597    0.63857    1.000
    C1149    C        0.35673    0.01867    0.59427    1.000
    H469     H        0.37563    0.01507    0.58747    1.000
    C1150    C        0.32463    0.00267    0.57807    1.000
    H470     H        0.32113    0.98747    0.56037    1.000
    C1151    C        0.29773    0.00857    0.58767    1.000
    C1152    C        0.30213    0.03047    0.61357    1.000
    H471     H        0.28343    0.03467    0.61977    1.000
    C1153    C        0.33393    0.04587    0.63027    1.000
    H472     H        0.33693    0.06017    0.64847    1.000
    C1154    C        0.26263    0.99127    0.57097    1.000
    C1155    C        0.49163    0.18737    0.87437    1.000
    C1156    C        0.52873    0.21797    0.87337    1.000
    C1157    C        0.55653    0.21507    0.88707    1.000
    H473     H        0.55163    0.19327    0.89677    1.000
    C1158    C        0.59083    0.24337    0.88677    1.000
    H474     H        0.60973    0.24077    0.89547    1.000
    C1159    C        0.59763    0.27547    0.87387    1.000
    C1160    C        0.57063    0.27907    0.86037    1.000
    H475     H        0.57573    0.30137    0.85127    1.000
    C1161    C        0.53553    0.24987    0.86017    1.000
    H476     H        0.51673    0.25217    0.85087    1.000
    C1162    C        0.63443    0.30647    0.87417    1.000
    O295     O        0.17733    0.14967    0.18267    1.000
    O296     O        0.19833    0.11467    0.17467    1.000
    C1163    C        0.17683    0.12417    0.16697    1.000
    C1164    C        0.13693    0.09727    0.15957    1.000
    C1165    C        0.11033    0.10617    0.15697    1.000
    C1166    C        0.07543    0.07987    0.15037    1.000
    C1167    C        0.06713    0.04467    0.14667    1.000
    C1168    C        0.09373    0.03567    0.14897    1.000
    C1169    C        0.12863    0.06197    0.15567    1.000
    N134     N        0.02123    0.98137    0.14667    1.000
    C1170    C        0.02743    0.01457    0.14667    1.000
    O297     O        0.31333    0.40267    0.88467    1.000
    O298     O        0.34133    0.43227    0.92877    1.000
    C1171    C        0.31533    0.30817    0.95267    1.000
    C1172    C        0.29133    0.31867    0.96237    1.000
    H477     H        0.27513    0.30677    0.97897    1.000
    C1173    C        0.29233    0.34847    0.94787    1.000
    H478     H        0.27613    0.35597    0.95467    1.000
    C1174    C        0.31633    0.36647    0.92367    1.000
    C1175    C        0.34033    0.35567    0.91377    1.000
    H479     H        0.35693    0.36827    0.89717    1.000
    C1176    C        0.33933    0.32617    0.92867    1.000
    H480     H        0.35593    0.31907    0.92147    1.000
    C1177    C        0.32433    0.40167    0.91467    1.000
    O299     O        0.18273    0.17817    0.20127    1.000
    O300     O        0.20023    0.14327    0.18277    1.000
    C1178    C        0.17573    0.14997    0.18717    1.000
    C1179    C        0.13693    0.11877    0.18417    1.000
    C1180    C        0.10753    0.12317    0.18877    1.000
    C1181    C        0.07323    0.09417    0.18567    1.000
    C1182    C        0.06833    0.06067    0.17797    1.000
    C1183    C        0.09773    0.05627    0.17337    1.000
    C1184    C        0.13203    0.08537    0.17647    1.000
    N135     N        0.03093    0.99737    0.17817    1.000
    C1185    C        0.03053    0.02777    0.17817    1.000
    In31     In       0.53375    0.62728    0.20901    1.000
    In32     In       0.47083    0.37506    0.53271    1.000
    O301     O        0.51110    0.56780    0.21110    1.000
    O302     O        0.51150    0.59520    0.25510    1.000
    O303     O        0.44480    0.34890    0.48510    1.000
    O304     O        0.47210    0.40700    0.49080    1.000
    O305     O        0.55640    0.66930    0.16970    1.000
    O306     O        0.54260    0.61450    0.15880    1.000
    O307     O        0.54910    0.82430    0.91930    1.000
    O308     O        0.59550    0.83770    0.88990    1.000
    O309     O        0.70150    0.62280    0.88520    1.000
    O310     O        0.66470    0.57220    0.90890    1.000
    O311     O        0.47800    0.61230    0.19210    1.000
    O312     O        0.50670    0.65810    0.22440    1.000
    N136     N        0.40640    0.40320    0.28510    1.000
    N137     N        0.43930    0.42810    0.33230    1.000
    N138     N        0.39400    0.36750    0.33080    1.000
    N139     N        0.58410    0.70610    0.00540    1.000
    N140     N        0.60850    0.69860    0.95760    1.000
    N141     N        0.60020    0.66160    0.00210    1.000
    N142     N        0.36740    0.69510    0.20740    1.000
    C1186    C        0.50390    0.56700    0.24090    1.000
    C1187    C        0.48530    0.53170    0.25650    1.000
    C1188    C        0.48380    0.52930    0.28910    1.000
    H481     H        0.49410    0.55040    0.30170    1.000
    C1189    C        0.46730    0.49610    0.30390    1.000
    H482     H        0.46710    0.49470    0.32660    1.000
    C1190    C        0.45130    0.46580    0.28660    1.000
    C1191    C        0.45210    0.46730    0.25360    1.000
    H483     H        0.44100    0.44610    0.24120    1.000
    C1192    C        0.46980    0.50110    0.23880    1.000
    H484     H        0.47100    0.50270    0.21620    1.000
    C1193    C        0.43170    0.43050    0.30220    1.000
    C1194    C        0.38780    0.37260    0.30040    1.000
    C1195    C        0.42130    0.39580    0.34560    1.000
    O313     O        0.29480    0.24840    0.20320    1.000
    O314     O        0.25130    0.24010    0.23380    1.000
    C1196    C        0.35870    0.34340    0.28260    1.000
    C1197    C        0.36210    0.34170    0.25020    1.000
    H485     H        0.38230    0.36020    0.23960    1.000
    C1198    C        0.33690    0.31380    0.23300    1.000
    H486     H        0.34050    0.31230    0.21080    1.000
    C1199    C        0.30900    0.29010    0.24630    1.000
    C1200    C        0.30190    0.29140    0.27900    1.000
    H487     H        0.27970    0.27440    0.28820    1.000
    C1201    C        0.32890    0.31880    0.29760    1.000
    H488     H        0.32620    0.31990    0.32000    1.000
    C1202    C        0.28340    0.25650    0.22730    1.000
    C1203    C        0.42950    0.39100    0.37810    1.000
    C1204    C        0.41590    0.35700    0.39110    1.000
    H489     H        0.40120    0.33650    0.37860    1.000
    C1205    C        0.42360    0.35300    0.42200    1.000
    H490     H        0.41350    0.32970    0.43100    1.000
    C1206    C        0.44630    0.38290    0.44030    1.000
    C1207    C        0.45990    0.41640    0.42710    1.000
    H491     H        0.47490    0.43690    0.43950    1.000
    C1208    C        0.45220    0.42050    0.39640    1.000
    H492     H        0.46250    0.44380    0.38740    1.000
    C1209    C        0.45480    0.37900    0.47410    1.000
    C1210    C        0.55440    0.64660    0.15000    1.000
    C1211    C        0.56660    0.63200    0.09580    1.000
    H493     H        0.56290    0.60990    0.10390    1.000
    C1212    C        0.56330    0.65510    0.11580    1.000
    C1213    C        0.57520    0.63990    0.06440    1.000
    H494     H        0.57810    0.62380    0.05100    1.000
    C1214    C        0.57990    0.67200    0.05190    1.000
    C1215    C        0.57630    0.69520    0.07190    1.000
    H495     H        0.57910    0.71690    0.06370    1.000
    C1216    C        0.56880    0.68730    0.10370    1.000
    H496     H        0.56740    0.70400    0.11740    1.000
    C1217    C        0.58870    0.68030    0.01810    1.000
    C1218    C        0.59450    0.71450    0.97580    1.000
    C1219    C        0.62630    0.65440    0.95370    1.000
    C1220    C        0.58880    0.74200    0.95990    1.000
    C1221    C        0.56830    0.75410    0.97390    1.000
    H497     H        0.55850    0.74600    0.99450    1.000
    C1222    C        0.56200    0.77820    0.95780    1.000
    H498     H        0.54540    0.78430    0.96630    1.000
    C1223    C        0.57890    0.79350    0.93000    1.000
    C1224    C        0.60220    0.78380    0.91730    1.000
    H499     H        0.61500    0.79510    0.89840    1.000
    C1225    C        0.60740    0.75760    0.93160    1.000
    H500     H        0.62300    0.75050    0.92250    1.000
    C1226    C        0.57530    0.82110    0.91250    1.000
    C1227    C        0.61070    0.67230    0.97190    1.000
    C1228    C        0.64800    0.67140    0.92760    1.000
    H501     H        0.65160    0.69390    0.92080    1.000
    C1229    C        0.66400    0.65530    0.91140    1.000
    H502     H        0.67920    0.66700    0.89370    1.000
    C1230    C        0.65810    0.62250    0.92100    1.000
    C1231    C        0.63620    0.60500    0.94690    1.000
    H503     H        0.63200    0.58210    0.95310    1.000
    C1232    C        0.62080    0.62140    0.96360    1.000
    H504     H        0.60650    0.61010    0.98180    1.000
    C1233    C        0.67540    0.60470    0.90430    1.000
    C1234    C        0.47930    0.63760    0.20770    1.000
    C1235    C        0.44870    0.64410    0.20670    1.000
    C1236    C        0.45160    0.67480    0.22040    1.000
    H505     H        0.47340    0.69170    0.23010    1.000
    C1237    C        0.42330    0.68080    0.22010    1.000
    H506     H        0.42590    0.70230    0.22880    1.000
    C1238    C        0.39120    0.65550    0.20720    1.000
    C1239    C        0.38760    0.62490    0.19370    1.000
    H507     H        0.36530    0.60770    0.18460    1.000
    C1240    C        0.41680    0.61900    0.19350    1.000
    H508     H        0.41450    0.59790    0.18420    1.000
    C1241    C        0.36020    0.66130    0.20750    1.000
    O315     O        0.51700    0.36100    0.51600    1.000
    O316     O        0.55200    0.41700    0.50800    1.000
    C1242    C        0.54250    0.38600    0.50030    1.000
    C1243    C        0.56940    0.37300    0.49290    1.000
    C1244    C        0.56050    0.33750    0.49030    1.000
    C1245    C        0.58680    0.32890    0.48370    1.000
    C1246    C        0.62200    0.35580    0.48000    1.000
    C1247    C        0.63100    0.39140    0.48230    1.000
    C1248    C        0.60470    0.40000    0.48900    1.000
    N143     N        0.68530    0.37320    0.48000    1.000
    C1249    C        0.65210    0.34620    0.48000    1.000
    O317     O        0.26400    0.24400    0.21800    1.000
    O318     O        0.23440    0.24240    0.26210    1.000
    C1250    C        0.35850    0.34050    0.28600    1.000
    C1251    C        0.34800    0.30600    0.29570    1.000
    H509     H        0.35990    0.30170    0.31230    1.000
    C1252    C        0.31820    0.27720    0.28120    1.000
    H510     H        0.31070    0.25350    0.28800    1.000
    C1253    C        0.30020    0.28320    0.25700    1.000
    C1254    C        0.31100    0.31800    0.24710    1.000
    H511     H        0.29840    0.32200    0.23050    1.000
    C1255    C        0.34050    0.34650    0.26200    1.000
    H512     H        0.34760    0.37020    0.25480    1.000
    C1256    C        0.26500    0.25600    0.24800    1.000
    O319     O        0.48850    0.33790    0.53460    1.000
    O320     O        0.52340    0.39030    0.51610    1.000
    C1257    C        0.51670    0.35910    0.52050    1.000
    C1258    C        0.54790    0.35150    0.51750    1.000
    C1259    C        0.54350    0.31770    0.52210    1.000
    C1260    C        0.57250    0.31240    0.51900    1.000
    C1261    C        0.60600    0.34100    0.51130    1.000
    C1262    C        0.61040    0.37480    0.50670    1.000
    C1263    C        0.58130    0.38000    0.50980    1.000
    N144     N        0.66930    0.36690    0.51150    1.000
    C1264    C        0.63890    0.33610    0.51150    1.000
    In33     In       0.20042    0.96061    0.54234    1.000
    In34     In       0.13750    0.70839    0.86604    1.000
    O321     O        0.17777    0.90113    0.54443    1.000
    O322     O        0.17817    0.92853    0.58843    1.000
    O323     O        0.11147    0.68223    0.81843    1.000
    O324     O        0.13877    0.74033    0.82413    1.000
    O325     O        0.22307    0.00263    0.50303    1.000
    O326     O        0.20927    0.94783    0.49213    1.000
    O327     O        0.21577    0.15763    0.25263    1.000
    O328     O        0.26217    0.17103    0.22323    1.000
    O329     O        0.36817    0.95613    0.21853    1.000
    O330     O        0.33137    0.90553    0.24223    1.000
    O331     O        0.14467    0.94563    0.52543    1.000
    O332     O        0.17337    0.99143    0.55773    1.000
    N145     N        0.07307    0.73653    0.61843    1.000
    N146     N        0.10597    0.76143    0.66563    1.000
    N147     N        0.06067    0.70083    0.66413    1.000
    N148     N        0.25077    0.03943    0.33873    1.000
    N149     N        0.27517    0.03193    0.29093    1.000
    N150     N        0.26687    0.99493    0.33543    1.000
    N151     N        0.03407    0.02843    0.54073    1.000
    C1265    C        0.17057    0.90033    0.57423    1.000
    C1266    C        0.15197    0.86503    0.58983    1.000
    C1267    C        0.15047    0.86263    0.62243    1.000
    H513     H        0.16077    0.88373    0.63503    1.000
    C1268    C        0.13397    0.82943    0.63723    1.000
    H514     H        0.13377    0.82803    0.65993    1.000
    C1269    C        0.11797    0.79913    0.61993    1.000
    C1270    C        0.11877    0.80063    0.58693    1.000
    H515     H        0.10767    0.77943    0.57453    1.000
    C1271    C        0.13647    0.83443    0.57213    1.000
    H516     H        0.13767    0.83603    0.54953    1.000
    C1272    C        0.09837    0.76383    0.63553    1.000
    C1273    C        0.05447    0.70593    0.63373    1.000
    C1274    C        0.08797    0.72913    0.67893    1.000
    O333     O        0.96147    0.58173    0.53653    1.000
    O334     O        0.91797    0.57343    0.56713    1.000
    C1275    C        0.02537    0.67673    0.61593    1.000
    C1276    C        0.02877    0.67503    0.58353    1.000
    H517     H        0.04897    0.69353    0.57293    1.000
    C1277    C        0.00357    0.64713    0.56633    1.000
    H518     H        0.00717    0.64563    0.54413    1.000
    C1278    C        0.97567    0.62343    0.57963    1.000
    C1279    C        0.96857    0.62473    0.61233    1.000
    H519     H        0.94637    0.60773    0.62153    1.000
    C1280    C        0.99557    0.65213    0.63093    1.000
    H520     H        0.99287    0.65323    0.65333    1.000
    C1281    C        0.95007    0.58983    0.56063    1.000
    C1282    C        0.09617    0.72433    0.71143    1.000
    C1283    C        0.08257    0.69033    0.72443    1.000
    H521     H        0.06787    0.66983    0.71193    1.000
    C1284    C        0.09027    0.68633    0.75533    1.000
    H522     H        0.08017    0.66303    0.76433    1.000
    C1285    C        0.11297    0.71623    0.77363    1.000
    C1286    C        0.12657    0.74973    0.76043    1.000
    H523     H        0.14157    0.77023    0.77283    1.000
    C1287    C        0.11887    0.75383    0.72973    1.000
    H524     H        0.12917    0.77713    0.72073    1.000
    C1288    C        0.12147    0.71233    0.80743    1.000
    C1289    C        0.22107    0.97993    0.48333    1.000
    C1290    C        0.23327    0.96533    0.42913    1.000
    H525     H        0.22957    0.94323    0.43723    1.000
    C1291    C        0.22997    0.98843    0.44913    1.000
    C1292    C        0.24187    0.97323    0.39773    1.000
    H526     H        0.24477    0.95713    0.38433    1.000
    C1293    C        0.24657    0.00533    0.38523    1.000
    C1294    C        0.24297    0.02853    0.40523    1.000
    H527     H        0.24577    0.05023    0.39703    1.000
    C1295    C        0.23547    0.02063    0.43703    1.000
    H528     H        0.23407    0.03733    0.45073    1.000
    C1296    C        0.25537    0.01363    0.35143    1.000
    C1297    C        0.26117    0.04783    0.30913    1.000
    C1298    C        0.29297    0.98773    0.28703    1.000
    C1299    C        0.25547    0.07533    0.29323    1.000
    C1300    C        0.23497    0.08743    0.30723    1.000
    H529     H        0.22517    0.07933    0.32783    1.000
    C1301    C        0.22867    0.11153    0.29113    1.000
    H530     H        0.21207    0.11763    0.29963    1.000
    C1302    C        0.24557    0.12683    0.26333    1.000
    C1303    C        0.26887    0.11713    0.25063    1.000
    H531     H        0.28167    0.12843    0.23173    1.000
    C1304    C        0.27407    0.09093    0.26493    1.000
    H532     H        0.28967    0.08383    0.25583    1.000
    C1305    C        0.24197    0.15443    0.24583    1.000
    C1306    C        0.27737    0.00563    0.30523    1.000
    C1307    C        0.31467    0.00473    0.26093    1.000
    H533     H        0.31827    0.02723    0.25413    1.000
    C1308    C        0.33067    0.98863    0.24473    1.000
    H534     H        0.34587    0.00033    0.22703    1.000
    C1309    C        0.32477    0.95583    0.25433    1.000
    C1310    C        0.30287    0.93833    0.28023    1.000
    H535     H        0.29867    0.91543    0.28643    1.000
    C1311    C        0.28747    0.95473    0.29693    1.000
    H536     H        0.27317    0.94343    0.31513    1.000
    C1312    C        0.34207    0.93803    0.23763    1.000
    C1313    C        0.14597    0.97093    0.54103    1.000
    C1314    C        0.11537    0.97743    0.54003    1.000
    C1315    C        0.11827    0.00813    0.55373    1.000
    H537     H        0.14007    0.02503    0.56343    1.000
    C1316    C        0.08997    0.01413    0.55343    1.000
    H538     H        0.09257    0.03563    0.56213    1.000
    C1317    C        0.05787    0.98883    0.54053    1.000
    C1318    C        0.05427    0.95823    0.52703    1.000
    H539     H        0.03197    0.94103    0.51793    1.000
    C1319    C        0.08347    0.95233    0.52683    1.000
    H540     H        0.08117    0.93123    0.51753    1.000
    C1320    C        0.02687    0.99463    0.54083    1.000
    O335     O        0.18367    0.69433    0.84933    1.000
    O336     O        0.21867    0.75033    0.84133    1.000
    C1321    C        0.20917    0.71933    0.83363    1.000
    C1322    C        0.23607    0.70633    0.82623    1.000
    C1323    C        0.22717    0.67083    0.82363    1.000
    C1324    C        0.25347    0.66223    0.81703    1.000
    C1325    C        0.28867    0.68913    0.81333    1.000
    C1326    C        0.29767    0.72473    0.81563    1.000
    C1327    C        0.27137    0.73333    0.82233    1.000
    N152     N        0.35197    0.70653    0.81333    1.000
    C1328    C        0.31877    0.67953    0.81333    1.000
    O337     O        0.93067    0.57733    0.55133    1.000
    O338     O        0.90107    0.57573    0.59543    1.000
    C1329    C        0.02517    0.67383    0.61933    1.000
    C1330    C        0.01467    0.63933    0.62903    1.000
    H541     H        0.02657    0.63503    0.64563    1.000
    C1331    C        0.98487    0.61053    0.61453    1.000
    H542     H        0.97737    0.58683    0.62133    1.000
    C1332    C        0.96687    0.61653    0.59033    1.000
    C1333    C        0.97767    0.65133    0.58043    1.000
    H543     H        0.96507    0.65533    0.56383    1.000
    C1334    C        0.00717    0.67983    0.59533    1.000
    H544     H        0.01427    0.70353    0.58813    1.000
    C1335    C        0.93167    0.58933    0.58133    1.000
    O339     O        0.15517    0.67123    0.86793    1.000
    O340     O        0.19007    0.72363    0.84943    1.000
    C1336    C        0.18337    0.69243    0.85383    1.000
    C1337    C        0.21457    0.68483    0.85083    1.000
    C1338    C        0.21017    0.65103    0.85543    1.000
    C1339    C        0.23917    0.64573    0.85233    1.000
    C1340    C        0.27267    0.67433    0.84463    1.000
    C1341    C        0.27707    0.70813    0.84003    1.000
    C1342    C        0.24797    0.71333    0.84313    1.000
    N153     N        0.33597    0.70023    0.84483    1.000
    C1343    C        0.30557    0.66943    0.84483    1.000
    In35     In       0.86708    0.29395    0.87568    1.000
    In36     In       0.80416    0.04173    0.19938    1.000
    O341     O        0.84443    0.23447    0.87777    1.000
    O342     O        0.84483    0.26187    0.92177    1.000
    O343     O        0.77813    0.01557    0.15177    1.000
    O344     O        0.80543    0.07367    0.15747    1.000
    O345     O        0.88973    0.33597    0.83637    1.000
    O346     O        0.87593    0.28117    0.82547    1.000
    O347     O        0.88243    0.49097    0.58597    1.000
    O348     O        0.92883    0.50437    0.55657    1.000
    O349     O        0.03483    0.28947    0.55187    1.000
    O350     O        0.99803    0.23887    0.57557    1.000
    O351     O        0.81133    0.27897    0.85877    1.000
    O352     O        0.84003    0.32477    0.89107    1.000
    N154     N        0.73973    0.06987    0.95177    1.000
    N155     N        0.77263    0.09477    0.99897    1.000
    N156     N        0.72733    0.03417    0.99747    1.000
    N157     N        0.91743    0.37277    0.67207    1.000
    N158     N        0.94183    0.36527    0.62427    1.000
    N159     N        0.93353    0.32827    0.66877    1.000
    N160     N        0.70073    0.36177    0.87407    1.000
    C1344    C        0.83723    0.23367    0.90757    1.000
    C1345    C        0.81863    0.19837    0.92317    1.000
    C1346    C        0.81713    0.19597    0.95577    1.000
    H545     H        0.82743    0.21707    0.96837    1.000
    C1347    C        0.80063    0.16277    0.97057    1.000
    H546     H        0.80043    0.16137    0.99327    1.000
    C1348    C        0.78463    0.13247    0.95327    1.000
    C1349    C        0.78543    0.13397    0.92027    1.000
    H547     H        0.77433    0.11277    0.90787    1.000
    C1350    C        0.80313    0.16777    0.90547    1.000
    H548     H        0.80433    0.16937    0.88287    1.000
    C1351    C        0.76503    0.09717    0.96887    1.000
    C1352    C        0.72113    0.03927    0.96707    1.000
    C1353    C        0.75463    0.06247    0.01227    1.000
    O353     O        0.62813    0.91507    0.86987    1.000
    O354     O        0.58463    0.90677    0.90047    1.000
    C1354    C        0.69203    0.01007    0.94927    1.000
    C1355    C        0.69543    0.00837    0.91687    1.000
    H549     H        0.71563    0.02687    0.90627    1.000
    C1356    C        0.67023    0.98047    0.89967    1.000
    H550     H        0.67383    0.97897    0.87747    1.000
    C1357    C        0.64233    0.95677    0.91297    1.000
    C1358    C        0.63523    0.95807    0.94567    1.000
    H551     H        0.61303    0.94107    0.95487    1.000
    C1359    C        0.66223    0.98547    0.96427    1.000
    H552     H        0.65953    0.98657    0.98667    1.000
    C1360    C        0.61673    0.92317    0.89397    1.000
    C1361    C        0.76283    0.05767    0.04477    1.000
    C1362    C        0.74923    0.02367    0.05777    1.000
    H553     H        0.73453    0.00317    0.04527    1.000
    C1363    C        0.75693    0.01967    0.08867    1.000
    H554     H        0.74683    0.99637    0.09767    1.000
    C1364    C        0.77963    0.04957    0.10697    1.000
    C1365    C        0.79323    0.08307    0.09377    1.000
    H555     H        0.80823    0.10357    0.10617    1.000
    C1366    C        0.78553    0.08717    0.06307    1.000
    H556     H        0.79583    0.11047    0.05407    1.000
    C1367    C        0.78813    0.04567    0.14077    1.000
    C1368    C        0.88773    0.31327    0.81667    1.000
    C1369    C        0.89993    0.29867    0.76247    1.000
    H557     H        0.89623    0.27657    0.77057    1.000
    C1370    C        0.89663    0.32177    0.78247    1.000
    C1371    C        0.90853    0.30657    0.73107    1.000
    H558     H        0.91143    0.29047    0.71767    1.000
    C1372    C        0.91323    0.33867    0.71857    1.000
    C1373    C        0.90963    0.36187    0.73857    1.000
    H559     H        0.91243    0.38357    0.73037    1.000
    C1374    C        0.90213    0.35397    0.77037    1.000
    H560     H        0.90073    0.37067    0.78407    1.000
    C1375    C        0.92203    0.34697    0.68477    1.000
    C1376    C        0.92783    0.38117    0.64247    1.000
    C1377    C        0.95963    0.32107    0.62037    1.000
    C1378    C        0.92213    0.40867    0.62657    1.000
    C1379    C        0.90163    0.42077    0.64057    1.000
    H561     H        0.89183    0.41267    0.66117    1.000
    C1380    C        0.89533    0.44487    0.62447    1.000
    H562     H        0.87873    0.45097    0.63297    1.000
    C1381    C        0.91223    0.46017    0.59667    1.000
    C1382    C        0.93553    0.45047    0.58397    1.000
    H563     H        0.94833    0.46177    0.56507    1.000
    C1383    C        0.94073    0.42427    0.59827    1.000
    H564     H        0.95633    0.41717    0.58917    1.000
    C1384    C        0.90863    0.48777    0.57917    1.000
    C1385    C        0.94403    0.33897    0.63857    1.000
    C1386    C        0.98133    0.33807    0.59427    1.000
    H565     H        0.98493    0.36057    0.58747    1.000
    C1387    C        0.99733    0.32197    0.57807    1.000
    H566     H        0.01253    0.33367    0.56037    1.000
    C1388    C        0.99143    0.28917    0.58767    1.000
    C1389    C        0.96953    0.27167    0.61357    1.000
    H567     H        0.96533    0.24877    0.61977    1.000
    C1390    C        0.95413    0.28807    0.63027    1.000
    H568     H        0.93983    0.27677    0.64847    1.000
    C1391    C        0.00873    0.27137    0.57097    1.000
    C1392    C        0.81263    0.30427    0.87437    1.000
    C1393    C        0.78203    0.31077    0.87337    1.000
    C1394    C        0.78493    0.34147    0.88707    1.000
    H569     H        0.80673    0.35837    0.89677    1.000
    C1395    C        0.75663    0.34747    0.88677    1.000
    H570     H        0.75923    0.36897    0.89547    1.000
    C1396    C        0.72453    0.32217    0.87387    1.000
    C1397    C        0.72093    0.29157    0.86037    1.000
    H571     H        0.69863    0.27437    0.85127    1.000
    C1398    C        0.75013    0.28567    0.86017    1.000
    H572     H        0.74783    0.26457    0.85087    1.000
    C1399    C        0.69353    0.32797    0.87417    1.000
    O355     O        0.85033    0.02767    0.18267    1.000
    O356     O        0.88533    0.08367    0.17467    1.000
    C1400    C        0.87583    0.05267    0.16697    1.000
    C1401    C        0.90273    0.03967    0.15957    1.000
    C1402    C        0.89383    0.00417    0.15697    1.000
    C1403    C        0.92013    0.99557    0.15037    1.000
    C1404    C        0.95533    0.02247    0.14667    1.000
    C1405    C        0.96433    0.05807    0.14897    1.000
    C1406    C        0.93803    0.06667    0.15567    1.000
    N161     N        0.01863    0.03987    0.14667    1.000
    C1407    C        0.98543    0.01287    0.14667    1.000
    O357     O        0.59733    0.91067    0.88467    1.000
    O358     O        0.56773    0.90907    0.92877    1.000
    C1408    C        0.69183    0.00717    0.95267    1.000
    C1409    C        0.68133    0.97267    0.96237    1.000
    H573     H        0.69323    0.96837    0.97897    1.000
    C1410    C        0.65153    0.94387    0.94787    1.000
    H574     H        0.64403    0.92017    0.95467    1.000
    C1411    C        0.63353    0.94987    0.92367    1.000
    C1412    C        0.64433    0.98467    0.91377    1.000
    H575     H        0.63173    0.98867    0.89717    1.000
    C1413    C        0.67383    0.01317    0.92867    1.000
    H576     H        0.68093    0.03687    0.92147    1.000
    C1414    C        0.59833    0.92267    0.91467    1.000
    O359     O        0.82183    0.00457    0.20127    1.000
    O360     O        0.85673    0.05697    0.18277    1.000
    C1415    C        0.85003    0.02577    0.18717    1.000
    C1416    C        0.88123    0.01817    0.18417    1.000
    C1417    C        0.87683    0.98437    0.18877    1.000
    C1418    C        0.90583    0.97907    0.18567    1.000
    C1419    C        0.93933    0.00767    0.17797    1.000
    C1420    C        0.94373    0.04147    0.17337    1.000
    C1421    C        0.91463    0.04667    0.17647    1.000
    N162     N        0.00263    0.03357    0.17817    1.000
    C1422    C        0.97223    0.00277    0.17817    1.000
