# CIF file generated by openbabel 3.1.0, see https://openbabel.org
data_I
_chemical_name_common 'BUGSIG_clean'
_cell_length_a 5.515
_cell_length_b 13.393
_cell_length_c 20.8105
_cell_angle_alpha 90
_cell_angle_beta 95.382
_cell_angle_gamma 90
_space_group_name_H-M_alt 'P 1'
_space_group_name_Hall 'P 1'
loop_
    _symmetry_equiv_pos_as_xyz
    x,y,z
loop_
    _atom_site_label
    _atom_site_type_symbol
    _atom_site_fract_x
    _atom_site_fract_y
    _atom_site_fract_z
    _atom_site_occupancy
    Gd1      Gd       0.87244    0.63255    0.52777    1.000
    Gd2      Gd       0.12756    0.13255    0.97223    1.000
    Gd3      Gd       0.12756    0.36745    0.47223    1.000
    Gd4      Gd       0.87244    0.86745    0.02777    1.000
    P1       P        0.59070    0.52121    0.41416    1.000
    P2       P        0.40930    0.02121    0.08584    1.000
    P3       P        0.40930    0.47879    0.58584    1.000
    P4       P        0.59070    0.97879    0.91416    1.000
    H1       H        0.83240    0.58220    0.33670    1.000
    H2       H        0.74350    0.47450    0.31770    1.000
    H3       H        0.62120    0.72770    0.29920    1.000
    H4       H        0.40950    0.69700    0.34090    1.000
    H5       H        0.25550    0.80510    0.25590    1.000
    H6       H        0.12650    0.70080    0.24850    1.000
    H7       H        0.51840    0.76000    0.17500    1.000
    H8       H        0.24730    0.57390    0.16790    1.000
    H9       H        0.45130    0.59850    0.12240    1.000
    H10      H        0.62530    0.49690    0.20950    1.000
    H11      H        0.75000    0.60260    0.21490    1.000
    H12      H        0.16760    0.08220    0.16330    1.000
    H13      H        0.25650    0.97450    0.18230    1.000
    H14      H        0.37880    0.22770    0.20080    1.000
    H15      H        0.59050    0.19700    0.15910    1.000
    H16      H        0.74450    0.30510    0.24410    1.000
    H17      H        0.87350    0.20080    0.25150    1.000
    H18      H        0.48160    0.26000    0.32500    1.000
    H19      H        0.75270    0.07390    0.33210    1.000
    H20      H        0.54870    0.09850    0.37760    1.000
    H21      H        0.37470    0.99690    0.29050    1.000
    H22      H        0.25000    0.10260    0.28510    1.000
    H23      H        0.16760    0.41780    0.66330    1.000
    H24      H        0.25650    0.52550    0.68230    1.000
    H25      H        0.37880    0.27230    0.70080    1.000
    H26      H        0.59050    0.30300    0.65910    1.000
    H27      H        0.74450    0.19490    0.74410    1.000
    H28      H        0.87350    0.29920    0.75150    1.000
    H29      H        0.48160    0.24000    0.82500    1.000
    H30      H        0.75270    0.42610    0.83210    1.000
    H31      H        0.54870    0.40150    0.87760    1.000
    H32      H        0.37470    0.50310    0.79050    1.000
    H33      H        0.25000    0.39740    0.78510    1.000
    H34      H        0.83240    0.91780    0.83670    1.000
    H35      H        0.74350    0.02550    0.81770    1.000
    H36      H        0.62120    0.77230    0.79920    1.000
    H37      H        0.40950    0.80300    0.84090    1.000
    H38      H        0.25550    0.69490    0.75590    1.000
    H39      H        0.12650    0.79920    0.74850    1.000
    H40      H        0.51840    0.74000    0.67500    1.000
    H41      H        0.24730    0.92610    0.66790    1.000
    H42      H        0.45130    0.90150    0.62240    1.000
    H43      H        0.62530    0.00310    0.70950    1.000
    H44      H        0.75000    0.89740    0.71490    1.000
    C1       C        0.69110    0.53880    0.33290    1.000
    C2       C        0.46890    0.69130    0.29870    1.000
    C3       C        0.28070    0.73510    0.24670    1.000
    C4       C        0.36400    0.72470    0.17760    1.000
    C5       C        0.40000    0.60890    0.16520    1.000
    C6       C        0.59760    0.56720    0.21720    1.000
    C7       C        0.17130    0.76390    0.12500    1.000
    C8       C        0.30890    0.03880    0.16710    1.000
    C9       C        0.53110    0.19130    0.20130    1.000
    C10      C        0.71930    0.23510    0.25330    1.000
    C11      C        0.63600    0.22470    0.32240    1.000
    C12      C        0.60000    0.10890    0.33480    1.000
    C13      C        0.40240    0.06720    0.28280    1.000
    C14      C        0.82870    0.26390    0.37500    1.000
    C15      C        0.30890    0.46120    0.66710    1.000
    C16      C        0.53110    0.30870    0.70130    1.000
    C17      C        0.71930    0.26490    0.75330    1.000
    C18      C        0.63600    0.27530    0.82240    1.000
    C19      C        0.60000    0.39110    0.83480    1.000
    C20      C        0.40240    0.43280    0.78280    1.000
    C21      C        0.82870    0.23610    0.87500    1.000
    C22      C        0.69110    0.96120    0.83290    1.000
    C23      C        0.46890    0.80870    0.79870    1.000
    C24      C        0.28070    0.76490    0.74670    1.000
    C25      C        0.36400    0.77530    0.67760    1.000
    C26      C        0.40000    0.89110    0.66520    1.000
    C27      C        0.59760    0.93280    0.71720    1.000
    C28      C        0.17130    0.73610    0.62500    1.000
    N1       N        0.50880    0.58130    0.28250    1.000
    N2       N        0.49120    0.08130    0.21750    1.000
    N3       N        0.49120    0.41870    0.71750    1.000
    N4       N        0.50880    0.91870    0.78250    1.000
    O1       O        0.54070    0.62270    0.44440    1.000
    O2       O        0.82140    0.48080    0.45480    1.000
    O3       O        0.37460    0.45030    0.40878    1.000
    O4       O        0.00190    0.81910    0.14080    1.000
    O5       O        0.19890    0.74890    0.06770    1.000
    O6       O        0.45930    0.12270    0.05560    1.000
    O7       O        0.17860    0.98080    0.04520    1.000
    O8       O        0.62540    0.95030    0.09122    1.000
    O9       O        0.99810    0.31910    0.35920    1.000
    O10      O        0.80110    0.24890    0.43230    1.000
    O11      O        0.45930    0.37730    0.55560    1.000
    O12      O        0.17860    0.51920    0.54520    1.000
    O13      O        0.62540    0.54970    0.59122    1.000
    O14      O        0.99810    0.18090    0.85920    1.000
    O15      O        0.80110    0.25110    0.93230    1.000
    O16      O        0.54070    0.87730    0.94440    1.000
    O17      O        0.82140    0.01920    0.95480    1.000
    O18      O        0.37460    0.04970    0.90878    1.000
    O19      O        0.00190    0.68090    0.64080    1.000
    O20      O        0.19890    0.75110    0.56770    1.000
