# CIF file generated by openbabel 3.1.0, see https://openbabel.org
data_I
_chemical_name_common 'image0'
_cell_length_a 9.515
_cell_length_b 9.515
_cell_length_c 14.351
_cell_angle_alpha 90
_cell_angle_beta 90
_cell_angle_gamma 90
_space_group_name_H-M_alt 'P 1'
_space_group_name_Hall 'P 1'
loop_
    _symmetry_equiv_pos_as_xyz
    x,y,z
loop_
    _atom_site_label
    _atom_site_type_symbol
    _atom_site_fract_x
    _atom_site_fract_y
    _atom_site_fract_z
    _atom_site_occupancy
    O1       O        0.06470    0.16840    0.06360    1.000
    O2       O        0.88320    0.15570    0.17880    1.000
    O3       O        0.56470    0.66840    0.56360    1.000
    O4       O        0.38320    0.65570    0.67880    1.000
    O5       O        0.93530    0.83160    0.06360    1.000
    O6       O        0.11680    0.84430    0.17880    1.000
    O7       O        0.43530    0.33160    0.56360    1.000
    O8       O        0.61680    0.34430    0.67880    1.000
    O9       O        0.16840    0.93530    0.93640    1.000
    O10      O        0.15570    0.11680    0.82120    1.000
    O11      O        0.66840    0.43530    0.43640    1.000
    O12      O        0.65570    0.61680    0.32120    1.000
    O13      O        0.83160    0.06470    0.93640    1.000
    O14      O        0.84430    0.88320    0.82120    1.000
    O15      O        0.33160    0.56470    0.43640    1.000
    O16      O        0.34430    0.38320    0.32120    1.000
    O17      O        0.43530    0.16840    0.68640    1.000
    O18      O        0.61680    0.15570    0.57120    1.000
    O19      O        0.93530    0.66840    0.18640    1.000
    O20      O        0.11680    0.65570    0.07120    1.000
    O21      O        0.56470    0.83160    0.68640    1.000
    O22      O        0.38320    0.84430    0.57120    1.000
    O23      O        0.06470    0.33160    0.18640    1.000
    O24      O        0.88320    0.34430    0.07120    1.000
    O25      O        0.33160    0.93530    0.81360    1.000
    O26      O        0.34430    0.11680    0.92880    1.000
    O27      O        0.83160    0.43530    0.31360    1.000
    O28      O        0.84430    0.61680    0.42880    1.000
    O29      O        0.66840    0.06470    0.81360    1.000
    O30      O        0.65570    0.88320    0.92880    1.000
    O31      O        0.16840    0.56470    0.31360    1.000
    O32      O        0.15570    0.38320    0.42880    1.000
    S1       S        0.96940    0.25000    0.12500    1.000
    S2       S        0.03060    0.75000    0.12500    1.000
    S3       S        0.53060    0.25000    0.62500    1.000
    S4       S        0.25000    0.03060    0.87500    1.000
    S5       S        0.75000    0.53060    0.37500    1.000
    S6       S        0.75000    0.96940    0.87500    1.000
    S7       S        0.25000    0.46940    0.37500    1.000
    S8       S        0.46940    0.75000    0.62500    1.000
    Zn1      Zn       0.00000    0.00000    0.00000    1.000
    Zn2      Zn       0.50000    0.50000    0.50000    1.000
    Zn3      Zn       0.50000    0.00000    0.75000    1.000
    Zn4      Zn       0.00000    0.50000    0.25000    1.000
