data_functionalizedCrystal
_audit_creation_method	'EQeq! by Chris Wilmer'
_symmetry_space_group_name_H-M	'P1'
_symmetry_Int_Tables_number	1
_symmetry_cell_setting	triclinic
loop_
_symmetry_equiv_pos_as_xyz
  x,y,z
_cell_length_a	12.6358
_cell_length_b	15.2897
_cell_length_c	16.4183
_cell_angle_alpha	90
_cell_angle_beta	90
_cell_angle_gamma	90
loop_
_atom_site_label
_atom_site_type_symbol
_atom_site_fract_x
_atom_site_fract_y
_atom_site_fract_z
_atom_site_charge
Mof_Mn	Mn	0.99209	0.91074	0.60135	0.954
Mof_Mn	Mn	0.00791	0.08926	0.39865	0.954
Mof_Mn	Mn	0.50791	0.41074	0.60135	0.961
Mof_Mn	Mn	0.50791	0.08926	0.10135	0.959
Mof_Mn	Mn	0.49209	0.58926	0.39865	0.961
Mof_Mn	Mn	0.00791	0.41074	0.89865	0.96
Mof_Mn	Mn	0.99209	0.58926	0.10135	0.96
Mof_Mn	Mn	0.49209	0.91074	0.89865	0.959
Mof_H 	H 	0.7465	0.2014	0.5526	0.044
Mof_H 	H 	0.5229	0.1399	0.7235	0.05
Mof_H 	H 	0.2465	0.2986	0.4474	0.045
Mof_H 	H 	0.7465	0.0281	0.164	0.034
Mof_H 	H 	0.7535	0.7986	0.0526	0.045
Mof_H 	H 	0.7465	0.2986	0.0526	0.045
Mof_H 	H 	0.0229	0.3601	0.2765	0.05
Mof_H 	H 	0.2535	0.9719	0.836	0.034
Mof_H 	H 	0.9771	0.8601	0.2235	0.048
Mof_H 	H 	0.7465	0.4719	0.664	0.033
Mof_H 	H 	0.2535	0.5281	0.336	0.033
Mof_H 	H 	0.2535	0.7014	0.9474	0.045
Mof_H 	H 	0.0229	0.1399	0.7765	0.048
Mof_H 	H 	0.4771	0.8601	0.2765	0.05
Mof_H 	H 	0.2465	0.4719	0.836	0.033
Mof_H 	H 	0.2535	0.7986	0.4474	0.044
Mof_H 	H 	0.5229	0.3601	0.2235	0.05
Mof_H 	H 	0.9771	0.6399	0.7235	0.05
Mof_H 	H 	0.2465	0.2014	0.9474	0.045
Mof_H 	H 	0.4771	0.6399	0.7765	0.05
Mof_H 	H 	0.2465	0.0281	0.336	0.027
Mof_H 	H 	0.7535	0.7014	0.5526	0.045
Mof_H 	H 	0.7535	0.5281	0.164	0.033
Mof_H 	H 	0.7535	0.9719	0.664	0.027
Mof_C 	C 	0.3692	0.9521	0.2959	-0.114
Mof_C 	C 	0.8581	0.0608	0.5416	0.448
Mof_C 	C 	0.0845	0.3757	0.3062	0.064
Mof_C 	C 	0.7209	0.0273	0.6563	0.092
Mof_C 	C 	0.7191	0.1601	0.5903	0.088
Mof_C 	C 	0.2356	0.5839	0.9016	-0.146
Mof_C 	C 	0.4155	0.8757	0.3062	0.067
Mof_C 	C 	0.1419	0.5608	0.9584	0.44
Mof_C 	C 	0.7356	0.9161	0.0984	-0.146
Mof_C 	C 	0.5845	0.3757	0.1938	0.065
Mof_C 	C 	0.2191	0.1601	0.9097	0.084
Mof_C 	C 	0.0845	0.1243	0.8062	0.065
Mof_C 	C 	0.9174	0.7649	0.6286	0.318
Mof_C 	C 	0.3702	0.8189	0.3626	-0.114
Mof_C 	C 	0.6419	0.5608	0.5416	0.44
Mof_C 	C 	0.2644	0.4161	0.4016	-0.146
Mof_C 	C 	0.9159	0.0097	0.2707	0.351
Mof_C 	C 	0.2809	0.6601	0.9097	0.085
Mof_C 	C 	0.8702	0.6811	0.6374	-0.111
Mof_C 	C 	0.2791	0.5273	0.8437	0.083
Mof_C 	C 	0.0841	0.5097	0.2293	0.35
Mof_C 	C 	0.7809	0.8399	0.0903	0.084
Mof_C 	C 	0.4155	0.6243	0.8062	0.065
Mof_C 	C 	0.5826	0.2351	0.1286	0.322
Mof_C 	C 	0.2809	0.8399	0.4097	0.088
Mof_C 	C 	0.0826	0.2351	0.3714	0.318
Mof_C 	C 	0.9159	0.4903	0.7707	0.35
Mof_C 	C 	0.7791	0.5273	0.6563	0.082
Mof_C 	C 	0.5826	0.2649	0.6286	0.323
Mof_C 	C 	0.4174	0.7351	0.3714	0.323
Mof_C 	C 	0.5841	0.9903	0.7707	0.347
Mof_C 	C 	0.7809	0.6601	0.5903	0.084
Mof_C 	C 	0.6419	0.9392	0.0416	0.44
Mof_C 	C 	0.8702	0.8189	0.1374	-0.112
Mof_C 	C 	0.9174	0.7351	0.1286	0.318
Mof_C 	C 	0.1308	0.4521	0.2959	-0.113
Mof_C 	C 	0.5841	0.5097	0.2707	0.35
Mof_C 	C 	0.7644	0.4161	0.0984	-0.146
Mof_C 	C 	0.6308	0.4521	0.2041	-0.113
Mof_C 	C 	0.1298	0.1811	0.8626	-0.112
Mof_C 	C 	0.3581	0.4392	0.4584	0.44
Mof_C 	C 	0.8692	0.5479	0.7041	-0.113
Mof_C 	C 	0.2356	0.9161	0.4016	-0.151
Mof_C 	C 	0.7209	0.4727	0.1563	0.083
Mof_C 	C 	0.8581	0.4392	0.0416	0.44
Mof_C 	C 	0.9155	0.8757	0.1938	0.065
Mof_C 	C 	0.0841	0.9903	0.7293	0.351
Mof_C 	C 	0.4174	0.7649	0.8714	0.322
Mof_C 	C 	0.1298	0.3189	0.3626	-0.111
Mof_C 	C 	0.2791	0.9727	0.3437	0.092
Mof_C 	C 	0.2209	0.0273	0.8437	0.081
Mof_C 	C 	0.1308	0.0479	0.7959	-0.116
Mof_C 	C 	0.2191	0.3399	0.4097	0.084
Mof_C 	C 	0.7191	0.3399	0.0903	0.085
Mof_C 	C 	0.7644	0.0839	0.5984	-0.151
Mof_C 	C 	0.3702	0.6811	0.8626	-0.113
Mof_C 	C 	0.5845	0.1243	0.6938	0.067
Mof_C 	C 	0.0826	0.2649	0.8714	0.318
Mof_C 	C 	0.1419	0.9392	0.4584	0.448
Mof_C 	C 	0.2209	0.4727	0.3437	0.082
Mof_C 	C 	0.3581	0.0608	0.9584	0.44
Mof_C 	C 	0.3692	0.5479	0.7959	-0.113
Mof_C 	C 	0.8692	0.9521	0.2041	-0.116
Mof_C 	C 	0.9155	0.6243	0.6938	0.064
Mof_C 	C 	0.7356	0.5839	0.5984	-0.146
Mof_C 	C 	0.4159	0.0097	0.2293	0.347
Mof_C 	C 	0.6298	0.3189	0.1374	-0.113
Mof_C 	C 	0.2644	0.0839	0.9016	-0.146
Mof_C 	C 	0.4159	0.4903	0.7293	0.35
Mof_C 	C 	0.6298	0.1811	0.6374	-0.114
Mof_C 	C 	0.7791	0.9727	0.1563	0.081
Mof_C 	C 	0.6308	0.0479	0.7041	-0.114
Mof_O 	O 	0.1325	0.1813	0.4115	-0.334
Mof_O 	O 	0.9907	0.4998	0.2052	-0.345
Mof_O 	O 	0.8675	0.8187	0.5885	-0.334
Mof_O 	O 	0.4907	0.4998	0.2948	-0.345
Mof_O 	O 	0.1183	0.0132	0.467	-0.412
Mof_O 	O 	0.6396	0.9361	0.8036	-0.3
Mof_O 	O 	0.4933	0.2207	0.1619	-0.306
Mof_O 	O 	0.6183	0.0132	0.033	-0.407
Mof_O 	O 	0.1396	0.5639	0.1964	-0.299
Mof_O 	O 	0.8817	0.9868	0.533	-0.412
Mof_O 	O 	0.1396	0.9361	0.6964	-0.298
Mof_O 	O 	0.1183	0.4868	0.967	-0.407
Mof_O 	O 	0.3817	0.9868	0.967	-0.407
Mof_O 	O 	0.8675	0.6813	0.0885	-0.334
Mof_O 	O 	0.9061	0.1188	0.5039	-0.369
Mof_O 	O 	0.5939	0.8812	0.0039	-0.369
Mof_O 	O 	0.1325	0.3187	0.9115	-0.334
Mof_O 	O 	0.8817	0.5132	0.033	-0.407
Mof_O 	O 	0.0939	0.8812	0.4961	-0.369
Mof_O 	O 	0.9933	0.2207	0.3381	-0.301
Mof_O 	O 	0.6325	0.1813	0.0885	-0.335
Mof_O 	O 	0.3604	0.0639	0.1964	-0.3
Mof_O 	O 	0.5067	0.7207	0.3381	-0.306
Mof_O 	O 	0.9933	0.2793	0.8381	-0.3
Mof_O 	O 	0.0093	0.9998	0.2948	-0.339
Mof_O 	O 	0.5067	0.7793	0.8381	-0.306
Mof_O 	O 	0.4933	0.2793	0.6619	-0.306
Mof_O 	O 	0.3675	0.8187	0.9115	-0.335
Mof_O 	O 	0.0939	0.6188	0.9961	-0.37
Mof_O 	O 	0.6325	0.3187	0.5885	-0.335
Mof_O 	O 	0.4061	0.3812	0.4961	-0.37
Mof_O 	O 	0.4061	0.1188	0.9961	-0.369
Mof_O 	O 	0.3817	0.5132	0.467	-0.406
Mof_O 	O 	0.4907	0.0002	0.7948	-0.343
Mof_O 	O 	0.5939	0.6188	0.5039	-0.37
Mof_O 	O 	0.8604	0.0639	0.3036	-0.298
Mof_O 	O 	0.5093	0.5002	0.7052	-0.345
Mof_O 	O 	0.6183	0.4868	0.533	-0.406
Mof_O 	O 	0.3675	0.6813	0.4115	-0.335
Mof_O 	O 	0.8604	0.4361	0.8036	-0.299
Mof_O 	O 	0.0067	0.7207	0.1619	-0.3
Mof_O 	O 	0.5093	0.9998	0.2052	-0.343
Mof_O 	O 	0.9907	0.0002	0.7052	-0.339
Mof_O 	O 	0.9061	0.3812	0.0039	-0.37
Mof_O 	O 	0.0093	0.5002	0.7948	-0.345
Mof_O 	O 	0.0067	0.7793	0.6619	-0.301
Mof_O 	O 	0.3604	0.4361	0.6964	-0.3
Mof_O 	O 	0.6396	0.5639	0.3036	-0.3
_end
