data_functionalizedCrystal
_audit_creation_method	'EQeq! by Chris Wilmer'
_symmetry_space_group_name_H-M	'P1'
_symmetry_Int_Tables_number	1
_symmetry_cell_setting	triclinic
loop_
_symmetry_equiv_pos_as_xyz
  x,y,z
_cell_length_a	12.9785
_cell_length_b	11.7197
_cell_length_c	27.087
_cell_angle_alpha	90
_cell_angle_beta	105.699
_cell_angle_gamma	90
loop_
_atom_site_label
_atom_site_type_symbol
_atom_site_fract_x
_atom_site_fract_y
_atom_site_fract_z
_atom_site_charge
Mof_C 	C 	0.1048	0.2596	0.00529	0.431
Mof_C 	C 	0.7983	0.3239	0.97913	0.411
Mof_C 	C 	0.2045	0.2019	0.99903	-0.18
Mof_C 	C 	0.7087	0.3678	0.93669	-0.177
Mof_C 	C 	0.217	0.0839	0.00674	0.107
Mof_H 	H 	0.1619	0.0412	0.0134	-0.028
Mof_C 	C 	0.1593	0.5358	0.66154	-0.236
Mof_C 	C 	0.3105	0.0307	0.00442	-0.269
Mof_H 	H 	0.3191	0.9525	0.01	0.128
Mof_C 	C 	0.6985	0.4834	0.92571	0.111
Mof_H 	H 	0.7486	0.5344	0.9448	0.011
Mof_C 	C 	0.3909	0.0947	0.99381	0.209
Mof_C 	C 	0.5493	0.3317	0.86904	-0.199
Mof_H 	H 	0.4986	0.2806	0.8505	0.105
Mof_C 	C 	0.6141	0.5231	0.88653	-0.196
Mof_H 	H 	0.6066	0.6009	0.8798	0.106
Mof_C 	C 	0.2843	0.2634	0.98779	0.129
Mof_H 	H 	0.2755	0.3416	0.9823	-0.006
Mof_C 	C 	0.1895	0.4237	0.66891	0.152
Mof_H 	H 	0.155	0.3697	0.645	-0.022
Mof_C 	C 	0.0774	0.5725	0.61323	0.476
Mof_C 	C 	0.5406	0.4465	0.8572	0.171
Mof_C 	C 	0.2698	0.3887	0.71097	-0.237
Mof_H 	H 	0.2886	0.3121	0.7154	0.11
Mof_C 	C 	0.634	0.2925	0.9088	0.11
Mof_H 	H 	0.6401	0.2151	0.9165	0.006
Mof_C 	C 	0.3778	0.212	0.98437	-0.229
Mof_H 	H 	0.4311	0.2545	0.9759	0.114
Mof_C 	C 	0.3218	0.4687	0.74637	0.191
Mof_C 	C 	0.21	0.615	0.69771	0.141
Mof_H 	H 	0.1887	0.691	0.6938	-0.029
Mof_C 	C 	0.293	0.5825	0.74005	-0.233
Mof_H 	H 	0.3284	0.6367	0.7637	0.109
Mof_Mg	Mg	0.92978	0.24831	0.05631	1.466
Mof_N 	N 	0.4587	0.4967	0.81622	-0.104
Mof_N 	N 	0.4045	0.4221	0.78816	-0.108
Mof_N 	N 	0.4914	0.0494	0.99107	-0.103
Mof_O 	O 	0.79808	0.22057	0.99193	-0.47
Mof_O 	O 	0.87279	0.38932	0.00331	-0.592
Mof_O 	O 	0.04957	0.49814	0.57834	-0.546
Mof_O 	O 	0.0434	0.6725	0.61084	-0.619
Mof_O 	O 	0.09746	0.36377	0.99762	-0.514
Mof_O 	O 	0.03717	0.19803	0.0183	-0.588
Mof_C 	C 	0.8952	0.2596	0.49471	0.468
Mof_C 	C 	0.2017	0.3239	0.52087	0.399
Mof_C 	C 	0.7955	0.2019	0.50097	-0.198
Mof_C 	C 	0.2913	0.3678	0.56331	-0.194
Mof_C 	C 	0.783	0.0839	0.49326	0.128
Mof_H 	H 	0.8381	0.0412	0.4866	0.001
Mof_C 	C 	0.8407	0.5358	0.83846	-0.189
Mof_C 	C 	0.6895	0.0307	0.49558	-0.23
Mof_H 	H 	0.6809	0.9525	0.49	0.126
Mof_C 	C 	0.3015	0.4834	0.57429	0.119
Mof_H 	H 	0.2514	0.5344	0.5552	0
Mof_C 	C 	0.6091	0.0947	0.50619	0.184
Mof_C 	C 	0.4507	0.3317	0.63096	-0.207
Mof_H 	H 	0.5014	0.2806	0.6495	0.113
Mof_C 	C 	0.3859	0.5231	0.61347	-0.203
Mof_H 	H 	0.3934	0.6009	0.6202	0.108
Mof_C 	C 	0.7157	0.2634	0.51221	0.137
Mof_H 	H 	0.7245	0.3416	0.5177	-0.001
Mof_C 	C 	0.8105	0.4237	0.83109	0.134
Mof_H 	H 	0.845	0.3697	0.855	0.013
Mof_C 	C 	0.9226	0.5725	0.88677	0.457
Mof_C 	C 	0.4594	0.4465	0.6428	0.18
Mof_C 	C 	0.7302	0.3887	0.78903	-0.207
Mof_H 	H 	0.7114	0.3121	0.7846	0.115
Mof_C 	C 	0.366	0.2925	0.5912	0.118
Mof_H 	H 	0.3599	0.2151	0.5835	-0.001
Mof_C 	C 	0.6222	0.212	0.51563	-0.22
Mof_H 	H 	0.5689	0.2545	0.5241	0.111
Mof_C 	C 	0.6782	0.4687	0.75363	0.187
Mof_C 	C 	0.79	0.615	0.80229	0.125
Mof_H 	H 	0.8113	0.691	0.8062	-0.001
Mof_C 	C 	0.707	0.5825	0.75995	-0.206
Mof_H 	H 	0.6716	0.6367	0.7363	0.111
Mof_Mg	Mg	0.07022	0.24831	0.44369	1.448
Mof_N 	N 	0.5413	0.4967	0.68378	-0.101
Mof_N 	N 	0.5955	0.4221	0.71184	-0.101
Mof_N 	N 	0.5086	0.0494	0.50893	-0.11
Mof_O 	O 	0.20192	0.22057	0.50807	-0.524
Mof_O 	O 	0.12721	0.38932	0.49669	-0.655
Mof_O 	O 	0.95043	0.49814	0.92166	-0.458
Mof_O 	O 	0.9566	0.6725	0.88916	-0.538
Mof_O 	O 	0.90254	0.36377	0.50238	-0.474
Mof_O 	O 	0.96283	0.19803	0.4817	-0.495
Mof_C 	C 	0.8952	0.7404	0.99471	0.523
Mof_C 	C 	0.2017	0.6761	0.02087	0.374
Mof_C 	C 	0.7955	0.7981	0.00097	-0.258
Mof_C 	C 	0.2913	0.6322	0.06331	-0.187
Mof_C 	C 	0.783	0.9161	0.99326	0.172
Mof_H 	H 	0.8381	0.9588	0.9866	-0.01
Mof_C 	C 	0.8407	0.4642	0.33846	-0.19
Mof_C 	C 	0.6895	0.9693	0.99558	-0.225
Mof_H 	H 	0.6809	0.0475	0.99	0.128
Mof_C 	C 	0.3015	0.5166	0.07429	0.112
Mof_H 	H 	0.2514	0.4656	0.0552	-0.004
Mof_C 	C 	0.6091	0.9053	0.00619	0.173
Mof_C 	C 	0.4507	0.6683	0.13096	-0.204
Mof_H 	H 	0.5014	0.7194	0.1495	0.111
Mof_C 	C 	0.3859	0.4769	0.11347	-0.201
Mof_H 	H 	0.3934	0.3991	0.1202	0.105
Mof_C 	C 	0.7157	0.7366	0.01221	0.166
Mof_H 	H 	0.7245	0.6584	0.0177	-0.015
Mof_C 	C 	0.8105	0.5763	0.33109	0.134
Mof_H 	H 	0.845	0.6303	0.355	0.012
Mof_C 	C 	0.9226	0.4275	0.38677	0.458
Mof_C 	C 	0.4594	0.5535	0.1428	0.176
Mof_C 	C 	0.7302	0.6113	0.28903	-0.208
Mof_H 	H 	0.7114	0.6879	0.2846	0.115
Mof_C 	C 	0.366	0.7075	0.0912	0.111
Mof_H 	H 	0.3599	0.7849	0.0835	0.001
Mof_C 	C 	0.6222	0.788	0.01563	-0.236
Mof_H 	H 	0.5689	0.7455	0.0241	0.113
Mof_C 	C 	0.6782	0.5313	0.25363	0.187
Mof_C 	C 	0.79	0.385	0.30229	0.125
Mof_H 	H 	0.8113	0.309	0.3062	-0.002
Mof_C 	C 	0.707	0.4175	0.25995	-0.206
Mof_H 	H 	0.6716	0.3633	0.2363	0.11
Mof_Mg	Mg	0.07022	0.75169	0.94369	1.449
Mof_N 	N 	0.5413	0.5033	0.18378	-0.102
Mof_N 	N 	0.5955	0.5779	0.21184	-0.101
Mof_N 	N 	0.5086	0.9506	0.00893	-0.118
Mof_O 	O 	0.20192	0.77943	0.00807	-0.524
Mof_O 	O 	0.12721	0.61068	0.99669	-0.632
Mof_O 	O 	0.95043	0.50186	0.42166	-0.462
Mof_O 	O 	0.9566	0.3275	0.38916	-0.541
Mof_O 	O 	0.90254	0.63623	0.00238	-0.505
Mof_O 	O 	0.96283	0.80197	0.9817	-0.501
Mof_C 	C 	0.1048	0.7404	0.50529	0.487
Mof_C 	C 	0.7983	0.6761	0.47913	0.385
Mof_C 	C 	0.2045	0.7981	0.49903	-0.243
Mof_C 	C 	0.7087	0.6322	0.43669	-0.172
Mof_C 	C 	0.217	0.9161	0.50674	0.149
Mof_H 	H 	0.1619	0.9588	0.5134	-0.038
Mof_C 	C 	0.1593	0.4642	0.16154	-0.237
Mof_C 	C 	0.3105	0.9693	0.50442	-0.258
Mof_H 	H 	0.3191	0.0475	0.51	0.127
Mof_C 	C 	0.6985	0.5166	0.42571	0.105
Mof_H 	H 	0.7486	0.4656	0.4448	0.006
Mof_C 	C 	0.3909	0.9053	0.49381	0.195
Mof_C 	C 	0.5493	0.6683	0.36904	-0.195
Mof_H 	H 	0.4986	0.7194	0.3505	0.103
Mof_C 	C 	0.6141	0.4769	0.38653	-0.193
Mof_H 	H 	0.6066	0.3991	0.3798	0.102
Mof_C 	C 	0.2843	0.7366	0.48779	0.159
Mof_H 	H 	0.2755	0.6584	0.4823	-0.02
Mof_C 	C 	0.1895	0.5763	0.16891	0.153
Mof_H 	H 	0.155	0.6303	0.145	-0.023
Mof_C 	C 	0.0774	0.4275	0.11323	0.476
Mof_C 	C 	0.5406	0.5535	0.3572	0.167
Mof_C 	C 	0.2698	0.6113	0.21097	-0.238
Mof_H 	H 	0.2886	0.6879	0.2154	0.11
Mof_C 	C 	0.634	0.7075	0.4088	0.104
Mof_H 	H 	0.6401	0.7849	0.4165	0.008
Mof_C 	C 	0.3778	0.788	0.48437	-0.244
Mof_H 	H 	0.4311	0.7455	0.4759	0.117
Mof_C 	C 	0.3218	0.5313	0.24637	0.191
Mof_C 	C 	0.21	0.385	0.19771	0.142
Mof_H 	H 	0.1887	0.309	0.1938	-0.03
Mof_C 	C 	0.293	0.4175	0.24005	-0.234
Mof_H 	H 	0.3284	0.3633	0.2637	0.108
Mof_Mg	Mg	0.92978	0.75169	0.55631	1.468
Mof_N 	N 	0.4587	0.5033	0.31622	-0.104
Mof_N 	N 	0.4045	0.5779	0.28816	-0.108
Mof_N 	N 	0.4914	0.9506	0.49107	-0.111
Mof_O 	O 	0.79808	0.77943	0.49193	-0.471
Mof_O 	O 	0.87279	0.61068	0.50331	-0.569
Mof_O 	O 	0.04957	0.50186	0.07834	-0.55
Mof_O 	O 	0.0434	0.3275	0.11084	-0.622
Mof_O 	O 	0.09746	0.63623	0.49762	-0.547
Mof_O 	O 	0.03717	0.80197	0.5183	-0.594
Mof_Mg	Mg	3.18221e-33	0.5	-0	1.468
Mof_Mg	Mg	4.97132e-33	0.5	0.5	1.47
_end
