# CIF file generated by openbabel 3.1.0, see https://openbabel.org
data_I
_chemical_name_common 'image0'
_cell_length_a 14.2256
_cell_length_b 14.4645
_cell_length_c 30.4429
_cell_angle_alpha 90
_cell_angle_beta 96.104
_cell_angle_gamma 90
_space_group_name_H-M_alt 'P 1'
_space_group_name_Hall 'P 1'
loop_
    _symmetry_equiv_pos_as_xyz
    x,y,z
loop_
    _atom_site_label
    _atom_site_type_symbol
    _atom_site_fract_x
    _atom_site_fract_y
    _atom_site_fract_z
    _atom_site_occupancy
    Fe1      Fe       0.69945    0.51999    0.45031    1.000
    Au1      Au       0.45018    0.76886    0.45599    1.000
    Au2      Au       0.95604    0.76354    0.44735    1.000
    C1       C        0.85890    0.66570    0.45040    1.000
    C2       C        0.54900    0.67470    0.44880    1.000
    C3       C        0.54770    0.36550    0.44410    1.000
    C4       C        0.85030    0.36410    0.45870    1.000
    N1       N        0.79980    0.61160    0.45203    1.000
    N2       N        0.60530    0.61800    0.44623    1.000
    N3       N        0.60120    0.42610    0.44576    1.000
    N4       N        0.79360    0.42100    0.45664    1.000
    N5       N        0.69800    0.51560    0.38451    1.000
    C5       C        0.77890    0.51170    0.36590    1.000
    H1       H        0.83680    0.51520    0.38450    1.000
    C6       C        0.78240    0.50270    0.32100    1.000
    H2       H        0.84160    0.49930    0.30930    1.000
    C7       C        0.69860    0.49860    0.29300    1.000
    C8       C        0.61470    0.50570    0.31190    1.000
    H3       H        0.55600    0.50470    0.29390    1.000
    C9       C        0.61670    0.51440    0.35730    1.000
    H4       H        0.55850    0.51970    0.36980    1.000
    C10      C        0.70130    0.48530    0.24470    1.000
    C11      C        0.77390    0.43470    0.22840    1.000
    H5       H        0.82310    0.40770    0.24770    1.000
    N6       N        0.63020    0.51610    0.17420    1.000
    N7       N        0.63070    0.52220    0.21830    1.000
    C12      C        0.77150    0.42550    0.18380    1.000
    H6       H        0.81830    0.39060    0.17120    1.000
    C13      C        0.69880    0.46850    0.15740    1.000
    C14      C        0.69620    0.46880    0.10850    1.000
    C15      C        0.66710    0.54680    0.08440    1.000
    H7       H        0.64450    0.59930    0.09880    1.000
    C16      C        0.67110    0.54790    0.03930    1.000
    H8       H        0.65340    0.60300    0.02360    1.000
    C17      C        0.72330    0.39890    0.03980    1.000
    H9       H        0.74080    0.34550    0.02440    1.000
    C18      C        0.72470    0.39370    0.08540    1.000
    H10      H        0.74510    0.33870    0.10060    1.000
    N8       N        0.69860    0.47510    0.01636    1.000
    Fe2      Fe       0.19945    0.01999    0.45031    1.000
    Au3      Au       0.95018    0.26886    0.45599    1.000
    Au4      Au       0.45604    0.26354    0.44735    1.000
    C19      C        0.35890    0.16570    0.45040    1.000
    C20      C        0.04900    0.17470    0.44880    1.000
    C21      C        0.04770    0.86550    0.44410    1.000
    C22      C        0.35030    0.86410    0.45870    1.000
    N9       N        0.29980    0.11160    0.45203    1.000
    N10      N        0.10530    0.11800    0.44623    1.000
    N11      N        0.10120    0.92610    0.44576    1.000
    N12      N        0.29360    0.92100    0.45664    1.000
    N13      N        0.19800    0.01560    0.38451    1.000
    C23      C        0.27890    0.01170    0.36590    1.000
    H11      H        0.33680    0.01520    0.38450    1.000
    C24      C        0.28240    0.00270    0.32100    1.000
    H12      H        0.34160    0.99930    0.30930    1.000
    C25      C        0.19860    0.99860    0.29300    1.000
    C26      C        0.11470    0.00570    0.31190    1.000
    H13      H        0.05600    0.00470    0.29390    1.000
    C27      C        0.11670    0.01440    0.35730    1.000
    H14      H        0.05850    0.01970    0.36980    1.000
    C28      C        0.20130    0.98530    0.24470    1.000
    C29      C        0.27390    0.93470    0.22840    1.000
    H15      H        0.32310    0.90770    0.24770    1.000
    N14      N        0.13020    0.01610    0.17420    1.000
    N15      N        0.13070    0.02220    0.21830    1.000
    C30      C        0.27150    0.92550    0.18380    1.000
    H16      H        0.31830    0.89060    0.17120    1.000
    C31      C        0.19880    0.96850    0.15740    1.000
    C32      C        0.19620    0.96880    0.10850    1.000
    C33      C        0.16710    0.04680    0.08440    1.000
    H17      H        0.14450    0.09930    0.09880    1.000
    C34      C        0.17110    0.04790    0.03930    1.000
    H18      H        0.15340    0.10300    0.02360    1.000
    C35      C        0.22330    0.89890    0.03980    1.000
    H19      H        0.24080    0.84550    0.02440    1.000
    C36      C        0.22470    0.89370    0.08540    1.000
    H20      H        0.24510    0.83870    0.10060    1.000
    N16      N        0.19860    0.97510    0.01636    1.000
    Fe3      Fe       0.69945    0.48001    0.95031    1.000
    Au5      Au       0.45018    0.23114    0.95599    1.000
    Au6      Au       0.95604    0.23646    0.94735    1.000
    C37      C        0.85890    0.33430    0.95040    1.000
    C38      C        0.54900    0.32530    0.94880    1.000
    C39      C        0.54770    0.63450    0.94410    1.000
    C40      C        0.85030    0.63590    0.95870    1.000
    N17      N        0.79980    0.38840    0.95203    1.000
    N18      N        0.60530    0.38200    0.94623    1.000
    N19      N        0.60120    0.57390    0.94576    1.000
    N20      N        0.79360    0.57900    0.95664    1.000
    N21      N        0.69800    0.48440    0.88451    1.000
    C41      C        0.77890    0.48830    0.86590    1.000
    H21      H        0.83680    0.48480    0.88450    1.000
    C42      C        0.78240    0.49730    0.82100    1.000
    H22      H        0.84160    0.50070    0.80930    1.000
    C43      C        0.69860    0.50140    0.79300    1.000
    C44      C        0.61470    0.49430    0.81190    1.000
    H23      H        0.55600    0.49530    0.79390    1.000
    C45      C        0.61670    0.48560    0.85730    1.000
    H24      H        0.55850    0.48030    0.86980    1.000
    C46      C        0.70130    0.51470    0.74470    1.000
    C47      C        0.77390    0.56530    0.72840    1.000
    H25      H        0.82310    0.59230    0.74770    1.000
    N22      N        0.63020    0.48390    0.67420    1.000
    N23      N        0.63070    0.47780    0.71830    1.000
    C48      C        0.77150    0.57450    0.68380    1.000
    H26      H        0.81830    0.60940    0.67120    1.000
    C49      C        0.69880    0.53150    0.65740    1.000
    C50      C        0.69620    0.53120    0.60850    1.000
    C51      C        0.66710    0.45320    0.58440    1.000
    H27      H        0.64450    0.40070    0.59880    1.000
    C52      C        0.67110    0.45210    0.53930    1.000
    H28      H        0.65340    0.39700    0.52360    1.000
    C53      C        0.72330    0.60110    0.53980    1.000
    H29      H        0.74080    0.65450    0.52440    1.000
    C54      C        0.72470    0.60630    0.58540    1.000
    H30      H        0.74510    0.66130    0.60060    1.000
    N24      N        0.69860    0.52490    0.51636    1.000
    Fe4      Fe       0.19945    0.98001    0.95031    1.000
    Au7      Au       0.95018    0.73114    0.95599    1.000
    Au8      Au       0.45604    0.73646    0.94735    1.000
    C55      C        0.35890    0.83430    0.95040    1.000
    C56      C        0.04900    0.82530    0.94880    1.000
    C57      C        0.04770    0.13450    0.94410    1.000
    C58      C        0.35030    0.13590    0.95870    1.000
    N25      N        0.29980    0.88840    0.95203    1.000
    N26      N        0.10530    0.88200    0.94623    1.000
    N27      N        0.10120    0.07390    0.94576    1.000
    N28      N        0.29360    0.07900    0.95664    1.000
    N29      N        0.19800    0.98440    0.88451    1.000
    C59      C        0.27890    0.98830    0.86590    1.000
    H31      H        0.33680    0.98480    0.88450    1.000
    C60      C        0.28240    0.99730    0.82100    1.000
    H32      H        0.34160    0.00070    0.80930    1.000
    C61      C        0.19860    0.00140    0.79300    1.000
    C62      C        0.11470    0.99430    0.81190    1.000
    H33      H        0.05600    0.99530    0.79390    1.000
    C63      C        0.11670    0.98560    0.85730    1.000
    H34      H        0.05850    0.98030    0.86980    1.000
    C64      C        0.20130    0.01470    0.74470    1.000
    C65      C        0.27390    0.06530    0.72840    1.000
    H35      H        0.32310    0.09230    0.74770    1.000
    N30      N        0.13020    0.98390    0.67420    1.000
    N31      N        0.13070    0.97780    0.71830    1.000
    C66      C        0.27150    0.07450    0.68380    1.000
    H36      H        0.31830    0.10940    0.67120    1.000
    C67      C        0.19880    0.03150    0.65740    1.000
    C68      C        0.19620    0.03120    0.60850    1.000
    C69      C        0.16710    0.95320    0.58440    1.000
    H37      H        0.14450    0.90070    0.59880    1.000
    C70      C        0.17110    0.95210    0.53930    1.000
    H38      H        0.15340    0.89700    0.52360    1.000
    C71      C        0.22330    0.10110    0.53980    1.000
    H39      H        0.24080    0.15450    0.52440    1.000
    C72      C        0.22470    0.10630    0.58540    1.000
    H40      H        0.24510    0.16130    0.60060    1.000
    N32      N        0.19860    0.02490    0.51636    1.000
    Fe5      Fe       0.30055    0.51999    0.04969    1.000
    Au9      Au       0.54982    0.76886    0.04401    1.000
    Au10     Au       0.04396    0.76354    0.05265    1.000
    C73      C        0.14110    0.66570    0.04960    1.000
    C74      C        0.45100    0.67470    0.05120    1.000
    C75      C        0.45230    0.36550    0.05590    1.000
    C76      C        0.14970    0.36410    0.04130    1.000
    N33      N        0.20020    0.61160    0.04797    1.000
    N34      N        0.39470    0.61800    0.05377    1.000
    N35      N        0.39880    0.42610    0.05424    1.000
    N36      N        0.20640    0.42100    0.04336    1.000
    N37      N        0.30200    0.51560    0.11549    1.000
    C77      C        0.22110    0.51170    0.13410    1.000
    H41      H        0.16320    0.51520    0.11550    1.000
    C78      C        0.21760    0.50270    0.17900    1.000
    H42      H        0.15840    0.49930    0.19070    1.000
    C79      C        0.30140    0.49860    0.20700    1.000
    C80      C        0.38530    0.50570    0.18810    1.000
    H43      H        0.44400    0.50470    0.20610    1.000
    C81      C        0.38330    0.51440    0.14270    1.000
    H44      H        0.44150    0.51970    0.13020    1.000
    C82      C        0.29870    0.48530    0.25530    1.000
    C83      C        0.22610    0.43470    0.27160    1.000
    H45      H        0.17690    0.40770    0.25230    1.000
    N38      N        0.36980    0.51610    0.32580    1.000
    N39      N        0.36930    0.52220    0.28170    1.000
    C84      C        0.22850    0.42550    0.31620    1.000
    H46      H        0.18170    0.39060    0.32880    1.000
    C85      C        0.30120    0.46850    0.34260    1.000
    C86      C        0.30380    0.46880    0.39150    1.000
    C87      C        0.33290    0.54680    0.41560    1.000
    H47      H        0.35550    0.59930    0.40120    1.000
    C88      C        0.32890    0.54790    0.46070    1.000
    H48      H        0.34660    0.60300    0.47640    1.000
    C89      C        0.27670    0.39890    0.46020    1.000
    H49      H        0.25920    0.34550    0.47560    1.000
    C90      C        0.27530    0.39370    0.41460    1.000
    H50      H        0.25490    0.33870    0.39940    1.000
    N40      N        0.30140    0.47510    0.48364    1.000
    Fe6      Fe       0.80055    0.01999    0.04969    1.000
    Au11     Au       0.04982    0.26886    0.04401    1.000
    Au12     Au       0.54396    0.26354    0.05265    1.000
    C91      C        0.64110    0.16570    0.04960    1.000
    C92      C        0.95100    0.17470    0.05120    1.000
    C93      C        0.95230    0.86550    0.05590    1.000
    C94      C        0.64970    0.86410    0.04130    1.000
    N41      N        0.70020    0.11160    0.04797    1.000
    N42      N        0.89470    0.11800    0.05377    1.000
    N43      N        0.89880    0.92610    0.05424    1.000
    N44      N        0.70640    0.92100    0.04336    1.000
    N45      N        0.80200    0.01560    0.11549    1.000
    C95      C        0.72110    0.01170    0.13410    1.000
    H51      H        0.66320    0.01520    0.11550    1.000
    C96      C        0.71760    0.00270    0.17900    1.000
    H52      H        0.65840    0.99930    0.19070    1.000
    C97      C        0.80140    0.99860    0.20700    1.000
    C98      C        0.88530    0.00570    0.18810    1.000
    H53      H        0.94400    0.00470    0.20610    1.000
    C99      C        0.88330    0.01440    0.14270    1.000
    H54      H        0.94150    0.01970    0.13020    1.000
    C100     C        0.79870    0.98530    0.25530    1.000
    C101     C        0.72610    0.93470    0.27160    1.000
    H55      H        0.67690    0.90770    0.25230    1.000
    N46      N        0.86980    0.01610    0.32580    1.000
    N47      N        0.86930    0.02220    0.28170    1.000
    C102     C        0.72850    0.92550    0.31620    1.000
    H56      H        0.68170    0.89060    0.32880    1.000
    C103     C        0.80120    0.96850    0.34260    1.000
    C104     C        0.80380    0.96880    0.39150    1.000
    C105     C        0.83290    0.04680    0.41560    1.000
    H57      H        0.85550    0.09930    0.40120    1.000
    C106     C        0.82890    0.04790    0.46070    1.000
    H58      H        0.84660    0.10300    0.47640    1.000
    C107     C        0.77670    0.89890    0.46020    1.000
    H59      H        0.75920    0.84550    0.47560    1.000
    C108     C        0.77530    0.89370    0.41460    1.000
    H60      H        0.75490    0.83870    0.39940    1.000
    N48      N        0.80140    0.97510    0.48364    1.000
    Fe7      Fe       0.30055    0.48001    0.54969    1.000
    Au13     Au       0.54982    0.23114    0.54401    1.000
    Au14     Au       0.04396    0.23646    0.55265    1.000
    C109     C        0.14110    0.33430    0.54960    1.000
    C110     C        0.45100    0.32530    0.55120    1.000
    C111     C        0.45230    0.63450    0.55590    1.000
    C112     C        0.14970    0.63590    0.54130    1.000
    N49      N        0.20020    0.38840    0.54797    1.000
    N50      N        0.39470    0.38200    0.55377    1.000
    N51      N        0.39880    0.57390    0.55424    1.000
    N52      N        0.20640    0.57900    0.54336    1.000
    N53      N        0.30200    0.48440    0.61549    1.000
    C113     C        0.22110    0.48830    0.63410    1.000
    H61      H        0.16320    0.48480    0.61550    1.000
    C114     C        0.21760    0.49730    0.67900    1.000
    H62      H        0.15840    0.50070    0.69070    1.000
    C115     C        0.30140    0.50140    0.70700    1.000
    C116     C        0.38530    0.49430    0.68810    1.000
    H63      H        0.44400    0.49530    0.70610    1.000
    C117     C        0.38330    0.48560    0.64270    1.000
    H64      H        0.44150    0.48030    0.63020    1.000
    C118     C        0.29870    0.51470    0.75530    1.000
    C119     C        0.22610    0.56530    0.77160    1.000
    H65      H        0.17690    0.59230    0.75230    1.000
    N54      N        0.36980    0.48390    0.82580    1.000
    N55      N        0.36930    0.47780    0.78170    1.000
    C120     C        0.22850    0.57450    0.81620    1.000
    H66      H        0.18170    0.60940    0.82880    1.000
    C121     C        0.30120    0.53150    0.84260    1.000
    C122     C        0.30380    0.53120    0.89150    1.000
    C123     C        0.33290    0.45320    0.91560    1.000
    H67      H        0.35550    0.40070    0.90120    1.000
    C124     C        0.32890    0.45210    0.96070    1.000
    H68      H        0.34660    0.39700    0.97640    1.000
    C125     C        0.27670    0.60110    0.96020    1.000
    H69      H        0.25920    0.65450    0.97560    1.000
    C126     C        0.27530    0.60630    0.91460    1.000
    H70      H        0.25490    0.66130    0.89940    1.000
    N56      N        0.30140    0.52490    0.98364    1.000
    Fe8      Fe       0.80055    0.98001    0.54969    1.000
    Au15     Au       0.04982    0.73114    0.54401    1.000
    Au16     Au       0.54396    0.73646    0.55265    1.000
    C127     C        0.64110    0.83430    0.54960    1.000
    C128     C        0.95100    0.82530    0.55120    1.000
    C129     C        0.95230    0.13450    0.55590    1.000
    C130     C        0.64970    0.13590    0.54130    1.000
    N57      N        0.70020    0.88840    0.54797    1.000
    N58      N        0.89470    0.88200    0.55377    1.000
    N59      N        0.89880    0.07390    0.55424    1.000
    N60      N        0.70640    0.07900    0.54336    1.000
    N61      N        0.80200    0.98440    0.61549    1.000
    C131     C        0.72110    0.98830    0.63410    1.000
    H71      H        0.66320    0.98480    0.61550    1.000
    C132     C        0.71760    0.99730    0.67900    1.000
    H72      H        0.65840    0.00070    0.69070    1.000
    C133     C        0.80140    0.00140    0.70700    1.000
    C134     C        0.88530    0.99430    0.68810    1.000
    H73      H        0.94400    0.99530    0.70610    1.000
    C135     C        0.88330    0.98560    0.64270    1.000
    H74      H        0.94150    0.98030    0.63020    1.000
    C136     C        0.79870    0.01470    0.75530    1.000
    C137     C        0.72610    0.06530    0.77160    1.000
    H75      H        0.67690    0.09230    0.75230    1.000
    N62      N        0.86980    0.98390    0.82580    1.000
    N63      N        0.86930    0.97780    0.78170    1.000
    C138     C        0.72850    0.07450    0.81620    1.000
    H76      H        0.68170    0.10940    0.82880    1.000
    C139     C        0.80120    0.03150    0.84260    1.000
    C140     C        0.80380    0.03120    0.89150    1.000
    C141     C        0.83290    0.95320    0.91560    1.000
    H77      H        0.85550    0.90070    0.90120    1.000
    C142     C        0.82890    0.95210    0.96070    1.000
    H78      H        0.84660    0.89700    0.97640    1.000
    C143     C        0.77670    0.10110    0.96020    1.000
    H79      H        0.75920    0.15450    0.97560    1.000
    C144     C        0.77530    0.10630    0.91460    1.000
    H80      H        0.75490    0.16130    0.89940    1.000
    N64      N        0.80140    0.02490    0.98364    1.000
