# CIF file generated by openbabel 3.1.0, see https://openbabel.org
data_I
_chemical_name_common 'image0'
_cell_length_a 26.297
_cell_length_b 26.297
_cell_length_c 4.9766
_cell_angle_alpha 90
_cell_angle_beta 90
_cell_angle_gamma 90
_space_group_name_H-M_alt 'P 1'
_space_group_name_Hall 'P 1'
loop_
    _symmetry_equiv_pos_as_xyz
    x,y,z
loop_
    _atom_site_label
    _atom_site_type_symbol
    _atom_site_fract_x
    _atom_site_fract_y
    _atom_site_fract_z
    _atom_site_occupancy
    Zn1      Zn       0.27160    0.21545    0.88240    1.000
    O1       O        0.22430    0.26760    0.01700    1.000
    N1       N        0.24520    0.14620    0.92500    1.000
    O2       O        0.33760    0.22860    0.06500    1.000
    H1       H        0.20360    0.27860    0.90490    1.000
    C1       C        0.25940    0.10840    0.07700    1.000
    C2       C        0.20690    0.12360    0.76480    1.000
    H2       H        0.28470    0.11260    0.20550    1.000
    N2       N        0.23610    0.06270    0.04330    1.000
    C3       C        0.17760    0.14520    0.56500    1.000
    C4       C        0.20050    0.07340    0.84500    1.000
    C5       C        0.25040    0.01560    0.16800    1.000
    H3       H        0.18150    0.17920    0.51830    1.000
    C6       C        0.14200    0.11490    0.43450    1.000
    C7       C        0.16650    0.04240    0.71180    1.000
    C8       C        0.27320    0.01410    0.41800    1.000
    C9       C        0.24110    0.97040    0.03500    1.000
    C10      C        0.11200    0.13490    0.23200    1.000
    C11      C        0.13690    0.06400    0.51030    1.000
    H4       H        0.16340    0.00810    0.75520    1.000
    H5       H        0.27960    0.04440    0.50800    1.000
    C12      C        0.28680    0.96880    0.53600    1.000
    C13      C        0.25400    0.92420    0.14600    1.000
    H6       H        0.22570    0.97120    0.86670    1.000
    H7       H        0.11610    0.16890    0.18630    1.000
    C14      C        0.07620    0.10630    0.09600    1.000
    C15      C        0.10080    0.03500    0.37400    1.000
    C16      C        0.27680    0.92490    0.39400    1.000
    H8       H        0.30210    0.96780    0.70460    1.000
    H9       H        0.24750    0.89390    0.05700    1.000
    H10      H        0.05630    0.12030    0.96030    1.000
    C17      C        0.07110    0.05570    0.17180    1.000
    H11      H        0.09640    0.00100    0.42040    1.000
    C18      C        0.29200    0.87470    0.52700    1.000
    H12      H        0.04740    0.03540    0.08480    1.000
    O3       O        0.29960    0.87750    0.77900    1.000
    O4       O        0.34180    0.87410    0.53800    1.000
    C19      C        0.29940    0.00860    0.25500    1.000
    H13      H        0.32300    0.03470    0.23570    1.000
    C20      C        0.31430    0.96260    0.37100    1.000
    H14      H        0.34740    0.95720    0.43040    1.000
    C21      C        0.22620    0.92890    0.30900    1.000
    H15      H        0.20240    0.90290    0.32600    1.000
    C22      C        0.21550    0.97640    0.19700    1.000
    H16      H        0.18250    0.98220    0.13750    1.000
    Zn2      Zn       0.77160    0.71545    0.38240    1.000
    O5       O        0.72430    0.76760    0.51700    1.000
    N3       N        0.74520    0.64620    0.42500    1.000
    O6       O        0.83760    0.72860    0.56500    1.000
    H17      H        0.70360    0.77860    0.40490    1.000
    C23      C        0.75940    0.60840    0.57700    1.000
    C24      C        0.70690    0.62360    0.26480    1.000
    H18      H        0.78470    0.61260    0.70550    1.000
    N4       N        0.73610    0.56270    0.54330    1.000
    C25      C        0.67760    0.64520    0.06500    1.000
    C26      C        0.70050    0.57340    0.34500    1.000
    C27      C        0.75040    0.51560    0.66800    1.000
    H19      H        0.68150    0.67920    0.01830    1.000
    C28      C        0.64200    0.61490    0.93450    1.000
    C29      C        0.66650    0.54240    0.21180    1.000
    C30      C        0.77320    0.51410    0.91800    1.000
    C31      C        0.74110    0.47040    0.53500    1.000
    C32      C        0.61200    0.63490    0.73200    1.000
    C33      C        0.63690    0.56400    0.01030    1.000
    H20      H        0.66340    0.50810    0.25520    1.000
    H21      H        0.77960    0.54440    0.00800    1.000
    C34      C        0.78680    0.46880    0.03600    1.000
    C35      C        0.75400    0.42420    0.64600    1.000
    H22      H        0.72570    0.47120    0.36670    1.000
    H23      H        0.61610    0.66890    0.68630    1.000
    C36      C        0.57620    0.60630    0.59600    1.000
    C37      C        0.60080    0.53500    0.87400    1.000
    C38      C        0.77680    0.42490    0.89400    1.000
    H24      H        0.80210    0.46780    0.20460    1.000
    H25      H        0.74750    0.39390    0.55700    1.000
    H26      H        0.55630    0.62030    0.46030    1.000
    C39      C        0.57110    0.55570    0.67180    1.000
    H27      H        0.59640    0.50100    0.92040    1.000
    C40      C        0.79200    0.37470    0.02700    1.000
    H28      H        0.54740    0.53540    0.58480    1.000
    O7       O        0.79960    0.37750    0.27900    1.000
    O8       O        0.84180    0.37410    0.03800    1.000
    C41      C        0.79940    0.50860    0.75500    1.000
    H29      H        0.82300    0.53470    0.73570    1.000
    C42      C        0.81430    0.46260    0.87100    1.000
    H30      H        0.84740    0.45720    0.93040    1.000
    C43      C        0.72620    0.42890    0.80900    1.000
    H31      H        0.70240    0.40290    0.82600    1.000
    C44      C        0.71550    0.47640    0.69700    1.000
    H32      H        0.68250    0.48220    0.63750    1.000
    Zn3      Zn       0.72840    0.78455    0.88240    1.000
    O9       O        0.77570    0.73240    0.01700    1.000
    N5       N        0.75480    0.85380    0.92500    1.000
    O10      O        0.66240    0.77140    0.06500    1.000
    H33      H        0.79640    0.72140    0.90490    1.000
    C45      C        0.74060    0.89160    0.07700    1.000
    C46      C        0.79310    0.87640    0.76480    1.000
    H34      H        0.71530    0.88740    0.20550    1.000
    N6       N        0.76390    0.93730    0.04330    1.000
    C47      C        0.82240    0.85480    0.56500    1.000
    C48      C        0.79950    0.92660    0.84500    1.000
    C49      C        0.74960    0.98440    0.16800    1.000
    H35      H        0.81850    0.82080    0.51830    1.000
    C50      C        0.85800    0.88510    0.43450    1.000
    C51      C        0.83350    0.95760    0.71180    1.000
    C52      C        0.72680    0.98590    0.41800    1.000
    C53      C        0.75890    0.02960    0.03500    1.000
    C54      C        0.88800    0.86510    0.23200    1.000
    C55      C        0.86310    0.93600    0.51030    1.000
    H36      H        0.83660    0.99190    0.75520    1.000
    H37      H        0.72040    0.95560    0.50800    1.000
    C56      C        0.71320    0.03120    0.53600    1.000
    C57      C        0.74600    0.07580    0.14600    1.000
    H38      H        0.77430    0.02880    0.86670    1.000
    H39      H        0.88390    0.83110    0.18630    1.000
    C58      C        0.92380    0.89370    0.09600    1.000
    C59      C        0.89920    0.96500    0.37400    1.000
    C60      C        0.72320    0.07510    0.39400    1.000
    H40      H        0.69790    0.03220    0.70460    1.000
    H41      H        0.75250    0.10610    0.05700    1.000
    H42      H        0.94370    0.87970    0.96030    1.000
    C61      C        0.92890    0.94430    0.17180    1.000
    H43      H        0.90360    0.99900    0.42040    1.000
    C62      C        0.70800    0.12530    0.52700    1.000
    H44      H        0.95260    0.96460    0.08480    1.000
    O11      O        0.70040    0.12250    0.77900    1.000
    O12      O        0.65820    0.12590    0.53800    1.000
    C63      C        0.70060    0.99140    0.25500    1.000
    H45      H        0.67700    0.96530    0.23570    1.000
    C64      C        0.68570    0.03740    0.37100    1.000
    H46      H        0.65260    0.04280    0.43040    1.000
    C65      C        0.77380    0.07110    0.30900    1.000
    H47      H        0.79760    0.09710    0.32600    1.000
    C66      C        0.78450    0.02360    0.19700    1.000
    H48      H        0.81750    0.01780    0.13750    1.000
    Zn4      Zn       0.22840    0.28455    0.38240    1.000
    O13      O        0.27570    0.23240    0.51700    1.000
    N7       N        0.25480    0.35380    0.42500    1.000
    O14      O        0.16240    0.27140    0.56500    1.000
    H49      H        0.29640    0.22140    0.40490    1.000
    C67      C        0.24060    0.39160    0.57700    1.000
    C68      C        0.29310    0.37640    0.26480    1.000
    H50      H        0.21530    0.38740    0.70550    1.000
    N8       N        0.26390    0.43730    0.54330    1.000
    C69      C        0.32240    0.35480    0.06500    1.000
    C70      C        0.29950    0.42660    0.34500    1.000
    C71      C        0.24960    0.48440    0.66800    1.000
    H51      H        0.31850    0.32080    0.01830    1.000
    C72      C        0.35800    0.38510    0.93450    1.000
    C73      C        0.33350    0.45760    0.21180    1.000
    C74      C        0.22680    0.48590    0.91800    1.000
    C75      C        0.25890    0.52960    0.53500    1.000
    C76      C        0.38800    0.36510    0.73200    1.000
    C77      C        0.36310    0.43600    0.01030    1.000
    H52      H        0.33660    0.49190    0.25520    1.000
    H53      H        0.22040    0.45560    0.00800    1.000
    C78      C        0.21320    0.53120    0.03600    1.000
    C79      C        0.24600    0.57580    0.64600    1.000
    H54      H        0.27430    0.52880    0.36670    1.000
    H55      H        0.38390    0.33110    0.68630    1.000
    C80      C        0.42380    0.39370    0.59600    1.000
    C81      C        0.39920    0.46500    0.87400    1.000
    C82      C        0.22320    0.57510    0.89400    1.000
    H56      H        0.19790    0.53220    0.20460    1.000
    H57      H        0.25250    0.60610    0.55700    1.000
    H58      H        0.44370    0.37970    0.46030    1.000
    C83      C        0.42890    0.44430    0.67180    1.000
    H59      H        0.40360    0.49900    0.92040    1.000
    C84      C        0.20800    0.62530    0.02700    1.000
    H60      H        0.45260    0.46460    0.58480    1.000
    O15      O        0.20040    0.62250    0.27900    1.000
    O16      O        0.15820    0.62590    0.03800    1.000
    C85      C        0.20060    0.49140    0.75500    1.000
    H61      H        0.17700    0.46530    0.73570    1.000
    C86      C        0.18570    0.53740    0.87100    1.000
    H62      H        0.15260    0.54280    0.93040    1.000
    C87      C        0.27380    0.57110    0.80900    1.000
    H63      H        0.29760    0.59710    0.82600    1.000
    C88      C        0.28450    0.52360    0.69700    1.000
    H64      H        0.31750    0.51780    0.63750    1.000
    Zn5      Zn       0.21545    0.72840    0.11760    1.000
    O17      O        0.26760    0.77570    0.98300    1.000
    N9       N        0.14620    0.75480    0.07500    1.000
    O18      O        0.22860    0.66240    0.93500    1.000
    H65      H        0.27860    0.79640    0.09510    1.000
    C89      C        0.10840    0.74060    0.92300    1.000
    C90      C        0.12360    0.79310    0.23520    1.000
    H66      H        0.11260    0.71530    0.79450    1.000
    N10      N        0.06270    0.76390    0.95670    1.000
    C91      C        0.14520    0.82240    0.43500    1.000
    C92      C        0.07340    0.79950    0.15500    1.000
    C93      C        0.01560    0.74960    0.83200    1.000
    H67      H        0.17920    0.81850    0.48170    1.000
    C94      C        0.11490    0.85800    0.56550    1.000
    C95      C        0.04240    0.83350    0.28820    1.000
    C96      C        0.01410    0.72680    0.58200    1.000
    C97      C        0.97040    0.75890    0.96500    1.000
    C98      C        0.13490    0.88800    0.76800    1.000
    C99      C        0.06400    0.86310    0.48970    1.000
    H68      H        0.00810    0.83660    0.24480    1.000
    H69      H        0.04440    0.72040    0.49200    1.000
    C100     C        0.96880    0.71320    0.46400    1.000
    C101     C        0.92420    0.74600    0.85400    1.000
    H70      H        0.97120    0.77430    0.13330    1.000
    H71      H        0.16890    0.88390    0.81370    1.000
    C102     C        0.10630    0.92380    0.90400    1.000
    C103     C        0.03500    0.89920    0.62600    1.000
    C104     C        0.92490    0.72320    0.60600    1.000
    H72      H        0.96780    0.69790    0.29540    1.000
    H73      H        0.89390    0.75250    0.94300    1.000
    H74      H        0.12030    0.94370    0.03970    1.000
    C105     C        0.05570    0.92890    0.82820    1.000
    H75      H        0.00100    0.90360    0.57960    1.000
    C106     C        0.87470    0.70800    0.47300    1.000
    H76      H        0.03540    0.95260    0.91520    1.000
    O19      O        0.87750    0.70040    0.22100    1.000
    O20      O        0.87410    0.65820    0.46200    1.000
    C107     C        0.00860    0.70060    0.74500    1.000
    H77      H        0.03470    0.67700    0.76430    1.000
    C108     C        0.96260    0.68570    0.62900    1.000
    H78      H        0.95720    0.65260    0.56960    1.000
    C109     C        0.92890    0.77380    0.69100    1.000
    H79      H        0.90290    0.79760    0.67400    1.000
    C110     C        0.97640    0.78450    0.80300    1.000
    H80      H        0.98220    0.81750    0.86250    1.000
    Zn6      Zn       0.71545    0.22840    0.61760    1.000
    O21      O        0.76760    0.27570    0.48300    1.000
    N11      N        0.64620    0.25480    0.57500    1.000
    O22      O        0.72860    0.16240    0.43500    1.000
    H81      H        0.77860    0.29640    0.59510    1.000
    C111     C        0.60840    0.24060    0.42300    1.000
    C112     C        0.62360    0.29310    0.73520    1.000
    H82      H        0.61260    0.21530    0.29450    1.000
    N12      N        0.56270    0.26390    0.45670    1.000
    C113     C        0.64520    0.32240    0.93500    1.000
    C114     C        0.57340    0.29950    0.65500    1.000
    C115     C        0.51560    0.24960    0.33200    1.000
    H83      H        0.67920    0.31850    0.98170    1.000
    C116     C        0.61490    0.35800    0.06550    1.000
    C117     C        0.54240    0.33350    0.78820    1.000
    C118     C        0.51410    0.22680    0.08200    1.000
    C119     C        0.47040    0.25890    0.46500    1.000
    C120     C        0.63490    0.38800    0.26800    1.000
    C121     C        0.56400    0.36310    0.98970    1.000
    H84      H        0.50810    0.33660    0.74480    1.000
    H85      H        0.54440    0.22040    0.99200    1.000
    C122     C        0.46880    0.21320    0.96400    1.000
    C123     C        0.42420    0.24600    0.35400    1.000
    H86      H        0.47120    0.27430    0.63330    1.000
    H87      H        0.66890    0.38390    0.31370    1.000
    C124     C        0.60630    0.42380    0.40400    1.000
    C125     C        0.53500    0.39920    0.12600    1.000
    C126     C        0.42490    0.22320    0.10600    1.000
    H88      H        0.46780    0.19790    0.79540    1.000
    H89      H        0.39390    0.25250    0.44300    1.000
    H90      H        0.62030    0.44370    0.53970    1.000
    C127     C        0.55570    0.42890    0.32820    1.000
    H91      H        0.50100    0.40360    0.07960    1.000
    C128     C        0.37470    0.20800    0.97300    1.000
    H92      H        0.53540    0.45260    0.41520    1.000
    O23      O        0.37750    0.20040    0.72100    1.000
    O24      O        0.37410    0.15820    0.96200    1.000
    C129     C        0.50860    0.20060    0.24500    1.000
    H93      H        0.53470    0.17700    0.26430    1.000
    C130     C        0.46260    0.18570    0.12900    1.000
    H94      H        0.45720    0.15260    0.06960    1.000
    C131     C        0.42890    0.27380    0.19100    1.000
    H95      H        0.40290    0.29760    0.17400    1.000
    C132     C        0.47640    0.28450    0.30300    1.000
    H96      H        0.48220    0.31750    0.36250    1.000
    Zn7      Zn       0.78455    0.27160    0.11760    1.000
    O25      O        0.73240    0.22430    0.98300    1.000
    N13      N        0.85380    0.24520    0.07500    1.000
    O26      O        0.77140    0.33760    0.93500    1.000
    H97      H        0.72140    0.20360    0.09510    1.000
    C133     C        0.89160    0.25940    0.92300    1.000
    C134     C        0.87640    0.20690    0.23520    1.000
    H98      H        0.88740    0.28470    0.79450    1.000
    N14      N        0.93730    0.23610    0.95670    1.000
    C135     C        0.85480    0.17760    0.43500    1.000
    C136     C        0.92660    0.20050    0.15500    1.000
    C137     C        0.98440    0.25040    0.83200    1.000
    H99      H        0.82080    0.18150    0.48170    1.000
    C138     C        0.88510    0.14200    0.56550    1.000
    C139     C        0.95760    0.16650    0.28820    1.000
    C140     C        0.98590    0.27320    0.58200    1.000
    C141     C        0.02960    0.24110    0.96500    1.000
    C142     C        0.86510    0.11200    0.76800    1.000
    C143     C        0.93600    0.13690    0.48970    1.000
    H100     H        0.99190    0.16340    0.24480    1.000
    H101     H        0.95560    0.27960    0.49200    1.000
    C144     C        0.03120    0.28680    0.46400    1.000
    C145     C        0.07580    0.25400    0.85400    1.000
    H102     H        0.02880    0.22570    0.13330    1.000
    H103     H        0.83110    0.11610    0.81370    1.000
    C146     C        0.89370    0.07620    0.90400    1.000
    C147     C        0.96500    0.10080    0.62600    1.000
    C148     C        0.07510    0.27680    0.60600    1.000
    H104     H        0.03220    0.30210    0.29540    1.000
    H105     H        0.10610    0.24750    0.94300    1.000
    H106     H        0.87970    0.05630    0.03970    1.000
    C149     C        0.94430    0.07110    0.82820    1.000
    H107     H        0.99900    0.09640    0.57960    1.000
    C150     C        0.12530    0.29200    0.47300    1.000
    H108     H        0.96460    0.04740    0.91520    1.000
    O27      O        0.12250    0.29960    0.22100    1.000
    O28      O        0.12590    0.34180    0.46200    1.000
    C151     C        0.99140    0.29940    0.74500    1.000
    H109     H        0.96530    0.32300    0.76430    1.000
    C152     C        0.03740    0.31430    0.62900    1.000
    H110     H        0.04280    0.34740    0.56960    1.000
    C153     C        0.07110    0.22620    0.69100    1.000
    H111     H        0.09710    0.20240    0.67400    1.000
    C154     C        0.02360    0.21550    0.80300    1.000
    H112     H        0.01780    0.18250    0.86250    1.000
    Zn8      Zn       0.28455    0.77160    0.61760    1.000
    O29      O        0.23240    0.72430    0.48300    1.000
    N15      N        0.35380    0.74520    0.57500    1.000
    O30      O        0.27140    0.83760    0.43500    1.000
    H113     H        0.22140    0.70360    0.59510    1.000
    C155     C        0.39160    0.75940    0.42300    1.000
    C156     C        0.37640    0.70690    0.73520    1.000
    H114     H        0.38740    0.78470    0.29450    1.000
    N16      N        0.43730    0.73610    0.45670    1.000
    C157     C        0.35480    0.67760    0.93500    1.000
    C158     C        0.42660    0.70050    0.65500    1.000
    C159     C        0.48440    0.75040    0.33200    1.000
    H115     H        0.32080    0.68150    0.98170    1.000
    C160     C        0.38510    0.64200    0.06550    1.000
    C161     C        0.45760    0.66650    0.78820    1.000
    C162     C        0.48590    0.77320    0.08200    1.000
    C163     C        0.52960    0.74110    0.46500    1.000
    C164     C        0.36510    0.61200    0.26800    1.000
    C165     C        0.43600    0.63690    0.98970    1.000
    H116     H        0.49190    0.66340    0.74480    1.000
    H117     H        0.45560    0.77960    0.99200    1.000
    C166     C        0.53120    0.78680    0.96400    1.000
    C167     C        0.57580    0.75400    0.35400    1.000
    H118     H        0.52880    0.72570    0.63330    1.000
    H119     H        0.33110    0.61610    0.31370    1.000
    C168     C        0.39370    0.57620    0.40400    1.000
    C169     C        0.46500    0.60080    0.12600    1.000
    C170     C        0.57510    0.77680    0.10600    1.000
    H120     H        0.53220    0.80210    0.79540    1.000
    H121     H        0.60610    0.74750    0.44300    1.000
    H122     H        0.37970    0.55630    0.53970    1.000
    C171     C        0.44430    0.57110    0.32820    1.000
    H123     H        0.49900    0.59640    0.07960    1.000
    C172     C        0.62530    0.79200    0.97300    1.000
    H124     H        0.46460    0.54740    0.41520    1.000
    O31      O        0.62250    0.79960    0.72100    1.000
    O32      O        0.62590    0.84180    0.96200    1.000
    C173     C        0.49140    0.79940    0.24500    1.000
    H125     H        0.46530    0.82300    0.26430    1.000
    C174     C        0.53740    0.81430    0.12900    1.000
    H126     H        0.54280    0.84740    0.06960    1.000
    C175     C        0.57110    0.72620    0.19100    1.000
    H127     H        0.59710    0.70240    0.17400    1.000
    C176     C        0.52360    0.71550    0.30300    1.000
    H128     H        0.51780    0.68250    0.36250    1.000
