data_functionalizedCrystal
_audit_creation_method	'EQeq! by Chris Wilmer'
_symmetry_space_group_name_H-M	'P1'
_symmetry_Int_Tables_number	1
_symmetry_cell_setting	triclinic
loop_
_symmetry_equiv_pos_as_xyz
  x,y,z
_cell_length_a	8.619
_cell_length_b	17.818
_cell_length_c	18.385
_cell_angle_alpha	95.672
_cell_angle_beta	102.223
_cell_angle_gamma	101.053
loop_
_atom_site_label
_atom_site_type_symbol
_atom_site_fract_x
_atom_site_fract_y
_atom_site_fract_z
_atom_site_charge
Mof_Eu	Eu	0.05711	0.77358	0.14318	2.082
Mof_Eu	Eu	0.94289	0.22642	0.85682	2.23
Mof_Zn	Zn	0.5	0.5	-0	1.187
Mof_Zn	Zn	5.30356e-17	1.06071e-17	0.5	1.181
Mof_Zn	Zn	0.5	0	-0	1.168
Mof_H 	H 	0.661	0.5498	0.1924	0.15
Mof_H 	H 	0.8073	0.5152	0.178	0.16
Mof_H 	H 	0.4017	0.3833	0.1068	0.025
Mof_H 	H 	0.5161	0.4151	0.1864	0.052
Mof_H 	H 	0.4175	0.5292	0.1854	0.071
Mof_H 	H 	0.2837	0.4563	0.1849	0.062
Mof_H 	H 	0.1619	0.5264	0.1071	0.047
Mof_H 	H 	0.1847	0.4565	0.055	0.008
Mof_H 	H 	0.1424	0.5178	0.9527	0.033
Mof_H 	H 	0.1524	0.6041	0.9846	0.05
Mof_H 	H 	0.7585	0.3965	0.1264	0.056
Mof_H 	H 	0.6088	0.3577	0.0597	0.03
Mof_H 	H 	0.4705	0.6285	0.1386	0.119
Mof_H 	H 	0.4731	0.6647	0.0645	0.103
Mof_H 	H 	0.1275	0.8736	0.4031	0.127
Mof_H 	H 	0.9385	0.8481	0.3767	0.145
Mof_H 	H 	0.8785	0.0314	0.3383	-0.017
Mof_H 	H 	0.8871	0.9644	0.2783	0.046
Mof_H 	H 	0.7186	0.876	0.3362	0.105
Mof_H 	H 	0.629	0.9335	0.2944	0.107
Mof_H 	H 	0.5463	0.926	0.403	0.01
Mof_H 	H 	0.656	0.0086	0.4114	-0.033
Mof_H 	H 	0.6829	0.0274	0.5354	-0
Mof_H 	H 	0.5987	0.945	0.5477	0.05
Mof_H 	H 	0.6675	0.8397	0.5114	0.14
Mof_H 	H 	0.7147	0.8304	0.4337	0.128
Mof_H 	H 	0.2178	0.9956	0.3396	0.15
Mof_H 	H 	0.1525	0.0653	0.3716	0.085
Mof_H 	H 	0.5654	0.9113	0.1387	0.113
Mof_H 	H 	0.4797	0.8436	0.0737	0.097
Mof_H 	H 	0.727	0.9011	0.9508	0.013
Mof_H 	H 	0.7448	0.8359	0.0012	-0.048
Mof_H 	H 	0.4558	0.7913	0.9654	0.114
Mof_H 	H 	0.5424	0.7794	0.9	0.1
Mof_H 	H 	0.3118	0.8174	0.8508	0.037
Mof_H 	H 	0.4564	0.8859	0.8518	0.043
Mof_H 	H 	0.296	0.9707	0.8362	0.045
Mof_H 	H 	0.1306	0.9199	0.8427	0.047
Mof_H 	H 	0.1017	0.863	0.9382	0.12
Mof_H 	H 	0.2356	0.8192	0.9712	0.123
Mof_H 	H 	0.8714	0.9496	0.1215	0.071
Mof_H 	H 	0.8682	0.9914	0.05	0.044
Mof_H 	H 	0.339	0.4502	0.8076	0.145
Mof_H 	H 	0.1927	0.4848	0.822	0.149
Mof_H 	H 	0.5983	0.6167	0.8932	0.057
Mof_H 	H 	0.4839	0.5849	0.8136	0.062
Mof_H 	H 	0.5825	0.4708	0.8146	0.058
Mof_H 	H 	0.7163	0.5437	0.8151	0.06
Mof_H 	H 	0.8381	0.4736	0.8929	0.087
Mof_H 	H 	0.8153	0.5435	0.945	0.071
Mof_H 	H 	0.8576	0.4822	0.0473	0.061
Mof_H 	H 	0.8476	0.3959	0.0154	0.059
Mof_H 	H 	0.2415	0.6035	0.8736	0.068
Mof_H 	H 	0.3912	0.6423	0.9403	0.073
Mof_H 	H 	0.5295	0.3715	0.8614	0.118
Mof_H 	H 	0.5269	0.3353	0.9355	0.131
Mof_H 	H 	0.8725	0.1264	0.5969	0.086
Mof_H 	H 	0.0615	0.1519	0.6233	0.073
Mof_H 	H 	0.1215	0.9686	0.6617	0.137
Mof_H 	H 	0.1129	0.0356	0.7217	0.111
Mof_H 	H 	0.2814	0.124	0.6638	0.025
Mof_H 	H 	0.371	0.0665	0.7056	0.003
Mof_H 	H 	0.4537	0.074	0.597	0.101
Mof_H 	H 	0.344	0.9914	0.5886	0.136
Mof_H 	H 	0.3171	0.9726	0.4646	0.097
Mof_H 	H 	0.4013	0.055	0.4523	0.069
Mof_H 	H 	0.3325	0.1603	0.4886	0.138
Mof_H 	H 	0.2853	0.1696	0.5663	0.132
Mof_H 	H 	0.7822	0.0044	0.6604	0.015
Mof_H 	H 	0.8475	0.9347	0.6284	0.046
Mof_H 	H 	0.4346	0.0887	0.8613	0.106
Mof_H 	H 	0.5203	0.1564	0.9263	0.137
Mof_H 	H 	0.273	0.0989	0.0492	0.09
Mof_H 	H 	0.2552	0.1641	0.9988	0.165
Mof_H 	H 	0.5442	0.2087	0.0346	0.001
Mof_H 	H 	0.4576	0.2206	0.1	0.002
Mof_H 	H 	0.6882	0.1826	0.1492	0.084
Mof_H 	H 	0.5436	0.1141	0.1482	0.065
Mof_H 	H 	0.704	0.0293	0.1638	0.056
Mof_H 	H 	0.8694	0.0801	0.1573	0.084
Mof_H 	H 	0.8983	0.137	0.0618	0.151
Mof_H 	H 	0.7644	0.1808	0.0288	0.147
Mof_H 	H 	0.1286	0.0504	0.8785	0.091
Mof_H 	H 	0.1318	0.0086	0.95	0.078
Mof_C 	C 	0.7649	0.5997	0.1137	0.469
Mof_C 	C 	0.7116	0.5321	0.1535	-0.388
Mof_C 	C 	0.4658	0.4301	0.1392	-0.077
Mof_C 	C 	0.3517	0.4817	0.1548	-0.147
Mof_C 	C 	0.2423	0.5033	0.0891	-0.06
Mof_C 	C 	0.2165	0.5669	0.9742	-0.029
Mof_C 	C 	0.6857	0.4059	0.0819	-0.092
Mof_C 	C 	0.4028	0.6354	0.0914	-0.282
Mof_C 	C 	0.281	0.6821	0.1086	0.388
Mof_C 	C 	0.049	0.8494	0.2876	0.368
Mof_C 	C 	0.0335	0.8806	0.3669	-0.314
Mof_C 	C 	0.8773	0.9766	0.3295	0.072
Mof_C 	C 	0.7124	0.9299	0.3378	-0.248
Mof_C 	C 	0.6573	0.9541	0.4085	0.075
Mof_C 	C 	0.7013	0.9768	0.5446	-0.048
Mof_C 	C 	0.7487	0.8586	0.4844	-0.333
Mof_C 	C 	0.912	0.8428	0.5233	0.398
Mof_C 	C 	0.1744	0.0151	0.3804	-0.243
Mof_C 	C 	0.6813	0.8208	0.1421	0.464
Mof_C 	C 	0.585	0.8749	0.1006	-0.293
Mof_C 	C 	0.6736	0.8691	0.982	0.139
Mof_C 	C 	0.5143	0.8183	0.9326	-0.241
Mof_C 	C 	0.3981	0.8572	0.8835	-0.03
Mof_C 	C 	0.2314	0.9539	0.8713	-0.037
Mof_C 	C 	0.2129	0.8701	0.967	-0.285
Mof_C 	C 	0.227	0.911	0.0451	0.39
Mof_C 	C 	0.8064	0.975	0.0862	-0.027
Mof_C 	C 	0.2351	0.4003	0.8863	0.468
Mof_C 	C 	0.2884	0.4679	0.8465	-0.38
Mof_C 	C 	0.5342	0.5699	0.8608	-0.104
Mof_C 	C 	0.6483	0.5183	0.8452	-0.1
Mof_C 	C 	0.7577	0.4967	0.9109	-0.108
Mof_C 	C 	0.7835	0.4331	0.0258	-0.167
Mof_C 	C 	0.3143	0.5941	0.9181	-0.144
Mof_C 	C 	0.5972	0.3646	0.9086	-0.278
Mof_C 	C 	0.719	0.3179	0.8914	0.399
Mof_C 	C 	0.951	0.1506	0.7124	0.343
Mof_C 	C 	0.9665	0.1194	0.6331	-0.181
Mof_C 	C 	0.1227	0.0234	0.6705	-0.278
Mof_C 	C 	0.2876	0.0701	0.6622	0.024
Mof_C 	C 	0.3427	0.0459	0.5915	-0.269
Mof_C 	C 	0.2987	0.0232	0.4554	-0.167
Mof_C 	C 	0.2513	0.1414	0.5156	-0.325
Mof_C 	C 	0.088	0.1572	0.4767	0.333
Mof_C 	C 	0.8256	0.9849	0.6196	-0.006
Mof_C 	C 	0.3187	0.1792	0.8579	0.487
Mof_C 	C 	0.415	0.1251	0.8994	-0.32
Mof_C 	C 	0.3264	0.1309	0.018	-0.324
Mof_C 	C 	0.4857	0.1817	0.0674	0.015
Mof_C 	C 	0.6019	0.1428	0.1165	-0.174
Mof_C 	C 	0.7686	0.0461	0.1287	-0.197
Mof_C 	C 	0.7871	0.1299	0.033	-0.471
Mof_C 	C 	0.773	0.089	0.9549	0.538
Mof_C 	C 	0.1936	0.025	0.9138	-0.185
Mof_N 	N 	0.5962	0.46503	0.1037	-0.159
Mof_N 	N 	0.3275	0.55805	0.0462	-0.182
Mof_N 	N 	0.0204	0.9609	0.3823	-0.127
Mof_N 	N 	0.7567	0.9415	0.4807	-0.172
Mof_N 	N 	0.6519	0.92026	0.0468	-0.19
Mof_N 	N 	0.3224	0.91094	0.92534	-0.158
Mof_N 	N 	0.4038	0.53497	0.8963	-0.137
Mof_N 	N 	0.6725	0.44195	0.9538	-0.111
Mof_N 	N 	0.9796	0.0391	0.6177	-0.142
Mof_N 	N 	0.2433	0.0585	0.5193	-0.141
Mof_N 	N 	0.3481	0.07974	0.9532	-0.083
Mof_N 	N 	0.6776	0.08906	0.07466	-0.134
Mof_O 	O 	0.8742	0.65337	0.1514	-0.479
Mof_O 	O 	0.6935	0.59752	0.04496	-0.502
Mof_O 	O 	0.2608	0.73786	0.07302	-0.503
Mof_O 	O 	0.2018	0.66506	0.1559	-0.465
Mof_O 	O 	0.0398	0.77795	0.27493	-0.46
Mof_O 	O 	0.0711	0.89296	0.23917	-0.418
Mof_O 	O 	0.9089	0.777	0.541	-0.258
Mof_O 	O 	0.0409	0.89413	0.53343	-0.447
Mof_O 	O 	0.8043	0.80757	0.12248	-0.518
Mof_O 	O 	0.6199	0.79261	0.19176	-0.325
Mof_O 	O 	0.1287	0.88075	0.08152	-0.527
Mof_O 	O 	0.3343	0.97209	0.07049	-0.43
Mof_O 	O 	0.1258	0.34663	0.8486	-0.513
Mof_O 	O 	0.3065	0.40248	0.95504	-0.455
Mof_O 	O 	0.7392	0.26214	0.92698	-0.472
Mof_O 	O 	0.7982	0.33494	0.8441	-0.461
Mof_O 	O 	0.9602	0.22205	0.72507	-0.441
Mof_O 	O 	0.9289	0.10704	0.76083	-0.414
Mof_O 	O 	0.0911	0.223	0.459	-0.267
Mof_O 	O 	0.9591	0.10587	0.46657	-0.399
Mof_O 	O 	0.1957	0.19243	0.87752	-0.557
Mof_O 	O 	0.3801	0.20739	0.80824	-0.337
Mof_O 	O 	0.8713	0.11925	0.91848	-0.554
Mof_O 	O 	0.6657	0.02791	0.92951	-0.481
_end
