# CIF file generated by openbabel 3.1.0, see https://openbabel.org
data_I
_chemical_name_common 'image0'
_cell_length_a 19.835
_cell_length_b 23.936
_cell_length_c 13.841
_cell_angle_alpha 90
_cell_angle_beta 122.48
_cell_angle_gamma 90
_space_group_name_H-M_alt 'P 1'
_space_group_name_Hall 'P 1'
loop_
    _symmetry_equiv_pos_as_xyz
    x,y,z
loop_
    _atom_site_label
    _atom_site_type_symbol
    _atom_site_fract_x
    _atom_site_fract_y
    _atom_site_fract_z
    _atom_site_occupancy
    Cd1      Cd       0.66669    0.89254    0.94603    1.000
    O1       O        0.57120    0.94730    0.79830    1.000
    C1       C        0.73680    0.77280    0.57160    1.000
    N1       N        0.69570    0.79210    0.46410    1.000
    N2       N        0.79090    0.73160    0.60920    1.000
    N3       N        0.68960    0.84710    0.80940    1.000
    C2       C        0.65930    0.86810    0.70670    1.000
    H1       H        0.62620    0.90010    0.68670    1.000
    C3       C        0.67260    0.84630    0.62510    1.000
    H2       H        0.64920    0.86300    0.55170    1.000
    C4       C        0.72110    0.79920    0.65410    1.000
    C5       C        0.75330    0.77690    0.76190    1.000
    H3       H        0.78640    0.74470    0.78440    1.000
    C6       C        0.73670    0.80200    0.83770    1.000
    H4       H        0.75970    0.78660    0.91220    1.000
    N4       N        0.59950    0.81980    0.96250    1.000
    C7       C        0.56460    0.82370    0.02240    1.000
    H5       H        0.56910    0.85750    0.06120    1.000
    C8       C        0.52230    0.77990    0.02950    1.000
    H6       H        0.49610    0.78440    0.06980    1.000
    C9       C        0.51820    0.72970    0.97790    1.000
    C10      C        0.55470    0.72530    0.91720    1.000
    H7       H        0.55330    0.69120    0.88110    1.000
    C11      C        0.59390    0.77180    0.91000    1.000
    H8       H        0.61750    0.76920    0.86600    1.000
    N5       N        0.45480    0.58810    0.97010    1.000
    N6       N        0.49870    0.63090    0.97660    1.000
    C12      C        0.47340    0.68170    0.98170    1.000
    N7       N        0.41250    0.69260    0.99470    1.000
    N8       N        0.36800    0.65000    0.98730    1.000
    C13      C        0.38880    0.59940    0.97050    1.000
    N9       N        0.24290    0.46410    0.94540    1.000
    C14      C        0.21810    0.51650    0.93670    1.000
    H9       H        0.16710    0.52300    0.92530    1.000
    C15      C        0.26300    0.56180    0.94340    1.000
    H10      H        0.24410    0.59880    0.93850    1.000
    C16      C        0.33680    0.55210    0.95760    1.000
    C17      C        0.36220    0.49770    0.96400    1.000
    H11      H        0.41190    0.48990    0.97190    1.000
    C18      C        0.31280    0.45480    0.95840    1.000
    H12      H        0.33030    0.41730    0.96430    1.000
    O2       O        0.55220    0.95280    0.84500    1.000
    O3       O        0.52400    0.88980    0.72570    1.000
    Cd2      Cd       0.16669    0.39254    0.94603    1.000
    O4       O        0.07120    0.44730    0.79830    1.000
    C19      C        0.23680    0.27280    0.57160    1.000
    N10      N        0.19570    0.29210    0.46410    1.000
    N11      N        0.29090    0.23160    0.60920    1.000
    N12      N        0.18960    0.34710    0.80940    1.000
    C20      C        0.15930    0.36810    0.70670    1.000
    H13      H        0.12620    0.40010    0.68670    1.000
    C21      C        0.17260    0.34630    0.62510    1.000
    H14      H        0.14920    0.36300    0.55170    1.000
    C22      C        0.22110    0.29920    0.65410    1.000
    C23      C        0.25330    0.27690    0.76190    1.000
    H15      H        0.28640    0.24470    0.78440    1.000
    C24      C        0.23670    0.30200    0.83770    1.000
    H16      H        0.25970    0.28660    0.91220    1.000
    N13      N        0.09950    0.31980    0.96250    1.000
    C25      C        0.06460    0.32370    0.02240    1.000
    H17      H        0.06910    0.35750    0.06120    1.000
    C26      C        0.02230    0.27990    0.02950    1.000
    H18      H        0.99610    0.28440    0.06980    1.000
    C27      C        0.01820    0.22970    0.97790    1.000
    C28      C        0.05470    0.22530    0.91720    1.000
    H19      H        0.05330    0.19120    0.88110    1.000
    C29      C        0.09390    0.27180    0.91000    1.000
    H20      H        0.11750    0.26920    0.86600    1.000
    N14      N        0.95480    0.08810    0.97010    1.000
    N15      N        0.99870    0.13090    0.97660    1.000
    C30      C        0.97340    0.18170    0.98170    1.000
    N16      N        0.91250    0.19260    0.99470    1.000
    N17      N        0.86800    0.15000    0.98730    1.000
    C31      C        0.88880    0.09940    0.97050    1.000
    N18      N        0.74290    0.96410    0.94540    1.000
    C32      C        0.71810    0.01650    0.93670    1.000
    H21      H        0.66710    0.02300    0.92530    1.000
    C33      C        0.76300    0.06180    0.94340    1.000
    H22      H        0.74410    0.09880    0.93850    1.000
    C34      C        0.83680    0.05210    0.95760    1.000
    C35      C        0.86220    0.99770    0.96400    1.000
    H23      H        0.91190    0.98990    0.97190    1.000
    C36      C        0.81280    0.95480    0.95840    1.000
    H24      H        0.83030    0.91730    0.96430    1.000
    O5       O        0.05220    0.45280    0.84500    1.000
    O6       O        0.02400    0.38980    0.72570    1.000
    Cd3      Cd       0.33331    0.89254    0.55397    1.000
    O7       O        0.42880    0.94730    0.70170    1.000
    C37      C        0.26320    0.77280    0.92840    1.000
    N19      N        0.30430    0.79210    0.03590    1.000
    N20      N        0.20910    0.73160    0.89080    1.000
    N21      N        0.31040    0.84710    0.69060    1.000
    C38      C        0.34070    0.86810    0.79330    1.000
    H25      H        0.37380    0.90010    0.81330    1.000
    C39      C        0.32740    0.84630    0.87490    1.000
    H26      H        0.35080    0.86300    0.94830    1.000
    C40      C        0.27890    0.79920    0.84590    1.000
    C41      C        0.24670    0.77690    0.73810    1.000
    H27      H        0.21360    0.74470    0.71560    1.000
    C42      C        0.26330    0.80200    0.66230    1.000
    H28      H        0.24030    0.78660    0.58780    1.000
    N22      N        0.40050    0.81980    0.53750    1.000
    C43      C        0.43540    0.82370    0.47760    1.000
    H29      H        0.43090    0.85750    0.43880    1.000
    C44      C        0.47770    0.77990    0.47050    1.000
    H30      H        0.50390    0.78440    0.43020    1.000
    C45      C        0.48180    0.72970    0.52210    1.000
    C46      C        0.44530    0.72530    0.58280    1.000
    H31      H        0.44670    0.69120    0.61890    1.000
    C47      C        0.40610    0.77180    0.59000    1.000
    H32      H        0.38250    0.76920    0.63400    1.000
    N23      N        0.54520    0.58810    0.52990    1.000
    N24      N        0.50130    0.63090    0.52340    1.000
    C48      C        0.52660    0.68170    0.51830    1.000
    N25      N        0.58750    0.69260    0.50530    1.000
    N26      N        0.63200    0.65000    0.51270    1.000
    C49      C        0.61120    0.59940    0.52950    1.000
    N27      N        0.75710    0.46410    0.55460    1.000
    C50      C        0.78190    0.51650    0.56330    1.000
    H33      H        0.83290    0.52300    0.57470    1.000
    C51      C        0.73700    0.56180    0.55660    1.000
    H34      H        0.75590    0.59880    0.56150    1.000
    C52      C        0.66320    0.55210    0.54240    1.000
    C53      C        0.63780    0.49770    0.53600    1.000
    H35      H        0.58810    0.48990    0.52810    1.000
    C54      C        0.68720    0.45480    0.54160    1.000
    H36      H        0.66970    0.41730    0.53570    1.000
    O8       O        0.44780    0.95280    0.65500    1.000
    O9       O        0.47600    0.88980    0.77430    1.000
    Cd4      Cd       0.83331    0.39254    0.55397    1.000
    O10      O        0.92880    0.44730    0.70170    1.000
    C55      C        0.76320    0.27280    0.92840    1.000
    N28      N        0.80430    0.29210    0.03590    1.000
    N29      N        0.70910    0.23160    0.89080    1.000
    N30      N        0.81040    0.34710    0.69060    1.000
    C56      C        0.84070    0.36810    0.79330    1.000
    H37      H        0.87380    0.40010    0.81330    1.000
    C57      C        0.82740    0.34630    0.87490    1.000
    H38      H        0.85080    0.36300    0.94830    1.000
    C58      C        0.77890    0.29920    0.84590    1.000
    C59      C        0.74670    0.27690    0.73810    1.000
    H39      H        0.71360    0.24470    0.71560    1.000
    C60      C        0.76330    0.30200    0.66230    1.000
    H40      H        0.74030    0.28660    0.58780    1.000
    N31      N        0.90050    0.31980    0.53750    1.000
    C61      C        0.93540    0.32370    0.47760    1.000
    H41      H        0.93090    0.35750    0.43880    1.000
    C62      C        0.97770    0.27990    0.47050    1.000
    H42      H        0.00390    0.28440    0.43020    1.000
    C63      C        0.98180    0.22970    0.52210    1.000
    C64      C        0.94530    0.22530    0.58280    1.000
    H43      H        0.94670    0.19120    0.61890    1.000
    C65      C        0.90610    0.27180    0.59000    1.000
    H44      H        0.88250    0.26920    0.63400    1.000
    N32      N        0.04520    0.08810    0.52990    1.000
    N33      N        0.00130    0.13090    0.52340    1.000
    C66      C        0.02660    0.18170    0.51830    1.000
    N34      N        0.08750    0.19260    0.50530    1.000
    N35      N        0.13200    0.15000    0.51270    1.000
    C67      C        0.11120    0.09940    0.52950    1.000
    N36      N        0.25710    0.96410    0.55460    1.000
    C68      C        0.28190    0.01650    0.56330    1.000
    H45      H        0.33290    0.02300    0.57470    1.000
    C69      C        0.23700    0.06180    0.55660    1.000
    H46      H        0.25590    0.09880    0.56150    1.000
    C70      C        0.16320    0.05210    0.54240    1.000
    C71      C        0.13780    0.99770    0.53600    1.000
    H47      H        0.08810    0.98990    0.52810    1.000
    C72      C        0.18720    0.95480    0.54160    1.000
    H48      H        0.16970    0.91730    0.53570    1.000
    O11      O        0.94780    0.45280    0.65500    1.000
    O12      O        0.97600    0.38980    0.77430    1.000
    Cd5      Cd       0.33331    0.10746    0.05397    1.000
    O13      O        0.42880    0.05270    0.20170    1.000
    C73      C        0.26320    0.22720    0.42840    1.000
    N37      N        0.30430    0.20790    0.53590    1.000
    N38      N        0.20910    0.26840    0.39080    1.000
    N39      N        0.31040    0.15290    0.19060    1.000
    C74      C        0.34070    0.13190    0.29330    1.000
    H49      H        0.37380    0.09990    0.31330    1.000
    C75      C        0.32740    0.15370    0.37490    1.000
    H50      H        0.35080    0.13700    0.44830    1.000
    C76      C        0.27890    0.20080    0.34590    1.000
    C77      C        0.24670    0.22310    0.23810    1.000
    H51      H        0.21360    0.25530    0.21560    1.000
    C78      C        0.26330    0.19800    0.16230    1.000
    H52      H        0.24030    0.21340    0.08780    1.000
    N40      N        0.40050    0.18020    0.03750    1.000
    C79      C        0.43540    0.17630    0.97760    1.000
    H53      H        0.43090    0.14250    0.93880    1.000
    C80      C        0.47770    0.22010    0.97050    1.000
    H54      H        0.50390    0.21560    0.93020    1.000
    C81      C        0.48180    0.27030    0.02210    1.000
    C82      C        0.44530    0.27470    0.08280    1.000
    H55      H        0.44670    0.30880    0.11890    1.000
    C83      C        0.40610    0.22820    0.09000    1.000
    H56      H        0.38250    0.23080    0.13400    1.000
    N41      N        0.54520    0.41190    0.02990    1.000
    N42      N        0.50130    0.36910    0.02340    1.000
    C84      C        0.52660    0.31830    0.01830    1.000
    N43      N        0.58750    0.30740    0.00530    1.000
    N44      N        0.63200    0.35000    0.01270    1.000
    C85      C        0.61120    0.40060    0.02950    1.000
    N45      N        0.75710    0.53590    0.05460    1.000
    C86      C        0.78190    0.48350    0.06330    1.000
    H57      H        0.83290    0.47700    0.07470    1.000
    C87      C        0.73700    0.43820    0.05660    1.000
    H58      H        0.75590    0.40120    0.06150    1.000
    C88      C        0.66320    0.44790    0.04240    1.000
    C89      C        0.63780    0.50230    0.03600    1.000
    H59      H        0.58810    0.51010    0.02810    1.000
    C90      C        0.68720    0.54520    0.04160    1.000
    H60      H        0.66970    0.58270    0.03570    1.000
    O14      O        0.44780    0.04720    0.15500    1.000
    O15      O        0.47600    0.11020    0.27430    1.000
    Cd6      Cd       0.83331    0.60746    0.05397    1.000
    O16      O        0.92880    0.55270    0.20170    1.000
    C91      C        0.76320    0.72720    0.42840    1.000
    N46      N        0.80430    0.70790    0.53590    1.000
    N47      N        0.70910    0.76840    0.39080    1.000
    N48      N        0.81040    0.65290    0.19060    1.000
    C92      C        0.84070    0.63190    0.29330    1.000
    H61      H        0.87380    0.59990    0.31330    1.000
    C93      C        0.82740    0.65370    0.37490    1.000
    H62      H        0.85080    0.63700    0.44830    1.000
    C94      C        0.77890    0.70080    0.34590    1.000
    C95      C        0.74670    0.72310    0.23810    1.000
    H63      H        0.71360    0.75530    0.21560    1.000
    C96      C        0.76330    0.69800    0.16230    1.000
    H64      H        0.74030    0.71340    0.08780    1.000
    N49      N        0.90050    0.68020    0.03750    1.000
    C97      C        0.93540    0.67630    0.97760    1.000
    H65      H        0.93090    0.64250    0.93880    1.000
    C98      C        0.97770    0.72010    0.97050    1.000
    H66      H        0.00390    0.71560    0.93020    1.000
    C99      C        0.98180    0.77030    0.02210    1.000
    C100     C        0.94530    0.77470    0.08280    1.000
    H67      H        0.94670    0.80880    0.11890    1.000
    C101     C        0.90610    0.72820    0.09000    1.000
    H68      H        0.88250    0.73080    0.13400    1.000
    N50      N        0.04520    0.91190    0.02990    1.000
    N51      N        0.00130    0.86910    0.02340    1.000
    C102     C        0.02660    0.81830    0.01830    1.000
    N52      N        0.08750    0.80740    0.00530    1.000
    N53      N        0.13200    0.85000    0.01270    1.000
    C103     C        0.11120    0.90060    0.02950    1.000
    N54      N        0.25710    0.03590    0.05460    1.000
    C104     C        0.28190    0.98350    0.06330    1.000
    H69      H        0.33290    0.97700    0.07470    1.000
    C105     C        0.23700    0.93820    0.05660    1.000
    H70      H        0.25590    0.90120    0.06150    1.000
    C106     C        0.16320    0.94790    0.04240    1.000
    C107     C        0.13780    0.00230    0.03600    1.000
    H71      H        0.08810    0.01010    0.02810    1.000
    C108     C        0.18720    0.04520    0.04160    1.000
    H72      H        0.16970    0.08270    0.03570    1.000
    O17      O        0.94780    0.54720    0.15500    1.000
    O18      O        0.97600    0.61020    0.27430    1.000
    Cd7      Cd       0.66669    0.10746    0.44603    1.000
    O19      O        0.57120    0.05270    0.29830    1.000
    C109     C        0.73680    0.22720    0.07160    1.000
    N55      N        0.69570    0.20790    0.96410    1.000
    N56      N        0.79090    0.26840    0.10920    1.000
    N57      N        0.68960    0.15290    0.30940    1.000
    C110     C        0.65930    0.13190    0.20670    1.000
    H73      H        0.62620    0.09990    0.18670    1.000
    C111     C        0.67260    0.15370    0.12510    1.000
    H74      H        0.64920    0.13700    0.05170    1.000
    C112     C        0.72110    0.20080    0.15410    1.000
    C113     C        0.75330    0.22310    0.26190    1.000
    H75      H        0.78640    0.25530    0.28440    1.000
    C114     C        0.73670    0.19800    0.33770    1.000
    H76      H        0.75970    0.21340    0.41220    1.000
    N58      N        0.59950    0.18020    0.46250    1.000
    C115     C        0.56460    0.17630    0.52240    1.000
    H77      H        0.56910    0.14250    0.56120    1.000
    C116     C        0.52230    0.22010    0.52950    1.000
    H78      H        0.49610    0.21560    0.56980    1.000
    C117     C        0.51820    0.27030    0.47790    1.000
    C118     C        0.55470    0.27470    0.41720    1.000
    H79      H        0.55330    0.30880    0.38110    1.000
    C119     C        0.59390    0.22820    0.41000    1.000
    H80      H        0.61750    0.23080    0.36600    1.000
    N59      N        0.45480    0.41190    0.47010    1.000
    N60      N        0.49870    0.36910    0.47660    1.000
    C120     C        0.47340    0.31830    0.48170    1.000
    N61      N        0.41250    0.30740    0.49470    1.000
    N62      N        0.36800    0.35000    0.48730    1.000
    C121     C        0.38880    0.40060    0.47050    1.000
    N63      N        0.24290    0.53590    0.44540    1.000
    C122     C        0.21810    0.48350    0.43670    1.000
    H81      H        0.16710    0.47700    0.42530    1.000
    C123     C        0.26300    0.43820    0.44340    1.000
    H82      H        0.24410    0.40120    0.43850    1.000
    C124     C        0.33680    0.44790    0.45760    1.000
    C125     C        0.36220    0.50230    0.46400    1.000
    H83      H        0.41190    0.51010    0.47190    1.000
    C126     C        0.31280    0.54520    0.45840    1.000
    H84      H        0.33030    0.58270    0.46430    1.000
    O20      O        0.55220    0.04720    0.34500    1.000
    O21      O        0.52400    0.11020    0.22570    1.000
    Cd8      Cd       0.16669    0.60746    0.44603    1.000
    O22      O        0.07120    0.55270    0.29830    1.000
    C127     C        0.23680    0.72720    0.07160    1.000
    N64      N        0.19570    0.70790    0.96410    1.000
    N65      N        0.29090    0.76840    0.10920    1.000
    N66      N        0.18960    0.65290    0.30940    1.000
    C128     C        0.15930    0.63190    0.20670    1.000
    H85      H        0.12620    0.59990    0.18670    1.000
    C129     C        0.17260    0.65370    0.12510    1.000
    H86      H        0.14920    0.63700    0.05170    1.000
    C130     C        0.22110    0.70080    0.15410    1.000
    C131     C        0.25330    0.72310    0.26190    1.000
    H87      H        0.28640    0.75530    0.28440    1.000
    C132     C        0.23670    0.69800    0.33770    1.000
    H88      H        0.25970    0.71340    0.41220    1.000
    N67      N        0.09950    0.68020    0.46250    1.000
    C133     C        0.06460    0.67630    0.52240    1.000
    H89      H        0.06910    0.64250    0.56120    1.000
    C134     C        0.02230    0.72010    0.52950    1.000
    H90      H        0.99610    0.71560    0.56980    1.000
    C135     C        0.01820    0.77030    0.47790    1.000
    C136     C        0.05470    0.77470    0.41720    1.000
    H91      H        0.05330    0.80880    0.38110    1.000
    C137     C        0.09390    0.72820    0.41000    1.000
    H92      H        0.11750    0.73080    0.36600    1.000
    N68      N        0.95480    0.91190    0.47010    1.000
    N69      N        0.99870    0.86910    0.47660    1.000
    C138     C        0.97340    0.81830    0.48170    1.000
    N70      N        0.91250    0.80740    0.49470    1.000
    N71      N        0.86800    0.85000    0.48730    1.000
    C139     C        0.88880    0.90060    0.47050    1.000
    N72      N        0.74290    0.03590    0.44540    1.000
    C140     C        0.71810    0.98350    0.43670    1.000
    H93      H        0.66710    0.97700    0.42530    1.000
    C141     C        0.76300    0.93820    0.44340    1.000
    H94      H        0.74410    0.90120    0.43850    1.000
    C142     C        0.83680    0.94790    0.45760    1.000
    C143     C        0.86220    0.00230    0.46400    1.000
    H95      H        0.91190    0.01010    0.47190    1.000
    C144     C        0.81280    0.04520    0.45840    1.000
    H96      H        0.83030    0.08270    0.46430    1.000
    O23      O        0.05220    0.54720    0.34500    1.000
    O24      O        0.02400    0.61020    0.22570    1.000
    N73      N        0.50000    0.92790    0.75000    1.000
    O25      O        0.50000    0.87790    0.75000    1.000
    N74      N        0.00000    0.42790    0.75000    1.000
    O26      O        0.00000    0.37790    0.75000    1.000
    N75      N        0.50000    0.07210    0.25000    1.000
    O27      O        0.50000    0.12210    0.25000    1.000
    N76      N        0.00000    0.57210    0.25000    1.000
    O28      O        0.00000    0.62210    0.25000    1.000
