data_functionalizedCrystal
_audit_creation_method	'EQeq! by Chris Wilmer'
_symmetry_space_group_name_H-M	'P1'
_symmetry_Int_Tables_number	1
_symmetry_cell_setting	triclinic
loop_
_symmetry_equiv_pos_as_xyz
  x,y,z
_cell_length_a	6.6224
_cell_length_b	13.0407
_cell_length_c	13.9772
_cell_angle_alpha	90
_cell_angle_beta	90
_cell_angle_gamma	90
loop_
_atom_site_label
_atom_site_type_symbol
_atom_site_fract_x
_atom_site_fract_y
_atom_site_fract_z
_atom_site_charge
Mof_Cd	Cd	2.70384e-32	0.75	0.77406	0.403
Mof_Cd	Cd	0.5	0.75	0.27406	0.451
Mof_Cd	Cd	1.78797e-33	0.25	0.22594	0.331
Mof_Cd	Cd	0.5	0.25	0.72594	0.443
Mof_Cu	Cu	0.5	5.22822e-33	0.5	0.906
Mof_Cu	Cu	0.5	0.5	0.5	0.952
Mof_Cu	Cu	-0	0	-0	0.804
Mof_Cu	Cu	-0	0.5	-0	0.855
Mof_H 	H 	0.3552	0.8978	0.7709	0.239
Mof_H 	H 	0.4341	0.6185	0.7233	0.272
Mof_H 	H 	0.9341	0.3815	0.7767	0.358
Mof_H 	H 	0.1448	0.8978	0.2709	0.256
Mof_H 	H 	0.9341	0.8815	0.2233	0.325
Mof_H 	H 	0.0659	0.1185	0.7767	0.177
Mof_H 	H 	0.1448	0.3978	0.7291	0.28
Mof_H 	H 	0.6448	0.6022	0.7709	0.286
Mof_H 	H 	0.5659	0.3815	0.2767	0.265
Mof_H 	H 	0.0659	0.6185	0.2233	0.162
Mof_H 	H 	0.6448	0.1022	0.2291	0.29
Mof_H 	H 	0.3552	0.3978	0.2291	0.244
Mof_H 	H 	0.8552	0.6022	0.2709	0.228
Mof_H 	H 	0.4341	0.1185	0.2767	0.287
Mof_H 	H 	0.5659	0.8815	0.7233	0.247
Mof_H 	H 	0.8552	0.1022	0.7291	0.237
Mof_C 	C 	0.0674	0.41029	0.78688	-0.84
Mof_C 	C 	0.6661	0.64932	0.63281	0.533
Mof_C 	C 	0.1661	0.85068	0.13281	0.516
Mof_C 	C 	0.0674	0.91029	0.21312	-0.69
Mof_C 	C 	0.1661	0.35068	0.86719	0.539
Mof_C 	C 	0.5438	0.47548	0.70252	0.528
Mof_C 	C 	0.9326	0.58971	0.21312	-0.571
Mof_C 	C 	0.3339	0.85068	0.63281	0.486
Mof_C 	C 	0.4326	0.91029	0.71312	-0.565
Mof_C 	C 	0.5674	0.08971	0.28688	-0.873
Mof_C 	C 	0.9562	0.97548	0.79748	0.662
Mof_C 	C 	0.9562	0.47548	0.20252	0.585
Mof_C 	C 	0.8339	0.14932	0.86719	0.504
Mof_C 	C 	0.0438	0.02452	0.20252	0.308
Mof_C 	C 	0.5438	0.97548	0.29748	0.657
Mof_C 	C 	0.4562	0.02452	0.70252	0.383
Mof_C 	C 	0.6661	0.14932	0.36719	0.565
Mof_C 	C 	0.3339	0.35068	0.36719	0.521
Mof_C 	C 	0.9326	0.08971	0.78688	-0.656
Mof_C 	C 	0.4326	0.41029	0.28688	-0.719
Mof_C 	C 	0.8339	0.64932	0.13281	0.502
Mof_C 	C 	0.0438	0.52452	0.79748	0.444
Mof_C 	C 	0.4562	0.52452	0.29748	0.513
Mof_C 	C 	0.5674	0.58971	0.71312	-0.728
Mof_O 	O 	0.4933	0.93677	0.37697	-0.443
Mof_O 	O 	0.638	0.12176	0.45336	-0.435
Mof_O 	O 	0.0067	0.93677	0.87697	-0.442
Mof_O 	O 	0.9933	0.56323	0.87697	-0.295
Mof_O 	O 	0.4933	0.43677	0.62303	-0.457
Mof_O 	O 	0.5067	0.56323	0.37697	-0.452
Mof_O 	O 	0.0067	0.43677	0.12303	-0.564
Mof_O 	O 	0.5661	0.91975	0.2263	-0.354
Mof_O 	O 	0.0661	0.58025	0.7263	-0.354
Mof_O 	O 	0.362	0.37824	0.45336	-0.426
Mof_O 	O 	0.7366	0.72783	0.1533	-0.313
Mof_O 	O 	0.7634	0.72783	0.6533	-0.288
Mof_O 	O 	0.862	0.12176	0.95336	-0.32
Mof_O 	O 	0.7634	0.22783	0.3467	-0.306
Mof_O 	O 	0.4339	0.08025	0.7737	-0.333
Mof_O 	O 	0.638	0.62176	0.54664	-0.403
Mof_O 	O 	0.2634	0.27217	0.8467	-0.331
Mof_O 	O 	0.2366	0.77217	0.6533	-0.326
Mof_O 	O 	0.5067	0.06323	0.62303	-0.446
Mof_O 	O 	0.9933	0.06323	0.12303	-0.366
Mof_O 	O 	0.362	0.87824	0.54664	-0.374
Mof_O 	O 	0.2366	0.27217	0.3467	-0.349
Mof_O 	O 	0.0661	0.08025	0.2737	-0.355
Mof_O 	O 	0.138	0.87824	0.04664	-0.435
Mof_O 	O 	0.9339	0.91975	0.7263	-0.307
Mof_O 	O 	0.2634	0.77217	0.1533	-0.347
Mof_O 	O 	0.7366	0.22783	0.8467	-0.292
Mof_O 	O 	0.4339	0.58025	0.2263	-0.361
Mof_O 	O 	0.138	0.37824	0.95336	-0.364
Mof_O 	O 	0.9339	0.41975	0.2737	-0.318
Mof_O 	O 	0.862	0.62176	0.04664	-0.414
Mof_O 	O 	0.5661	0.41975	0.7737	-0.332
_end
