data_functionalizedCrystal
_audit_creation_method	'EQeq! by Chris Wilmer'
_symmetry_space_group_name_H-M	'P1'
_symmetry_Int_Tables_number	1
_symmetry_cell_setting	triclinic
loop_
_symmetry_equiv_pos_as_xyz
  x,y,z
_cell_length_a	15.354
_cell_length_b	15.514
_cell_length_c	15.514
_cell_angle_alpha	120
_cell_angle_beta	90
_cell_angle_gamma	90
loop_
_atom_site_label
_atom_site_type_symbol
_atom_site_fract_x
_atom_site_fract_y
_atom_site_fract_z
_atom_site_charge
Mof_Pr	Pr	0.75	0.66667	0.33334	2.527
Mof_Pr	Pr	0.75	0.33333	0.66666	2.527
Mof_Pr	Pr	0.25	0.33333	0.66666	2.508
Mof_Pr	Pr	0.25	0.66667	0.33334	2.508
Mof_Fe	Fe	-1.97193e-33	0.5	0.5	0.697
Mof_Fe	Fe	-1.97193e-33	0	0.5	0.629
Mof_Fe	Fe	3.94385e-33	0.5	-0	0.629
Mof_Fe	Fe	0.5	0	0.5	0.747
Mof_Fe	Fe	0.5	0.5	0.5	0.817
Mof_Fe	Fe	0.5	0.5	-0	0.746
Mof_H 	H 	0.8444	0.7663	0.7128	0.067
Mof_H 	H 	0.8444	0.9465	0.2337	0.072
Mof_H 	H 	0.8444	0.2872	0.0535	0.048
Mof_H 	H 	0.8444	0.2337	0.2872	0.057
Mof_H 	H 	0.8444	0.0535	0.7663	0.053
Mof_H 	H 	0.8444	0.7128	0.9465	0.077
Mof_H 	H 	0.6556	0.0535	0.2872	0.034
Mof_H 	H 	0.6556	0.7128	0.7663	0.054
Mof_H 	H 	0.6556	0.2337	0.9465	0.059
Mof_H 	H 	0.6556	0.9465	0.7128	0.064
Mof_H 	H 	0.6556	0.2872	0.2337	0.043
Mof_H 	H 	0.6556	0.7663	0.0535	0.039
Mof_H 	H 	0.1556	0.2337	0.2872	0.031
Mof_H 	H 	0.1556	0.0535	0.7663	0.028
Mof_H 	H 	0.1556	0.7128	0.9465	0.052
Mof_H 	H 	0.1556	0.7663	0.7128	0.042
Mof_H 	H 	0.1556	0.9465	0.2337	0.048
Mof_H 	H 	0.1556	0.2872	0.0535	0.022
Mof_H 	H 	0.3444	0.9465	0.7128	0.062
Mof_H 	H 	0.3444	0.2872	0.2337	0.042
Mof_H 	H 	0.3444	0.7663	0.0535	0.038
Mof_H 	H 	0.3444	0.0535	0.2872	0.032
Mof_H 	H 	0.3444	0.7128	0.7663	0.052
Mof_H 	H 	0.3444	0.2337	0.9465	0.058
Mof_H 	H 	0.75	0.8999	0.7998	0.059
Mof_H 	H 	0.75	0.8999	0.1001	0.043
Mof_H 	H 	0.75	0.2002	0.1001	0.027
Mof_H 	H 	0.75	0.1001	0.2002	0.027
Mof_H 	H 	0.75	0.1001	0.8999	0.043
Mof_H 	H 	0.75	0.7998	0.8999	0.059
Mof_H 	H 	0.25	0.1001	0.2002	0.023
Mof_H 	H 	0.25	0.1001	0.8999	0.039
Mof_H 	H 	0.25	0.7998	0.8999	0.055
Mof_H 	H 	0.25	0.8999	0.7998	0.055
Mof_H 	H 	0.25	0.8999	0.1001	0.039
Mof_H 	H 	0.25	0.2002	0.1001	0.023
Mof_C 	C 	0.8036	0.7357	0.5765	-0.022
Mof_C 	C 	0.8061	0.7856	0.6791	-0.022
Mof_C 	C 	0.861	0.647	0.5124	0.356
Mof_C 	C 	0.8036	0.8408	0.2643	-0.019
Mof_C 	C 	0.8061	0.8935	0.2144	-0.027
Mof_C 	C 	0.861	0.8654	0.353	0.35
Mof_C 	C 	0.8036	0.4235	0.1592	-0.031
Mof_C 	C 	0.8061	0.3209	0.1065	-0.03
Mof_C 	C 	0.861	0.4876	0.1346	0.352
Mof_C 	C 	0.8036	0.2643	0.4235	-0.028
Mof_C 	C 	0.8061	0.2144	0.3209	-0.029
Mof_C 	C 	0.861	0.353	0.4876	0.354
Mof_C 	C 	0.8036	0.1592	0.7357	-0.028
Mof_C 	C 	0.8061	0.1065	0.7856	-0.027
Mof_C 	C 	0.861	0.1346	0.647	0.353
Mof_C 	C 	0.8036	0.5765	0.8408	-0.016
Mof_C 	C 	0.8061	0.6791	0.8935	-0.023
Mof_C 	C 	0.861	0.5124	0.8654	0.35
Mof_C 	C 	0.6964	0.1592	0.4235	-0.043
Mof_C 	C 	0.6939	0.1065	0.3209	-0.028
Mof_C 	C 	0.639	0.1346	0.4876	0.36
Mof_C 	C 	0.6964	0.5765	0.7357	-0.033
Mof_C 	C 	0.6939	0.6791	0.7856	-0.02
Mof_C 	C 	0.639	0.5124	0.647	0.364
Mof_C 	C 	0.6964	0.2643	0.8408	-0.029
Mof_C 	C 	0.6939	0.2144	0.8935	-0.025
Mof_C 	C 	0.639	0.353	0.8654	0.357
Mof_C 	C 	0.6964	0.8408	0.5765	-0.027
Mof_C 	C 	0.6939	0.8935	0.6791	-0.021
Mof_C 	C 	0.639	0.8654	0.5124	0.358
Mof_C 	C 	0.6964	0.4235	0.2643	-0.04
Mof_C 	C 	0.6939	0.3209	0.2144	-0.027
Mof_C 	C 	0.639	0.4876	0.353	0.363
Mof_C 	C 	0.6964	0.7357	0.1592	-0.039
Mof_C 	C 	0.6939	0.7856	0.1065	-0.025
Mof_C 	C 	0.639	0.647	0.1346	0.361
Mof_C 	C 	0.1964	0.2643	0.4235	-0.049
Mof_C 	C 	0.1939	0.2144	0.3209	-0.023
Mof_C 	C 	0.139	0.353	0.4876	0.358
Mof_C 	C 	0.1964	0.1592	0.7357	-0.047
Mof_C 	C 	0.1939	0.1065	0.7856	-0.022
Mof_C 	C 	0.139	0.1346	0.647	0.357
Mof_C 	C 	0.1964	0.5765	0.8408	-0.035
Mof_C 	C 	0.1939	0.6791	0.8935	-0.018
Mof_C 	C 	0.139	0.5124	0.8654	0.353
Mof_C 	C 	0.1964	0.7357	0.5765	-0.041
Mof_C 	C 	0.1939	0.7856	0.6791	-0.017
Mof_C 	C 	0.139	0.647	0.5124	0.359
Mof_C 	C 	0.1964	0.8408	0.2643	-0.038
Mof_C 	C 	0.1939	0.8935	0.2144	-0.021
Mof_C 	C 	0.139	0.8654	0.353	0.353
Mof_C 	C 	0.1964	0.4235	0.1592	-0.052
Mof_C 	C 	0.1939	0.3209	0.1065	-0.025
Mof_C 	C 	0.139	0.4876	0.1346	0.356
Mof_C 	C 	0.3036	0.8408	0.5765	-0.031
Mof_C 	C 	0.3061	0.8935	0.6791	-0.017
Mof_C 	C 	0.361	0.8654	0.5124	0.358
Mof_C 	C 	0.3036	0.4235	0.2643	-0.044
Mof_C 	C 	0.3061	0.3209	0.2144	-0.023
Mof_C 	C 	0.361	0.4876	0.353	0.363
Mof_C 	C 	0.3036	0.7357	0.1592	-0.043
Mof_C 	C 	0.3061	0.7856	0.1065	-0.021
Mof_C 	C 	0.361	0.647	0.1346	0.362
Mof_C 	C 	0.3036	0.1592	0.4235	-0.047
Mof_C 	C 	0.3061	0.1065	0.3209	-0.024
Mof_C 	C 	0.361	0.1346	0.4876	0.361
Mof_C 	C 	0.3036	0.5765	0.7357	-0.037
Mof_C 	C 	0.3061	0.6791	0.7856	-0.016
Mof_C 	C 	0.361	0.5124	0.647	0.364
Mof_C 	C 	0.3036	0.2643	0.8408	-0.033
Mof_C 	C 	0.3061	0.2144	0.8935	-0.021
Mof_C 	C 	0.361	0.353	0.8654	0.358
Mof_C 	C 	0.75	0.8653	0.7306	-0.032
Mof_C 	C 	0.75	0.8653	0.1347	-0.038
Mof_C 	C 	0.75	0.2694	0.1347	-0.045
Mof_C 	C 	0.75	0.1347	0.2694	-0.045
Mof_C 	C 	0.75	0.1347	0.8653	-0.038
Mof_C 	C 	0.75	0.7306	0.8653	-0.032
Mof_C 	C 	0.25	0.1347	0.2694	-0.058
Mof_C 	C 	0.25	0.1347	0.8653	-0.05
Mof_C 	C 	0.25	0.7306	0.8653	-0.045
Mof_C 	C 	0.25	0.8653	0.7306	-0.045
Mof_C 	C 	0.25	0.8653	0.1347	-0.05
Mof_C 	C 	0.25	0.2694	0.1347	-0.058
Mof_N 	N 	0.75	0.76291	0.52582	-0.224
Mof_N 	N 	0.75	0.76291	0.23709	-0.224
Mof_N 	N 	0.75	0.47418	0.23709	-0.224
Mof_N 	N 	0.75	0.23709	0.47418	-0.224
Mof_N 	N 	0.75	0.23709	0.76291	-0.224
Mof_N 	N 	0.75	0.52582	0.76291	-0.224
Mof_N 	N 	0.25	0.23709	0.47418	-0.222
Mof_N 	N 	0.25	0.23709	0.76291	-0.222
Mof_N 	N 	0.25	0.52582	0.76291	-0.221
Mof_N 	N 	0.25	0.76291	0.52582	-0.221
Mof_N 	N 	0.25	0.76291	0.23709	-0.222
Mof_N 	N 	0.25	0.47418	0.23709	-0.222
Mof_O 	O 	0.85898	0.614	0.4186	-0.472
Mof_O 	O 	0.9057	0.6126	0.555	-0.308
Mof_O 	O 	0.85898	0.8046	0.386	-0.463
Mof_O 	O 	0.9057	0.9424	0.3874	-0.278
Mof_O 	O 	0.85898	0.5814	0.1954	-0.476
Mof_O 	O 	0.9057	0.445	0.0576	-0.318
Mof_O 	O 	0.85898	0.386	0.5814	-0.473
Mof_O 	O 	0.9057	0.3874	0.445	-0.311
Mof_O 	O 	0.85898	0.1954	0.614	-0.475
Mof_O 	O 	0.9057	0.0576	0.6126	-0.316
Mof_O 	O 	0.85898	0.4186	0.8046	-0.462
Mof_O 	O 	0.9057	0.555	0.9424	-0.276
Mof_O 	O 	0.64102	0.1954	0.5814	-0.5
Mof_O 	O 	0.5943	0.0576	0.445	-0.371
Mof_O 	O 	0.64102	0.4186	0.614	-0.496
Mof_O 	O 	0.5943	0.555	0.6126	-0.361
Mof_O 	O 	0.64102	0.386	0.8046	-0.486
Mof_O 	O 	0.5943	0.3874	0.9424	-0.33
Mof_O 	O 	0.64102	0.8046	0.4186	-0.486
Mof_O 	O 	0.5943	0.9424	0.555	-0.328
Mof_O 	O 	0.64102	0.5814	0.386	-0.497
Mof_O 	O 	0.5943	0.445	0.3874	-0.365
Mof_O 	O 	0.64102	0.614	0.1954	-0.499
Mof_O 	O 	0.5943	0.6126	0.0576	-0.369
Mof_O 	O 	0.14102	0.386	0.5814	-0.505
Mof_O 	O 	0.0943	0.3874	0.445	-0.371
Mof_O 	O 	0.14102	0.1954	0.614	-0.507
Mof_O 	O 	0.0943	0.0576	0.6126	-0.376
Mof_O 	O 	0.14102	0.4186	0.8046	-0.494
Mof_O 	O 	0.0943	0.555	0.9424	-0.334
Mof_O 	O 	0.14102	0.614	0.4186	-0.504
Mof_O 	O 	0.0943	0.6126	0.555	-0.368
Mof_O 	O 	0.14102	0.8046	0.386	-0.494
Mof_O 	O 	0.0943	0.9424	0.3874	-0.336
Mof_O 	O 	0.14102	0.5814	0.1954	-0.508
Mof_O 	O 	0.0943	0.445	0.0576	-0.378
Mof_O 	O 	0.35898	0.8046	0.4186	-0.484
Mof_O 	O 	0.4057	0.9424	0.555	-0.328
Mof_O 	O 	0.35898	0.5814	0.386	-0.495
Mof_O 	O 	0.4057	0.445	0.3874	-0.365
Mof_O 	O 	0.35898	0.614	0.1954	-0.497
Mof_O 	O 	0.4057	0.6126	0.0576	-0.369
Mof_O 	O 	0.35898	0.1954	0.5814	-0.498
Mof_O 	O 	0.4057	0.0576	0.445	-0.371
Mof_O 	O 	0.35898	0.4186	0.614	-0.494
Mof_O 	O 	0.4057	0.555	0.6126	-0.361
Mof_O 	O 	0.35898	0.386	0.8046	-0.484
Mof_O 	O 	0.4057	0.3874	0.9424	-0.33
_end
