data_functionalizedCrystal
_audit_creation_method	'EQeq! by Chris Wilmer'
_symmetry_space_group_name_H-M	'P1'
_symmetry_Int_Tables_number	1
_symmetry_cell_setting	triclinic
loop_
_symmetry_equiv_pos_as_xyz
  x,y,z
_cell_length_a	18.1402
_cell_length_b	18.1402
_cell_length_c	18.114
_cell_angle_alpha	90
_cell_angle_beta	90
_cell_angle_gamma	120
loop_
_atom_site_label
_atom_site_type_symbol
_atom_site_fract_x
_atom_site_fract_y
_atom_site_fract_z
_atom_site_charge
Mof_Cu	Cu	0.47324	0.52552	0.05833	0.924
Mof_O 	O 	0.4361	0.4137	0.0962	-0.386
Mof_O 	O 	0.4771	0.3697	0.0016	-0.388
Mof_O 	O 	0.4793	0.1103	-0	-0.366
Mof_O 	O 	0.4348	0.0219	0.101	-0.4
Mof_C 	C 	0.4442	0.3553	0.0625	0.365
Mof_C 	C 	0.4176	0.273	0.0963	-0.051
Mof_C 	C 	0.3741	0.2487	0.166	-0.08
Mof_H 	H 	0.3622	0.2859	0.1917	0.092
Mof_C 	C 	0.3505	0.1699	0.1939	0.122
Mof_C 	C 	0.371	0.1138	0.1626	-0.097
Mof_H 	H 	0.353	0.0602	0.1826	0.092
Mof_C 	C 	0.4199	0.1419	0.0998	-0.016
Mof_C 	C 	0.4419	0.2208	0.0654	-0.012
Mof_H 	H 	0.473	0.2364	0.0217	0.076
Mof_C 	C 	0.4502	0.0841	0.0661	0.334
Mof_C 	C 	0.2164	0.0468	0.4363	0.043
Mof_C 	C 	0.1465	0.0287	0.4686	-0.077
Mof_H 	H 	0.1143	0.0522	0.4519	0.07
Mof_C 	C 	0.281	0.0247	0.469	-0.069
Mof_H 	H 	0.3342	0.044	0.4477	0.063
Mof_N 	N 	0.3007	0.1413	0.2577	-0.095
Mof_N 	N 	0.2824	0.1967	0.2991	-0.045
Mof_N 	N 	0.2304	0.1502	0.3598	-0.073
Mof_C 	C 	0.2166	0.0661	0.3561	0.04
Mof_C 	C 	0.26	0.0605	0.2929	-0.001
Mof_H 	H 	0.2616	0.0125	0.2774	0.044
Mof_Cu	Cu	0.47448	0.94772	0.05833	0.923
Mof_O 	O 	0.5863	0.0224	0.0962	-0.387
Mof_O 	O 	0.6303	0.1074	0.0016	-0.388
Mof_O 	O 	0.8897	0.369	-0	-0.366
Mof_O 	O 	0.9781	0.4129	0.101	-0.4
Mof_C 	C 	0.6447	0.0889	0.0625	0.365
Mof_C 	C 	0.727	0.1446	0.0963	-0.052
Mof_C 	C 	0.7513	0.1254	0.166	-0.08
Mof_H 	H 	0.7141	0.0763	0.1917	0.092
Mof_C 	C 	0.8301	0.1806	0.1939	0.121
Mof_C 	C 	0.8862	0.2572	0.1626	-0.097
Mof_H 	H 	0.9398	0.2928	0.1826	0.092
Mof_C 	C 	0.8581	0.278	0.0998	-0.016
Mof_C 	C 	0.7792	0.2211	0.0654	-0.012
Mof_H 	H 	0.7636	0.2366	0.0217	0.076
Mof_C 	C 	0.9159	0.3661	0.0661	0.334
Mof_C 	C 	0.9532	0.1696	0.4363	0.043
Mof_C 	C 	0.9713	0.1178	0.4686	-0.078
Mof_H 	H 	0.9478	0.0621	0.4519	0.068
Mof_C 	C 	0.9753	0.2563	0.469	-0.07
Mof_H 	H 	0.956	0.2902	0.4477	0.063
Mof_N 	N 	0.8587	0.1594	0.2577	-0.095
Mof_N 	N 	0.8033	0.0857	0.2991	-0.046
Mof_N 	N 	0.8498	0.0802	0.3598	-0.074
Mof_C 	C 	0.9339	0.1505	0.3561	0.04
Mof_C 	C 	0.9395	0.1995	0.2929	-0.002
Mof_H 	H 	0.9875	0.2491	0.2774	0.044
Mof_Cu	Cu	0.05228	0.52676	0.05833	0.923
Mof_O 	O 	0.9776	0.5639	0.0962	-0.387
Mof_O 	O 	0.8926	0.5229	0.0016	-0.388
Mof_O 	O 	0.631	0.5207	-0	-0.366
Mof_O 	O 	0.5871	0.5652	0.101	-0.399
Mof_C 	C 	0.9111	0.5558	0.0625	0.365
Mof_C 	C 	0.8554	0.5824	0.0963	-0.052
Mof_C 	C 	0.8746	0.6259	0.166	-0.08
Mof_H 	H 	0.9237	0.6378	0.1917	0.092
Mof_C 	C 	0.8194	0.6495	0.1939	0.121
Mof_C 	C 	0.7428	0.629	0.1626	-0.097
Mof_H 	H 	0.7072	0.647	0.1826	0.092
Mof_C 	C 	0.722	0.5801	0.0998	-0.015
Mof_C 	C 	0.7789	0.5581	0.0654	-0.012
Mof_H 	H 	0.7634	0.527	0.0217	0.076
Mof_C 	C 	0.6339	0.5498	0.0661	0.334
Mof_C 	C 	0.8304	0.7836	0.4363	0.03
Mof_C 	C 	0.8822	0.8535	0.4686	-0.056
Mof_H 	H 	0.9379	0.8857	0.4519	0.063
Mof_C 	C 	0.7437	0.719	0.469	-0.05
Mof_H 	H 	0.7098	0.6658	0.4477	0.058
Mof_N 	N 	0.8406	0.6993	0.2577	-0.094
Mof_N 	N 	0.9143	0.7176	0.2991	-0.045
Mof_N 	N 	0.9198	0.7696	0.3598	-0.074
Mof_C 	C 	0.8495	0.7834	0.3561	0.045
Mof_C 	C 	0.8005	0.74	0.2929	-0.003
Mof_H 	H 	0.7509	0.7384	0.2774	0.046
Mof_Cu	Cu	0.52552	0.47324	0.94167	0.878
Mof_O 	O 	0.4137	0.4361	0.9038	-0.419
Mof_O 	O 	0.3697	0.4771	0.9984	-0.456
Mof_O 	O 	0.1103	0.4793	-0	-0.324
Mof_O 	O 	0.0219	0.4348	0.899	-0.398
Mof_C 	C 	0.3553	0.4442	0.9375	0.375
Mof_C 	C 	0.273	0.4176	0.9037	-0.075
Mof_C 	C 	0.2487	0.3741	0.834	-0.076
Mof_H 	H 	0.2859	0.3622	0.8083	0.083
Mof_C 	C 	0.1699	0.3505	0.8061	0.112
Mof_C 	C 	0.1138	0.371	0.8374	-0.101
Mof_H 	H 	0.0602	0.353	0.8174	0.087
Mof_C 	C 	0.1419	0.4199	0.9002	-0.019
Mof_C 	C 	0.2208	0.4419	0.9346	-0.012
Mof_H 	H 	0.2364	0.473	0.9783	0.051
Mof_C 	C 	0.0841	0.4502	0.9339	0.267
Mof_C 	C 	0.0468	0.2164	0.5637	0.02
Mof_C 	C 	0.0287	0.1465	0.5314	-0.038
Mof_H 	H 	0.0522	0.1143	0.5481	0.055
Mof_C 	C 	0.0247	0.281	0.531	-0.033
Mof_H 	H 	0.044	0.3342	0.5523	0.053
Mof_N 	N 	0.1413	0.3007	0.7423	-0.095
Mof_N 	N 	0.1967	0.2824	0.7009	-0.049
Mof_N 	N 	0.1502	0.2304	0.6402	-0.076
Mof_C 	C 	0.0661	0.2166	0.6439	0.044
Mof_C 	C 	0.0605	0.26	0.7071	-0.008
Mof_H 	H 	0.0125	0.2616	0.7226	0.041
Mof_Cu	Cu	0.94772	0.47448	0.94167	0.873
Mof_O 	O 	0.0224	0.5863	0.9038	-0.413
Mof_O 	O 	0.1074	0.6303	0.9984	-0.451
Mof_O 	O 	0.369	0.8897	-0	-0.326
Mof_O 	O 	0.4129	0.9781	0.899	-0.398
Mof_C 	C 	0.0889	0.6447	0.9375	0.374
Mof_C 	C 	0.1446	0.727	0.9037	-0.072
Mof_C 	C 	0.1254	0.7513	0.834	-0.076
Mof_H 	H 	0.0763	0.7141	0.8083	0.085
Mof_C 	C 	0.1806	0.8301	0.8061	0.114
Mof_C 	C 	0.2572	0.8862	0.8374	-0.101
Mof_H 	H 	0.2928	0.9398	0.8174	0.087
Mof_C 	C 	0.278	0.8581	0.9002	-0.018
Mof_C 	C 	0.2211	0.7792	0.9346	-0.013
Mof_H 	H 	0.2366	0.7636	0.9783	0.052
Mof_C 	C 	0.3661	0.9159	0.9339	0.269
Mof_C 	C 	0.1696	0.9532	0.5637	0.021
Mof_C 	C 	0.1178	0.9713	0.5314	-0.037
Mof_H 	H 	0.0621	0.9478	0.5481	0.058
Mof_C 	C 	0.2563	0.9753	0.531	-0.032
Mof_H 	H 	0.2902	0.956	0.5523	0.053
Mof_N 	N 	0.1594	0.8587	0.7423	-0.095
Mof_N 	N 	0.0857	0.8033	0.7009	-0.048
Mof_N 	N 	0.0802	0.8498	0.6402	-0.074
Mof_C 	C 	0.1505	0.9339	0.6439	0.046
Mof_C 	C 	0.1995	0.9395	0.7071	-0.007
Mof_H 	H 	0.2491	0.9875	0.7226	0.042
Mof_Cu	Cu	0.52676	0.05228	0.94167	0.873
Mof_O 	O 	0.5639	0.9776	0.9038	-0.414
Mof_O 	O 	0.5229	0.8926	0.9984	-0.452
Mof_O 	O 	0.5207	0.631	-0	-0.321
Mof_O 	O 	0.5652	0.5871	0.899	-0.401
Mof_C 	C 	0.5558	0.9111	0.9375	0.374
Mof_C 	C 	0.5824	0.8554	0.9037	-0.073
Mof_C 	C 	0.6259	0.8746	0.834	-0.077
Mof_H 	H 	0.6378	0.9237	0.8083	0.084
Mof_C 	C 	0.6495	0.8194	0.8061	0.113
Mof_C 	C 	0.629	0.7428	0.8374	-0.102
Mof_H 	H 	0.647	0.7072	0.8174	0.086
Mof_C 	C 	0.5801	0.722	0.9002	-0.018
Mof_C 	C 	0.5581	0.7789	0.9346	-0.014
Mof_H 	H 	0.527	0.7634	0.9783	0.051
Mof_C 	C 	0.5498	0.6339	0.9339	0.263
Mof_C 	C 	0.7836	0.8304	0.5637	0.033
Mof_C 	C 	0.8535	0.8822	0.5314	-0.059
Mof_H 	H 	0.8857	0.9379	0.5481	0.063
Mof_C 	C 	0.719	0.7437	0.531	-0.052
Mof_H 	H 	0.6658	0.7098	0.5523	0.058
Mof_N 	N 	0.6993	0.8406	0.7423	-0.096
Mof_N 	N 	0.7176	0.9143	0.7009	-0.049
Mof_N 	N 	0.7696	0.9198	0.6402	-0.075
Mof_C 	C 	0.7834	0.8495	0.6439	0.039
Mof_C 	C 	0.74	0.8005	0.7071	-0.006
Mof_H 	H 	0.7384	0.7509	0.7226	0.038
_end
