data_functionalizedCrystal
_audit_creation_method	'EQeq! by Chris Wilmer'
_symmetry_space_group_name_H-M	'P1'
_symmetry_Int_Tables_number	1
_symmetry_cell_setting	triclinic
loop_
_symmetry_equiv_pos_as_xyz
  x,y,z
_cell_length_a	46.0575
_cell_length_b	20.9442
_cell_length_c	14.1001
_cell_angle_alpha	90
_cell_angle_beta	90
_cell_angle_gamma	90
loop_
_atom_site_label
_atom_site_type_symbol
_atom_site_fract_x
_atom_site_fract_y
_atom_site_fract_z
_atom_site_charge
Mof_O 	O 	0.19061	0.06703	0.09637	-0.43
Mof_O 	O 	0.19034	0.06561	0.89886	-0.371
Mof_O 	O 	0.14191	0.06296	0.09982	-0.422
Mof_O 	O 	0.14211	0.06975	0.90767	-0.384
Mof_C 	C 	0.16677	0.08601	0.1236	0.349
Mof_C 	C 	0.1657	0.08736	0.8767	0.348
Mof_C 	C 	0.16555	0.14021	0.1918	-0.071
Mof_C 	C 	0.16574	0.14418	0.8109	-0.033
Mof_C 	C 	0.18851	0.15495	0.248	0.011
Mof_C 	C 	0.13964	0.17595	0.1972	-0.063
Mof_C 	C 	0.18909	0.15547	0.7474	-0.012
Mof_C 	C 	0.14249	0.18455	0.8108	-0.082
Mof_C 	C 	0.1874	0.20898	0.3089	-0.068
Mof_H 	H 	0.2051	0.1295	0.2467	0.049
Mof_C 	C 	0.13884	0.22832	0.2559	0.081
Mof_H 	H 	0.1234	0.1643	0.1618	0.072
Mof_H 	H 	0.2048	0.1276	0.746	0.065
Mof_C 	C 	0.1886	0.20665	0.6888	-0.035
Mof_H 	H 	0.1266	0.1765	0.8499	0.089
Mof_C 	C 	0.14264	0.23842	0.7514	0.113
Mof_C 	C 	0.21192	0.22402	0.373	0.359
Mof_C 	C 	0.16266	0.24491	0.3129	-0.06
Mof_N 	N 	0.1124	0.26577	0.2578	-0.089
Mof_C 	C 	0.21294	0.2219	0.62	0.343
Mof_C 	C 	0.16536	0.25109	0.6928	-0.086
Mof_N 	N 	0.11951	0.28306	0.7534	-0.093
Mof_O 	O 	0.22871	0.17955	0.39562	-0.405
Mof_O 	O 	0.21337	0.2802	0.40255	-0.41
Mof_H 	H 	0.1616	0.2801	0.353	0.071
Mof_N 	N 	0.09311	0.2631	0.1887	-0.056
Mof_C 	C 	0.10289	0.30195	0.3296	-0.015
Mof_O 	O 	0.22839	0.17609	0.59306	-0.399
Mof_O 	O 	0.21538	0.27936	0.59553	-0.4
Mof_H 	H 	0.1657	0.288	0.6562	0.093
Mof_C 	C 	0.10232	0.29937	0.8271	-0.001
Mof_N 	N 	0.11492	0.3239	0.6805	-0.045
Mof_Cu	Cu	0.25846	0.18946	0.49657	0.902
Mof_N 	N 	0.07085	0.29779	0.2143	-0.089
Mof_H 	H 	0.1125	0.3116	0.3858	0.044
Mof_C 	C 	0.07597	0.3216	0.3022	0.058
Mof_H 	H 	0.1018	0.2804	0.8867	0.052
Mof_C 	C 	0.08568	0.35014	0.7954	0.05
Mof_N 	N 	0.09383	0.36235	0.704	-0.078
Mof_C 	C 	0.05614	0.36595	0.3509	-0.008
Mof_C 	C 	0.06297	0.38649	0.8453	0.033
Mof_C 	C 	0.03003	0.38689	0.30895	-0.021
Mof_C 	C 	0.0619	0.3854	0.441	-0.025
Mof_C 	C 	0.05343	0.36787	0.932	-0.097
Mof_C 	C 	0.05266	0.44319	0.8078	-0.033
Mof_H 	H 	0.0246	0.3713	0.2498	0.043
Mof_C 	C 	0.0125	0.43023	0.3548	-0.095
Mof_C 	C 	0.04429	0.42929	0.4883	-0.085
Mof_H 	H 	0.0781	0.3689	0.4721	0.05
Mof_H 	H 	0.0608	0.3308	0.9592	0.092
Mof_C 	C 	0.03278	0.40356	0.9809	0.053
Mof_H 	H 	0.0597	0.4578	0.75	0.054
Mof_C 	C 	0.03222	0.47779	0.85511	-0.097
Mof_H 	H 	0.9955	0.4438	0.3252	0.064
Mof_C 	C 	0.01919	0.45409	0.44269	0.063
Mof_H 	H 	0.049	0.4423	0.5495	0.069
Mof_H 	H 	0.0268	0.3905	0.0409	-0.023
Mof_C 	C 	0.02096	0.45829	0.94126	0.102
Mof_H 	H 	0.0256	0.5158	0.8286	0.071
Mof_O 	O 	0.69061	0.56703	0.09637	-0.422
Mof_O 	O 	0.69034	0.56561	0.89886	-0.364
Mof_O 	O 	0.64191	0.56296	0.09982	-0.413
Mof_O 	O 	0.64211	0.56975	0.90767	-0.376
Mof_C 	C 	0.66677	0.58601	0.1236	0.348
Mof_C 	C 	0.6657	0.58736	0.8767	0.348
Mof_C 	C 	0.66555	0.64021	0.1918	-0.064
Mof_C 	C 	0.66574	0.64418	0.8109	-0.027
Mof_C 	C 	0.68851	0.65495	0.248	0.008
Mof_C 	C 	0.63964	0.67595	0.1972	-0.065
Mof_C 	C 	0.68909	0.65547	0.7474	-0.015
Mof_C 	C 	0.64249	0.68455	0.8108	-0.085
Mof_C 	C 	0.6874	0.70898	0.3089	-0.062
Mof_H 	H 	0.7051	0.6295	0.2467	0.054
Mof_C 	C 	0.63884	0.72832	0.2559	0.086
Mof_H 	H 	0.6234	0.6643	0.1618	0.075
Mof_H 	H 	0.7048	0.6276	0.746	0.07
Mof_C 	C 	0.6886	0.70665	0.6888	-0.03
Mof_H 	H 	0.6266	0.6765	0.8499	0.092
Mof_C 	C 	0.64264	0.73842	0.7514	0.118
Mof_C 	C 	0.71192	0.72402	0.373	0.357
Mof_C 	C 	0.66266	0.74491	0.3129	-0.063
Mof_N 	N 	0.6124	0.76577	0.2578	-0.087
Mof_C 	C 	0.71294	0.7219	0.62	0.341
Mof_C 	C 	0.66536	0.75109	0.6928	-0.089
Mof_N 	N 	0.61951	0.78306	0.7534	-0.093
Mof_O 	O 	0.72871	0.67955	0.39562	-0.401
Mof_O 	O 	0.71337	0.7802	0.40255	-0.406
Mof_H 	H 	0.6616	0.7801	0.353	0.074
Mof_N 	N 	0.59311	0.7631	0.1887	-0.054
Mof_C 	C 	0.60289	0.80195	0.3296	-0.018
Mof_O 	O 	0.72839	0.67609	0.59306	-0.394
Mof_O 	O 	0.71538	0.77936	0.59553	-0.397
Mof_H 	H 	0.6657	0.788	0.6562	0.096
Mof_C 	C 	0.60232	0.79937	0.8271	0.004
Mof_N 	N 	0.61492	0.8239	0.6805	-0.043
Mof_Cu	Cu	0.75846	0.68946	0.49657	0.904
Mof_N 	N 	0.57085	0.79779	0.2143	-0.088
Mof_H 	H 	0.6125	0.8116	0.3858	0.048
Mof_C 	C 	0.57597	0.8216	0.3022	0.069
Mof_H 	H 	0.6018	0.7804	0.8867	0.052
Mof_C 	C 	0.58568	0.85014	0.7954	0.047
Mof_N 	N 	0.59383	0.86235	0.704	-0.075
Mof_C 	C 	0.55614	0.86595	0.3509	-0.027
Mof_C 	C 	0.56297	0.88649	0.8453	0.047
Mof_C 	C 	0.53003	0.88689	0.30895	0.012
Mof_C 	C 	0.5619	0.8854	0.441	0.007
Mof_C 	C 	0.55343	0.86787	0.932	-0.098
Mof_C 	C 	0.55266	0.94319	0.8078	-0.065
Mof_H 	H 	0.5246	0.8713	0.2498	0.032
Mof_C 	C 	0.5125	0.93023	0.3548	-0.138
Mof_C 	C 	0.54429	0.92929	0.4883	-0.121
Mof_H 	H 	0.5781	0.8689	0.4721	0.042
Mof_H 	H 	0.5608	0.8308	0.9592	0.094
Mof_C 	C 	0.53278	0.90356	0.9809	0.043
Mof_H 	H 	0.5597	0.9578	0.75	0.073
Mof_C 	C 	0.53222	0.97779	0.85511	-0.035
Mof_H 	H 	0.4955	0.9438	0.3252	0.086
Mof_C 	C 	0.51919	0.95409	0.44269	0.129
Mof_H 	H 	0.549	0.9423	0.5495	0.089
Mof_H 	H 	0.5268	0.8905	0.0409	-0.015
Mof_C 	C 	0.52096	0.95829	0.94126	0.124
Mof_H 	H 	0.5256	0.0158	0.8286	0.029
Mof_O 	O 	0.80939	0.93297	0.09637	-0.406
Mof_O 	O 	0.80966	0.93439	0.89886	-0.349
Mof_O 	O 	0.85809	0.93704	0.09982	-0.395
Mof_O 	O 	0.85789	0.93025	0.90767	-0.362
Mof_C 	C 	0.83323	0.91399	0.1236	0.344
Mof_C 	C 	0.8343	0.91264	0.8767	0.344
Mof_C 	C 	0.83445	0.85979	0.1918	-0.057
Mof_C 	C 	0.83426	0.85582	0.8109	-0.022
Mof_C 	C 	0.81149	0.84505	0.248	0.005
Mof_C 	C 	0.86036	0.82405	0.1972	-0.068
Mof_C 	C 	0.81091	0.84453	0.7474	-0.017
Mof_C 	C 	0.85751	0.81545	0.8108	-0.087
Mof_C 	C 	0.8126	0.79102	0.3089	-0.06
Mof_H 	H 	0.7949	0.8705	0.2467	0.059
Mof_C 	C 	0.86116	0.77168	0.2559	0.088
Mof_H 	H 	0.8766	0.8357	0.1618	0.079
Mof_H 	H 	0.7952	0.8724	0.746	0.074
Mof_C 	C 	0.8114	0.79335	0.6888	-0.027
Mof_H 	H 	0.8734	0.8235	0.8499	0.095
Mof_C 	C 	0.85736	0.76158	0.7514	0.119
Mof_C 	C 	0.78808	0.77598	0.373	0.356
Mof_C 	C 	0.83734	0.75509	0.3129	-0.064
Mof_N 	N 	0.8876	0.73423	0.2578	-0.088
Mof_C 	C 	0.78706	0.7781	0.62	0.341
Mof_C 	C 	0.83464	0.74891	0.6928	-0.09
Mof_N 	N 	0.88049	0.71694	0.7534	-0.092
Mof_O 	O 	0.77129	0.82045	0.39562	-0.397
Mof_O 	O 	0.78663	0.7198	0.40255	-0.409
Mof_H 	H 	0.8384	0.7199	0.353	0.073
Mof_N 	N 	0.90689	0.7369	0.1887	-0.053
Mof_C 	C 	0.89711	0.69805	0.3296	-0.013
Mof_O 	O 	0.77161	0.82391	0.59306	-0.39
Mof_O 	O 	0.78462	0.72064	0.59553	-0.399
Mof_H 	H 	0.8343	0.712	0.6562	0.095
Mof_C 	C 	0.89768	0.70063	0.8271	0.001
Mof_N 	N 	0.88508	0.6761	0.6805	-0.044
Mof_Cu	Cu	0.74154	0.81054	0.49657	0.906
Mof_N 	N 	0.92915	0.70221	0.2143	-0.087
Mof_H 	H 	0.8875	0.6884	0.3858	0.045
Mof_C 	C 	0.92403	0.6784	0.3022	0.06
Mof_H 	H 	0.8982	0.7196	0.8867	0.053
Mof_C 	C 	0.91432	0.64986	0.7954	0.051
Mof_N 	N 	0.90617	0.63765	0.704	-0.078
Mof_C 	C 	0.94386	0.63405	0.3509	-0.007
Mof_C 	C 	0.93703	0.61351	0.8453	0.033
Mof_C 	C 	0.96997	0.61311	0.30895	-0.02
Mof_C 	C 	0.9381	0.6146	0.441	-0.025
Mof_C 	C 	0.94657	0.63213	0.932	-0.095
Mof_C 	C 	0.94734	0.55681	0.8078	-0.033
Mof_H 	H 	0.9754	0.6287	0.2498	0.044
Mof_C 	C 	0.9875	0.56977	0.3548	-0.096
Mof_C 	C 	0.95571	0.57071	0.4883	-0.085
Mof_H 	H 	0.9219	0.6311	0.4721	0.051
Mof_H 	H 	0.9392	0.6692	0.9592	0.094
Mof_C 	C 	0.96722	0.59644	0.9809	0.051
Mof_H 	H 	0.9403	0.5422	0.75	0.054
Mof_C 	C 	0.96778	0.52221	0.85511	-0.097
Mof_H 	H 	0.0045	0.5562	0.3252	0.066
Mof_C 	C 	0.98081	0.54591	0.44269	0.063
Mof_H 	H 	0.951	0.5577	0.5495	0.069
Mof_H 	H 	0.9732	0.6095	0.0409	-0.021
Mof_C 	C 	0.97904	0.54171	0.94126	0.102
Mof_H 	H 	0.9744	0.4842	0.8286	0.071
Mof_O 	O 	0.30939	0.43297	0.09637	-0.423
Mof_O 	O 	0.30966	0.43439	0.89886	-0.364
Mof_O 	O 	0.35809	0.43704	0.09982	-0.413
Mof_O 	O 	0.35789	0.43025	0.90767	-0.376
Mof_C 	C 	0.33323	0.41399	0.1236	0.348
Mof_C 	C 	0.3343	0.41264	0.8767	0.348
Mof_C 	C 	0.33445	0.35979	0.1918	-0.066
Mof_C 	C 	0.33426	0.35582	0.8109	-0.029
Mof_C 	C 	0.31149	0.34505	0.248	0.009
Mof_C 	C 	0.36036	0.32405	0.1972	-0.064
Mof_C 	C 	0.31091	0.34453	0.7474	-0.013
Mof_C 	C 	0.35751	0.31545	0.8108	-0.083
Mof_C 	C 	0.3126	0.29102	0.3089	-0.066
Mof_H 	H 	0.2949	0.3705	0.2467	0.053
Mof_C 	C 	0.36116	0.27168	0.2559	0.082
Mof_H 	H 	0.3766	0.3357	0.1618	0.074
Mof_H 	H 	0.2952	0.3724	0.746	0.069
Mof_C 	C 	0.3114	0.29335	0.6888	-0.033
Mof_H 	H 	0.3734	0.3235	0.8499	0.091
Mof_C 	C 	0.35736	0.26158	0.7514	0.114
Mof_C 	C 	0.28808	0.27598	0.373	0.359
Mof_C 	C 	0.33734	0.25509	0.3129	-0.061
Mof_N 	N 	0.3876	0.23423	0.2578	-0.089
Mof_C 	C 	0.28706	0.2781	0.62	0.343
Mof_C 	C 	0.33464	0.24891	0.6928	-0.087
Mof_N 	N 	0.38049	0.21694	0.7534	-0.091
Mof_O 	O 	0.27129	0.32045	0.39562	-0.402
Mof_O 	O 	0.28663	0.2198	0.40255	-0.412
Mof_H 	H 	0.3384	0.2199	0.353	0.069
Mof_N 	N 	0.40689	0.2369	0.1887	-0.056
Mof_C 	C 	0.39711	0.19805	0.3296	-0.018
Mof_O 	O 	0.27161	0.32391	0.59306	-0.395
Mof_O 	O 	0.28462	0.22064	0.59553	-0.402
Mof_H 	H 	0.3343	0.212	0.6562	0.091
Mof_C 	C 	0.39768	0.20063	0.8271	-0.011
Mof_N 	N 	0.38508	0.1761	0.6805	-0.046
Mof_Cu	Cu	0.24154	0.31054	0.49657	0.904
Mof_N 	N 	0.42915	0.20221	0.2143	-0.089
Mof_H 	H 	0.3875	0.1884	0.3858	0.044
Mof_C 	C 	0.42403	0.1784	0.3022	0.061
Mof_H 	H 	0.3982	0.2196	0.8867	0.057
Mof_C 	C 	0.41432	0.14986	0.7954	0.068
Mof_N 	N 	0.40617	0.13765	0.704	-0.083
Mof_C 	C 	0.44386	0.13405	0.3509	-0.019
Mof_C 	C 	0.43703	0.11351	0.8453	-0.022
Mof_C 	C 	0.46997	0.11311	0.30895	-0.01
Mof_C 	C 	0.4381	0.1146	0.441	-0.015
Mof_C 	C 	0.44657	0.13213	0.932	-0.042
Mof_C 	C 	0.44734	0.05681	0.8078	0.053
Mof_H 	H 	0.4754	0.1287	0.2498	0.039
Mof_C 	C 	0.4875	0.06977	0.3548	-0.117
Mof_C 	C 	0.45571	0.07071	0.4883	-0.105
Mof_H 	H 	0.4219	0.1311	0.4721	0.044
Mof_H 	H 	0.4392	0.1692	0.9592	0.074
Mof_C 	C 	0.46722	0.09644	0.9809	-0.009
Mof_H 	H 	0.4403	0.0422	0.75	0.016
Mof_C 	C 	0.46778	0.02221	0.85511	-0.23
Mof_H 	H 	0.5045	0.0562	0.3252	0.066
Mof_C 	C 	0.48081	0.04591	0.44269	0.081
Mof_H 	H 	0.451	0.0577	0.5495	0.07
Mof_H 	H 	0.4732	0.1095	0.0409	-0.003
Mof_C 	C 	0.47904	0.04171	0.94126	0.172
Mof_H 	H 	0.4744	0.9842	0.8286	0.139
Mof_O 	O 	0.80939	0.06703	0.90363	-0.381
Mof_O 	O 	0.80966	0.06561	0.10114	-0.42
Mof_O 	O 	0.85809	0.06296	0.90018	-0.375
Mof_O 	O 	0.85789	0.06975	0.09233	-0.434
Mof_C 	C 	0.83323	0.08601	0.8764	0.343
Mof_C 	C 	0.8343	0.08736	0.1233	0.358
Mof_C 	C 	0.83445	0.14021	0.8082	-0.044
Mof_C 	C 	0.83426	0.14418	0.1891	-0.06
Mof_C 	C 	0.81149	0.15495	0.752	0.001
Mof_C 	C 	0.86036	0.17595	0.8028	-0.072
Mof_C 	C 	0.81091	0.15547	0.2526	-0.003
Mof_C 	C 	0.85751	0.18455	0.1892	-0.072
Mof_C 	C 	0.8126	0.20898	0.6911	-0.052
Mof_H 	H 	0.7949	0.1295	0.7533	0.061
Mof_C 	C 	0.86116	0.22832	0.7441	0.101
Mof_H 	H 	0.8766	0.1643	0.8382	0.095
Mof_H 	H 	0.7952	0.1276	0.254	0.053
Mof_C 	C 	0.8114	0.20665	0.3112	-0.049
Mof_H 	H 	0.8734	0.1765	0.1501	0.068
Mof_C 	C 	0.85736	0.23842	0.2486	0.095
Mof_C 	C 	0.78808	0.22402	0.627	0.357
Mof_C 	C 	0.83734	0.24491	0.6871	-0.068
Mof_N 	N 	0.8876	0.26577	0.7422	-0.087
Mof_C 	C 	0.78706	0.2219	0.38	0.344
Mof_C 	C 	0.83464	0.25109	0.3072	-0.08
Mof_N 	N 	0.88049	0.28306	0.2466	-0.09
Mof_O 	O 	0.77129	0.17955	0.60438	-0.4
Mof_O 	O 	0.78663	0.2802	0.59745	-0.404
Mof_H 	H 	0.8384	0.2801	0.647	0.077
Mof_N 	N 	0.90689	0.2631	0.8113	-0.034
Mof_C 	C 	0.89711	0.30195	0.6704	-0.009
Mof_O 	O 	0.77161	0.17609	0.40694	-0.403
Mof_O 	O 	0.78462	0.27936	0.40447	-0.405
Mof_H 	H 	0.8343	0.288	0.3438	0.087
Mof_C 	C 	0.89768	0.29937	0.1729	-0.033
Mof_N 	N 	0.88508	0.3239	0.3195	-0.048
Mof_Cu	Cu	0.74154	0.18946	0.50343	0.902
Mof_N 	N 	0.92915	0.29779	0.7857	-0.074
Mof_H 	H 	0.8875	0.3116	0.6142	0.044
Mof_C 	C 	0.92403	0.3216	0.6978	0.061
Mof_H 	H 	0.8982	0.2804	0.1133	0.041
Mof_C 	C 	0.91432	0.35014	0.2046	0.092
Mof_N 	N 	0.90617	0.36235	0.296	-0.088
Mof_C 	C 	0.94386	0.36595	0.6491	-0.002
Mof_C 	C 	0.93703	0.38649	0.1547	-0.117
Mof_C 	C 	0.96997	0.38689	0.69105	-0.021
Mof_C 	C 	0.9381	0.3854	0.559	-0.027
Mof_C 	C 	0.94657	0.36787	0.068	0.144
Mof_C 	C 	0.94734	0.44319	0.1922	0.093
Mof_H 	H 	0.9754	0.3713	0.7502	0.049
Mof_C 	C 	0.9875	0.43023	0.6452	-0.094
Mof_C 	C 	0.95571	0.42929	0.5117	-0.084
Mof_H 	H 	0.9219	0.3689	0.5279	0.051
Mof_H 	H 	0.9392	0.3308	0.0408	-0.03
Mof_C 	C 	0.96722	0.40356	0.0191	-0.358
Mof_H 	H 	0.9403	0.4578	0.25	0.006
Mof_C 	C 	0.96778	0.47779	0.14489	-0.227
Mof_H 	H 	0.0045	0.4438	0.6748	0.065
Mof_C 	C 	0.98081	0.45409	0.55731	0.062
Mof_H 	H 	0.951	0.4423	0.4505	0.068
Mof_H 	H 	0.9732	0.3905	0.9591	0.206
Mof_C 	C 	0.97904	0.45829	0.05874	0.205
Mof_H 	H 	0.9744	0.5158	0.1714	0.107
Mof_O 	O 	0.30939	0.56703	0.90363	-0.373
Mof_O 	O 	0.30966	0.56561	0.10114	-0.411
Mof_O 	O 	0.35809	0.56296	0.90018	-0.367
Mof_O 	O 	0.35789	0.56975	0.09233	-0.425
Mof_C 	C 	0.33323	0.58601	0.8764	0.342
Mof_C 	C 	0.3343	0.58736	0.1233	0.357
Mof_C 	C 	0.33445	0.64021	0.8082	-0.038
Mof_C 	C 	0.33426	0.64418	0.1891	-0.053
Mof_C 	C 	0.31149	0.65495	0.752	-0.002
Mof_C 	C 	0.36036	0.67595	0.8028	-0.074
Mof_C 	C 	0.31091	0.65547	0.2526	-0.006
Mof_C 	C 	0.35751	0.68455	0.1892	-0.075
Mof_C 	C 	0.3126	0.70898	0.6911	-0.047
Mof_H 	H 	0.2949	0.6295	0.7533	0.066
Mof_C 	C 	0.36116	0.72832	0.7441	0.105
Mof_H 	H 	0.3766	0.6643	0.8382	0.098
Mof_H 	H 	0.2952	0.6276	0.254	0.059
Mof_C 	C 	0.3114	0.70665	0.3112	-0.043
Mof_H 	H 	0.3734	0.6765	0.1501	0.071
Mof_C 	C 	0.35736	0.73842	0.2486	0.1
Mof_C 	C 	0.28808	0.72402	0.627	0.355
Mof_C 	C 	0.33734	0.74491	0.6871	-0.07
Mof_N 	N 	0.3876	0.76577	0.7422	-0.086
Mof_C 	C 	0.28706	0.7219	0.38	0.342
Mof_C 	C 	0.33464	0.75109	0.3072	-0.082
Mof_N 	N 	0.38049	0.78306	0.2466	-0.091
Mof_O 	O 	0.27129	0.67955	0.60438	-0.396
Mof_O 	O 	0.28663	0.7802	0.59745	-0.401
Mof_H 	H 	0.3384	0.7801	0.647	0.08
Mof_N 	N 	0.40689	0.7631	0.8113	-0.033
Mof_C 	C 	0.39711	0.80195	0.6704	-0.012
Mof_O 	O 	0.27161	0.67609	0.40694	-0.398
Mof_O 	O 	0.28462	0.77936	0.40447	-0.402
Mof_H 	H 	0.3343	0.788	0.3438	0.09
Mof_C 	C 	0.39768	0.79937	0.1729	-0.027
Mof_N 	N 	0.38508	0.8239	0.3195	-0.045
Mof_Cu	Cu	0.24154	0.68946	0.50343	0.904
Mof_N 	N 	0.42915	0.79779	0.7857	-0.074
Mof_H 	H 	0.3875	0.8116	0.6142	0.047
Mof_C 	C 	0.42403	0.8216	0.6978	0.071
Mof_H 	H 	0.3982	0.7804	0.1133	0.041
Mof_C 	C 	0.41432	0.85014	0.2046	0.087
Mof_N 	N 	0.40617	0.86235	0.296	-0.084
Mof_C 	C 	0.44386	0.86595	0.6491	-0.021
Mof_C 	C 	0.43703	0.88649	0.1547	-0.094
Mof_C 	C 	0.46997	0.88689	0.69105	0.011
Mof_C 	C 	0.4381	0.8854	0.559	0.004
Mof_C 	C 	0.44657	0.86787	0.068	0.132
Mof_C 	C 	0.44734	0.94319	0.1922	0.052
Mof_H 	H 	0.4754	0.8713	0.7502	0.038
Mof_C 	C 	0.4875	0.93023	0.6452	-0.135
Mof_C 	C 	0.45571	0.92929	0.5117	-0.119
Mof_H 	H 	0.4219	0.8689	0.5279	0.043
Mof_H 	H 	0.4392	0.8308	0.0408	-0.023
Mof_C 	C 	0.46722	0.90356	0.0191	-0.351
Mof_H 	H 	0.4403	0.9578	0.25	0.029
Mof_C 	C 	0.46778	0.97779	0.14489	-0.154
Mof_H 	H 	0.5045	0.9438	0.6748	0.085
Mof_C 	C 	0.48081	0.95409	0.55731	0.127
Mof_H 	H 	0.451	0.9423	0.4505	0.089
Mof_H 	H 	0.4732	0.8905	0.9591	0.205
Mof_C 	C 	0.47904	0.95829	0.05874	0.221
Mof_H 	H 	0.4744	0.0158	0.1714	0.059
Mof_O 	O 	0.19061	0.93297	0.90363	-0.359
Mof_O 	O 	0.19034	0.93439	0.10114	-0.394
Mof_O 	O 	0.14191	0.93704	0.90018	-0.351
Mof_O 	O 	0.14211	0.93025	0.09233	-0.408
Mof_C 	C 	0.16677	0.91399	0.8764	0.339
Mof_C 	C 	0.1657	0.91264	0.1233	0.353
Mof_C 	C 	0.16555	0.85979	0.8082	-0.032
Mof_C 	C 	0.16574	0.85582	0.1891	-0.047
Mof_C 	C 	0.18851	0.84505	0.752	-0.004
Mof_C 	C 	0.13964	0.82405	0.8028	-0.076
Mof_C 	C 	0.18909	0.84453	0.2526	-0.008
Mof_C 	C 	0.14249	0.81545	0.1892	-0.077
Mof_C 	C 	0.1874	0.79102	0.6911	-0.045
Mof_H 	H 	0.2051	0.8705	0.7533	0.071
Mof_C 	C 	0.13884	0.77168	0.7441	0.107
Mof_H 	H 	0.1234	0.8357	0.8382	0.101
Mof_H 	H 	0.2048	0.8724	0.254	0.064
Mof_C 	C 	0.1886	0.79335	0.3112	-0.04
Mof_H 	H 	0.1266	0.8235	0.1501	0.074
Mof_C 	C 	0.14264	0.76158	0.2486	0.102
Mof_C 	C 	0.21192	0.77598	0.627	0.355
Mof_C 	C 	0.16266	0.75509	0.6871	-0.071
Mof_N 	N 	0.1124	0.73423	0.7422	-0.087
Mof_C 	C 	0.21294	0.7781	0.38	0.342
Mof_C 	C 	0.16536	0.74891	0.3072	-0.084
Mof_N 	N 	0.11951	0.71694	0.2466	-0.09
Mof_O 	O 	0.22871	0.82045	0.60438	-0.392
Mof_O 	O 	0.21337	0.7198	0.59745	-0.403
Mof_H 	H 	0.1616	0.7199	0.647	0.079
Mof_N 	N 	0.09311	0.7369	0.8113	-0.032
Mof_C 	C 	0.10289	0.69805	0.6704	-0.007
Mof_O 	O 	0.22839	0.82391	0.40694	-0.394
Mof_O 	O 	0.21538	0.72064	0.40447	-0.404
Mof_H 	H 	0.1657	0.712	0.3438	0.089
Mof_C 	C 	0.10232	0.70063	0.1729	-0.031
Mof_N 	N 	0.11492	0.6761	0.3195	-0.047
Mof_Cu	Cu	0.25846	0.81054	0.50343	0.906
Mof_N 	N 	0.07085	0.70221	0.7857	-0.072
Mof_H 	H 	0.1125	0.6884	0.6142	0.044
Mof_C 	C 	0.07597	0.6784	0.6978	0.062
Mof_H 	H 	0.1018	0.7196	0.1133	0.043
Mof_C 	C 	0.08568	0.64986	0.2046	0.093
Mof_N 	N 	0.09383	0.63765	0.296	-0.087
Mof_C 	C 	0.05614	0.63405	0.6491	0
Mof_C 	C 	0.06297	0.61351	0.1547	-0.115
Mof_C 	C 	0.03003	0.61311	0.69105	-0.022
Mof_C 	C 	0.0619	0.6146	0.559	-0.028
Mof_C 	C 	0.05343	0.63213	0.068	0.143
Mof_C 	C 	0.05266	0.55681	0.1922	0.092
Mof_H 	H 	0.0246	0.6287	0.7502	0.051
Mof_C 	C 	0.0125	0.56977	0.6452	-0.091
Mof_C 	C 	0.04429	0.57071	0.5117	-0.082
Mof_H 	H 	0.0781	0.6311	0.5279	0.052
Mof_H 	H 	0.0608	0.6692	0.0408	-0.027
Mof_C 	C 	0.03278	0.59644	0.0191	-0.355
Mof_H 	H 	0.0597	0.5422	0.25	0.007
Mof_C 	C 	0.03222	0.52221	0.14489	-0.226
Mof_H 	H 	0.9955	0.5562	0.6748	0.064
Mof_C 	C 	0.01919	0.54591	0.55731	0.061
Mof_H 	H 	0.049	0.5577	0.4505	0.068
Mof_H 	H 	0.0268	0.6095	0.9591	0.206
Mof_C 	C 	0.02096	0.54171	0.05874	0.204
Mof_H 	H 	0.0256	0.4842	0.1714	0.107
Mof_O 	O 	0.69061	0.43297	0.90363	-0.374
Mof_O 	O 	0.69034	0.43439	0.10114	-0.411
Mof_O 	O 	0.64191	0.43704	0.90018	-0.367
Mof_O 	O 	0.64211	0.43025	0.09233	-0.425
Mof_C 	C 	0.66677	0.41399	0.8764	0.342
Mof_C 	C 	0.6657	0.41264	0.1233	0.357
Mof_C 	C 	0.66555	0.35979	0.8082	-0.039
Mof_C 	C 	0.66574	0.35582	0.1891	-0.056
Mof_C 	C 	0.68851	0.34505	0.752	-0
Mof_C 	C 	0.63964	0.32405	0.8028	-0.073
Mof_C 	C 	0.68909	0.34453	0.2526	-0.004
Mof_C 	C 	0.64249	0.31545	0.1892	-0.073
Mof_C 	C 	0.6874	0.29102	0.6911	-0.051
Mof_H 	H 	0.7051	0.3705	0.7533	0.065
Mof_C 	C 	0.63884	0.27168	0.7441	0.102
Mof_H 	H 	0.6234	0.3357	0.8382	0.098
Mof_H 	H 	0.7048	0.3724	0.254	0.058
Mof_C 	C 	0.6886	0.29335	0.3112	-0.047
Mof_H 	H 	0.6266	0.3235	0.1501	0.07
Mof_C 	C 	0.64264	0.26158	0.2486	0.096
Mof_C 	C 	0.71192	0.27598	0.627	0.357
Mof_C 	C 	0.66266	0.25509	0.6871	-0.068
Mof_N 	N 	0.6124	0.23423	0.7422	-0.087
Mof_C 	C 	0.71294	0.2781	0.38	0.344
Mof_C 	C 	0.66536	0.24891	0.3072	-0.08
Mof_N 	N 	0.61951	0.21694	0.2466	-0.089
Mof_O 	O 	0.72871	0.32045	0.60438	-0.397
Mof_O 	O 	0.71337	0.2198	0.59745	-0.406
Mof_H 	H 	0.6616	0.2199	0.647	0.076
Mof_N 	N 	0.59311	0.2369	0.8113	-0.034
Mof_C 	C 	0.60289	0.19805	0.6704	-0.011
Mof_O 	O 	0.72839	0.32391	0.40694	-0.399
Mof_O 	O 	0.71538	0.22064	0.40447	-0.407
Mof_H 	H 	0.6657	0.212	0.3438	0.085
Mof_C 	C 	0.60232	0.20063	0.1729	-0.045
Mof_N 	N 	0.61492	0.1761	0.3195	-0.049
Mof_Cu	Cu	0.75846	0.31054	0.50343	0.904
Mof_N 	N 	0.57085	0.20221	0.7857	-0.074
Mof_H 	H 	0.6125	0.1884	0.6142	0.043
Mof_C 	C 	0.57597	0.1784	0.6978	0.063
Mof_H 	H 	0.6018	0.2196	0.1133	0.046
Mof_C 	C 	0.58568	0.14986	0.2046	0.112
Mof_N 	N 	0.59383	0.13765	0.296	-0.093
Mof_C 	C 	0.55614	0.13405	0.6491	-0.013
Mof_C 	C 	0.56297	0.11351	0.1547	-0.175
Mof_C 	C 	0.53003	0.11311	0.69105	-0.011
Mof_C 	C 	0.5619	0.1146	0.559	-0.018
Mof_C 	C 	0.55343	0.13213	0.068	0.203
Mof_C 	C 	0.55266	0.05681	0.1922	0.185
Mof_H 	H 	0.5246	0.1287	0.7502	0.045
Mof_C 	C 	0.5125	0.06977	0.6452	-0.113
Mof_C 	C 	0.54429	0.07071	0.5117	-0.103
Mof_H 	H 	0.5781	0.1311	0.5279	0.046
Mof_H 	H 	0.5608	0.1692	0.0408	-0.05
Mof_C 	C 	0.53278	0.09644	0.0191	-0.425
Mof_H 	H 	0.5597	0.0422	0.25	-0.035
Mof_C 	C 	0.53222	0.02221	0.14489	-0.369
Mof_H 	H 	0.4955	0.0562	0.6748	0.066
Mof_C 	C 	0.51919	0.04591	0.55731	0.08
Mof_H 	H 	0.549	0.0577	0.4505	0.069
Mof_H 	H 	0.5268	0.1095	0.9591	0.228
Mof_C 	C 	0.52096	0.04171	0.05874	0.28
Mof_H 	H 	0.5256	0.9842	0.1714	0.18
Mof_Cu	Cu	0.19512	0	-0	0.859
Mof_Cu	Cu	0.13755	0	-0	0.863
Mof_Cu	Cu	0.69512	0.5	-0	0.873
Mof_Cu	Cu	0.63755	0.5	-0	0.878
Mof_Cu	Cu	0.80488	0	-0	0.859
Mof_Cu	Cu	0.86245	0	-0	0.863
Mof_Cu	Cu	0.30488	0.5	-0	0.873
Mof_Cu	Cu	0.36245	0.5	-0	0.878
Mof_C 	C 	5.73923e-34	0.5	0.5	-0.085
Mof_C 	C 	0.5	0	0.5	-0.164
Mof_C 	C 	-0	0.5	-0	-0.25
Mof_C 	C 	0.5	0	-0	-0.333
_end
