# CIF file generated by openbabel 3.1.0, see https://openbabel.org
data_I
_chemical_name_common 'image0'
_cell_length_a 19.936
_cell_length_b 10.251
_cell_length_c 17.91
_cell_angle_alpha 90
_cell_angle_beta 94.734
_cell_angle_gamma 90
_space_group_name_H-M_alt 'P 1'
_space_group_name_Hall 'P 1'
loop_
    _symmetry_equiv_pos_as_xyz
    x,y,z
loop_
    _atom_site_label
    _atom_site_type_symbol
    _atom_site_fract_x
    _atom_site_fract_y
    _atom_site_fract_z
    _atom_site_occupancy
    Co1      Co       0.85554    0.25313    0.93508    1.000
    Co2      Co       0.75209    0.45256    0.83525    1.000
    O1       O        0.77057    0.25610    0.98789    1.000
    O2       O        0.69552    0.36530    0.91091    1.000
    O3       O        0.70467    0.11280    0.23735    1.000
    O4       O        0.59436    0.11660    0.25543    1.000
    O5       O        0.48205    0.35560    0.03765    1.000
    O6       O        0.41492    0.45580    0.14499    1.000
    O7       O        0.31088    0.38370    0.15873    1.000
    O8       O        0.90395    0.12060    0.00233    1.000
    O9       O        0.83788    0.03270    0.91195    1.000
    O10      O        0.81129    0.55050    0.91540    1.000
    O11      O        0.89248    0.42600    0.97355    1.000
    O12      O        0.03797    0.75180    0.12392    1.000
    O13      O        0.17173    0.69120    0.17075    1.000
    O14      O        0.16099    0.51780    0.24049    1.000
    C1       C        0.71398    0.30620    0.97030    1.000
    C2       C        0.66187    0.29160    0.02730    1.000
    C3       C        0.59636    0.33450    0.00790    1.000
    H1       H        0.58550    0.37590    0.96230    1.000
    C4       C        0.54762    0.31420    0.05790    1.000
    C5       C        0.56315    0.25390    0.12630    1.000
    H2       H        0.52990    0.24160    0.15900    1.000
    C6       C        0.62873    0.21160    0.14600    1.000
    C7       C        0.67840    0.23000    0.09530    1.000
    H3       H        0.72210    0.20090    0.10730    1.000
    C8       C        0.64421    0.14050    0.21900    1.000
    C9       C        0.43423    0.25790    0.03590    1.000
    C10      C        0.44270    0.14710    0.99280    1.000
    H4       H        0.48230    0.13600    0.96950    1.000
    C11      C        0.39290    0.05380    0.98460    1.000
    H5       H        0.39980    0.97840    0.95730    1.000
    C12      C        0.33280    0.07130    0.01650    1.000
    H6       H        0.29850    0.00990    0.00930    1.000
    C13      C        0.32424    0.18110    0.05940    1.000
    H7       H        0.28350    0.19370    0.08020    1.000
    C14      C        0.37536    0.27400    0.07220    1.000
    C15      C        0.36532    0.37970    0.12820    1.000
    C16      C        0.87883    0.02030    0.96770    1.000
    C17      C        0.90295    0.88990    0.99600    1.000
    C18      C        0.95606    0.88220    0.05070    1.000
    H8       H        0.97560    0.95750    0.07170    1.000
    C19      C        0.97956    0.76020    0.07380    1.000
    C20      C        0.95113    0.64620    0.04490    1.000
    H9       H        0.96780    0.56540    0.06120    1.000
    C21      C        0.89708    0.65470    0.99090    1.000
    C22      C        0.87384    0.77620    0.96620    1.000
    H10      H        0.83830    0.78150    0.92930    1.000
    C23      C        0.86415    0.53450    0.95710    1.000
    C24      C        0.02929    0.75040    0.20060    1.000
    C25      C        0.97593    0.81210    0.23050    1.000
    H11      H        0.94430    0.85740    0.19940    1.000
    C26      C        0.96995    0.80590    0.30710    1.000
    H12      H        0.93380    0.84660    0.32700    1.000
    C27      C        0.01670    0.74030    0.35430    1.000
    H13      H        0.01220    0.73700    0.40550    1.000
    C28      C        0.07138    0.67840    0.32370    1.000
    H14      H        0.10310    0.63360    0.35490    1.000
    C29      C        0.07813    0.68420    0.24690    1.000
    C30      C        0.13912    0.62450    0.21780    1.000
    H15      H        0.41600    0.50600    0.18400    1.000
    Co3      Co       0.14446    0.75313    0.56492    1.000
    Co4      Co       0.24791    0.95256    0.66475    1.000
    O15      O        0.22943    0.75610    0.51211    1.000
    O16      O        0.30448    0.86530    0.58909    1.000
    O17      O        0.29533    0.61280    0.26265    1.000
    O18      O        0.40564    0.61660    0.24457    1.000
    O19      O        0.51795    0.85560    0.46235    1.000
    O20      O        0.58508    0.95580    0.35501    1.000
    O21      O        0.68912    0.88370    0.34127    1.000
    O22      O        0.09605    0.62060    0.49767    1.000
    O23      O        0.16212    0.53270    0.58805    1.000
    O24      O        0.18871    0.05050    0.58460    1.000
    O25      O        0.10752    0.92600    0.52645    1.000
    O26      O        0.96203    0.25180    0.37608    1.000
    O27      O        0.82827    0.19120    0.32925    1.000
    O28      O        0.83901    0.01780    0.25951    1.000
    C31      C        0.28602    0.80620    0.52970    1.000
    C32      C        0.33813    0.79160    0.47270    1.000
    C33      C        0.40364    0.83450    0.49210    1.000
    H16      H        0.41450    0.87590    0.53770    1.000
    C34      C        0.45238    0.81420    0.44210    1.000
    C35      C        0.43685    0.75390    0.37370    1.000
    H17      H        0.47010    0.74160    0.34100    1.000
    C36      C        0.37127    0.71160    0.35400    1.000
    C37      C        0.32160    0.73000    0.40470    1.000
    H18      H        0.27790    0.70090    0.39270    1.000
    C38      C        0.35579    0.64050    0.28100    1.000
    C39      C        0.56577    0.75790    0.46410    1.000
    C40      C        0.55730    0.64710    0.50720    1.000
    H19      H        0.51770    0.63600    0.53050    1.000
    C41      C        0.60710    0.55380    0.51540    1.000
    H20      H        0.60020    0.47840    0.54270    1.000
    C42      C        0.66720    0.57130    0.48350    1.000
    H21      H        0.70150    0.50990    0.49070    1.000
    C43      C        0.67576    0.68110    0.44060    1.000
    H22      H        0.71650    0.69370    0.41980    1.000
    C44      C        0.62464    0.77400    0.42780    1.000
    C45      C        0.63468    0.87970    0.37180    1.000
    C46      C        0.12117    0.52030    0.53230    1.000
    C47      C        0.09705    0.38990    0.50400    1.000
    C48      C        0.04394    0.38220    0.44930    1.000
    H23      H        0.02440    0.45750    0.42830    1.000
    C49      C        0.02044    0.26020    0.42620    1.000
    C50      C        0.04887    0.14620    0.45510    1.000
    H24      H        0.03220    0.06540    0.43880    1.000
    C51      C        0.10292    0.15470    0.50910    1.000
    C52      C        0.12616    0.27620    0.53380    1.000
    H25      H        0.16170    0.28150    0.57070    1.000
    C53      C        0.13585    0.03450    0.54290    1.000
    C54      C        0.97071    0.25040    0.29940    1.000
    C55      C        0.02407    0.31210    0.26950    1.000
    H26      H        0.05570    0.35740    0.30060    1.000
    C56      C        0.03005    0.30590    0.19290    1.000
    H27      H        0.06620    0.34660    0.17300    1.000
    C57      C        0.98330    0.24030    0.14570    1.000
    H28      H        0.98780    0.23700    0.09450    1.000
    C58      C        0.92862    0.17840    0.17630    1.000
    H29      H        0.89690    0.13360    0.14510    1.000
    C59      C        0.92187    0.18420    0.25310    1.000
    C60      C        0.86088    0.12450    0.28220    1.000
    H30      H        0.58400    0.00600    0.31600    1.000
    Co5      Co       0.14446    0.74687    0.06492    1.000
    Co6      Co       0.24791    0.54744    0.16475    1.000
    O29      O        0.22943    0.74390    0.01211    1.000
    O30      O        0.30448    0.63470    0.08909    1.000
    O31      O        0.29533    0.88720    0.76265    1.000
    O32      O        0.40564    0.88340    0.74457    1.000
    O33      O        0.51795    0.64440    0.96235    1.000
    O34      O        0.58508    0.54420    0.85501    1.000
    O35      O        0.68912    0.61630    0.84127    1.000
    O36      O        0.09605    0.87940    0.99767    1.000
    O37      O        0.16212    0.96730    0.08805    1.000
    O38      O        0.18871    0.44950    0.08460    1.000
    O39      O        0.10752    0.57400    0.02645    1.000
    O40      O        0.96203    0.24820    0.87608    1.000
    O41      O        0.82827    0.30880    0.82925    1.000
    O42      O        0.83901    0.48220    0.75951    1.000
    C61      C        0.28602    0.69380    0.02970    1.000
    C62      C        0.33813    0.70840    0.97270    1.000
    C63      C        0.40364    0.66550    0.99210    1.000
    H31      H        0.41450    0.62410    0.03770    1.000
    C64      C        0.45238    0.68580    0.94210    1.000
    C65      C        0.43685    0.74610    0.87370    1.000
    H32      H        0.47010    0.75840    0.84100    1.000
    C66      C        0.37127    0.78840    0.85400    1.000
    C67      C        0.32160    0.77000    0.90470    1.000
    H33      H        0.27790    0.79910    0.89270    1.000
    C68      C        0.35579    0.85950    0.78100    1.000
    C69      C        0.56577    0.74210    0.96410    1.000
    C70      C        0.55730    0.85290    0.00720    1.000
    H34      H        0.51770    0.86400    0.03050    1.000
    C71      C        0.60710    0.94620    0.01540    1.000
    H35      H        0.60020    0.02160    0.04270    1.000
    C72      C        0.66720    0.92870    0.98350    1.000
    H36      H        0.70150    0.99010    0.99070    1.000
    C73      C        0.67576    0.81890    0.94060    1.000
    H37      H        0.71650    0.80630    0.91980    1.000
    C74      C        0.62464    0.72600    0.92780    1.000
    C75      C        0.63468    0.62030    0.87180    1.000
    C76      C        0.12117    0.97970    0.03230    1.000
    C77      C        0.09705    0.11010    0.00400    1.000
    C78      C        0.04394    0.11780    0.94930    1.000
    H38      H        0.02440    0.04250    0.92830    1.000
    C79      C        0.02044    0.23980    0.92620    1.000
    C80      C        0.04887    0.35380    0.95510    1.000
    H39      H        0.03220    0.43460    0.93880    1.000
    C81      C        0.10292    0.34530    0.00910    1.000
    C82      C        0.12616    0.22380    0.03380    1.000
    H40      H        0.16170    0.21850    0.07070    1.000
    C83      C        0.13585    0.46550    0.04290    1.000
    C84      C        0.97071    0.24960    0.79940    1.000
    C85      C        0.02407    0.18790    0.76950    1.000
    H41      H        0.05570    0.14260    0.80060    1.000
    C86      C        0.03005    0.19410    0.69290    1.000
    H42      H        0.06620    0.15340    0.67300    1.000
    C87      C        0.98330    0.25970    0.64570    1.000
    H43      H        0.98780    0.26300    0.59450    1.000
    C88      C        0.92862    0.32160    0.67630    1.000
    H44      H        0.89690    0.36640    0.64510    1.000
    C89      C        0.92187    0.31580    0.75310    1.000
    C90      C        0.86088    0.37550    0.78220    1.000
    H45      H        0.58400    0.49400    0.81600    1.000
    Co7      Co       0.85554    0.24687    0.43508    1.000
    Co8      Co       0.75209    0.04744    0.33525    1.000
    O43      O        0.77057    0.24390    0.48789    1.000
    O44      O        0.69552    0.13470    0.41091    1.000
    O45      O        0.70467    0.38720    0.73735    1.000
    O46      O        0.59436    0.38340    0.75543    1.000
    O47      O        0.48205    0.14440    0.53765    1.000
    O48      O        0.41492    0.04420    0.64499    1.000
    O49      O        0.31088    0.11630    0.65873    1.000
    O50      O        0.90395    0.37940    0.50233    1.000
    O51      O        0.83788    0.46730    0.41195    1.000
    O52      O        0.81129    0.94950    0.41540    1.000
    O53      O        0.89248    0.07400    0.47355    1.000
    O54      O        0.03797    0.74820    0.62392    1.000
    O55      O        0.17173    0.80880    0.67075    1.000
    O56      O        0.16099    0.98220    0.74049    1.000
    C91      C        0.71398    0.19380    0.47030    1.000
    C92      C        0.66187    0.20840    0.52730    1.000
    C93      C        0.59636    0.16550    0.50790    1.000
    H46      H        0.58550    0.12410    0.46230    1.000
    C94      C        0.54762    0.18580    0.55790    1.000
    C95      C        0.56315    0.24610    0.62630    1.000
    H47      H        0.52990    0.25840    0.65900    1.000
    C96      C        0.62873    0.28840    0.64600    1.000
    C97      C        0.67840    0.27000    0.59530    1.000
    H48      H        0.72210    0.29910    0.60730    1.000
    C98      C        0.64421    0.35950    0.71900    1.000
    C99      C        0.43423    0.24210    0.53590    1.000
    C100     C        0.44270    0.35290    0.49280    1.000
    H49      H        0.48230    0.36400    0.46950    1.000
    C101     C        0.39290    0.44620    0.48460    1.000
    H50      H        0.39980    0.52160    0.45730    1.000
    C102     C        0.33280    0.42870    0.51650    1.000
    H51      H        0.29850    0.49010    0.50930    1.000
    C103     C        0.32424    0.31890    0.55940    1.000
    H52      H        0.28350    0.30630    0.58020    1.000
    C104     C        0.37536    0.22600    0.57220    1.000
    C105     C        0.36532    0.12030    0.62820    1.000
    C106     C        0.87883    0.47970    0.46770    1.000
    C107     C        0.90295    0.61010    0.49600    1.000
    C108     C        0.95606    0.61780    0.55070    1.000
    H53      H        0.97560    0.54250    0.57170    1.000
    C109     C        0.97956    0.73980    0.57380    1.000
    C110     C        0.95113    0.85380    0.54490    1.000
    H54      H        0.96780    0.93460    0.56120    1.000
    C111     C        0.89708    0.84530    0.49090    1.000
    C112     C        0.87384    0.72380    0.46620    1.000
    H55      H        0.83830    0.71850    0.42930    1.000
    C113     C        0.86415    0.96550    0.45710    1.000
    C114     C        0.02929    0.74960    0.70060    1.000
    C115     C        0.97593    0.68790    0.73050    1.000
    H56      H        0.94430    0.64260    0.69940    1.000
    C116     C        0.96995    0.69410    0.80710    1.000
    H57      H        0.93380    0.65340    0.82700    1.000
    C117     C        0.01670    0.75970    0.85430    1.000
    H58      H        0.01220    0.76300    0.90550    1.000
    C118     C        0.07138    0.82160    0.82370    1.000
    H59      H        0.10310    0.86640    0.85490    1.000
    C119     C        0.07813    0.81580    0.74690    1.000
    C120     C        0.13912    0.87550    0.71780    1.000
    H60      H        0.41600    0.99400    0.68400    1.000
