# CIF file generated by openbabel 3.1.0, see https://openbabel.org
data_I
_chemical_name_common 'image0'
_cell_length_a 9.8633
_cell_length_b 16.4409
_cell_length_c 18.2187
_cell_angle_alpha 90
_cell_angle_beta 94.197
_cell_angle_gamma 90
_space_group_name_H-M_alt 'P 1'
_space_group_name_Hall 'P 1'
loop_
    _symmetry_equiv_pos_as_xyz
    x,y,z
loop_
    _atom_site_label
    _atom_site_type_symbol
    _atom_site_fract_x
    _atom_site_fract_y
    _atom_site_fract_z
    _atom_site_occupancy
    C1       C        0.78730    0.56920    0.02310    1.000
    C2       C        0.74230    0.64540    0.05870    1.000
    C3       C        0.80900    0.67850    0.11810    1.000
    H1       H        0.89160    0.65700    0.13700    1.000
    C4       C        0.75100    0.74800    0.15230    1.000
    H2       H        0.79490    0.77390    0.19280    1.000
    C5       C        0.62160    0.77490    0.12040    1.000
    C6       C        0.56060    0.74310    0.06240    1.000
    H3       H        0.47700    0.76280    0.04320    1.000
    C7       C        0.62000    0.68160    0.03090    1.000
    H4       H        0.57820    0.66090    0.98750    1.000
    C8       C        0.61140    0.86960    0.21360    1.000
    H5       H        0.68900    0.90030    0.19890    1.000
    H6       H        0.64330    0.82830    0.24880    1.000
    C9       C        0.42440    0.98360    0.19160    1.000
    H7       H        0.48850    0.01400    0.16440    1.000
    H8       H        0.36980    0.94980    0.15720    1.000
    C10      C        0.27480    0.09820    0.18670    1.000
    C11      C        0.27490    0.10580    0.11400    1.000
    C12      C        0.19520    0.17010    0.07670    1.000
    C13      C        0.13140    0.22450    0.11780    1.000
    C14      C        0.15810    0.22120    0.19220    1.000
    H9       H        0.12780    0.26320    0.22100    1.000
    C15      C        0.22790    0.15790    0.22550    1.000
    H10      H        0.24260    0.15710    0.27650    1.000
    C16      C        0.04960    0.29050    0.07990    1.000
    C17      C        0.37590    0.58140    0.90780    1.000
    H11      H        0.39510    0.53100    0.92930    1.000
    C18      C        0.28640    0.69670    0.88300    1.000
    H12      H        0.22980    0.74190    0.88340    1.000
    C19      C        0.38830    0.68630    0.83690    1.000
    H13      H        0.41510    0.72290    0.80190    1.000
    C20      C        0.54900    0.56940    0.81760    1.000
    H14      H        0.61440    0.60870    0.80230    1.000
    H15      H        0.59570    0.53440    0.85410    1.000
    C21      C        0.62420    0.46510    0.73070    1.000
    H16      H        0.69320    0.50150    0.71430    1.000
    H17      H        0.59610    0.42960    0.68990    1.000
    C22      C        0.64570    0.33860    0.81390    1.000
    H18      H        0.57500    0.30690    0.79280    1.000
    C23      C        0.78830    0.43650    0.83750    1.000
    H19      H        0.83530    0.48530    0.83470    1.000
    C24      C        0.72790    0.31970    0.87150    1.000
    H20      H        0.72600    0.27120    0.89750    1.000
    N1       N        0.28000    0.63150    0.92800    1.000
    N2       N        0.44170    0.61280    0.85230    1.000
    N3       N        0.68520    0.41530    0.79080    1.000
    N4       N        0.81640    0.38200    0.88740    1.000
    O1       O        0.71060    0.53490    0.97550    1.000
    O2       O        0.90220    0.53950    0.04620    1.000
    O3       O        0.54550    0.83580    0.15570    1.000
    O4       O        0.34180    0.03630    0.22790    1.000
    O5       O        0.04380    0.35860    0.11160    1.000
    O6       O        0.99190    0.27810    0.01940    1.000
    Cd1      Cd       0.10043    0.59173    0.99601    1.000
    C25      C        0.81900    0.07080    0.37700    1.000
    C26      C        0.91200    0.15200    0.40100    1.000
    C27      C        0.21270    0.56920    0.47690    1.000
    C28      C        0.25770    0.64540    0.44130    1.000
    C29      C        0.19100    0.67850    0.38190    1.000
    H21      H        0.10840    0.65700    0.36300    1.000
    C30      C        0.24900    0.74800    0.34770    1.000
    H22      H        0.20510    0.77390    0.30720    1.000
    C31      C        0.37840    0.77490    0.37960    1.000
    C32      C        0.43940    0.74310    0.43760    1.000
    H23      H        0.52300    0.76280    0.45680    1.000
    C33      C        0.38000    0.68160    0.46910    1.000
    H24      H        0.42180    0.66090    0.51250    1.000
    C34      C        0.38860    0.86960    0.28640    1.000
    H25      H        0.31100    0.90030    0.30110    1.000
    H26      H        0.35670    0.82830    0.25120    1.000
    C35      C        0.57560    0.98360    0.30840    1.000
    H27      H        0.51150    0.01400    0.33560    1.000
    H28      H        0.63020    0.94980    0.34280    1.000
    C36      C        0.72520    0.09820    0.31330    1.000
    C37      C        0.72510    0.10580    0.38600    1.000
    C38      C        0.80480    0.17010    0.42330    1.000
    C39      C        0.86860    0.22450    0.38220    1.000
    C40      C        0.84190    0.22120    0.30780    1.000
    H29      H        0.87220    0.26320    0.27900    1.000
    C41      C        0.77210    0.15790    0.27450    1.000
    H30      H        0.75740    0.15710    0.22350    1.000
    C42      C        0.95040    0.29050    0.42010    1.000
    C43      C        0.62410    0.58140    0.59220    1.000
    H31      H        0.60490    0.53100    0.57070    1.000
    C44      C        0.71360    0.69670    0.61700    1.000
    H32      H        0.77020    0.74190    0.61660    1.000
    C45      C        0.61170    0.68630    0.66310    1.000
    H33      H        0.58490    0.72290    0.69810    1.000
    C46      C        0.45100    0.56940    0.68240    1.000
    H34      H        0.38560    0.60870    0.69770    1.000
    H35      H        0.40430    0.53440    0.64590    1.000
    C47      C        0.37580    0.46510    0.76930    1.000
    H36      H        0.30680    0.50150    0.78570    1.000
    H37      H        0.40390    0.42960    0.81010    1.000
    C48      C        0.35430    0.33860    0.68610    1.000
    H38      H        0.42500    0.30690    0.70720    1.000
    C49      C        0.21170    0.43650    0.66250    1.000
    H39      H        0.16470    0.48530    0.66530    1.000
    C50      C        0.27210    0.31970    0.62850    1.000
    H40      H        0.27400    0.27120    0.60250    1.000
    N5       N        0.72000    0.63150    0.57200    1.000
    N6       N        0.55830    0.61280    0.64770    1.000
    N7       N        0.31480    0.41530    0.70920    1.000
    N8       N        0.18360    0.38200    0.61260    1.000
    O7       O        0.28940    0.53490    0.52450    1.000
    O8       O        0.09780    0.53950    0.45380    1.000
    O9       O        0.45450    0.83580    0.34430    1.000
    O10      O        0.65820    0.03630    0.27210    1.000
    O11      O        0.95620    0.35860    0.38840    1.000
    O12      O        0.00810    0.27810    0.48060    1.000
    Cd2      Cd       0.89957    0.59173    0.50399    1.000
    C51      C        0.18100    0.07080    0.12300    1.000
    C52      C        0.08800    0.15200    0.09900    1.000
    C53      C        0.21270    0.43080    0.97690    1.000
    C54      C        0.25770    0.35460    0.94130    1.000
    C55      C        0.19100    0.32150    0.88190    1.000
    H41      H        0.10840    0.34300    0.86300    1.000
    C56      C        0.24900    0.25200    0.84770    1.000
    H42      H        0.20510    0.22610    0.80720    1.000
    C57      C        0.37840    0.22510    0.87960    1.000
    C58      C        0.43940    0.25690    0.93760    1.000
    H43      H        0.52300    0.23720    0.95680    1.000
    C59      C        0.38000    0.31840    0.96910    1.000
    H44      H        0.42180    0.33910    0.01250    1.000
    C60      C        0.38860    0.13040    0.78640    1.000
    H45      H        0.31100    0.09970    0.80110    1.000
    H46      H        0.35670    0.17170    0.75120    1.000
    C61      C        0.57560    0.01640    0.80840    1.000
    H47      H        0.51150    0.98600    0.83560    1.000
    H48      H        0.63020    0.05020    0.84280    1.000
    C62      C        0.72520    0.90180    0.81330    1.000
    C63      C        0.72510    0.89420    0.88600    1.000
    C64      C        0.80480    0.82990    0.92330    1.000
    C65      C        0.86860    0.77550    0.88220    1.000
    C66      C        0.84190    0.77880    0.80780    1.000
    H49      H        0.87220    0.73680    0.77900    1.000
    C67      C        0.77210    0.84210    0.77450    1.000
    H50      H        0.75740    0.84290    0.72350    1.000
    C68      C        0.95040    0.70950    0.92010    1.000
    C69      C        0.62410    0.41860    0.09220    1.000
    H51      H        0.60490    0.46900    0.07070    1.000
    C70      C        0.71360    0.30330    0.11700    1.000
    H52      H        0.77020    0.25810    0.11660    1.000
    C71      C        0.61170    0.31370    0.16310    1.000
    H53      H        0.58490    0.27710    0.19810    1.000
    C72      C        0.45100    0.43060    0.18240    1.000
    H54      H        0.38560    0.39130    0.19770    1.000
    H55      H        0.40430    0.46560    0.14590    1.000
    C73      C        0.37580    0.53490    0.26930    1.000
    H56      H        0.30680    0.49850    0.28570    1.000
    H57      H        0.40390    0.57040    0.31010    1.000
    C74      C        0.35430    0.66140    0.18610    1.000
    H58      H        0.42500    0.69310    0.20720    1.000
    C75      C        0.21170    0.56350    0.16250    1.000
    H59      H        0.16470    0.51470    0.16530    1.000
    C76      C        0.27210    0.68030    0.12850    1.000
    H60      H        0.27400    0.72880    0.10250    1.000
    N9       N        0.72000    0.36850    0.07200    1.000
    N10      N        0.55830    0.38720    0.14770    1.000
    N11      N        0.31480    0.58470    0.20920    1.000
    N12      N        0.18360    0.61800    0.11260    1.000
    O13      O        0.28940    0.46510    0.02450    1.000
    O14      O        0.09780    0.46050    0.95380    1.000
    O15      O        0.45450    0.16420    0.84430    1.000
    O16      O        0.65820    0.96370    0.77210    1.000
    O17      O        0.95620    0.64140    0.88840    1.000
    O18      O        0.00810    0.72190    0.98060    1.000
    Cd3      Cd       0.89957    0.40827    0.00399    1.000
    C77      C        0.18100    0.92920    0.62300    1.000
    C78      C        0.08800    0.84800    0.59900    1.000
    C79      C        0.78730    0.43080    0.52310    1.000
    C80      C        0.74230    0.35460    0.55870    1.000
    C81      C        0.80900    0.32150    0.61810    1.000
    H61      H        0.89160    0.34300    0.63700    1.000
    C82      C        0.75100    0.25200    0.65230    1.000
    H62      H        0.79490    0.22610    0.69280    1.000
    C83      C        0.62160    0.22510    0.62040    1.000
    C84      C        0.56060    0.25690    0.56240    1.000
    H63      H        0.47700    0.23720    0.54320    1.000
    C85      C        0.62000    0.31840    0.53090    1.000
    H64      H        0.57820    0.33910    0.48750    1.000
    C86      C        0.61140    0.13040    0.71360    1.000
    H65      H        0.68900    0.09970    0.69890    1.000
    H66      H        0.64330    0.17170    0.74880    1.000
    C87      C        0.42440    0.01640    0.69160    1.000
    H67      H        0.48850    0.98600    0.66440    1.000
    H68      H        0.36980    0.05020    0.65720    1.000
    C88      C        0.27480    0.90180    0.68670    1.000
    C89      C        0.27490    0.89420    0.61400    1.000
    C90      C        0.19520    0.82990    0.57670    1.000
    C91      C        0.13140    0.77550    0.61780    1.000
    C92      C        0.15810    0.77880    0.69220    1.000
    H69      H        0.12780    0.73680    0.72100    1.000
    C93      C        0.22790    0.84210    0.72550    1.000
    H70      H        0.24260    0.84290    0.77650    1.000
    C94      C        0.04960    0.70950    0.57990    1.000
    C95      C        0.37590    0.41860    0.40780    1.000
    H71      H        0.39510    0.46900    0.42930    1.000
    C96      C        0.28640    0.30330    0.38300    1.000
    H72      H        0.22980    0.25810    0.38340    1.000
    C97      C        0.38830    0.31370    0.33690    1.000
    H73      H        0.41510    0.27710    0.30190    1.000
    C98      C        0.54900    0.43060    0.31760    1.000
    H74      H        0.61440    0.39130    0.30230    1.000
    H75      H        0.59570    0.46560    0.35410    1.000
    C99      C        0.62420    0.53490    0.23070    1.000
    H76      H        0.69320    0.49850    0.21430    1.000
    H77      H        0.59610    0.57040    0.18990    1.000
    C100     C        0.64570    0.66140    0.31390    1.000
    H78      H        0.57500    0.69310    0.29280    1.000
    C101     C        0.78830    0.56350    0.33750    1.000
    H79      H        0.83530    0.51470    0.33470    1.000
    C102     C        0.72790    0.68030    0.37150    1.000
    H80      H        0.72600    0.72880    0.39750    1.000
    N13      N        0.28000    0.36850    0.42800    1.000
    N14      N        0.44170    0.38720    0.35230    1.000
    N15      N        0.68520    0.58470    0.29080    1.000
    N16      N        0.81640    0.61800    0.38740    1.000
    O19      O        0.71060    0.46510    0.47550    1.000
    O20      O        0.90220    0.46050    0.54620    1.000
    O21      O        0.54550    0.16420    0.65570    1.000
    O22      O        0.34180    0.96370    0.72790    1.000
    O23      O        0.04380    0.64140    0.61160    1.000
    O24      O        0.99190    0.72190    0.51940    1.000
    Cd4      Cd       0.10043    0.40827    0.49601    1.000
    C103     C        0.81900    0.92920    0.87700    1.000
    C104     C        0.91200    0.84800    0.90100    1.000
    C105     C        0.50000    0.93090    0.25000    1.000
    C106     C        0.50000    0.06910    0.75000    1.000
    C107     C        0.50000    0.51670    0.75000    1.000
    C108     C        0.50000    0.48330    0.25000    1.000
