data_functionalizedCrystal
_audit_creation_method	'EQeq! by Chris Wilmer'
_symmetry_space_group_name_H-M	'P1'
_symmetry_Int_Tables_number	1
_symmetry_cell_setting	triclinic
loop_
_symmetry_equiv_pos_as_xyz
  x,y,z
_cell_length_a	15.297
_cell_length_b	15.297
_cell_length_c	15.37
_cell_angle_alpha	90
_cell_angle_beta	90
_cell_angle_gamma	120
loop_
_atom_site_label
_atom_site_type_symbol
_atom_site_fract_x
_atom_site_fract_y
_atom_site_fract_z
_atom_site_charge
Mof_Eu	Eu	0.66667	0.33334	0.75	2.31
Mof_Eu	Eu	0.33333	0.66666	0.75	2.311
Mof_Eu	Eu	0.33333	0.66666	0.25	2.287
Mof_Eu	Eu	0.66667	0.33334	0.25	2.287
Mof_Co	Co	0.5	0.5	0.5	1.164
Mof_Co	Co	1.14755e-17	0.5	0.5	1.127
Mof_Co	Co	0.5	8.10463e-33	0.5	1.127
Mof_Co	Co	-0	0.5	-0	1.061
Mof_Co	Co	0.5	0.5	-0	1.097
Mof_Co	Co	0.5	0	-0	1.061
Mof_H 	H 	0.2853	0.2324	0.6549	0.042
Mof_H 	H 	0.9471	0.7147	0.6549	0.075
Mof_H 	H 	0.7676	0.0529	0.6549	0.035
Mof_H 	H 	0.7147	0.7676	0.6549	0.059
Mof_H 	H 	0.0529	0.2853	0.6549	0.027
Mof_H 	H 	0.2324	0.9471	0.6549	0.067
Mof_H 	H 	0.0529	0.7676	0.8451	0.056
Mof_H 	H 	0.2324	0.2853	0.8451	0.063
Mof_H 	H 	0.7147	0.9471	0.8451	0.094
Mof_H 	H 	0.9471	0.2324	0.8451	0.087
Mof_H 	H 	0.7676	0.7147	0.8451	0.079
Mof_H 	H 	0.2853	0.0529	0.8451	0.048
Mof_H 	H 	0.7147	0.7676	0.3451	0.056
Mof_H 	H 	0.0529	0.2853	0.3451	0.024
Mof_H 	H 	0.2324	0.9471	0.3451	0.064
Mof_H 	H 	0.2853	0.2324	0.3451	0.039
Mof_H 	H 	0.9471	0.7147	0.3451	0.072
Mof_H 	H 	0.7676	0.0529	0.3451	0.032
Mof_H 	H 	0.9471	0.2324	0.1549	0.046
Mof_H 	H 	0.7676	0.7147	0.1549	0.037
Mof_H 	H 	0.2853	0.0529	0.1549	0.005
Mof_H 	H 	0.0529	0.7676	0.1549	0.014
Mof_H 	H 	0.2324	0.2853	0.1549	0.02
Mof_H 	H 	0.7147	0.9471	0.1549	0.053
Mof_H 	H 	0.2003	0.10015	0.75	0.015
Mof_H 	H 	0.89985	0.7997	0.75	0.066
Mof_H 	H 	0.89985	0.10015	0.75	0.04
Mof_H 	H 	0.7997	0.89985	0.75	0.066
Mof_H 	H 	0.10015	0.2003	0.75	0.015
Mof_H 	H 	0.10015	0.89985	0.75	0.04
Mof_H 	H 	0.7997	0.89985	0.25	0.061
Mof_H 	H 	0.10015	0.2003	0.25	0.008
Mof_H 	H 	0.10015	0.89985	0.25	0.035
Mof_H 	H 	0.2003	0.10015	0.25	0.008
Mof_H 	H 	0.89985	0.7997	0.25	0.061
Mof_H 	H 	0.89985	0.10015	0.25	0.035
Mof_C 	C 	0.491	0.35405	0.6391	0.36
Mof_C 	C 	0.42508	0.26475	0.6962	-0.034
Mof_C 	C 	0.32008	0.21384	0.6934	-0.04
Mof_C 	C 	0.86305	0.509	0.6391	0.358
Mof_C 	C 	0.83967	0.57492	0.6962	-0.015
Mof_C 	C 	0.89376	0.67992	0.6934	-0.028
Mof_C 	C 	0.64595	0.13695	0.6391	0.362
Mof_C 	C 	0.73525	0.16033	0.6962	-0.034
Mof_C 	C 	0.78616	0.10624	0.6934	-0.035
Mof_C 	C 	0.509	0.64595	0.6391	0.362
Mof_C 	C 	0.57492	0.73525	0.6962	-0.023
Mof_C 	C 	0.67992	0.78616	0.6934	-0.028
Mof_C 	C 	0.13695	0.491	0.6391	0.361
Mof_C 	C 	0.16033	0.42508	0.6962	-0.04
Mof_C 	C 	0.10624	0.32008	0.6934	-0.04
Mof_C 	C 	0.35405	0.86305	0.6391	0.357
Mof_C 	C 	0.26475	0.83967	0.6962	-0.02
Mof_C 	C 	0.21384	0.89376	0.6934	-0.034
Mof_C 	C 	0.13695	0.64595	0.8609	0.357
Mof_C 	C 	0.16033	0.73525	0.8038	-0.02
Mof_C 	C 	0.10624	0.78616	0.8066	-0.036
Mof_C 	C 	0.35405	0.491	0.8609	0.355
Mof_C 	C 	0.26475	0.42508	0.8038	-0.019
Mof_C 	C 	0.21384	0.32008	0.8066	-0.041
Mof_C 	C 	0.509	0.86305	0.8609	0.353
Mof_C 	C 	0.57492	0.83967	0.8038	-0.001
Mof_C 	C 	0.67992	0.89376	0.8066	-0.029
Mof_C 	C 	0.86305	0.35405	0.8609	0.352
Mof_C 	C 	0.83967	0.26475	0.8038	-0.006
Mof_C 	C 	0.89376	0.21384	0.8066	-0.035
Mof_C 	C 	0.64595	0.509	0.8609	0.357
Mof_C 	C 	0.73525	0.57492	0.8038	-0.008
Mof_C 	C 	0.78616	0.67992	0.8066	-0.03
Mof_C 	C 	0.491	0.13695	0.8609	0.356
Mof_C 	C 	0.42508	0.16033	0.8038	-0.026
Mof_C 	C 	0.32008	0.10624	0.8066	-0.042
Mof_C 	C 	0.509	0.64595	0.3609	0.363
Mof_C 	C 	0.57492	0.73525	0.3038	-0.03
Mof_C 	C 	0.67992	0.78616	0.3066	-0.02
Mof_C 	C 	0.13695	0.491	0.3609	0.362
Mof_C 	C 	0.16033	0.42508	0.3038	-0.047
Mof_C 	C 	0.10624	0.32008	0.3066	-0.032
Mof_C 	C 	0.35405	0.86305	0.3609	0.358
Mof_C 	C 	0.26475	0.83967	0.3038	-0.027
Mof_C 	C 	0.21384	0.89376	0.3066	-0.026
Mof_C 	C 	0.491	0.35405	0.3609	0.361
Mof_C 	C 	0.42508	0.26475	0.3038	-0.041
Mof_C 	C 	0.32008	0.21384	0.3066	-0.032
Mof_C 	C 	0.86305	0.509	0.3609	0.359
Mof_C 	C 	0.83967	0.57492	0.3038	-0.022
Mof_C 	C 	0.89376	0.67992	0.3066	-0.02
Mof_C 	C 	0.64595	0.13695	0.3609	0.363
Mof_C 	C 	0.73525	0.16033	0.3038	-0.042
Mof_C 	C 	0.78616	0.10624	0.3066	-0.027
Mof_C 	C 	0.86305	0.35405	0.1391	0.357
Mof_C 	C 	0.83967	0.26475	0.1962	-0.038
Mof_C 	C 	0.89376	0.21384	0.1934	-0.026
Mof_C 	C 	0.64595	0.509	0.1391	0.363
Mof_C 	C 	0.73525	0.57492	0.1962	-0.041
Mof_C 	C 	0.78616	0.67992	0.1934	-0.02
Mof_C 	C 	0.491	0.13695	0.1391	0.361
Mof_C 	C 	0.42508	0.16033	0.1962	-0.059
Mof_C 	C 	0.32008	0.10624	0.1934	-0.032
Mof_C 	C 	0.13695	0.64595	0.1391	0.362
Mof_C 	C 	0.16033	0.73525	0.1962	-0.053
Mof_C 	C 	0.10624	0.78616	0.1934	-0.026
Mof_C 	C 	0.35405	0.491	0.1391	0.36
Mof_C 	C 	0.26475	0.42508	0.1962	-0.052
Mof_C 	C 	0.21384	0.32008	0.1934	-0.031
Mof_C 	C 	0.509	0.86305	0.1391	0.358
Mof_C 	C 	0.57492	0.83967	0.1962	-0.033
Mof_C 	C 	0.67992	0.89376	0.1934	-0.02
Mof_C 	C 	0.2705	0.13525	0.75	-0.037
Mof_C 	C 	0.86475	0.7295	0.75	-0.018
Mof_C 	C 	0.86475	0.13525	0.75	-0.027
Mof_C 	C 	0.7295	0.86475	0.75	-0.018
Mof_C 	C 	0.13525	0.2705	0.75	-0.036
Mof_C 	C 	0.13525	0.86475	0.75	-0.027
Mof_C 	C 	0.7295	0.86475	0.25	-0.039
Mof_C 	C 	0.13525	0.2705	0.25	-0.059
Mof_C 	C 	0.13525	0.86475	0.25	-0.048
Mof_C 	C 	0.2705	0.13525	0.25	-0.058
Mof_C 	C 	0.86475	0.7295	0.25	-0.04
Mof_C 	C 	0.86475	0.13525	0.25	-0.048
Mof_N 	N 	0.4777	0.23885	0.75	-0.218
Mof_N 	N 	0.76115	0.5223	0.75	-0.217
Mof_N 	N 	0.76115	0.23885	0.75	-0.218
Mof_N 	N 	0.5223	0.76115	0.75	-0.217
Mof_N 	N 	0.23885	0.4777	0.75	-0.218
Mof_N 	N 	0.23885	0.76115	0.75	-0.218
Mof_N 	N 	0.5223	0.76115	0.25	-0.213
Mof_N 	N 	0.23885	0.4777	0.25	-0.214
Mof_N 	N 	0.23885	0.76115	0.25	-0.214
Mof_N 	N 	0.4777	0.23885	0.25	-0.214
Mof_N 	N 	0.76115	0.5223	0.25	-0.213
Mof_N 	N 	0.76115	0.23885	0.25	-0.214
Mof_O 	O 	0.58613	0.38858	0.6435	-0.492
Mof_O 	O 	0.44659	0.38646	0.5921	-0.427
Mof_O 	O 	0.80245	0.41387	0.6435	-0.478
Mof_O 	O 	0.93987	0.55341	0.5921	-0.383
Mof_O 	O 	0.61142	0.19755	0.6435	-0.499
Mof_O 	O 	0.61354	0.06013	0.5921	-0.448
Mof_O 	O 	0.41387	0.61142	0.6435	-0.49
Mof_O 	O 	0.55341	0.61354	0.5921	-0.421
Mof_O 	O 	0.19755	0.58613	0.6435	-0.5
Mof_O 	O 	0.06013	0.44659	0.5921	-0.451
Mof_O 	O 	0.38858	0.80245	0.6435	-0.479
Mof_O 	O 	0.38646	0.93987	0.5921	-0.386
Mof_O 	O 	0.19755	0.61142	0.8565	-0.468
Mof_O 	O 	0.06013	0.61354	0.9079	-0.384
Mof_O 	O 	0.38858	0.58613	0.8565	-0.461
Mof_O 	O 	0.38646	0.44659	0.9079	-0.362
Mof_O 	O 	0.41387	0.80245	0.8565	-0.448
Mof_O 	O 	0.55341	0.93987	0.9079	-0.321
Mof_O 	O 	0.80245	0.38858	0.8565	-0.449
Mof_O 	O 	0.93987	0.38646	0.9079	-0.324
Mof_O 	O 	0.61142	0.41387	0.8565	-0.459
Mof_O 	O 	0.61354	0.55341	0.9079	-0.357
Mof_O 	O 	0.58613	0.19755	0.8565	-0.469
Mof_O 	O 	0.44659	0.06013	0.9079	-0.386
Mof_O 	O 	0.41387	0.61142	0.3565	-0.488
Mof_O 	O 	0.55341	0.61354	0.4079	-0.421
Mof_O 	O 	0.19755	0.58613	0.3565	-0.498
Mof_O 	O 	0.06013	0.44659	0.4079	-0.451
Mof_O 	O 	0.38858	0.80245	0.3565	-0.476
Mof_O 	O 	0.38646	0.93987	0.4079	-0.386
Mof_O 	O 	0.58613	0.38858	0.3565	-0.489
Mof_O 	O 	0.44659	0.38646	0.4079	-0.427
Mof_O 	O 	0.80245	0.41387	0.3565	-0.476
Mof_O 	O 	0.93987	0.55341	0.4079	-0.383
Mof_O 	O 	0.61142	0.19755	0.3565	-0.497
Mof_O 	O 	0.61354	0.06013	0.4079	-0.448
Mof_O 	O 	0.80245	0.38858	0.1435	-0.5
Mof_O 	O 	0.93987	0.38646	0.0921	-0.423
Mof_O 	O 	0.61142	0.41387	0.1435	-0.511
Mof_O 	O 	0.61354	0.55341	0.0921	-0.459
Mof_O 	O 	0.58613	0.19755	0.1435	-0.521
Mof_O 	O 	0.44659	0.06013	0.0921	-0.489
Mof_O 	O 	0.19755	0.61142	0.1435	-0.52
Mof_O 	O 	0.06013	0.61354	0.0921	-0.486
Mof_O 	O 	0.38858	0.58613	0.1435	-0.513
Mof_O 	O 	0.38646	0.44659	0.0921	-0.466
Mof_O 	O 	0.41387	0.80245	0.1435	-0.499
Mof_O 	O 	0.55341	0.93987	0.0921	-0.42
_end
