data_functionalizedCrystal
_audit_creation_method	'EQeq! by Chris Wilmer'
_symmetry_space_group_name_H-M	'P1'
_symmetry_Int_Tables_number	1
_symmetry_cell_setting	triclinic
loop_
_symmetry_equiv_pos_as_xyz
  x,y,z
_cell_length_a	10.079
_cell_length_b	14.817
_cell_length_c	20.165
_cell_angle_alpha	98.577
_cell_angle_beta	103.941
_cell_angle_gamma	91.757
loop_
_atom_site_label
_atom_site_type_symbol
_atom_site_fract_x
_atom_site_fract_y
_atom_site_fract_z
_atom_site_charge
Mof_N 	N 	0.8761	0.2286	0.3493	-0.233
Mof_C 	C 	0.7655	0.1799	0.2961	0.055
Mof_H 	H 	0.6967	0.2127	0.2732	0.018
Mof_C 	C 	0.757	0.0837	0.2774	-0.136
Mof_H 	H 	0.6956	0.0525	0.238	0.089
Mof_C 	C 	0.8495	0.0396	0.3233	0.101
Mof_N 	N 	0.1492	0.1923	0.2024	-0.224
Mof_C 	C 	0.2516	0.1644	0.2488	0.085
Mof_H 	H 	0.3205	0.2078	0.2744	0.008
Mof_Co	Co	0.89282	0.3744	0.34693	1.175
Mof_Co	Co	0.13889	0.33832	0.2061	1.174
Mof_O 	O 	0.0903	0.3784	0.4013	-0.434
Mof_O 	O 	0.9408	0.3231	0.1498	-0.433
Mof_O 	O 	0.8126	0.3986	0.4398	-0.363
Mof_O 	O 	0.3536	0.345	0.212	-0.372
Mof_O 	O 	0.6766	0.3788	0.337	-0.367
Mof_O 	O 	0.2172	0.3344	0.1086	-0.347
Mof_O 	O 	0.1703	0.344	0.3088	-0.468
Mof_N 	N 	0.136	0.4834	0.2168	-0.234
Mof_C 	C 	0.5885	0.3388	0.1613	-0.042
Mof_H 	H 	0.6003	0.3439	0.2089	0.073
Mof_N 	N 	0.911	0.5187	0.3447	-0.238
Mof_C 	C 	0.4424	0.3771	0.3886	-0.041
Mof_H 	H 	0.4294	0.3738	0.3411	0.073
Mof_C 	C 	0.3299	0.373	0.4181	-0.038
Mof_C 	C 	0.5735	0.3861	0.4323	-0.002
Mof_O 	O 	0.513	0.3783	0.5998	-0.218
Mof_C 	C 	0.1864	0.3647	0.3726	0.38
Mof_C 	C 	0.8439	0.333	0.1792	0.382
Mof_C 	C 	0.7039	0.3327	0.1326	-0.043
Mof_O 	O 	0.5253	0.3324	0.9501	-0.213
Mof_O 	O 	0.8578	0.3412	0.2422	-0.468
Mof_C 	C 	0.6954	0.3882	0.4022	0.281
Mof_C 	C 	0.5559	0.3324	0.0198	0.188
Mof_C 	C 	0.3497	0.3751	0.489	-0.128
Mof_H 	H 	0.2746	0.3726	0.508	0.095
Mof_C 	C 	0.5931	0.388	0.502	-0.14
Mof_H 	H 	0.6818	0.394	0.5302	0.106
Mof_C 	C 	0.6845	0.329	0.0616	-0.128
Mof_H 	H 	0.7594	0.3241	0.0422	0.091
Mof_C 	C 	0.4595	0.3371	0.1188	-0.007
Mof_C 	C 	0.6354	0.3309	0.9166	-0.018
Mof_H 	H 	0.6808	0.2744	0.92	0.04
Mof_H 	H 	0.7022	0.3817	0.9383	0.041
Mof_C 	C 	0.3352	0.3401	0.1482	0.276
Mof_C 	C 	0.0756	0.5275	0.1668	0.09
Mof_H 	H 	0.0277	0.4932	0.1249	-0.002
Mof_C 	C 	0.1566	0.7739	0.2511	0.081
Mof_C 	C 	0.8692	0.7926	0.3043	0.084
Mof_N 	N 	0.8146	0.8989	0.243	-0.087
Mof_C 	C 	0.4822	0.381	0.5314	0.194
Mof_C 	C 	0.1611	0.011	0.2242	0.068
Mof_C 	C 	0.201	0.5349	0.2774	0.084
Mof_H 	H 	0.2433	0.5059	0.3139	0.003
Mof_C 	C 	0.1638	0.9197	0.2454	0.086
Mof_C 	C 	0.5758	0.3383	0.8424	0.04
Mof_C 	C 	0.462	0.3542	0.7043	0.058
Mof_C 	C 	0.5359	0.2608	0.7942	-0.049
Mof_H 	H 	0.5453	0.2034	0.8076	0.061
Mof_C 	C 	0.5568	0.424	0.8229	-0.046
Mof_H 	H 	0.5837	0.4765	0.8558	0.059
Mof_C 	C 	0.4409	0.3331	0.0471	-0.136
Mof_H 	H 	0.3533	0.331	0.0182	0.106
Mof_C 	C 	0.9402	0.0788	0.3708	-0.174
Mof_H 	H 	0.0049	0.0462	0.3969	0.105
Mof_C 	C 	0.1455	0.6749	0.2333	0.074
Mof_N 	N 	0.8317	0.8191	0.2508	-0.087
Mof_C 	C 	0.4015	0.3626	0.6308	-0.035
Mof_H 	H 	0.3472	0.3069	0.6068	0.05
Mof_H 	H 	0.3427	0.4132	0.6282	0.053
Mof_C 	C 	0.4802	0.2682	0.7238	-0.067
Mof_H 	H 	0.4558	0.2158	0.6907	0.067
Mof_C 	C 	0.2072	0.6284	0.2872	-0.136
Mof_H 	H 	0.2526	0.6615	0.33	0.103
Mof_C 	C 	0.0535	0.0348	0.1727	-0.138
Mof_H 	H 	0.9862	0.9921	0.1446	0.087
Mof_N 	N 	0.1894	0.8172	0.314	-0.085
Mof_C 	C 	0.9511	0.6882	0.383	-0.153
Mof_H 	H 	0.9839	0.7395	0.4165	0.097
Mof_C 	C 	0.2619	0.0765	0.2612	-0.139
Mof_H 	H 	0.3359	0.0612	0.2941	0.09
Mof_C 	C 	0.8457	0.9346	0.3051	0.09
Mof_C 	C 	0.8844	0.6918	0.318	0.133
Mof_C 	C 	0.969	0.5783	0.3977	0.062
Mof_H 	H 	0.0159	0.5631	0.4398	0.024
Mof_N 	N 	0.1935	0.9086	0.3105	-0.085
Mof_C 	C 	0.0554	0.1285	0.1669	0.087
Mof_H 	H 	0.983	0.1468	0.1347	0.004
Mof_C 	C 	0.0794	0.6222	0.1731	-0.143
Mof_H 	H 	0.0362	0.6494	0.1357	0.08
Mof_C 	C 	0.945	0.1859	0.387	0.132
Mof_H 	H 	0.0047	0.2164	0.4275	-0.013
Mof_C 	C 	0.4981	0.4314	0.7547	-0.074
Mof_H 	H 	0.4825	0.489	0.7425	0.076
Mof_N 	N 	0.1394	0.8372	0.2058	-0.089
Mof_N 	N 	0.8897	0.874	0.3501	-0.121
Mof_N 	N 	0.1142	0.8169	0.1345	-0.246
Mof_H 	H 	0.1131	0.8603	0.1104	0.139
Mof_H 	H 	0.0997	0.7609	0.1142	0.135
Mof_C 	C 	0.8347	0.629	0.2692	-0.242
Mof_H 	H 	0.7895	0.6398	0.2255	0.13
Mof_C 	C 	0.8508	0.5478	0.2842	0.142
Mof_H 	H 	0.8151	0.5009	0.2474	-0.023
Mof_N 	N 	0.1239	0.7714	0.6507	-0.233
Mof_C 	C 	0.2345	0.8201	0.7039	0.055
Mof_H 	H 	0.3033	0.7873	0.7268	0.018
Mof_C 	C 	0.243	0.9163	0.7226	-0.136
Mof_H 	H 	0.3044	0.9475	0.762	0.089
Mof_C 	C 	0.1505	0.9604	0.6767	0.101
Mof_N 	N 	0.8508	0.8077	0.7976	-0.224
Mof_C 	C 	0.7484	0.8356	0.7512	0.085
Mof_H 	H 	0.6795	0.7922	0.7256	0.008
Mof_Co	Co	0.10718	0.6256	0.65307	1.175
Mof_Co	Co	0.86111	0.66168	0.7939	1.174
Mof_O 	O 	0.9097	0.6216	0.5987	-0.434
Mof_O 	O 	0.0592	0.6769	0.8502	-0.433
Mof_O 	O 	0.1874	0.6014	0.5602	-0.363
Mof_O 	O 	0.6464	0.655	0.788	-0.372
Mof_O 	O 	0.3234	0.6212	0.663	-0.367
Mof_O 	O 	0.7828	0.6656	0.8914	-0.347
Mof_O 	O 	0.8297	0.656	0.6912	-0.468
Mof_N 	N 	0.864	0.5166	0.7832	-0.234
Mof_C 	C 	0.4115	0.6612	0.8387	-0.042
Mof_H 	H 	0.3997	0.6561	0.7911	0.073
Mof_N 	N 	0.089	0.4813	0.6553	-0.238
Mof_C 	C 	0.5576	0.6229	0.6114	-0.041
Mof_H 	H 	0.5706	0.6262	0.6589	0.073
Mof_C 	C 	0.6701	0.627	0.5819	-0.038
Mof_C 	C 	0.4265	0.6139	0.5677	-0.002
Mof_O 	O 	0.487	0.6217	0.4002	-0.218
Mof_C 	C 	0.8136	0.6353	0.6274	0.38
Mof_C 	C 	0.1561	0.667	0.8208	0.382
Mof_C 	C 	0.2961	0.6673	0.8674	-0.043
Mof_O 	O 	0.4747	0.6676	0.0499	-0.213
Mof_O 	O 	0.1422	0.6588	0.7578	-0.468
Mof_C 	C 	0.3046	0.6118	0.5978	0.281
Mof_C 	C 	0.4441	0.6676	0.9802	0.188
Mof_C 	C 	0.6503	0.6249	0.511	-0.128
Mof_H 	H 	0.7254	0.6274	0.492	0.095
Mof_C 	C 	0.4069	0.612	0.498	-0.14
Mof_H 	H 	0.3182	0.606	0.4698	0.106
Mof_C 	C 	0.3155	0.671	0.9384	-0.128
Mof_H 	H 	0.2406	0.6759	0.9578	0.091
Mof_C 	C 	0.5405	0.6629	0.8812	-0.007
Mof_C 	C 	0.3646	0.6691	0.0834	-0.018
Mof_H 	H 	0.3192	0.7256	0.08	0.04
Mof_H 	H 	0.2978	0.6183	0.0617	0.041
Mof_C 	C 	0.6648	0.6599	0.8518	0.276
Mof_C 	C 	0.9244	0.4725	0.8332	0.09
Mof_H 	H 	0.9723	0.5068	0.8751	-0.002
Mof_C 	C 	0.8434	0.2261	0.7489	0.081
Mof_C 	C 	0.1308	0.2074	0.6957	0.084
Mof_N 	N 	0.1854	0.1011	0.757	-0.087
Mof_C 	C 	0.5178	0.619	0.4686	0.194
Mof_C 	C 	0.8389	0.989	0.7758	0.068
Mof_C 	C 	0.799	0.4651	0.7226	0.084
Mof_H 	H 	0.7567	0.4941	0.6861	0.003
Mof_C 	C 	0.8362	0.0803	0.7546	0.086
Mof_C 	C 	0.4242	0.6617	0.1576	0.04
Mof_C 	C 	0.538	0.6458	0.2957	0.058
Mof_C 	C 	0.4641	0.7392	0.2058	-0.049
Mof_H 	H 	0.4547	0.7966	0.1924	0.061
Mof_C 	C 	0.4432	0.576	0.1771	-0.046
Mof_H 	H 	0.4163	0.5235	0.1442	0.059
Mof_C 	C 	0.5591	0.6669	0.9529	-0.136
Mof_H 	H 	0.6467	0.669	0.9818	0.106
Mof_C 	C 	0.0598	0.9212	0.6292	-0.174
Mof_H 	H 	0.9951	0.9538	0.6031	0.105
Mof_C 	C 	0.8545	0.3251	0.7667	0.074
Mof_N 	N 	0.1683	0.1809	0.7492	-0.087
Mof_C 	C 	0.5985	0.6374	0.3692	-0.035
Mof_H 	H 	0.6528	0.6931	0.3932	0.05
Mof_H 	H 	0.6573	0.5868	0.3718	0.053
Mof_C 	C 	0.5198	0.7318	0.2762	-0.067
Mof_H 	H 	0.5442	0.7842	0.3093	0.067
Mof_C 	C 	0.7928	0.3716	0.7128	-0.136
Mof_H 	H 	0.7474	0.3385	0.67	0.103
Mof_C 	C 	0.9465	0.9652	0.8273	-0.138
Mof_H 	H 	0.0138	0.0079	0.8554	0.087
Mof_N 	N 	0.8106	0.1828	0.686	-0.085
Mof_C 	C 	0.0489	0.3118	0.617	-0.153
Mof_H 	H 	0.0161	0.2605	0.5835	0.097
Mof_C 	C 	0.7381	0.9235	0.7388	-0.139
Mof_H 	H 	0.6641	0.9388	0.7059	0.09
Mof_C 	C 	0.1543	0.0654	0.6949	0.09
Mof_C 	C 	0.1156	0.3082	0.682	0.133
Mof_C 	C 	0.031	0.4217	0.6023	0.062
Mof_H 	H 	0.9841	0.4369	0.5602	0.024
Mof_N 	N 	0.8065	0.0914	0.6895	-0.085
Mof_C 	C 	0.9446	0.8715	0.8331	0.087
Mof_H 	H 	0.017	0.8532	0.8653	0.004
Mof_C 	C 	0.9206	0.3778	0.8269	-0.143
Mof_H 	H 	0.9638	0.3506	0.8643	0.08
Mof_C 	C 	0.055	0.8141	0.613	0.132
Mof_H 	H 	0.9953	0.7836	0.5725	-0.013
Mof_C 	C 	0.5019	0.5686	0.2453	-0.074
Mof_H 	H 	0.5175	0.511	0.2575	0.076
Mof_N 	N 	0.8606	0.1628	0.7942	-0.089
Mof_N 	N 	0.1103	0.126	0.6499	-0.121
Mof_N 	N 	0.8858	0.1831	0.8655	-0.246
Mof_H 	H 	0.8869	0.1397	0.8896	0.139
Mof_H 	H 	0.9003	0.2391	0.8858	0.135
Mof_C 	C 	0.1653	0.371	0.7308	-0.242
Mof_H 	H 	0.2105	0.3602	0.7745	0.13
Mof_C 	C 	0.1492	0.4522	0.7158	0.142
Mof_H 	H 	0.1849	0.4991	0.7526	-0.023
_end
