data_functionalizedCrystal
_audit_creation_method	'EQeq! by Chris Wilmer'
_symmetry_space_group_name_H-M	'P1'
_symmetry_Int_Tables_number	1
_symmetry_cell_setting	triclinic
loop_
_symmetry_equiv_pos_as_xyz
  x,y,z
_cell_length_a	5.003
_cell_length_b	8.5434
_cell_length_c	12.4336
_cell_angle_alpha	92.99
_cell_angle_beta	97.138
_cell_angle_gamma	91.465
loop_
_atom_site_label
_atom_site_type_symbol
_atom_site_fract_x
_atom_site_fract_y
_atom_site_fract_z
_atom_site_charge
Mof_C 	C 	0.0405	0.085	0.5173	0.2
Mof_Zn	Zn	0.6063	0.13674	0.94045	1.216
Mof_Zn	Zn	0.1138	0.36276	0.1395	1.225
Mof_Zn	Zn	0.8553	0.9682	0.70233	1.229
Mof_P 	P 	0.6178	0.1761	0.2003	0.531
Mof_P 	P 	0.0418	0.2879	0.8769	0.523
Mof_O 	O 	0.3391	0.275	0.8767	-0.478
Mof_O 	O 	0.5451	0.0856	0.0903	-0.666
Mof_O 	O 	0.8813	0.1367	0.8287	-0.561
Mof_O 	O 	0.9548	0.3051	0.993	-0.616
Mof_O 	O 	0.9481	0.4262	0.8099	-0.42
Mof_O 	O 	0.4901	0.3364	0.1918	-0.477
Mof_O 	O 	0.9284	0.2013	0.2215	-0.575
Mof_O 	O 	0.5276	0.0802	0.2897	-0.471
Mof_O 	O 	0.9899	0.1368	0.6099	-0.333
Mof_O 	O 	0.143	0.1635	0.4507	-0.327
Mof_C 	C 	0.9595	0.915	0.4827	0.2
Mof_Zn	Zn	0.3937	0.86326	0.05955	1.216
Mof_Zn	Zn	0.8862	0.63724	0.8605	1.225
Mof_Zn	Zn	0.1447	0.0318	0.29767	1.229
Mof_P 	P 	0.3822	0.8239	0.7997	0.531
Mof_P 	P 	0.9582	0.7121	0.1231	0.523
Mof_O 	O 	0.6609	0.725	0.1233	-0.478
Mof_O 	O 	0.4549	0.9144	0.9097	-0.666
Mof_O 	O 	0.1187	0.8633	0.1713	-0.561
Mof_O 	O 	0.0452	0.6949	0.007	-0.616
Mof_O 	O 	0.0519	0.5738	0.1901	-0.42
Mof_O 	O 	0.5099	0.6636	0.8082	-0.477
Mof_O 	O 	0.0716	0.7987	0.7785	-0.575
Mof_O 	O 	0.4724	0.9198	0.7103	-0.471
Mof_O 	O 	0.0101	0.8632	0.3901	-0.333
Mof_O 	O 	0.857	0.8365	0.5493	-0.327
_end
