# CIF file generated by openbabel 3.1.0, see https://openbabel.org
data_I
_chemical_name_common 'image0'
_cell_length_a 9.8439
_cell_length_b 17.6747
_cell_length_c 11.8051
_cell_angle_alpha 90
_cell_angle_beta 99.458
_cell_angle_gamma 90
_space_group_name_H-M_alt 'P 1'
_space_group_name_Hall 'P 1'
loop_
    _symmetry_equiv_pos_as_xyz
    x,y,z
loop_
    _atom_site_label
    _atom_site_type_symbol
    _atom_site_fract_x
    _atom_site_fract_y
    _atom_site_fract_z
    _atom_site_occupancy
    C1       C        0.33090    0.08174    0.18640    1.000
    C2       C        0.84060    0.13421    0.20770    1.000
    C3       C        0.58520    0.10904    0.19900    1.000
    H1       H        0.59560    0.06200    0.16410    1.000
    C4       C        0.45640    0.13107    0.22140    1.000
    C5       C        0.69810    0.15626    0.22775    1.000
    C6       C        0.44080    0.20006    0.27360    1.000
    H2       H        0.35480    0.21470    0.29120    1.000
    C7       C        0.68270    0.22685    0.27710    1.000
    H3       H        0.75810    0.25990    0.29490    1.000
    C8       C        0.55420    0.24704    0.29924    1.000
    C9       C        0.63410    0.26913    0.54970    1.000
    H4       H        0.73070    0.26450    0.54330    1.000
    H5       H        0.58790    0.22140    0.52930    1.000
    H6       H        0.62560    0.28220    0.62800    1.000
    C10      C        0.56990    0.32919    0.47090    1.000
    C11      C        0.48940    0.38535    0.31020    1.000
    C12      C        0.44120    0.40637    0.18930    1.000
    C13      C        0.43620    0.35940    0.09410    1.000
    H7       H        0.47140    0.31000    0.10390    1.000
    C14      C        0.33440    0.45426    0.98040    1.000
    H8       H        0.29150    0.47220    0.90840    1.000
    C15      C        0.34590    0.50236    0.07470    1.000
    H9       H        0.31500    0.55260    0.06440    1.000
    N1       N        0.53854    0.31827    0.35518    1.000
    N2       N        0.53893    0.39914    0.49532    1.000
    N3       N        0.48769    0.43442    0.39303    1.000
    N4       N        0.39980    0.47857    0.17860    1.000
    N5       N        0.38180    0.38365    0.98860    1.000
    O1       O        0.33700    0.02745    0.12120    1.000
    O2       O        0.22370    0.10246    0.22271    1.000
    O3       O        0.86153    0.06497    0.18856    1.000
    O4       O        0.92880    0.18473    0.20870    1.000
    Zn1      Zn       0.44664    0.54765    0.34196    1.000
    C16      C        0.16910    0.58174    0.31360    1.000
    C17      C        0.65940    0.63421    0.29230    1.000
    C18      C        0.91480    0.60904    0.30100    1.000
    H10      H        0.90440    0.56200    0.33590    1.000
    C19      C        0.04360    0.63107    0.27860    1.000
    C20      C        0.80190    0.65626    0.27225    1.000
    C21      C        0.05920    0.70006    0.22640    1.000
    H11      H        0.14520    0.71470    0.20880    1.000
    C22      C        0.81730    0.72685    0.22290    1.000
    H12      H        0.74190    0.75990    0.20510    1.000
    C23      C        0.94580    0.74704    0.20076    1.000
    C24      C        0.86590    0.76913    0.95030    1.000
    H13      H        0.76930    0.76450    0.95670    1.000
    H14      H        0.91210    0.72140    0.97070    1.000
    H15      H        0.87440    0.78220    0.87200    1.000
    C25      C        0.93010    0.82919    0.02910    1.000
    C26      C        0.01060    0.88535    0.18980    1.000
    C27      C        0.05880    0.90637    0.31070    1.000
    C28      C        0.06380    0.85940    0.40590    1.000
    H16      H        0.02860    0.81000    0.39610    1.000
    C29      C        0.16560    0.95426    0.51960    1.000
    H17      H        0.20850    0.97220    0.59160    1.000
    C30      C        0.15410    0.00236    0.42530    1.000
    H18      H        0.18500    0.05260    0.43560    1.000
    N6       N        0.96146    0.81827    0.14482    1.000
    N7       N        0.96107    0.89914    0.00468    1.000
    N8       N        0.01231    0.93442    0.10697    1.000
    N9       N        0.10020    0.97857    0.32140    1.000
    N10      N        0.11820    0.88365    0.51140    1.000
    O5       O        0.16300    0.52745    0.37880    1.000
    O6       O        0.27630    0.60246    0.27729    1.000
    O7       O        0.63847    0.56497    0.31144    1.000
    O8       O        0.57120    0.68473    0.29130    1.000
    Zn2      Zn       0.05336    0.04765    0.15804    1.000
    C31      C        0.66910    0.91826    0.81360    1.000
    C32      C        0.15940    0.86579    0.79230    1.000
    C33      C        0.41480    0.89096    0.80100    1.000
    H19      H        0.40440    0.93800    0.83590    1.000
    C34      C        0.54360    0.86893    0.77860    1.000
    C35      C        0.30190    0.84374    0.77225    1.000
    C36      C        0.55920    0.79994    0.72640    1.000
    H20      H        0.64520    0.78530    0.70880    1.000
    C37      C        0.31730    0.77315    0.72290    1.000
    H21      H        0.24190    0.74010    0.70510    1.000
    C38      C        0.44580    0.75296    0.70076    1.000
    C39      C        0.36590    0.73087    0.45030    1.000
    H22      H        0.26930    0.73550    0.45670    1.000
    H23      H        0.41210    0.77860    0.47070    1.000
    H24      H        0.37440    0.71780    0.37200    1.000
    C40      C        0.43010    0.67081    0.52910    1.000
    C41      C        0.51060    0.61465    0.68980    1.000
    C42      C        0.55880    0.59363    0.81070    1.000
    C43      C        0.56380    0.64060    0.90590    1.000
    H25      H        0.52860    0.69000    0.89610    1.000
    C44      C        0.66560    0.54574    0.01960    1.000
    H26      H        0.70850    0.52780    0.09160    1.000
    C45      C        0.65410    0.49764    0.92530    1.000
    H27      H        0.68500    0.44740    0.93560    1.000
    N11      N        0.46146    0.68173    0.64482    1.000
    N12      N        0.46107    0.60086    0.50468    1.000
    N13      N        0.51231    0.56558    0.60697    1.000
    N14      N        0.60020    0.52143    0.82140    1.000
    N15      N        0.61820    0.61635    0.01140    1.000
    O9       O        0.66300    0.97255    0.87880    1.000
    O10      O        0.77630    0.89754    0.77729    1.000
    O11      O        0.13847    0.93503    0.81144    1.000
    O12      O        0.07120    0.81527    0.79130    1.000
    Zn3      Zn       0.55336    0.45235    0.65804    1.000
    C46      C        0.83090    0.41826    0.68640    1.000
    C47      C        0.34060    0.36579    0.70770    1.000
    C48      C        0.08520    0.39096    0.69900    1.000
    H28      H        0.09560    0.43800    0.66410    1.000
    C49      C        0.95640    0.36893    0.72140    1.000
    C50      C        0.19810    0.34374    0.72775    1.000
    C51      C        0.94080    0.29994    0.77360    1.000
    H29      H        0.85480    0.28530    0.79120    1.000
    C52      C        0.18270    0.27315    0.77710    1.000
    H30      H        0.25810    0.24010    0.79490    1.000
    C53      C        0.05420    0.25296    0.79924    1.000
    C54      C        0.13410    0.23087    0.04970    1.000
    H31      H        0.23070    0.23550    0.04330    1.000
    H32      H        0.08790    0.27860    0.02930    1.000
    H33      H        0.12560    0.21780    0.12800    1.000
    C55      C        0.06990    0.17081    0.97090    1.000
    C56      C        0.98940    0.11465    0.81020    1.000
    C57      C        0.94120    0.09363    0.68930    1.000
    C58      C        0.93620    0.14060    0.59410    1.000
    H34      H        0.97140    0.19000    0.60390    1.000
    C59      C        0.83440    0.04574    0.48040    1.000
    H35      H        0.79150    0.02780    0.40840    1.000
    C60      C        0.84590    0.99764    0.57470    1.000
    H36      H        0.81500    0.94740    0.56440    1.000
    N16      N        0.03854    0.18173    0.85518    1.000
    N17      N        0.03893    0.10086    0.99532    1.000
    N18      N        0.98769    0.06558    0.89303    1.000
    N19      N        0.89980    0.02143    0.67860    1.000
    N20      N        0.88180    0.11635    0.48860    1.000
    O13      O        0.83700    0.47255    0.62120    1.000
    O14      O        0.72370    0.39754    0.72271    1.000
    O15      O        0.36153    0.43503    0.68856    1.000
    O16      O        0.42880    0.31527    0.70870    1.000
    Zn4      Zn       0.94664    0.95235    0.84196    1.000
