# CIF file generated by openbabel 3.1.0, see https://openbabel.org
data_I
_chemical_name_common 'image0'
_cell_length_a 26.0767
_cell_length_b 26.0767
_cell_length_c 8.9467
_cell_angle_alpha 90
_cell_angle_beta 90
_cell_angle_gamma 90
_space_group_name_H-M_alt 'P 1'
_space_group_name_Hall 'P 1'
loop_
    _symmetry_equiv_pos_as_xyz
    x,y,z
loop_
    _atom_site_label
    _atom_site_type_symbol
    _atom_site_fract_x
    _atom_site_fract_y
    _atom_site_fract_z
    _atom_site_occupancy
    In1      In       0.27433    0.14260    0.68362    1.000
    O1       O        0.20388    0.10474    0.73860    1.000
    O2       O        0.14221    0.05547    0.64630    1.000
    O3       O        0.24115    0.11843    0.46100    1.000
    O4       O        0.18260    0.06349    0.37340    1.000
    O5       O        0.27566    0.20258    0.86390    1.000
    O6       O        0.26735    0.28655    0.90380    1.000
    C1       C        0.18122    0.08208    0.63230    1.000
    C2       C        0.20363    0.08871    0.47390    1.000
    C3       C        0.26249    0.24698    0.82660    1.000
    In2      In       0.77433    0.64260    0.18362    1.000
    O7       O        0.70388    0.60474    0.23860    1.000
    O8       O        0.64221    0.55547    0.14630    1.000
    O9       O        0.74115    0.61843    0.96100    1.000
    O10      O        0.68260    0.56349    0.87340    1.000
    O11      O        0.77566    0.70258    0.36390    1.000
    O12      O        0.76735    0.78655    0.40380    1.000
    C4       C        0.68122    0.58208    0.13230    1.000
    C5       C        0.70363    0.58871    0.97390    1.000
    C6       C        0.76249    0.74698    0.32660    1.000
    In3      In       0.22567    0.85740    0.18362    1.000
    O13      O        0.29612    0.89526    0.23860    1.000
    O14      O        0.35779    0.94453    0.14630    1.000
    O15      O        0.25885    0.88157    0.96100    1.000
    O16      O        0.31740    0.93651    0.87340    1.000
    O17      O        0.22434    0.79742    0.36390    1.000
    O18      O        0.23265    0.71345    0.40380    1.000
    C7       C        0.31878    0.91792    0.13230    1.000
    C8       C        0.29637    0.91129    0.97390    1.000
    C9       C        0.23751    0.75302    0.32660    1.000
    In4      In       0.72567    0.35740    0.68362    1.000
    O19      O        0.79612    0.39526    0.73860    1.000
    O20      O        0.85779    0.44453    0.64630    1.000
    O21      O        0.75885    0.38157    0.46100    1.000
    O22      O        0.81740    0.43651    0.37340    1.000
    O23      O        0.72434    0.29742    0.86390    1.000
    O24      O        0.73265    0.21345    0.90380    1.000
    C10      C        0.81878    0.41792    0.63230    1.000
    C11      C        0.79637    0.41129    0.47390    1.000
    C12      C        0.73751    0.25302    0.82660    1.000
    In5      In       0.60740    0.52433    0.93362    1.000
    O25      O        0.64526    0.45388    0.98860    1.000
    O26      O        0.69453    0.39221    0.89630    1.000
    O27      O        0.63157    0.49115    0.71100    1.000
    O28      O        0.68651    0.43260    0.62340    1.000
    O29      O        0.54742    0.52566    0.11390    1.000
    O30      O        0.46345    0.51735    0.15380    1.000
    C13      C        0.66792    0.43122    0.88230    1.000
    C14      C        0.66129    0.45363    0.72390    1.000
    C15      C        0.50302    0.51249    0.07660    1.000
    In6      In       0.10740    0.02433    0.43362    1.000
    O31      O        0.14526    0.95388    0.48860    1.000
    O32      O        0.19453    0.89221    0.39630    1.000
    O33      O        0.13157    0.99115    0.21100    1.000
    O34      O        0.18651    0.93260    0.12340    1.000
    O35      O        0.04742    0.02566    0.61390    1.000
    O36      O        0.96345    0.01735    0.65380    1.000
    C16      C        0.16792    0.93122    0.38230    1.000
    C17      C        0.16129    0.95363    0.22390    1.000
    C18      C        0.00302    0.01249    0.57660    1.000
    In7      In       0.89260    0.47567    0.43362    1.000
    O37      O        0.85474    0.54612    0.48860    1.000
    O38      O        0.80547    0.60779    0.39630    1.000
    O39      O        0.86843    0.50885    0.21100    1.000
    O40      O        0.81349    0.56740    0.12340    1.000
    O41      O        0.95258    0.47434    0.61390    1.000
    O42      O        0.03655    0.48265    0.65380    1.000
    C19      C        0.83208    0.56878    0.38230    1.000
    C20      C        0.83871    0.54637    0.22390    1.000
    C21      C        0.99698    0.48751    0.57660    1.000
    In8      In       0.39260    0.97567    0.93362    1.000
    O43      O        0.35474    0.04612    0.98860    1.000
    O44      O        0.30547    0.10779    0.89630    1.000
    O45      O        0.36843    0.00885    0.71100    1.000
    O46      O        0.31349    0.06740    0.62340    1.000
    O47      O        0.45258    0.97434    0.11390    1.000
    O48      O        0.53655    0.98265    0.15380    1.000
    C22      C        0.33208    0.06878    0.88230    1.000
    C23      C        0.33871    0.04637    0.72390    1.000
    C24      C        0.49698    0.98751    0.07660    1.000
    In9      In       0.72567    0.85740    0.31638    1.000
    O49      O        0.79612    0.89526    0.26140    1.000
    O50      O        0.85779    0.94453    0.35370    1.000
    O51      O        0.75885    0.88157    0.53900    1.000
    O52      O        0.81740    0.93651    0.62660    1.000
    O53      O        0.72434    0.79742    0.13610    1.000
    O54      O        0.73265    0.71345    0.09620    1.000
    C25      C        0.81878    0.91792    0.36770    1.000
    C26      C        0.79637    0.91129    0.52610    1.000
    C27      C        0.73751    0.75302    0.17340    1.000
    In10     In       0.22567    0.35740    0.81638    1.000
    O55      O        0.29612    0.39526    0.76140    1.000
    O56      O        0.35779    0.44453    0.85370    1.000
    O57      O        0.25885    0.38157    0.03900    1.000
    O58      O        0.31740    0.43651    0.12660    1.000
    O59      O        0.22434    0.29742    0.63610    1.000
    O60      O        0.23265    0.21345    0.59620    1.000
    C28      C        0.31878    0.41792    0.86770    1.000
    C29      C        0.29637    0.41129    0.02610    1.000
    C30      C        0.23751    0.25302    0.67340    1.000
    In11     In       0.77433    0.14260    0.81638    1.000
    O61      O        0.70388    0.10474    0.76140    1.000
    O62      O        0.64221    0.05547    0.85370    1.000
    O63      O        0.74115    0.11843    0.03900    1.000
    O64      O        0.68260    0.06349    0.12660    1.000
    O65      O        0.77566    0.20258    0.63610    1.000
    O66      O        0.76735    0.28655    0.59620    1.000
    C31      C        0.68122    0.08208    0.86770    1.000
    C32      C        0.70363    0.08871    0.02610    1.000
    C33      C        0.76249    0.24698    0.67340    1.000
    In12     In       0.27433    0.64260    0.31638    1.000
    O67      O        0.20388    0.60474    0.26140    1.000
    O68      O        0.14221    0.55547    0.35370    1.000
    O69      O        0.24115    0.61843    0.53900    1.000
    O70      O        0.18260    0.56349    0.62660    1.000
    O71      O        0.27566    0.70258    0.13610    1.000
    O72      O        0.26735    0.78655    0.09620    1.000
    C34      C        0.18122    0.58208    0.36770    1.000
    C35      C        0.20363    0.58871    0.52610    1.000
    C36      C        0.26249    0.74698    0.17340    1.000
    In13     In       0.39260    0.47567    0.06638    1.000
    O73      O        0.35474    0.54612    0.01140    1.000
    O74      O        0.30547    0.60779    0.10370    1.000
    O75      O        0.36843    0.50885    0.28900    1.000
    O76      O        0.31349    0.56740    0.37660    1.000
    O77      O        0.45258    0.47434    0.88610    1.000
    O78      O        0.53655    0.48265    0.84620    1.000
    C37      C        0.33208    0.56878    0.11770    1.000
    C38      C        0.33871    0.54637    0.27610    1.000
    C39      C        0.49698    0.48751    0.92340    1.000
    In14     In       0.89260    0.97567    0.56638    1.000
    O79      O        0.85474    0.04612    0.51140    1.000
    O80      O        0.80547    0.10779    0.60370    1.000
    O81      O        0.86843    0.00885    0.78900    1.000
    O82      O        0.81349    0.06740    0.87660    1.000
    O83      O        0.95258    0.97434    0.38610    1.000
    O84      O        0.03655    0.98265    0.34620    1.000
    C40      C        0.83208    0.06878    0.61770    1.000
    C41      C        0.83871    0.04637    0.77610    1.000
    C42      C        0.99698    0.98751    0.42340    1.000
    In15     In       0.10740    0.52433    0.56638    1.000
    O85      O        0.14526    0.45388    0.51140    1.000
    O86      O        0.19453    0.39221    0.60370    1.000
    O87      O        0.13157    0.49115    0.78900    1.000
    O88      O        0.18651    0.43260    0.87660    1.000
    O89      O        0.04742    0.52566    0.38610    1.000
    O90      O        0.96345    0.51735    0.34620    1.000
    C43      C        0.16792    0.43122    0.61770    1.000
    C44      C        0.16129    0.45363    0.77610    1.000
    C45      C        0.00302    0.51249    0.42340    1.000
    In16     In       0.60740    0.02433    0.06638    1.000
    O91      O        0.64526    0.95388    0.01140    1.000
    O92      O        0.69453    0.89221    0.10370    1.000
    O93      O        0.63157    0.99115    0.28900    1.000
    O94      O        0.68651    0.93260    0.37660    1.000
    O95      O        0.54742    0.02566    0.88610    1.000
    O96      O        0.46345    0.01735    0.84620    1.000
    C46      C        0.66792    0.93122    0.11770    1.000
    C47      C        0.66129    0.95363    0.27610    1.000
    C48      C        0.50302    0.01249    0.92340    1.000
