# CIF file generated by openbabel 3.1.0, see https://openbabel.org
data_I
_chemical_name_common 'image0'
_cell_length_a 9.7055
_cell_length_b 17.8498
_cell_length_c 14.7845
_cell_angle_alpha 90
_cell_angle_beta 94.7485
_cell_angle_gamma 90
_space_group_name_H-M_alt 'P 1'
_space_group_name_Hall 'P 1'
loop_
    _symmetry_equiv_pos_as_xyz
    x,y,z
loop_
    _atom_site_label
    _atom_site_type_symbol
    _atom_site_fract_x
    _atom_site_fract_y
    _atom_site_fract_z
    _atom_site_occupancy
    Cd1      Cd       0.86833    0.58159    0.51926    1.000
    O1       O        0.76190    0.54214    0.38438    1.000
    O2       O        0.68380    0.66640    0.53060    1.000
    O3       O        0.83970    0.66233    0.64654    1.000
    O4       O        0.93440    0.46388    0.40310    1.000
    N1       N        0.99290    0.16497    0.05090    1.000
    N2       N        0.24640    0.99002    0.90510    1.000
    C1       C        0.82450    0.48468    0.36320    1.000
    C2       C        0.75810    0.43730    0.28790    1.000
    C3       C        0.82960    0.38000    0.24910    1.000
    H1       H        0.92030    0.36990    0.27090    1.000
    C4       C        0.76750    0.33720    0.17760    1.000
    C5       C        0.63040    0.35140    0.14810    1.000
    H2       H        0.58740    0.32330    0.10090    1.000
    C6       C        0.55770    0.40680    0.18820    1.000
    H3       H        0.46510    0.41460    0.16910    1.000
    C7       C        0.62110    0.45110    0.25660    1.000
    H4       H        0.57250    0.48990    0.28150    1.000
    C8       C        0.00880    0.17760    0.13980    1.000
    H5       H        0.07050    0.14750    0.17490    1.000
    C9       C        0.93930    0.23260    0.18300    1.000
    H6       H        0.95570    0.23930    0.24540    1.000
    C10      C        0.84570    0.27740    0.13400    1.000
    C11      C        0.82720    0.26360    0.04240    1.000
    H7       H        0.76420    0.29220    0.00620    1.000
    C12      C        0.90090    0.20800    0.00350    1.000
    H8       H        0.88580    0.20020    0.94130    1.000
    C13      C        0.72640    0.68430    0.60970    1.000
    C14      C        0.63770    0.73460    0.66210    1.000
    C15      C        0.51190    0.76090    0.62470    1.000
    H9       H        0.47850    0.74520    0.56700    1.000
    C16      C        0.43530    0.81010    0.67180    1.000
    H10      H        0.35280    0.82870    0.64400    1.000
    C17      C        0.47710    0.83250    0.75880    1.000
    C18      C        0.60070    0.80290    0.79730    1.000
    H11      H        0.63190    0.81640    0.85630    1.000
    C19      C        0.67810    0.75410    0.75010    1.000
    H12      H        0.75910    0.73410    0.77830    1.000
    C20      C        0.22140    0.98050    0.81550    1.000
    H13      H        0.15280    0.00950    0.78500    1.000
    C21      C        0.29130    0.93030    0.76620    1.000
    H14      H        0.26950    0.92590    0.70400    1.000
    C22      C        0.39540    0.88590    0.80930    1.000
    C23      C        0.42060    0.89640    0.90170    1.000
    H15      H        0.48840    0.86830    0.93420    1.000
    C24      C        0.34660    0.94790    0.94560    1.000
    H16      H        0.36740    0.95400    0.00770    1.000
    Cd2      Cd       0.13167    0.08159    0.98074    1.000
    O5       O        0.23810    0.04214    0.11562    1.000
    O6       O        0.31620    0.16640    0.96940    1.000
    O7       O        0.16030    0.16233    0.85346    1.000
    O8       O        0.06560    0.96388    0.09690    1.000
    N3       N        0.00710    0.66497    0.44910    1.000
    N4       N        0.75360    0.49002    0.59490    1.000
    C25      C        0.17550    0.98468    0.13680    1.000
    C26      C        0.24190    0.93730    0.21210    1.000
    C27      C        0.17040    0.88000    0.25090    1.000
    H17      H        0.07970    0.86990    0.22910    1.000
    C28      C        0.23250    0.83720    0.32240    1.000
    C29      C        0.36960    0.85140    0.35190    1.000
    H18      H        0.41260    0.82330    0.39910    1.000
    C30      C        0.44230    0.90680    0.31180    1.000
    H19      H        0.53490    0.91460    0.33090    1.000
    C31      C        0.37890    0.95110    0.24340    1.000
    H20      H        0.42750    0.98990    0.21850    1.000
    C32      C        0.99120    0.67760    0.36020    1.000
    H21      H        0.92950    0.64750    0.32510    1.000
    C33      C        0.06070    0.73260    0.31700    1.000
    H22      H        0.04430    0.73930    0.25460    1.000
    C34      C        0.15430    0.77740    0.36600    1.000
    C35      C        0.17280    0.76360    0.45760    1.000
    H23      H        0.23580    0.79220    0.49380    1.000
    C36      C        0.09910    0.70800    0.49650    1.000
    H24      H        0.11420    0.70020    0.55870    1.000
    C37      C        0.27360    0.18430    0.89030    1.000
    C38      C        0.36230    0.23460    0.83790    1.000
    C39      C        0.48810    0.26090    0.87530    1.000
    H25      H        0.52150    0.24520    0.93300    1.000
    C40      C        0.56470    0.31010    0.82820    1.000
    H26      H        0.64720    0.32870    0.85600    1.000
    C41      C        0.52290    0.33250    0.74120    1.000
    C42      C        0.39930    0.30290    0.70270    1.000
    H27      H        0.36810    0.31640    0.64370    1.000
    C43      C        0.32190    0.25410    0.74990    1.000
    H28      H        0.24090    0.23410    0.72170    1.000
    C44      C        0.77860    0.48050    0.68450    1.000
    H29      H        0.84720    0.50950    0.71500    1.000
    C45      C        0.70870    0.43030    0.73380    1.000
    H30      H        0.73050    0.42590    0.79600    1.000
    C46      C        0.60460    0.38590    0.69070    1.000
    C47      C        0.57940    0.39640    0.59830    1.000
    H31      H        0.51160    0.36830    0.56580    1.000
    C48      C        0.65340    0.44790    0.55440    1.000
    H32      H        0.63260    0.45400    0.49230    1.000
    Cd3      Cd       0.13167    0.41841    0.48074    1.000
    O9       O        0.23810    0.45786    0.61562    1.000
    O10      O        0.31620    0.33360    0.46940    1.000
    O11      O        0.16030    0.33767    0.35346    1.000
    O12      O        0.06560    0.53612    0.59690    1.000
    N5       N        0.00710    0.83503    0.94910    1.000
    N6       N        0.75360    0.00998    0.09490    1.000
    C49      C        0.17550    0.51532    0.63680    1.000
    C50      C        0.24190    0.56270    0.71210    1.000
    C51      C        0.17040    0.62000    0.75090    1.000
    H33      H        0.07970    0.63010    0.72910    1.000
    C52      C        0.23250    0.66280    0.82240    1.000
    C53      C        0.36960    0.64860    0.85190    1.000
    H34      H        0.41260    0.67670    0.89910    1.000
    C54      C        0.44230    0.59320    0.81180    1.000
    H35      H        0.53490    0.58540    0.83090    1.000
    C55      C        0.37890    0.54890    0.74340    1.000
    H36      H        0.42750    0.51010    0.71850    1.000
    C56      C        0.99120    0.82240    0.86020    1.000
    H37      H        0.92950    0.85250    0.82510    1.000
    C57      C        0.06070    0.76740    0.81700    1.000
    H38      H        0.04430    0.76070    0.75460    1.000
    C58      C        0.15430    0.72260    0.86600    1.000
    C59      C        0.17280    0.73640    0.95760    1.000
    H39      H        0.23580    0.70780    0.99380    1.000
    C60      C        0.09910    0.79200    0.99650    1.000
    H40      H        0.11420    0.79980    0.05870    1.000
    C61      C        0.27360    0.31570    0.39030    1.000
    C62      C        0.36230    0.26540    0.33790    1.000
    C63      C        0.48810    0.23910    0.37530    1.000
    H41      H        0.52150    0.25480    0.43300    1.000
    C64      C        0.56470    0.18990    0.32820    1.000
    H42      H        0.64720    0.17130    0.35600    1.000
    C65      C        0.52290    0.16750    0.24120    1.000
    C66      C        0.39930    0.19710    0.20270    1.000
    H43      H        0.36810    0.18360    0.14370    1.000
    C67      C        0.32190    0.24590    0.24990    1.000
    H44      H        0.24090    0.26590    0.22170    1.000
    C68      C        0.77860    0.01950    0.18450    1.000
    H45      H        0.84720    0.99050    0.21500    1.000
    C69      C        0.70870    0.06970    0.23380    1.000
    H46      H        0.73050    0.07410    0.29600    1.000
    C70      C        0.60460    0.11410    0.19070    1.000
    C71      C        0.57940    0.10360    0.09830    1.000
    H47      H        0.51160    0.13170    0.06580    1.000
    C72      C        0.65340    0.05210    0.05440    1.000
    H48      H        0.63260    0.04600    0.99230    1.000
    Cd4      Cd       0.86833    0.91841    0.01926    1.000
    O13      O        0.76190    0.95786    0.88438    1.000
    O14      O        0.68380    0.83360    0.03060    1.000
    O15      O        0.83970    0.83767    0.14654    1.000
    O16      O        0.93440    0.03612    0.90310    1.000
    N7       N        0.99290    0.33503    0.55090    1.000
    N8       N        0.24640    0.50998    0.40510    1.000
    C73      C        0.82450    0.01532    0.86320    1.000
    C74      C        0.75810    0.06270    0.78790    1.000
    C75      C        0.82960    0.12000    0.74910    1.000
    H49      H        0.92030    0.13010    0.77090    1.000
    C76      C        0.76750    0.16280    0.67760    1.000
    C77      C        0.63040    0.14860    0.64810    1.000
    H50      H        0.58740    0.17670    0.60090    1.000
    C78      C        0.55770    0.09320    0.68820    1.000
    H51      H        0.46510    0.08540    0.66910    1.000
    C79      C        0.62110    0.04890    0.75660    1.000
    H52      H        0.57250    0.01010    0.78150    1.000
    C80      C        0.00880    0.32240    0.63980    1.000
    H53      H        0.07050    0.35250    0.67490    1.000
    C81      C        0.93930    0.26740    0.68300    1.000
    H54      H        0.95570    0.26070    0.74540    1.000
    C82      C        0.84570    0.22260    0.63400    1.000
    C83      C        0.82720    0.23640    0.54240    1.000
    H55      H        0.76420    0.20780    0.50620    1.000
    C84      C        0.90090    0.29200    0.50350    1.000
    H56      H        0.88580    0.29980    0.44130    1.000
    C85      C        0.72640    0.81570    0.10970    1.000
    C86      C        0.63770    0.76540    0.16210    1.000
    C87      C        0.51190    0.73910    0.12470    1.000
    H57      H        0.47850    0.75480    0.06700    1.000
    C88      C        0.43530    0.68990    0.17180    1.000
    H58      H        0.35280    0.67130    0.14400    1.000
    C89      C        0.47710    0.66750    0.25880    1.000
    C90      C        0.60070    0.69710    0.29730    1.000
    H59      H        0.63190    0.68360    0.35630    1.000
    C91      C        0.67810    0.74590    0.25010    1.000
    H60      H        0.75910    0.76590    0.27830    1.000
    C92      C        0.22140    0.51950    0.31550    1.000
    H61      H        0.15280    0.49050    0.28500    1.000
    C93      C        0.29130    0.56970    0.26620    1.000
    H62      H        0.26950    0.57410    0.20400    1.000
    C94      C        0.39540    0.61410    0.30930    1.000
    C95      C        0.42060    0.60360    0.40170    1.000
    H63      H        0.48840    0.63170    0.43420    1.000
    C96      C        0.34660    0.55210    0.44560    1.000
    H64      H        0.36740    0.54600    0.50770    1.000
