data_functionalizedCrystal
_audit_creation_method	'EQeq! by Chris Wilmer'
_symmetry_space_group_name_H-M	'P1'
_symmetry_Int_Tables_number	1
_symmetry_cell_setting	triclinic
loop_
_symmetry_equiv_pos_as_xyz
  x,y,z
_cell_length_a	8.8294
_cell_length_b	33.7719
_cell_length_c	8.8052
_cell_angle_alpha	90
_cell_angle_beta	107.901
_cell_angle_gamma	90
loop_
_atom_site_label
_atom_site_type_symbol
_atom_site_fract_x
_atom_site_fract_y
_atom_site_fract_z
_atom_site_charge
Mof_Cu	Cu	0.74696	0.20406	0.49762	0.947
Mof_Cu	Cu	0.74245	0.04569	0.50213	0.947
Mof_O 	O 	0.88655	0.15532	0.62326	-0.266
Mof_O 	O 	0.8572	0.09044	0.63137	-0.291
Mof_O 	O 	0.6182	0.15975	0.37507	-0.289
Mof_O 	O 	0.61566	0.0943	0.35658	-0.262
Mof_O 	O 	0.61971	0.20803	0.66086	-0.268
Mof_O 	O 	0.5986	0.2497	0.8471	-0.255
Mof_O 	O 	0.87458	0.24621	0.63821	-0.294
Mof_O 	O 	0.86357	0.28758	0.82979	-0.282
Mof_O 	O 	0.91069	0.04012	0.38113	-0.27
Mof_O 	O 	0.092	0.99824	0.35085	-0.257
Mof_O 	O 	0.5755	0.04031	0.62238	-0.277
Mof_O 	O 	0.38242	0.99851	0.62604	-0.291
Mof_C 	C 	0.8187	0.12392	0.5723	0.235
Mof_C 	C 	0.6699	0.12601	0.4203	0.234
Mof_C 	C 	0.8145	0.25919	0.7389	0.246
Mof_C 	C 	0.6647	0.23731	0.752	0.219
Mof_C 	C 	0.0023	0.01086	0.4224	0.233
Mof_C 	C 	0.488	0.0114	0.5719	0.23
Mof_Cu	Cu	0.25304	0.70406	0.00238	0.946
Mof_Cu	Cu	0.25755	0.54569	0.99787	0.949
Mof_O 	O 	0.11345	0.65532	0.87674	-0.264
Mof_O 	O 	0.1428	0.59044	0.86863	-0.291
Mof_O 	O 	0.3818	0.65975	0.12493	-0.29
Mof_O 	O 	0.38434	0.5943	0.14342	-0.262
Mof_O 	O 	0.38029	0.70803	0.83914	-0.264
Mof_O 	O 	0.4014	0.7497	0.6529	-0.252
Mof_O 	O 	0.12542	0.74621	0.86179	-0.29
Mof_O 	O 	0.13643	0.78758	0.67021	-0.28
Mof_O 	O 	0.08931	0.54012	0.11887	-0.27
Mof_O 	O 	0.908	0.49824	0.14915	-0.257
Mof_O 	O 	0.4245	0.54031	0.87762	-0.275
Mof_O 	O 	0.61758	0.49851	0.87396	-0.291
Mof_C 	C 	0.1813	0.62392	0.9277	0.24
Mof_C 	C 	0.3301	0.62601	0.0797	0.23
Mof_C 	C 	0.1855	0.75919	0.7611	0.247
Mof_C 	C 	0.3353	0.73731	0.748	0.219
Mof_C 	C 	0.9977	0.51086	0.0776	0.234
Mof_C 	C 	0.512	0.5114	0.9281	0.231
Mof_Cu	Cu	0.25304	0.79594	0.50238	0.948
Mof_Cu	Cu	0.25755	0.95431	0.49787	0.948
Mof_O 	O 	0.11345	0.84468	0.37674	-0.266
Mof_O 	O 	0.1428	0.90956	0.36863	-0.291
Mof_O 	O 	0.3818	0.84025	0.62493	-0.289
Mof_O 	O 	0.38434	0.9057	0.64342	-0.262
Mof_O 	O 	0.38029	0.79197	0.33914	-0.268
Mof_O 	O 	0.4014	0.7503	0.1529	-0.255
Mof_O 	O 	0.12542	0.75379	0.36179	-0.294
Mof_O 	O 	0.13643	0.71242	0.17021	-0.282
Mof_O 	O 	0.08931	0.95988	0.61887	-0.27
Mof_O 	O 	0.908	0.00176	0.64915	-0.257
Mof_O 	O 	0.4245	0.95969	0.37762	-0.277
Mof_O 	O 	0.61758	0.00149	0.37396	-0.291
Mof_C 	C 	0.1813	0.87608	0.4277	0.235
Mof_C 	C 	0.3301	0.87399	0.5797	0.234
Mof_C 	C 	0.1855	0.74081	0.2611	0.246
Mof_C 	C 	0.3353	0.76269	0.248	0.219
Mof_C 	C 	0.9977	0.98914	0.5776	0.233
Mof_C 	C 	0.512	0.9886	0.4281	0.23
Mof_Cu	Cu	0.74696	0.29594	0.99762	0.946
Mof_Cu	Cu	0.74245	0.45431	0.00213	0.949
Mof_O 	O 	0.88655	0.34468	0.12326	-0.264
Mof_O 	O 	0.8572	0.40956	0.13137	-0.291
Mof_O 	O 	0.6182	0.34025	0.87507	-0.29
Mof_O 	O 	0.61566	0.4057	0.85658	-0.262
Mof_O 	O 	0.61971	0.29197	0.16086	-0.264
Mof_O 	O 	0.5986	0.2503	0.3471	-0.252
Mof_O 	O 	0.87458	0.25379	0.13821	-0.29
Mof_O 	O 	0.86357	0.21242	0.32979	-0.28
Mof_O 	O 	0.91069	0.45988	0.88113	-0.27
Mof_O 	O 	0.092	0.50176	0.85085	-0.257
Mof_O 	O 	0.5755	0.45969	0.12238	-0.275
Mof_O 	O 	0.38242	0.50149	0.12604	-0.291
Mof_C 	C 	0.8187	0.37608	0.0723	0.24
Mof_C 	C 	0.6699	0.37399	0.9203	0.23
Mof_C 	C 	0.8145	0.24081	0.2389	0.247
Mof_C 	C 	0.6647	0.26269	0.252	0.219
Mof_C 	C 	0.0023	0.48914	0.9224	0.234
Mof_C 	C 	0.488	0.4886	0.0719	0.231
_end
