data_functionalizedCrystal
_audit_creation_method	'EQeq! by Chris Wilmer'
_symmetry_space_group_name_H-M	'P1'
_symmetry_Int_Tables_number	1
_symmetry_cell_setting	triclinic
loop_
_symmetry_equiv_pos_as_xyz
  x,y,z
_cell_length_a	12.6909
_cell_length_b	12.6909
_cell_length_c	14.6723
_cell_angle_alpha	115.625
_cell_angle_beta	115.625
_cell_angle_gamma	90.0007
loop_
_atom_site_label
_atom_site_type_symbol
_atom_site_fract_x
_atom_site_fract_y
_atom_site_fract_z
_atom_site_charge
Mof_Cd	Cd	-0	0	-0	0.374
Mof_Cd	Cd	0.33815	0.33815	0.6763	0.411
Mof_Cd	Cd	0.66185	0.66185	0.3237	0.411
Mof_H 	H 	0.8981	0.0809	0.6818	0.038
Mof_H 	H 	0.825	0.7134	0.1988	0.017
Mof_H 	H 	0.7837	0.6009	0.6818	0.021
Mof_H 	H 	0.8415	0.4979	0.4418	0.019
Mof_H 	H 	0.3991	0.1019	0.3182	0.014
Mof_H 	H 	0.53	0.7364	0.972	0.035
Mof_H 	H 	0.9613	0.8247	0.4464	0.022
Mof_H 	H 	0.2866	0.6262	0.8012	0.018
Mof_H 	H 	0.9191	0.2163	0.3182	0.02
Mof_H 	H 	0.2636	0.558	0.028	0.009
Mof_H 	H 	0.5021	0.3997	0.5582	0.02
Mof_H 	H 	0.7572	0.5983	0.897	0.021
Mof_H 	H 	0.7013	0.2428	0.103	0.023
Mof_H 	H 	0.1753	0.5149	0.5536	0.022
Mof_H 	H 	0.2009	0.996	0.7378	0.069
Mof_H 	H 	0.7644	0.47	0.028	0.009
Mof_H 	H 	0.4017	0.8602	0.103	0.03
Mof_H 	H 	0.8194	0.9427	0.1074	0.03
Mof_H 	H 	0.3738	0.4854	0.1988	0.017
Mof_H 	H 	0.1398	0.2987	0.897	0.022
Mof_H 	H 	0.442	0.2356	0.972	0.031
Mof_H 	H 	0.0573	0.712	0.8926	0.018
Mof_H 	H 	0.288	0.1647	0.1074	0.016
Mof_H 	H 	0.6003	0.9439	0.4418	0.029
Mof_H 	H 	0.5369	0.7418	0.7378	0.027
Mof_H 	H 	0.004	0.4631	0.2622	0.031
Mof_H 	H 	0.3783	0.0387	0.5536	0.013
Mof_H 	H 	0.2582	0.7991	0.2622	0.027
Mof_H 	H 	0.0561	0.1585	0.5582	0.018
Mof_H 	H 	0.4851	0.6217	0.4464	0.021
Mof_H 	H 	0.8353	0.1806	0.8926	0.01
Mof_H 	H 	0.5146	0.175	0.8012	0.012
Mof_C 	C 	0.1497	0.2539	0.935	0.108
Mof_C 	C 	0.7454	0.715	0.1584	0.108
Mof_C 	C 	0.413	0.4434	0.1584	0.106
Mof_C 	C 	0.285	0.587	0.8416	0.108
Mof_C 	C 	0.3805	0.0756	0.5116	0.094
Mof_C 	C 	0.564	0.6195	0.4884	0.099
Mof_C 	C 	0.8883	0.0098	0.6188	0.024
Mof_C 	C 	0.8187	0.8706	0.0508	0.096
Mof_C 	C 	0.8641	0.5036	0.3914	0.105
Mof_C 	C 	0.1311	0.436	0.5116	0.099
Mof_C 	C 	0.3189	0.8503	0.065	0.09
Mof_C 	C 	0.1294	0.7679	0.9492	0.115
Mof_C 	C 	0.9645	0.8679	0.7558	0.153
Mof_C 	C 	0.6933	0.416	0.965	0.123
Mof_C 	C 	0.7305	0.609	0.6188	0.095
Mof_C 	C 	0.8198	0.1813	0.9492	0.11
Mof_C 	C 	0.1122	0.1359	0.6086	0.105
Mof_C 	C 	0.584	0.7283	0.035	0.09
Mof_C 	C 	0.2717	0.549	0.965	0.125
Mof_C 	C 	0.9902	0.2695	0.3812	0.082
Mof_C 	C 	0.1914	0.0474	0.7064	0.045
Mof_C 	C 	0.515	0.659	0.7064	0.108
Mof_C 	C 	0.7913	0.8879	0.7558	0.159
Mof_C 	C 	0.9526	0.485	0.2936	0.097
Mof_C 	C 	0.5273	0.8878	0.3914	0.108
Mof_C 	C 	0.2321	0.1802	0.0508	0.088
Mof_C 	C 	0.1321	0.2087	0.2442	0.147
Mof_C 	C 	0.341	0.8086	0.2936	0.109
Mof_C 	C 	0.1121	0.0355	0.2442	0.116
Mof_C 	C 	0.451	0.3067	0.035	0.085
Mof_C 	C 	0.391	0.1117	0.3812	0.092
Mof_C 	C 	0.5566	0.2546	0.8416	0.107
Mof_C 	C 	0.7461	0.2147	0.065	0.085
Mof_C 	C 	0.9244	0.8689	0.4884	0.101
Mof_C 	C 	0.4964	0.4727	0.6086	0.106
Mof_C 	C 	0.7853	0.6811	0.935	0.107
Mof_N 	N 	0.1171	0.9616	0.2904	-0.085
Mof_N 	N 	0.2763	0.1248	0.7312	-0.085
Mof_N 	N 	0.1187	0.1295	0.9886	-0.107
Mof_N 	N 	0.3029	0.4803	0.819	-0.111
Mof_N 	N 	0.6082	0.6017	0.5816	-0.099
Mof_N 	N 	0.7948	0.9242	0.5526	-0.065
Mof_N 	N 	0.8152	0.8351	0.468	-0.109
Mof_N 	N 	0.0651	0.1777	0.9154	-0.095
Mof_N 	N 	0.0985	0.0985	0.197	-0.186
Mof_N 	N 	0.6613	0.6971	0.181	-0.111
Mof_N 	N 	0.6712	0.8829	0.7096	-0.105
Mof_N 	N 	0.7414	0.2355	0.9804	-0.102
Mof_N 	N 	0.9507	0.458	0.3702	-0.11
Mof_N 	N 	0.2623	0.9349	0.0846	-0.081
Mof_N 	N 	0.0201	0.3918	0.4184	-0.094
Mof_N 	N 	0.2251	0.1833	0.669	-0.112
Mof_N 	N 	0.3672	0.3337	0.0694	-0.106
Mof_N 	N 	0.5567	0.7083	0.101	-0.085
Mof_N 	N 	0.9015	0.9015	0.803	-0.184
Mof_N 	N 	0.6528	0.6329	0.468	-0.11
Mof_N 	N 	0.239	0.7449	0.9804	-0.1
Mof_N 	N 	0.6073	0.4433	0.899	-0.089
Mof_N 	N 	0.3936	0.7237	0.2688	-0.094
Mof_N 	N 	0.1409	0.8813	0.0114	-0.11
Mof_N 	N 	0.7022	0.7357	0.0694	-0.105
Mof_N 	N 	0.542	0.5805	0.6298	-0.109
Mof_N 	N 	0.6663	0.2978	0.9306	-0.111
Mof_N 	N 	0.5161	0.3387	0.819	-0.112
Mof_N 	N 	0.7645	0.761	0.0196	-0.108
Mof_N 	N 	0.8752	0.5451	0.2688	-0.093
Mof_N 	N 	0.1649	0.3472	0.532	-0.11
Mof_N 	N 	0.9734	0.9799	0.5816	-0.071
Mof_N 	N 	0.2551	0.2586	0.0196	-0.11
Mof_N 	N 	0.0878	0.0493	0.6298	-0.11
Mof_N 	N 	0.8223	0.1497	0.0846	-0.098
Mof_N 	N 	0.8699	0.8591	0.9886	-0.1
Mof_N 	N 	0.2917	0.4557	0.899	-0.089
Mof_N 	N 	0.7578	0.6284	0.5526	-0.092
Mof_N 	N 	0.4549	0.6064	0.7312	-0.093
Mof_N 	N 	0.8705	0.1301	0.0114	-0.124
Mof_N 	N 	0.4195	0.9122	0.3702	-0.096
Mof_N 	N 	0.8503	0.7377	0.9154	-0.094
Mof_N 	N 	0.1733	0.3288	0.2904	-0.111
Mof_N 	N 	0.8167	0.5561	0.331	-0.111
Mof_N 	N 	0.5143	0.7749	0.331	-0.11
Mof_N 	N 	0.3983	0.0266	0.4184	-0.114
Mof_N 	N 	0.3716	0.2052	0.4474	-0.092
Mof_N 	N 	0.0758	0.2422	0.4474	-0.089
Mof_N 	N 	0.2643	0.6328	0.9306	-0.11
Mof_N 	N 	0.3671	0.1848	0.532	-0.111
Mof_N 	N 	0.5197	0.4839	0.181	-0.112
Mof_N 	N 	0.4439	0.4857	0.669	-0.111
Mof_N 	N 	0.5443	0.3927	0.101	-0.086
Mof_N 	N 	0.0384	0.8267	0.7096	-0.103
_end
