data_functionalizedCrystal
_audit_creation_method	'EQeq! by Chris Wilmer'
_symmetry_space_group_name_H-M	'P1'
_symmetry_Int_Tables_number	1
_symmetry_cell_setting	triclinic
loop_
_symmetry_equiv_pos_as_xyz
  x,y,z
_cell_length_a	9.2671
_cell_length_b	17.1198
_cell_length_c	24.8416
_cell_angle_alpha	90
_cell_angle_beta	90
_cell_angle_gamma	90
loop_
_atom_site_label
_atom_site_type_symbol
_atom_site_fract_x
_atom_site_fract_y
_atom_site_fract_z
_atom_site_charge
Mof_Zn	Zn	0.18146	0.19998	0.24912	1.21
Mof_P 	P 	0.84496	0.14213	0.24568	0.57
Mof_O 	O 	0.9766	0.19137	0.25523	-0.514
Mof_O 	O 	0.8383	0.07109	0.28521	-0.396
Mof_O 	O 	0.8547	0.09978	0.19075	-0.363
Mof_O 	O 	0.7101	0.18986	0.25091	-0.481
Mof_N 	N 	0.2649	0.14324	0.31314	-0.269
Mof_N 	N 	0.2778	0.14707	0.18615	-0.277
Mof_C 	C 	0.1803	0.115	0.35272	0.075
Mof_C 	C 	0.2343	0.0751	0.39655	-0.129
Mof_C 	C 	0.3831	0.06461	0.4012	0.062
Mof_C 	C 	0.4696	0.092	0.35976	-0.105
Mof_C 	C 	0.4084	0.1308	0.31696	0.062
Mof_C 	C 	0.4443	0.02808	0.45067	-0.009
Mof_C 	C 	0.2502	0.0724	0.17506	0.08
Mof_C 	C 	0.3115	0.034	0.13242	-0.125
Mof_C 	C 	0.4041	0.07252	0.09881	0.075
Mof_C 	C 	0.4365	0.1499	0.11092	-0.135
Mof_C 	C 	0.3712	0.1848	0.15425	0.077
Mof_C 	C 	0.461	0.03498	0.04895	-0.016
Mof_H 	H 	0.1737	0.0592	0.426	0.066
Mof_H 	H 	0.5799	0.0906	0.3617	0.064
Mof_H 	H 	0.4641	0.1566	0.2887	-0.009
Mof_H 	H 	0.0796	0.1192	0.3484	-0.014
Mof_H 	H 	0.179	0.0491	0.2015	0.01
Mof_H 	H 	0.3072	0.9767	0.1277	0.087
Mof_H 	H 	0.4922	0.1804	0.085	0.067
Mof_H 	H 	0.3954	0.2349	0.1647	-0.021
Mof_H 	H 	0.8395	0.0915	0.3173	0.211
Mof_H 	H 	0.8791	0.1313	0.1602	0.16
Mof_Zn	Zn	0.81854	0.80002	0.24912	1.211
Mof_P 	P 	0.15504	0.85787	0.24568	0.571
Mof_O 	O 	0.0234	0.80863	0.25523	-0.513
Mof_O 	O 	0.1617	0.92891	0.28521	-0.395
Mof_O 	O 	0.1453	0.90022	0.19075	-0.363
Mof_O 	O 	0.2899	0.81014	0.25091	-0.481
Mof_N 	N 	0.7351	0.85676	0.31314	-0.269
Mof_N 	N 	0.7222	0.85293	0.18615	-0.277
Mof_C 	C 	0.8197	0.885	0.35272	0.075
Mof_C 	C 	0.7657	0.9249	0.39655	-0.129
Mof_C 	C 	0.6169	0.93539	0.4012	0.062
Mof_C 	C 	0.5304	0.908	0.35976	-0.105
Mof_C 	C 	0.5916	0.8692	0.31696	0.062
Mof_C 	C 	0.5557	0.97192	0.45067	-0.009
Mof_C 	C 	0.7498	0.9276	0.17506	0.08
Mof_C 	C 	0.6885	0.966	0.13242	-0.125
Mof_C 	C 	0.5959	0.92748	0.09881	0.075
Mof_C 	C 	0.5635	0.8501	0.11092	-0.135
Mof_C 	C 	0.6288	0.8152	0.15425	0.077
Mof_C 	C 	0.539	0.96502	0.04895	-0.016
Mof_H 	H 	0.8263	0.9408	0.426	0.066
Mof_H 	H 	0.4201	0.9094	0.3617	0.064
Mof_H 	H 	0.5359	0.8434	0.2887	-0.009
Mof_H 	H 	0.9204	0.8808	0.3484	-0.014
Mof_H 	H 	0.821	0.9509	0.2015	0.01
Mof_H 	H 	0.6928	0.0233	0.1277	0.087
Mof_H 	H 	0.5078	0.8196	0.085	0.067
Mof_H 	H 	0.6046	0.7651	0.1647	-0.021
Mof_H 	H 	0.1605	0.9085	0.3173	0.211
Mof_H 	H 	0.1209	0.8687	0.1602	0.16
Mof_Zn	Zn	0.31854	0.69998	0.25088	1.211
Mof_P 	P 	0.65504	0.64213	0.25432	0.571
Mof_O 	O 	0.5234	0.69137	0.24477	-0.513
Mof_O 	O 	0.6617	0.57109	0.21479	-0.396
Mof_O 	O 	0.6453	0.59978	0.30925	-0.364
Mof_O 	O 	0.7899	0.68986	0.24909	-0.482
Mof_N 	N 	0.2351	0.64324	0.18686	-0.269
Mof_N 	N 	0.2222	0.64707	0.31385	-0.277
Mof_C 	C 	0.3197	0.615	0.14728	0.076
Mof_C 	C 	0.2657	0.5751	0.10345	-0.129
Mof_C 	C 	0.1169	0.56461	0.0988	0.062
Mof_C 	C 	0.0304	0.592	0.14024	-0.104
Mof_C 	C 	0.0916	0.6308	0.18304	0.061
Mof_C 	C 	0.0557	0.52808	0.04933	-0.009
Mof_C 	C 	0.2498	0.5724	0.32494	0.079
Mof_C 	C 	0.1885	0.534	0.36758	-0.122
Mof_C 	C 	0.0959	0.57252	0.40119	0.074
Mof_C 	C 	0.0635	0.6499	0.38908	-0.134
Mof_C 	C 	0.1288	0.6848	0.34575	0.077
Mof_C 	C 	0.039	0.53498	0.45105	-0.016
Mof_H 	H 	0.3263	0.5592	0.074	0.067
Mof_H 	H 	0.9201	0.5906	0.1383	0.063
Mof_H 	H 	0.0359	0.6566	0.2113	-0.009
Mof_H 	H 	0.4204	0.6192	0.1516	-0.013
Mof_H 	H 	0.321	0.5491	0.2985	0.011
Mof_H 	H 	0.1928	0.4767	0.3723	0.086
Mof_H 	H 	0.0078	0.6804	0.415	0.067
Mof_H 	H 	0.1046	0.7349	0.3353	-0.021
Mof_H 	H 	0.6605	0.5915	0.1827	0.211
Mof_H 	H 	0.6209	0.6313	0.3398	0.16
Mof_Zn	Zn	0.68146	0.30002	0.25088	1.211
Mof_P 	P 	0.34496	0.35787	0.25432	0.571
Mof_O 	O 	0.4766	0.30863	0.24477	-0.513
Mof_O 	O 	0.3383	0.42891	0.21479	-0.396
Mof_O 	O 	0.3547	0.40022	0.30925	-0.364
Mof_O 	O 	0.2101	0.31014	0.24909	-0.482
Mof_N 	N 	0.7649	0.35676	0.18686	-0.269
Mof_N 	N 	0.7778	0.35293	0.31385	-0.277
Mof_C 	C 	0.6803	0.385	0.14728	0.076
Mof_C 	C 	0.7343	0.4249	0.10345	-0.129
Mof_C 	C 	0.8831	0.43539	0.0988	0.062
Mof_C 	C 	0.9696	0.408	0.14024	-0.104
Mof_C 	C 	0.9084	0.3692	0.18304	0.061
Mof_C 	C 	0.9443	0.47192	0.04933	-0.009
Mof_C 	C 	0.7502	0.4276	0.32494	0.079
Mof_C 	C 	0.8115	0.466	0.36758	-0.122
Mof_C 	C 	0.9041	0.42748	0.40119	0.074
Mof_C 	C 	0.9365	0.3501	0.38908	-0.134
Mof_C 	C 	0.8712	0.3152	0.34575	0.077
Mof_C 	C 	0.961	0.46502	0.45105	-0.016
Mof_H 	H 	0.6737	0.4408	0.074	0.067
Mof_H 	H 	0.0799	0.4094	0.1383	0.063
Mof_H 	H 	0.9641	0.3434	0.2113	-0.009
Mof_H 	H 	0.5796	0.3808	0.1516	-0.013
Mof_H 	H 	0.679	0.4509	0.2985	0.011
Mof_H 	H 	0.8072	0.5233	0.3723	0.086
Mof_H 	H 	0.9922	0.3196	0.415	0.067
Mof_H 	H 	0.8954	0.2651	0.3353	-0.021
Mof_H 	H 	0.3395	0.4085	0.1827	0.211
Mof_H 	H 	0.3791	0.3687	0.3398	0.16
Mof_Zn	Zn	0.81854	0.80002	0.75088	1.211
Mof_P 	P 	0.15504	0.85787	0.75432	0.571
Mof_O 	O 	0.0234	0.80863	0.74477	-0.513
Mof_O 	O 	0.1617	0.92891	0.71479	-0.395
Mof_O 	O 	0.1453	0.90022	0.80925	-0.363
Mof_O 	O 	0.2899	0.81014	0.74909	-0.481
Mof_N 	N 	0.7351	0.85676	0.68686	-0.269
Mof_N 	N 	0.7222	0.85293	0.81385	-0.277
Mof_C 	C 	0.8197	0.885	0.64728	0.075
Mof_C 	C 	0.7657	0.9249	0.60345	-0.129
Mof_C 	C 	0.6169	0.93539	0.5988	0.062
Mof_C 	C 	0.5304	0.908	0.64024	-0.105
Mof_C 	C 	0.5916	0.8692	0.68304	0.062
Mof_C 	C 	0.5557	0.97192	0.54933	-0.009
Mof_C 	C 	0.7498	0.9276	0.82494	0.08
Mof_C 	C 	0.6885	0.966	0.86758	-0.125
Mof_C 	C 	0.5959	0.92748	0.90119	0.075
Mof_C 	C 	0.5635	0.8501	0.88908	-0.135
Mof_C 	C 	0.6288	0.8152	0.84575	0.077
Mof_C 	C 	0.539	0.96502	0.95105	-0.018
Mof_H 	H 	0.8263	0.9408	0.574	0.066
Mof_H 	H 	0.4201	0.9094	0.6383	0.064
Mof_H 	H 	0.5359	0.8434	0.7113	-0.009
Mof_H 	H 	0.9204	0.8808	0.6516	-0.014
Mof_H 	H 	0.821	0.9509	0.7985	0.01
Mof_H 	H 	0.6928	0.0233	0.8723	0.087
Mof_H 	H 	0.5078	0.8196	0.915	0.066
Mof_H 	H 	0.6046	0.7651	0.8353	-0.021
Mof_H 	H 	0.1605	0.9085	0.6827	0.211
Mof_H 	H 	0.1209	0.8687	0.8398	0.16
Mof_Zn	Zn	0.18146	0.19998	0.75088	1.211
Mof_P 	P 	0.84496	0.14213	0.75432	0.571
Mof_O 	O 	0.9766	0.19137	0.74477	-0.513
Mof_O 	O 	0.8383	0.07109	0.71479	-0.395
Mof_O 	O 	0.8547	0.09978	0.80925	-0.363
Mof_O 	O 	0.7101	0.18986	0.74909	-0.481
Mof_N 	N 	0.2649	0.14324	0.68686	-0.269
Mof_N 	N 	0.2778	0.14707	0.81385	-0.277
Mof_C 	C 	0.1803	0.115	0.64728	0.075
Mof_C 	C 	0.2343	0.0751	0.60345	-0.129
Mof_C 	C 	0.3831	0.06461	0.5988	0.062
Mof_C 	C 	0.4696	0.092	0.64024	-0.105
Mof_C 	C 	0.4084	0.1308	0.68304	0.062
Mof_C 	C 	0.4443	0.02808	0.54933	-0.009
Mof_C 	C 	0.2502	0.0724	0.82494	0.08
Mof_C 	C 	0.3115	0.034	0.86758	-0.125
Mof_C 	C 	0.4041	0.07252	0.90119	0.075
Mof_C 	C 	0.4365	0.1499	0.88908	-0.135
Mof_C 	C 	0.3712	0.1848	0.84575	0.077
Mof_C 	C 	0.461	0.03498	0.95105	-0.018
Mof_H 	H 	0.1737	0.0592	0.574	0.066
Mof_H 	H 	0.5799	0.0906	0.6383	0.064
Mof_H 	H 	0.4641	0.1566	0.7113	-0.009
Mof_H 	H 	0.0796	0.1192	0.6516	-0.014
Mof_H 	H 	0.179	0.0491	0.7985	0.01
Mof_H 	H 	0.3072	0.9767	0.8723	0.087
Mof_H 	H 	0.4922	0.1804	0.915	0.066
Mof_H 	H 	0.3954	0.2349	0.8353	-0.021
Mof_H 	H 	0.8395	0.0915	0.6827	0.211
Mof_H 	H 	0.8791	0.1313	0.8398	0.16
Mof_Zn	Zn	0.68146	0.30002	0.74912	1.211
Mof_P 	P 	0.34496	0.35787	0.74568	0.571
Mof_O 	O 	0.4766	0.30863	0.75523	-0.513
Mof_O 	O 	0.3383	0.42891	0.78521	-0.396
Mof_O 	O 	0.3547	0.40022	0.69075	-0.364
Mof_O 	O 	0.2101	0.31014	0.75091	-0.482
Mof_N 	N 	0.7649	0.35676	0.81314	-0.269
Mof_N 	N 	0.7778	0.35293	0.68615	-0.277
Mof_C 	C 	0.6803	0.385	0.85272	0.075
Mof_C 	C 	0.7343	0.4249	0.89655	-0.129
Mof_C 	C 	0.8831	0.43539	0.9012	0.062
Mof_C 	C 	0.9696	0.408	0.85976	-0.104
Mof_C 	C 	0.9084	0.3692	0.81696	0.061
Mof_C 	C 	0.9443	0.47192	0.95067	-0.01
Mof_C 	C 	0.7502	0.4276	0.67506	0.079
Mof_C 	C 	0.8115	0.466	0.63242	-0.122
Mof_C 	C 	0.9041	0.42748	0.59881	0.074
Mof_C 	C 	0.9365	0.3501	0.61092	-0.134
Mof_C 	C 	0.8712	0.3152	0.65425	0.077
Mof_C 	C 	0.961	0.46502	0.54895	-0.016
Mof_H 	H 	0.6737	0.4408	0.926	0.066
Mof_H 	H 	0.0799	0.4094	0.8617	0.063
Mof_H 	H 	0.9641	0.3434	0.7887	-0.009
Mof_H 	H 	0.5796	0.3808	0.8484	-0.013
Mof_H 	H 	0.679	0.4509	0.7015	0.011
Mof_H 	H 	0.8072	0.5233	0.6277	0.086
Mof_H 	H 	0.9922	0.3196	0.585	0.067
Mof_H 	H 	0.8954	0.2651	0.6647	-0.021
Mof_H 	H 	0.3395	0.4085	0.8173	0.211
Mof_H 	H 	0.3791	0.3687	0.6602	0.16
Mof_Zn	Zn	0.31854	0.69998	0.74912	1.211
Mof_P 	P 	0.65504	0.64213	0.74568	0.571
Mof_O 	O 	0.5234	0.69137	0.75523	-0.513
Mof_O 	O 	0.6617	0.57109	0.78521	-0.396
Mof_O 	O 	0.6453	0.59978	0.69075	-0.364
Mof_O 	O 	0.7899	0.68986	0.75091	-0.482
Mof_N 	N 	0.2351	0.64324	0.81314	-0.269
Mof_N 	N 	0.2222	0.64707	0.68615	-0.277
Mof_C 	C 	0.3197	0.615	0.85272	0.075
Mof_C 	C 	0.2657	0.5751	0.89655	-0.129
Mof_C 	C 	0.1169	0.56461	0.9012	0.062
Mof_C 	C 	0.0304	0.592	0.85976	-0.104
Mof_C 	C 	0.0916	0.6308	0.81696	0.061
Mof_C 	C 	0.0557	0.52808	0.95067	-0.01
Mof_C 	C 	0.2498	0.5724	0.67506	0.079
Mof_C 	C 	0.1885	0.534	0.63242	-0.122
Mof_C 	C 	0.0959	0.57252	0.59881	0.074
Mof_C 	C 	0.0635	0.6499	0.61092	-0.134
Mof_C 	C 	0.1288	0.6848	0.65425	0.077
Mof_C 	C 	0.039	0.53498	0.54895	-0.016
Mof_H 	H 	0.3263	0.5592	0.926	0.066
Mof_H 	H 	0.9201	0.5906	0.8617	0.063
Mof_H 	H 	0.0359	0.6566	0.7887	-0.009
Mof_H 	H 	0.4204	0.6192	0.8484	-0.013
Mof_H 	H 	0.321	0.5491	0.7015	0.011
Mof_H 	H 	0.1928	0.4767	0.6277	0.086
Mof_H 	H 	0.0078	0.6804	0.585	0.067
Mof_H 	H 	0.1046	0.7349	0.6647	-0.021
Mof_H 	H 	0.6605	0.5915	0.8173	0.211
Mof_H 	H 	0.6209	0.6313	0.6602	0.16
Mof_C 	C 	0.3908	0.0533	0.5	-0.081
Mof_H 	H 	0.3266	0.0914	0.5	0.058
Mof_C 	C 	0.6092	0.9467	0.5	-0.081
Mof_H 	H 	0.6734	0.9086	0.5	0.058
Mof_C 	C 	0.1092	0.5533	-0	-0.079
Mof_H 	H 	0.1734	0.5914	-0	0.058
Mof_C 	C 	0.8908	0.4467	-0	-0.079
Mof_H 	H 	0.8266	0.4086	-0	0.058
Mof_C 	C 	0.4224	0.0683	-0	-0.056
Mof_H 	H 	0.3642	0.1138	-0	0.048
Mof_C 	C 	0.5776	0.9317	-0	-0.056
Mof_H 	H 	0.6358	0.8862	-0	0.048
Mof_C 	C 	0.0776	0.5683	0.5	-0.059
Mof_H 	H 	0.1358	0.6138	0.5	0.049
Mof_C 	C 	0.9224	0.4317	0.5	-0.059
Mof_H 	H 	0.8642	0.3862	0.5	0.049
_end
