data_functionalizedCrystal
_audit_creation_method	'EQeq! by Chris Wilmer'
_symmetry_space_group_name_H-M	'P1'
_symmetry_Int_Tables_number	1
_symmetry_cell_setting	triclinic
loop_
_symmetry_equiv_pos_as_xyz
  x,y,z
_cell_length_a	24.777
_cell_length_b	24.777
_cell_length_c	26.489
_cell_angle_alpha	90
_cell_angle_beta	90
_cell_angle_gamma	120
loop_
_atom_site_label
_atom_site_type_symbol
_atom_site_fract_x
_atom_site_fract_y
_atom_site_fract_z
_atom_site_charge
Mof_Cu	Cu	0.13271	0.64661	0.02762	0.862
Mof_N 	N 	0.0328	0.5266	0.07058	-0.188
Mof_N 	N 	0.0845	0.5828	0.0836	-0.195
Mof_N 	N 	0.0496	0.5228	0.1506	-0.143
Mof_N 	N 	0.0835	0.47	0.2686	-0.196
Mof_N 	N 	0.1385	0.5773	0.99269	-0.195
Mof_N 	N 	0.0868	0.5217	0.97802	-0.18
Mof_N 	N 	0.1688	0.5165	0.9592	-0.146
Mof_N 	N 	0.2936	0.4797	0.9714	-0.198
Mof_C 	C 	0.0126	0.492	0.1106	0.083
Mof_H 	H 	0.9781	0.4522	0.1118	0.022
Mof_C 	C 	0.0946	0.579	0.132	0.098
Mof_H 	H 	0.1274	0.6098	0.1506	-0.016
Mof_C 	C 	0.0425	0.4978	0.2003	0.072
Mof_C 	C 	0.9866	0.4773	0.224	-0.073
Mof_H 	H 	0.9553	0.4824	0.2095	0.068
Mof_C 	C 	0.9783	0.4483	0.2714	-0.022
Mof_H 	H 	0.9404	0.4312	0.2881	0.047
Mof_C 	C 	0.09	0.4958	0.2232	-0.025
Mof_H 	H 	0.1283	0.5129	0.2069	0.019
Mof_C 	C 	0.0281	0.4461	0.2922	0.005
Mof_H 	H 	0.0232	0.4275	0.3236	0.039
Mof_C 	C 	0.1868	0.5729	0.9809	0.109
Mof_H 	H 	0.2279	0.6037	0.9864	-0.018
Mof_C 	C 	0.1062	0.4865	0.9586	0.114
Mof_H 	H 	0.0806	0.4464	0.9461	0.01
Mof_C 	C 	0.2093	0.4939	0.9455	0.065
Mof_C 	C 	0.2523	0.4985	0.9805	0.024
Mof_H 	H 	0.2528	0.5154	0.012	-0.018
Mof_C 	C 	0.2903	0.4543	0.9262	0.03
Mof_H 	H 	0.3189	0.4416	0.9185	0.036
Mof_C 	C 	0.2464	0.4461	0.8907	-0.049
Mof_H 	H 	0.2452	0.4271	0.8602	0.052
Mof_C 	C 	0.2046	0.4655	0.8996	-0.072
Mof_H 	H 	0.1745	0.4599	0.8759	0.062
Mof_Cl	Cl	0.02836	0.61478	0.98257	-0.491
Mof_Cu	Cu	0.79938	0.97994	0.36095	0.876
Mof_N 	N 	0.69947	0.85993	0.40391	-0.188
Mof_N 	N 	0.75117	0.91613	0.41693	-0.191
Mof_N 	N 	0.71627	0.85613	0.48393	-0.149
Mof_N 	N 	0.75017	0.80333	0.60193	-0.197
Mof_N 	N 	0.80517	0.91063	0.32602	-0.201
Mof_N 	N 	0.75347	0.85503	0.31135	-0.187
Mof_N 	N 	0.83547	0.84983	0.29253	-0.152
Mof_N 	N 	0.96027	0.81303	0.30473	-0.192
Mof_C 	C 	0.67927	0.82533	0.44393	0.107
Mof_H 	H 	0.64477	0.78553	0.44513	0.006
Mof_C 	C 	0.76127	0.91233	0.46533	0.1
Mof_H 	H 	0.79407	0.94313	0.48393	-0.014
Mof_C 	C 	0.70917	0.83113	0.53363	0.087
Mof_C 	C 	0.65327	0.81063	0.55733	-0.087
Mof_H 	H 	0.62197	0.81573	0.54283	0.07
Mof_C 	C 	0.64497	0.78163	0.60473	-0.035
Mof_H 	H 	0.60707	0.76453	0.62143	0.049
Mof_C 	C 	0.75667	0.82913	0.55653	-0.029
Mof_H 	H 	0.79497	0.84623	0.54023	0.023
Mof_C 	C 	0.69477	0.77943	0.62553	0.021
Mof_H 	H 	0.68987	0.76083	0.65693	0.036
Mof_C 	C 	0.85347	0.90623	0.31423	0.107
Mof_H 	H 	0.89457	0.93703	0.31973	-0.019
Mof_C 	C 	0.77287	0.81983	0.29193	0.113
Mof_H 	H 	0.74727	0.77973	0.27943	0.007
Mof_C 	C 	0.87597	0.82723	0.27883	0.086
Mof_C 	C 	0.91897	0.83183	0.31383	-0.03
Mof_H 	H 	0.91947	0.84873	0.34533	0.021
Mof_C 	C 	0.95697	0.78763	0.25953	0.021
Mof_H 	H 	0.98557	0.77493	0.25183	0.041
Mof_C 	C 	0.91307	0.77943	0.22403	-0.036
Mof_H 	H 	0.91187	0.76043	0.19353	0.048
Mof_C 	C 	0.87127	0.79883	0.23293	-0.088
Mof_H 	H 	0.84117	0.79323	0.20923	0.068
Mof_Cl	Cl	0.69503	0.94811	0.3159	-0.504
Mof_Cu	Cu	0.46604	0.31328	0.69429	0.872
Mof_N 	N 	0.36613	0.19327	0.73725	-0.188
Mof_N 	N 	0.41783	0.24947	0.75027	-0.192
Mof_N 	N 	0.38293	0.18947	0.81727	-0.149
Mof_N 	N 	0.41683	0.13667	0.93527	-0.195
Mof_N 	N 	0.47183	0.24397	0.65936	-0.202
Mof_N 	N 	0.42013	0.18837	0.64469	-0.187
Mof_N 	N 	0.50213	0.18317	0.62587	-0.153
Mof_N 	N 	0.62693	0.14637	0.63807	-0.195
Mof_C 	C 	0.34593	0.15867	0.77727	0.107
Mof_H 	H 	0.31143	0.11887	0.77847	0.004
Mof_C 	C 	0.42793	0.24567	0.79867	0.1
Mof_H 	H 	0.46073	0.27647	0.81727	-0.016
Mof_C 	C 	0.37583	0.16447	0.86697	0.087
Mof_C 	C 	0.31993	0.14397	0.89067	-0.087
Mof_H 	H 	0.28863	0.14907	0.87617	0.07
Mof_C 	C 	0.31163	0.11497	0.93807	-0.034
Mof_H 	H 	0.27373	0.09787	0.95477	0.051
Mof_C 	C 	0.42333	0.16247	0.88987	-0.029
Mof_H 	H 	0.46163	0.17957	0.87357	0.022
Mof_C 	C 	0.36143	0.11277	0.95887	0.022
Mof_H 	H 	0.35653	0.09417	0.99027	0.044
Mof_C 	C 	0.52013	0.23957	0.64757	0.106
Mof_H 	H 	0.56123	0.27037	0.65307	-0.023
Mof_C 	C 	0.43953	0.15317	0.62527	0.112
Mof_H 	H 	0.41393	0.11307	0.61277	0.006
Mof_C 	C 	0.54263	0.16057	0.61217	0.085
Mof_C 	C 	0.58563	0.16517	0.64717	-0.031
Mof_H 	H 	0.58613	0.18207	0.67867	0.019
Mof_C 	C 	0.62363	0.12097	0.59287	0.02
Mof_H 	H 	0.65223	0.10827	0.58517	0.037
Mof_C 	C 	0.57973	0.11277	0.55737	-0.037
Mof_H 	H 	0.57853	0.09377	0.52687	0.046
Mof_C 	C 	0.53793	0.13217	0.56627	-0.089
Mof_H 	H 	0.50783	0.12657	0.54257	0.067
Mof_Cl	Cl	0.36169	0.28145	0.64924	-0.509
Mof_Cu	Cu	0.35339	0.4861	0.02762	0.862
Mof_N 	N 	0.4734	0.5062	0.07058	-0.191
Mof_N 	N 	0.4172	0.5017	0.0836	-0.196
Mof_N 	N 	0.4772	0.5268	0.1506	-0.149
Mof_N 	N 	0.53	0.6135	0.2686	-0.198
Mof_N 	N 	0.4227	0.5612	0.99269	-0.196
Mof_N 	N 	0.4783	0.5651	0.97802	-0.181
Mof_N 	N 	0.4835	0.6523	0.9592	-0.147
Mof_N 	N 	0.5203	0.8139	0.9714	-0.199
Mof_C 	C 	0.508	0.5206	0.1106	0.106
Mof_H 	H 	0.5478	0.5259	0.1118	0.005
Mof_C 	C 	0.421	0.5156	0.132	0.098
Mof_H 	H 	0.3902	0.5176	0.1506	-0.017
Mof_C 	C 	0.5022	0.5447	0.2003	0.086
Mof_C 	C 	0.5227	0.5093	0.224	-0.087
Mof_H 	H 	0.5176	0.4729	0.2095	0.069
Mof_C 	C 	0.5517	0.53	0.2714	-0.036
Mof_H 	H 	0.5688	0.5092	0.2881	0.049
Mof_C 	C 	0.5042	0.5942	0.2232	-0.029
Mof_H 	H 	0.4871	0.6154	0.2069	0.021
Mof_C 	C 	0.5539	0.582	0.2922	0.021
Mof_H 	H 	0.5725	0.5957	0.3236	0.036
Mof_C 	C 	0.4271	0.6139	0.9809	0.109
Mof_H 	H 	0.3963	0.6242	0.9864	-0.018
Mof_C 	C 	0.5135	0.6197	0.9586	0.114
Mof_H 	H 	0.5536	0.6342	0.9461	0.012
Mof_C 	C 	0.5061	0.7154	0.9455	0.066
Mof_C 	C 	0.5015	0.7538	0.9805	0.023
Mof_H 	H 	0.4846	0.7374	0.012	-0.017
Mof_C 	C 	0.5457	0.836	0.9262	0.031
Mof_H 	H 	0.5584	0.8773	0.9185	0.037
Mof_C 	C 	0.5539	0.8003	0.8907	-0.049
Mof_H 	H 	0.5729	0.8181	0.8602	0.053
Mof_C 	C 	0.5345	0.7391	0.8996	-0.072
Mof_H 	H 	0.5401	0.7146	0.8759	0.063
Mof_Cl	Cl	0.38522	0.41358	0.98257	-0.488
Mof_Cu	Cu	0.02006	0.81943	0.36095	0.868
Mof_N 	N 	0.14007	0.83953	0.40391	-0.188
Mof_N 	N 	0.08387	0.83503	0.41693	-0.194
Mof_N 	N 	0.14387	0.86013	0.48393	-0.149
Mof_N 	N 	0.19667	0.94683	0.60193	-0.195
Mof_N 	N 	0.08937	0.89453	0.32602	-0.203
Mof_N 	N 	0.14497	0.89843	0.31135	-0.187
Mof_N 	N 	0.15017	0.98563	0.29253	-0.147
Mof_N 	N 	0.18697	0.14723	0.30473	-0.196
Mof_C 	C 	0.17467	0.85393	0.44393	0.107
Mof_H 	H 	0.21447	0.85923	0.44513	0.006
Mof_C 	C 	0.08767	0.84893	0.46533	0.099
Mof_H 	H 	0.05687	0.85093	0.48393	-0.019
Mof_C 	C 	0.16887	0.87803	0.53363	0.087
Mof_C 	C 	0.18937	0.84263	0.55733	-0.087
Mof_H 	H 	0.18427	0.80623	0.54283	0.069
Mof_C 	C 	0.21837	0.86333	0.60473	-0.035
Mof_H 	H 	0.23547	0.84253	0.62143	0.049
Mof_C 	C 	0.17087	0.92753	0.55653	-0.029
Mof_H 	H 	0.15377	0.94873	0.54023	0.023
Mof_C 	C 	0.22057	0.91533	0.62553	0.021
Mof_H 	H 	0.23917	0.92903	0.65693	0.038
Mof_C 	C 	0.09377	0.94723	0.31423	0.106
Mof_H 	H 	0.06297	0.95753	0.31973	-0.023
Mof_C 	C 	0.18017	0.95303	0.29193	0.112
Mof_H 	H 	0.22027	0.96753	0.27943	0.01
Mof_C 	C 	0.17277	0.04873	0.27883	0.073
Mof_C 	C 	0.16817	0.08713	0.31383	-0.026
Mof_H 	H 	0.15127	0.07073	0.34533	0.015
Mof_C 	C 	0.21237	0.16933	0.25953	0.022
Mof_H 	H 	0.22507	0.21063	0.25183	0.036
Mof_C 	C 	0.22057	0.13363	0.22403	-0.042
Mof_H 	H 	0.23957	0.15143	0.19353	0.047
Mof_C 	C 	0.20117	0.07243	0.23293	-0.083
Mof_H 	H 	0.20677	0.04793	0.20923	0.062
Mof_Cl	Cl	0.05189	0.74691	0.3159	-0.515
Mof_Cu	Cu	0.68672	0.15277	0.69429	0.872
Mof_N 	N 	0.80673	0.17287	0.73725	-0.188
Mof_N 	N 	0.75053	0.16837	0.75027	-0.193
Mof_N 	N 	0.81053	0.19347	0.81727	-0.149
Mof_N 	N 	0.86333	0.28017	0.93527	-0.195
Mof_N 	N 	0.75603	0.22787	0.65936	-0.202
Mof_N 	N 	0.81163	0.23177	0.64469	-0.187
Mof_N 	N 	0.81683	0.31897	0.62587	-0.152
Mof_N 	N 	0.85363	0.48057	0.63807	-0.195
Mof_C 	C 	0.84133	0.18727	0.77727	0.107
Mof_H 	H 	0.88113	0.19257	0.77847	0.007
Mof_C 	C 	0.75433	0.18227	0.79867	0.099
Mof_H 	H 	0.72353	0.18427	0.81727	-0.016
Mof_C 	C 	0.83553	0.21137	0.86697	0.087
Mof_C 	C 	0.85603	0.17597	0.89067	-0.086
Mof_H 	H 	0.85093	0.13957	0.87617	0.07
Mof_C 	C 	0.88503	0.19667	0.93807	-0.034
Mof_H 	H 	0.90213	0.17587	0.95477	0.053
Mof_C 	C 	0.83753	0.26087	0.88987	-0.028
Mof_H 	H 	0.82043	0.28207	0.87357	0.022
Mof_C 	C 	0.88723	0.24867	0.95887	0.023
Mof_H 	H 	0.90583	0.26237	0.99027	0.044
Mof_C 	C 	0.76043	0.28057	0.64757	0.106
Mof_H 	H 	0.72963	0.29087	0.65307	-0.023
Mof_C 	C 	0.84683	0.28637	0.62527	0.113
Mof_H 	H 	0.88693	0.30087	0.61277	0.009
Mof_C 	C 	0.83943	0.38207	0.61217	0.085
Mof_C 	C 	0.83483	0.42047	0.64717	-0.03
Mof_H 	H 	0.81793	0.40407	0.67867	0.019
Mof_C 	C 	0.87903	0.50267	0.59287	0.022
Mof_H 	H 	0.89173	0.54397	0.58517	0.038
Mof_C 	C 	0.88723	0.46697	0.55737	-0.037
Mof_H 	H 	0.90623	0.48477	0.52687	0.049
Mof_C 	C 	0.86783	0.40577	0.56627	-0.088
Mof_H 	H 	0.87343	0.38127	0.54257	0.069
Mof_Cl	Cl	0.71855	0.08025	0.64924	-0.511
Mof_Cu	Cu	0.5139	0.86729	0.02762	0.862
Mof_N 	N 	0.4938	0.9672	0.07058	-0.192
Mof_N 	N 	0.4983	0.9155	0.0836	-0.196
Mof_N 	N 	0.4732	0.9504	0.1506	-0.152
Mof_N 	N 	0.3865	0.9165	0.2686	-0.198
Mof_N 	N 	0.4388	0.8615	0.99269	-0.196
Mof_N 	N 	0.4349	0.9132	0.97802	-0.178
Mof_N 	N 	0.3477	0.8312	0.9592	-0.147
Mof_N 	N 	0.1861	0.7064	0.9714	-0.199
Mof_C 	C 	0.4794	0.9874	0.1106	0.123
Mof_H 	H 	0.4741	0.0219	0.1118	-0.006
Mof_C 	C 	0.4844	0.9054	0.132	0.1
Mof_H 	H 	0.4824	0.8726	0.1506	-0.018
Mof_C 	C 	0.4553	0.9575	0.2003	0.097
Mof_C 	C 	0.4907	0.0134	0.224	-0.097
Mof_H 	H 	0.5271	0.0447	0.2095	0.07
Mof_C 	C 	0.47	0.0217	0.2714	-0.047
Mof_H 	H 	0.4908	0.0596	0.2881	0.05
Mof_C 	C 	0.4058	0.91	0.2232	-0.032
Mof_H 	H 	0.3846	0.8717	0.2069	0.022
Mof_C 	C 	0.418	0.9719	0.2922	0.033
Mof_H 	H 	0.4043	0.9768	0.3236	0.034
Mof_C 	C 	0.3861	0.8132	0.9809	0.109
Mof_H 	H 	0.3758	0.7721	0.9864	-0.018
Mof_C 	C 	0.3803	0.8938	0.9586	0.115
Mof_H 	H 	0.3658	0.9194	0.9461	0.014
Mof_C 	C 	0.2846	0.7907	0.9455	0.066
Mof_C 	C 	0.2462	0.7477	0.9805	0.025
Mof_H 	H 	0.2626	0.7472	0.012	-0.018
Mof_C 	C 	0.164	0.7097	0.9262	0.03
Mof_H 	H 	0.1227	0.6811	0.9185	0.036
Mof_C 	C 	0.1997	0.7536	0.8907	-0.049
Mof_H 	H 	0.1819	0.7548	0.8602	0.052
Mof_C 	C 	0.2609	0.7954	0.8996	-0.072
Mof_H 	H 	0.2854	0.8255	0.8759	0.064
Mof_Cl	Cl	0.58642	0.97164	0.98257	-0.481
Mof_Cu	Cu	0.18057	0.20062	0.36095	0.872
Mof_N 	N 	0.16047	0.30053	0.40391	-0.188
Mof_N 	N 	0.16497	0.24883	0.41693	-0.193
Mof_N 	N 	0.13987	0.28373	0.48393	-0.149
Mof_N 	N 	0.05317	0.24983	0.60193	-0.2
Mof_N 	N 	0.10547	0.19483	0.32602	-0.203
Mof_N 	N 	0.10157	0.24653	0.31135	-0.187
Mof_N 	N 	0.01437	0.16453	0.29253	-0.159
Mof_N 	N 	0.85277	0.03973	0.30473	-0.196
Mof_C 	C 	0.14607	0.32073	0.44393	0.106
Mof_H 	H 	0.14077	0.35523	0.44513	0.005
Mof_C 	C 	0.15107	0.23873	0.46533	0.099
Mof_H 	H 	0.14907	0.20593	0.48393	-0.018
Mof_C 	C 	0.12197	0.29083	0.53363	0.085
Mof_C 	C 	0.15737	0.34673	0.55733	-0.087
Mof_H 	H 	0.19377	0.37803	0.54283	0.069
Mof_C 	C 	0.13667	0.35503	0.60473	-0.037
Mof_H 	H 	0.15747	0.39293	0.62143	0.048
Mof_C 	C 	0.07247	0.24333	0.55653	-0.029
Mof_H 	H 	0.05127	0.20503	0.54023	0.018
Mof_C 	C 	0.08467	0.30523	0.62553	0.02
Mof_H 	H 	0.07097	0.31013	0.65693	0.034
Mof_C 	C 	0.05277	0.14653	0.31423	0.105
Mof_H 	H 	0.04247	0.10543	0.31973	-0.027
Mof_C 	C 	0.04697	0.22713	0.29193	0.112
Mof_H 	H 	0.03247	0.25273	0.27943	0.005
Mof_C 	C 	0.95127	0.12403	0.27883	0.097
Mof_C 	C 	0.91287	0.08103	0.31383	-0.035
Mof_H 	H 	0.92927	0.08053	0.34533	0.022
Mof_C 	C 	0.83067	0.04303	0.25953	0.018
Mof_H 	H 	0.78937	0.01443	0.25183	0.035
Mof_C 	C 	0.86637	0.08693	0.22403	-0.033
Mof_H 	H 	0.84857	0.08813	0.19353	0.044
Mof_C 	C 	0.92757	0.12873	0.23293	-0.095
Mof_H 	H 	0.95207	0.15883	0.20923	0.072
Mof_Cl	Cl	0.25309	0.30497	0.3159	-0.509
Mof_Cu	Cu	0.84723	0.53396	0.69429	0.872
Mof_N 	N 	0.82713	0.63387	0.73725	-0.188
Mof_N 	N 	0.83163	0.58217	0.75027	-0.192
Mof_N 	N 	0.80653	0.61707	0.81727	-0.149
Mof_N 	N 	0.71983	0.58317	0.93527	-0.194
Mof_N 	N 	0.77213	0.52817	0.65936	-0.202
Mof_N 	N 	0.76823	0.57987	0.64469	-0.187
Mof_N 	N 	0.68103	0.49787	0.62587	-0.153
Mof_N 	N 	0.51943	0.37307	0.63807	-0.195
Mof_C 	C 	0.81273	0.65407	0.77727	0.107
Mof_H 	H 	0.80743	0.68857	0.77847	0.006
Mof_C 	C 	0.81773	0.57207	0.79867	0.1
Mof_H 	H 	0.81573	0.53927	0.81727	-0.016
Mof_C 	C 	0.78863	0.62417	0.86697	0.088
Mof_C 	C 	0.82403	0.68007	0.89067	-0.086
Mof_H 	H 	0.86043	0.71137	0.87617	0.073
Mof_C 	C 	0.80333	0.68837	0.93807	-0.033
Mof_H 	H 	0.82413	0.72627	0.95477	0.054
Mof_C 	C 	0.73913	0.57667	0.88987	-0.028
Mof_H 	H 	0.71793	0.53837	0.87357	0.022
Mof_C 	C 	0.75133	0.63857	0.95887	0.023
Mof_H 	H 	0.73763	0.64347	0.99027	0.045
Mof_C 	C 	0.71943	0.47987	0.64757	0.106
Mof_H 	H 	0.70913	0.43877	0.65307	-0.023
Mof_C 	C 	0.71363	0.56047	0.62527	0.113
Mof_H 	H 	0.69913	0.58607	0.61277	0.008
Mof_C 	C 	0.61793	0.45737	0.61217	0.085
Mof_C 	C 	0.57953	0.41437	0.64717	-0.03
Mof_H 	H 	0.59593	0.41387	0.67867	0.019
Mof_C 	C 	0.49733	0.37637	0.59287	0.021
Mof_H 	H 	0.45603	0.34777	0.58517	0.038
Mof_C 	C 	0.53303	0.42027	0.55737	-0.037
Mof_H 	H 	0.51523	0.42147	0.52687	0.047
Mof_C 	C 	0.59423	0.46207	0.56627	-0.088
Mof_H 	H 	0.61873	0.49217	0.54257	0.068
Mof_Cl	Cl	0.91975	0.63831	0.64924	-0.506
Mof_Cu	Cu	0.86729	0.35339	0.97238	0.882
Mof_N 	N 	0.9672	0.4734	0.92942	-0.183
Mof_N 	N 	0.9155	0.4172	0.9164	-0.189
Mof_N 	N 	0.9504	0.4772	0.8494	-0.152
Mof_N 	N 	0.9165	0.53	0.7314	-0.198
Mof_N 	N 	0.8615	0.4227	0.00731	-0.208
Mof_N 	N 	0.9132	0.4783	0.02198	-0.187
Mof_N 	N 	0.8312	0.4835	0.0408	-0.157
Mof_N 	N 	0.7064	0.5203	0.0286	-0.191
Mof_C 	C 	0.9874	0.508	0.8894	0.124
Mof_H 	H 	0.0219	0.5478	0.8882	-0.005
Mof_C 	C 	0.9054	0.421	0.868	0.101
Mof_H 	H 	0.8726	0.3902	0.8494	-0.016
Mof_C 	C 	0.9575	0.5022	0.7997	0.098
Mof_C 	C 	0.0134	0.5227	0.776	-0.097
Mof_H 	H 	0.0447	0.5176	0.7905	0.071
Mof_C 	C 	0.0217	0.5517	0.7286	-0.047
Mof_H 	H 	0.0596	0.5688	0.7119	0.05
Mof_C 	C 	0.91	0.5042	0.7768	-0.032
Mof_H 	H 	0.8717	0.4871	0.7931	0.023
Mof_C 	C 	0.9719	0.5539	0.7078	0.033
Mof_H 	H 	0.9768	0.5725	0.6764	0.034
Mof_C 	C 	0.8132	0.4271	0.0191	0.104
Mof_H 	H 	0.7721	0.3963	0.0136	-0.027
Mof_C 	C 	0.8938	0.5135	0.0414	0.111
Mof_H 	H 	0.9194	0.5536	0.0539	0.007
Mof_C 	C 	0.7907	0.5061	0.0545	0.104
Mof_C 	C 	0.7477	0.5015	0.0195	-0.08
Mof_H 	H 	0.7472	0.4846	0.988	0.053
Mof_C 	C 	0.7097	0.5457	0.0738	0.012
Mof_H 	H 	0.6811	0.5584	0.0815	0.039
Mof_C 	C 	0.7536	0.5539	0.1093	-0.026
Mof_H 	H 	0.7548	0.5729	0.1398	0.043
Mof_C 	C 	0.7954	0.5345	0.1004	-0.103
Mof_H 	H 	0.8255	0.5401	0.1241	0.074
Mof_Cl	Cl	0.97164	0.38522	0.01743	-0.519
Mof_Cu	Cu	0.53396	0.68672	0.30571	0.872
Mof_N 	N 	0.63387	0.80673	0.26275	-0.188
Mof_N 	N 	0.58217	0.75053	0.24973	-0.193
Mof_N 	N 	0.61707	0.81053	0.18273	-0.149
Mof_N 	N 	0.58317	0.86333	0.06473	-0.201
Mof_N 	N 	0.52817	0.75603	0.34064	-0.202
Mof_N 	N 	0.57987	0.81163	0.35531	-0.187
Mof_N 	N 	0.49787	0.81683	0.37413	-0.152
Mof_N 	N 	0.37307	0.85363	0.36193	-0.195
Mof_C 	C 	0.65407	0.84133	0.22273	0.107
Mof_H 	H 	0.68857	0.88113	0.22153	0.007
Mof_C 	C 	0.57207	0.75433	0.20133	0.099
Mof_H 	H 	0.53927	0.72353	0.18273	-0.018
Mof_C 	C 	0.62417	0.83553	0.13303	0.085
Mof_C 	C 	0.68007	0.85603	0.10933	-0.087
Mof_H 	H 	0.71137	0.85093	0.12383	0.069
Mof_C 	C 	0.68837	0.88503	0.06193	-0.038
Mof_H 	H 	0.72627	0.90213	0.04523	0.046
Mof_C 	C 	0.57667	0.83753	0.11013	-0.029
Mof_H 	H 	0.53837	0.82043	0.12643	0.02
Mof_C 	C 	0.63857	0.88723	0.04113	0.019
Mof_H 	H 	0.64347	0.90583	0.00973	0.028
Mof_C 	C 	0.47987	0.76043	0.35243	0.106
Mof_H 	H 	0.43877	0.72963	0.34693	-0.023
Mof_C 	C 	0.56047	0.84683	0.37473	0.113
Mof_H 	H 	0.58607	0.88693	0.38723	0.009
Mof_C 	C 	0.45737	0.83943	0.38783	0.085
Mof_C 	C 	0.41437	0.83483	0.35283	-0.03
Mof_H 	H 	0.41387	0.81793	0.32133	0.019
Mof_C 	C 	0.37637	0.87903	0.40713	0.022
Mof_H 	H 	0.34777	0.89173	0.41483	0.038
Mof_C 	C 	0.42027	0.88723	0.44263	-0.037
Mof_H 	H 	0.42147	0.90623	0.47313	0.049
Mof_C 	C 	0.46207	0.86783	0.43373	-0.088
Mof_H 	H 	0.49217	0.87343	0.45743	0.069
Mof_Cl	Cl	0.63831	0.71855	0.35076	-0.509
Mof_Cu	Cu	0.20062	0.02006	0.63905	0.868
Mof_N 	N 	0.30053	0.14007	0.59609	-0.188
Mof_N 	N 	0.24883	0.08387	0.58307	-0.194
Mof_N 	N 	0.28373	0.14387	0.51607	-0.149
Mof_N 	N 	0.24983	0.19667	0.39807	-0.198
Mof_N 	N 	0.19483	0.08937	0.67398	-0.204
Mof_N 	N 	0.24653	0.14497	0.68865	-0.187
Mof_N 	N 	0.16453	0.15017	0.70747	-0.153
Mof_N 	N 	0.03973	0.18697	0.69527	-0.198
Mof_C 	C 	0.32073	0.17467	0.55607	0.106
Mof_H 	H 	0.35523	0.21447	0.55487	0.006
Mof_C 	C 	0.23873	0.08767	0.53467	0.098
Mof_H 	H 	0.20593	0.05687	0.51607	-0.019
Mof_C 	C 	0.29083	0.16887	0.46637	0.085
Mof_C 	C 	0.34673	0.18937	0.44267	-0.087
Mof_H 	H 	0.37803	0.18427	0.45717	0.069
Mof_C 	C 	0.35503	0.21837	0.39527	-0.037
Mof_H 	H 	0.39293	0.23547	0.37857	0.048
Mof_C 	C 	0.24333	0.17087	0.44347	-0.029
Mof_H 	H 	0.20503	0.15377	0.45977	0.02
Mof_C 	C 	0.30523	0.22057	0.37447	0.02
Mof_H 	H 	0.31013	0.23917	0.34307	0.036
Mof_C 	C 	0.14653	0.09377	0.68577	0.105
Mof_H 	H 	0.10543	0.06297	0.68027	-0.026
Mof_C 	C 	0.22713	0.18017	0.70807	0.112
Mof_H 	H 	0.25273	0.22027	0.72057	0.008
Mof_C 	C 	0.12403	0.17277	0.72117	0.084
Mof_C 	C 	0.08103	0.16817	0.68617	-0.031
Mof_H 	H 	0.08053	0.15127	0.65467	0.017
Mof_C 	C 	0.04303	0.21237	0.74047	0.021
Mof_H 	H 	0.01443	0.22507	0.74817	0.035
Mof_C 	C 	0.08693	0.22057	0.77597	-0.039
Mof_H 	H 	0.08813	0.23957	0.80647	0.048
Mof_C 	C 	0.12873	0.20117	0.76707	-0.088
Mof_H 	H 	0.15883	0.20677	0.79077	0.068
Mof_Cl	Cl	0.30497	0.05189	0.6841	-0.515
Mof_Cu	Cu	0.64661	0.5139	0.97238	0.882
Mof_N 	N 	0.5266	0.4938	0.92942	-0.182
Mof_N 	N 	0.5828	0.4983	0.9164	-0.189
Mof_N 	N 	0.5228	0.4732	0.8494	-0.149
Mof_N 	N 	0.47	0.3865	0.7314	-0.198
Mof_N 	N 	0.5773	0.4388	0.00731	-0.208
Mof_N 	N 	0.5217	0.4349	0.02198	-0.19
Mof_N 	N 	0.5165	0.3477	0.0408	-0.158
Mof_N 	N 	0.4797	0.1861	0.0286	-0.191
Mof_C 	C 	0.492	0.4794	0.8894	0.107
Mof_H 	H 	0.4522	0.4741	0.8882	0.006
Mof_C 	C 	0.579	0.4844	0.868	0.1
Mof_H 	H 	0.6098	0.4824	0.8494	-0.016
Mof_C 	C 	0.4978	0.4553	0.7997	0.087
Mof_C 	C 	0.4773	0.4907	0.776	-0.087
Mof_H 	H 	0.4824	0.5271	0.7905	0.07
Mof_C 	C 	0.4483	0.47	0.7286	-0.036
Mof_H 	H 	0.4312	0.4908	0.7119	0.048
Mof_C 	C 	0.4958	0.4058	0.7768	-0.029
Mof_H 	H 	0.5129	0.3846	0.7931	0.022
Mof_C 	C 	0.4461	0.418	0.7078	0.02
Mof_H 	H 	0.4275	0.4043	0.6764	0.036
Mof_C 	C 	0.5729	0.3861	0.0191	0.104
Mof_H 	H 	0.6037	0.3758	0.0136	-0.027
Mof_C 	C 	0.4865	0.3803	0.0414	0.11
Mof_H 	H 	0.4464	0.3658	0.0539	0.004
Mof_C 	C 	0.4939	0.2846	0.0545	0.103
Mof_C 	C 	0.4985	0.2462	0.0195	-0.081
Mof_H 	H 	0.5154	0.2626	0.988	0.053
Mof_C 	C 	0.4543	0.164	0.0738	0.012
Mof_H 	H 	0.4416	0.1227	0.0815	0.038
Mof_C 	C 	0.4461	0.1997	0.1093	-0.026
Mof_H 	H 	0.4271	0.1819	0.1398	0.042
Mof_C 	C 	0.4655	0.2609	0.1004	-0.104
Mof_H 	H 	0.4599	0.2854	0.1241	0.072
Mof_Cl	Cl	0.61478	0.58642	0.01743	-0.527
Mof_Cu	Cu	0.31328	0.84723	0.30571	0.872
Mof_N 	N 	0.19327	0.82713	0.26275	-0.188
Mof_N 	N 	0.24947	0.83163	0.24973	-0.193
Mof_N 	N 	0.18947	0.80653	0.18273	-0.149
Mof_N 	N 	0.13667	0.71983	0.06473	-0.201
Mof_N 	N 	0.24397	0.77213	0.34064	-0.202
Mof_N 	N 	0.18837	0.76823	0.35531	-0.187
Mof_N 	N 	0.18317	0.68103	0.37413	-0.153
Mof_N 	N 	0.14637	0.51943	0.36193	-0.195
Mof_C 	C 	0.15867	0.81273	0.22273	0.107
Mof_H 	H 	0.11887	0.80743	0.22153	0.004
Mof_C 	C 	0.24567	0.81773	0.20133	0.099
Mof_H 	H 	0.27647	0.81573	0.18273	-0.018
Mof_C 	C 	0.16447	0.78863	0.13303	0.085
Mof_C 	C 	0.14397	0.82403	0.10933	-0.089
Mof_H 	H 	0.14907	0.86043	0.12383	0.068
Mof_C 	C 	0.11497	0.80333	0.06193	-0.039
Mof_H 	H 	0.09787	0.82413	0.04523	0.043
Mof_C 	C 	0.16247	0.73913	0.11013	-0.03
Mof_H 	H 	0.17957	0.71793	0.12643	0.02
Mof_C 	C 	0.11277	0.75133	0.04113	0.018
Mof_H 	H 	0.09417	0.73763	0.00973	0.027
Mof_C 	C 	0.23957	0.71943	0.35243	0.106
Mof_H 	H 	0.27037	0.70913	0.34693	-0.023
Mof_C 	C 	0.15317	0.71363	0.37473	0.112
Mof_H 	H 	0.11307	0.69913	0.38723	0.006
Mof_C 	C 	0.16057	0.61793	0.38783	0.085
Mof_C 	C 	0.16517	0.57953	0.35283	-0.03
Mof_H 	H 	0.18207	0.59593	0.32133	0.019
Mof_C 	C 	0.12097	0.49733	0.40713	0.02
Mof_H 	H 	0.10827	0.45603	0.41483	0.037
Mof_C 	C 	0.11277	0.53303	0.44263	-0.038
Mof_H 	H 	0.09377	0.51523	0.47313	0.046
Mof_C 	C 	0.13217	0.59423	0.43373	-0.089
Mof_H 	H 	0.12657	0.61873	0.45743	0.067
Mof_Cl	Cl	0.28145	0.91975	0.35076	-0.507
Mof_Cu	Cu	0.97994	0.18057	0.63905	0.876
Mof_N 	N 	0.85993	0.16047	0.59609	-0.188
Mof_N 	N 	0.91613	0.16497	0.58307	-0.192
Mof_N 	N 	0.85613	0.13987	0.51607	-0.149
Mof_N 	N 	0.80333	0.05317	0.39807	-0.2
Mof_N 	N 	0.91063	0.10547	0.67398	-0.202
Mof_N 	N 	0.85503	0.10157	0.68865	-0.187
Mof_N 	N 	0.84983	0.01437	0.70747	-0.159
Mof_N 	N 	0.81303	0.85277	0.69527	-0.193
Mof_C 	C 	0.82533	0.14607	0.55607	0.106
Mof_H 	H 	0.78553	0.14077	0.55487	0.005
Mof_C 	C 	0.91233	0.15107	0.53467	0.1
Mof_H 	H 	0.94313	0.14907	0.51607	-0.015
Mof_C 	C 	0.83113	0.12197	0.46637	0.086
Mof_C 	C 	0.81063	0.15737	0.44267	-0.087
Mof_H 	H 	0.81573	0.19377	0.45717	0.07
Mof_C 	C 	0.78163	0.13667	0.39527	-0.036
Mof_H 	H 	0.76453	0.15747	0.37857	0.049
Mof_C 	C 	0.82913	0.07247	0.44347	-0.029
Mof_H 	H 	0.84623	0.05127	0.45977	0.02
Mof_C 	C 	0.77943	0.08467	0.37447	0.02
Mof_H 	H 	0.76083	0.07097	0.34307	0.034
Mof_C 	C 	0.90623	0.05277	0.68577	0.107
Mof_H 	H 	0.93703	0.04247	0.68027	-0.023
Mof_C 	C 	0.81983	0.04697	0.70807	0.113
Mof_H 	H 	0.77973	0.03247	0.72057	0.005
Mof_C 	C 	0.82723	0.95127	0.72117	0.098
Mof_C 	C 	0.83183	0.91287	0.68617	-0.034
Mof_H 	H 	0.84873	0.92927	0.65467	0.024
Mof_C 	C 	0.78763	0.83067	0.74047	0.019
Mof_H 	H 	0.77493	0.78937	0.74817	0.039
Mof_C 	C 	0.77943	0.86637	0.77597	-0.031
Mof_H 	H 	0.76043	0.84857	0.80647	0.048
Mof_C 	C 	0.79883	0.92757	0.76707	-0.094
Mof_H 	H 	0.79323	0.95207	0.79077	0.075
Mof_Cl	Cl	0.94811	0.25309	0.6841	-0.504
Mof_Cu	Cu	0.4861	0.13271	0.97238	0.882
Mof_N 	N 	0.5062	0.0328	0.92942	-0.181
Mof_N 	N 	0.5017	0.0845	0.9164	-0.19
Mof_N 	N 	0.5268	0.0496	0.8494	-0.144
Mof_N 	N 	0.6135	0.0835	0.7314	-0.197
Mof_N 	N 	0.5612	0.1385	0.00731	-0.208
Mof_N 	N 	0.5651	0.0868	0.02198	-0.191
Mof_N 	N 	0.6523	0.1688	0.0408	-0.157
Mof_N 	N 	0.8139	0.2936	0.0286	-0.191
Mof_C 	C 	0.5206	0.0126	0.8894	0.086
Mof_H 	H 	0.5259	0.9781	0.8882	0.02
Mof_C 	C 	0.5156	0.0946	0.868	0.099
Mof_H 	H 	0.5176	0.1274	0.8494	-0.016
Mof_C 	C 	0.5447	0.0425	0.7997	0.073
Mof_C 	C 	0.5093	0.9866	0.776	-0.075
Mof_H 	H 	0.4729	0.9553	0.7905	0.068
Mof_C 	C 	0.53	0.9783	0.7286	-0.024
Mof_H 	H 	0.5092	0.9404	0.7119	0.047
Mof_C 	C 	0.5942	0.09	0.7768	-0.025
Mof_H 	H 	0.6154	0.1283	0.7931	0.021
Mof_C 	C 	0.582	0.0281	0.7078	0.006
Mof_H 	H 	0.5957	0.0232	0.6764	0.039
Mof_C 	C 	0.6139	0.1868	0.0191	0.104
Mof_H 	H 	0.6242	0.2279	0.0136	-0.027
Mof_C 	C 	0.6197	0.1062	0.0414	0.11
Mof_H 	H 	0.6342	0.0806	0.0539	0.002
Mof_C 	C 	0.7154	0.2093	0.0545	0.102
Mof_C 	C 	0.7538	0.2523	0.0195	-0.078
Mof_H 	H 	0.7374	0.2528	0.988	0.052
Mof_C 	C 	0.836	0.2903	0.0738	0.013
Mof_H 	H 	0.8773	0.3189	0.0815	0.039
Mof_C 	C 	0.8003	0.2464	0.1093	-0.027
Mof_H 	H 	0.8181	0.2452	0.1398	0.044
Mof_C 	C 	0.7391	0.2046	0.1004	-0.102
Mof_H 	H 	0.7146	0.1745	0.1241	0.072
Mof_Cl	Cl	0.41358	0.02836	0.01743	-0.532
Mof_Cu	Cu	0.15277	0.46604	0.30571	0.872
Mof_N 	N 	0.17287	0.36613	0.26275	-0.188
Mof_N 	N 	0.16837	0.41783	0.24973	-0.193
Mof_N 	N 	0.19347	0.38293	0.18273	-0.149
Mof_N 	N 	0.28017	0.41683	0.06473	-0.201
Mof_N 	N 	0.22787	0.47183	0.34064	-0.202
Mof_N 	N 	0.23177	0.42013	0.35531	-0.187
Mof_N 	N 	0.31897	0.50213	0.37413	-0.153
Mof_N 	N 	0.48057	0.62693	0.36193	-0.195
Mof_C 	C 	0.18727	0.34593	0.22273	0.106
Mof_H 	H 	0.19257	0.31143	0.22153	0.005
Mof_C 	C 	0.18227	0.42793	0.20133	0.098
Mof_H 	H 	0.18427	0.46073	0.18273	-0.018
Mof_C 	C 	0.21137	0.37583	0.13303	0.084
Mof_C 	C 	0.17597	0.31993	0.10933	-0.088
Mof_H 	H 	0.13957	0.28863	0.12383	0.066
Mof_C 	C 	0.19667	0.31163	0.06193	-0.039
Mof_H 	H 	0.17587	0.27373	0.04523	0.043
Mof_C 	C 	0.26087	0.42333	0.11013	-0.03
Mof_H 	H 	0.28207	0.46163	0.12643	0.02
Mof_C 	C 	0.24867	0.36143	0.04113	0.018
Mof_H 	H 	0.26237	0.35653	0.00973	0.027
Mof_C 	C 	0.28057	0.52013	0.35243	0.106
Mof_H 	H 	0.29087	0.56123	0.34693	-0.023
Mof_C 	C 	0.28637	0.43953	0.37473	0.112
Mof_H 	H 	0.30087	0.41393	0.38723	0.008
Mof_C 	C 	0.38207	0.54263	0.38783	0.085
Mof_C 	C 	0.42047	0.58563	0.35283	-0.03
Mof_H 	H 	0.40407	0.58613	0.32133	0.019
Mof_C 	C 	0.50267	0.62363	0.40713	0.021
Mof_H 	H 	0.54397	0.65223	0.41483	0.038
Mof_C 	C 	0.46697	0.57973	0.44263	-0.037
Mof_H 	H 	0.48477	0.57853	0.47313	0.048
Mof_C 	C 	0.40577	0.53793	0.43373	-0.088
Mof_H 	H 	0.38127	0.50783	0.45743	0.068
Mof_Cl	Cl	0.08025	0.36169	0.35076	-0.512
Mof_Cu	Cu	0.81943	0.79938	0.63905	0.873
Mof_N 	N 	0.83953	0.69947	0.59609	-0.188
Mof_N 	N 	0.83503	0.75117	0.58307	-0.192
Mof_N 	N 	0.86013	0.71627	0.51607	-0.149
Mof_N 	N 	0.94683	0.75017	0.39807	-0.195
Mof_N 	N 	0.89453	0.80517	0.67398	-0.202
Mof_N 	N 	0.89843	0.75347	0.68865	-0.186
Mof_N 	N 	0.98563	0.83547	0.70747	-0.147
Mof_N 	N 	0.14723	0.96027	0.69527	-0.193
Mof_C 	C 	0.85393	0.67927	0.55607	0.107
Mof_H 	H 	0.85923	0.64477	0.55487	0.006
Mof_C 	C 	0.84893	0.76127	0.53467	0.1
Mof_H 	H 	0.85093	0.79407	0.51607	-0.016
Mof_C 	C 	0.87803	0.70917	0.46637	0.088
Mof_C 	C 	0.84263	0.65327	0.44267	-0.087
Mof_H 	H 	0.80623	0.62197	0.45717	0.07
Mof_C 	C 	0.86333	0.64497	0.39527	-0.035
Mof_H 	H 	0.84253	0.60707	0.37857	0.049
Mof_C 	C 	0.92753	0.75667	0.44347	-0.029
Mof_H 	H 	0.94873	0.79497	0.45977	0.024
Mof_C 	C 	0.91533	0.69477	0.37447	0.021
Mof_H 	H 	0.92903	0.68987	0.34307	0.038
Mof_C 	C 	0.94723	0.85347	0.68577	0.107
Mof_H 	H 	0.95753	0.89457	0.68027	-0.019
Mof_C 	C 	0.95303	0.77287	0.70807	0.113
Mof_H 	H 	0.96753	0.74727	0.72057	0.01
Mof_C 	C 	0.04873	0.87597	0.72117	0.076
Mof_C 	C 	0.08713	0.91897	0.68617	-0.026
Mof_H 	H 	0.07073	0.91947	0.65467	0.017
Mof_C 	C 	0.16933	0.95697	0.74047	0.024
Mof_H 	H 	0.21063	0.98557	0.74817	0.041
Mof_C 	C 	0.13363	0.91307	0.77597	-0.04
Mof_H 	H 	0.15143	0.91187	0.80647	0.051
Mof_C 	C 	0.07243	0.87127	0.76707	-0.082
Mof_H 	H 	0.04793	0.84117	0.79077	0.065
Mof_Cl	Cl	0.74691	0.69503	0.6841	-0.509
Mof_Cu	Cu	3.22906e-17	0.5	-0	0.882
Mof_Cu	Cu	0.66667	0.83333	0.33333	0.898
Mof_Cu	Cu	0.33333	0.16667	0.66667	0.897
Mof_Cu	Cu	0.5	0.5	-0	0.887
Mof_Cu	Cu	0.16667	0.83333	0.33333	0.898
Mof_Cu	Cu	0.83333	0.16667	0.66667	0.897
Mof_Cu	Cu	0.5	0	-0	0.884
Mof_Cu	Cu	0.16667	0.33333	0.33333	0.897
Mof_Cu	Cu	0.83333	0.66667	0.66667	0.898
_end
