# CIF file generated by openbabel 3.1.0, see https://openbabel.org
data_I
_chemical_name_common 'image0'
_cell_length_a 5.1812
_cell_length_b 10.742
_cell_length_c 15.1224
_cell_angle_alpha 82.466
_cell_angle_beta 84.928
_cell_angle_gamma 82.691
_space_group_name_H-M_alt 'P 1'
_space_group_name_Hall 'P 1'
loop_
    _symmetry_equiv_pos_as_xyz
    x,y,z
loop_
    _atom_site_label
    _atom_site_type_symbol
    _atom_site_fract_x
    _atom_site_fract_y
    _atom_site_fract_z
    _atom_site_occupancy
    C1       C        0.98420    0.62970    0.48541    1.000
    H1       H        0.97180    0.71930    0.47550    1.000
    C2       C        0.08570    0.56730    0.56424    1.000
    C3       C        0.09970    0.43480    0.57933    1.000
    C4       C        0.18970    0.35980    0.66371    1.000
    C5       C        0.41600    0.27360    0.66223    1.000
    H2       H        0.50850    0.25890    0.60680    1.000
    C6       C        0.50600    0.20930    0.74146    1.000
    H3       H        0.66360    0.15350    0.74020    1.000
    C7       C        0.13370    0.30830    0.82434    1.000
    H4       H        0.03370    0.31780    0.87930    1.000
    C8       C        0.04960    0.37580    0.74507    1.000
    H5       H        0.89460    0.43350    0.74650    1.000
    C9       C        0.36600    0.22640    0.82281    1.000
    C10      C        0.46740    0.16010    0.90891    1.000
    C11      C        0.17340    0.64310    0.63030    1.000
    C12      C        0.40160    0.60350    0.67280    1.000
    H6       H        0.51340    0.53210    0.65580    1.000
    C13      C        0.46760    0.66770    0.74000    1.000
    H7       H        0.62300    0.63950    0.76940    1.000
    C14      C        0.30540    0.77380    0.76433    1.000
    C15      C        0.08280    0.81750    0.71869    1.000
    H8       H        0.97450    0.89100    0.73380    1.000
    C16      C        0.01980    0.75340    0.65131    1.000
    H9       H        0.87100    0.78470    0.61910    1.000
    C17      C        0.35910    0.83540    0.84231    1.000
    O1       O        0.30050    0.14812    0.97672    1.000
    O2       O        0.70370    0.12330    0.91043    1.000
    O3       O        0.19840    0.91430    0.87453    1.000
    O4       O        0.58720    0.79740    0.87251    1.000
    H10      H        0.60540    0.83560    0.91620    1.000
    C18      C        0.01580    0.37030    0.51459    1.000
    H11      H        0.02820    0.28070    0.52450    1.000
    C19      C        0.91430    0.43270    0.43576    1.000
    C20      C        0.90030    0.56520    0.42067    1.000
    C21      C        0.81030    0.64020    0.33629    1.000
    C22      C        0.58400    0.72640    0.33777    1.000
    H12      H        0.49150    0.74110    0.39320    1.000
    C23      C        0.49400    0.79070    0.25854    1.000
    H13      H        0.33640    0.84650    0.25980    1.000
    C24      C        0.86630    0.69170    0.17566    1.000
    H14      H        0.96630    0.68220    0.12070    1.000
    C25      C        0.95040    0.62420    0.25493    1.000
    H15      H        0.10540    0.56650    0.25350    1.000
    C26      C        0.63400    0.77360    0.17719    1.000
    C27      C        0.53260    0.83990    0.09109    1.000
    C28      C        0.82660    0.35690    0.36970    1.000
    C29      C        0.59840    0.39650    0.32720    1.000
    H16      H        0.48660    0.46790    0.34420    1.000
    C30      C        0.53240    0.33230    0.26000    1.000
    H17      H        0.37700    0.36050    0.23060    1.000
    C31      C        0.69460    0.22620    0.23567    1.000
    C32      C        0.91720    0.18250    0.28131    1.000
    H18      H        0.02550    0.10900    0.26620    1.000
    C33      C        0.98020    0.24660    0.34869    1.000
    H19      H        0.12900    0.21530    0.38090    1.000
    C34      C        0.64090    0.16460    0.15769    1.000
    O5       O        0.69950    0.85188    0.02328    1.000
    O6       O        0.29630    0.87670    0.08957    1.000
    O7       O        0.80160    0.08570    0.12547    1.000
    O8       O        0.41280    0.20260    0.12749    1.000
    H20      H        0.39460    0.16440    0.08380    1.000
    Ca1      Ca       0.00000    0.00000    0.00000    1.000
