data_functionalizedCrystal
_audit_creation_method	'EQeq! by Chris Wilmer'
_symmetry_space_group_name_H-M	'P1'
_symmetry_Int_Tables_number	1
_symmetry_cell_setting	triclinic
loop_
_symmetry_equiv_pos_as_xyz
  x,y,z
_cell_length_a	6.5886
_cell_length_b	16.7607
_cell_length_c	11.7157
_cell_angle_alpha	90
_cell_angle_beta	95.644
_cell_angle_gamma	90
loop_
_atom_site_label
_atom_site_type_symbol
_atom_site_fract_x
_atom_site_fract_y
_atom_site_fract_z
_atom_site_charge
Mof_C 	C 	0.0668	0.63179	0.8557	0.25
Mof_C 	C 	0.1897	0.69393	0.8046	-0.048
Mof_C 	C 	0.3946	0.70894	0.8179	-0.021
Mof_H 	H 	0.4881	0.6787	0.8641	0.086
Mof_C 	C 	0.4483	0.7754	0.7537	0.014
Mof_H 	H 	0.5813	0.7937	0.7524	0.079
Mof_C 	C 	0.2822	0.81016	0.6931	-0.079
Mof_C 	C 	0.2743	0.88098	0.6166	0.376
Mof_S 	S 	0.06051	0.76143	0.7145	0.044
Mof_O 	O 	0.1601	0.57509	0.9122	-0.355
Mof_O 	O 	0.8782	0.63937	0.83941	-0.18
Mof_O 	O 	0.4429	0.91237	0.60146	-0.351
Mof_O 	O 	0.0999	0.9024	0.57475	-0.409
Mof_C 	C 	0.4332	0.13179	0.6443	0.361
Mof_C 	C 	0.3103	0.19393	0.6954	-0.144
Mof_C 	C 	0.1054	0.20894	0.6821	0.094
Mof_H 	H 	0.0119	0.1787	0.6359	-0.017
Mof_C 	C 	0.0517	0.2754	0.7463	-0.198
Mof_H 	H 	0.9187	0.2937	0.7476	0.175
Mof_C 	C 	0.2178	0.31016	0.8069	-0.03
Mof_C 	C 	0.2257	0.38098	0.8834	0.348
Mof_S 	S 	0.43949	0.26143	0.7855	0.108
Mof_O 	O 	0.3399	0.07509	0.5878	-0.471
Mof_O 	O 	0.6218	0.13937	0.66059	-0.285
Mof_O 	O 	0.0571	0.41237	0.89854	-0.379
Mof_O 	O 	0.4001	0.4024	0.92525	-0.363
Mof_C 	C 	0.9332	0.36821	0.1443	0.436
Mof_C 	C 	0.8103	0.30607	0.1954	-0.137
Mof_C 	C 	0.6054	0.29106	0.1821	-0
Mof_H 	H 	0.5119	0.3213	0.1359	0.016
Mof_C 	C 	0.5517	0.2246	0.2463	-0.012
Mof_H 	H 	0.4187	0.2063	0.2476	0.025
Mof_C 	C 	0.7178	0.18984	0.3069	-0.119
Mof_C 	C 	0.7257	0.11902	0.3834	0.378
Mof_S 	S 	0.93949	0.23857	0.2855	0.121
Mof_O 	O 	0.8399	0.42491	0.0878	-0.463
Mof_O 	O 	0.1218	0.36063	0.16059	-0.396
Mof_O 	O 	0.5571	0.08763	0.39854	-0.452
Mof_O 	O 	0.9001	0.0976	0.42525	-0.428
Mof_C 	C 	0.5668	0.86821	0.3557	0.32
Mof_C 	C 	0.6897	0.80607	0.3046	-0.039
Mof_C 	C 	0.8946	0.79106	0.3179	-0.119
Mof_H 	H 	0.9881	0.8213	0.3641	0.122
Mof_C 	C 	0.9483	0.7246	0.2537	0.207
Mof_H 	H 	0.0813	0.7063	0.2524	-0.075
Mof_C 	C 	0.7822	0.68984	0.1931	-0.17
Mof_C 	C 	0.7743	0.61902	0.1166	0.406
Mof_S 	S 	0.56051	0.73857	0.2145	0.055
Mof_O 	O 	0.6601	0.92491	0.4122	-0.354
Mof_O 	O 	0.3782	0.86063	0.33941	-0.289
Mof_O 	O 	0.9429	0.58763	0.10146	-0.413
Mof_O 	O 	0.5999	0.5976	0.07475	-0.484
Mof_Cu	Cu	-0	0.5	-0	0.818
Mof_Cu	Cu	0.5	0	0.5	0.853
Mof_Cu	Cu	1.10377e-17	0	0.5	0.78
Mof_Cu	Cu	0.5	0.5	-0	0.808
_end
