data_functionalizedCrystal
_audit_creation_method	'EQeq! by Chris Wilmer'
_symmetry_space_group_name_H-M	'P1'
_symmetry_Int_Tables_number	1
_symmetry_cell_setting	triclinic
loop_
_symmetry_equiv_pos_as_xyz
  x,y,z
_cell_length_a	14.958
_cell_length_b	14.958
_cell_length_c	9.05
_cell_angle_alpha	90
_cell_angle_beta	90
_cell_angle_gamma	90
loop_
_atom_site_label
_atom_site_type_symbol
_atom_site_fract_x
_atom_site_fract_y
_atom_site_fract_z
_atom_site_charge
Mof_Mn	Mn	0.50589	0.36823	0.57369	0.982
Mof_Mn	Mn	0.62836	0.00618	0.37762	0.959
Mof_Mn	Mn	0.98546	0.12389	0.55507	0.969
Mof_Mn	Mn	0.12751	0.5137	0.38196	0.97
Mof_P 	P 	0.34618	0.48575	0.43652	0.584
Mof_P 	P 	0.49504	0.15023	0.51818	0.57
Mof_P 	P 	0.84789	0.99793	0.41957	0.561
Mof_P 	P 	0.65514	0.01171	0.01161	0.352
Mof_O 	O 	0.3805	0.4141	0.5448	-0.383
Mof_O 	O 	0.4007	0.5706	0.4512	-0.41
Mof_O 	O 	0.3526	0.4471	0.2821	-0.403
Mof_O 	O 	0.2494	0.5062	0.4775	-0.364
Mof_O 	O 	0.5096	0.2469	0.4667	-0.36
Mof_O 	O 	0.5858	0.1037	0.5188	-0.389
Mof_O 	O 	0.451	0.1474	0.6698	-0.405
Mof_O 	O 	0.4338	0.1106	0.4007	-0.415
Mof_O 	O 	0.7507	0.9904	0.4714	-0.354
Mof_O 	O 	0.8744	0.0968	0.4191	-0.369
Mof_O 	O 	0.8588	0.9527	0.27	-0.399
Mof_O 	O 	0.9043	0.9517	0.5374	-0.408
Mof_O 	O 	0.6424	0.048	0.1673	-0.406
Mof_O 	O 	0.6058	0.0698	0.9016	-0.325
Mof_O 	O 	0.7537	0.0188	0.9644	-0.222
Mof_O 	O 	0.6246	0.9148	0.9974	-0.289
Mof_Mn	Mn	0.49411	0.63177	0.57369	0.981
Mof_Mn	Mn	0.37164	0.99382	0.37762	0.958
Mof_Mn	Mn	0.01454	0.87611	0.55507	0.968
Mof_Mn	Mn	0.87249	0.4863	0.38196	0.969
Mof_P 	P 	0.65382	0.51425	0.43652	0.583
Mof_P 	P 	0.50496	0.84977	0.51818	0.569
Mof_P 	P 	0.15211	0.00207	0.41957	0.561
Mof_P 	P 	0.34486	0.98829	0.01161	0.352
Mof_O 	O 	0.6195	0.5859	0.5448	-0.383
Mof_O 	O 	0.5993	0.4294	0.4512	-0.41
Mof_O 	O 	0.6474	0.5529	0.2821	-0.403
Mof_O 	O 	0.7506	0.4938	0.4775	-0.364
Mof_O 	O 	0.4904	0.7531	0.4667	-0.36
Mof_O 	O 	0.4142	0.8963	0.5188	-0.389
Mof_O 	O 	0.549	0.8526	0.6698	-0.405
Mof_O 	O 	0.5662	0.8894	0.4007	-0.415
Mof_O 	O 	0.2493	0.0096	0.4714	-0.354
Mof_O 	O 	0.1256	0.9032	0.4191	-0.369
Mof_O 	O 	0.1412	0.0473	0.27	-0.399
Mof_O 	O 	0.0957	0.0483	0.5374	-0.408
Mof_O 	O 	0.3576	0.952	0.1673	-0.406
Mof_O 	O 	0.3942	0.9302	0.9016	-0.325
Mof_O 	O 	0.2463	0.9812	0.9644	-0.222
Mof_O 	O 	0.3754	0.0852	0.9974	-0.289
Mof_Mn	Mn	0.63177	0.50589	0.07369	0.837
Mof_Mn	Mn	0.99382	0.62836	0.87762	1.052
Mof_Mn	Mn	0.87611	0.98546	0.05507	0.829
Mof_Mn	Mn	0.4863	0.12751	0.88196	0.993
Mof_P 	P 	0.51425	0.34618	0.93652	0.649
Mof_P 	P 	0.84977	0.49504	0.01818	0.427
Mof_P 	P 	0.00207	0.84789	0.91957	0.63
Mof_P 	P 	0.98829	0.65514	0.51161	0.574
Mof_O 	O 	0.5859	0.3805	0.0448	-0.452
Mof_O 	O 	0.4294	0.4007	0.9512	-0.352
Mof_O 	O 	0.5529	0.3526	0.7821	-0.397
Mof_O 	O 	0.4938	0.2494	0.9775	-0.34
Mof_O 	O 	0.7531	0.5096	0.9667	-0.231
Mof_O 	O 	0.8963	0.5858	0.0188	-0.442
Mof_O 	O 	0.8526	0.451	0.1698	-0.406
Mof_O 	O 	0.8894	0.4338	0.9007	-0.335
Mof_O 	O 	0.0096	0.7507	0.9714	-0.328
Mof_O 	O 	0.9032	0.8744	0.9191	-0.318
Mof_O 	O 	0.0473	0.8588	0.77	-0.396
Mof_O 	O 	0.0483	0.9043	0.0374	-0.471
Mof_O 	O 	0.952	0.6424	0.6673	-0.411
Mof_O 	O 	0.9302	0.6058	0.4016	-0.411
Mof_O 	O 	0.9812	0.7537	0.4644	-0.354
Mof_O 	O 	0.0852	0.6246	0.4974	-0.39
Mof_Mn	Mn	0.36823	0.49411	0.07369	0.837
Mof_Mn	Mn	0.00618	0.37164	0.87762	1.052
Mof_Mn	Mn	0.12389	0.01454	0.05507	0.829
Mof_Mn	Mn	0.5137	0.87249	0.88196	0.993
Mof_P 	P 	0.48575	0.65382	0.93652	0.649
Mof_P 	P 	0.15023	0.50496	0.01818	0.427
Mof_P 	P 	0.99793	0.15211	0.91957	0.63
Mof_P 	P 	0.01171	0.34486	0.51161	0.574
Mof_O 	O 	0.4141	0.6195	0.0448	-0.452
Mof_O 	O 	0.5706	0.5993	0.9512	-0.352
Mof_O 	O 	0.4471	0.6474	0.7821	-0.397
Mof_O 	O 	0.5062	0.7506	0.9775	-0.34
Mof_O 	O 	0.2469	0.4904	0.9667	-0.231
Mof_O 	O 	0.1037	0.4142	0.0188	-0.442
Mof_O 	O 	0.1474	0.549	0.1698	-0.406
Mof_O 	O 	0.1106	0.5662	0.9007	-0.335
Mof_O 	O 	0.9904	0.2493	0.9714	-0.328
Mof_O 	O 	0.0968	0.1256	0.9191	-0.318
Mof_O 	O 	0.9527	0.1412	0.77	-0.396
Mof_O 	O 	0.9517	0.0957	0.0374	-0.471
Mof_O 	O 	0.048	0.3576	0.6673	-0.411
Mof_O 	O 	0.0698	0.3942	0.4016	-0.411
Mof_O 	O 	0.0188	0.2463	0.4644	-0.354
Mof_O 	O 	0.9148	0.3754	0.4974	-0.39
_end
