# CIF file generated by openbabel 3.1.0, see https://openbabel.org
data_I
_chemical_name_common 'image0'
_cell_length_a 8.132
_cell_length_b 13.224
_cell_length_c 7.537
_cell_angle_alpha 90
_cell_angle_beta 115.31
_cell_angle_gamma 90
_space_group_name_H-M_alt 'P 1'
_space_group_name_Hall 'P 1'
loop_
    _symmetry_equiv_pos_as_xyz
    x,y,z
loop_
    _atom_site_label
    _atom_site_type_symbol
    _atom_site_fract_x
    _atom_site_fract_y
    _atom_site_fract_z
    _atom_site_occupancy
    Co1      Co       0.50000    0.63933    0.50000    1.000
    O1       O        0.47120    0.49180    0.38880    1.000
    O2       O        0.33270    0.37910    0.15350    1.000
    O3       O        0.27790    0.67690    0.24190    1.000
    O4       O        0.98760    0.70780    0.05780    1.000
    C1       C        0.33110    0.44770    0.27060    1.000
    C2       C        0.14820    0.46670    0.26630    1.000
    C3       C        0.05470    0.55250    0.22160    1.000
    C4       C        0.11460    0.65230    0.17200    1.000
    Co2      Co       0.00000    0.13933    0.50000    1.000
    O5       O        0.97120    0.99180    0.38880    1.000
    O6       O        0.83270    0.87910    0.15350    1.000
    O7       O        0.77790    0.17690    0.24190    1.000
    O8       O        0.48760    0.20780    0.05780    1.000
    C5       C        0.83110    0.94770    0.27060    1.000
    C6       C        0.64820    0.96670    0.26630    1.000
    C7       C        0.55470    0.05250    0.22160    1.000
    C8       C        0.61460    0.15230    0.17200    1.000
    Co3      Co       0.50000    0.36067    0.00000    1.000
    O9       O        0.47120    0.50820    0.88880    1.000
    O10      O        0.33270    0.62090    0.65350    1.000
    O11      O        0.27790    0.32310    0.74190    1.000
    O12      O        0.98760    0.29220    0.55780    1.000
    C9       C        0.33110    0.55230    0.77060    1.000
    C10      C        0.14820    0.53330    0.76630    1.000
    C11      C        0.05470    0.44750    0.72160    1.000
    C12      C        0.11460    0.34770    0.67200    1.000
    Co4      Co       0.00000    0.86067    0.00000    1.000
    O13      O        0.97120    0.00820    0.88880    1.000
    O14      O        0.83270    0.12090    0.65350    1.000
    O15      O        0.77790    0.82310    0.74190    1.000
    O16      O        0.48760    0.79220    0.55780    1.000
    C13      C        0.83110    0.05230    0.77060    1.000
    C14      C        0.64820    0.03330    0.76630    1.000
    C15      C        0.55470    0.94750    0.72160    1.000
    C16      C        0.61460    0.84770    0.67200    1.000
