# CIF file generated by openbabel 3.1.0, see https://openbabel.org
data_I
_chemical_name_common 'image0'
_cell_length_a 7.3695
_cell_length_b 13.099
_cell_length_c 13.448
_cell_angle_alpha 80.353
_cell_angle_beta 84.93
_cell_angle_gamma 82.795
_space_group_name_H-M_alt 'P 1'
_space_group_name_Hall 'P 1'
loop_
    _symmetry_equiv_pos_as_xyz
    x,y,z
loop_
    _atom_site_label
    _atom_site_type_symbol
    _atom_site_fract_x
    _atom_site_fract_y
    _atom_site_fract_z
    _atom_site_occupancy
    Cu1      Cu       0.79566    0.30929    0.79313    1.000
    N1       N        0.98650    0.38450    0.70130    1.000
    C1       C        0.13290    0.32700    0.66500    1.000
    H1       H        0.13860    0.25330    0.68210    1.000
    C2       C        0.27510    0.36740    0.60470    1.000
    H2       H        0.37420    0.32220    0.58060    1.000
    C3       C        0.27330    0.47510    0.57900    1.000
    C4       C        0.12000    0.53490    0.61440    1.000
    H3       H        0.11060    0.60870    0.59810    1.000
    C5       C        0.98190    0.48790    0.67290    1.000
    H4       H        0.87740    0.53100    0.69440    1.000
    C6       C        0.42550    0.52450    0.52060    1.000
    H5       H        0.41660    0.59840    0.51150    1.000
    N2       N        0.68190    0.22220    0.70430    1.000
    C7       C        0.54510    0.16560    0.74340    1.000
    H6       H        0.49430    0.17230    0.80980    1.000
    C8       C        0.47510    0.09860    0.69240    1.000
    H7       H        0.37920    0.05980    0.72410    1.000
    C9       C        0.54320    0.08710    0.59520    1.000
    C10      C        0.68370    0.14640    0.55350    1.000
    H8       H        0.73470    0.14210    0.48670    1.000
    C11      C        0.74860    0.21150    0.60980    1.000
    H9       H        0.84530    0.25060    0.58030    1.000
    C12      C        0.46730    0.01350    0.54390    1.000
    H10      H        0.36290    0.98280    0.57620    1.000
    N3       N        0.58850    0.38120    0.87116    1.000
    C13      C        0.55150    0.35010    0.97010    1.000
    H11      H        0.64130    0.30430    0.00700    1.000
    C14      C        0.38780    0.38180    0.02120    1.000
    H12      H        0.36830    0.35840    0.09170    1.000
    C15      C        0.25210    0.44780    0.96960    1.000
    C16      C        0.29460    0.48360    0.86730    1.000
    H13      H        0.20940    0.53160    0.82920    1.000
    C17      C        0.46090    0.44870    0.82210    1.000
    H14      H        0.48680    0.47380    0.75240    1.000
    C18      C        0.07460    0.47640    0.02200    1.000
    H15      H        0.06560    0.45980    0.09360    1.000
    N4       N        0.95330    0.18990    0.88450    1.000
    C19      C        0.99550    0.09510    0.85710    1.000
    H16      H        0.91900    0.07430    0.81260    1.000
    C20      C        0.14390    0.02640    0.89000    1.000
    H17      H        0.16580    0.95980    0.86930    1.000
    C21      C        0.26120    0.05470    0.95350    1.000
    C22      C        0.21240    0.15080    0.98630    1.000
    H18      H        0.28360    0.17240    0.03290    1.000
    C23      C        0.06080    0.21400    0.95070    1.000
    H19      H        0.03020    0.27870    0.97450    1.000
    C24      C        0.42870    0.98610    0.98030    1.000
    H20      H        0.43620    0.91620    0.96850    1.000
    Cu2      Cu       0.20434    0.69071    0.20687    1.000
    N5       N        0.01350    0.61550    0.29870    1.000
    C25      C        0.86710    0.67300    0.33500    1.000
    H21      H        0.86140    0.74670    0.31790    1.000
    C26      C        0.72490    0.63260    0.39530    1.000
    H22      H        0.62580    0.67780    0.41940    1.000
    C27      C        0.72670    0.52490    0.42100    1.000
    C28      C        0.88000    0.46510    0.38560    1.000
    H23      H        0.88940    0.39130    0.40190    1.000
    C29      C        0.01810    0.51210    0.32710    1.000
    H24      H        0.12260    0.46900    0.30560    1.000
    C30      C        0.57450    0.47550    0.47940    1.000
    H25      H        0.58340    0.40160    0.48850    1.000
    N6       N        0.31810    0.77780    0.29570    1.000
    C31      C        0.45490    0.83440    0.25660    1.000
    H26      H        0.50570    0.82770    0.19020    1.000
    C32      C        0.52490    0.90140    0.30760    1.000
    H27      H        0.62080    0.94020    0.27590    1.000
    C33      C        0.45680    0.91290    0.40480    1.000
    C34      C        0.31630    0.85360    0.44650    1.000
    H28      H        0.26530    0.85790    0.51330    1.000
    C35      C        0.25140    0.78850    0.39020    1.000
    H29      H        0.15470    0.74940    0.41970    1.000
    C36      C        0.53270    0.98650    0.45610    1.000
    H30      H        0.63710    0.01720    0.42380    1.000
    N7       N        0.41150    0.61880    0.12884    1.000
    C37      C        0.44850    0.64990    0.02990    1.000
    H31      H        0.35870    0.69570    0.99300    1.000
    C38      C        0.61220    0.61820    0.97880    1.000
    H32      H        0.63170    0.64160    0.90830    1.000
    C39      C        0.74790    0.55220    0.03040    1.000
    C40      C        0.70540    0.51640    0.13270    1.000
    H33      H        0.79060    0.46840    0.17080    1.000
    C41      C        0.53910    0.55130    0.17790    1.000
    H34      H        0.51320    0.52620    0.24760    1.000
    C42      C        0.92540    0.52360    0.97800    1.000
    H35      H        0.93440    0.54020    0.90640    1.000
    N8       N        0.04670    0.81010    0.11550    1.000
    C43      C        0.00450    0.90490    0.14290    1.000
    H36      H        0.08100    0.92570    0.18740    1.000
    C44      C        0.85610    0.97360    0.11000    1.000
    H37      H        0.83420    0.04020    0.13070    1.000
    C45      C        0.73880    0.94530    0.04650    1.000
    C46      C        0.78760    0.84920    0.01370    1.000
    H38      H        0.71640    0.82760    0.96710    1.000
    C47      C        0.93920    0.78600    0.04930    1.000
    H39      H        0.96980    0.72130    0.02550    1.000
    C48      C        0.57130    0.01390    0.01970    1.000
    H40      H        0.56380    0.08380    0.03150    1.000
