data_functionalizedCrystal
_audit_creation_method	'EQeq! by Chris Wilmer'
_symmetry_space_group_name_H-M	'P1'
_symmetry_Int_Tables_number	1
_symmetry_cell_setting	triclinic
loop_
_symmetry_equiv_pos_as_xyz
  x,y,z
_cell_length_a	5.7266
_cell_length_b	9.9412
_cell_length_c	16.474
_cell_angle_alpha	90
_cell_angle_beta	90
_cell_angle_gamma	94.294
loop_
_atom_site_label
_atom_site_type_symbol
_atom_site_fract_x
_atom_site_fract_y
_atom_site_fract_z
_atom_site_charge
Mof_Cu	Cu	0.24641	0.51161	0.5673	0.83
Mof_Cu	Cu	0.75359	0.98839	0.0673	0.828
Mof_Cu	Cu	0.75359	0.48839	0.4327	0.83
Mof_Cu	Cu	0.24641	0.01161	0.9327	0.828
Mof_H 	H 	0.565	0.303	0.59	-0.059
Mof_H 	H 	0.742	0.185	0.688	0.102
Mof_H 	H 	0.307	0.324	0.847	0.078
Mof_H 	H 	0.131	0.437	0.742	-0.015
Mof_H 	H 	0.435	0.197	0.09	-0.059
Mof_H 	H 	0.258	0.315	0.188	0.101
Mof_H 	H 	0.693	0.176	0.347	0.079
Mof_H 	H 	0.869	0.063	0.242	-0.013
Mof_H 	H 	0.435	0.697	0.41	-0.059
Mof_H 	H 	0.258	0.815	0.312	0.102
Mof_H 	H 	0.693	0.676	0.153	0.078
Mof_H 	H 	0.869	0.563	0.258	-0.015
Mof_H 	H 	0.565	0.803	0.91	-0.059
Mof_H 	H 	0.742	0.685	0.812	0.101
Mof_H 	H 	0.307	0.824	0.653	0.079
Mof_H 	H 	0.131	0.937	0.758	-0.013
Mof_C 	C 	0.5156	0.3019	0.6425	0.115
Mof_C 	C 	0.6251	0.2322	0.702	-0.193
Mof_C 	C 	0.5435	0.2372	0.781	0.072
Mof_C 	C 	0.3574	0.3125	0.7962	-0.172
Mof_C 	C 	0.2586	0.3803	0.7335	0.089
Mof_C 	C 	0.6654	0.1674	0.8454	0.07
Mof_C 	C 	0.4844	0.1981	0.1425	0.115
Mof_C 	C 	0.3749	0.2678	0.202	-0.193
Mof_C 	C 	0.4565	0.2628	0.281	0.072
Mof_C 	C 	0.6426	0.1875	0.2962	-0.171
Mof_C 	C 	0.7414	0.1197	0.2335	0.089
Mof_C 	C 	0.3346	0.3326	0.3454	0.07
Mof_C 	C 	0.4844	0.6981	0.3575	0.115
Mof_C 	C 	0.3749	0.7678	0.298	-0.193
Mof_C 	C 	0.4565	0.7628	0.219	0.072
Mof_C 	C 	0.6426	0.6875	0.2038	-0.172
Mof_C 	C 	0.7414	0.6197	0.2665	0.089
Mof_C 	C 	0.3346	0.8326	0.1546	0.07
Mof_C 	C 	0.5156	0.8019	0.8575	0.115
Mof_C 	C 	0.6251	0.7322	0.798	-0.193
Mof_C 	C 	0.5435	0.7372	0.719	0.072
Mof_C 	C 	0.3574	0.8125	0.7038	-0.171
Mof_C 	C 	0.2586	0.8803	0.7665	0.089
Mof_C 	C 	0.6654	0.6674	0.6546	0.07
Mof_N 	N 	0.3352	0.3762	0.6565	-0.246
Mof_N 	N 	0.5735	0.1251	0.91665	-0.194
Mof_N 	N 	0.7517	0.0713	0.95581	-0.192
Mof_N 	N 	0.9395	0.0829	0.9083	-0.181
Mof_N 	N 	0.8887	0.1411	0.8383	-0.103
Mof_N 	N 	0.6648	0.1238	0.1565	-0.246
Mof_N 	N 	0.4265	0.3749	0.41665	-0.194
Mof_N 	N 	0.2483	0.4287	0.45581	-0.193
Mof_N 	N 	0.0605	0.4171	0.4083	-0.182
Mof_N 	N 	0.1113	0.3589	0.3383	-0.104
Mof_N 	N 	0.6648	0.6238	0.3435	-0.246
Mof_N 	N 	0.4265	0.8749	0.08335	-0.194
Mof_N 	N 	0.2483	0.9287	0.04419	-0.192
Mof_N 	N 	0.0605	0.9171	0.0917	-0.181
Mof_N 	N 	0.1113	0.8589	0.1617	-0.103
Mof_N 	N 	0.3352	0.8762	0.8435	-0.246
Mof_N 	N 	0.5735	0.6251	0.58335	-0.194
Mof_N 	N 	0.7517	0.5713	0.54419	-0.193
Mof_N 	N 	0.9395	0.5829	0.5917	-0.182
Mof_N 	N 	0.8887	0.6411	0.6617	-0.104
_end
