# CIF file generated by openbabel 3.1.0, see https://openbabel.org
data_I
_chemical_name_common 'image0'
_cell_length_a 6.886
_cell_length_b 6.886
_cell_length_c 8.3
_cell_angle_alpha 90
_cell_angle_beta 90
_cell_angle_gamma 90
_space_group_name_H-M_alt 'P 1'
_space_group_name_Hall 'P 1'
loop_
    _symmetry_equiv_pos_as_xyz
    x,y,z
loop_
    _atom_site_label
    _atom_site_type_symbol
    _atom_site_fract_x
    _atom_site_fract_y
    _atom_site_fract_z
    _atom_site_occupancy
    C1       C        0.44050    0.10000    0.37240    1.000
    C2       C        0.55950    0.90000    0.37240    1.000
    C3       C        0.90000    0.44050    0.37240    1.000
    C4       C        0.10000    0.55950    0.37240    1.000
    C5       C        0.55950    0.10000    0.62760    1.000
    C6       C        0.44050    0.90000    0.62760    1.000
    C7       C        0.10000    0.44050    0.62760    1.000
    C8       C        0.90000    0.55950    0.62760    1.000
    C9       C        0.55950    0.90000    0.62760    1.000
    C10      C        0.44050    0.10000    0.62760    1.000
    C11      C        0.10000    0.55950    0.62760    1.000
    C12      C        0.90000    0.44050    0.62760    1.000
    C13      C        0.44050    0.90000    0.37240    1.000
    C14      C        0.55950    0.10000    0.37240    1.000
    C15      C        0.90000    0.55950    0.37240    1.000
    C16      C        0.10000    0.44050    0.37240    1.000
    Cu1      Cu       0.50000    0.50000    0.50000    1.000
    N1       N        0.50000    0.20060    0.50000    1.000
    N2       N        0.50000    0.79940    0.50000    1.000
    N3       N        0.79940    0.50000    0.50000    1.000
    N4       N        0.20060    0.50000    0.50000    1.000
    W1       W        0.50000    0.50000    0.00000    1.000
    F1       F        0.50000    0.50000    0.22960    1.000
    F2       F        0.50000    0.50000    0.77040    1.000
    F3       F        0.41810    0.24110    0.00000    1.000
    F4       F        0.58190    0.75890    0.00000    1.000
    F5       F        0.75890    0.41810    0.00000    1.000
    F6       F        0.24110    0.58190    0.00000    1.000
    F7       F        0.58190    0.24110    0.00000    1.000
    F8       F        0.41810    0.75890    0.00000    1.000
    F9       F        0.24110    0.41810    0.00000    1.000
    F10      F        0.75890    0.58190    0.00000    1.000
