# CIF file generated by openbabel 3.1.0, see https://openbabel.org
data_I
_chemical_name_common 'image0'
_cell_length_a 11.3504
_cell_length_b 12.1923
_cell_length_c 16.1827
_cell_angle_alpha 90
_cell_angle_beta 130.491
_cell_angle_gamma 90
_space_group_name_H-M_alt 'P 1'
_space_group_name_Hall 'P 1'
loop_
    _symmetry_equiv_pos_as_xyz
    x,y,z
loop_
    _atom_site_label
    _atom_site_type_symbol
    _atom_site_fract_x
    _atom_site_fract_y
    _atom_site_fract_z
    _atom_site_occupancy
    C1       C        0.35730    0.88480    0.73190    1.000
    C2       C        0.20490    0.91830    0.67216    1.000
    H1       H        0.16700    0.97740    0.62460    1.000
    C3       C        0.10950    0.86350    0.68357    1.000
    C4       C        0.94590    0.90040    0.62210    1.000
    C5       C        0.16620    0.77447    0.75328    1.000
    H2       H        0.10180    0.73710    0.76050    1.000
    C6       C        0.31880    0.74081    0.81243    1.000
    C7       C        0.41510    0.79687    0.80191    1.000
    H3       H        0.51760    0.77520    0.84180    1.000
    C8       C        0.38060    0.64504    0.88781    1.000
    O1       O        0.42500    0.92375    0.61079    1.000
    O2       O        0.44520    0.07275    0.71610    1.000
    O3       O        0.63290    0.92590    0.80352    1.000
    O4       O        0.89570    0.98010    0.55870    1.000
    O5       O        0.86240    0.85462    0.63410    1.000
    O6       O        0.52377    0.63850    0.96179    1.000
    O7       O        0.28290    0.57827    0.87185    1.000
    S1       S        0.47655    0.95931    0.71644    1.000
    Zn1      Zn       0.32070    0.02369    0.48117    1.000
    C9       C        0.64270    0.38480    0.76810    1.000
    C10      C        0.79510    0.41830    0.82784    1.000
    H4       H        0.83300    0.47740    0.87540    1.000
    C11      C        0.89050    0.36350    0.81643    1.000
    C12      C        0.05410    0.40040    0.87790    1.000
    C13      C        0.83380    0.27447    0.74672    1.000
    H5       H        0.89820    0.23710    0.73950    1.000
    C14      C        0.68120    0.24081    0.68757    1.000
    C15      C        0.58490    0.29687    0.69809    1.000
    H6       H        0.48240    0.27520    0.65820    1.000
    C16      C        0.61940    0.14504    0.61219    1.000
    O8       O        0.57500    0.42375    0.88921    1.000
    O9       O        0.55480    0.57275    0.78390    1.000
    O10      O        0.36710    0.42590    0.69648    1.000
    O11      O        0.10430    0.48010    0.94130    1.000
    O12      O        0.13760    0.35462    0.86590    1.000
    O13      O        0.47623    0.13850    0.53821    1.000
    O14      O        0.71710    0.07827    0.62815    1.000
    S2       S        0.52345    0.45931    0.78356    1.000
    Zn2      Zn       0.67930    0.52369    0.01883    1.000
    C17      C        0.64270    0.11520    0.26810    1.000
    C18      C        0.79510    0.08170    0.32784    1.000
    H7       H        0.83300    0.02260    0.37540    1.000
    C19      C        0.89050    0.13650    0.31643    1.000
    C20      C        0.05410    0.09960    0.37790    1.000
    C21      C        0.83380    0.22553    0.24672    1.000
    H8       H        0.89820    0.26290    0.23950    1.000
    C22      C        0.68120    0.25919    0.18757    1.000
    C23      C        0.58490    0.20313    0.19809    1.000
    H9       H        0.48240    0.22480    0.15820    1.000
    C24      C        0.61940    0.35496    0.11219    1.000
    O15      O        0.57500    0.07625    0.38921    1.000
    O16      O        0.55480    0.92725    0.28390    1.000
    O17      O        0.36710    0.07410    0.19648    1.000
    O18      O        0.10430    0.01990    0.44130    1.000
    O19      O        0.13760    0.14538    0.36590    1.000
    O20      O        0.47623    0.36150    0.03821    1.000
    O21      O        0.71710    0.42173    0.12815    1.000
    S3       S        0.52345    0.04069    0.28356    1.000
    Zn3      Zn       0.67930    0.97631    0.51883    1.000
    C25      C        0.35730    0.61520    0.23190    1.000
    C26      C        0.20490    0.58170    0.17216    1.000
    H10      H        0.16700    0.52260    0.12460    1.000
    C27      C        0.10950    0.63650    0.18357    1.000
    C28      C        0.94590    0.59960    0.12210    1.000
    C29      C        0.16620    0.72553    0.25328    1.000
    H11      H        0.10180    0.76290    0.26050    1.000
    C30      C        0.31880    0.75919    0.31243    1.000
    C31      C        0.41510    0.70313    0.30191    1.000
    H12      H        0.51760    0.72480    0.34180    1.000
    C32      C        0.38060    0.85496    0.38781    1.000
    O22      O        0.42500    0.57625    0.11079    1.000
    O23      O        0.44520    0.42725    0.21610    1.000
    O24      O        0.63290    0.57410    0.30352    1.000
    O25      O        0.89570    0.51990    0.05870    1.000
    O26      O        0.86240    0.64538    0.13410    1.000
    O27      O        0.52377    0.86150    0.46179    1.000
    O28      O        0.28290    0.92173    0.37185    1.000
    S4       S        0.47655    0.54069    0.21644    1.000
    Zn4      Zn       0.32070    0.47631    0.98117    1.000
