# CIF file generated by openbabel 3.1.0, see https://openbabel.org
data_I
_chemical_name_common 'image0'
_cell_length_a 3.4099
_cell_length_b 39.805
_cell_length_c 43.607
_cell_angle_alpha 90
_cell_angle_beta 90
_cell_angle_gamma 90
_space_group_name_H-M_alt 'P 1'
_space_group_name_Hall 'P 1'
loop_
    _symmetry_equiv_pos_as_xyz
    x,y,z
loop_
    _atom_site_label
    _atom_site_type_symbol
    _atom_site_fract_x
    _atom_site_fract_y
    _atom_site_fract_z
    _atom_site_occupancy
    C1       C        0.79700    0.56400    0.03330    1.000
    C2       C        0.79400    0.52320    0.06410    1.000
    N1       N        0.92800    0.54935    0.07961    1.000
    N2       N        0.93400    0.57599    0.05935    1.000
    N3       N        0.71200    0.53110    0.03480    1.000
    N4       N        0.76500    0.49040    0.07680    1.000
    H1       H        0.69320    0.47300    0.06490    1.000
    H2       H        0.82250    0.48710    0.09680    1.000
    N5       N        0.77900    0.58490    0.00590    1.000
    H3       H        0.70400    0.57580    0.98790    1.000
    H4       H        0.84150    0.60690    0.00690    1.000
    H5       H        0.76160    0.57730    0.01520    1.000
    H6       H        0.75530    0.50130    0.07270    1.000
    C3       C        0.79700    0.06400    0.53330    1.000
    C4       C        0.79400    0.02320    0.56410    1.000
    N6       N        0.92800    0.04935    0.57961    1.000
    N7       N        0.93400    0.07599    0.55935    1.000
    N8       N        0.71200    0.03110    0.53480    1.000
    N9       N        0.76500    0.99040    0.57680    1.000
    H7       H        0.69320    0.97300    0.56490    1.000
    H8       H        0.82250    0.98710    0.59680    1.000
    N10      N        0.77900    0.08490    0.50590    1.000
    H9       H        0.70400    0.07580    0.48790    1.000
    H10      H        0.84150    0.10690    0.50690    1.000
    H11      H        0.76160    0.07730    0.51520    1.000
    H12      H        0.75530    0.00130    0.57270    1.000
    C5       C        0.29700    0.56400    0.53330    1.000
    C6       C        0.29400    0.52320    0.56410    1.000
    N11      N        0.42800    0.54935    0.57961    1.000
    N12      N        0.43400    0.57599    0.55935    1.000
    N13      N        0.21200    0.53110    0.53480    1.000
    N14      N        0.26500    0.49040    0.57680    1.000
    H13      H        0.19320    0.47300    0.56490    1.000
    H14      H        0.32250    0.48710    0.59680    1.000
    N15      N        0.27900    0.58490    0.50590    1.000
    H15      H        0.20400    0.57580    0.48790    1.000
    H16      H        0.34150    0.60690    0.50690    1.000
    H17      H        0.26160    0.57730    0.51520    1.000
    H18      H        0.25530    0.50130    0.57270    1.000
    C7       C        0.29700    0.06400    0.03330    1.000
    C8       C        0.29400    0.02320    0.06410    1.000
    N16      N        0.42800    0.04935    0.07961    1.000
    N17      N        0.43400    0.07599    0.05935    1.000
    N18      N        0.21200    0.03110    0.03480    1.000
    N19      N        0.26500    0.99040    0.07680    1.000
    H19      H        0.19320    0.97300    0.06490    1.000
    H20      H        0.32250    0.98710    0.09680    1.000
    N20      N        0.27900    0.08490    0.00590    1.000
    H21      H        0.20400    0.07580    0.98790    1.000
    H22      H        0.34150    0.10690    0.00690    1.000
    H23      H        0.26160    0.07730    0.01520    1.000
    H24      H        0.25530    0.00130    0.07270    1.000
    C9       C        0.95300    0.18600    0.03330    1.000
    C10      C        0.95600    0.22680    0.06410    1.000
    N21      N        0.82200    0.20065    0.07961    1.000
    N22      N        0.81600    0.17401    0.05935    1.000
    N23      N        0.03800    0.21890    0.03480    1.000
    N24      N        0.98500    0.25960    0.07680    1.000
    H25      H        0.05680    0.27700    0.06490    1.000
    H26      H        0.92750    0.26290    0.09680    1.000
    N25      N        0.97100    0.16510    0.00590    1.000
    H27      H        0.04600    0.17420    0.98790    1.000
    H28      H        0.90850    0.14310    0.00690    1.000
    H29      H        0.98840    0.17270    0.01520    1.000
    H30      H        0.99470    0.24870    0.07270    1.000
    C11      C        0.95300    0.68600    0.53330    1.000
    C12      C        0.95600    0.72680    0.56410    1.000
    N26      N        0.82200    0.70065    0.57961    1.000
    N27      N        0.81600    0.67401    0.55935    1.000
    N28      N        0.03800    0.71890    0.53480    1.000
    N29      N        0.98500    0.75960    0.57680    1.000
    H31      H        0.05680    0.77700    0.56490    1.000
    H32      H        0.92750    0.76290    0.59680    1.000
    N30      N        0.97100    0.66510    0.50590    1.000
    H33      H        0.04600    0.67420    0.48790    1.000
    H34      H        0.90850    0.64310    0.50690    1.000
    H35      H        0.98840    0.67270    0.51520    1.000
    H36      H        0.99470    0.74870    0.57270    1.000
    C13      C        0.45300    0.18600    0.53330    1.000
    C14      C        0.45600    0.22680    0.56410    1.000
    N31      N        0.32200    0.20065    0.57961    1.000
    N32      N        0.31600    0.17401    0.55935    1.000
    N33      N        0.53800    0.21890    0.53480    1.000
    N34      N        0.48500    0.25960    0.57680    1.000
    H37      H        0.55680    0.27700    0.56490    1.000
    H38      H        0.42750    0.26290    0.59680    1.000
    N35      N        0.47100    0.16510    0.50590    1.000
    H39      H        0.54600    0.17420    0.48790    1.000
    H40      H        0.40850    0.14310    0.50690    1.000
    H41      H        0.48840    0.17270    0.51520    1.000
    H42      H        0.49470    0.24870    0.57270    1.000
    C15      C        0.45300    0.68600    0.03330    1.000
    C16      C        0.45600    0.72680    0.06410    1.000
    N36      N        0.32200    0.70065    0.07961    1.000
    N37      N        0.31600    0.67401    0.05935    1.000
    N38      N        0.53800    0.71890    0.03480    1.000
    N39      N        0.48500    0.75960    0.07680    1.000
    H43      H        0.55680    0.77700    0.06490    1.000
    H44      H        0.42750    0.76290    0.09680    1.000
    N40      N        0.47100    0.66510    0.00590    1.000
    H45      H        0.54600    0.67420    0.98790    1.000
    H46      H        0.40850    0.64310    0.00690    1.000
    H47      H        0.48840    0.67270    0.01520    1.000
    H48      H        0.49470    0.74870    0.07270    1.000
    C17      C        0.95300    0.56400    0.71670    1.000
    C18      C        0.95600    0.52320    0.68590    1.000
    N41      N        0.82200    0.54935    0.67039    1.000
    N42      N        0.81600    0.57599    0.69065    1.000
    N43      N        0.03800    0.53110    0.71520    1.000
    N44      N        0.98500    0.49040    0.67320    1.000
    H49      H        0.05680    0.47300    0.68510    1.000
    H50      H        0.92750    0.48710    0.65320    1.000
    N45      N        0.97100    0.58490    0.74410    1.000
    H51      H        0.04600    0.57580    0.76210    1.000
    H52      H        0.90850    0.60690    0.74310    1.000
    H53      H        0.98840    0.57730    0.73480    1.000
    H54      H        0.99470    0.50130    0.67730    1.000
    C19      C        0.95300    0.06400    0.21670    1.000
    C20      C        0.95600    0.02320    0.18590    1.000
    N46      N        0.82200    0.04935    0.17039    1.000
    N47      N        0.81600    0.07599    0.19065    1.000
    N48      N        0.03800    0.03110    0.21520    1.000
    N49      N        0.98500    0.99040    0.17320    1.000
    H55      H        0.05680    0.97300    0.18510    1.000
    H56      H        0.92750    0.98710    0.15320    1.000
    N50      N        0.97100    0.08490    0.24410    1.000
    H57      H        0.04600    0.07580    0.26210    1.000
    H58      H        0.90850    0.10690    0.24310    1.000
    H59      H        0.98840    0.07730    0.23480    1.000
    H60      H        0.99470    0.00130    0.17730    1.000
    C21      C        0.45300    0.56400    0.21670    1.000
    C22      C        0.45600    0.52320    0.18590    1.000
    N51      N        0.32200    0.54935    0.17039    1.000
    N52      N        0.31600    0.57599    0.19065    1.000
    N53      N        0.53800    0.53110    0.21520    1.000
    N54      N        0.48500    0.49040    0.17320    1.000
    H61      H        0.55680    0.47300    0.18510    1.000
    H62      H        0.42750    0.48710    0.15320    1.000
    N55      N        0.47100    0.58490    0.24410    1.000
    H63      H        0.54600    0.57580    0.26210    1.000
    H64      H        0.40850    0.60690    0.24310    1.000
    H65      H        0.48840    0.57730    0.23480    1.000
    H66      H        0.49470    0.50130    0.17730    1.000
    C23      C        0.45300    0.06400    0.71670    1.000
    C24      C        0.45600    0.02320    0.68590    1.000
    N56      N        0.32200    0.04935    0.67039    1.000
    N57      N        0.31600    0.07599    0.69065    1.000
    N58      N        0.53800    0.03110    0.71520    1.000
    N59      N        0.48500    0.99040    0.67320    1.000
    H67      H        0.55680    0.97300    0.68510    1.000
    H68      H        0.42750    0.98710    0.65320    1.000
    N60      N        0.47100    0.08490    0.74410    1.000
    H69      H        0.54600    0.07580    0.76210    1.000
    H70      H        0.40850    0.10690    0.74310    1.000
    H71      H        0.48840    0.07730    0.73480    1.000
    H72      H        0.49470    0.00130    0.67730    1.000
    C25      C        0.79700    0.18600    0.71670    1.000
    C26      C        0.79400    0.22680    0.68590    1.000
    N61      N        0.92800    0.20065    0.67039    1.000
    N62      N        0.93400    0.17401    0.69065    1.000
    N63      N        0.71200    0.21890    0.71520    1.000
    N64      N        0.76500    0.25960    0.67320    1.000
    H73      H        0.69320    0.27700    0.68510    1.000
    H74      H        0.82250    0.26290    0.65320    1.000
    N65      N        0.77900    0.16510    0.74410    1.000
    H75      H        0.70400    0.17420    0.76210    1.000
    H76      H        0.84150    0.14310    0.74310    1.000
    H77      H        0.76160    0.17270    0.73480    1.000
    H78      H        0.75530    0.24870    0.67730    1.000
    C27      C        0.79700    0.68600    0.21670    1.000
    C28      C        0.79400    0.72680    0.18590    1.000
    N66      N        0.92800    0.70065    0.17039    1.000
    N67      N        0.93400    0.67401    0.19065    1.000
    N68      N        0.71200    0.71890    0.21520    1.000
    N69      N        0.76500    0.75960    0.17320    1.000
    H79      H        0.69320    0.77700    0.18510    1.000
    H80      H        0.82250    0.76290    0.15320    1.000
    N70      N        0.77900    0.66510    0.24410    1.000
    H81      H        0.70400    0.67420    0.26210    1.000
    H82      H        0.84150    0.64310    0.24310    1.000
    H83      H        0.76160    0.67270    0.23480    1.000
    H84      H        0.75530    0.74870    0.17730    1.000
    C29      C        0.29700    0.18600    0.21670    1.000
    C30      C        0.29400    0.22680    0.18590    1.000
    N71      N        0.42800    0.20065    0.17039    1.000
    N72      N        0.43400    0.17401    0.19065    1.000
    N73      N        0.21200    0.21890    0.21520    1.000
    N74      N        0.26500    0.25960    0.17320    1.000
    H85      H        0.19320    0.27700    0.18510    1.000
    H86      H        0.32250    0.26290    0.15320    1.000
    N75      N        0.27900    0.16510    0.24410    1.000
    H87      H        0.20400    0.17420    0.26210    1.000
    H88      H        0.34150    0.14310    0.24310    1.000
    H89      H        0.26160    0.17270    0.23480    1.000
    H90      H        0.25530    0.24870    0.17730    1.000
    C31      C        0.29700    0.68600    0.71670    1.000
    C32      C        0.29400    0.72680    0.68590    1.000
    N76      N        0.42800    0.70065    0.67039    1.000
    N77      N        0.43400    0.67401    0.69065    1.000
    N78      N        0.21200    0.71890    0.71520    1.000
    N79      N        0.26500    0.75960    0.67320    1.000
    H91      H        0.19320    0.77700    0.68510    1.000
    H92      H        0.32250    0.76290    0.65320    1.000
    N80      N        0.27900    0.66510    0.74410    1.000
    H93      H        0.20400    0.67420    0.76210    1.000
    H94      H        0.34150    0.64310    0.74310    1.000
    H95      H        0.26160    0.67270    0.73480    1.000
    H96      H        0.25530    0.74870    0.67730    1.000
    C33      C        0.20300    0.43600    0.96670    1.000
    C34      C        0.20600    0.47680    0.93590    1.000
    N81      N        0.07200    0.45065    0.92039    1.000
    N82      N        0.06600    0.42401    0.94065    1.000
    N83      N        0.28800    0.46890    0.96520    1.000
    N84      N        0.23500    0.50960    0.92320    1.000
    H97      H        0.30680    0.52700    0.93510    1.000
    H98      H        0.17750    0.51290    0.90320    1.000
    N85      N        0.22100    0.41510    0.99410    1.000
    H99      H        0.29600    0.42420    0.01210    1.000
    H100     H        0.15850    0.39310    0.99310    1.000
    H101     H        0.23840    0.42270    0.98480    1.000
    H102     H        0.24470    0.49870    0.92730    1.000
    C35      C        0.20300    0.93600    0.46670    1.000
    C36      C        0.20600    0.97680    0.43590    1.000
    N86      N        0.07200    0.95065    0.42039    1.000
    N87      N        0.06600    0.92401    0.44065    1.000
    N88      N        0.28800    0.96890    0.46520    1.000
    N89      N        0.23500    0.00960    0.42320    1.000
    H103     H        0.30680    0.02700    0.43510    1.000
    H104     H        0.17750    0.01290    0.40320    1.000
    N90      N        0.22100    0.91510    0.49410    1.000
    H105     H        0.29600    0.92420    0.51210    1.000
    H106     H        0.15850    0.89310    0.49310    1.000
    H107     H        0.23840    0.92270    0.48480    1.000
    H108     H        0.24470    0.99870    0.42730    1.000
    C37      C        0.70300    0.43600    0.46670    1.000
    C38      C        0.70600    0.47680    0.43590    1.000
    N91      N        0.57200    0.45065    0.42039    1.000
    N92      N        0.56600    0.42401    0.44065    1.000
    N93      N        0.78800    0.46890    0.46520    1.000
    N94      N        0.73500    0.50960    0.42320    1.000
    H109     H        0.80680    0.52700    0.43510    1.000
    H110     H        0.67750    0.51290    0.40320    1.000
    N95      N        0.72100    0.41510    0.49410    1.000
    H111     H        0.79600    0.42420    0.51210    1.000
    H112     H        0.65850    0.39310    0.49310    1.000
    H113     H        0.73840    0.42270    0.48480    1.000
    H114     H        0.74470    0.49870    0.42730    1.000
    C39      C        0.70300    0.93600    0.96670    1.000
    C40      C        0.70600    0.97680    0.93590    1.000
    N96      N        0.57200    0.95065    0.92039    1.000
    N97      N        0.56600    0.92401    0.94065    1.000
    N98      N        0.78800    0.96890    0.96520    1.000
    N99      N        0.73500    0.00960    0.92320    1.000
    H115     H        0.80680    0.02700    0.93510    1.000
    H116     H        0.67750    0.01290    0.90320    1.000
    N100     N        0.72100    0.91510    0.99410    1.000
    H117     H        0.79600    0.92420    0.01210    1.000
    H118     H        0.65850    0.89310    0.99310    1.000
    H119     H        0.73840    0.92270    0.98480    1.000
    H120     H        0.74470    0.99870    0.92730    1.000
    C41      C        0.04700    0.81400    0.96670    1.000
    C42      C        0.04400    0.77320    0.93590    1.000
    N101     N        0.17800    0.79935    0.92039    1.000
    N102     N        0.18400    0.82599    0.94065    1.000
    N103     N        0.96200    0.78110    0.96520    1.000
    N104     N        0.01500    0.74040    0.92320    1.000
    H121     H        0.94320    0.72300    0.93510    1.000
    H122     H        0.07250    0.73710    0.90320    1.000
    N105     N        0.02900    0.83490    0.99410    1.000
    H123     H        0.95400    0.82580    0.01210    1.000
    H124     H        0.09150    0.85690    0.99310    1.000
    H125     H        0.01160    0.82730    0.98480    1.000
    H126     H        0.00530    0.75130    0.92730    1.000
    C43      C        0.04700    0.31400    0.46670    1.000
    C44      C        0.04400    0.27320    0.43590    1.000
    N106     N        0.17800    0.29935    0.42039    1.000
    N107     N        0.18400    0.32599    0.44065    1.000
    N108     N        0.96200    0.28110    0.46520    1.000
    N109     N        0.01500    0.24040    0.42320    1.000
    H127     H        0.94320    0.22300    0.43510    1.000
    H128     H        0.07250    0.23710    0.40320    1.000
    N110     N        0.02900    0.33490    0.49410    1.000
    H129     H        0.95400    0.32580    0.51210    1.000
    H130     H        0.09150    0.35690    0.49310    1.000
    H131     H        0.01160    0.32730    0.48480    1.000
    H132     H        0.00530    0.25130    0.42730    1.000
    C45      C        0.54700    0.81400    0.46670    1.000
    C46      C        0.54400    0.77320    0.43590    1.000
    N111     N        0.67800    0.79935    0.42039    1.000
    N112     N        0.68400    0.82599    0.44065    1.000
    N113     N        0.46200    0.78110    0.46520    1.000
    N114     N        0.51500    0.74040    0.42320    1.000
    H133     H        0.44320    0.72300    0.43510    1.000
    H134     H        0.57250    0.73710    0.40320    1.000
    N115     N        0.52900    0.83490    0.49410    1.000
    H135     H        0.45400    0.82580    0.51210    1.000
    H136     H        0.59150    0.85690    0.49310    1.000
    H137     H        0.51160    0.82730    0.48480    1.000
    H138     H        0.50530    0.75130    0.42730    1.000
    C47      C        0.54700    0.31400    0.96670    1.000
    C48      C        0.54400    0.27320    0.93590    1.000
    N116     N        0.67800    0.29935    0.92039    1.000
    N117     N        0.68400    0.32599    0.94065    1.000
    N118     N        0.46200    0.28110    0.96520    1.000
    N119     N        0.51500    0.24040    0.92320    1.000
    H139     H        0.44320    0.22300    0.93510    1.000
    H140     H        0.57250    0.23710    0.90320    1.000
    N120     N        0.52900    0.33490    0.99410    1.000
    H141     H        0.45400    0.32580    0.01210    1.000
    H142     H        0.59150    0.35690    0.99310    1.000
    H143     H        0.51160    0.32730    0.98480    1.000
    H144     H        0.50530    0.25130    0.92730    1.000
    C49      C        0.04700    0.43600    0.28330    1.000
    C50      C        0.04400    0.47680    0.31410    1.000
    N121     N        0.17800    0.45065    0.32961    1.000
    N122     N        0.18400    0.42401    0.30935    1.000
    N123     N        0.96200    0.46890    0.28480    1.000
    N124     N        0.01500    0.50960    0.32680    1.000
    H145     H        0.94320    0.52700    0.31490    1.000
    H146     H        0.07250    0.51290    0.34680    1.000
    N125     N        0.02900    0.41510    0.25590    1.000
    H147     H        0.95400    0.42420    0.23790    1.000
    H148     H        0.09150    0.39310    0.25690    1.000
    H149     H        0.01160    0.42270    0.26520    1.000
    H150     H        0.00530    0.49870    0.32270    1.000
    C51      C        0.04700    0.93600    0.78330    1.000
    C52      C        0.04400    0.97680    0.81410    1.000
    N126     N        0.17800    0.95065    0.82961    1.000
    N127     N        0.18400    0.92401    0.80935    1.000
    N128     N        0.96200    0.96890    0.78480    1.000
    N129     N        0.01500    0.00960    0.82680    1.000
    H151     H        0.94320    0.02700    0.81490    1.000
    H152     H        0.07250    0.01290    0.84680    1.000
    N130     N        0.02900    0.91510    0.75590    1.000
    H153     H        0.95400    0.92420    0.73790    1.000
    H154     H        0.09150    0.89310    0.75690    1.000
    H155     H        0.01160    0.92270    0.76520    1.000
    H156     H        0.00530    0.99870    0.82270    1.000
    C53      C        0.54700    0.43600    0.78330    1.000
    C54      C        0.54400    0.47680    0.81410    1.000
    N131     N        0.67800    0.45065    0.82961    1.000
    N132     N        0.68400    0.42401    0.80935    1.000
    N133     N        0.46200    0.46890    0.78480    1.000
    N134     N        0.51500    0.50960    0.82680    1.000
    H157     H        0.44320    0.52700    0.81490    1.000
    H158     H        0.57250    0.51290    0.84680    1.000
    N135     N        0.52900    0.41510    0.75590    1.000
    H159     H        0.45400    0.42420    0.73790    1.000
    H160     H        0.59150    0.39310    0.75690    1.000
    H161     H        0.51160    0.42270    0.76520    1.000
    H162     H        0.50530    0.49870    0.82270    1.000
    C55      C        0.54700    0.93600    0.28330    1.000
    C56      C        0.54400    0.97680    0.31410    1.000
    N136     N        0.67800    0.95065    0.32961    1.000
    N137     N        0.68400    0.92401    0.30935    1.000
    N138     N        0.46200    0.96890    0.28480    1.000
    N139     N        0.51500    0.00960    0.32680    1.000
    H163     H        0.44320    0.02700    0.31490    1.000
    H164     H        0.57250    0.01290    0.34680    1.000
    N140     N        0.52900    0.91510    0.25590    1.000
    H165     H        0.45400    0.92420    0.23790    1.000
    H166     H        0.59150    0.89310    0.25690    1.000
    H167     H        0.51160    0.92270    0.26520    1.000
    H168     H        0.50530    0.99870    0.32270    1.000
    C57      C        0.20300    0.81400    0.28330    1.000
    C58      C        0.20600    0.77320    0.31410    1.000
    N141     N        0.07200    0.79935    0.32961    1.000
    N142     N        0.06600    0.82599    0.30935    1.000
    N143     N        0.28800    0.78110    0.28480    1.000
    N144     N        0.23500    0.74040    0.32680    1.000
    H169     H        0.30680    0.72300    0.31490    1.000
    H170     H        0.17750    0.73710    0.34680    1.000
    N145     N        0.22100    0.83490    0.25590    1.000
    H171     H        0.29600    0.82580    0.23790    1.000
    H172     H        0.15850    0.85690    0.25690    1.000
    H173     H        0.23840    0.82730    0.26520    1.000
    H174     H        0.24470    0.75130    0.32270    1.000
    C59      C        0.20300    0.31400    0.78330    1.000
    C60      C        0.20600    0.27320    0.81410    1.000
    N146     N        0.07200    0.29935    0.82961    1.000
    N147     N        0.06600    0.32599    0.80935    1.000
    N148     N        0.28800    0.28110    0.78480    1.000
    N149     N        0.23500    0.24040    0.82680    1.000
    H175     H        0.30680    0.22300    0.81490    1.000
    H176     H        0.17750    0.23710    0.84680    1.000
    N150     N        0.22100    0.33490    0.75590    1.000
    H177     H        0.29600    0.32580    0.73790    1.000
    H178     H        0.15850    0.35690    0.75690    1.000
    H179     H        0.23840    0.32730    0.76520    1.000
    H180     H        0.24470    0.25130    0.82270    1.000
    C61      C        0.70300    0.81400    0.78330    1.000
    C62      C        0.70600    0.77320    0.81410    1.000
    N151     N        0.57200    0.79935    0.82961    1.000
    N152     N        0.56600    0.82599    0.80935    1.000
    N153     N        0.78800    0.78110    0.78480    1.000
    N154     N        0.73500    0.74040    0.82680    1.000
    H181     H        0.80680    0.72300    0.81490    1.000
    H182     H        0.67750    0.73710    0.84680    1.000
    N155     N        0.72100    0.83490    0.75590    1.000
    H183     H        0.79600    0.82580    0.73790    1.000
    H184     H        0.65850    0.85690    0.75690    1.000
    H185     H        0.73840    0.82730    0.76520    1.000
    H186     H        0.74470    0.75130    0.82270    1.000
    C63      C        0.70300    0.31400    0.28330    1.000
    C64      C        0.70600    0.27320    0.31410    1.000
    N156     N        0.57200    0.29935    0.32961    1.000
    N157     N        0.56600    0.32599    0.30935    1.000
    N158     N        0.78800    0.28110    0.28480    1.000
    N159     N        0.73500    0.24040    0.32680    1.000
    H187     H        0.80680    0.22300    0.31490    1.000
    H188     H        0.67750    0.23710    0.34680    1.000
    N160     N        0.72100    0.33490    0.25590    1.000
    H189     H        0.79600    0.32580    0.23790    1.000
    H190     H        0.65850    0.35690    0.25690    1.000
    H191     H        0.73840    0.32730    0.26520    1.000
    H192     H        0.74470    0.25130    0.32270    1.000
    Ag1      Ag       0.12500    0.55574    0.12500    1.000
    Ag2      Ag       0.12500    0.05574    0.62500    1.000
    Ag3      Ag       0.62500    0.19426    0.12500    1.000
    Ag4      Ag       0.62500    0.69426    0.62500    1.000
    Ag5      Ag       0.62500    0.55574    0.62500    1.000
    Ag6      Ag       0.62500    0.05574    0.12500    1.000
    Ag7      Ag       0.12500    0.19426    0.62500    1.000
    Ag8      Ag       0.12500    0.69426    0.12500    1.000
    Ag9      Ag       0.87500    0.44426    0.87500    1.000
    Ag10     Ag       0.87500    0.94426    0.37500    1.000
    Ag11     Ag       0.37500    0.80574    0.87500    1.000
    Ag12     Ag       0.37500    0.30574    0.37500    1.000
    Ag13     Ag       0.37500    0.44426    0.37500    1.000
    Ag14     Ag       0.37500    0.94426    0.87500    1.000
    Ag15     Ag       0.87500    0.80574    0.37500    1.000
    Ag16     Ag       0.87500    0.30574    0.87500    1.000
    Ag17     Ag       0.12500    0.62500    0.07225    1.000
    Ag18     Ag       0.12500    0.12500    0.57225    1.000
    Ag19     Ag       0.62500    0.12500    0.07225    1.000
    Ag20     Ag       0.62500    0.62500    0.57225    1.000
    Ag21     Ag       0.62500    0.62500    0.67775    1.000
    Ag22     Ag       0.62500    0.12500    0.17775    1.000
    Ag23     Ag       0.12500    0.12500    0.67775    1.000
    Ag24     Ag       0.12500    0.62500    0.17775    1.000
    Ag25     Ag       0.87500    0.37500    0.92775    1.000
    Ag26     Ag       0.87500    0.87500    0.42775    1.000
    Ag27     Ag       0.37500    0.87500    0.92775    1.000
    Ag28     Ag       0.37500    0.37500    0.42775    1.000
    Ag29     Ag       0.37500    0.37500    0.32225    1.000
    Ag30     Ag       0.37500    0.87500    0.82225    1.000
    Ag31     Ag       0.87500    0.87500    0.32225    1.000
    Ag32     Ag       0.87500    0.37500    0.82225    1.000
    Ag33     Ag       0.50000    0.50000    0.00000    1.000
    Ag34     Ag       0.50000    0.00000    0.50000    1.000
    Ag35     Ag       0.00000    0.50000    0.50000    1.000
    Ag36     Ag       0.00000    0.00000    0.00000    1.000
    Ag37     Ag       0.25000    0.25000    0.00000    1.000
    Ag38     Ag       0.25000    0.75000    0.50000    1.000
    Ag39     Ag       0.25000    0.50000    0.75000    1.000
    Ag40     Ag       0.25000    0.00000    0.25000    1.000
    Ag41     Ag       0.50000    0.25000    0.75000    1.000
    Ag42     Ag       0.00000    0.25000    0.25000    1.000
    Ag43     Ag       0.75000    0.75000    0.00000    1.000
    Ag44     Ag       0.75000    0.25000    0.50000    1.000
    Ag45     Ag       0.75000    0.50000    0.25000    1.000
    Ag46     Ag       0.75000    0.00000    0.75000    1.000
    Ag47     Ag       0.50000    0.75000    0.25000    1.000
    Ag48     Ag       0.00000    0.75000    0.75000    1.000
