data_functionalizedCrystal
_audit_creation_method	'EQeq! by Chris Wilmer'
_symmetry_space_group_name_H-M	'P1'
_symmetry_Int_Tables_number	1
_symmetry_cell_setting	triclinic
loop_
_symmetry_equiv_pos_as_xyz
  x,y,z
_cell_length_a	4.7595
_cell_length_b	9.925
_cell_length_c	22.609
_cell_angle_alpha	90
_cell_angle_beta	91.81
_cell_angle_gamma	90
loop_
_atom_site_label
_atom_site_type_symbol
_atom_site_fract_x
_atom_site_fract_y
_atom_site_fract_z
_atom_site_charge
Mof_Cd	Cd	9.18664e-33	0	0.5	0.464
Mof_Cd	Cd	-0	0.5	-0	0.45
Mof_As	As	0.53337	0.86009	0.59476	0.469
Mof_As	As	0.46663	0.36009	0.90524	0.471
Mof_As	As	0.46663	0.13991	0.40524	0.462
Mof_As	As	0.53337	0.63991	0.09476	0.459
Mof_H 	H 	0.8878	0.0311	0.8645	0.133
Mof_H 	H 	0.1614	0.7483	0.5766	0.272
Mof_H 	H 	0.715	0.6438	0.9001	0.325
Mof_H 	H 	0.9267	0.7334	0.6783	0.021
Mof_H 	H 	0.0799	0.7651	0.7749	0.078
Mof_H 	H 	0.5556	0.0813	0.7878	0.126
Mof_H 	H 	0.4007	0.0477	0.6919	-0.017
Mof_H 	H 	0.2888	0.8477	0.8545	0.147
Mof_H 	H 	0.2245	0.9257	0.9126	0.155
Mof_H 	H 	0.1122	0.5311	0.6355	0.137
Mof_H 	H 	0.8386	0.2483	0.9234	0.292
Mof_H 	H 	0.285	0.1438	0.5999	0.327
Mof_H 	H 	0.0733	0.2334	0.8217	-0.013
Mof_H 	H 	0.9201	0.2651	0.7251	0.145
Mof_H 	H 	0.4444	0.5813	0.7122	0.117
Mof_H 	H 	0.5993	0.5477	0.8081	0.011
Mof_H 	H 	0.7112	0.3477	0.6455	0.139
Mof_H 	H 	0.7755	0.4257	0.5874	0.144
Mof_H 	H 	0.1122	0.9689	0.1355	0.143
Mof_H 	H 	0.8386	0.2517	0.4234	0.289
Mof_H 	H 	0.285	0.3562	0.0999	0.33
Mof_H 	H 	0.0733	0.2666	0.3217	-0.001
Mof_H 	H 	0.9201	0.2349	0.2251	0.135
Mof_H 	H 	0.4444	0.9187	0.2122	0.094
Mof_H 	H 	0.5993	0.9523	0.3081	0.047
Mof_H 	H 	0.7112	0.1523	0.1455	0.139
Mof_H 	H 	0.7755	0.0743	0.0874	0.137
Mof_H 	H 	0.8878	0.4689	0.3645	0.141
Mof_H 	H 	0.1614	0.7517	0.0766	0.27
Mof_H 	H 	0.715	0.8562	0.4001	0.328
Mof_H 	H 	0.9267	0.7666	0.1783	0.034
Mof_H 	H 	0.0799	0.7349	0.2749	0.068
Mof_H 	H 	0.5556	0.4187	0.2878	0.102
Mof_H 	H 	0.4007	0.4523	0.1919	0.019
Mof_H 	H 	0.2888	0.6523	0.3545	0.146
Mof_H 	H 	0.2245	0.5743	0.4126	0.147
Mof_C 	C 	0.6498	0.8882	0.67469	-0.146
Mof_C 	C 	0.8534	0.8036	0.70028	0.07
Mof_C 	C 	0.947	0.8235	0.75811	-0.14
Mof_C 	C 	0.8453	0.9301	0.79198	0.2
Mof_C 	C 	0.6331	0.0123	0.76583	-0.25
Mof_C 	C 	0.5392	0.9918	0.70837	0.141
Mof_C 	C 	0.1397	0.8734	0.88052	-0.297
Mof_C 	C 	0.0154	0.7463	0.9063	0.429
Mof_C 	C 	0.3502	0.3882	0.82531	-0.154
Mof_C 	C 	0.1466	0.3036	0.79972	0.116
Mof_C 	C 	0.053	0.3235	0.74189	-0.25
Mof_C 	C 	0.1547	0.4301	0.70802	0.207
Mof_C 	C 	0.3669	0.5123	0.73417	-0.215
Mof_C 	C 	0.4608	0.4918	0.79163	0.102
Mof_C 	C 	0.8603	0.3734	0.61948	-0.263
Mof_C 	C 	0.9846	0.2463	0.5937	0.472
Mof_C 	C 	0.3502	0.1118	0.32531	-0.122
Mof_C 	C 	0.1466	0.1964	0.29972	0.084
Mof_C 	C 	0.053	0.1765	0.24189	-0.218
Mof_C 	C 	0.1547	0.0699	0.20802	0.166
Mof_C 	C 	0.3669	0.9877	0.23417	-0.141
Mof_C 	C 	0.4608	0.0082	0.29163	0.023
Mof_C 	C 	0.8603	0.1266	0.11948	-0.263
Mof_C 	C 	0.9846	0.2537	0.0937	0.472
Mof_C 	C 	0.6498	0.6118	0.17469	-0.112
Mof_C 	C 	0.8534	0.6964	0.20028	0.037
Mof_C 	C 	0.947	0.6765	0.25811	-0.107
Mof_C 	C 	0.8453	0.5699	0.29198	0.158
Mof_C 	C 	0.6331	0.4877	0.26583	-0.172
Mof_C 	C 	0.5392	0.5082	0.20837	0.06
Mof_C 	C 	0.1397	0.6266	0.38052	-0.295
Mof_C 	C 	0.0154	0.7537	0.4063	0.428
Mof_N 	N 	0.9446	0.9585	0.84787	-0.147
Mof_N 	N 	0.0554	0.4585	0.65213	-0.183
Mof_N 	N 	0.0554	0.0415	0.15213	-0.184
Mof_N 	N 	0.9446	0.5415	0.34787	-0.15
Mof_O 	O 	0.8067	0.8226	0.55324	-0.246
Mof_O 	O 	0.3117	0.7214	0.5909	-0.432
Mof_O 	O 	0.352	0.9915	0.56782	-0.286
Mof_O 	O 	0.7628	0.7165	0.88644	-0.493
Mof_O 	O 	0.1515	0.6791	0.94235	-0.309
Mof_O 	O 	0.1933	0.3226	0.94676	-0.262
Mof_O 	O 	0.6883	0.2214	0.9091	-0.432
Mof_O 	O 	0.648	0.4915	0.93218	-0.275
Mof_O 	O 	0.2372	0.2165	0.61356	-0.536
Mof_O 	O 	0.8485	0.1791	0.55765	-0.321
Mof_O 	O 	0.1933	0.1774	0.44676	-0.271
Mof_O 	O 	0.6883	0.2786	0.4091	-0.431
Mof_O 	O 	0.648	0.0085	0.43218	-0.29
Mof_O 	O 	0.2372	0.2835	0.11356	-0.539
Mof_O 	O 	0.8485	0.3209	0.05765	-0.324
Mof_O 	O 	0.8067	0.6774	0.05324	-0.252
Mof_O 	O 	0.3117	0.7786	0.0909	-0.431
Mof_O 	O 	0.352	0.5085	0.06782	-0.297
Mof_O 	O 	0.7628	0.7835	0.38644	-0.495
Mof_O 	O 	0.1515	0.8209	0.44235	-0.316
_end
