# CIF file generated by openbabel 3.1.0, see https://openbabel.org
data_I
_chemical_name_common 'SAHYAD02_charged'
_cell_length_a 15.8545
_cell_length_b 15.8545
_cell_length_c 21.596
_cell_angle_alpha 90
_cell_angle_beta 90
_cell_angle_gamma 90
_space_group_name_H-M_alt 'P 1'
_space_group_name_Hall 'P 1'
loop_
    _symmetry_equiv_pos_as_xyz
    x,y,z
loop_
    _atom_site_label
    _atom_site_type_symbol
    _atom_site_fract_x
    _atom_site_fract_y
    _atom_site_fract_z
    _atom_site_occupancy
    Cd1      Cd       0.05898    0.94102    0.25000    1.000
    Cd2      Cd       0.94102    0.05898    0.75000    1.000
    Cd3      Cd       0.55898    0.55898    0.50000    1.000
    Cd4      Cd       0.44102    0.44102    0.00000    1.000
    H1       H        0.11040    0.96300    0.09770    1.000
    H2       H        0.21410    0.91390    0.03210    1.000
    H3       H        0.24030    0.71220    0.14510    1.000
    H4       H        0.14080    0.76980    0.20920    1.000
    H5       H        0.30020    0.85150    0.96870    1.000
    H6       H        0.41390    0.80120    0.91390    1.000
    H7       H        0.50720    0.70380    0.95800    1.000
    H8       H        0.35980    0.69700    0.11170    1.000
    H9       H        0.61910    0.45480    0.21000    1.000
    H10      H        0.73180    0.43480    0.27930    1.000
    H11      H        0.83590    0.53730    0.28800    1.000
    H12      H        0.72320    0.67490    0.15470    1.000
    H13      H        0.89900    0.65240    0.31470    1.000
    H14      H        0.99320    0.76220    0.32420    1.000
    H15      H        0.94050    0.84260    0.15690    1.000
    H16      H        0.84430    0.73500    0.14210    1.000
    H17      H        0.52880    0.75980    0.14320    1.000
    H18      H        0.58590    0.75950    0.09750    1.000
    H19      H        0.88960    0.03700    0.59770    1.000
    H20      H        0.78590    0.08610    0.53210    1.000
    H21      H        0.75970    0.28780    0.64510    1.000
    H22      H        0.85920    0.23020    0.70920    1.000
    H23      H        0.69980    0.14850    0.46870    1.000
    H24      H        0.58610    0.19880    0.41390    1.000
    H25      H        0.49280    0.29620    0.45800    1.000
    H26      H        0.64020    0.30300    0.61170    1.000
    H27      H        0.38090    0.54520    0.71000    1.000
    H28      H        0.26820    0.56520    0.77930    1.000
    H29      H        0.16410    0.46270    0.78800    1.000
    H30      H        0.27680    0.32510    0.65470    1.000
    H31      H        0.10100    0.34760    0.81470    1.000
    H32      H        0.00680    0.23780    0.82420    1.000
    H33      H        0.05950    0.15740    0.65690    1.000
    H34      H        0.15570    0.26500    0.64210    1.000
    H35      H        0.47120    0.24020    0.64320    1.000
    H36      H        0.41410    0.24050    0.59750    1.000
    H37      H        0.53700    0.61040    0.34770    1.000
    H38      H        0.58610    0.71410    0.28210    1.000
    H39      H        0.78780    0.74030    0.39510    1.000
    H40      H        0.73020    0.64080    0.45920    1.000
    H41      H        0.64850    0.80020    0.21870    1.000
    H42      H        0.69880    0.91390    0.16390    1.000
    H43      H        0.79620    0.00720    0.20800    1.000
    H44      H        0.80300    0.85980    0.36170    1.000
    H45      H        0.04520    0.11910    0.46000    1.000
    H46      H        0.06520    0.23180    0.52930    1.000
    H47      H        0.96270    0.33590    0.53800    1.000
    H48      H        0.82510    0.22320    0.40470    1.000
    H49      H        0.84760    0.39900    0.56470    1.000
    H50      H        0.73780    0.49320    0.57420    1.000
    H51      H        0.65740    0.44050    0.40690    1.000
    H52      H        0.76500    0.34430    0.39210    1.000
    H53      H        0.74020    0.02880    0.39320    1.000
    H54      H        0.74050    0.08590    0.34750    1.000
    H55      H        0.46300    0.38960    0.84770    1.000
    H56      H        0.41390    0.28590    0.78210    1.000
    H57      H        0.21220    0.25970    0.89510    1.000
    H58      H        0.26980    0.35920    0.95920    1.000
    H59      H        0.35150    0.19980    0.71870    1.000
    H60      H        0.30120    0.08610    0.66390    1.000
    H61      H        0.20380    0.99280    0.70800    1.000
    H62      H        0.19700    0.14020    0.86170    1.000
    H63      H        0.95480    0.88090    0.96000    1.000
    H64      H        0.93480    0.76820    0.02930    1.000
    H65      H        0.03730    0.66410    0.03800    1.000
    H66      H        0.17490    0.77680    0.90470    1.000
    H67      H        0.15240    0.60100    0.06470    1.000
    H68      H        0.26220    0.50680    0.07420    1.000
    H69      H        0.34260    0.55950    0.90690    1.000
    H70      H        0.23500    0.65570    0.89210    1.000
    H71      H        0.25980    0.97120    0.89320    1.000
    H72      H        0.25950    0.91410    0.84750    1.000
    H73      H        0.38960    0.46300    0.15230    1.000
    H74      H        0.28590    0.41390    0.21790    1.000
    H75      H        0.25970    0.21220    0.10490    1.000
    H76      H        0.35920    0.26980    0.04080    1.000
    H77      H        0.19980    0.35150    0.28130    1.000
    H78      H        0.08610    0.30120    0.33610    1.000
    H79      H        0.99280    0.20380    0.29200    1.000
    H80      H        0.14020    0.19700    0.13830    1.000
    H81      H        0.88090    0.95480    0.04000    1.000
    H82      H        0.76820    0.93480    0.97070    1.000
    H83      H        0.66410    0.03730    0.96200    1.000
    H84      H        0.77680    0.17490    0.09530    1.000
    H85      H        0.60100    0.15240    0.93530    1.000
    H86      H        0.50680    0.26220    0.92580    1.000
    H87      H        0.55950    0.34260    0.09310    1.000
    H88      H        0.65570    0.23500    0.10790    1.000
    H89      H        0.97120    0.25980    0.10680    1.000
    H90      H        0.91410    0.25950    0.15250    1.000
    H91      H        0.61040    0.53700    0.65230    1.000
    H92      H        0.71410    0.58610    0.71790    1.000
    H93      H        0.74030    0.78780    0.60490    1.000
    H94      H        0.64080    0.73020    0.54080    1.000
    H95      H        0.80020    0.64850    0.78130    1.000
    H96      H        0.91390    0.69880    0.83610    1.000
    H97      H        0.00720    0.79620    0.79200    1.000
    H98      H        0.85980    0.80300    0.63830    1.000
    H99      H        0.11910    0.04520    0.54000    1.000
    H100     H        0.23180    0.06520    0.47070    1.000
    H101     H        0.33590    0.96270    0.46200    1.000
    H102     H        0.22320    0.82510    0.59530    1.000
    H103     H        0.39900    0.84760    0.43530    1.000
    H104     H        0.49320    0.73780    0.42580    1.000
    H105     H        0.44050    0.65740    0.59310    1.000
    H106     H        0.34430    0.76500    0.60790    1.000
    H107     H        0.02880    0.74020    0.60680    1.000
    H108     H        0.08590    0.74050    0.65250    1.000
    H109     H        0.96300    0.11040    0.90230    1.000
    H110     H        0.91390    0.21410    0.96790    1.000
    H111     H        0.71220    0.24030    0.85490    1.000
    H112     H        0.76980    0.14080    0.79080    1.000
    H113     H        0.85150    0.30020    0.03130    1.000
    H114     H        0.80120    0.41390    0.08610    1.000
    H115     H        0.70380    0.50720    0.04200    1.000
    H116     H        0.69700    0.35980    0.88830    1.000
    H117     H        0.45480    0.61910    0.79000    1.000
    H118     H        0.43480    0.73180    0.72070    1.000
    H119     H        0.53730    0.83590    0.71200    1.000
    H120     H        0.67490    0.72320    0.84530    1.000
    H121     H        0.65240    0.89900    0.68530    1.000
    H122     H        0.76220    0.99320    0.67580    1.000
    H123     H        0.84260    0.94050    0.84310    1.000
    H124     H        0.73500    0.84430    0.85790    1.000
    H125     H        0.75980    0.52880    0.85680    1.000
    H126     H        0.75950    0.58590    0.90250    1.000
    H127     H        0.03700    0.88960    0.40230    1.000
    H128     H        0.08610    0.78590    0.46790    1.000
    H129     H        0.28780    0.75970    0.35490    1.000
    H130     H        0.23020    0.85920    0.29080    1.000
    H131     H        0.14850    0.69980    0.53130    1.000
    H132     H        0.19880    0.58610    0.58610    1.000
    H133     H        0.29620    0.49280    0.54200    1.000
    H134     H        0.30300    0.64020    0.38830    1.000
    H135     H        0.54520    0.38090    0.29000    1.000
    H136     H        0.56520    0.26820    0.22070    1.000
    H137     H        0.46270    0.16410    0.21200    1.000
    H138     H        0.32510    0.27680    0.34530    1.000
    H139     H        0.34760    0.10100    0.18530    1.000
    H140     H        0.23780    0.00680    0.17580    1.000
    H141     H        0.15740    0.05950    0.34310    1.000
    H142     H        0.26500    0.15570    0.35790    1.000
    H143     H        0.24020    0.47120    0.35680    1.000
    H144     H        0.24050    0.41410    0.40250    1.000
    C1       C        0.13980    0.91300    0.10870    1.000
    C2       C        0.20140    0.88380    0.06900    1.000
    C3       C        0.24470    0.81010    0.08330    1.000
    C4       C        0.21710    0.76600    0.13570    1.000
    C5       C        0.15680    0.80040    0.17330    1.000
    C6       C        0.31730    0.77890    0.04610    1.000
    C7       C        0.33560    0.80980    0.98670    1.000
    C8       C        0.40370    0.78070    0.95460    1.000
    C9       C        0.45840    0.72170    0.97990    1.000
    C10      C        0.44010    0.68950    0.03840    1.000
    C11      C        0.37080    0.71850    0.07150    1.000
    C12      C        0.49600    0.62720    0.06920    1.000
    C13      C        0.59070    0.57640    0.13200    1.000
    C14      C        0.66110    0.56740    0.17640    1.000
    C15      C        0.66270    0.49570    0.21300    1.000
    C16      C        0.72920    0.48420    0.25440    1.000
    C17      C        0.79150    0.54500    0.25900    1.000
    C18      C        0.79070    0.61670    0.22250    1.000
    C19      C        0.72460    0.62660    0.18070    1.000
    C20      C        0.85750    0.68210    0.22810    1.000
    C21      C        0.90530    0.69140    0.28160    1.000
    C22      C        0.96180    0.75700    0.28690    1.000
    C23      C        0.93110    0.80370    0.18960    1.000
    C24      C        0.87320    0.73980    0.18050    1.000
    C25      C        0.86020    0.08700    0.60870    1.000
    C26      C        0.79860    0.11620    0.56900    1.000
    C27      C        0.75530    0.18990    0.58330    1.000
    C28      C        0.78290    0.23400    0.63570    1.000
    C29      C        0.84320    0.19960    0.67330    1.000
    C30      C        0.68270    0.22110    0.54610    1.000
    C31      C        0.66440    0.19020    0.48670    1.000
    C32      C        0.59630    0.21930    0.45460    1.000
    C33      C        0.54160    0.27830    0.47990    1.000
    C34      C        0.55990    0.31050    0.53840    1.000
    C35      C        0.62920    0.28150    0.57150    1.000
    C36      C        0.50400    0.37280    0.56920    1.000
    C37      C        0.40930    0.42360    0.63200    1.000
    C38      C        0.33890    0.43260    0.67640    1.000
    C39      C        0.33730    0.50430    0.71300    1.000
    C40      C        0.27080    0.51580    0.75440    1.000
    C41      C        0.20850    0.45500    0.75900    1.000
    C42      C        0.20930    0.38330    0.72250    1.000
    C43      C        0.27540    0.37340    0.68070    1.000
    C44      C        0.14250    0.31790    0.72810    1.000
    C45      C        0.09470    0.30860    0.78160    1.000
    C46      C        0.03820    0.24300    0.78690    1.000
    C47      C        0.06890    0.19630    0.68960    1.000
    C48      C        0.12680    0.26020    0.68050    1.000
    C49      C        0.58700    0.63980    0.35870    1.000
    C50      C        0.61620    0.70140    0.31900    1.000
    C51      C        0.68990    0.74470    0.33330    1.000
    C52      C        0.73400    0.71710    0.38570    1.000
    C53      C        0.69960    0.65680    0.42330    1.000
    C54      C        0.72110    0.81730    0.29610    1.000
    C55      C        0.69020    0.83560    0.23670    1.000
    C56      C        0.71930    0.90370    0.20460    1.000
    C57      C        0.77830    0.95840    0.22990    1.000
    C58      C        0.81050    0.94010    0.28840    1.000
    C59      C        0.78150    0.87080    0.32150    1.000
    C60      C        0.87280    0.99600    0.31920    1.000
    C61      C        0.92360    0.09070    0.38200    1.000
    C62      C        0.93260    0.16110    0.42640    1.000
    C63      C        0.00430    0.16270    0.46300    1.000
    C64      C        0.01580    0.22920    0.50440    1.000
    C65      C        0.95500    0.29150    0.50900    1.000
    C66      C        0.88330    0.29070    0.47250    1.000
    C67      C        0.87340    0.22460    0.43070    1.000
    C68      C        0.81790    0.35750    0.47810    1.000
    C69      C        0.80860    0.40530    0.53160    1.000
    C70      C        0.74300    0.46180    0.53690    1.000
    C71      C        0.69630    0.43110    0.43960    1.000
    C72      C        0.76020    0.37320    0.43050    1.000
    C73      C        0.41300    0.36020    0.85870    1.000
    C74      C        0.38380    0.29860    0.81900    1.000
    C75      C        0.31010    0.25530    0.83330    1.000
    C76      C        0.26600    0.28290    0.88570    1.000
    C77      C        0.30040    0.34320    0.92330    1.000
    C78      C        0.27890    0.18270    0.79610    1.000
    C79      C        0.30980    0.16440    0.73670    1.000
    C80      C        0.28070    0.09630    0.70460    1.000
    C81      C        0.22170    0.04160    0.72990    1.000
    C82      C        0.18950    0.05990    0.78840    1.000
    C83      C        0.21850    0.12920    0.82150    1.000
    C84      C        0.12720    0.00400    0.81920    1.000
    C85      C        0.07640    0.90930    0.88200    1.000
    C86      C        0.06740    0.83890    0.92640    1.000
    C87      C        0.99570    0.83730    0.96300    1.000
    C88      C        0.98420    0.77080    0.00440    1.000
    C89      C        0.04500    0.70850    0.00900    1.000
    C90      C        0.11670    0.70930    0.97250    1.000
    C91      C        0.12660    0.77540    0.93070    1.000
    C92      C        0.18210    0.64250    0.97810    1.000
    C93      C        0.19140    0.59470    0.03160    1.000
    C94      C        0.25700    0.53820    0.03690    1.000
    C95      C        0.30370    0.56890    0.93960    1.000
    C96      C        0.23980    0.62680    0.93050    1.000
    C97      C        0.36020    0.41300    0.14130    1.000
    C98      C        0.29860    0.38380    0.18100    1.000
    C99      C        0.25530    0.31010    0.16670    1.000
    C100     C        0.28290    0.26600    0.11430    1.000
    C101     C        0.34320    0.30040    0.07670    1.000
    C102     C        0.18270    0.27890    0.20390    1.000
    C103     C        0.16440    0.30980    0.26330    1.000
    C104     C        0.09630    0.28070    0.29540    1.000
    C105     C        0.04160    0.22170    0.27010    1.000
    C106     C        0.05990    0.18950    0.21160    1.000
    C107     C        0.12920    0.21850    0.17850    1.000
    C108     C        0.00400    0.12720    0.18080    1.000
    C109     C        0.90930    0.07640    0.11800    1.000
    C110     C        0.83890    0.06740    0.07360    1.000
    C111     C        0.83730    0.99570    0.03700    1.000
    C112     C        0.77080    0.98420    0.99560    1.000
    C113     C        0.70850    0.04500    0.99100    1.000
    C114     C        0.70930    0.11670    0.02750    1.000
    C115     C        0.77540    0.12660    0.06930    1.000
    C116     C        0.64250    0.18210    0.02190    1.000
    C117     C        0.59470    0.19140    0.96840    1.000
    C118     C        0.53820    0.25700    0.96310    1.000
    C119     C        0.56890    0.30370    0.06040    1.000
    C120     C        0.62680    0.23980    0.06950    1.000
    C121     C        0.63980    0.58700    0.64130    1.000
    C122     C        0.70140    0.61620    0.68100    1.000
    C123     C        0.74470    0.68990    0.66670    1.000
    C124     C        0.71710    0.73400    0.61430    1.000
    C125     C        0.65680    0.69960    0.57670    1.000
    C126     C        0.81730    0.72110    0.70390    1.000
    C127     C        0.83560    0.69020    0.76330    1.000
    C128     C        0.90370    0.71930    0.79540    1.000
    C129     C        0.95840    0.77830    0.77010    1.000
    C130     C        0.94010    0.81050    0.71160    1.000
    C131     C        0.87080    0.78150    0.67850    1.000
    C132     C        0.99600    0.87280    0.68080    1.000
    C133     C        0.09070    0.92360    0.61800    1.000
    C134     C        0.16110    0.93260    0.57360    1.000
    C135     C        0.16270    0.00430    0.53700    1.000
    C136     C        0.22920    0.01580    0.49560    1.000
    C137     C        0.29150    0.95500    0.49100    1.000
    C138     C        0.29070    0.88330    0.52750    1.000
    C139     C        0.22460    0.87340    0.56930    1.000
    C140     C        0.35750    0.81790    0.52190    1.000
    C141     C        0.40530    0.80860    0.46840    1.000
    C142     C        0.46180    0.74300    0.46310    1.000
    C143     C        0.43110    0.69630    0.56040    1.000
    C144     C        0.37320    0.76020    0.56950    1.000
    C145     C        0.91300    0.13980    0.89130    1.000
    C146     C        0.88380    0.20140    0.93100    1.000
    C147     C        0.81010    0.24470    0.91670    1.000
    C148     C        0.76600    0.21710    0.86430    1.000
    C149     C        0.80040    0.15680    0.82670    1.000
    C150     C        0.77890    0.31730    0.95390    1.000
    C151     C        0.80980    0.33560    0.01330    1.000
    C152     C        0.78070    0.40370    0.04540    1.000
    C153     C        0.72170    0.45840    0.02010    1.000
    C154     C        0.68950    0.44010    0.96160    1.000
    C155     C        0.71850    0.37080    0.92850    1.000
    C156     C        0.62720    0.49600    0.93080    1.000
    C157     C        0.57640    0.59070    0.86800    1.000
    C158     C        0.56740    0.66110    0.82360    1.000
    C159     C        0.49570    0.66270    0.78700    1.000
    C160     C        0.48420    0.72920    0.74560    1.000
    C161     C        0.54500    0.79150    0.74100    1.000
    C162     C        0.61670    0.79070    0.77750    1.000
    C163     C        0.62660    0.72460    0.81930    1.000
    C164     C        0.68210    0.85750    0.77190    1.000
    C165     C        0.69140    0.90530    0.71840    1.000
    C166     C        0.75700    0.96180    0.71310    1.000
    C167     C        0.80370    0.93110    0.81040    1.000
    C168     C        0.73980    0.87320    0.81950    1.000
    C169     C        0.08700    0.86020    0.39130    1.000
    C170     C        0.11620    0.79860    0.43100    1.000
    C171     C        0.18990    0.75530    0.41670    1.000
    C172     C        0.23400    0.78290    0.36430    1.000
    C173     C        0.19960    0.84320    0.32670    1.000
    C174     C        0.22110    0.68270    0.45390    1.000
    C175     C        0.19020    0.66440    0.51330    1.000
    C176     C        0.21930    0.59630    0.54540    1.000
    C177     C        0.27830    0.54160    0.52010    1.000
    C178     C        0.31050    0.55990    0.46160    1.000
    C179     C        0.28150    0.62920    0.42850    1.000
    C180     C        0.37280    0.50400    0.43080    1.000
    C181     C        0.42360    0.40930    0.36800    1.000
    C182     C        0.43260    0.33890    0.32360    1.000
    C183     C        0.50430    0.33730    0.28700    1.000
    C184     C        0.51580    0.27080    0.24560    1.000
    C185     C        0.45500    0.20850    0.24100    1.000
    C186     C        0.38330    0.20930    0.27750    1.000
    C187     C        0.37340    0.27540    0.31930    1.000
    C188     C        0.31790    0.14250    0.27190    1.000
    C189     C        0.30860    0.09470    0.21840    1.000
    C190     C        0.24300    0.03820    0.21310    1.000
    C191     C        0.19630    0.06890    0.31040    1.000
    C192     C        0.26020    0.12680    0.31950    1.000
    N1       N        0.11880    0.87440    0.16250    1.000
    N2       N        0.49370    0.54410    0.06550    1.000
    N3       N        0.55390    0.51180    0.10460    1.000
    N4       N        0.55600    0.64920    0.11120    1.000
    N5       N        0.57400    0.73110    0.13180    1.000
    N6       N        0.97450    0.81360    0.24200    1.000
    N7       N        0.88120    0.12560    0.66250    1.000
    N8       N        0.50630    0.45590    0.56550    1.000
    N9       N        0.44610    0.48820    0.60460    1.000
    N10      N        0.44400    0.35080    0.61120    1.000
    N11      N        0.42600    0.26890    0.63180    1.000
    N12      N        0.02550    0.18640    0.74200    1.000
    N13      N        0.62560    0.61880    0.41250    1.000
    N14      N        0.95590    0.99370    0.31550    1.000
    N15      N        0.98820    0.05390    0.35460    1.000
    N16      N        0.85080    0.05600    0.36120    1.000
    N17      N        0.76890    0.07400    0.38180    1.000
    N18      N        0.68640    0.47450    0.49200    1.000
    N19      N        0.37440    0.38120    0.91250    1.000
    N20      N        0.04410    0.00630    0.81550    1.000
    N21      N        0.01180    0.94610    0.85460    1.000
    N22      N        0.14920    0.94400    0.86120    1.000
    N23      N        0.23110    0.92600    0.88180    1.000
    N24      N        0.31360    0.52550    0.99200    1.000
    N25      N        0.38120    0.37440    0.08750    1.000
    N26      N        0.00630    0.04410    0.18450    1.000
    N27      N        0.94610    0.01180    0.14540    1.000
    N28      N        0.94400    0.14920    0.13880    1.000
    N29      N        0.92600    0.23110    0.11820    1.000
    N30      N        0.52550    0.31360    0.00800    1.000
    N31      N        0.61880    0.62560    0.58750    1.000
    N32      N        0.99370    0.95590    0.68450    1.000
    N33      N        0.05390    0.98820    0.64540    1.000
    N34      N        0.05600    0.85080    0.63880    1.000
    N35      N        0.07400    0.76890    0.61820    1.000
    N36      N        0.47450    0.68640    0.50800    1.000
    N37      N        0.87440    0.11880    0.83750    1.000
    N38      N        0.54410    0.49370    0.93450    1.000
    N39      N        0.51180    0.55390    0.89540    1.000
    N40      N        0.64920    0.55600    0.88880    1.000
    N41      N        0.73110    0.57400    0.86820    1.000
    N42      N        0.81360    0.97450    0.75800    1.000
    N43      N        0.12560    0.88120    0.33750    1.000
    N44      N        0.45590    0.50630    0.43450    1.000
    N45      N        0.48820    0.44610    0.39540    1.000
    N46      N        0.35080    0.44400    0.38880    1.000
    N47      N        0.26890    0.42600    0.36820    1.000
    N48      N        0.18640    0.02550    0.25800    1.000
    Cl1      Cl       0.73118    0.73118    0.00000    1.000
    O1       O        0.75480    0.77320    0.05230    1.000
    O2       O        0.78690    0.66280    0.02070    1.000
    O3       O        0.77320    0.75480    0.94770    1.000
    O4       O        0.66280    0.78690    0.97930    1.000
    Cl2      Cl       0.26882    0.26882    0.50000    1.000
    O5       O        0.24520    0.22680    0.55230    1.000
    O6       O        0.21310    0.33720    0.52070    1.000
    O7       O        0.22680    0.24520    0.44770    1.000
    O8       O        0.33720    0.21310    0.47930    1.000
    Cl3      Cl       0.76882    0.23118    0.25000    1.000
    O9       O        0.72680    0.25480    0.30230    1.000
    O10      O        0.83720    0.28690    0.27070    1.000
    O11      O        0.74520    0.27320    0.19770    1.000
    O12      O        0.71310    0.16280    0.22930    1.000
    Cl4      Cl       0.23118    0.76882    0.75000    1.000
    O13      O        0.27320    0.74520    0.80230    1.000
    O14      O        0.16280    0.71310    0.77070    1.000
    O15      O        0.25480    0.72680    0.69770    1.000
    O16      O        0.28690    0.83720    0.72930    1.000
