# CIF file generated by openbabel 3.1.0, see https://openbabel.org
data_I
_chemical_name_common 'image0'
_cell_length_a 11.617
_cell_length_b 8.717
_cell_length_c 8.289
_cell_angle_alpha 90
_cell_angle_beta 90
_cell_angle_gamma 90
_space_group_name_H-M_alt 'P 1'
_space_group_name_Hall 'P 1'
loop_
    _symmetry_equiv_pos_as_xyz
    x,y,z
loop_
    _atom_site_label
    _atom_site_type_symbol
    _atom_site_fract_x
    _atom_site_fract_y
    _atom_site_fract_z
    _atom_site_occupancy
    Zn1      Zn       0.25010    0.98543    0.00000    1.000
    O1       O        0.31300    0.16470    0.86070    1.000
    O2       O        0.32350    0.83340    0.84360    1.000
    O3       O        0.40520    0.98480    0.13730    1.000
    O4       O        0.09460    0.99090    0.87040    1.000
    N1       N        0.32340    0.33430    0.66670    1.000
    N2       N        0.32070    0.66080    0.64880    1.000
    C1       C        0.28250    0.21770    0.73330    1.000
    C2       C        0.27690    0.72200    0.77870    1.000
    H1       H        0.22070    0.16600    0.66610    1.000
    H2       H        0.22270    0.66600    0.83200    1.000
    Zn2      Zn       0.74990    0.01457    0.00000    1.000
    O5       O        0.68700    0.83530    0.86070    1.000
    O6       O        0.67650    0.16660    0.84360    1.000
    O7       O        0.59480    0.01520    0.13730    1.000
    O8       O        0.90540    0.00910    0.87040    1.000
    N3       N        0.67660    0.66570    0.66670    1.000
    N4       N        0.67930    0.33920    0.64880    1.000
    C3       C        0.71750    0.78230    0.73330    1.000
    C4       C        0.72310    0.27800    0.77870    1.000
    H3       H        0.77930    0.83400    0.66610    1.000
    H4       H        0.77730    0.33400    0.83200    1.000
    Zn3      Zn       0.75010    0.51457    0.50000    1.000
    O9       O        0.81300    0.33530    0.36070    1.000
    O10      O        0.82350    0.66660    0.34360    1.000
    O11      O        0.90520    0.51520    0.63730    1.000
    O12      O        0.59460    0.50910    0.37040    1.000
    N5       N        0.82340    0.16570    0.16670    1.000
    N6       N        0.82070    0.83920    0.14880    1.000
    C5       C        0.78250    0.28230    0.23330    1.000
    C6       C        0.77690    0.77800    0.27870    1.000
    H5       H        0.72070    0.33400    0.16610    1.000
    H6       H        0.72270    0.83400    0.33200    1.000
    Zn4      Zn       0.24990    0.48543    0.50000    1.000
    O13      O        0.18700    0.66470    0.36070    1.000
    O14      O        0.17650    0.33340    0.34360    1.000
    O15      O        0.09480    0.48480    0.63730    1.000
    O16      O        0.40540    0.49090    0.37040    1.000
    N7       N        0.17660    0.83430    0.16670    1.000
    N8       N        0.17930    0.16080    0.14880    1.000
    C7       C        0.21750    0.71770    0.23330    1.000
    C8       C        0.22310    0.22200    0.27870    1.000
    H7       H        0.27930    0.66600    0.16610    1.000
    H8       H        0.27730    0.16600    0.33200    1.000
    C9       C        0.50000    0.00000    0.05670    1.000
    H9       H        0.50000    0.00000    0.91610    1.000
    C10      C        0.00000    0.50000    0.55670    1.000
    H10      H        0.00000    0.50000    0.41610    1.000
    C11      C        0.00000    0.00000    0.92570    1.000
    H11      H        0.00000    0.00000    0.08200    1.000
    C12      C        0.50000    0.50000    0.42570    1.000
    H12      H        0.50000    0.50000    0.58200    1.000
