# CIF file generated by openbabel 3.1.0, see https://openbabel.org
data_I
_chemical_name_common 'image0'
_cell_length_a 13.2242
_cell_length_b 38.366
_cell_length_c 13.2515
_cell_angle_alpha 90
_cell_angle_beta 99.752
_cell_angle_gamma 90
_space_group_name_H-M_alt 'P 1'
_space_group_name_Hall 'P 1'
loop_
    _symmetry_equiv_pos_as_xyz
    x,y,z
loop_
    _atom_site_label
    _atom_site_type_symbol
    _atom_site_fract_x
    _atom_site_fract_y
    _atom_site_fract_z
    _atom_site_occupancy
    La1      La       0.24087    0.37495    0.72859    1.000
    O1       O        0.31490    0.43533    0.76770    1.000
    O2       O        0.22820    0.31230    0.68190    1.000
    O3       O        0.80940    0.59557    0.44090    1.000
    O4       O        0.55780    0.13942    0.15650    1.000
    O5       O        0.37920    0.36782    0.62290    1.000
    O6       O        0.40460    0.36464    0.84020    1.000
    O7       O        0.21930    0.34339    0.88630    1.000
    O8       O        0.11880    0.41062    0.81080    1.000
    N1       N        0.26300    0.46377    0.73100    1.000
    N2       N        0.27410    0.28729    0.74390    1.000
    N3       N        0.89240    0.57953    0.48880    1.000
    N4       N        0.51400    0.16290    0.08880    1.000
    N5       N        0.36450    0.36470    0.52170    1.000
    N6       N        0.50320    0.37098    0.83750    1.000
    N7       N        0.24650    0.34782    0.98710    1.000
    N8       N        0.02200    0.40401    0.82330    1.000
    C1       C        0.20070    0.47970    0.78480    1.000
    H1       H        0.19970    0.47260    0.85330    1.000
    C2       C        0.13800    0.50622    0.74340    1.000
    H2       H        0.09450    0.51730    0.78380    1.000
    C3       C        0.13670    0.51704    0.64400    1.000
    C4       C        0.20840    0.50184    0.59250    1.000
    H3       H        0.21360    0.50970    0.52560    1.000
    C5       C        0.27250    0.47539    0.63660    1.000
    H4       H        0.32240    0.46560    0.60120    1.000
    C6       C        0.21640    0.26774    0.79640    1.000
    H5       H        0.14440    0.27140    0.78750    1.000
    C7       C        0.26120    0.24236    0.86280    1.000
    H6       H        0.22050    0.22890    0.90090    1.000
    C8       C        0.36720    0.23653    0.87380    1.000
    C9       C        0.42230    0.25686    0.81760    1.000
    H7       H        0.49410    0.25330    0.82320    1.000
    C10      C        0.37570    0.28229    0.75340    1.000
    H8       H        0.41520    0.29630    0.71570    1.000
    C11      C        0.95780    0.56407    0.43570    1.000
    H9       H        0.94740    0.56640    0.36330    1.000
    C12      C        0.03900    0.54507    0.48430    1.000
    H10      H        0.08450    0.53460    0.44500    1.000
    C13      C        0.05660    0.54075    0.58990    1.000
    C14      C        0.99000    0.55859    0.64310    1.000
    H11      H        0.00080    0.55770    0.71580    1.000
    C15      C        0.90890    0.57736    0.59150    1.000
    H12      H        0.86370    0.58900    0.62890    1.000
    C16      C        0.55290    0.16918    0.00370    1.000
    H13      H        0.61290    0.15720    0.99240    1.000
    C17      C        0.50690    0.19265    0.93280    1.000
    H14      H        0.53500    0.19680    0.87250    1.000
    C18      C        0.41950    0.21042    0.94840    1.000
    C19      C        0.38090    0.20290    0.03770    1.000
    H15      H        0.32010    0.21400    0.05030    1.000
    C20      C        0.43040    0.17956    0.10710    1.000
    H16      H        0.40500    0.17520    0.16880    1.000
    C21      C        0.32990    0.33443    0.47890    1.000
    H17      H        0.31890    0.31520    0.52100    1.000
    C22      C        0.31000    0.33095    0.37330    1.000
    H18      H        0.28570    0.30930    0.34370    1.000
    C23      C        0.32510    0.35858    0.31040    1.000
    C24      C        0.36330    0.38893    0.35810    1.000
    H19      H        0.37670    0.40830    0.31790    1.000
    C25      C        0.38220    0.39158    0.46340    1.000
    H20      H        0.40810    0.41280    0.49460    1.000
    C26      C        0.57390    0.34779    0.88030    1.000
    H21      H        0.55290    0.32700    0.90990    1.000
    C27      C        0.67720    0.35402    0.88120    1.000
    H22      H        0.72660    0.33750    0.91170    1.000
    C28      C        0.70910    0.38392    0.83850    1.000
    C29      C        0.63320    0.40704    0.79390    1.000
    H23      H        0.65220    0.42790    0.76320    1.000
    C30      C        0.53180    0.40017    0.79360    1.000
    H24      H        0.48110    0.41610    0.76220    1.000
    C31      C        0.29600    0.37703    0.02740    1.000
    H25      H        0.31240    0.39490    0.98310    1.000
    C32      C        0.32240    0.38092    0.13100    1.000
    H26      H        0.35680    0.40150    0.15810    1.000
    C33      C        0.29950    0.35513    0.19730    1.000
    C34      C        0.24880    0.32575    0.15260    1.000
    H27      H        0.23170    0.30750    0.19500    1.000
    C35      C        0.22320    0.32276    0.04860    1.000
    H28      H        0.18820    0.30250    0.01980    1.000
    C36      C        0.99530    0.37266    0.85410    1.000
    H29      H        0.04590    0.35510    0.87170    1.000
    C37      C        0.89250    0.36575    0.86030    1.000
    H30      H        0.87360    0.34330    0.88120    1.000
    C38      C        0.81840    0.39117    0.83630    1.000
    C39      C        0.85240    0.42343    0.80910    1.000
    H31      H        0.80440    0.44200    0.79500    1.000
    C40      C        0.95260    0.42943    0.80200    1.000
    H32      H        0.97320    0.45180    0.78190    1.000
    La2      La       0.25913    0.87495    0.77141    1.000
    O9       O        0.18510    0.93533    0.73230    1.000
    O10      O        0.27180    0.81230    0.81810    1.000
    O11      O        0.69060    0.09557    0.05910    1.000
    O12      O        0.94220    0.63942    0.34350    1.000
    O13      O        0.12080    0.86782    0.87710    1.000
    O14      O        0.09540    0.86464    0.65980    1.000
    O15      O        0.28070    0.84339    0.61370    1.000
    O16      O        0.38120    0.91062    0.68920    1.000
    N9       N        0.23700    0.96377    0.76900    1.000
    N10      N        0.22590    0.78729    0.75610    1.000
    N11      N        0.60760    0.07953    0.01120    1.000
    N12      N        0.98600    0.66290    0.41120    1.000
    N13      N        0.13550    0.86470    0.97830    1.000
    N14      N        0.99680    0.87098    0.66250    1.000
    N15      N        0.25350    0.84782    0.51290    1.000
    N16      N        0.47800    0.90401    0.67670    1.000
    C41      C        0.29930    0.97970    0.71520    1.000
    H33      H        0.30030    0.97260    0.64670    1.000
    C42      C        0.36200    0.00622    0.75660    1.000
    H34      H        0.40550    0.01730    0.71620    1.000
    C43      C        0.36330    0.01704    0.85600    1.000
    C44      C        0.29160    0.00184    0.90750    1.000
    H35      H        0.28640    0.00970    0.97440    1.000
    C45      C        0.22750    0.97539    0.86340    1.000
    H36      H        0.17760    0.96560    0.89880    1.000
    C46      C        0.28360    0.76774    0.70360    1.000
    H37      H        0.35560    0.77140    0.71250    1.000
    C47      C        0.23880    0.74236    0.63720    1.000
    H38      H        0.27950    0.72890    0.59910    1.000
    C48      C        0.13280    0.73653    0.62620    1.000
    C49      C        0.07770    0.75686    0.68240    1.000
    H39      H        0.00590    0.75330    0.67680    1.000
    C50      C        0.12430    0.78229    0.74660    1.000
    H40      H        0.08480    0.79630    0.78430    1.000
    C51      C        0.54220    0.06407    0.06430    1.000
    H41      H        0.55260    0.06640    0.13670    1.000
    C52      C        0.46100    0.04507    0.01570    1.000
    H42      H        0.41550    0.03460    0.05500    1.000
    C53      C        0.44340    0.04075    0.91010    1.000
    C54      C        0.51000    0.05859    0.85690    1.000
    H43      H        0.49920    0.05770    0.78420    1.000
    C55      C        0.59110    0.07736    0.90850    1.000
    H44      H        0.63630    0.08900    0.87110    1.000
    C56      C        0.94710    0.66918    0.49630    1.000
    H45      H        0.88710    0.65720    0.50760    1.000
    C57      C        0.99310    0.69265    0.56720    1.000
    H46      H        0.96500    0.69680    0.62750    1.000
    C58      C        0.08050    0.71042    0.55160    1.000
    C59      C        0.11910    0.70290    0.46230    1.000
    H47      H        0.17990    0.71400    0.44970    1.000
    C60      C        0.06960    0.67956    0.39290    1.000
    H48      H        0.09500    0.67520    0.33120    1.000
    C61      C        0.17010    0.83443    0.02110    1.000
    H49      H        0.18110    0.81520    0.97900    1.000
    C62      C        0.19000    0.83095    0.12670    1.000
    H50      H        0.21430    0.80930    0.15630    1.000
    C63      C        0.17490    0.85858    0.18960    1.000
    C64      C        0.13670    0.88893    0.14190    1.000
    H51      H        0.12330    0.90830    0.18210    1.000
    C65      C        0.11780    0.89158    0.03660    1.000
    H52      H        0.09190    0.91280    0.00540    1.000
    C66      C        0.92610    0.84779    0.61970    1.000
    H53      H        0.94710    0.82700    0.59010    1.000
    C67      C        0.82280    0.85402    0.61880    1.000
    H54      H        0.77340    0.83750    0.58830    1.000
    C68      C        0.79090    0.88392    0.66150    1.000
    C69      C        0.86680    0.90704    0.70610    1.000
    H55      H        0.84780    0.92790    0.73680    1.000
    C70      C        0.96820    0.90017    0.70640    1.000
    H56      H        0.01890    0.91610    0.73780    1.000
    C71      C        0.20400    0.87703    0.47260    1.000
    H57      H        0.18760    0.89490    0.51690    1.000
    C72      C        0.17760    0.88092    0.36900    1.000
    H58      H        0.14320    0.90150    0.34190    1.000
    C73      C        0.20050    0.85513    0.30270    1.000
    C74      C        0.25120    0.82575    0.34740    1.000
    H59      H        0.26830    0.80750    0.30500    1.000
    C75      C        0.27680    0.82276    0.45140    1.000
    H60      H        0.31180    0.80250    0.48020    1.000
    C76      C        0.50470    0.87266    0.64590    1.000
    H61      H        0.45410    0.85510    0.62830    1.000
    C77      C        0.60750    0.86575    0.63970    1.000
    H62      H        0.62640    0.84330    0.61880    1.000
    C78      C        0.68160    0.89117    0.66370    1.000
    C79      C        0.64760    0.92343    0.69090    1.000
    H63      H        0.69560    0.94200    0.70500    1.000
    C80      C        0.54740    0.92943    0.69800    1.000
    H64      H        0.52680    0.95180    0.71810    1.000
    La3      La       0.75913    0.62505    0.27141    1.000
    O17      O        0.68510    0.56467    0.23230    1.000
    O18      O        0.77180    0.68770    0.31810    1.000
    O19      O        0.19060    0.40443    0.55910    1.000
    O20      O        0.44220    0.86058    0.84350    1.000
    O21      O        0.62080    0.63218    0.37710    1.000
    O22      O        0.59540    0.63536    0.15980    1.000
    O23      O        0.78070    0.65661    0.11370    1.000
    O24      O        0.88120    0.58938    0.18920    1.000
    N17      N        0.73700    0.53623    0.26900    1.000
    N18      N        0.72590    0.71271    0.25610    1.000
    N19      N        0.10760    0.42047    0.51120    1.000
    N20      N        0.48600    0.83710    0.91120    1.000
    N21      N        0.63550    0.63530    0.47830    1.000
    N22      N        0.49680    0.62902    0.16250    1.000
    N23      N        0.75350    0.65218    0.01290    1.000
    N24      N        0.97800    0.59599    0.17670    1.000
    C81      C        0.79930    0.52030    0.21520    1.000
    H65      H        0.80030    0.52740    0.14670    1.000
    C82      C        0.86200    0.49378    0.25660    1.000
    H66      H        0.90550    0.48270    0.21620    1.000
    C83      C        0.86330    0.48296    0.35600    1.000
    C84      C        0.79160    0.49816    0.40750    1.000
    H67      H        0.78640    0.49030    0.47440    1.000
    C85      C        0.72750    0.52461    0.36340    1.000
    H68      H        0.67760    0.53440    0.39880    1.000
    C86      C        0.78360    0.73226    0.20360    1.000
    H69      H        0.85560    0.72860    0.21250    1.000
    C87      C        0.73880    0.75764    0.13720    1.000
    H70      H        0.77950    0.77110    0.09910    1.000
    C88      C        0.63280    0.76347    0.12620    1.000
    C89      C        0.57770    0.74314    0.18240    1.000
    H71      H        0.50590    0.74670    0.17680    1.000
    C90      C        0.62430    0.71771    0.24660    1.000
    H72      H        0.58480    0.70370    0.28430    1.000
    C91      C        0.04220    0.43593    0.56430    1.000
    H73      H        0.05260    0.43360    0.63670    1.000
    C92      C        0.96100    0.45493    0.51570    1.000
    H74      H        0.91550    0.46540    0.55500    1.000
    C93      C        0.94340    0.45925    0.41010    1.000
    C94      C        0.01000    0.44141    0.35690    1.000
    H75      H        0.99920    0.44230    0.28420    1.000
    C95      C        0.09110    0.42264    0.40850    1.000
    H76      H        0.13630    0.41100    0.37110    1.000
    C96      C        0.44710    0.83082    0.99630    1.000
    H77      H        0.38710    0.84280    0.00760    1.000
    C97      C        0.49310    0.80735    0.06720    1.000
    H78      H        0.46500    0.80320    0.12750    1.000
    C98      C        0.58050    0.78958    0.05160    1.000
    C99      C        0.61910    0.79710    0.96230    1.000
    H79      H        0.67990    0.78600    0.94970    1.000
    C100     C        0.56960    0.82044    0.89290    1.000
    H80      H        0.59500    0.82480    0.83120    1.000
    C101     C        0.67010    0.66557    0.52110    1.000
    H81      H        0.68110    0.68480    0.47900    1.000
    C102     C        0.69000    0.66905    0.62670    1.000
    H82      H        0.71430    0.69070    0.65630    1.000
    C103     C        0.67490    0.64142    0.68960    1.000
    C104     C        0.63670    0.61107    0.64190    1.000
    H83      H        0.62330    0.59170    0.68210    1.000
    C105     C        0.61780    0.60842    0.53660    1.000
    H84      H        0.59190    0.58720    0.50540    1.000
    C106     C        0.42610    0.65221    0.11970    1.000
    H85      H        0.44710    0.67300    0.09010    1.000
    C107     C        0.32280    0.64598    0.11880    1.000
    H86      H        0.27340    0.66250    0.08830    1.000
    C108     C        0.29090    0.61608    0.16150    1.000
    C109     C        0.36680    0.59296    0.20610    1.000
    H87      H        0.34780    0.57210    0.23680    1.000
    C110     C        0.46820    0.59983    0.20640    1.000
    H88      H        0.51890    0.58390    0.23780    1.000
    C111     C        0.70400    0.62297    0.97260    1.000
    H89      H        0.68760    0.60510    0.01690    1.000
    C112     C        0.67760    0.61908    0.86900    1.000
    H90      H        0.64320    0.59850    0.84190    1.000
    C113     C        0.70050    0.64487    0.80270    1.000
    C114     C        0.75120    0.67425    0.84740    1.000
    H91      H        0.76830    0.69250    0.80500    1.000
    C115     C        0.77680    0.67724    0.95140    1.000
    H92      H        0.81180    0.69750    0.98020    1.000
    C116     C        0.00470    0.62734    0.14590    1.000
    H93      H        0.95410    0.64490    0.12830    1.000
    C117     C        0.10750    0.63425    0.13970    1.000
    H94      H        0.12640    0.65670    0.11880    1.000
    C118     C        0.18160    0.60883    0.16370    1.000
    C119     C        0.14760    0.57657    0.19090    1.000
    H95      H        0.19560    0.55800    0.20500    1.000
    C120     C        0.04740    0.57057    0.19800    1.000
    H96      H        0.02680    0.54820    0.21810    1.000
    La4      La       0.74087    0.12505    0.22859    1.000
    O25      O        0.81490    0.06467    0.26770    1.000
    O26      O        0.72820    0.18770    0.18190    1.000
    O27      O        0.30940    0.90443    0.94090    1.000
    O28      O        0.05780    0.36058    0.65650    1.000
    O29      O        0.87920    0.13218    0.12290    1.000
    O30      O        0.90460    0.13536    0.34020    1.000
    O31      O        0.71930    0.15661    0.38630    1.000
    O32      O        0.61880    0.08938    0.31080    1.000
    N25      N        0.76300    0.03623    0.23100    1.000
    N26      N        0.77410    0.21271    0.24390    1.000
    N27      N        0.39240    0.92047    0.98880    1.000
    N28      N        0.01400    0.33710    0.58880    1.000
    N29      N        0.86450    0.13530    0.02170    1.000
    N30      N        0.00320    0.12902    0.33750    1.000
    N31      N        0.74650    0.15218    0.48710    1.000
    N32      N        0.52200    0.09599    0.32330    1.000
    C121     C        0.70070    0.02030    0.28480    1.000
    H97      H        0.69970    0.02740    0.35330    1.000
    C122     C        0.63800    0.99378    0.24340    1.000
    H98      H        0.59450    0.98270    0.28380    1.000
    C123     C        0.63670    0.98296    0.14400    1.000
    C124     C        0.70840    0.99816    0.09250    1.000
    H99      H        0.71360    0.99030    0.02560    1.000
    C125     C        0.77250    0.02461    0.13660    1.000
    H100     H        0.82240    0.03440    0.10120    1.000
    C126     C        0.71640    0.23226    0.29640    1.000
    H101     H        0.64440    0.22860    0.28750    1.000
    C127     C        0.76120    0.25764    0.36280    1.000
    H102     H        0.72050    0.27110    0.40090    1.000
    C128     C        0.86720    0.26347    0.37380    1.000
    C129     C        0.92230    0.24314    0.31760    1.000
    H103     H        0.99410    0.24670    0.32320    1.000
    C130     C        0.87570    0.21771    0.25340    1.000
    H104     H        0.91520    0.20370    0.21570    1.000
    C131     C        0.45780    0.93593    0.93570    1.000
    H105     H        0.44740    0.93360    0.86330    1.000
    C132     C        0.53900    0.95493    0.98430    1.000
    H106     H        0.58450    0.96540    0.94500    1.000
    C133     C        0.55660    0.95925    0.08990    1.000
    C134     C        0.49000    0.94141    0.14310    1.000
    H107     H        0.50080    0.94230    0.21580    1.000
    C135     C        0.40890    0.92264    0.09150    1.000
    H108     H        0.36370    0.91100    0.12890    1.000
    C136     C        0.05290    0.33082    0.50370    1.000
    H109     H        0.11290    0.34280    0.49240    1.000
    C137     C        0.00690    0.30735    0.43280    1.000
    H110     H        0.03500    0.30320    0.37250    1.000
    C138     C        0.91950    0.28958    0.44840    1.000
    C139     C        0.88090    0.29710    0.53770    1.000
    H111     H        0.82010    0.28600    0.55030    1.000
    C140     C        0.93040    0.32044    0.60710    1.000
    H112     H        0.90500    0.32480    0.66880    1.000
    C141     C        0.82990    0.16557    0.97890    1.000
    H113     H        0.81890    0.18480    0.02100    1.000
    C142     C        0.81000    0.16905    0.87330    1.000
    H114     H        0.78570    0.19070    0.84370    1.000
    C143     C        0.82510    0.14142    0.81040    1.000
    C144     C        0.86330    0.11107    0.85810    1.000
    H115     H        0.87670    0.09170    0.81790    1.000
    C145     C        0.88220    0.10842    0.96340    1.000
    H116     H        0.90810    0.08720    0.99460    1.000
    C146     C        0.07390    0.15221    0.38030    1.000
    H117     H        0.05290    0.17300    0.40990    1.000
    C147     C        0.17720    0.14598    0.38120    1.000
    H118     H        0.22660    0.16250    0.41170    1.000
    C148     C        0.20910    0.11608    0.33850    1.000
    C149     C        0.13320    0.09296    0.29390    1.000
    H119     H        0.15220    0.07210    0.26320    1.000
    C150     C        0.03180    0.09983    0.29360    1.000
    H120     H        0.98110    0.08390    0.26220    1.000
    C151     C        0.79600    0.12297    0.52740    1.000
    H121     H        0.81240    0.10510    0.48310    1.000
    C152     C        0.82240    0.11908    0.63100    1.000
    H122     H        0.85680    0.09850    0.65810    1.000
    C153     C        0.79950    0.14487    0.69730    1.000
    C154     C        0.74880    0.17425    0.65260    1.000
    H123     H        0.73170    0.19250    0.69500    1.000
    C155     C        0.72320    0.17724    0.54860    1.000
    H124     H        0.68820    0.19750    0.51980    1.000
    C156     C        0.49530    0.12734    0.35410    1.000
    H125     H        0.54590    0.14490    0.37170    1.000
    C157     C        0.39250    0.13425    0.36030    1.000
    H126     H        0.37360    0.15670    0.38120    1.000
    C158     C        0.31840    0.10883    0.33630    1.000
    C159     C        0.35240    0.07657    0.30910    1.000
    H127     H        0.30440    0.05800    0.29500    1.000
    C160     C        0.45260    0.07057    0.30200    1.000
    H128     H        0.47320    0.04820    0.28190    1.000
