data_functionalizedCrystal
_audit_creation_method	'EQeq! by Chris Wilmer'
_symmetry_space_group_name_H-M	'P1'
_symmetry_Int_Tables_number	1
_symmetry_cell_setting	triclinic
loop_
_symmetry_equiv_pos_as_xyz
  x,y,z
_cell_length_a	7.768
_cell_length_b	14.344
_cell_length_c	16.125
_cell_angle_alpha	92.98
_cell_angle_beta	95.605
_cell_angle_gamma	99.593
loop_
_atom_site_label
_atom_site_type_symbol
_atom_site_fract_x
_atom_site_fract_y
_atom_site_fract_z
_atom_site_charge
Mof_Nd	Nd	0.77568	0.75675	0.72405	2.506
Mof_Nd	Nd	0.72824	0.30122	0.2124	2.5
Mof_Nd	Nd	0.22432	0.24325	0.27595	2.506
Mof_Nd	Nd	0.27176	0.69878	0.7876	2.5
Mof_H 	H 	0.28	0.053	0.0851	0.152
Mof_H 	H 	0.2019	0.1404	0.0545	0.135
Mof_H 	H 	0.2955	0.5266	0.5805	0.131
Mof_H 	H 	0.2351	0.6249	0.5759	0.111
Mof_H 	H 	0.8323	0.6471	0.0119	0.147
Mof_H 	H 	0.7475	0.5517	0.9615	0.139
Mof_H 	H 	0.0992	0.5879	0.0344	0.006
Mof_H 	H 	0.9459	0.5304	0.0769	-0.001
Mof_H 	H 	0.3285	0.9687	0.6028	0.146
Mof_H 	H 	0.2919	0.8849	0.534	0.147
Mof_H 	H 	0.615	0.004	0.5727	0.006
Mof_H 	H 	0.5793	0.9197	0.5042	0.001
Mof_H 	H 	0.1699	0.5724	0.3081	0.135
Mof_H 	H 	0.2783	0.4898	0.3183	0.116
Mof_H 	H 	0.3184	0.9548	0.8339	0.126
Mof_H 	H 	0.2098	0.0331	0.806	0.128
Mof_H 	H 	0.0734	0.5515	0.439	0.011
Mof_H 	H 	0.1634	0.4623	0.4486	0.018
Mof_H 	H 	0.4391	0.56	0.4582	0.031
Mof_H 	H 	0.3463	0.6489	0.4514	0.019
Mof_H 	H 	0.0777	0.0226	0.9308	0.023
Mof_H 	H 	0.1938	0.9481	0.9588	0.03
Mof_H 	H 	0.3339	0.1378	0.9356	0.008
Mof_H 	H 	0.4454	0.063	0.968	0.022
Mof_H 	H 	0.72	0.947	0.9149	0.152
Mof_H 	H 	0.7981	0.8596	0.9455	0.135
Mof_H 	H 	0.7045	0.4734	0.4195	0.131
Mof_H 	H 	0.7649	0.3751	0.4241	0.111
Mof_H 	H 	0.1677	0.3529	0.9881	0.147
Mof_H 	H 	0.2525	0.4483	0.0385	0.139
Mof_H 	H 	0.9008	0.4121	0.9656	0.006
Mof_H 	H 	0.0541	0.4696	0.9231	-0.001
Mof_H 	H 	0.6715	0.0313	0.3972	0.146
Mof_H 	H 	0.7081	0.1151	0.466	0.147
Mof_H 	H 	0.385	0.996	0.4273	0.006
Mof_H 	H 	0.4207	0.0803	0.4958	0.001
Mof_H 	H 	0.8301	0.4276	0.6919	0.135
Mof_H 	H 	0.7217	0.5102	0.6817	0.116
Mof_H 	H 	0.6816	0.0452	0.1661	0.126
Mof_H 	H 	0.7902	0.9669	0.194	0.128
Mof_H 	H 	0.9266	0.4485	0.561	0.011
Mof_H 	H 	0.8366	0.5377	0.5514	0.018
Mof_H 	H 	0.5609	0.44	0.5418	0.031
Mof_H 	H 	0.6537	0.3511	0.5486	0.019
Mof_H 	H 	0.9223	0.9774	0.0692	0.023
Mof_H 	H 	0.8062	0.0519	0.0412	0.03
Mof_H 	H 	0.6661	0.8622	0.0644	0.008
Mof_H 	H 	0.5546	0.937	0.032	0.022
Mof_C 	C 	0.4529	0.1754	0.1062	0.528
Mof_C 	C 	0.492	0.6362	0.6184	0.498
Mof_C 	C 	0.9127	0.6364	0.8968	0.587
Mof_C 	C 	0.4287	0.8536	0.6398	0.61
Mof_C 	C 	0.3052	0.1105	0.056	-0.426
Mof_C 	C 	0.3285	0.5907	0.564	-0.378
Mof_C 	C 	0.8566	0.5961	0.9754	-0.467
Mof_C 	C 	0.987	0.5456	0.0235	0.041
Mof_C 	C 	0.381	0.9202	0.5755	-0.471
Mof_C 	C 	0.5261	0.9678	0.5316	0.042
Mof_C 	C 	0.058	0.9025	0.804	0.511
Mof_C 	C 	0.1725	0.512	0.3321	-0.397
Mof_C 	C 	0.0148	0.4421	0.2962	0.492
Mof_C 	C 	0.2087	0.9777	0.8381	-0.389
Mof_C 	C 	0.175	0.5244	0.4265	0.015
Mof_C 	C 	0.336	0.5856	0.4709	-0.002
Mof_C 	C 	0.1913	0.0038	0.9274	-0.011
Mof_C 	C 	0.332	0.0829	0.9683	0.032
Mof_C 	C 	0.5471	0.8246	0.8938	0.528
Mof_C 	C 	0.508	0.3638	0.3816	0.498
Mof_C 	C 	0.0873	0.3636	0.1032	0.587
Mof_C 	C 	0.5713	0.1464	0.3602	0.61
Mof_C 	C 	0.6948	0.8895	0.944	-0.426
Mof_C 	C 	0.6715	0.4093	0.436	-0.378
Mof_C 	C 	0.1434	0.4039	0.0246	-0.467
Mof_C 	C 	0.013	0.4544	0.9765	0.041
Mof_C 	C 	0.619	0.0798	0.4245	-0.471
Mof_C 	C 	0.4739	0.0322	0.4684	0.042
Mof_C 	C 	0.942	0.0975	0.196	0.511
Mof_C 	C 	0.8275	0.488	0.6679	-0.397
Mof_C 	C 	0.9852	0.5579	0.7038	0.492
Mof_C 	C 	0.7913	0.0223	0.1619	-0.389
Mof_C 	C 	0.825	0.4756	0.5735	0.015
Mof_C 	C 	0.664	0.4144	0.5291	-0.002
Mof_C 	C 	0.8087	0.9962	0.0726	-0.011
Mof_C 	C 	0.668	0.9171	0.0317	0.032
Mof_O 	O 	0.5981	0.1962	0.081	-0.533
Mof_O 	O 	0.6289	0.6641	0.5879	-0.53
Mof_O 	O 	0.0711	0.6498	0.8861	-0.629
Mof_O 	O 	0.5864	0.8512	0.6568	-0.639
Mof_O 	O 	0.7915	0.6584	0.8449	-0.606
Mof_O 	O 	0.91	0.9215	0.7851	-0.543
Mof_O 	O 	0.3029	0.8057	0.6711	-0.613
Mof_O 	O 	0.0816	0.8171	0.7971	-0.741
Mof_O 	O 	0.4251	0.2069	0.1777	-0.763
Mof_O 	O 	0.482	0.6455	0.6964	-0.739
Mof_O 	O 	0.019	0.3537	0.303	-0.731
Mof_O 	O 	0.8792	0.4676	0.2651	-0.541
Mof_O 	O 	0.4019	0.8038	0.919	-0.533
Mof_O 	O 	0.3711	0.3359	0.4121	-0.53
Mof_O 	O 	0.9289	0.3502	0.1139	-0.629
Mof_O 	O 	0.4136	0.1488	0.3432	-0.639
Mof_O 	O 	0.2085	0.3416	0.1551	-0.606
Mof_O 	O 	0.09	0.0785	0.2149	-0.543
Mof_O 	O 	0.6971	0.1943	0.3289	-0.613
Mof_O 	O 	0.9184	0.1829	0.2029	-0.741
Mof_O 	O 	0.5749	0.7931	0.8223	-0.763
Mof_O 	O 	0.518	0.3545	0.3036	-0.739
Mof_O 	O 	0.981	0.6463	0.697	-0.731
Mof_O 	O 	0.1208	0.5324	0.7349	-0.541
_end
