# CIF file generated by openbabel 3.1.0, see https://openbabel.org
data_I
_chemical_name_common 'image0'
_cell_length_a 21.7633
_cell_length_b 14.1958
_cell_length_c 22.9649
_cell_angle_alpha 90
_cell_angle_beta 90.182
_cell_angle_gamma 90
_space_group_name_H-M_alt 'P 1'
_space_group_name_Hall 'P 1'
loop_
    _symmetry_equiv_pos_as_xyz
    x,y,z
loop_
    _atom_site_label
    _atom_site_type_symbol
    _atom_site_fract_x
    _atom_site_fract_y
    _atom_site_fract_z
    _atom_site_occupancy
    C1       C        0.81030    0.06200    0.84150    1.000
    C2       C        0.84630    0.13910    0.80920    1.000
    C3       C        0.68320    0.30810    0.79300    1.000
    C4       C        0.71290    0.39630    0.82330    1.000
    C5       C        0.78520    0.25890    0.00480    1.000
    C6       C        0.00350    0.95310    0.78370    1.000
    O1       O        0.77503    0.08880    0.88041    1.000
    O2       O        0.83761    0.22270    0.82443    1.000
    O3       O        0.81841    0.97870    0.82621    1.000
    O4       O        0.88041    0.11060    0.76979    1.000
    O5       O        0.70116    0.22890    0.81128    1.000
    O6       O        0.75291    0.38040    0.86276    1.000
    O7       O        0.64409    0.32330    0.75277    1.000
    O8       O        0.69437    0.47520    0.80524    1.000
    O9       O        0.81659    0.26060    0.96010    1.000
    O10      O        0.80456    0.27000    0.05662    1.000
    O11      O        0.95490    0.94900    0.81134    1.000
    O12      O        0.05800    0.95910    0.80469    1.000
    Cr1      Cr       0.87681    0.96465    0.75790    1.000
    Cr2      Cr       0.76524    0.23741    0.88278    1.000
    Mn1      Mn       0.23476    0.23741    0.61722    1.000
    C7       C        0.31030    0.56200    0.84150    1.000
    C8       C        0.34630    0.63910    0.80920    1.000
    C9       C        0.18320    0.80810    0.79300    1.000
    C10      C        0.21290    0.89630    0.82330    1.000
    C11      C        0.28520    0.75890    0.00480    1.000
    C12      C        0.50350    0.45310    0.78370    1.000
    O13      O        0.27503    0.58880    0.88041    1.000
    O14      O        0.33761    0.72270    0.82443    1.000
    O15      O        0.31841    0.47870    0.82621    1.000
    O16      O        0.38041    0.61060    0.76979    1.000
    O17      O        0.20116    0.72890    0.81128    1.000
    O18      O        0.25291    0.88040    0.86276    1.000
    O19      O        0.14409    0.82330    0.75277    1.000
    O20      O        0.19437    0.97520    0.80524    1.000
    O21      O        0.31659    0.76060    0.96010    1.000
    O22      O        0.30456    0.77000    0.05662    1.000
    O23      O        0.45490    0.44900    0.81134    1.000
    O24      O        0.55800    0.45910    0.80469    1.000
    Cr3      Cr       0.37681    0.46465    0.75790    1.000
    Cr4      Cr       0.26524    0.73741    0.88278    1.000
    Mn2      Mn       0.73476    0.73741    0.61722    1.000
    C13      C        0.18970    0.06200    0.65850    1.000
    C14      C        0.15370    0.13910    0.69080    1.000
    C15      C        0.31680    0.30810    0.70700    1.000
    C16      C        0.28710    0.39630    0.67670    1.000
    C17      C        0.21480    0.25890    0.49520    1.000
    C18      C        0.99650    0.95310    0.71630    1.000
    O25      O        0.22497    0.08880    0.61959    1.000
    O26      O        0.16239    0.22270    0.67557    1.000
    O27      O        0.18159    0.97870    0.67379    1.000
    O28      O        0.11959    0.11060    0.73021    1.000
    O29      O        0.29884    0.22890    0.68872    1.000
    O30      O        0.24709    0.38040    0.63724    1.000
    O31      O        0.35591    0.32330    0.74723    1.000
    O32      O        0.30563    0.47520    0.69476    1.000
    O33      O        0.18341    0.26060    0.53990    1.000
    O34      O        0.19544    0.27000    0.44338    1.000
    O35      O        0.04510    0.94900    0.68866    1.000
    O36      O        0.94200    0.95910    0.69531    1.000
    Cr5      Cr       0.12319    0.96465    0.74210    1.000
    C19      C        0.68970    0.56200    0.65850    1.000
    C20      C        0.65370    0.63910    0.69080    1.000
    C21      C        0.81680    0.80810    0.70700    1.000
    C22      C        0.78710    0.89630    0.67670    1.000
    C23      C        0.71480    0.75890    0.49520    1.000
    C24      C        0.49650    0.45310    0.71630    1.000
    O37      O        0.72497    0.58880    0.61959    1.000
    O38      O        0.66239    0.72270    0.67557    1.000
    O39      O        0.68159    0.47870    0.67379    1.000
    O40      O        0.61959    0.61060    0.73021    1.000
    O41      O        0.79884    0.72890    0.68872    1.000
    O42      O        0.74709    0.88040    0.63724    1.000
    O43      O        0.85591    0.82330    0.74723    1.000
    O44      O        0.80563    0.97520    0.69476    1.000
    O45      O        0.68341    0.76060    0.53990    1.000
    O46      O        0.69544    0.77000    0.44338    1.000
    O47      O        0.54510    0.44900    0.68866    1.000
    O48      O        0.44200    0.45910    0.69531    1.000
    Cr6      Cr       0.62319    0.46465    0.74210    1.000
    C25      C        0.18970    0.93800    0.15850    1.000
    C26      C        0.15370    0.86090    0.19080    1.000
    C27      C        0.31680    0.69190    0.20700    1.000
    C28      C        0.28710    0.60370    0.17670    1.000
    C29      C        0.21480    0.74110    0.99520    1.000
    C30      C        0.99650    0.04690    0.21630    1.000
    O49      O        0.22497    0.91120    0.11959    1.000
    O50      O        0.16239    0.77730    0.17557    1.000
    O51      O        0.18159    0.02130    0.17379    1.000
    O52      O        0.11959    0.88940    0.23021    1.000
    O53      O        0.29884    0.77110    0.18872    1.000
    O54      O        0.24709    0.61960    0.13724    1.000
    O55      O        0.35591    0.67670    0.24723    1.000
    O56      O        0.30563    0.52480    0.19476    1.000
    O57      O        0.18341    0.73940    0.03990    1.000
    O58      O        0.19544    0.73000    0.94338    1.000
    O59      O        0.04510    0.05100    0.18866    1.000
    O60      O        0.94200    0.04090    0.19531    1.000
    Cr7      Cr       0.12319    0.03535    0.24210    1.000
    Cr8      Cr       0.23476    0.76259    0.11722    1.000
    Mn3      Mn       0.76524    0.76259    0.38278    1.000
    C31      C        0.68970    0.43800    0.15850    1.000
    C32      C        0.65370    0.36090    0.19080    1.000
    C33      C        0.81680    0.19190    0.20700    1.000
    C34      C        0.78710    0.10370    0.17670    1.000
    C35      C        0.71480    0.24110    0.99520    1.000
    C36      C        0.49650    0.54690    0.21630    1.000
    O61      O        0.72497    0.41120    0.11959    1.000
    O62      O        0.66239    0.27730    0.17557    1.000
    O63      O        0.68159    0.52130    0.17379    1.000
    O64      O        0.61959    0.38940    0.23021    1.000
    O65      O        0.79884    0.27110    0.18872    1.000
    O66      O        0.74709    0.11960    0.13724    1.000
    O67      O        0.85591    0.17670    0.24723    1.000
    O68      O        0.80563    0.02480    0.19476    1.000
    O69      O        0.68341    0.23940    0.03990    1.000
    O70      O        0.69544    0.23000    0.94338    1.000
    O71      O        0.54510    0.55100    0.18866    1.000
    O72      O        0.44200    0.54090    0.19531    1.000
    Cr9      Cr       0.62319    0.53535    0.24210    1.000
    Cr10     Cr       0.73476    0.26259    0.11722    1.000
    Mn4      Mn       0.26524    0.26259    0.38278    1.000
    C37      C        0.81030    0.93800    0.34150    1.000
    C38      C        0.84630    0.86090    0.30920    1.000
    C39      C        0.68320    0.69190    0.29300    1.000
    C40      C        0.71290    0.60370    0.32330    1.000
    C41      C        0.78520    0.74110    0.50480    1.000
    C42      C        0.00350    0.04690    0.28370    1.000
    O73      O        0.77503    0.91120    0.38041    1.000
    O74      O        0.83761    0.77730    0.32443    1.000
    O75      O        0.81841    0.02130    0.32621    1.000
    O76      O        0.88041    0.88940    0.26979    1.000
    O77      O        0.70116    0.77110    0.31128    1.000
    O78      O        0.75291    0.61960    0.36276    1.000
    O79      O        0.64409    0.67670    0.25277    1.000
    O80      O        0.69437    0.52480    0.30524    1.000
    O81      O        0.81659    0.73940    0.46010    1.000
    O82      O        0.80456    0.73000    0.55662    1.000
    O83      O        0.95490    0.05100    0.31134    1.000
    O84      O        0.05800    0.04090    0.30469    1.000
    Cr11     Cr       0.87681    0.03535    0.25790    1.000
    C43      C        0.31030    0.43800    0.34150    1.000
    C44      C        0.34630    0.36090    0.30920    1.000
    C45      C        0.18320    0.19190    0.29300    1.000
    C46      C        0.21290    0.10370    0.32330    1.000
    C47      C        0.28520    0.24110    0.50480    1.000
    C48      C        0.50350    0.54690    0.28370    1.000
    O85      O        0.27503    0.41120    0.38041    1.000
    O86      O        0.33761    0.27730    0.32443    1.000
    O87      O        0.31841    0.52130    0.32621    1.000
    O88      O        0.38041    0.38940    0.26979    1.000
    O89      O        0.20116    0.27110    0.31128    1.000
    O90      O        0.25291    0.11960    0.36276    1.000
    O91      O        0.14409    0.17670    0.25277    1.000
    O92      O        0.19437    0.02480    0.30524    1.000
    O93      O        0.31659    0.23940    0.46010    1.000
    O94      O        0.30456    0.23000    0.55662    1.000
    O95      O        0.45490    0.55100    0.31134    1.000
    O96      O        0.55800    0.54090    0.30469    1.000
    Cr12     Cr       0.37681    0.53535    0.25790    1.000
