# CIF file generated by openbabel 3.1.0, see https://openbabel.org
data_I
_chemical_name_common 'image0'
_cell_length_a 27.7069
_cell_length_b 27.7069
_cell_length_c 3.5719
_cell_angle_alpha 90
_cell_angle_beta 90
_cell_angle_gamma 90
_space_group_name_H-M_alt 'P 1'
_space_group_name_Hall 'P 1'
loop_
    _symmetry_equiv_pos_as_xyz
    x,y,z
loop_
    _atom_site_label
    _atom_site_type_symbol
    _atom_site_fract_x
    _atom_site_fract_y
    _atom_site_fract_z
    _atom_site_occupancy
    Zn1      Zn       0.28470    0.21404    0.84560    1.000
    N1       N        0.26020    0.14610    0.77800    1.000
    C1       C        0.28060    0.10870    0.93400    1.000
    H1       H        0.31090    0.11010    0.04530    1.000
    N2       N        0.25400    0.06760    0.91900    1.000
    C2       C        0.21530    0.12940    0.64700    1.000
    O1       O        0.27220    0.85830    0.61900    1.000
    C3       C        0.17870    0.15340    0.46100    1.000
    H2       H        0.18170    0.18600    0.40190    1.000
    O2       O        0.33880    0.86060    0.29400    1.000
    C4       C        0.13750    0.12800    0.36400    1.000
    C5       C        0.10000    0.14990    0.17400    1.000
    H3       H        0.10260    0.18240    0.11240    1.000
    C6       C        0.05850    0.12500    0.07200    1.000
    H4       H        0.03370    0.14050    0.94460    1.000
    C7       C        0.05500    0.07640    0.16500    1.000
    H5       H        0.02750    0.05910    0.09970    1.000
    C8       C        0.09230    0.05380    0.35300    1.000
    H6       H        0.08960    0.02130    0.41380    1.000
    C9       C        0.13410    0.07900    0.45500    1.000
    C10      C        0.17070    0.05500    0.64200    1.000
    H7       H        0.16800    0.02230    0.69880    1.000
    C11      C        0.21130    0.08070    0.74200    1.000
    C12      C        0.24460    0.94560    0.30800    1.000
    H8       H        0.22080    0.92470    0.39500    1.000
    C13      C        0.29270    0.93120    0.30900    1.000
    C14      C        0.32830    0.96240    0.18000    1.000
    H9       H        0.36040    0.95270    0.18070    1.000
    C15      C        0.31580    0.00800    0.05000    1.000
    H10      H        0.33960    0.02880    0.96340    1.000
    C16      C        0.26770    0.02240    0.04900    1.000
    C17      C        0.23220    0.99110    0.17800    1.000
    H11      H        0.20000    0.00080    0.17770    1.000
    C18      C        0.30090    0.88040    0.45400    1.000
    O3       O        0.28570    0.24790    0.35500    1.000
    H12      H        0.30870    0.23560    0.22980    1.000
    O4       O        0.34040    0.87500    0.65200    1.000
    Zn2      Zn       0.71530    0.78596    0.84560    1.000
    N3       N        0.73980    0.85390    0.77800    1.000
    C19      C        0.71940    0.89130    0.93400    1.000
    H13      H        0.68910    0.88990    0.04530    1.000
    N4       N        0.74600    0.93240    0.91900    1.000
    C20      C        0.78470    0.87060    0.64700    1.000
    O5       O        0.72780    0.14170    0.61900    1.000
    C21      C        0.82130    0.84660    0.46100    1.000
    H14      H        0.81830    0.81400    0.40190    1.000
    O6       O        0.66120    0.13940    0.29400    1.000
    C22      C        0.86250    0.87200    0.36400    1.000
    C23      C        0.90000    0.85010    0.17400    1.000
    H15      H        0.89740    0.81760    0.11240    1.000
    C24      C        0.94150    0.87500    0.07200    1.000
    H16      H        0.96630    0.85950    0.94460    1.000
    C25      C        0.94500    0.92360    0.16500    1.000
    H17      H        0.97250    0.94090    0.09970    1.000
    C26      C        0.90770    0.94620    0.35300    1.000
    H18      H        0.91040    0.97870    0.41380    1.000
    C27      C        0.86590    0.92100    0.45500    1.000
    C28      C        0.82930    0.94500    0.64200    1.000
    H19      H        0.83200    0.97770    0.69880    1.000
    C29      C        0.78870    0.91930    0.74200    1.000
    C30      C        0.75540    0.05440    0.30800    1.000
    H20      H        0.77920    0.07530    0.39500    1.000
    C31      C        0.70730    0.06880    0.30900    1.000
    C32      C        0.67170    0.03760    0.18000    1.000
    H21      H        0.63960    0.04730    0.18070    1.000
    C33      C        0.68420    0.99200    0.05000    1.000
    H22      H        0.66040    0.97120    0.96340    1.000
    C34      C        0.73230    0.97760    0.04900    1.000
    C35      C        0.76780    0.00890    0.17800    1.000
    H23      H        0.80000    0.99920    0.17770    1.000
    C36      C        0.69910    0.11960    0.45400    1.000
    O7       O        0.71430    0.75210    0.35500    1.000
    H24      H        0.69130    0.76440    0.22980    1.000
    O8       O        0.65960    0.12500    0.65200    1.000
    Zn3      Zn       0.71404    0.21530    0.65440    1.000
    N5       N        0.64610    0.23980    0.72200    1.000
    C37      C        0.60870    0.21940    0.56600    1.000
    H25      H        0.61010    0.18910    0.45470    1.000
    N6       N        0.56760    0.24600    0.58100    1.000
    C38      C        0.62940    0.28470    0.85300    1.000
    O9       O        0.35830    0.22780    0.88100    1.000
    C39      C        0.65340    0.32130    0.03900    1.000
    H26      H        0.68600    0.31830    0.09810    1.000
    O10      O        0.36060    0.16120    0.20600    1.000
    C40      C        0.62800    0.36250    0.13600    1.000
    C41      C        0.64990    0.40000    0.32600    1.000
    H27      H        0.68240    0.39740    0.38760    1.000
    C42      C        0.62500    0.44150    0.42800    1.000
    H28      H        0.64050    0.46630    0.55540    1.000
    C43      C        0.57640    0.44500    0.33500    1.000
    H29      H        0.55910    0.47250    0.40030    1.000
    C44      C        0.55380    0.40770    0.14700    1.000
    H30      H        0.52130    0.41040    0.08620    1.000
    C45      C        0.57900    0.36590    0.04500    1.000
    C46      C        0.55500    0.32930    0.85800    1.000
    H31      H        0.52230    0.33200    0.80120    1.000
    C47      C        0.58070    0.28870    0.75800    1.000
    C48      C        0.44560    0.25540    0.19200    1.000
    H32      H        0.42470    0.27920    0.10500    1.000
    C49      C        0.43120    0.20730    0.19100    1.000
    C50      C        0.46240    0.17170    0.32000    1.000
    H33      H        0.45270    0.13960    0.31930    1.000
    C51      C        0.50800    0.18420    0.45000    1.000
    H34      H        0.52880    0.16040    0.53660    1.000
    C52      C        0.52240    0.23230    0.45100    1.000
    C53      C        0.49110    0.26780    0.32200    1.000
    H35      H        0.50080    0.30000    0.32230    1.000
    C54      C        0.38040    0.19910    0.04600    1.000
    O11      O        0.74790    0.21430    0.14500    1.000
    H36      H        0.73560    0.19130    0.27020    1.000
    O12      O        0.37500    0.15960    0.84800    1.000
    Zn4      Zn       0.28596    0.78470    0.65440    1.000
    N7       N        0.35390    0.76020    0.72200    1.000
    C55      C        0.39130    0.78060    0.56600    1.000
    H37      H        0.38990    0.81090    0.45470    1.000
    N8       N        0.43240    0.75400    0.58100    1.000
    C56      C        0.37060    0.71530    0.85300    1.000
    O13      O        0.64170    0.77220    0.88100    1.000
    C57      C        0.34660    0.67870    0.03900    1.000
    H38      H        0.31400    0.68170    0.09810    1.000
    O14      O        0.63940    0.83880    0.20600    1.000
    C58      C        0.37200    0.63750    0.13600    1.000
    C59      C        0.35010    0.60000    0.32600    1.000
    H39      H        0.31760    0.60260    0.38760    1.000
    C60      C        0.37500    0.55850    0.42800    1.000
    H40      H        0.35950    0.53370    0.55540    1.000
    C61      C        0.42360    0.55500    0.33500    1.000
    H41      H        0.44090    0.52750    0.40030    1.000
    C62      C        0.44620    0.59230    0.14700    1.000
    H42      H        0.47870    0.58960    0.08620    1.000
    C63      C        0.42100    0.63410    0.04500    1.000
    C64      C        0.44500    0.67070    0.85800    1.000
    H43      H        0.47770    0.66800    0.80120    1.000
    C65      C        0.41930    0.71130    0.75800    1.000
    C66      C        0.55440    0.74460    0.19200    1.000
    H44      H        0.57530    0.72080    0.10500    1.000
    C67      C        0.56880    0.79270    0.19100    1.000
    C68      C        0.53760    0.82830    0.32000    1.000
    H45      H        0.54730    0.86040    0.31930    1.000
    C69      C        0.49200    0.81580    0.45000    1.000
    H46      H        0.47120    0.83960    0.53660    1.000
    C70      C        0.47760    0.76770    0.45100    1.000
    C71      C        0.50890    0.73220    0.32200    1.000
    H47      H        0.49920    0.70000    0.32230    1.000
    C72      C        0.61960    0.80090    0.04600    1.000
    O15      O        0.25210    0.78570    0.14500    1.000
    H48      H        0.26440    0.80870    0.27020    1.000
    O16      O        0.62500    0.84040    0.84800    1.000
    Zn5      Zn       0.78470    0.71404    0.34560    1.000
    N9       N        0.76020    0.64610    0.27800    1.000
    C73      C        0.78060    0.60870    0.43400    1.000
    H49      H        0.81090    0.61010    0.54530    1.000
    N10      N        0.75400    0.56760    0.41900    1.000
    C74      C        0.71530    0.62940    0.14700    1.000
    O17      O        0.77220    0.35830    0.11900    1.000
    C75      C        0.67870    0.65340    0.96100    1.000
    H50      H        0.68170    0.68600    0.90190    1.000
    O18      O        0.83880    0.36060    0.79400    1.000
    C76      C        0.63750    0.62800    0.86400    1.000
    C77      C        0.60000    0.64990    0.67400    1.000
    H51      H        0.60260    0.68240    0.61240    1.000
    C78      C        0.55850    0.62500    0.57200    1.000
    H52      H        0.53370    0.64050    0.44460    1.000
    C79      C        0.55500    0.57640    0.66500    1.000
    H53      H        0.52750    0.55910    0.59970    1.000
    C80      C        0.59230    0.55380    0.85300    1.000
    H54      H        0.58960    0.52130    0.91380    1.000
    C81      C        0.63410    0.57900    0.95500    1.000
    C82      C        0.67070    0.55500    0.14200    1.000
    H55      H        0.66800    0.52230    0.19880    1.000
    C83      C        0.71130    0.58070    0.24200    1.000
    C84      C        0.74460    0.44560    0.80800    1.000
    H56      H        0.72080    0.42470    0.89500    1.000
    C85      C        0.79270    0.43120    0.80900    1.000
    C86      C        0.82830    0.46240    0.68000    1.000
    H57      H        0.86040    0.45270    0.68070    1.000
    C87      C        0.81580    0.50800    0.55000    1.000
    H58      H        0.83960    0.52880    0.46340    1.000
    C88      C        0.76770    0.52240    0.54900    1.000
    C89      C        0.73220    0.49110    0.67800    1.000
    H59      H        0.70000    0.50080    0.67770    1.000
    C90      C        0.80090    0.38040    0.95400    1.000
    O19      O        0.78570    0.74790    0.85500    1.000
    H60      H        0.80870    0.73560    0.72980    1.000
    O20      O        0.84040    0.37500    0.15200    1.000
    Zn6      Zn       0.21530    0.28596    0.34560    1.000
    N11      N        0.23980    0.35390    0.27800    1.000
    C91      C        0.21940    0.39130    0.43400    1.000
    H61      H        0.18910    0.38990    0.54530    1.000
    N12      N        0.24600    0.43240    0.41900    1.000
    C92      C        0.28470    0.37060    0.14700    1.000
    O21      O        0.22780    0.64170    0.11900    1.000
    C93      C        0.32130    0.34660    0.96100    1.000
    H62      H        0.31830    0.31400    0.90190    1.000
    O22      O        0.16120    0.63940    0.79400    1.000
    C94      C        0.36250    0.37200    0.86400    1.000
    C95      C        0.40000    0.35010    0.67400    1.000
    H63      H        0.39740    0.31760    0.61240    1.000
    C96      C        0.44150    0.37500    0.57200    1.000
    H64      H        0.46630    0.35950    0.44460    1.000
    C97      C        0.44500    0.42360    0.66500    1.000
    H65      H        0.47250    0.44090    0.59970    1.000
    C98      C        0.40770    0.44620    0.85300    1.000
    H66      H        0.41040    0.47870    0.91380    1.000
    C99      C        0.36590    0.42100    0.95500    1.000
    C100     C        0.32930    0.44500    0.14200    1.000
    H67      H        0.33200    0.47770    0.19880    1.000
    C101     C        0.28870    0.41930    0.24200    1.000
    C102     C        0.25540    0.55440    0.80800    1.000
    H68      H        0.27920    0.57530    0.89500    1.000
    C103     C        0.20730    0.56880    0.80900    1.000
    C104     C        0.17170    0.53760    0.68000    1.000
    H69      H        0.13960    0.54730    0.68070    1.000
    C105     C        0.18420    0.49200    0.55000    1.000
    H70      H        0.16040    0.47120    0.46340    1.000
    C106     C        0.23230    0.47760    0.54900    1.000
    C107     C        0.26780    0.50890    0.67800    1.000
    H71      H        0.30000    0.49920    0.67770    1.000
    C108     C        0.19910    0.61960    0.95400    1.000
    O23      O        0.21430    0.25210    0.85500    1.000
    H72      H        0.19130    0.26440    0.72980    1.000
    O24      O        0.15960    0.62500    0.15200    1.000
    Zn7      Zn       0.21404    0.71530    0.15440    1.000
    N13      N        0.14610    0.73980    0.22200    1.000
    C109     C        0.10870    0.71940    0.06600    1.000
    H73      H        0.11010    0.68910    0.95470    1.000
    N14      N        0.06760    0.74600    0.08100    1.000
    C110     C        0.12940    0.78470    0.35300    1.000
    O25      O        0.85830    0.72780    0.38100    1.000
    C111     C        0.15340    0.82130    0.53900    1.000
    H74      H        0.18600    0.81830    0.59810    1.000
    O26      O        0.86060    0.66120    0.70600    1.000
    C112     C        0.12800    0.86250    0.63600    1.000
    C113     C        0.14990    0.90000    0.82600    1.000
    H75      H        0.18240    0.89740    0.88760    1.000
    C114     C        0.12500    0.94150    0.92800    1.000
    H76      H        0.14050    0.96630    0.05540    1.000
    C115     C        0.07640    0.94500    0.83500    1.000
    H77      H        0.05910    0.97250    0.90030    1.000
    C116     C        0.05380    0.90770    0.64700    1.000
    H78      H        0.02130    0.91040    0.58620    1.000
    C117     C        0.07900    0.86590    0.54500    1.000
    C118     C        0.05500    0.82930    0.35800    1.000
    H79      H        0.02230    0.83200    0.30120    1.000
    C119     C        0.08070    0.78870    0.25800    1.000
    C120     C        0.94560    0.75540    0.69200    1.000
    H80      H        0.92470    0.77920    0.60500    1.000
    C121     C        0.93120    0.70730    0.69100    1.000
    C122     C        0.96240    0.67170    0.82000    1.000
    H81      H        0.95270    0.63960    0.81930    1.000
    C123     C        0.00800    0.68420    0.95000    1.000
    H82      H        0.02880    0.66040    0.03660    1.000
    C124     C        0.02240    0.73230    0.95100    1.000
    C125     C        0.99110    0.76780    0.82200    1.000
    H83      H        0.00080    0.80000    0.82230    1.000
    C126     C        0.88040    0.69910    0.54600    1.000
    O27      O        0.24790    0.71430    0.64500    1.000
    H84      H        0.23560    0.69130    0.77020    1.000
    O28      O        0.87500    0.65960    0.34800    1.000
    Zn8      Zn       0.78596    0.28470    0.15440    1.000
    N15      N        0.85390    0.26020    0.22200    1.000
    C127     C        0.89130    0.28060    0.06600    1.000
    H85      H        0.88990    0.31090    0.95470    1.000
    N16      N        0.93240    0.25400    0.08100    1.000
    C128     C        0.87060    0.21530    0.35300    1.000
    O29      O        0.14170    0.27220    0.38100    1.000
    C129     C        0.84660    0.17870    0.53900    1.000
    H86      H        0.81400    0.18170    0.59810    1.000
    O30      O        0.13940    0.33880    0.70600    1.000
    C130     C        0.87200    0.13750    0.63600    1.000
    C131     C        0.85010    0.10000    0.82600    1.000
    H87      H        0.81760    0.10260    0.88760    1.000
    C132     C        0.87500    0.05850    0.92800    1.000
    H88      H        0.85950    0.03370    0.05540    1.000
    C133     C        0.92360    0.05500    0.83500    1.000
    H89      H        0.94090    0.02750    0.90030    1.000
    C134     C        0.94620    0.09230    0.64700    1.000
    H90      H        0.97870    0.08960    0.58620    1.000
    C135     C        0.92100    0.13410    0.54500    1.000
    C136     C        0.94500    0.17070    0.35800    1.000
    H91      H        0.97770    0.16800    0.30120    1.000
    C137     C        0.91930    0.21130    0.25800    1.000
    C138     C        0.05440    0.24460    0.69200    1.000
    H92      H        0.07530    0.22080    0.60500    1.000
    C139     C        0.06880    0.29270    0.69100    1.000
    C140     C        0.03760    0.32830    0.82000    1.000
    H93      H        0.04730    0.36040    0.81930    1.000
    C141     C        0.99200    0.31580    0.95000    1.000
    H94      H        0.97120    0.33960    0.03660    1.000
    C142     C        0.97760    0.26770    0.95100    1.000
    C143     C        0.00890    0.23220    0.82200    1.000
    H95      H        0.99920    0.20000    0.82230    1.000
    C144     C        0.11960    0.30090    0.54600    1.000
    O31      O        0.75210    0.28570    0.64500    1.000
    H96      H        0.76440    0.30870    0.77020    1.000
    O32      O        0.12500    0.34040    0.34800    1.000
