data_functionalizedCrystal
_audit_creation_method	'EQeq! by Chris Wilmer'
_symmetry_space_group_name_H-M	'P1'
_symmetry_Int_Tables_number	1
_symmetry_cell_setting	triclinic
loop_
_symmetry_equiv_pos_as_xyz
  x,y,z
_cell_length_a	17.983
_cell_length_b	9.859
_cell_length_c	19.84
_cell_angle_alpha	90
_cell_angle_beta	106.24
_cell_angle_gamma	90
loop_
_atom_site_label
_atom_site_type_symbol
_atom_site_fract_x
_atom_site_fract_y
_atom_site_fract_z
_atom_site_charge
Mof_Ga	Ga	0.0752	0.0719	0.5011	4.21
Mof_Ga	Ga	0.1906	0.5791	0.6612	4.255
Mof_Ga	Ga	0.1903	0.8175	0.7594	4.228
Mof_P 	P 	0.0812	0.8277	0.6049	1.017
Mof_P 	P 	0.1409	0.272	0.6316	0.918
Mof_P 	P 	0.1656	0.0196	0.3849	0.911
Mof_F 	F 	0.0083	0.9227	0.4499	-1.282
Mof_F 	F 	0.1458	0.6377	0.7397	-1.291
Mof_F 	F 	0.2444	0.7535	0.6909	-1.307
Mof_O 	O 	0.1131	0.6858	0.5994	-1.001
Mof_O 	O 	0.1185	0.9302	0.5666	-0.99
Mof_O 	O 	0.9924	0.8184	0.5717	-0.928
Mof_O 	O 	0.098	0.8707	0.6831	-0.896
Mof_O 	O 	0.1524	0.058	0.4538	-0.984
Mof_O 	O 	0.1214	0.2276	0.5551	-0.956
Mof_O 	O 	0.1455	0.1396	0.3328	-0.993
Mof_O 	O 	0.2227	0.2331	0.6711	-0.956
Mof_O 	O 	0.0831	0.197	0.6675	-0.233
Mof_O 	O 	0.1248	0.4227	0.6384	-0.976
Mof_O 	O 	0.2486	0.9616	0.4007	-0.996
Mof_O 	O 	0.1097	0.9007	0.3502	-0.263
Mof_O 	O 	0.2635	0.4911	0.7385	-1.42
Mof_H 	H 	0.28	0.46	0.21	-0.074
Mof_Ga	Ga	0.5752	0.5719	0.5011	4.214
Mof_Ga	Ga	0.6906	0.0791	0.6612	4.243
Mof_Ga	Ga	0.6903	0.3175	0.7594	4.228
Mof_P 	P 	0.5812	0.3277	0.6049	1.015
Mof_P 	P 	0.6409	0.772	0.6316	0.918
Mof_P 	P 	0.6656	0.5196	0.3849	0.908
Mof_F 	F 	0.5083	0.4227	0.4499	-1.28
Mof_F 	F 	0.6458	0.1377	0.7397	-1.293
Mof_F 	F 	0.7444	0.2535	0.6909	-1.306
Mof_O 	O 	0.6131	0.1858	0.5994	-0.999
Mof_O 	O 	0.6185	0.4302	0.5666	-0.992
Mof_O 	O 	0.4924	0.3184	0.5717	-0.925
Mof_O 	O 	0.598	0.3707	0.6831	-0.898
Mof_O 	O 	0.6524	0.558	0.4538	-0.984
Mof_O 	O 	0.6214	0.7276	0.5551	-0.956
Mof_O 	O 	0.6455	0.6396	0.3328	-0.994
Mof_O 	O 	0.7227	0.7331	0.6711	-0.953
Mof_O 	O 	0.5831	0.697	0.6675	-0.232
Mof_O 	O 	0.6248	0.9227	0.6384	-0.971
Mof_O 	O 	0.7486	0.4616	0.4007	-0.996
Mof_O 	O 	0.6097	0.4007	0.3502	-0.258
Mof_O 	O 	0.7635	0.9911	0.7385	-1.408
Mof_H 	H 	0.78	0.96	0.21	-0.083
Mof_Ga	Ga	0.9248	0.0719	0.9989	4.093
Mof_Ga	Ga	0.8094	0.5791	0.8388	4.25
Mof_Ga	Ga	0.8097	0.8175	0.7406	4.225
Mof_P 	P 	0.9188	0.8277	0.8951	0.997
Mof_P 	P 	0.8591	0.272	0.8684	0.914
Mof_P 	P 	0.8344	0.0196	0.1151	0.918
Mof_F 	F 	0.9917	0.9227	0.0501	-1.251
Mof_F 	F 	0.8542	0.6377	0.7603	-1.292
Mof_F 	F 	0.7556	0.7535	0.8091	-1.305
Mof_O 	O 	0.8869	0.6858	0.9006	-0.999
Mof_O 	O 	0.8815	0.9302	0.9334	-0.967
Mof_O 	O 	0.0076	0.8184	0.9283	-0.885
Mof_O 	O 	0.902	0.8707	0.8169	-0.896
Mof_O 	O 	0.8476	0.058	0.0462	-0.949
Mof_O 	O 	0.8786	0.2276	0.9449	-0.944
Mof_O 	O 	0.8545	0.1396	0.1672	-0.99
Mof_O 	O 	0.7773	0.2331	0.8289	-0.955
Mof_O 	O 	0.9169	0.197	0.8325	-0.237
Mof_O 	O 	0.8752	0.4227	0.8616	-0.977
Mof_O 	O 	0.7514	0.9616	0.0993	-1
Mof_O 	O 	0.8903	0.9007	0.1498	-0.262
Mof_O 	O 	0.7365	0.4911	0.7615	-1.419
Mof_H 	H 	0.72	0.46	0.29	-0.075
Mof_Ga	Ga	0.4248	0.5719	0.9989	4.239
Mof_Ga	Ga	0.3094	0.0791	0.8388	4.231
Mof_Ga	Ga	0.3097	0.3175	0.7406	4.232
Mof_P 	P 	0.4188	0.3277	0.8951	1.017
Mof_P 	P 	0.3591	0.772	0.8684	0.919
Mof_P 	P 	0.3344	0.5196	0.1151	0.909
Mof_F 	F 	0.4917	0.4227	0.0501	-1.285
Mof_F 	F 	0.3542	0.1377	0.7603	-1.292
Mof_F 	F 	0.2556	0.2535	0.8091	-1.304
Mof_O 	O 	0.3869	0.1858	0.9006	-0.999
Mof_O 	O 	0.3815	0.4302	0.9334	-0.995
Mof_O 	O 	0.5076	0.3184	0.9283	-0.932
Mof_O 	O 	0.402	0.3707	0.8169	-0.899
Mof_O 	O 	0.3476	0.558	0.0462	-0.99
Mof_O 	O 	0.3786	0.7276	0.9449	-0.955
Mof_O 	O 	0.3545	0.6396	0.1672	-0.995
Mof_O 	O 	0.2773	0.7331	0.8289	-0.953
Mof_O 	O 	0.4169	0.697	0.8325	-0.232
Mof_O 	O 	0.3752	0.9227	0.8616	-0.965
Mof_O 	O 	0.2514	0.4616	0.0993	-0.996
Mof_O 	O 	0.3903	0.4007	0.1498	-0.258
Mof_O 	O 	0.2365	0.9911	0.7615	-1.404
Mof_H 	H 	0.22	0.96	0.29	-0.081
Mof_Ga	Ga	0.9248	0.9281	0.4989	4.211
Mof_Ga	Ga	0.8094	0.4209	0.3388	4.256
Mof_Ga	Ga	0.8097	0.1825	0.2406	4.229
Mof_P 	P 	0.9188	0.1723	0.3951	1.018
Mof_P 	P 	0.8591	0.728	0.3684	0.919
Mof_P 	P 	0.8344	0.9804	0.6151	0.912
Mof_F 	F 	0.9917	0.0773	0.5501	-1.282
Mof_F 	F 	0.8542	0.3623	0.2603	-1.291
Mof_F 	F 	0.7556	0.2465	0.3091	-1.307
Mof_O 	O 	0.8869	0.3142	0.4006	-1.001
Mof_O 	O 	0.8815	0.0698	0.4334	-0.99
Mof_O 	O 	0.0076	0.1816	0.4283	-0.928
Mof_O 	O 	0.902	0.1293	0.3169	-0.896
Mof_O 	O 	0.8476	0.942	0.5462	-0.984
Mof_O 	O 	0.8786	0.7724	0.4449	-0.956
Mof_O 	O 	0.8545	0.8604	0.6672	-0.993
Mof_O 	O 	0.7773	0.7669	0.3289	-0.956
Mof_O 	O 	0.9169	0.803	0.3325	-0.233
Mof_O 	O 	0.8752	0.5773	0.3616	-0.976
Mof_O 	O 	0.7514	0.0384	0.5993	-0.996
Mof_O 	O 	0.8903	0.0993	0.6498	-0.263
Mof_O 	O 	0.7365	0.5089	0.2615	-1.42
Mof_H 	H 	0.72	0.54	0.79	-0.074
Mof_Ga	Ga	0.4248	0.4281	0.4989	4.214
Mof_Ga	Ga	0.3094	0.9209	0.3388	4.243
Mof_Ga	Ga	0.3097	0.6825	0.2406	4.228
Mof_P 	P 	0.4188	0.6723	0.3951	1.015
Mof_P 	P 	0.3591	0.228	0.3684	0.918
Mof_P 	P 	0.3344	0.4804	0.6151	0.908
Mof_F 	F 	0.4917	0.5773	0.5501	-1.28
Mof_F 	F 	0.3542	0.8623	0.2603	-1.293
Mof_F 	F 	0.2556	0.7465	0.3091	-1.306
Mof_O 	O 	0.3869	0.8142	0.4006	-0.999
Mof_O 	O 	0.3815	0.5698	0.4334	-0.992
Mof_O 	O 	0.5076	0.6816	0.4283	-0.925
Mof_O 	O 	0.402	0.6293	0.3169	-0.898
Mof_O 	O 	0.3476	0.442	0.5462	-0.984
Mof_O 	O 	0.3786	0.2724	0.4449	-0.956
Mof_O 	O 	0.3545	0.3604	0.6672	-0.994
Mof_O 	O 	0.2773	0.2669	0.3289	-0.953
Mof_O 	O 	0.4169	0.303	0.3325	-0.232
Mof_O 	O 	0.3752	0.0773	0.3616	-0.971
Mof_O 	O 	0.2514	0.5384	0.5993	-0.996
Mof_O 	O 	0.3903	0.5993	0.6498	-0.258
Mof_O 	O 	0.2365	0.0089	0.2615	-1.408
Mof_H 	H 	0.22	0.04	0.79	-0.083
Mof_Ga	Ga	0.0752	0.9281	0.0011	4.093
Mof_Ga	Ga	0.1906	0.4209	0.1612	4.25
Mof_Ga	Ga	0.1903	0.1825	0.2594	4.225
Mof_P 	P 	0.0812	0.1723	0.1049	0.997
Mof_P 	P 	0.1409	0.728	0.1316	0.914
Mof_P 	P 	0.1656	0.9804	0.8849	0.918
Mof_F 	F 	0.0083	0.0773	0.9499	-1.251
Mof_F 	F 	0.1458	0.3623	0.2397	-1.292
Mof_F 	F 	0.2444	0.2465	0.1909	-1.305
Mof_O 	O 	0.1131	0.3142	0.0994	-0.999
Mof_O 	O 	0.1185	0.0698	0.0666	-0.967
Mof_O 	O 	0.9924	0.1816	0.0717	-0.885
Mof_O 	O 	0.098	0.1293	0.1831	-0.896
Mof_O 	O 	0.1524	0.942	0.9538	-0.949
Mof_O 	O 	0.1214	0.7724	0.0551	-0.944
Mof_O 	O 	0.1455	0.8604	0.8328	-0.99
Mof_O 	O 	0.2227	0.7669	0.1711	-0.955
Mof_O 	O 	0.0831	0.803	0.1675	-0.237
Mof_O 	O 	0.1248	0.5773	0.1384	-0.977
Mof_O 	O 	0.2486	0.0384	0.9007	-1
Mof_O 	O 	0.1097	0.0993	0.8502	-0.262
Mof_O 	O 	0.2635	0.5089	0.2385	-1.419
Mof_H 	H 	0.28	0.54	0.71	-0.075
Mof_Ga	Ga	0.5752	0.4281	0.0011	4.239
Mof_Ga	Ga	0.6906	0.9209	0.1612	4.231
Mof_Ga	Ga	0.6903	0.6825	0.2594	4.232
Mof_P 	P 	0.5812	0.6723	0.1049	1.017
Mof_P 	P 	0.6409	0.228	0.1316	0.919
Mof_P 	P 	0.6656	0.4804	0.8849	0.909
Mof_F 	F 	0.5083	0.5773	0.9499	-1.285
Mof_F 	F 	0.6458	0.8623	0.2397	-1.292
Mof_F 	F 	0.7444	0.7465	0.1909	-1.304
Mof_O 	O 	0.6131	0.8142	0.0994	-0.999
Mof_O 	O 	0.6185	0.5698	0.0666	-0.995
Mof_O 	O 	0.4924	0.6816	0.0717	-0.932
Mof_O 	O 	0.598	0.6293	0.1831	-0.899
Mof_O 	O 	0.6524	0.442	0.9538	-0.99
Mof_O 	O 	0.6214	0.2724	0.0551	-0.955
Mof_O 	O 	0.6455	0.3604	0.8328	-0.995
Mof_O 	O 	0.7227	0.2669	0.1711	-0.953
Mof_O 	O 	0.5831	0.303	0.1675	-0.232
Mof_O 	O 	0.6248	0.0773	0.1384	-0.965
Mof_O 	O 	0.7486	0.5384	0.9007	-0.996
Mof_O 	O 	0.6097	0.5993	0.8502	-0.258
Mof_O 	O 	0.7635	0.0089	0.2385	-1.404
Mof_H 	H 	0.78	0.04	0.71	-0.081
_end
