data_functionalizedCrystal
_audit_creation_method	'EQeq! by Chris Wilmer'
_symmetry_space_group_name_H-M	'P1'
_symmetry_Int_Tables_number	1
_symmetry_cell_setting	triclinic
loop_
_symmetry_equiv_pos_as_xyz
  x,y,z
_cell_length_a	8.7745
_cell_length_b	20.668
_cell_length_c	34.203
_cell_angle_alpha	90
_cell_angle_beta	90
_cell_angle_gamma	90
loop_
_atom_site_label
_atom_site_type_symbol
_atom_site_fract_x
_atom_site_fract_y
_atom_site_fract_z
_atom_site_charge
Mof_O 	O 	0.2464	0.3351	0.5929	-0.614
Mof_O 	O 	0.0105	0.3341	0.5702	-0.565
Mof_O 	O 	0.2444	0.4581	0.6366	-0.584
Mof_C 	C 	0.1493	0.3205	0.5682	0.561
Mof_C 	C 	0.2012	0.2844	0.5325	-0.152
Mof_C 	C 	0.096	0.2641	0.5049	-0.003
Mof_C 	C 	0.1462	0.2296	0.4725	0.014
Mof_C 	C 	0.2451	0.591	0.6417	0.003
Mof_C 	C 	0.2452	0.6584	0.6416	-0.007
Mof_H 	H 	0.9908	0.2738	0.5081	0.044
Mof_H 	H 	0.0746	0.2155	0.4535	0.026
Mof_H 	H 	0.3224	0.5681	0.6554	0.036
Mof_H 	H 	0.3223	0.6811	0.6554	0.032
Mof_O 	O 	0.2464	0.8351	0.0929	-0.613
Mof_O 	O 	0.0105	0.8341	0.0702	-0.562
Mof_O 	O 	0.2444	0.9581	0.1366	-0.582
Mof_C 	C 	0.1493	0.8205	0.0682	0.564
Mof_C 	C 	0.2012	0.7844	0.0325	-0.155
Mof_C 	C 	0.096	0.7641	0.0049	0.008
Mof_C 	C 	0.1462	0.7296	0.9725	0.008
Mof_C 	C 	0.2451	0.091	0.1417	0.003
Mof_C 	C 	0.2452	0.1584	0.1416	-0.008
Mof_H 	H 	0.9908	0.7738	0.0081	0.039
Mof_H 	H 	0.0746	0.7155	0.9535	0.029
Mof_H 	H 	0.3224	0.0681	0.1554	0.036
Mof_H 	H 	0.3223	0.1811	0.1554	0.032
Mof_O 	O 	0.7464	0.3351	0.0929	-0.613
Mof_O 	O 	0.5105	0.3341	0.0702	-0.564
Mof_O 	O 	0.7444	0.4581	0.1366	-0.583
Mof_C 	C 	0.6493	0.3205	0.0682	0.562
Mof_C 	C 	0.7012	0.2844	0.0325	-0.149
Mof_C 	C 	0.596	0.2641	0.0049	-0.002
Mof_C 	C 	0.6462	0.2296	0.9725	0.015
Mof_C 	C 	0.7451	0.591	0.1417	0.003
Mof_C 	C 	0.7452	0.6584	0.1416	-0.008
Mof_H 	H 	0.4908	0.2738	0.0081	0.044
Mof_H 	H 	0.5746	0.2155	0.9535	0.027
Mof_H 	H 	0.8224	0.5681	0.1554	0.036
Mof_H 	H 	0.8223	0.6811	0.1554	0.032
Mof_O 	O 	0.7464	0.8351	0.5929	-0.613
Mof_O 	O 	0.5105	0.8341	0.5702	-0.564
Mof_O 	O 	0.7444	0.9581	0.6366	-0.583
Mof_C 	C 	0.6493	0.8205	0.5682	0.563
Mof_C 	C 	0.7012	0.7844	0.5325	-0.153
Mof_C 	C 	0.596	0.7641	0.5049	0.001
Mof_C 	C 	0.6462	0.7296	0.4725	0.012
Mof_C 	C 	0.7451	0.091	0.6417	0.003
Mof_C 	C 	0.7452	0.1584	0.6416	-0.008
Mof_H 	H 	0.4908	0.7738	0.5081	0.043
Mof_H 	H 	0.5746	0.7155	0.4535	0.028
Mof_H 	H 	0.8224	0.0681	0.6554	0.037
Mof_H 	H 	0.8223	0.1811	0.6554	0.032
Mof_O 	O 	0.5036	0.4149	0.5929	-0.614
Mof_O 	O 	0.7395	0.4159	0.5702	-0.564
Mof_O 	O 	0.5056	0.2919	0.6366	-0.583
Mof_C 	C 	0.6007	0.4295	0.5682	0.563
Mof_C 	C 	0.5488	0.4656	0.5325	-0.152
Mof_C 	C 	0.654	0.4859	0.5049	0.001
Mof_C 	C 	0.6038	0.5204	0.4725	0.013
Mof_C 	C 	0.5049	0.159	0.6417	0.003
Mof_C 	C 	0.5048	0.0916	0.6416	-0.008
Mof_H 	H 	0.7592	0.4762	0.5081	0.043
Mof_H 	H 	0.6754	0.5345	0.4535	0.028
Mof_H 	H 	0.4276	0.1819	0.6554	0.036
Mof_H 	H 	0.4277	0.0689	0.6554	0.032
Mof_O 	O 	0.5036	0.9149	0.0929	-0.613
Mof_O 	O 	0.7395	0.9159	0.0702	-0.564
Mof_O 	O 	0.5056	0.7919	0.1366	-0.582
Mof_C 	C 	0.6007	0.9295	0.0682	0.563
Mof_C 	C 	0.5488	0.9656	0.0325	-0.152
Mof_C 	C 	0.654	0.9859	0.0049	-0
Mof_C 	C 	0.6038	0.0204	0.9725	0.014
Mof_C 	C 	0.5049	0.659	0.1417	0.003
Mof_C 	C 	0.5048	0.5916	0.1416	-0.008
Mof_H 	H 	0.7592	0.9762	0.0081	0.042
Mof_H 	H 	0.6754	0.0345	0.9535	0.028
Mof_H 	H 	0.4276	0.6819	0.1554	0.036
Mof_H 	H 	0.4277	0.5689	0.1554	0.032
Mof_O 	O 	0.0036	0.4149	0.0929	-0.613
Mof_O 	O 	0.2395	0.4159	0.0702	-0.564
Mof_O 	O 	0.0056	0.2919	0.1366	-0.582
Mof_C 	C 	0.1007	0.4295	0.0682	0.563
Mof_C 	C 	0.0488	0.4656	0.0325	-0.151
Mof_C 	C 	0.154	0.4859	0.0049	0.001
Mof_C 	C 	0.1038	0.5204	0.9725	0.011
Mof_C 	C 	0.0049	0.159	0.1417	0.003
Mof_C 	C 	0.0048	0.0916	0.1416	-0.009
Mof_H 	H 	0.2592	0.4762	0.0081	0.043
Mof_H 	H 	0.1754	0.5345	0.9535	0.028
Mof_H 	H 	0.9276	0.1819	0.1554	0.037
Mof_H 	H 	0.9277	0.0689	0.1554	0.033
Mof_O 	O 	0.0036	0.9149	0.5929	-0.611
Mof_O 	O 	0.2395	0.9159	0.5702	-0.563
Mof_O 	O 	0.0056	0.7919	0.6366	-0.581
Mof_C 	C 	0.1007	0.9295	0.5682	0.562
Mof_C 	C 	0.0488	0.9656	0.5325	-0.149
Mof_C 	C 	0.154	0.9859	0.5049	0.004
Mof_C 	C 	0.1038	0.0204	0.4725	0.006
Mof_C 	C 	0.0049	0.659	0.6417	0.005
Mof_C 	C 	0.0048	0.5916	0.6416	-0.007
Mof_H 	H 	0.2592	0.9762	0.5081	0.042
Mof_H 	H 	0.1754	0.0345	0.4535	0.029
Mof_H 	H 	0.9276	0.6819	0.6554	0.035
Mof_H 	H 	0.9277	0.5689	0.6554	0.031
Mof_O 	O 	0.5036	0.3351	0.1571	-0.614
Mof_O 	O 	0.7395	0.3341	0.1798	-0.564
Mof_O 	O 	0.5056	0.4581	0.1134	-0.583
Mof_C 	C 	0.6007	0.3205	0.1818	0.563
Mof_C 	C 	0.5488	0.2844	0.2175	-0.152
Mof_C 	C 	0.654	0.2641	0.2451	0.001
Mof_C 	C 	0.6038	0.2296	0.2775	0.013
Mof_C 	C 	0.5049	0.591	0.1083	0.003
Mof_C 	C 	0.5048	0.6584	0.1084	-0.008
Mof_H 	H 	0.7592	0.2738	0.2419	0.043
Mof_H 	H 	0.6754	0.2155	0.2965	0.028
Mof_H 	H 	0.4276	0.5681	0.0946	0.036
Mof_H 	H 	0.4277	0.6811	0.0946	0.032
Mof_O 	O 	0.5036	0.8351	0.6571	-0.613
Mof_O 	O 	0.7395	0.8341	0.6798	-0.564
Mof_O 	O 	0.5056	0.9581	0.6134	-0.582
Mof_C 	C 	0.6007	0.8205	0.6818	0.563
Mof_C 	C 	0.5488	0.7844	0.7175	-0.152
Mof_C 	C 	0.654	0.7641	0.7451	0.001
Mof_C 	C 	0.6038	0.7296	0.7775	0.013
Mof_C 	C 	0.5049	0.091	0.6083	0.003
Mof_C 	C 	0.5048	0.1584	0.6084	-0.008
Mof_H 	H 	0.7592	0.7738	0.7419	0.043
Mof_H 	H 	0.6754	0.7155	0.7965	0.028
Mof_H 	H 	0.4276	0.0681	0.5946	0.036
Mof_H 	H 	0.4277	0.1811	0.5946	0.032
Mof_O 	O 	0.0036	0.3351	0.6571	-0.614
Mof_O 	O 	0.2395	0.3341	0.6798	-0.564
Mof_O 	O 	0.0056	0.4581	0.6134	-0.582
Mof_C 	C 	0.1007	0.3205	0.6818	0.564
Mof_C 	C 	0.0488	0.2844	0.7175	-0.156
Mof_C 	C 	0.154	0.2641	0.7451	0.004
Mof_C 	C 	0.1038	0.2296	0.7775	0.007
Mof_C 	C 	0.0049	0.591	0.6083	0.004
Mof_C 	C 	0.0048	0.6584	0.6084	-0.006
Mof_H 	H 	0.2592	0.2738	0.7419	0.042
Mof_H 	H 	0.1754	0.2155	0.7965	0.029
Mof_H 	H 	0.9276	0.5681	0.5946	0.036
Mof_H 	H 	0.9277	0.6811	0.5946	0.031
Mof_O 	O 	0.0036	0.8351	0.1571	-0.611
Mof_O 	O 	0.2395	0.8341	0.1798	-0.563
Mof_O 	O 	0.0056	0.9581	0.1134	-0.58
Mof_C 	C 	0.1007	0.8205	0.1818	0.561
Mof_C 	C 	0.0488	0.7844	0.2175	-0.147
Mof_C 	C 	0.154	0.7641	0.2451	-0.003
Mof_C 	C 	0.1038	0.7296	0.2775	0.017
Mof_C 	C 	0.0049	0.091	0.1083	0.003
Mof_C 	C 	0.0048	0.1584	0.1084	-0.008
Mof_H 	H 	0.2592	0.7738	0.2419	0.044
Mof_H 	H 	0.1754	0.7155	0.2965	0.026
Mof_H 	H 	0.9276	0.0681	0.0946	0.037
Mof_H 	H 	0.9277	0.1811	0.0946	0.032
Mof_O 	O 	0.2464	0.4149	0.1571	-0.614
Mof_O 	O 	0.0105	0.4159	0.1798	-0.563
Mof_O 	O 	0.2444	0.2919	0.1134	-0.583
Mof_C 	C 	0.1493	0.4295	0.1818	0.563
Mof_C 	C 	0.2012	0.4656	0.2175	-0.152
Mof_C 	C 	0.096	0.4859	0.2451	0.001
Mof_C 	C 	0.1462	0.5204	0.2775	0.012
Mof_C 	C 	0.2451	0.159	0.1083	0.003
Mof_C 	C 	0.2452	0.0916	0.1084	-0.007
Mof_H 	H 	0.9908	0.4762	0.2419	0.042
Mof_H 	H 	0.0746	0.5345	0.2965	0.028
Mof_H 	H 	0.3224	0.1819	0.0946	0.036
Mof_H 	H 	0.3223	0.0689	0.0946	0.032
Mof_O 	O 	0.2464	0.9149	0.6571	-0.614
Mof_O 	O 	0.0105	0.9159	0.6798	-0.562
Mof_O 	O 	0.2444	0.7919	0.6134	-0.582
Mof_C 	C 	0.1493	0.9295	0.6818	0.565
Mof_C 	C 	0.2012	0.9656	0.7175	-0.157
Mof_C 	C 	0.096	0.9859	0.7451	0.012
Mof_C 	C 	0.1462	0.0204	0.7775	0.004
Mof_C 	C 	0.2451	0.659	0.6083	0.003
Mof_C 	C 	0.2452	0.5916	0.6084	-0.008
Mof_H 	H 	0.9908	0.9762	0.7419	0.038
Mof_H 	H 	0.0746	0.0345	0.7965	0.029
Mof_H 	H 	0.3224	0.6819	0.5946	0.036
Mof_H 	H 	0.3223	0.5689	0.5946	0.032
Mof_O 	O 	0.7464	0.4149	0.6571	-0.614
Mof_O 	O 	0.5105	0.4159	0.6798	-0.564
Mof_O 	O 	0.7444	0.2919	0.6134	-0.583
Mof_C 	C 	0.6493	0.4295	0.6818	0.563
Mof_C 	C 	0.7012	0.4656	0.7175	-0.152
Mof_C 	C 	0.596	0.4859	0.7451	0
Mof_C 	C 	0.6462	0.5204	0.7775	0.013
Mof_C 	C 	0.7451	0.159	0.6083	0.003
Mof_C 	C 	0.7452	0.0916	0.6084	-0.008
Mof_H 	H 	0.4908	0.4762	0.7419	0.043
Mof_H 	H 	0.5746	0.5345	0.7965	0.027
Mof_H 	H 	0.8224	0.1819	0.5946	0.036
Mof_H 	H 	0.8223	0.0689	0.5946	0.032
Mof_O 	O 	0.7464	0.9149	0.1571	-0.613
Mof_O 	O 	0.5105	0.9159	0.1798	-0.563
Mof_O 	O 	0.7444	0.7919	0.1134	-0.582
Mof_C 	C 	0.6493	0.9295	0.1818	0.561
Mof_C 	C 	0.7012	0.9656	0.2175	-0.147
Mof_C 	C 	0.596	0.9859	0.2451	-0.005
Mof_C 	C 	0.6462	0.0204	0.2775	0.018
Mof_C 	C 	0.7451	0.659	0.1083	0.003
Mof_C 	C 	0.7452	0.5916	0.1084	-0.008
Mof_H 	H 	0.4908	0.9762	0.2419	0.045
Mof_H 	H 	0.5746	0.0345	0.2965	0.026
Mof_H 	H 	0.8224	0.6819	0.0946	0.036
Mof_H 	H 	0.8223	0.5689	0.0946	0.032
Mof_O 	O 	0.7536	0.6649	0.4071	-0.613
Mof_O 	O 	0.9895	0.6659	0.4298	-0.564
Mof_O 	O 	0.7556	0.5419	0.3634	-0.583
Mof_C 	C 	0.8507	0.6795	0.4318	0.562
Mof_C 	C 	0.7988	0.7156	0.4675	-0.151
Mof_C 	C 	0.904	0.7359	0.4951	-0.002
Mof_C 	C 	0.8538	0.7704	0.5275	0.014
Mof_C 	C 	0.7549	0.409	0.3583	0.003
Mof_C 	C 	0.7548	0.3416	0.3584	-0.007
Mof_H 	H 	0.0092	0.7262	0.4919	0.044
Mof_H 	H 	0.9254	0.7845	0.5465	0.026
Mof_H 	H 	0.6776	0.4319	0.3446	0.036
Mof_H 	H 	0.6777	0.3189	0.3446	0.032
Mof_O 	O 	0.7536	0.1649	0.9071	-0.613
Mof_O 	O 	0.9895	0.1659	0.9298	-0.562
Mof_O 	O 	0.7556	0.0419	0.8634	-0.582
Mof_C 	C 	0.8507	0.1795	0.9318	0.564
Mof_C 	C 	0.7988	0.2156	0.9675	-0.155
Mof_C 	C 	0.904	0.2359	0.9951	0.008
Mof_C 	C 	0.8538	0.2704	0.0275	0.008
Mof_C 	C 	0.7549	0.909	0.8583	0.003
Mof_C 	C 	0.7548	0.8416	0.8584	-0.008
Mof_H 	H 	0.0092	0.2262	0.9919	0.039
Mof_H 	H 	0.9254	0.2845	0.0465	0.029
Mof_H 	H 	0.6776	0.9319	0.8446	0.036
Mof_H 	H 	0.6777	0.8189	0.8446	0.032
Mof_O 	O 	0.2536	0.6649	0.9071	-0.613
Mof_O 	O 	0.4895	0.6659	0.9298	-0.564
Mof_O 	O 	0.2556	0.5419	0.8634	-0.583
Mof_C 	C 	0.3507	0.6795	0.9318	0.562
Mof_C 	C 	0.2988	0.7156	0.9675	-0.149
Mof_C 	C 	0.404	0.7359	0.9951	-0.002
Mof_C 	C 	0.3538	0.7704	0.0275	0.015
Mof_C 	C 	0.2549	0.409	0.8583	0.003
Mof_C 	C 	0.2548	0.3416	0.8584	-0.008
Mof_H 	H 	0.5092	0.7262	0.9919	0.044
Mof_H 	H 	0.4254	0.7845	0.0465	0.027
Mof_H 	H 	0.1776	0.4319	0.8446	0.036
Mof_H 	H 	0.1777	0.3189	0.8446	0.032
Mof_O 	O 	0.2536	0.1649	0.4071	-0.613
Mof_O 	O 	0.4895	0.1659	0.4298	-0.564
Mof_O 	O 	0.2556	0.0419	0.3634	-0.583
Mof_C 	C 	0.3507	0.1795	0.4318	0.563
Mof_C 	C 	0.2988	0.2156	0.4675	-0.153
Mof_C 	C 	0.404	0.2359	0.4951	0.001
Mof_C 	C 	0.3538	0.2704	0.5275	0.012
Mof_C 	C 	0.2549	0.909	0.3583	0.003
Mof_C 	C 	0.2548	0.8416	0.3584	-0.008
Mof_H 	H 	0.5092	0.2262	0.4919	0.043
Mof_H 	H 	0.4254	0.2845	0.5465	0.028
Mof_H 	H 	0.1776	0.9319	0.3446	0.037
Mof_H 	H 	0.1777	0.8189	0.3446	0.032
Mof_O 	O 	0.4964	0.5851	0.4071	-0.614
Mof_O 	O 	0.2605	0.5841	0.4298	-0.564
Mof_O 	O 	0.4944	0.7081	0.3634	-0.583
Mof_C 	C 	0.3993	0.5705	0.4318	0.563
Mof_C 	C 	0.4512	0.5344	0.4675	-0.152
Mof_C 	C 	0.346	0.5141	0.4951	0.001
Mof_C 	C 	0.3962	0.4796	0.5275	0.013
Mof_C 	C 	0.4951	0.841	0.3583	0.003
Mof_C 	C 	0.4952	0.9084	0.3584	-0.008
Mof_H 	H 	0.2408	0.5238	0.4919	0.043
Mof_H 	H 	0.3246	0.4655	0.5465	0.028
Mof_H 	H 	0.5724	0.8181	0.3446	0.036
Mof_H 	H 	0.5723	0.9311	0.3446	0.032
Mof_O 	O 	0.4964	0.0851	0.9071	-0.613
Mof_O 	O 	0.2605	0.0841	0.9298	-0.564
Mof_O 	O 	0.4944	0.2081	0.8634	-0.582
Mof_C 	C 	0.3993	0.0705	0.9318	0.563
Mof_C 	C 	0.4512	0.0344	0.9675	-0.152
Mof_C 	C 	0.346	0.0141	0.9951	-0
Mof_C 	C 	0.3962	0.9796	0.0275	0.014
Mof_C 	C 	0.4951	0.341	0.8583	0.003
Mof_C 	C 	0.4952	0.4084	0.8584	-0.008
Mof_H 	H 	0.2408	0.0238	0.9919	0.042
Mof_H 	H 	0.3246	0.9655	0.0465	0.028
Mof_H 	H 	0.5724	0.3181	0.8446	0.036
Mof_H 	H 	0.5723	0.4311	0.8446	0.032
Mof_O 	O 	0.9964	0.5851	0.9071	-0.613
Mof_O 	O 	0.7605	0.5841	0.9298	-0.564
Mof_O 	O 	0.9944	0.7081	0.8634	-0.582
Mof_C 	C 	0.8993	0.5705	0.9318	0.563
Mof_C 	C 	0.9512	0.5344	0.9675	-0.151
Mof_C 	C 	0.846	0.5141	0.9951	0.001
Mof_C 	C 	0.8962	0.4796	0.0275	0.011
Mof_C 	C 	0.9951	0.841	0.8583	0.003
Mof_C 	C 	0.9952	0.9084	0.8584	-0.009
Mof_H 	H 	0.7408	0.5238	0.9919	0.043
Mof_H 	H 	0.8246	0.4655	0.0465	0.028
Mof_H 	H 	0.0724	0.8181	0.8446	0.037
Mof_H 	H 	0.0723	0.9311	0.8446	0.033
Mof_O 	O 	0.9964	0.0851	0.4071	-0.611
Mof_O 	O 	0.7605	0.0841	0.4298	-0.563
Mof_O 	O 	0.9944	0.2081	0.3634	-0.581
Mof_C 	C 	0.8993	0.0705	0.4318	0.562
Mof_C 	C 	0.9512	0.0344	0.4675	-0.149
Mof_C 	C 	0.846	0.0141	0.4951	0.004
Mof_C 	C 	0.8962	0.9796	0.5275	0.006
Mof_C 	C 	0.9951	0.341	0.3583	0.005
Mof_C 	C 	0.9952	0.4084	0.3584	-0.007
Mof_H 	H 	0.7408	0.0238	0.4919	0.042
Mof_H 	H 	0.8246	0.9655	0.5465	0.029
Mof_H 	H 	0.0724	0.3181	0.3446	0.035
Mof_H 	H 	0.0723	0.4311	0.3446	0.031
Mof_O 	O 	0.4964	0.6649	0.8429	-0.614
Mof_O 	O 	0.2605	0.6659	0.8202	-0.564
Mof_O 	O 	0.4944	0.5419	0.8866	-0.583
Mof_C 	C 	0.3993	0.6795	0.8182	0.563
Mof_C 	C 	0.4512	0.7156	0.7825	-0.152
Mof_C 	C 	0.346	0.7359	0.7549	0.001
Mof_C 	C 	0.3962	0.7704	0.7225	0.013
Mof_C 	C 	0.4951	0.409	0.8917	0.003
Mof_C 	C 	0.4952	0.3416	0.8916	-0.008
Mof_H 	H 	0.2408	0.7262	0.7581	0.043
Mof_H 	H 	0.3246	0.7845	0.7035	0.028
Mof_H 	H 	0.5724	0.4319	0.9054	0.036
Mof_H 	H 	0.5723	0.3189	0.9054	0.032
Mof_O 	O 	0.4964	0.1649	0.3429	-0.613
Mof_O 	O 	0.2605	0.1659	0.3202	-0.564
Mof_O 	O 	0.4944	0.0419	0.3866	-0.582
Mof_C 	C 	0.3993	0.1795	0.3182	0.563
Mof_C 	C 	0.4512	0.2156	0.2825	-0.152
Mof_C 	C 	0.346	0.2359	0.2549	0.001
Mof_C 	C 	0.3962	0.2704	0.2225	0.013
Mof_C 	C 	0.4951	0.909	0.3917	0.003
Mof_C 	C 	0.4952	0.8416	0.3916	-0.008
Mof_H 	H 	0.2408	0.2262	0.2581	0.043
Mof_H 	H 	0.3246	0.2845	0.2035	0.028
Mof_H 	H 	0.5724	0.9319	0.4054	0.036
Mof_H 	H 	0.5723	0.8189	0.4054	0.032
Mof_O 	O 	0.9964	0.6649	0.3429	-0.614
Mof_O 	O 	0.7605	0.6659	0.3202	-0.564
Mof_O 	O 	0.9944	0.5419	0.3866	-0.582
Mof_C 	C 	0.8993	0.6795	0.3182	0.564
Mof_C 	C 	0.9512	0.7156	0.2825	-0.156
Mof_C 	C 	0.846	0.7359	0.2549	0.004
Mof_C 	C 	0.8962	0.7704	0.2225	0.007
Mof_C 	C 	0.9951	0.409	0.3917	0.004
Mof_C 	C 	0.9952	0.3416	0.3916	-0.006
Mof_H 	H 	0.7408	0.7262	0.2581	0.042
Mof_H 	H 	0.8246	0.7845	0.2035	0.029
Mof_H 	H 	0.0724	0.4319	0.4054	0.036
Mof_H 	H 	0.0723	0.3189	0.4054	0.031
Mof_O 	O 	0.9964	0.1649	0.8429	-0.611
Mof_O 	O 	0.7605	0.1659	0.8202	-0.563
Mof_O 	O 	0.9944	0.0419	0.8866	-0.58
Mof_C 	C 	0.8993	0.1795	0.8182	0.561
Mof_C 	C 	0.9512	0.2156	0.7825	-0.147
Mof_C 	C 	0.846	0.2359	0.7549	-0.003
Mof_C 	C 	0.8962	0.2704	0.7225	0.017
Mof_C 	C 	0.9951	0.909	0.8917	0.003
Mof_C 	C 	0.9952	0.8416	0.8916	-0.008
Mof_H 	H 	0.7408	0.2262	0.7581	0.044
Mof_H 	H 	0.8246	0.2845	0.7035	0.026
Mof_H 	H 	0.0724	0.9319	0.9054	0.037
Mof_H 	H 	0.0723	0.8189	0.9054	0.032
Mof_O 	O 	0.7536	0.5851	0.8429	-0.614
Mof_O 	O 	0.9895	0.5841	0.8202	-0.563
Mof_O 	O 	0.7556	0.7081	0.8866	-0.583
Mof_C 	C 	0.8507	0.5705	0.8182	0.563
Mof_C 	C 	0.7988	0.5344	0.7825	-0.152
Mof_C 	C 	0.904	0.5141	0.7549	0.001
Mof_C 	C 	0.8538	0.4796	0.7225	0.012
Mof_C 	C 	0.7549	0.841	0.8917	0.003
Mof_C 	C 	0.7548	0.9084	0.8916	-0.007
Mof_H 	H 	0.0092	0.5238	0.7581	0.042
Mof_H 	H 	0.9254	0.4655	0.7035	0.028
Mof_H 	H 	0.6776	0.8181	0.9054	0.036
Mof_H 	H 	0.6777	0.9311	0.9054	0.032
Mof_O 	O 	0.7536	0.0851	0.3429	-0.614
Mof_O 	O 	0.9895	0.0841	0.3202	-0.562
Mof_O 	O 	0.7556	0.2081	0.3866	-0.582
Mof_C 	C 	0.8507	0.0705	0.3182	0.565
Mof_C 	C 	0.7988	0.0344	0.2825	-0.157
Mof_C 	C 	0.904	0.0141	0.2549	0.012
Mof_C 	C 	0.8538	0.9796	0.2225	0.004
Mof_C 	C 	0.7549	0.341	0.3917	0.003
Mof_C 	C 	0.7548	0.4084	0.3916	-0.008
Mof_H 	H 	0.0092	0.0238	0.2581	0.038
Mof_H 	H 	0.9254	0.9655	0.2035	0.029
Mof_H 	H 	0.6776	0.3181	0.4054	0.036
Mof_H 	H 	0.6777	0.4311	0.4054	0.032
Mof_O 	O 	0.2536	0.5851	0.3429	-0.614
Mof_O 	O 	0.4895	0.5841	0.3202	-0.564
Mof_O 	O 	0.2556	0.7081	0.3866	-0.583
Mof_C 	C 	0.3507	0.5705	0.3182	0.563
Mof_C 	C 	0.2988	0.5344	0.2825	-0.152
Mof_C 	C 	0.404	0.5141	0.2549	0
Mof_C 	C 	0.3538	0.4796	0.2225	0.013
Mof_C 	C 	0.2549	0.841	0.3917	0.003
Mof_C 	C 	0.2548	0.9084	0.3916	-0.008
Mof_H 	H 	0.5092	0.5238	0.2581	0.043
Mof_H 	H 	0.4254	0.4655	0.2035	0.027
Mof_H 	H 	0.1776	0.8181	0.4054	0.036
Mof_H 	H 	0.1777	0.9311	0.4054	0.032
Mof_O 	O 	0.2536	0.0851	0.8429	-0.613
Mof_O 	O 	0.4895	0.0841	0.8202	-0.563
Mof_O 	O 	0.2556	0.2081	0.8866	-0.582
Mof_C 	C 	0.3507	0.0705	0.8182	0.561
Mof_C 	C 	0.2988	0.0344	0.7825	-0.147
Mof_C 	C 	0.404	0.0141	0.7549	-0.005
Mof_C 	C 	0.3538	0.9796	0.7225	0.018
Mof_C 	C 	0.2549	0.341	0.8917	0.003
Mof_C 	C 	0.2548	0.4084	0.8916	-0.008
Mof_H 	H 	0.5092	0.0238	0.7581	0.045
Mof_H 	H 	0.4254	0.9655	0.7035	0.026
Mof_H 	H 	0.1776	0.3181	0.9054	0.036
Mof_H 	H 	0.1777	0.4311	0.9054	0.032
Mof_Sc	Sc	0.375	0.375	0.63596	2.007
Mof_Sc	Sc	0.375	0.875	0.13596	2.007
Mof_Sc	Sc	0.875	0.375	0.13596	2.005
Mof_Sc	Sc	0.875	0.875	0.63596	2.001
Mof_Sc	Sc	0.375	0.375	0.11404	2.007
Mof_Sc	Sc	0.375	0.875	0.61404	2.007
Mof_Sc	Sc	0.875	0.375	0.61404	2.007
Mof_Sc	Sc	0.875	0.875	0.11404	2
Mof_Sc	Sc	0.625	0.625	0.36404	2.007
Mof_Sc	Sc	0.625	0.125	0.86404	2.007
Mof_Sc	Sc	0.125	0.625	0.86404	2.005
Mof_Sc	Sc	0.125	0.125	0.36404	2.001
Mof_Sc	Sc	0.625	0.625	0.88596	2.007
Mof_Sc	Sc	0.625	0.125	0.38596	2.007
Mof_Sc	Sc	0.125	0.625	0.38596	2.007
Mof_Sc	Sc	0.125	0.125	0.88596	2
Mof_C 	C 	0.125	0.485	0.625	0.548
Mof_C 	C 	0.125	0.5575	0.625	-0.151
Mof_C 	C 	0.125	0.985	0.125	0.549
Mof_C 	C 	0.125	0.0575	0.125	-0.152
Mof_C 	C 	0.625	0.985	0.625	0.547
Mof_C 	C 	0.625	0.0575	0.625	-0.15
Mof_C 	C 	0.625	0.265	0.625	0.548
Mof_C 	C 	0.625	0.1925	0.625	-0.151
Mof_C 	C 	0.625	0.765	0.125	0.547
Mof_C 	C 	0.625	0.6925	0.125	-0.151
Mof_C 	C 	0.625	0.485	0.125	0.547
Mof_C 	C 	0.625	0.5575	0.125	-0.151
Mof_C 	C 	0.125	0.265	0.125	0.547
Mof_C 	C 	0.125	0.1925	0.125	-0.15
Mof_C 	C 	0.125	0.765	0.625	0.548
Mof_C 	C 	0.125	0.6925	0.625	-0.151
Mof_C 	C 	0.875	0.515	0.375	0.548
Mof_C 	C 	0.875	0.4425	0.375	-0.151
Mof_C 	C 	0.875	0.015	0.875	0.549
Mof_C 	C 	0.875	0.9425	0.875	-0.152
Mof_C 	C 	0.375	0.735	0.375	0.548
Mof_C 	C 	0.375	0.8075	0.375	-0.151
Mof_C 	C 	0.375	0.235	0.875	0.547
Mof_C 	C 	0.375	0.3075	0.875	-0.151
Mof_C 	C 	0.375	0.515	0.875	0.547
Mof_C 	C 	0.375	0.4425	0.875	-0.151
Mof_C 	C 	0.375	0.015	0.375	0.547
Mof_C 	C 	0.375	0.9425	0.375	-0.15
Mof_C 	C 	0.875	0.735	0.875	0.547
Mof_C 	C 	0.875	0.8075	0.875	-0.15
Mof_C 	C 	0.875	0.235	0.375	0.548
Mof_C 	C 	0.875	0.3075	0.375	-0.151
_end
