# CIF file generated by openbabel 3.1.0, see https://openbabel.org
data_I
_chemical_name_common 'PIJJOI_clean'
_cell_length_a 16.2045
_cell_length_b 17.6022
_cell_length_c 17.9025
_cell_angle_alpha 90
_cell_angle_beta 90
_cell_angle_gamma 90
_space_group_name_H-M_alt 'P 1'
_space_group_name_Hall 'P 1'
loop_
    _symmetry_equiv_pos_as_xyz
    x,y,z
loop_
    _atom_site_label
    _atom_site_type_symbol
    _atom_site_fract_x
    _atom_site_fract_y
    _atom_site_fract_z
    _atom_site_occupancy
    Zn1      Zn       0.27479    0.89917    0.61703    1.000
    Zn2      Zn       0.77479    0.60083    0.38297    1.000
    Zn3      Zn       0.77479    0.39917    0.88297    1.000
    Zn4      Zn       0.27479    0.10083    0.11703    1.000
    H1       H        0.28670    0.07560    0.57850    1.000
    H2       H        0.15000    0.00860    0.19500    1.000
    H3       H        0.22520    0.85220    0.44530    1.000
    H4       H        0.32150    0.85130    0.45350    1.000
    H5       H        0.28100    0.87790    0.37840    1.000
    H6       H        0.26160    0.19000    0.51080    1.000
    H7       H        0.20930    0.17880    0.43790    1.000
    H8       H        0.30570    0.18480    0.43300    1.000
    H9       H        0.09600    0.91360    0.30870    1.000
    H10      H        0.05140    0.99220    0.31700    1.000
    H11      H        0.10270    0.95900    0.38370    1.000
    H12      H        0.40930    0.09100    0.25300    1.000
    H13      H        0.39630    0.09470    0.33970    1.000
    H14      H        0.36220    0.15980    0.28870    1.000
    H15      H        0.08400    0.73900    0.55210    1.000
    H16      H        0.98970    0.67830    0.47610    1.000
    H17      H        0.89600    0.87880    0.41530    1.000
    H18      H        0.98500    0.93920    0.49640    1.000
    H19      H        0.78670    0.42440    0.42150    1.000
    H20      H        0.65000    0.49140    0.80500    1.000
    H21      H        0.72520    0.64780    0.55470    1.000
    H22      H        0.82150    0.64870    0.54650    1.000
    H23      H        0.78100    0.62210    0.62160    1.000
    H24      H        0.76160    0.31000    0.48920    1.000
    H25      H        0.70930    0.32120    0.56210    1.000
    H26      H        0.80570    0.31520    0.56700    1.000
    H27      H        0.59600    0.58640    0.69130    1.000
    H28      H        0.55140    0.50780    0.68300    1.000
    H29      H        0.60270    0.54100    0.61630    1.000
    H30      H        0.90930    0.40900    0.74700    1.000
    H31      H        0.89630    0.40530    0.66030    1.000
    H32      H        0.86220    0.34020    0.71130    1.000
    H33      H        0.58400    0.76100    0.44790    1.000
    H34      H        0.48970    0.82170    0.52390    1.000
    H35      H        0.39600    0.62120    0.58470    1.000
    H36      H        0.48500    0.56080    0.50360    1.000
    H37      H        0.78670    0.57560    0.92150    1.000
    H38      H        0.65000    0.50860    0.30500    1.000
    H39      H        0.72520    0.35220    0.05470    1.000
    H40      H        0.82150    0.35130    0.04650    1.000
    H41      H        0.78100    0.37790    0.12160    1.000
    H42      H        0.76160    0.69000    0.98920    1.000
    H43      H        0.70930    0.67880    0.06210    1.000
    H44      H        0.80570    0.68480    0.06700    1.000
    H45      H        0.59600    0.41360    0.19130    1.000
    H46      H        0.55140    0.49220    0.18300    1.000
    H47      H        0.60270    0.45900    0.11630    1.000
    H48      H        0.90930    0.59100    0.24700    1.000
    H49      H        0.89630    0.59470    0.16030    1.000
    H50      H        0.86220    0.65980    0.21130    1.000
    H51      H        0.58400    0.23900    0.94790    1.000
    H52      H        0.48970    0.17830    0.02390    1.000
    H53      H        0.39600    0.37880    0.08470    1.000
    H54      H        0.48500    0.43920    0.00360    1.000
    H55      H        0.28670    0.92440    0.07850    1.000
    H56      H        0.15000    0.99140    0.69500    1.000
    H57      H        0.22520    0.14780    0.94530    1.000
    H58      H        0.32150    0.14870    0.95350    1.000
    H59      H        0.28100    0.12210    0.87840    1.000
    H60      H        0.26160    0.81000    0.01080    1.000
    H61      H        0.20930    0.82120    0.93790    1.000
    H62      H        0.30570    0.81520    0.93300    1.000
    H63      H        0.09600    0.08640    0.80870    1.000
    H64      H        0.05140    0.00780    0.81700    1.000
    H65      H        0.10270    0.04100    0.88370    1.000
    H66      H        0.40930    0.90900    0.75300    1.000
    H67      H        0.39630    0.90530    0.83970    1.000
    H68      H        0.36220    0.84020    0.78870    1.000
    H69      H        0.08400    0.26100    0.05210    1.000
    H70      H        0.98970    0.32170    0.97610    1.000
    H71      H        0.89600    0.12120    0.91530    1.000
    H72      H        0.98500    0.06080    0.99640    1.000
    C1       C        0.27550    0.87757    0.43179    1.000
    C2       C        0.27350    0.95740    0.45998    1.000
    C3       C        0.26113    0.02432    0.41941    1.000
    C4       C        0.26696    0.08266    0.47089    1.000
    C5       C        0.26030    0.16651    0.46237    1.000
    C6       C        0.09950    0.96340    0.33036    1.000
    C7       C        0.17492    0.00280    0.30178    1.000
    C8       C        0.24365    0.03053    0.33902    1.000
    C9       C        0.29272    0.06443    0.28414    1.000
    C10      C        0.37220    0.10620    0.29211    1.000
    C11      C        0.10752    0.88522    0.57957    1.000
    C12      C        0.04454    0.84544    0.53172    1.000
    C13      C        0.04567    0.76730    0.52526    1.000
    C14      C        0.98988    0.73106    0.47883    1.000
    C15      C        0.93331    0.85038    0.44325    1.000
    C16      C        0.98723    0.88669    0.49125    1.000
    C17      C        0.87228    0.73199    0.38817    1.000
    C18      C        0.93436    0.77237    0.43649    1.000
    C19      C        0.77550    0.62243    0.56821    1.000
    C20      C        0.77350    0.54260    0.54002    1.000
    C21      C        0.76113    0.47568    0.58059    1.000
    C22      C        0.76696    0.41734    0.52911    1.000
    C23      C        0.76030    0.33349    0.53763    1.000
    C24      C        0.59950    0.53660    0.66964    1.000
    C25      C        0.67492    0.49720    0.69822    1.000
    C26      C        0.74365    0.46947    0.66098    1.000
    C27      C        0.79272    0.43557    0.71586    1.000
    C28      C        0.87220    0.39380    0.70789    1.000
    C29      C        0.60752    0.61478    0.42043    1.000
    C30      C        0.54454    0.65456    0.46828    1.000
    C31      C        0.54567    0.73270    0.47474    1.000
    C32      C        0.48988    0.76894    0.52117    1.000
    C33      C        0.43331    0.64962    0.55675    1.000
    C34      C        0.48723    0.61331    0.50875    1.000
    C35      C        0.37228    0.76801    0.61183    1.000
    C36      C        0.43436    0.72763    0.56351    1.000
    C37      C        0.77550    0.37757    0.06821    1.000
    C38      C        0.77350    0.45740    0.04002    1.000
    C39      C        0.76113    0.52432    0.08059    1.000
    C40      C        0.76696    0.58266    0.02911    1.000
    C41      C        0.76030    0.66651    0.03763    1.000
    C42      C        0.59950    0.46340    0.16964    1.000
    C43      C        0.67492    0.50280    0.19822    1.000
    C44      C        0.74365    0.53053    0.16098    1.000
    C45      C        0.79272    0.56443    0.21586    1.000
    C46      C        0.87220    0.60620    0.20789    1.000
    C47      C        0.60752    0.38522    0.92043    1.000
    C48      C        0.54454    0.34544    0.96828    1.000
    C49      C        0.54567    0.26730    0.97474    1.000
    C50      C        0.48988    0.23106    0.02117    1.000
    C51      C        0.43331    0.35038    0.05675    1.000
    C52      C        0.48723    0.38669    0.00875    1.000
    C53      C        0.37228    0.23199    0.11183    1.000
    C54      C        0.43436    0.27237    0.06351    1.000
    C55      C        0.27550    0.12243    0.93179    1.000
    C56      C        0.27350    0.04260    0.95998    1.000
    C57      C        0.26113    0.97568    0.91941    1.000
    C58      C        0.26696    0.91734    0.97089    1.000
    C59      C        0.26030    0.83349    0.96237    1.000
    C60      C        0.09950    0.03660    0.83036    1.000
    C61      C        0.17492    0.99720    0.80178    1.000
    C62      C        0.24365    0.96947    0.83902    1.000
    C63      C        0.29272    0.93557    0.78414    1.000
    C64      C        0.37220    0.89380    0.79211    1.000
    C65      C        0.10752    0.11478    0.07957    1.000
    C66      C        0.04454    0.15456    0.03172    1.000
    C67      C        0.04567    0.23270    0.02526    1.000
    C68      C        0.98988    0.26894    0.97883    1.000
    C69      C        0.93331    0.14962    0.94325    1.000
    C70      C        0.98723    0.11331    0.99125    1.000
    C71      C        0.87228    0.26801    0.88817    1.000
    C72      C        0.93436    0.22763    0.93649    1.000
    N1       N        0.28620    0.97396    0.53243    1.000
    N2       N        0.28127    0.05056    0.53749    1.000
    N3       N        0.25602    0.05779    0.21749    1.000
    N4       N        0.18478    0.02011    0.22946    1.000
    N5       N        0.78620    0.52604    0.46757    1.000
    N6       N        0.78127    0.44944    0.46251    1.000
    N7       N        0.75602    0.44221    0.78251    1.000
    N8       N        0.68478    0.47989    0.77054    1.000
    N9       N        0.78620    0.47396    0.96757    1.000
    N10      N        0.78127    0.55056    0.96251    1.000
    N11      N        0.75602    0.55779    0.28251    1.000
    N12      N        0.68478    0.52011    0.27054    1.000
    N13      N        0.28620    0.02604    0.03243    1.000
    N14      N        0.28127    0.94944    0.03749    1.000
    N15      N        0.25602    0.94221    0.71749    1.000
    N16      N        0.18478    0.97989    0.72946    1.000
    O1       O        0.17280    0.84635    0.59199    1.000
    O2       O        0.09481    0.95085    0.60174    1.000
    O3       O        0.87217    0.66021    0.39493    1.000
    O4       O        0.82563    0.76879    0.34826    1.000
    O5       O        0.67280    0.65365    0.40801    1.000
    O6       O        0.59481    0.54915    0.39826    1.000
    O7       O        0.37217    0.83979    0.60507    1.000
    O8       O        0.32563    0.73121    0.65174    1.000
    O9       O        0.67280    0.34635    0.90801    1.000
    O10      O        0.59481    0.45085    0.89826    1.000
    O11      O        0.37217    0.16021    0.10507    1.000
    O12      O        0.32563    0.26879    0.15174    1.000
    O13      O        0.17280    0.15365    0.09199    1.000
    O14      O        0.09481    0.04915    0.10174    1.000
    O15      O        0.87217    0.33979    0.89493    1.000
    O16      O        0.82563    0.23121    0.84826    1.000
    Zn5      Zn       0.22521    0.60083    0.11703    1.000
    Zn6      Zn       0.72521    0.89917    0.88297    1.000
    Zn7      Zn       0.72521    0.10083    0.38297    1.000
    Zn8      Zn       0.22521    0.39917    0.61703    1.000
    H73      H        0.21330    0.42440    0.07850    1.000
    H74      H        0.35000    0.49140    0.69500    1.000
    H75      H        0.27480    0.64780    0.94530    1.000
    H76      H        0.17850    0.64870    0.95350    1.000
    H77      H        0.21900    0.62210    0.87840    1.000
    H78      H        0.23840    0.31000    0.01080    1.000
    H79      H        0.29070    0.32120    0.93790    1.000
    H80      H        0.19430    0.31520    0.93300    1.000
    H81      H        0.40400    0.58640    0.80870    1.000
    H82      H        0.44860    0.50780    0.81700    1.000
    H83      H        0.39730    0.54100    0.88370    1.000
    H84      H        0.09070    0.40900    0.75300    1.000
    H85      H        0.10370    0.40530    0.83970    1.000
    H86      H        0.13780    0.34020    0.78870    1.000
    H87      H        0.41600    0.76100    0.05210    1.000
    H88      H        0.51030    0.82170    0.97610    1.000
    H89      H        0.60400    0.62120    0.91530    1.000
    H90      H        0.51500    0.56080    0.99640    1.000
    H91      H        0.71330    0.07560    0.92150    1.000
    H92      H        0.85000    0.00860    0.30500    1.000
    H93      H        0.77480    0.85220    0.05470    1.000
    H94      H        0.67850    0.85130    0.04650    1.000
    H95      H        0.71900    0.87790    0.12160    1.000
    H96      H        0.73840    0.19000    0.98920    1.000
    H97      H        0.79070    0.17880    0.06210    1.000
    H98      H        0.69430    0.18480    0.06700    1.000
    H99      H        0.90400    0.91360    0.19130    1.000
    H100     H        0.94860    0.99220    0.18300    1.000
    H101     H        0.89730    0.95900    0.11630    1.000
    H102     H        0.59070    0.09100    0.24700    1.000
    H103     H        0.60370    0.09470    0.16030    1.000
    H104     H        0.63780    0.15980    0.21130    1.000
    H105     H        0.91600    0.73900    0.94790    1.000
    H106     H        0.01030    0.67830    0.02390    1.000
    H107     H        0.10400    0.87880    0.08470    1.000
    H108     H        0.01500    0.93920    0.00360    1.000
    H109     H        0.71330    0.92440    0.42150    1.000
    H110     H        0.85000    0.99140    0.80500    1.000
    H111     H        0.77480    0.14780    0.55470    1.000
    H112     H        0.67850    0.14870    0.54650    1.000
    H113     H        0.71900    0.12210    0.62160    1.000
    H114     H        0.73840    0.81000    0.48920    1.000
    H115     H        0.79070    0.82120    0.56210    1.000
    H116     H        0.69430    0.81520    0.56700    1.000
    H117     H        0.90400    0.08640    0.69130    1.000
    H118     H        0.94860    0.00780    0.68300    1.000
    H119     H        0.89730    0.04100    0.61630    1.000
    H120     H        0.59070    0.90900    0.74700    1.000
    H121     H        0.60370    0.90530    0.66030    1.000
    H122     H        0.63780    0.84020    0.71130    1.000
    H123     H        0.91600    0.26100    0.44790    1.000
    H124     H        0.01030    0.32170    0.52390    1.000
    H125     H        0.10400    0.12120    0.58470    1.000
    H126     H        0.01500    0.06080    0.50360    1.000
    H127     H        0.21330    0.57560    0.57850    1.000
    H128     H        0.35000    0.50860    0.19500    1.000
    H129     H        0.27480    0.35220    0.44530    1.000
    H130     H        0.17850    0.35130    0.45350    1.000
    H131     H        0.21900    0.37790    0.37840    1.000
    H132     H        0.23840    0.69000    0.51080    1.000
    H133     H        0.29070    0.67880    0.43790    1.000
    H134     H        0.19430    0.68480    0.43300    1.000
    H135     H        0.40400    0.41360    0.30870    1.000
    H136     H        0.44860    0.49220    0.31700    1.000
    H137     H        0.39730    0.45900    0.38370    1.000
    H138     H        0.09070    0.59100    0.25300    1.000
    H139     H        0.10370    0.59470    0.33970    1.000
    H140     H        0.13780    0.65980    0.28870    1.000
    H141     H        0.41600    0.23900    0.55210    1.000
    H142     H        0.51030    0.17830    0.47610    1.000
    H143     H        0.60400    0.37880    0.41530    1.000
    H144     H        0.51500    0.43920    0.49640    1.000
    C73      C        0.22450    0.62243    0.93179    1.000
    C74      C        0.22650    0.54260    0.95998    1.000
    C75      C        0.23887    0.47568    0.91941    1.000
    C76      C        0.23304    0.41734    0.97089    1.000
    C77      C        0.23970    0.33349    0.96237    1.000
    C78      C        0.40050    0.53660    0.83036    1.000
    C79      C        0.32508    0.49720    0.80178    1.000
    C80      C        0.25635    0.46947    0.83902    1.000
    C81      C        0.20728    0.43557    0.78414    1.000
    C82      C        0.12780    0.39380    0.79211    1.000
    C83      C        0.39248    0.61478    0.07957    1.000
    C84      C        0.45546    0.65456    0.03172    1.000
    C85      C        0.45433    0.73270    0.02526    1.000
    C86      C        0.51012    0.76894    0.97883    1.000
    C87      C        0.56669    0.64962    0.94325    1.000
    C88      C        0.51277    0.61331    0.99125    1.000
    C89      C        0.62772    0.76801    0.88817    1.000
    C90      C        0.56564    0.72763    0.93649    1.000
    C91      C        0.72450    0.87757    0.06821    1.000
    C92      C        0.72650    0.95740    0.04002    1.000
    C93      C        0.73887    0.02432    0.08059    1.000
    C94      C        0.73304    0.08266    0.02911    1.000
    C95      C        0.73970    0.16651    0.03763    1.000
    C96      C        0.90050    0.96340    0.16964    1.000
    C97      C        0.82508    0.00280    0.19822    1.000
    C98      C        0.75635    0.03053    0.16098    1.000
    C99      C        0.70728    0.06443    0.21586    1.000
    C100     C        0.62780    0.10620    0.20789    1.000
    C101     C        0.89248    0.88522    0.92043    1.000
    C102     C        0.95546    0.84544    0.96828    1.000
    C103     C        0.95433    0.76730    0.97474    1.000
    C104     C        0.01012    0.73106    0.02117    1.000
    C105     C        0.06669    0.85038    0.05675    1.000
    C106     C        0.01277    0.88669    0.00875    1.000
    C107     C        0.12772    0.73199    0.11183    1.000
    C108     C        0.06564    0.77237    0.06351    1.000
    C109     C        0.72450    0.12243    0.56821    1.000
    C110     C        0.72650    0.04260    0.54002    1.000
    C111     C        0.73887    0.97568    0.58059    1.000
    C112     C        0.73304    0.91734    0.52911    1.000
    C113     C        0.73970    0.83349    0.53763    1.000
    C114     C        0.90050    0.03660    0.66964    1.000
    C115     C        0.82508    0.99720    0.69822    1.000
    C116     C        0.75635    0.96947    0.66098    1.000
    C117     C        0.70728    0.93557    0.71586    1.000
    C118     C        0.62780    0.89380    0.70789    1.000
    C119     C        0.89248    0.11478    0.42043    1.000
    C120     C        0.95546    0.15456    0.46828    1.000
    C121     C        0.95433    0.23270    0.47474    1.000
    C122     C        0.01012    0.26894    0.52117    1.000
    C123     C        0.06669    0.14962    0.55675    1.000
    C124     C        0.01277    0.11331    0.50875    1.000
    C125     C        0.12772    0.26801    0.61183    1.000
    C126     C        0.06564    0.22763    0.56351    1.000
    C127     C        0.22450    0.37757    0.43179    1.000
    C128     C        0.22650    0.45740    0.45998    1.000
    C129     C        0.23887    0.52432    0.41941    1.000
    C130     C        0.23304    0.58266    0.47089    1.000
    C131     C        0.23970    0.66651    0.46237    1.000
    C132     C        0.40050    0.46340    0.33036    1.000
    C133     C        0.32508    0.50280    0.30178    1.000
    C134     C        0.25635    0.53053    0.33902    1.000
    C135     C        0.20728    0.56443    0.28414    1.000
    C136     C        0.12780    0.60620    0.29211    1.000
    C137     C        0.39248    0.38522    0.57957    1.000
    C138     C        0.45546    0.34544    0.53172    1.000
    C139     C        0.45433    0.26730    0.52526    1.000
    C140     C        0.51012    0.23106    0.47883    1.000
    C141     C        0.56669    0.35038    0.44325    1.000
    C142     C        0.51277    0.38669    0.49125    1.000
    C143     C        0.62772    0.23199    0.38817    1.000
    C144     C        0.56564    0.27237    0.43649    1.000
    N17      N        0.21380    0.52604    0.03243    1.000
    N18      N        0.21873    0.44944    0.03749    1.000
    N19      N        0.24398    0.44221    0.71749    1.000
    N20      N        0.31522    0.47989    0.72946    1.000
    N21      N        0.71380    0.97396    0.96757    1.000
    N22      N        0.71873    0.05056    0.96251    1.000
    N23      N        0.74398    0.05779    0.28251    1.000
    N24      N        0.81522    0.02011    0.27054    1.000
    N25      N        0.71380    0.02604    0.46757    1.000
    N26      N        0.71873    0.94944    0.46251    1.000
    N27      N        0.74398    0.94221    0.78251    1.000
    N28      N        0.81522    0.97989    0.77054    1.000
    N29      N        0.21380    0.47396    0.53243    1.000
    N30      N        0.21873    0.55056    0.53749    1.000
    N31      N        0.24398    0.55779    0.21749    1.000
    N32      N        0.31522    0.52011    0.22946    1.000
    O17      O        0.32720    0.65365    0.09199    1.000
    O18      O        0.40519    0.54915    0.10174    1.000
    O19      O        0.62783    0.83979    0.89493    1.000
    O20      O        0.67437    0.73121    0.84826    1.000
    O21      O        0.82720    0.84635    0.90801    1.000
    O22      O        0.90519    0.95085    0.89826    1.000
    O23      O        0.12783    0.66021    0.10507    1.000
    O24      O        0.17437    0.76879    0.15174    1.000
    O25      O        0.82720    0.15365    0.40801    1.000
    O26      O        0.90519    0.04915    0.39826    1.000
    O27      O        0.12783    0.33979    0.60507    1.000
    O28      O        0.17437    0.23121    0.65174    1.000
    O29      O        0.32720    0.34635    0.59199    1.000
    O30      O        0.40519    0.45085    0.60174    1.000
    O31      O        0.62783    0.16021    0.39493    1.000
    O32      O        0.67437    0.26879    0.34826    1.000
