data_functionalizedCrystal
_audit_creation_method	'EQeq! by Chris Wilmer'
_symmetry_space_group_name_H-M	'P1'
_symmetry_Int_Tables_number	1
_symmetry_cell_setting	triclinic
loop_
_symmetry_equiv_pos_as_xyz
  x,y,z
_cell_length_a	18.6935
_cell_length_b	18.6935
_cell_length_c	38.3901
_cell_angle_alpha	90
_cell_angle_beta	90
_cell_angle_gamma	120
loop_
_atom_site_label
_atom_site_type_symbol
_atom_site_fract_x
_atom_site_fract_y
_atom_site_fract_z
_atom_site_charge
Mof_O 	O 	0.7753	0.07698	0.21054	-0.399
Mof_O 	O 	0.81534	0.03842	0.16301	-0.397
Mof_O 	O 	0.5366	0.6956	0.2627	-0.213
Mof_O 	O 	0.5512	0.6279	0.2952	-0.245
Mof_C 	C 	0.786	0.0271	0.1932	0.37
Mof_C 	C 	0.7639	0.9465	0.21011	-0.072
Mof_C 	C 	0.7327	0.9311	0.24414	-0.006
Mof_H 	H 	0.7231	0.9695	0.2554	0.061
Mof_C 	C 	0.6239	0.7682	0.3091	-0.069
Mof_C 	C 	0.7242	0.9083	0.3216	-0.027
Mof_H 	H 	0.7612	0.9607	0.3132	0.065
Mof_C 	C 	0.5736	0.6919	0.2858	0.391
Mof_O 	O 	0.44197	0.41031	0.54387	-0.399
Mof_O 	O 	0.48201	0.37175	0.49634	-0.397
Mof_O 	O 	0.20327	0.02893	0.59603	-0.213
Mof_O 	O 	0.21787	0.96123	0.62853	-0.245
Mof_C 	C 	0.45267	0.36043	0.52653	0.37
Mof_C 	C 	0.43057	0.27983	0.54344	-0.072
Mof_C 	C 	0.39937	0.26443	0.57747	-0.006
Mof_H 	H 	0.38977	0.30283	0.58873	0.061
Mof_C 	C 	0.29057	0.10153	0.64243	-0.069
Mof_C 	C 	0.39087	0.24163	0.65493	-0.027
Mof_H 	H 	0.42787	0.29403	0.64653	0.065
Mof_C 	C 	0.24027	0.02523	0.61913	0.391
Mof_O 	O 	0.10863	0.74365	0.87721	-0.399
Mof_O 	O 	0.14867	0.70509	0.82968	-0.397
Mof_O 	O 	0.86993	0.36227	0.92937	-0.213
Mof_O 	O 	0.88453	0.29457	0.96187	-0.245
Mof_C 	C 	0.11933	0.69377	0.85987	0.37
Mof_C 	C 	0.09723	0.61317	0.87678	-0.072
Mof_C 	C 	0.06603	0.59777	0.91081	-0.006
Mof_H 	H 	0.05643	0.63617	0.92207	0.061
Mof_C 	C 	0.95723	0.43487	0.97577	-0.069
Mof_C 	C 	0.05753	0.57497	0.98827	-0.027
Mof_H 	H 	0.09453	0.62737	0.97987	0.065
Mof_C 	C 	0.90693	0.35857	0.95247	0.391
Mof_O 	O 	0.92302	0.69832	0.21054	-0.399
Mof_O 	O 	0.96158	0.77692	0.16301	-0.397
Mof_O 	O 	0.3044	0.841	0.2627	-0.213
Mof_O 	O 	0.3721	0.9233	0.2952	-0.245
Mof_C 	C 	0.9729	0.7589	0.1932	0.37
Mof_C 	C 	0.0535	0.8174	0.21011	-0.072
Mof_C 	C 	0.0689	0.8016	0.24414	-0.006
Mof_H 	H 	0.0305	0.7536	0.2554	0.061
Mof_C 	C 	0.2318	0.8557	0.3091	-0.069
Mof_C 	C 	0.0917	0.8159	0.3216	-0.027
Mof_H 	H 	0.0393	0.8005	0.3132	0.065
Mof_C 	C 	0.3081	0.8817	0.2858	0.391
Mof_O 	O 	0.58969	0.03165	0.54387	-0.399
Mof_O 	O 	0.62825	0.11025	0.49634	-0.397
Mof_O 	O 	0.97107	0.17433	0.59603	-0.213
Mof_O 	O 	0.03877	0.25663	0.62853	-0.245
Mof_C 	C 	0.63957	0.09223	0.52653	0.37
Mof_C 	C 	0.72017	0.15073	0.54344	-0.072
Mof_C 	C 	0.73557	0.13493	0.57747	-0.005
Mof_H 	H 	0.69717	0.08693	0.58873	0.062
Mof_C 	C 	0.89847	0.18903	0.64243	-0.068
Mof_C 	C 	0.75837	0.14923	0.65493	-0.026
Mof_H 	H 	0.70597	0.13383	0.64653	0.066
Mof_C 	C 	0.97477	0.21503	0.61913	0.392
Mof_O 	O 	0.25635	0.36499	0.87721	-0.398
Mof_O 	O 	0.29491	0.44359	0.82968	-0.396
Mof_O 	O 	0.63773	0.50767	0.92937	-0.212
Mof_O 	O 	0.70543	0.58997	0.96187	-0.244
Mof_C 	C 	0.30623	0.42557	0.85987	0.371
Mof_C 	C 	0.38683	0.48407	0.87678	-0.071
Mof_C 	C 	0.40223	0.46827	0.91081	-0.005
Mof_H 	H 	0.36383	0.42027	0.92207	0.062
Mof_C 	C 	0.56513	0.52237	0.97577	-0.068
Mof_C 	C 	0.42503	0.48257	0.98827	-0.026
Mof_H 	H 	0.37263	0.46717	0.97987	0.066
Mof_C 	C 	0.64143	0.54837	0.95247	0.392
Mof_O 	O 	0.30168	0.2247	0.21054	-0.398
Mof_O 	O 	0.22308	0.18466	0.16301	-0.396
Mof_O 	O 	0.159	0.4634	0.2627	-0.212
Mof_O 	O 	0.0767	0.4488	0.2952	-0.244
Mof_C 	C 	0.2411	0.214	0.1932	0.371
Mof_C 	C 	0.1826	0.2361	0.21011	-0.071
Mof_C 	C 	0.1984	0.2673	0.24414	-0.005
Mof_H 	H 	0.2464	0.2769	0.2554	0.062
Mof_C 	C 	0.1443	0.3761	0.3091	-0.068
Mof_C 	C 	0.1841	0.2758	0.3216	-0.026
Mof_H 	H 	0.1995	0.2388	0.3132	0.066
Mof_C 	C 	0.1183	0.4264	0.2858	0.392
Mof_O 	O 	0.96835	0.55803	0.54387	-0.398
Mof_O 	O 	0.88975	0.51799	0.49634	-0.396
Mof_O 	O 	0.82567	0.79673	0.59603	-0.212
Mof_O 	O 	0.74337	0.78213	0.62853	-0.244
Mof_C 	C 	0.90777	0.54733	0.52653	0.371
Mof_C 	C 	0.84927	0.56943	0.54344	-0.071
Mof_C 	C 	0.86507	0.60063	0.57747	-0.005
Mof_H 	H 	0.91307	0.61023	0.58873	0.062
Mof_C 	C 	0.81097	0.70943	0.64243	-0.068
Mof_C 	C 	0.85077	0.60913	0.65493	-0.026
Mof_H 	H 	0.86617	0.57213	0.64653	0.066
Mof_C 	C 	0.78497	0.75973	0.61913	0.392
Mof_O 	O 	0.63501	0.89137	0.87721	-0.398
Mof_O 	O 	0.55641	0.85133	0.82968	-0.396
Mof_O 	O 	0.49233	0.13007	0.92937	-0.212
Mof_O 	O 	0.41003	0.11547	0.96187	-0.244
Mof_C 	C 	0.57443	0.88067	0.85987	0.371
Mof_C 	C 	0.51593	0.90277	0.87678	-0.071
Mof_C 	C 	0.53173	0.93397	0.91081	-0.005
Mof_H 	H 	0.57973	0.94357	0.92207	0.062
Mof_C 	C 	0.47763	0.04277	0.97577	-0.068
Mof_C 	C 	0.51743	0.94247	0.98827	-0.026
Mof_H 	H 	0.53283	0.90547	0.97987	0.066
Mof_C 	C 	0.45163	0.09307	0.95247	0.392
Mof_O 	O 	0.07698	0.7753	0.78946	-0.398
Mof_O 	O 	0.03842	0.81534	0.83699	-0.396
Mof_O 	O 	0.6956	0.5366	0.7373	-0.212
Mof_O 	O 	0.6279	0.5512	0.7048	-0.244
Mof_C 	C 	0.0271	0.786	0.8068	0.371
Mof_C 	C 	0.9465	0.7639	0.78989	-0.071
Mof_C 	C 	0.9311	0.7327	0.75586	-0.005
Mof_H 	H 	0.9695	0.7231	0.7446	0.062
Mof_C 	C 	0.7682	0.6239	0.6909	-0.068
Mof_C 	C 	0.9083	0.7242	0.6784	-0.026
Mof_H 	H 	0.9607	0.7612	0.6868	0.066
Mof_C 	C 	0.6919	0.5736	0.7142	0.392
Mof_O 	O 	0.74365	0.10863	0.12279	-0.398
Mof_O 	O 	0.70509	0.14867	0.17032	-0.396
Mof_O 	O 	0.36227	0.86993	0.07063	-0.212
Mof_O 	O 	0.29457	0.88453	0.03813	-0.244
Mof_C 	C 	0.69377	0.11933	0.14013	0.371
Mof_C 	C 	0.61317	0.09723	0.12322	-0.071
Mof_C 	C 	0.59777	0.06603	0.08919	-0.005
Mof_H 	H 	0.63617	0.05643	0.07793	0.062
Mof_C 	C 	0.43487	0.95723	0.02423	-0.068
Mof_C 	C 	0.57497	0.05753	0.01173	-0.026
Mof_H 	H 	0.62737	0.09453	0.02013	0.066
Mof_C 	C 	0.35857	0.90693	0.04753	0.392
Mof_O 	O 	0.41031	0.44197	0.45613	-0.398
Mof_O 	O 	0.37175	0.48201	0.50366	-0.396
Mof_O 	O 	0.02893	0.20327	0.40397	-0.212
Mof_O 	O 	0.96123	0.21787	0.37147	-0.244
Mof_C 	C 	0.36043	0.45267	0.47347	0.371
Mof_C 	C 	0.27983	0.43057	0.45656	-0.071
Mof_C 	C 	0.26443	0.39937	0.42253	-0.005
Mof_H 	H 	0.30283	0.38977	0.41127	0.062
Mof_C 	C 	0.10153	0.29057	0.35757	-0.068
Mof_C 	C 	0.24163	0.39087	0.34507	-0.026
Mof_H 	H 	0.29403	0.42787	0.35347	0.066
Mof_C 	C 	0.02523	0.24027	0.38087	0.392
Mof_O 	O 	0.69832	0.92302	0.78946	-0.398
Mof_O 	O 	0.77692	0.96158	0.83699	-0.396
Mof_O 	O 	0.841	0.3044	0.7373	-0.212
Mof_O 	O 	0.9233	0.3721	0.7048	-0.244
Mof_C 	C 	0.7589	0.9729	0.8068	0.371
Mof_C 	C 	0.8174	0.0535	0.78989	-0.071
Mof_C 	C 	0.8016	0.0689	0.75586	-0.005
Mof_H 	H 	0.7536	0.0305	0.7446	0.062
Mof_C 	C 	0.8557	0.2318	0.6909	-0.068
Mof_C 	C 	0.8159	0.0917	0.6784	-0.026
Mof_H 	H 	0.8005	0.0393	0.6868	0.066
Mof_C 	C 	0.8817	0.3081	0.7142	0.392
Mof_O 	O 	0.36499	0.25635	0.12279	-0.398
Mof_O 	O 	0.44359	0.29491	0.17032	-0.396
Mof_O 	O 	0.50767	0.63773	0.07063	-0.212
Mof_O 	O 	0.58997	0.70543	0.03813	-0.244
Mof_C 	C 	0.42557	0.30623	0.14013	0.371
Mof_C 	C 	0.48407	0.38683	0.12322	-0.071
Mof_C 	C 	0.46827	0.40223	0.08919	-0.005
Mof_H 	H 	0.42027	0.36383	0.07793	0.062
Mof_C 	C 	0.52237	0.56513	0.02423	-0.068
Mof_C 	C 	0.48257	0.42503	0.01173	-0.026
Mof_H 	H 	0.46717	0.37263	0.02013	0.066
Mof_C 	C 	0.54837	0.64143	0.04753	0.392
Mof_O 	O 	0.03165	0.58969	0.45613	-0.398
Mof_O 	O 	0.11025	0.62825	0.50366	-0.396
Mof_O 	O 	0.17433	0.97107	0.40397	-0.212
Mof_O 	O 	0.25663	0.03877	0.37147	-0.244
Mof_C 	C 	0.09223	0.63957	0.47347	0.371
Mof_C 	C 	0.15073	0.72017	0.45656	-0.071
Mof_C 	C 	0.13493	0.73557	0.42253	-0.005
Mof_H 	H 	0.08693	0.69717	0.41127	0.062
Mof_C 	C 	0.18903	0.89847	0.35757	-0.068
Mof_C 	C 	0.14923	0.75837	0.34507	-0.026
Mof_H 	H 	0.13383	0.70597	0.35347	0.066
Mof_C 	C 	0.21503	0.97477	0.38087	0.392
Mof_O 	O 	0.2247	0.30168	0.78946	-0.398
Mof_O 	O 	0.18466	0.22308	0.83699	-0.396
Mof_O 	O 	0.4634	0.159	0.7373	-0.212
Mof_O 	O 	0.4488	0.0767	0.7048	-0.244
Mof_C 	C 	0.214	0.2411	0.8068	0.371
Mof_C 	C 	0.2361	0.1826	0.78989	-0.071
Mof_C 	C 	0.2673	0.1984	0.75586	-0.005
Mof_H 	H 	0.2769	0.2464	0.7446	0.062
Mof_C 	C 	0.3761	0.1443	0.6909	-0.068
Mof_C 	C 	0.2758	0.1841	0.6784	-0.026
Mof_H 	H 	0.2388	0.1995	0.6868	0.066
Mof_C 	C 	0.4264	0.1183	0.7142	0.392
Mof_O 	O 	0.89137	0.63501	0.12279	-0.398
Mof_O 	O 	0.85133	0.55641	0.17032	-0.396
Mof_O 	O 	0.13007	0.49233	0.07063	-0.212
Mof_O 	O 	0.11547	0.41003	0.03813	-0.244
Mof_C 	C 	0.88067	0.57443	0.14013	0.371
Mof_C 	C 	0.90277	0.51593	0.12322	-0.071
Mof_C 	C 	0.93397	0.53173	0.08919	-0.005
Mof_H 	H 	0.94357	0.57973	0.07793	0.062
Mof_C 	C 	0.04277	0.47763	0.02423	-0.068
Mof_C 	C 	0.94247	0.51743	0.01173	-0.026
Mof_H 	H 	0.90547	0.53283	0.02013	0.066
Mof_C 	C 	0.09307	0.45163	0.04753	0.392
Mof_O 	O 	0.55803	0.96835	0.45613	-0.398
Mof_O 	O 	0.51799	0.88975	0.50366	-0.396
Mof_O 	O 	0.79673	0.82567	0.40397	-0.212
Mof_O 	O 	0.78213	0.74337	0.37147	-0.244
Mof_C 	C 	0.54733	0.90777	0.47347	0.371
Mof_C 	C 	0.56943	0.84927	0.45656	-0.071
Mof_C 	C 	0.60063	0.86507	0.42253	-0.005
Mof_H 	H 	0.61023	0.91307	0.41127	0.062
Mof_C 	C 	0.70943	0.81097	0.35757	-0.068
Mof_C 	C 	0.60913	0.85077	0.34507	-0.026
Mof_H 	H 	0.57213	0.86617	0.35347	0.066
Mof_C 	C 	0.75973	0.78497	0.38087	0.392
Mof_O 	O 	0.2247	0.92302	0.78946	-0.398
Mof_O 	O 	0.18466	0.96158	0.83699	-0.396
Mof_O 	O 	0.4634	0.3044	0.7373	-0.212
Mof_O 	O 	0.4488	0.3721	0.7048	-0.244
Mof_C 	C 	0.214	0.9729	0.8068	0.371
Mof_C 	C 	0.2361	0.0535	0.78989	-0.071
Mof_C 	C 	0.2673	0.0689	0.75586	-0.005
Mof_H 	H 	0.2769	0.0305	0.7446	0.062
Mof_C 	C 	0.3761	0.2318	0.6909	-0.068
Mof_C 	C 	0.2758	0.0917	0.6784	-0.026
Mof_H 	H 	0.2388	0.0393	0.6868	0.066
Mof_C 	C 	0.4264	0.3081	0.7142	0.392
Mof_O 	O 	0.89137	0.25635	0.12279	-0.398
Mof_O 	O 	0.85133	0.29491	0.17032	-0.396
Mof_O 	O 	0.13007	0.63773	0.07063	-0.212
Mof_O 	O 	0.11547	0.70543	0.03813	-0.244
Mof_C 	C 	0.88067	0.30623	0.14013	0.371
Mof_C 	C 	0.90277	0.38683	0.12322	-0.071
Mof_C 	C 	0.93397	0.40223	0.08919	-0.005
Mof_H 	H 	0.94357	0.36383	0.07793	0.062
Mof_C 	C 	0.04277	0.56513	0.02423	-0.068
Mof_C 	C 	0.94247	0.42503	0.01173	-0.026
Mof_H 	H 	0.90547	0.37263	0.02013	0.066
Mof_C 	C 	0.09307	0.64143	0.04753	0.392
Mof_O 	O 	0.55803	0.58969	0.45613	-0.398
Mof_O 	O 	0.51799	0.62825	0.50366	-0.396
Mof_O 	O 	0.79673	0.97107	0.40397	-0.212
Mof_O 	O 	0.78213	0.03877	0.37147	-0.244
Mof_C 	C 	0.54733	0.63957	0.47347	0.371
Mof_C 	C 	0.56943	0.72017	0.45656	-0.071
Mof_C 	C 	0.60063	0.73557	0.42253	-0.005
Mof_H 	H 	0.61023	0.69717	0.41127	0.062
Mof_C 	C 	0.70943	0.89847	0.35757	-0.068
Mof_C 	C 	0.60913	0.75837	0.34507	-0.026
Mof_H 	H 	0.57213	0.70597	0.35347	0.066
Mof_C 	C 	0.75973	0.97477	0.38087	0.392
Mof_O 	O 	0.07698	0.30168	0.78946	-0.398
Mof_O 	O 	0.03842	0.22308	0.83699	-0.396
Mof_O 	O 	0.6956	0.159	0.7373	-0.212
Mof_O 	O 	0.6279	0.0767	0.7048	-0.244
Mof_C 	C 	0.0271	0.2411	0.8068	0.371
Mof_C 	C 	0.9465	0.1826	0.78989	-0.071
Mof_C 	C 	0.9311	0.1984	0.75586	-0.005
Mof_H 	H 	0.9695	0.2464	0.7446	0.062
Mof_C 	C 	0.7682	0.1443	0.6909	-0.068
Mof_C 	C 	0.9083	0.1841	0.6784	-0.026
Mof_H 	H 	0.9607	0.1995	0.6868	0.066
Mof_C 	C 	0.6919	0.1183	0.7142	0.392
Mof_O 	O 	0.74365	0.63501	0.12279	-0.398
Mof_O 	O 	0.70509	0.55641	0.17032	-0.396
Mof_O 	O 	0.36227	0.49233	0.07063	-0.212
Mof_O 	O 	0.29457	0.41003	0.03813	-0.244
Mof_C 	C 	0.69377	0.57443	0.14013	0.371
Mof_C 	C 	0.61317	0.51593	0.12322	-0.071
Mof_C 	C 	0.59777	0.53173	0.08919	-0.005
Mof_H 	H 	0.63617	0.57973	0.07793	0.062
Mof_C 	C 	0.43487	0.47763	0.02423	-0.068
Mof_C 	C 	0.57497	0.51743	0.01173	-0.026
Mof_H 	H 	0.62737	0.53283	0.02013	0.066
Mof_C 	C 	0.35857	0.45163	0.04753	0.392
Mof_O 	O 	0.41031	0.96835	0.45613	-0.398
Mof_O 	O 	0.37175	0.88975	0.50366	-0.396
Mof_O 	O 	0.02893	0.82567	0.40397	-0.212
Mof_O 	O 	0.96123	0.74337	0.37147	-0.244
Mof_C 	C 	0.36043	0.90777	0.47347	0.371
Mof_C 	C 	0.27983	0.84927	0.45656	-0.071
Mof_C 	C 	0.26443	0.86507	0.42253	-0.005
Mof_H 	H 	0.30283	0.91307	0.41127	0.062
Mof_C 	C 	0.10153	0.81097	0.35757	-0.068
Mof_C 	C 	0.24163	0.85077	0.34507	-0.026
Mof_H 	H 	0.29403	0.86617	0.35347	0.066
Mof_C 	C 	0.02523	0.78497	0.38087	0.392
Mof_O 	O 	0.69832	0.7753	0.78946	-0.398
Mof_O 	O 	0.77692	0.81534	0.83699	-0.396
Mof_O 	O 	0.841	0.5366	0.7373	-0.212
Mof_O 	O 	0.9233	0.5512	0.7048	-0.244
Mof_C 	C 	0.7589	0.786	0.8068	0.371
Mof_C 	C 	0.8174	0.7639	0.78989	-0.071
Mof_C 	C 	0.8016	0.7327	0.75586	-0.005
Mof_H 	H 	0.7536	0.7231	0.7446	0.062
Mof_C 	C 	0.8557	0.6239	0.6909	-0.068
Mof_C 	C 	0.8159	0.7242	0.6784	-0.026
Mof_H 	H 	0.8005	0.7612	0.6868	0.066
Mof_C 	C 	0.8817	0.5736	0.7142	0.392
Mof_O 	O 	0.36499	0.10863	0.12279	-0.398
Mof_O 	O 	0.44359	0.14867	0.17032	-0.396
Mof_O 	O 	0.50767	0.86993	0.07063	-0.212
Mof_O 	O 	0.58997	0.88453	0.03813	-0.244
Mof_C 	C 	0.42557	0.11933	0.14013	0.371
Mof_C 	C 	0.48407	0.09723	0.12322	-0.071
Mof_C 	C 	0.46827	0.06603	0.08919	-0.005
Mof_H 	H 	0.42027	0.05643	0.07793	0.062
Mof_C 	C 	0.52237	0.95723	0.02423	-0.068
Mof_C 	C 	0.48257	0.05753	0.01173	-0.026
Mof_H 	H 	0.46717	0.09453	0.02013	0.066
Mof_C 	C 	0.54837	0.90693	0.04753	0.392
Mof_O 	O 	0.03165	0.44197	0.45613	-0.398
Mof_O 	O 	0.11025	0.48201	0.50366	-0.396
Mof_O 	O 	0.17433	0.20327	0.40397	-0.212
Mof_O 	O 	0.25663	0.21787	0.37147	-0.244
Mof_C 	C 	0.09223	0.45267	0.47347	0.371
Mof_C 	C 	0.15073	0.43057	0.45656	-0.071
Mof_C 	C 	0.13493	0.39937	0.42253	-0.005
Mof_H 	H 	0.08693	0.38977	0.41127	0.062
Mof_C 	C 	0.18903	0.29057	0.35757	-0.068
Mof_C 	C 	0.14923	0.39087	0.34507	-0.026
Mof_H 	H 	0.13383	0.42787	0.35347	0.066
Mof_C 	C 	0.21503	0.24027	0.38087	0.392
Mof_O 	O 	0.92302	0.2247	0.21054	-0.398
Mof_O 	O 	0.96158	0.18466	0.16301	-0.396
Mof_O 	O 	0.3044	0.4634	0.2627	-0.212
Mof_O 	O 	0.3721	0.4488	0.2952	-0.244
Mof_C 	C 	0.9729	0.214	0.1932	0.371
Mof_C 	C 	0.0535	0.2361	0.21011	-0.071
Mof_C 	C 	0.0689	0.2673	0.24414	-0.005
Mof_H 	H 	0.0305	0.2769	0.2554	0.062
Mof_C 	C 	0.2318	0.3761	0.3091	-0.068
Mof_C 	C 	0.0917	0.2758	0.3216	-0.026
Mof_H 	H 	0.0393	0.2388	0.3132	0.066
Mof_C 	C 	0.3081	0.4264	0.2858	0.392
Mof_O 	O 	0.58969	0.55803	0.54387	-0.398
Mof_O 	O 	0.62825	0.51799	0.49634	-0.396
Mof_O 	O 	0.97107	0.79673	0.59603	-0.212
Mof_O 	O 	0.03877	0.78213	0.62853	-0.244
Mof_C 	C 	0.63957	0.54733	0.52653	0.371
Mof_C 	C 	0.72017	0.56943	0.54344	-0.071
Mof_C 	C 	0.73557	0.60063	0.57747	-0.005
Mof_H 	H 	0.69717	0.61023	0.58873	0.062
Mof_C 	C 	0.89847	0.70943	0.64243	-0.068
Mof_C 	C 	0.75837	0.60913	0.65493	-0.026
Mof_H 	H 	0.70597	0.57213	0.64653	0.066
Mof_C 	C 	0.97477	0.75973	0.61913	0.392
Mof_O 	O 	0.25635	0.89137	0.87721	-0.398
Mof_O 	O 	0.29491	0.85133	0.82968	-0.396
Mof_O 	O 	0.63773	0.13007	0.92937	-0.212
Mof_O 	O 	0.70543	0.11547	0.96187	-0.244
Mof_C 	C 	0.30623	0.88067	0.85987	0.371
Mof_C 	C 	0.38683	0.90277	0.87678	-0.071
Mof_C 	C 	0.40223	0.93397	0.91081	-0.005
Mof_H 	H 	0.36383	0.94357	0.92207	0.062
Mof_C 	C 	0.56513	0.04277	0.97577	-0.068
Mof_C 	C 	0.42503	0.94247	0.98827	-0.026
Mof_H 	H 	0.37263	0.90547	0.97987	0.066
Mof_C 	C 	0.64143	0.09307	0.95247	0.392
Mof_O 	O 	0.30168	0.07698	0.21054	-0.398
Mof_O 	O 	0.22308	0.03842	0.16301	-0.396
Mof_O 	O 	0.159	0.6956	0.2627	-0.212
Mof_O 	O 	0.0767	0.6279	0.2952	-0.244
Mof_C 	C 	0.2411	0.0271	0.1932	0.371
Mof_C 	C 	0.1826	0.9465	0.21011	-0.071
Mof_C 	C 	0.1984	0.9311	0.24414	-0.005
Mof_H 	H 	0.2464	0.9695	0.2554	0.062
Mof_C 	C 	0.1443	0.7682	0.3091	-0.068
Mof_C 	C 	0.1841	0.9083	0.3216	-0.026
Mof_H 	H 	0.1995	0.9607	0.3132	0.066
Mof_C 	C 	0.1183	0.6919	0.2858	0.392
Mof_O 	O 	0.96835	0.41031	0.54387	-0.398
Mof_O 	O 	0.88975	0.37175	0.49634	-0.396
Mof_O 	O 	0.82567	0.02893	0.59603	-0.212
Mof_O 	O 	0.74337	0.96123	0.62853	-0.244
Mof_C 	C 	0.90777	0.36043	0.52653	0.371
Mof_C 	C 	0.84927	0.27983	0.54344	-0.071
Mof_C 	C 	0.86507	0.26443	0.57747	-0.005
Mof_H 	H 	0.91307	0.30283	0.58873	0.062
Mof_C 	C 	0.81097	0.10153	0.64243	-0.068
Mof_C 	C 	0.85077	0.24163	0.65493	-0.026
Mof_H 	H 	0.86617	0.29403	0.64653	0.066
Mof_C 	C 	0.78497	0.02523	0.61913	0.392
Mof_O 	O 	0.63501	0.74365	0.87721	-0.398
Mof_O 	O 	0.55641	0.70509	0.82968	-0.396
Mof_O 	O 	0.49233	0.36227	0.92937	-0.212
Mof_O 	O 	0.41003	0.29457	0.96187	-0.244
Mof_C 	C 	0.57443	0.69377	0.85987	0.371
Mof_C 	C 	0.51593	0.61317	0.87678	-0.071
Mof_C 	C 	0.53173	0.59777	0.91081	-0.005
Mof_H 	H 	0.57973	0.63617	0.92207	0.062
Mof_C 	C 	0.47763	0.43487	0.97577	-0.068
Mof_C 	C 	0.51743	0.57497	0.98827	-0.026
Mof_H 	H 	0.53283	0.62737	0.97987	0.066
Mof_C 	C 	0.45163	0.35857	0.95247	0.392
Mof_O 	O 	0.7753	0.69832	0.21054	-0.398
Mof_O 	O 	0.81534	0.77692	0.16301	-0.396
Mof_O 	O 	0.5366	0.841	0.2627	-0.212
Mof_O 	O 	0.5512	0.9233	0.2952	-0.244
Mof_C 	C 	0.786	0.7589	0.1932	0.371
Mof_C 	C 	0.7639	0.8174	0.21011	-0.071
Mof_C 	C 	0.7327	0.8016	0.24414	-0.005
Mof_H 	H 	0.7231	0.7536	0.2554	0.062
Mof_C 	C 	0.6239	0.8557	0.3091	-0.068
Mof_C 	C 	0.7242	0.8159	0.3216	-0.026
Mof_H 	H 	0.7612	0.8005	0.3132	0.066
Mof_C 	C 	0.5736	0.8817	0.2858	0.392
Mof_O 	O 	0.44197	0.03165	0.54387	-0.398
Mof_O 	O 	0.48201	0.11025	0.49634	-0.396
Mof_O 	O 	0.20327	0.17433	0.59603	-0.212
Mof_O 	O 	0.21787	0.25663	0.62853	-0.244
Mof_C 	C 	0.45267	0.09223	0.52653	0.371
Mof_C 	C 	0.43057	0.15073	0.54344	-0.071
Mof_C 	C 	0.39937	0.13493	0.57747	-0.005
Mof_H 	H 	0.38977	0.08693	0.58873	0.062
Mof_C 	C 	0.29057	0.18903	0.64243	-0.068
Mof_C 	C 	0.39087	0.14923	0.65493	-0.026
Mof_H 	H 	0.42787	0.13383	0.64653	0.066
Mof_C 	C 	0.24027	0.21503	0.61913	0.392
Mof_O 	O 	0.10863	0.36499	0.87721	-0.398
Mof_O 	O 	0.14867	0.44359	0.82968	-0.396
Mof_O 	O 	0.86993	0.50767	0.92937	-0.212
Mof_O 	O 	0.88453	0.58997	0.96187	-0.244
Mof_C 	C 	0.11933	0.42557	0.85987	0.371
Mof_C 	C 	0.09723	0.48407	0.87678	-0.071
Mof_C 	C 	0.06603	0.46827	0.91081	-0.005
Mof_H 	H 	0.05643	0.42027	0.92207	0.062
Mof_C 	C 	0.95723	0.52237	0.97577	-0.068
Mof_C 	C 	0.05753	0.48257	0.98827	-0.026
Mof_H 	H 	0.09453	0.46717	0.97987	0.066
Mof_C 	C 	0.90693	0.54837	0.95247	0.392
Mof_Cu	Cu	0.85664	0.14336	0.13827	0.911
Mof_Cu	Cu	0.52331	0.47669	0.4716	0.911
Mof_Cu	Cu	0.18997	0.81003	0.80494	0.911
Mof_Cu	Cu	0.85664	0.71328	0.13827	0.911
Mof_Cu	Cu	0.52331	0.04661	0.4716	0.911
Mof_Cu	Cu	0.18997	0.37995	0.80494	0.911
Mof_Cu	Cu	0.28672	0.14336	0.13827	0.911
Mof_Cu	Cu	0.95339	0.47669	0.4716	0.911
Mof_Cu	Cu	0.62005	0.81003	0.80494	0.911
Mof_Cu	Cu	0.14336	0.85664	0.86173	0.911
Mof_Cu	Cu	0.81003	0.18997	0.19506	0.911
Mof_Cu	Cu	0.47669	0.52331	0.5284	0.911
Mof_Cu	Cu	0.71328	0.85664	0.86173	0.911
Mof_Cu	Cu	0.37995	0.18997	0.19506	0.911
Mof_Cu	Cu	0.04661	0.52331	0.5284	0.911
Mof_Cu	Cu	0.14336	0.28672	0.86173	0.911
Mof_Cu	Cu	0.81003	0.62005	0.19506	0.911
Mof_Cu	Cu	0.47669	0.95339	0.5284	0.911
Mof_C 	C 	0.7798	0.8899	0.19354	0.031
Mof_H 	H 	0.8014	0.9007	0.1711	0.064
Mof_C 	C 	0.7156	0.8578	0.26148	-0.006
Mof_C 	C 	0.6862	0.8431	0.29758	0.061
Mof_C 	C 	0.44647	0.22323	0.52687	0.031
Mof_H 	H 	0.46807	0.23403	0.50443	0.064
Mof_C 	C 	0.38227	0.19113	0.59481	-0.006
Mof_C 	C 	0.35287	0.17643	0.63091	0.061
Mof_C 	C 	0.11313	0.55657	0.86021	0.031
Mof_H 	H 	0.13473	0.56737	0.83777	0.064
Mof_C 	C 	0.04893	0.52447	0.92815	-0.006
Mof_C 	C 	0.01953	0.50977	0.96425	0.061
Mof_C 	C 	0.1101	0.8899	0.19354	0.031
Mof_H 	H 	0.0993	0.9007	0.1711	0.064
Mof_C 	C 	0.1422	0.8578	0.26148	-0.006
Mof_C 	C 	0.1569	0.8431	0.29758	0.061
Mof_C 	C 	0.77677	0.22323	0.52687	0.031
Mof_H 	H 	0.76597	0.23403	0.50443	0.064
Mof_C 	C 	0.80887	0.19113	0.59481	-0.006
Mof_C 	C 	0.82357	0.17643	0.63091	0.061
Mof_C 	C 	0.44343	0.55657	0.86021	0.031
Mof_H 	H 	0.43263	0.56737	0.83777	0.064
Mof_C 	C 	0.47553	0.52447	0.92815	-0.006
Mof_C 	C 	0.49023	0.50977	0.96425	0.061
Mof_C 	C 	0.1101	0.2202	0.19354	0.031
Mof_H 	H 	0.0993	0.1986	0.1711	0.064
Mof_C 	C 	0.1422	0.2844	0.26148	-0.006
Mof_C 	C 	0.1569	0.3138	0.29758	0.061
Mof_C 	C 	0.77677	0.55353	0.52687	0.031
Mof_H 	H 	0.76597	0.53193	0.50443	0.064
Mof_C 	C 	0.80887	0.61773	0.59481	-0.006
Mof_C 	C 	0.82357	0.64713	0.63091	0.061
Mof_C 	C 	0.44343	0.88687	0.86021	0.031
Mof_H 	H 	0.43263	0.86527	0.83777	0.064
Mof_C 	C 	0.47553	0.95107	0.92815	-0.006
Mof_C 	C 	0.49023	0.98047	0.96425	0.061
Mof_C 	C 	0.8899	0.7798	0.80646	0.031
Mof_H 	H 	0.9007	0.8014	0.8289	0.064
Mof_C 	C 	0.8578	0.7156	0.73852	-0.006
Mof_C 	C 	0.8431	0.6862	0.70242	0.061
Mof_C 	C 	0.55657	0.11313	0.13979	0.031
Mof_H 	H 	0.56737	0.13473	0.16223	0.064
Mof_C 	C 	0.52447	0.04893	0.07185	-0.006
Mof_C 	C 	0.50977	0.01953	0.03575	0.061
Mof_C 	C 	0.22323	0.44647	0.47313	0.031
Mof_H 	H 	0.23403	0.46807	0.49557	0.064
Mof_C 	C 	0.19113	0.38227	0.40519	-0.006
Mof_C 	C 	0.17643	0.35287	0.36909	0.061
Mof_C 	C 	0.8899	0.1101	0.80646	0.031
Mof_H 	H 	0.9007	0.0993	0.8289	0.064
Mof_C 	C 	0.8578	0.1422	0.73852	-0.006
Mof_C 	C 	0.8431	0.1569	0.70242	0.061
Mof_C 	C 	0.55657	0.44343	0.13979	0.031
Mof_H 	H 	0.56737	0.43263	0.16223	0.064
Mof_C 	C 	0.52447	0.47553	0.07185	-0.006
Mof_C 	C 	0.50977	0.49023	0.03575	0.061
Mof_C 	C 	0.22323	0.77677	0.47313	0.031
Mof_H 	H 	0.23403	0.76597	0.49557	0.064
Mof_C 	C 	0.19113	0.80887	0.40519	-0.006
Mof_C 	C 	0.17643	0.82357	0.36909	0.061
Mof_C 	C 	0.2202	0.1101	0.80646	0.031
Mof_H 	H 	0.1986	0.0993	0.8289	0.064
Mof_C 	C 	0.2844	0.1422	0.73852	-0.006
Mof_C 	C 	0.3138	0.1569	0.70242	0.061
Mof_C 	C 	0.88687	0.44343	0.13979	0.031
Mof_H 	H 	0.86527	0.43263	0.16223	0.064
Mof_C 	C 	0.95107	0.47553	0.07185	-0.006
Mof_C 	C 	0.98047	0.49023	0.03575	0.061
Mof_C 	C 	0.55353	0.77677	0.47313	0.031
Mof_H 	H 	0.53193	0.76597	0.49557	0.064
Mof_C 	C 	0.61773	0.80887	0.40519	-0.006
Mof_C 	C 	0.64713	0.82357	0.36909	0.061
_end
