# CIF file generated by openbabel 3.1.0, see https://openbabel.org
data_I
_chemical_name_common 'image0'
_cell_length_a 15.8792
_cell_length_b 15.8792
_cell_length_c 21.594
_cell_angle_alpha 90
_cell_angle_beta 90
_cell_angle_gamma 90
_space_group_name_H-M_alt 'P 1'
_space_group_name_Hall 'P 1'
loop_
    _symmetry_equiv_pos_as_xyz
    x,y,z
loop_
    _atom_site_label
    _atom_site_type_symbol
    _atom_site_fract_x
    _atom_site_fract_y
    _atom_site_fract_z
    _atom_site_occupancy
    C1       C        0.59020    0.64020    0.35940    1.000
    H1       H        0.54250    0.61000    0.34790    1.000
    C2       C        0.61680    0.70190    0.31990    1.000
    H2       H        0.58680    0.71440    0.28410    1.000
    C3       C        0.69190    0.74660    0.33500    1.000
    C4       C        0.73380    0.71860    0.38700    1.000
    H3       H        0.78600    0.74160    0.39690    1.000
    C5       C        0.70000    0.65770    0.42430    1.000
    H4       H        0.72950    0.64170    0.45960    1.000
    C6       C        0.72130    0.81870    0.29770    1.000
    C7       C        0.69310    0.83540    0.23870    1.000
    H5       H        0.65400    0.79950    0.22050    1.000
    C8       C        0.72150    0.90410    0.20600    1.000
    H6       H        0.70110    0.91380    0.16630    1.000
    C9       C        0.77950    0.95860    0.23090    1.000
    H7       H        0.79710    0.00610    0.20920    1.000
    C10      C        0.81170    0.94070    0.29010    1.000
    C11      C        0.78190    0.87190    0.32300    1.000
    H8       H        0.80280    0.86110    0.36240    1.000
    C12      C        0.87480    0.99620    0.32070    1.000
    C13      C        0.92490    0.09220    0.38300    1.000
    C14      C        0.93360    0.16170    0.42750    1.000
    C15      C        0.00710    0.16570    0.46330    1.000
    H9       H        0.04800    0.12400    0.46010    1.000
    C16      C        0.01750    0.23200    0.50300    1.000
    H10      H        0.06550    0.23480    0.52760    1.000
    C17      C        0.95850    0.29380    0.50680    1.000
    H11      H        0.96680    0.33800    0.53440    1.000
    C18      C        0.88660    0.29290    0.47100    1.000
    C19      C        0.87440    0.22690    0.43170    1.000
    H12      H        0.82620    0.22510    0.40730    1.000
    C20      C        0.81910    0.35790    0.47780    1.000
    C21      C        0.80840    0.40430    0.53210    1.000
    H13      H        0.84620    0.39780    0.56460    1.000
    C22      C        0.74160    0.45990    0.53750    1.000
    H14      H        0.73460    0.48850    0.57480    1.000
    C23      C        0.69750    0.43240    0.43960    1.000
    H15      H        0.65960    0.44120    0.40740    1.000
    C24      C        0.76260    0.37580    0.43080    1.000
    H16      H        0.76860    0.34940    0.39260    1.000
    N1       N        0.62570    0.61980    0.41230    1.000
    N2       N        0.95530    0.99420    0.31640    1.000
    N3       N        0.98880    0.05470    0.35550    1.000
    N4       N        0.85250    0.05690    0.36180    1.000
    N5       N        0.77050    0.07680    0.38320    1.000
    H17      H        0.74470    0.02820    0.39140    1.000
    H18      H        0.74160    0.10450    0.35470    1.000
    N6       N        0.68670    0.47460    0.49190    1.000
    C25      C        0.40980    0.35980    0.85940    1.000
    H19      H        0.45750    0.39000    0.84790    1.000
    C26      C        0.38320    0.29810    0.81990    1.000
    H20      H        0.41320    0.28560    0.78410    1.000
    C27      C        0.30810    0.25340    0.83500    1.000
    C28      C        0.26620    0.28140    0.88700    1.000
    H21      H        0.21400    0.25840    0.89690    1.000
    C29      C        0.30000    0.34230    0.92430    1.000
    H22      H        0.27050    0.35830    0.95960    1.000
    C30      C        0.27870    0.18130    0.79770    1.000
    C31      C        0.30690    0.16460    0.73870    1.000
    H23      H        0.34600    0.20050    0.72050    1.000
    C32      C        0.27850    0.09590    0.70600    1.000
    H24      H        0.29890    0.08620    0.66630    1.000
    C33      C        0.22050    0.04140    0.73090    1.000
    H25      H        0.20290    0.99390    0.70920    1.000
    C34      C        0.18830    0.05930    0.79010    1.000
    C35      C        0.21810    0.12810    0.82300    1.000
    H26      H        0.19720    0.13890    0.86240    1.000
    C36      C        0.12520    0.00380    0.82070    1.000
    C37      C        0.07510    0.90780    0.88300    1.000
    C38      C        0.06640    0.83830    0.92750    1.000
    C39      C        0.99290    0.83430    0.96330    1.000
    H27      H        0.95200    0.87600    0.96010    1.000
    C40      C        0.98250    0.76800    0.00300    1.000
    H28      H        0.93450    0.76520    0.02760    1.000
    C41      C        0.04150    0.70620    0.00680    1.000
    H29      H        0.03320    0.66200    0.03440    1.000
    C42      C        0.11340    0.70710    0.97100    1.000
    C43      C        0.12560    0.77310    0.93170    1.000
    H30      H        0.17380    0.77490    0.90730    1.000
    C44      C        0.18090    0.64210    0.97780    1.000
    C45      C        0.19160    0.59570    0.03210    1.000
    H31      H        0.15380    0.60220    0.06460    1.000
    C46      C        0.25840    0.54010    0.03750    1.000
    H32      H        0.26540    0.51150    0.07480    1.000
    C47      C        0.30250    0.56760    0.93960    1.000
    H33      H        0.34040    0.55880    0.90740    1.000
    C48      C        0.23740    0.62420    0.93080    1.000
    H34      H        0.23140    0.65060    0.89260    1.000
    N7       N        0.37430    0.38020    0.91230    1.000
    N8       N        0.04470    0.00580    0.81640    1.000
    N9       N        0.01120    0.94530    0.85550    1.000
    N10      N        0.14750    0.94310    0.86180    1.000
    N11      N        0.22950    0.92320    0.88320    1.000
    H35      H        0.25530    0.97180    0.89140    1.000
    H36      H        0.25840    0.89550    0.85470    1.000
    N12      N        0.31330    0.52540    0.99190    1.000
    C49      C        0.85980    0.09020    0.60940    1.000
    H37      H        0.89000    0.04250    0.59790    1.000
    C50      C        0.79810    0.11680    0.56990    1.000
    H38      H        0.78560    0.08680    0.53410    1.000
    C51      C        0.75340    0.19190    0.58500    1.000
    C52      C        0.78140    0.23380    0.63700    1.000
    H39      H        0.75840    0.28600    0.64690    1.000
    C53      C        0.84230    0.20000    0.67430    1.000
    H40      H        0.85830    0.22950    0.70960    1.000
    C54      C        0.68130    0.22130    0.54770    1.000
    C55      C        0.66460    0.19310    0.48870    1.000
    H41      H        0.70050    0.15400    0.47050    1.000
    C56      C        0.59590    0.22150    0.45600    1.000
    H42      H        0.58620    0.20110    0.41630    1.000
    C57      C        0.54140    0.27950    0.48090    1.000
    H43      H        0.49390    0.29710    0.45920    1.000
    C58      C        0.55930    0.31170    0.54010    1.000
    C59      C        0.62810    0.28190    0.57300    1.000
    H44      H        0.63890    0.30280    0.61240    1.000
    C60      C        0.50380    0.37480    0.57070    1.000
    C61      C        0.40780    0.42490    0.63300    1.000
    C62      C        0.33830    0.43360    0.67750    1.000
    C63      C        0.33430    0.50710    0.71330    1.000
    H45      H        0.37600    0.54800    0.71010    1.000
    C64      C        0.26800    0.51750    0.75300    1.000
    H46      H        0.26520    0.56550    0.77760    1.000
    C65      C        0.20620    0.45850    0.75680    1.000
    H47      H        0.16200    0.46680    0.78440    1.000
    C66      C        0.20710    0.38660    0.72100    1.000
    C67      C        0.27310    0.37440    0.68170    1.000
    H48      H        0.27490    0.32620    0.65730    1.000
    C68      C        0.14210    0.31910    0.72780    1.000
    C69      C        0.09570    0.30840    0.78210    1.000
    H49      H        0.10220    0.34620    0.81460    1.000
    C70      C        0.04010    0.24160    0.78750    1.000
    H50      H        0.01150    0.23460    0.82480    1.000
    C71      C        0.06760    0.19750    0.68960    1.000
    H51      H        0.05880    0.15960    0.65740    1.000
    C72      C        0.12420    0.26260    0.68080    1.000
    H52      H        0.15060    0.26860    0.64260    1.000
    N13      N        0.88020    0.12570    0.66230    1.000
    N14      N        0.50580    0.45530    0.56640    1.000
    N15      N        0.44530    0.48880    0.60550    1.000
    N16      N        0.44310    0.35250    0.61180    1.000
    N17      N        0.42320    0.27050    0.63320    1.000
    H53      H        0.47180    0.24470    0.64140    1.000
    H54      H        0.39550    0.24160    0.60470    1.000
    N18      N        0.02540    0.18670    0.74190    1.000
    C73      C        0.14020    0.90980    0.10940    1.000
    H55      H        0.11000    0.95750    0.09790    1.000
    C74      C        0.20190    0.88320    0.06990    1.000
    H56      H        0.21440    0.91320    0.03410    1.000
    C75      C        0.24660    0.80810    0.08500    1.000
    C76      C        0.21860    0.76620    0.13700    1.000
    H57      H        0.24160    0.71400    0.14690    1.000
    C77      C        0.15770    0.80000    0.17430    1.000
    H58      H        0.14170    0.77050    0.20960    1.000
    C78      C        0.31870    0.77870    0.04770    1.000
    C79      C        0.33540    0.80690    0.98870    1.000
    H59      H        0.29950    0.84600    0.97050    1.000
    C80      C        0.40410    0.77850    0.95600    1.000
    H60      H        0.41380    0.79890    0.91630    1.000
    C81      C        0.45860    0.72050    0.98090    1.000
    H61      H        0.50610    0.70290    0.95920    1.000
    C82      C        0.44070    0.68830    0.04010    1.000
    C83      C        0.37190    0.71810    0.07300    1.000
    H62      H        0.36110    0.69720    0.11240    1.000
    C84      C        0.49620    0.62520    0.07070    1.000
    C85      C        0.59220    0.57510    0.13300    1.000
    C86      C        0.66170    0.56640    0.17750    1.000
    C87      C        0.66570    0.49290    0.21330    1.000
    H63      H        0.62400    0.45200    0.21010    1.000
    C88      C        0.73200    0.48250    0.25300    1.000
    H64      H        0.73480    0.43450    0.27760    1.000
    C89      C        0.79380    0.54150    0.25680    1.000
    H65      H        0.83800    0.53320    0.28440    1.000
    C90      C        0.79290    0.61340    0.22100    1.000
    C91      C        0.72690    0.62560    0.18170    1.000
    H66      H        0.72510    0.67380    0.15730    1.000
    C92      C        0.85790    0.68090    0.22780    1.000
    C93      C        0.90430    0.69160    0.28210    1.000
    H67      H        0.89780    0.65380    0.31460    1.000
    C94      C        0.95990    0.75840    0.28750    1.000
    H68      H        0.98850    0.76540    0.32480    1.000
    C95      C        0.93240    0.80250    0.18960    1.000
    H69      H        0.94120    0.84040    0.15740    1.000
    C96      C        0.87580    0.73740    0.18080    1.000
    H70      H        0.84940    0.73140    0.14260    1.000
    N19      N        0.11980    0.87430    0.16230    1.000
    N20      N        0.49420    0.54470    0.06640    1.000
    N21      N        0.55470    0.51120    0.10550    1.000
    N22      N        0.55690    0.64750    0.11180    1.000
    N23      N        0.57680    0.72950    0.13320    1.000
    H71      H        0.52820    0.75530    0.14140    1.000
    H72      H        0.60450    0.75840    0.10470    1.000
    N24      N        0.97460    0.81330    0.24190    1.000
    C97      C        0.90980    0.14020    0.89060    1.000
    H73      H        0.95750    0.11000    0.90210    1.000
    C98      C        0.88320    0.20190    0.93010    1.000
    H74      H        0.91320    0.21440    0.96590    1.000
    C99      C        0.80810    0.24660    0.91500    1.000
    C100     C        0.76620    0.21860    0.86300    1.000
    H75      H        0.71400    0.24160    0.85310    1.000
    C101     C        0.80000    0.15770    0.82570    1.000
    H76      H        0.77050    0.14170    0.79040    1.000
    C102     C        0.77870    0.31870    0.95230    1.000
    C103     C        0.80690    0.33540    0.01130    1.000
    H77      H        0.84600    0.29950    0.02950    1.000
    C104     C        0.77850    0.40410    0.04400    1.000
    H78      H        0.79890    0.41380    0.08370    1.000
    C105     C        0.72050    0.45860    0.01910    1.000
    H79      H        0.70290    0.50610    0.04080    1.000
    C106     C        0.68830    0.44070    0.95990    1.000
    C107     C        0.71810    0.37190    0.92700    1.000
    H80      H        0.69720    0.36110    0.88760    1.000
    C108     C        0.62520    0.49620    0.92930    1.000
    C109     C        0.57510    0.59220    0.86700    1.000
    C110     C        0.56640    0.66170    0.82250    1.000
    C111     C        0.49290    0.66570    0.78670    1.000
    H81      H        0.45200    0.62400    0.78990    1.000
    C112     C        0.48250    0.73200    0.74700    1.000
    H82      H        0.43450    0.73480    0.72240    1.000
    C113     C        0.54150    0.79380    0.74320    1.000
    H83      H        0.53320    0.83800    0.71560    1.000
    C114     C        0.61340    0.79290    0.77900    1.000
    C115     C        0.62560    0.72690    0.81830    1.000
    H84      H        0.67380    0.72510    0.84270    1.000
    C116     C        0.68090    0.85790    0.77220    1.000
    C117     C        0.69160    0.90430    0.71790    1.000
    H85      H        0.65380    0.89780    0.68540    1.000
    C118     C        0.75840    0.95990    0.71250    1.000
    H86      H        0.76540    0.98850    0.67520    1.000
    C119     C        0.80250    0.93240    0.81040    1.000
    H87      H        0.84040    0.94120    0.84260    1.000
    C120     C        0.73740    0.87580    0.81920    1.000
    H88      H        0.73140    0.84940    0.85740    1.000
    N25      N        0.87430    0.11980    0.83770    1.000
    N26      N        0.54470    0.49420    0.93360    1.000
    N27      N        0.51120    0.55470    0.89450    1.000
    N28      N        0.64750    0.55690    0.88820    1.000
    N29      N        0.72950    0.57680    0.86680    1.000
    H89      H        0.75530    0.52820    0.85860    1.000
    H90      H        0.75840    0.60450    0.89530    1.000
    N30      N        0.81330    0.97460    0.75810    1.000
    C121     C        0.09020    0.85980    0.39060    1.000
    H91      H        0.04250    0.89000    0.40210    1.000
    C122     C        0.11680    0.79810    0.43010    1.000
    H92      H        0.08680    0.78560    0.46590    1.000
    C123     C        0.19190    0.75340    0.41500    1.000
    C124     C        0.23380    0.78140    0.36300    1.000
    H93      H        0.28600    0.75840    0.35310    1.000
    C125     C        0.20000    0.84230    0.32570    1.000
    H94      H        0.22950    0.85830    0.29040    1.000
    C126     C        0.22130    0.68130    0.45230    1.000
    C127     C        0.19310    0.66460    0.51130    1.000
    H95      H        0.15400    0.70050    0.52950    1.000
    C128     C        0.22150    0.59590    0.54400    1.000
    H96      H        0.20110    0.58620    0.58370    1.000
    C129     C        0.27950    0.54140    0.51910    1.000
    H97      H        0.29710    0.49390    0.54080    1.000
    C130     C        0.31170    0.55930    0.45990    1.000
    C131     C        0.28190    0.62810    0.42700    1.000
    H98      H        0.30280    0.63890    0.38760    1.000
    C132     C        0.37480    0.50380    0.42930    1.000
    C133     C        0.42490    0.40780    0.36700    1.000
    C134     C        0.43360    0.33830    0.32250    1.000
    C135     C        0.50710    0.33430    0.28670    1.000
    H99      H        0.54800    0.37600    0.28990    1.000
    C136     C        0.51750    0.26800    0.24700    1.000
    H100     H        0.56550    0.26520    0.22240    1.000
    C137     C        0.45850    0.20620    0.24320    1.000
    H101     H        0.46680    0.16200    0.21560    1.000
    C138     C        0.38660    0.20710    0.27900    1.000
    C139     C        0.37440    0.27310    0.31830    1.000
    H102     H        0.32620    0.27490    0.34270    1.000
    C140     C        0.31910    0.14210    0.27220    1.000
    C141     C        0.30840    0.09570    0.21790    1.000
    H103     H        0.34620    0.10220    0.18540    1.000
    C142     C        0.24160    0.04010    0.21250    1.000
    H104     H        0.23460    0.01150    0.17520    1.000
    C143     C        0.19750    0.06760    0.31040    1.000
    H105     H        0.15960    0.05880    0.34260    1.000
    C144     C        0.26260    0.12420    0.31920    1.000
    H106     H        0.26860    0.15060    0.35740    1.000
    N31      N        0.12570    0.88020    0.33770    1.000
    N32      N        0.45530    0.50580    0.43360    1.000
    N33      N        0.48880    0.44530    0.39450    1.000
    N34      N        0.35250    0.44310    0.38820    1.000
    N35      N        0.27050    0.42320    0.36680    1.000
    H107     H        0.24470    0.47180    0.35860    1.000
    H108     H        0.24160    0.39550    0.39530    1.000
    N36      N        0.18670    0.02540    0.25810    1.000
    C145     C        0.64020    0.59020    0.64060    1.000
    H109     H        0.61000    0.54250    0.65210    1.000
    C146     C        0.70190    0.61680    0.68010    1.000
    H110     H        0.71440    0.58680    0.71590    1.000
    C147     C        0.74660    0.69190    0.66500    1.000
    C148     C        0.71860    0.73380    0.61300    1.000
    H111     H        0.74160    0.78600    0.60310    1.000
    C149     C        0.65770    0.70000    0.57570    1.000
    H112     H        0.64170    0.72950    0.54040    1.000
    C150     C        0.81870    0.72130    0.70230    1.000
    C151     C        0.83540    0.69310    0.76130    1.000
    H113     H        0.79950    0.65400    0.77950    1.000
    C152     C        0.90410    0.72150    0.79400    1.000
    H114     H        0.91380    0.70110    0.83370    1.000
    C153     C        0.95860    0.77950    0.76910    1.000
    H115     H        0.00610    0.79710    0.79080    1.000
    C154     C        0.94070    0.81170    0.70990    1.000
    C155     C        0.87190    0.78190    0.67700    1.000
    H116     H        0.86110    0.80280    0.63760    1.000
    C156     C        0.99620    0.87480    0.67930    1.000
    C157     C        0.09220    0.92490    0.61700    1.000
    C158     C        0.16170    0.93360    0.57250    1.000
    C159     C        0.16570    0.00710    0.53670    1.000
    H117     H        0.12400    0.04800    0.53990    1.000
    C160     C        0.23200    0.01750    0.49700    1.000
    H118     H        0.23480    0.06550    0.47240    1.000
    C161     C        0.29380    0.95850    0.49320    1.000
    H119     H        0.33800    0.96680    0.46560    1.000
    C162     C        0.29290    0.88660    0.52900    1.000
    C163     C        0.22690    0.87440    0.56830    1.000
    H120     H        0.22510    0.82620    0.59270    1.000
    C164     C        0.35790    0.81910    0.52220    1.000
    C165     C        0.40430    0.80840    0.46790    1.000
    H121     H        0.39780    0.84620    0.43540    1.000
    C166     C        0.45990    0.74160    0.46250    1.000
    H122     H        0.48850    0.73460    0.42520    1.000
    C167     C        0.43240    0.69750    0.56040    1.000
    H123     H        0.44120    0.65960    0.59260    1.000
    C168     C        0.37580    0.76260    0.56920    1.000
    H124     H        0.34940    0.76860    0.60740    1.000
    N37      N        0.61980    0.62570    0.58770    1.000
    N38      N        0.99420    0.95530    0.68360    1.000
    N39      N        0.05470    0.98880    0.64450    1.000
    N40      N        0.05690    0.85250    0.63820    1.000
    N41      N        0.07680    0.77050    0.61680    1.000
    H125     H        0.02820    0.74470    0.60860    1.000
    H126     H        0.10450    0.74160    0.64530    1.000
    N42      N        0.47460    0.68670    0.50810    1.000
    C169     C        0.35980    0.40980    0.14060    1.000
    H127     H        0.39000    0.45750    0.15210    1.000
    C170     C        0.29810    0.38320    0.18010    1.000
    H128     H        0.28560    0.41320    0.21590    1.000
    C171     C        0.25340    0.30810    0.16500    1.000
    C172     C        0.28140    0.26620    0.11300    1.000
    H129     H        0.25840    0.21400    0.10310    1.000
    C173     C        0.34230    0.30000    0.07570    1.000
    H130     H        0.35830    0.27050    0.04040    1.000
    C174     C        0.18130    0.27870    0.20230    1.000
    C175     C        0.16460    0.30690    0.26130    1.000
    H131     H        0.20050    0.34600    0.27950    1.000
    C176     C        0.09590    0.27850    0.29400    1.000
    H132     H        0.08620    0.29890    0.33370    1.000
    C177     C        0.04140    0.22050    0.26910    1.000
    H133     H        0.99390    0.20290    0.29080    1.000
    C178     C        0.05930    0.18830    0.20990    1.000
    C179     C        0.12810    0.21810    0.17700    1.000
    H134     H        0.13890    0.19720    0.13760    1.000
    C180     C        0.00380    0.12520    0.17930    1.000
    C181     C        0.90780    0.07510    0.11700    1.000
    C182     C        0.83830    0.06640    0.07250    1.000
    C183     C        0.83430    0.99290    0.03670    1.000
    H135     H        0.87600    0.95200    0.03990    1.000
    C184     C        0.76800    0.98250    0.99700    1.000
    H136     H        0.76520    0.93450    0.97240    1.000
    C185     C        0.70620    0.04150    0.99320    1.000
    H137     H        0.66200    0.03320    0.96560    1.000
    C186     C        0.70710    0.11340    0.02900    1.000
    C187     C        0.77310    0.12560    0.06830    1.000
    H138     H        0.77490    0.17380    0.09270    1.000
    C188     C        0.64210    0.18090    0.02220    1.000
    C189     C        0.59570    0.19160    0.96790    1.000
    H139     H        0.60220    0.15380    0.93540    1.000
    C190     C        0.54010    0.25840    0.96250    1.000
    H140     H        0.51150    0.26540    0.92520    1.000
    C191     C        0.56760    0.30250    0.06040    1.000
    H141     H        0.55880    0.34040    0.09260    1.000
    C192     C        0.62420    0.23740    0.06920    1.000
    H142     H        0.65060    0.23140    0.10740    1.000
    N43      N        0.38020    0.37430    0.08770    1.000
    N44      N        0.00580    0.04470    0.18360    1.000
    N45      N        0.94530    0.01120    0.14450    1.000
    N46      N        0.94310    0.14750    0.13820    1.000
    N47      N        0.92320    0.22950    0.11680    1.000
    H143     H        0.97180    0.25530    0.10860    1.000
    H144     H        0.89550    0.25840    0.14530    1.000
    N48      N        0.52540    0.31330    0.00810    1.000
    Cd1      Cd       0.05839    0.94161    0.25000    1.000
    Cd2      Cd       0.94161    0.05839    0.75000    1.000
    Cd3      Cd       0.55839    0.55839    0.50000    1.000
    Cd4      Cd       0.44161    0.44161    0.00000    1.000
