data_functionalizedCrystal
_audit_creation_method	'EQeq! by Chris Wilmer'
_symmetry_space_group_name_H-M	'P1'
_symmetry_Int_Tables_number	1
_symmetry_cell_setting	triclinic
loop_
_symmetry_equiv_pos_as_xyz
  x,y,z
_cell_length_a	26.771
_cell_length_b	26.771
_cell_length_c	26.771
_cell_angle_alpha	90
_cell_angle_beta	90
_cell_angle_gamma	90
loop_
_atom_site_label
_atom_site_type_symbol
_atom_site_fract_x
_atom_site_fract_y
_atom_site_fract_z
_atom_site_charge
Mof_O 	O 	0.2587	0.1832	0.9454	-0.364
Mof_O 	O 	0.2587	0.6832	0.4454	-0.394
Mof_O 	O 	0.7587	0.1832	0.4454	-0.394
Mof_O 	O 	0.7587	0.6832	0.9454	-0.361
Mof_O 	O 	0.7413	0.8168	0.9454	-0.358
Mof_O 	O 	0.7413	0.3168	0.4454	-0.393
Mof_O 	O 	0.2413	0.8168	0.4454	-0.391
Mof_O 	O 	0.2413	0.3168	0.9454	-0.362
Mof_O 	O 	0.7413	0.1832	0.0546	-0.395
Mof_O 	O 	0.7413	0.6832	0.5546	-0.393
Mof_O 	O 	0.2413	0.1832	0.5546	-0.396
Mof_O 	O 	0.2413	0.6832	0.0546	-0.394
Mof_O 	O 	0.2587	0.8168	0.0546	-0.39
Mof_O 	O 	0.2587	0.3168	0.5546	-0.394
Mof_O 	O 	0.7587	0.8168	0.5546	-0.389
Mof_O 	O 	0.7587	0.3168	0.0546	-0.393
Mof_O 	O 	0.9454	0.2587	0.1832	-0.364
Mof_O 	O 	0.9454	0.7587	0.6832	-0.361
Mof_O 	O 	0.4454	0.2587	0.6832	-0.394
Mof_O 	O 	0.4454	0.7587	0.1832	-0.394
Mof_O 	O 	0.9454	0.7413	0.8168	-0.358
Mof_O 	O 	0.9454	0.2413	0.3168	-0.361
Mof_O 	O 	0.4454	0.7413	0.3168	-0.392
Mof_O 	O 	0.4454	0.2413	0.8168	-0.39
Mof_O 	O 	0.0546	0.7413	0.1832	-0.394
Mof_O 	O 	0.0546	0.2413	0.6832	-0.393
Mof_O 	O 	0.5546	0.7413	0.6832	-0.392
Mof_O 	O 	0.5546	0.2413	0.1832	-0.395
Mof_O 	O 	0.0546	0.2587	0.8168	-0.389
Mof_O 	O 	0.0546	0.7587	0.3168	-0.392
Mof_O 	O 	0.5546	0.2587	0.3168	-0.393
Mof_O 	O 	0.5546	0.7587	0.8168	-0.388
Mof_O 	O 	0.1832	0.9454	0.2587	-0.363
Mof_O 	O 	0.1832	0.4454	0.7587	-0.393
Mof_O 	O 	0.6832	0.9454	0.7587	-0.36
Mof_O 	O 	0.6832	0.4454	0.2587	-0.393
Mof_O 	O 	0.8168	0.9454	0.7413	-0.357
Mof_O 	O 	0.8168	0.4454	0.2413	-0.39
Mof_O 	O 	0.3168	0.9454	0.2413	-0.361
Mof_O 	O 	0.3168	0.4454	0.7413	-0.392
Mof_O 	O 	0.1832	0.0546	0.7413	-0.394
Mof_O 	O 	0.1832	0.5546	0.2413	-0.395
Mof_O 	O 	0.6832	0.0546	0.2413	-0.393
Mof_O 	O 	0.6832	0.5546	0.7413	-0.392
Mof_O 	O 	0.8168	0.0546	0.2587	-0.389
Mof_O 	O 	0.8168	0.5546	0.7587	-0.388
Mof_O 	O 	0.3168	0.0546	0.7587	-0.392
Mof_O 	O 	0.3168	0.5546	0.2587	-0.393
Mof_O 	O 	0.1832	0.2587	0.0546	-0.394
Mof_O 	O 	0.1832	0.7587	0.5546	-0.393
Mof_O 	O 	0.6832	0.2587	0.5546	-0.393
Mof_O 	O 	0.6832	0.7587	0.0546	-0.392
Mof_O 	O 	0.8168	0.7413	0.0546	-0.389
Mof_O 	O 	0.8168	0.2413	0.5546	-0.39
Mof_O 	O 	0.3168	0.7413	0.5546	-0.392
Mof_O 	O 	0.3168	0.2413	0.0546	-0.393
Mof_O 	O 	0.1832	0.7413	0.9454	-0.362
Mof_O 	O 	0.1832	0.2413	0.4454	-0.395
Mof_O 	O 	0.6832	0.7413	0.4454	-0.392
Mof_O 	O 	0.6832	0.2413	0.9454	-0.362
Mof_O 	O 	0.8168	0.2587	0.9454	-0.357
Mof_O 	O 	0.8168	0.7587	0.4454	-0.388
Mof_O 	O 	0.3168	0.2587	0.4454	-0.393
Mof_O 	O 	0.3168	0.7587	0.9454	-0.36
Mof_O 	O 	0.2587	0.9454	0.8168	-0.357
Mof_O 	O 	0.2587	0.4454	0.3168	-0.393
Mof_O 	O 	0.7587	0.9454	0.3168	-0.36
Mof_O 	O 	0.7587	0.4454	0.8168	-0.388
Mof_O 	O 	0.7413	0.9454	0.1832	-0.362
Mof_O 	O 	0.7413	0.4454	0.6832	-0.392
Mof_O 	O 	0.2413	0.9454	0.6832	-0.362
Mof_O 	O 	0.2413	0.4454	0.1832	-0.395
Mof_O 	O 	0.7413	0.0546	0.8168	-0.389
Mof_O 	O 	0.7413	0.5546	0.3168	-0.392
Mof_O 	O 	0.2413	0.0546	0.3168	-0.393
Mof_O 	O 	0.2413	0.5546	0.8168	-0.39
Mof_O 	O 	0.2587	0.0546	0.1832	-0.394
Mof_O 	O 	0.2587	0.5546	0.6832	-0.393
Mof_O 	O 	0.7587	0.0546	0.6832	-0.392
Mof_O 	O 	0.7587	0.5546	0.1832	-0.393
Mof_O 	O 	0.9454	0.1832	0.7413	-0.362
Mof_O 	O 	0.9454	0.6832	0.2413	-0.362
Mof_O 	O 	0.4454	0.1832	0.2413	-0.395
Mof_O 	O 	0.4454	0.6832	0.7413	-0.392
Mof_O 	O 	0.9454	0.8168	0.2587	-0.357
Mof_O 	O 	0.9454	0.3168	0.7587	-0.36
Mof_O 	O 	0.4454	0.8168	0.7587	-0.388
Mof_O 	O 	0.4454	0.3168	0.2587	-0.393
Mof_O 	O 	0.0546	0.1832	0.2587	-0.394
Mof_O 	O 	0.0546	0.6832	0.7587	-0.392
Mof_O 	O 	0.5546	0.1832	0.7587	-0.393
Mof_O 	O 	0.5546	0.6832	0.2587	-0.393
Mof_O 	O 	0.0546	0.8168	0.7413	-0.389
Mof_O 	O 	0.0546	0.3168	0.2413	-0.393
Mof_O 	O 	0.5546	0.8168	0.2413	-0.39
Mof_O 	O 	0.5546	0.3168	0.7413	-0.392
Mof_O 	O 	0.7413	0.8168	0.0546	-0.389
Mof_O 	O 	0.7413	0.3168	0.5546	-0.392
Mof_O 	O 	0.2413	0.8168	0.5546	-0.39
Mof_O 	O 	0.2413	0.3168	0.0546	-0.393
Mof_O 	O 	0.2587	0.1832	0.0546	-0.394
Mof_O 	O 	0.2587	0.6832	0.5546	-0.393
Mof_O 	O 	0.7587	0.1832	0.5546	-0.393
Mof_O 	O 	0.7587	0.6832	0.0546	-0.392
Mof_O 	O 	0.2587	0.8168	0.9454	-0.357
Mof_O 	O 	0.2587	0.3168	0.4454	-0.393
Mof_O 	O 	0.7587	0.8168	0.4454	-0.388
Mof_O 	O 	0.7587	0.3168	0.9454	-0.36
Mof_O 	O 	0.7413	0.1832	0.9454	-0.362
Mof_O 	O 	0.7413	0.6832	0.4454	-0.392
Mof_O 	O 	0.2413	0.1832	0.4454	-0.395
Mof_O 	O 	0.2413	0.6832	0.9454	-0.362
Mof_O 	O 	0.0546	0.7413	0.8168	-0.389
Mof_O 	O 	0.0546	0.2413	0.3168	-0.393
Mof_O 	O 	0.5546	0.7413	0.3168	-0.392
Mof_O 	O 	0.5546	0.2413	0.8168	-0.39
Mof_O 	O 	0.0546	0.2587	0.1832	-0.394
Mof_O 	O 	0.0546	0.7587	0.6832	-0.392
Mof_O 	O 	0.5546	0.2587	0.6832	-0.393
Mof_O 	O 	0.5546	0.7587	0.1832	-0.393
Mof_O 	O 	0.9454	0.2587	0.8168	-0.357
Mof_O 	O 	0.9454	0.7587	0.3168	-0.36
Mof_O 	O 	0.4454	0.2587	0.3168	-0.393
Mof_O 	O 	0.4454	0.7587	0.8168	-0.388
Mof_O 	O 	0.9454	0.7413	0.1832	-0.362
Mof_O 	O 	0.9454	0.2413	0.6832	-0.362
Mof_O 	O 	0.4454	0.7413	0.6832	-0.392
Mof_O 	O 	0.4454	0.2413	0.1832	-0.395
Mof_O 	O 	0.8168	0.0546	0.7413	-0.389
Mof_O 	O 	0.8168	0.5546	0.2413	-0.39
Mof_O 	O 	0.3168	0.0546	0.2413	-0.393
Mof_O 	O 	0.3168	0.5546	0.7413	-0.392
Mof_O 	O 	0.1832	0.0546	0.2587	-0.394
Mof_O 	O 	0.1832	0.5546	0.7587	-0.393
Mof_O 	O 	0.6832	0.0546	0.7587	-0.392
Mof_O 	O 	0.6832	0.5546	0.2587	-0.393
Mof_O 	O 	0.8168	0.9454	0.2587	-0.357
Mof_O 	O 	0.8168	0.4454	0.7587	-0.388
Mof_O 	O 	0.3168	0.9454	0.7587	-0.36
Mof_O 	O 	0.3168	0.4454	0.2587	-0.393
Mof_O 	O 	0.1832	0.9454	0.7413	-0.362
Mof_O 	O 	0.1832	0.4454	0.2413	-0.395
Mof_O 	O 	0.6832	0.9454	0.2413	-0.362
Mof_O 	O 	0.6832	0.4454	0.7413	-0.392
Mof_O 	O 	0.8168	0.7413	0.9454	-0.357
Mof_O 	O 	0.8168	0.2413	0.4454	-0.39
Mof_O 	O 	0.3168	0.7413	0.4454	-0.392
Mof_O 	O 	0.3168	0.2413	0.9454	-0.361
Mof_O 	O 	0.1832	0.2587	0.9454	-0.363
Mof_O 	O 	0.1832	0.7587	0.4454	-0.393
Mof_O 	O 	0.6832	0.2587	0.4454	-0.393
Mof_O 	O 	0.6832	0.7587	0.9454	-0.36
Mof_O 	O 	0.8168	0.2587	0.0546	-0.389
Mof_O 	O 	0.8168	0.7587	0.5546	-0.388
Mof_O 	O 	0.3168	0.2587	0.5546	-0.393
Mof_O 	O 	0.3168	0.7587	0.0546	-0.392
Mof_O 	O 	0.1832	0.7413	0.0546	-0.394
Mof_O 	O 	0.1832	0.2413	0.5546	-0.395
Mof_O 	O 	0.6832	0.7413	0.5546	-0.392
Mof_O 	O 	0.6832	0.2413	0.0546	-0.393
Mof_O 	O 	0.7413	0.0546	0.1832	-0.394
Mof_O 	O 	0.7413	0.5546	0.6832	-0.392
Mof_O 	O 	0.2413	0.0546	0.6832	-0.393
Mof_O 	O 	0.2413	0.5546	0.1832	-0.395
Mof_O 	O 	0.2587	0.0546	0.8168	-0.389
Mof_O 	O 	0.2587	0.5546	0.3168	-0.393
Mof_O 	O 	0.7587	0.0546	0.3168	-0.392
Mof_O 	O 	0.7587	0.5546	0.8168	-0.388
Mof_O 	O 	0.2587	0.9454	0.1832	-0.363
Mof_O 	O 	0.2587	0.4454	0.6832	-0.393
Mof_O 	O 	0.7587	0.9454	0.6832	-0.36
Mof_O 	O 	0.7587	0.4454	0.1832	-0.393
Mof_O 	O 	0.7413	0.9454	0.8168	-0.357
Mof_O 	O 	0.7413	0.4454	0.3168	-0.392
Mof_O 	O 	0.2413	0.9454	0.3168	-0.361
Mof_O 	O 	0.2413	0.4454	0.8168	-0.39
Mof_O 	O 	0.0546	0.8168	0.2587	-0.389
Mof_O 	O 	0.0546	0.3168	0.7587	-0.392
Mof_O 	O 	0.5546	0.8168	0.7587	-0.388
Mof_O 	O 	0.5546	0.3168	0.2587	-0.393
Mof_O 	O 	0.0546	0.1832	0.7413	-0.394
Mof_O 	O 	0.0546	0.6832	0.2413	-0.393
Mof_O 	O 	0.5546	0.1832	0.2413	-0.395
Mof_O 	O 	0.5546	0.6832	0.7413	-0.392
Mof_O 	O 	0.9454	0.8168	0.7413	-0.357
Mof_O 	O 	0.9454	0.3168	0.2413	-0.361
Mof_O 	O 	0.4454	0.8168	0.2413	-0.39
Mof_O 	O 	0.4454	0.3168	0.7413	-0.392
Mof_O 	O 	0.9454	0.1832	0.2587	-0.363
Mof_O 	O 	0.9454	0.6832	0.7587	-0.36
Mof_O 	O 	0.4454	0.1832	0.7587	-0.393
Mof_O 	O 	0.4454	0.6832	0.2587	-0.393
Mof_Mn	Mn	0.20777	0.20777	-0	0.968
Mof_Cl	Cl	0.14539	0.14539	-0	-0.347
Mof_Mn	Mn	0.20777	0.70777	0.5	1.022
Mof_Cl	Cl	0.14539	0.64539	0.5	-0.319
Mof_Mn	Mn	0.70777	0.20777	0.5	1.022
Mof_Cl	Cl	0.64539	0.14539	0.5	-0.319
Mof_Mn	Mn	0.70777	0.70777	-0	0.969
Mof_Cl	Cl	0.64539	0.64539	-0	-0.335
Mof_Mn	Mn	0.79223	0.79223	-0	0.973
Mof_Cl	Cl	0.85461	0.85461	-0	-0.306
Mof_Mn	Mn	0.79223	0.29223	0.5	1.024
Mof_Cl	Cl	0.85461	0.35461	0.5	-0.298
Mof_Mn	Mn	0.29223	0.79223	0.5	1.024
Mof_Cl	Cl	0.35461	0.85461	0.5	-0.298
Mof_Mn	Mn	0.29223	0.29223	-0	0.969
Mof_Cl	Cl	0.35461	0.35461	-0	-0.337
Mof_Mn	Mn	0.79223	0.20777	-0	0.971
Mof_Cl	Cl	0.85461	0.14539	-0	-0.327
Mof_Mn	Mn	0.79223	0.70777	0.5	1.024
Mof_Cl	Cl	0.85461	0.64539	0.5	-0.298
Mof_Mn	Mn	0.29223	0.20777	0.5	1.022
Mof_Cl	Cl	0.35461	0.14539	0.5	-0.319
Mof_Mn	Mn	0.29223	0.70777	-0	0.969
Mof_Cl	Cl	0.35461	0.64539	-0	-0.336
Mof_Mn	Mn	0.20777	0.79223	-0	0.971
Mof_Cl	Cl	0.14539	0.85461	-0	-0.327
Mof_Mn	Mn	0.20777	0.29223	0.5	1.022
Mof_Cl	Cl	0.14539	0.35461	0.5	-0.319
Mof_Mn	Mn	0.70777	0.79223	0.5	1.024
Mof_Cl	Cl	0.64539	0.85461	0.5	-0.298
Mof_Mn	Mn	0.70777	0.29223	-0	0.969
Mof_Cl	Cl	0.64539	0.35461	-0	-0.336
Mof_Mn	Mn	7.79013e-34	0.20777	0.20777	0.968
Mof_Cl	Cl	-7.70574e-34	0.14539	0.14539	-0.347
Mof_Mn	Mn	1.31793e-32	0.70777	0.70777	0.969
Mof_Cl	Cl	1.29454e-32	0.64539	0.64539	-0.335
Mof_Mn	Mn	0.5	0.20777	0.70777	1.022
Mof_Cl	Cl	0.5	0.14539	0.64539	-0.319
Mof_Mn	Mn	0.5	0.70777	0.20777	1.022
Mof_Cl	Cl	0.5	0.64539	0.14539	-0.319
Mof_Mn	Mn	-1.80808e-32	0.79223	0.79223	0.973
Mof_Cl	Cl	3.20427e-33	0.85461	0.85461	-0.306
Mof_Mn	Mn	1.09569e-33	0.29223	0.29223	0.969
Mof_Cl	Cl	6.59237e-33	0.35461	0.35461	-0.337
Mof_Mn	Mn	0.5	0.79223	0.29223	1.024
Mof_Cl	Cl	0.5	0.85461	0.35461	-0.298
Mof_Mn	Mn	0.5	0.29223	0.79223	1.024
Mof_Cl	Cl	0.5	0.35461	0.85461	-0.298
Mof_Mn	Mn	-4.48378e-33	0.79223	0.20777	0.971
Mof_Cl	Cl	-6.03337e-33	0.85461	0.14539	-0.327
Mof_Mn	Mn	7.91651e-33	0.29223	0.70777	0.969
Mof_Cl	Cl	2.41982e-33	0.35461	0.64539	-0.336
Mof_Mn	Mn	0.5	0.79223	0.70777	1.024
Mof_Cl	Cl	0.5	0.85461	0.64539	-0.298
Mof_Mn	Mn	0.5	0.29223	0.20777	1.022
Mof_Cl	Cl	0.5	0.35461	0.14539	-0.319
Mof_Mn	Mn	-7.55521e-33	0.20777	0.79223	0.971
Mof_Cl	Cl	-7.32132e-33	0.14539	0.85461	-0.327
Mof_Mn	Mn	6.35848e-33	0.70777	0.29223	0.969
Mof_Cl	Cl	9.22377e-33	0.64539	0.35461	-0.336
Mof_Mn	Mn	0.5	0.20777	0.29223	1.022
Mof_Cl	Cl	0.5	0.14539	0.35461	-0.319
Mof_Mn	Mn	0.5	0.70777	0.79223	1.024
Mof_Cl	Cl	0.5	0.64539	0.85461	-0.298
Mof_Mn	Mn	0.20777	0	0.20777	0.968
Mof_Cl	Cl	0.14539	0	0.14539	-0.347
Mof_Mn	Mn	0.20777	0.5	0.70777	1.022
Mof_Cl	Cl	0.14539	0.5	0.64539	-0.319
Mof_Mn	Mn	0.70777	5.2628e-33	0.70777	0.969
Mof_Cl	Cl	0.64539	5.2628e-33	0.64539	-0.335
Mof_Mn	Mn	0.70777	0.5	0.20777	1.022
Mof_Cl	Cl	0.64539	0.5	0.14539	-0.319
Mof_Mn	Mn	0.79223	-1.05256e-32	0.79223	0.973
Mof_Cl	Cl	0.85461	0	0.85461	-0.306
Mof_Mn	Mn	0.79223	0.5	0.29223	1.024
Mof_Cl	Cl	0.85461	0.5	0.35461	-0.298
Mof_Mn	Mn	0.29223	0	0.29223	0.969
Mof_Cl	Cl	0.35461	2.6314e-33	0.35461	-0.337
Mof_Mn	Mn	0.29223	0.5	0.79223	1.024
Mof_Cl	Cl	0.35461	0.5	0.85461	-0.298
Mof_Mn	Mn	0.20777	-1.05256e-32	0.79223	0.971
Mof_Cl	Cl	0.14539	0	0.85461	-0.327
Mof_Mn	Mn	0.20777	0.5	0.29223	1.022
Mof_Cl	Cl	0.14539	0.5	0.35461	-0.319
Mof_Mn	Mn	0.70777	0	0.29223	0.969
Mof_Cl	Cl	0.64539	2.6314e-33	0.35461	-0.336
Mof_Mn	Mn	0.70777	0.5	0.79223	1.024
Mof_Cl	Cl	0.64539	0.5	0.85461	-0.298
Mof_Mn	Mn	0.79223	0	0.20777	0.971
Mof_Cl	Cl	0.85461	0	0.14539	-0.327
Mof_Mn	Mn	0.79223	0.5	0.70777	1.024
Mof_Cl	Cl	0.85461	0.5	0.64539	-0.298
Mof_Mn	Mn	0.29223	5.2628e-33	0.70777	0.969
Mof_Cl	Cl	0.35461	5.2628e-33	0.64539	-0.336
Mof_Mn	Mn	0.29223	0.5	0.20777	1.022
Mof_Cl	Cl	0.35461	0.5	0.14539	-0.319
Mof_C 	C 	0.3221	0.1779	0.885	-0.133
Mof_C 	C 	0.2975	0.2025	0.9298	0.419
Mof_C 	C 	0.3221	0.6779	0.385	-0.145
Mof_C 	C 	0.2975	0.7025	0.4298	0.431
Mof_C 	C 	0.6779	0.8221	0.885	-0.123
Mof_C 	C 	0.7025	0.7975	0.9298	0.417
Mof_C 	C 	0.6779	0.3221	0.385	-0.145
Mof_C 	C 	0.7025	0.2975	0.4298	0.431
Mof_C 	C 	0.1779	0.3221	0.885	-0.133
Mof_C 	C 	0.2025	0.2975	0.9298	0.419
Mof_C 	C 	0.6779	0.1779	0.115	-0.149
Mof_C 	C 	0.7025	0.2025	0.0702	0.425
Mof_C 	C 	0.6779	0.6779	0.615	-0.144
Mof_C 	C 	0.7025	0.7025	0.5702	0.431
Mof_C 	C 	0.1779	0.1779	0.615	-0.149
Mof_C 	C 	0.2025	0.2025	0.5702	0.431
Mof_C 	C 	0.3221	0.8221	0.115	-0.14
Mof_C 	C 	0.2975	0.7975	0.0702	0.424
Mof_C 	C 	0.3221	0.3221	0.615	-0.145
Mof_C 	C 	0.2975	0.2975	0.5702	0.432
Mof_C 	C 	0.885	0.3221	0.1779	-0.133
Mof_C 	C 	0.9298	0.2975	0.2025	0.419
Mof_C 	C 	0.385	0.3221	0.6779	-0.145
Mof_C 	C 	0.4298	0.2975	0.7025	0.431
Mof_C 	C 	0.885	0.6779	0.8221	-0.123
Mof_C 	C 	0.9298	0.7025	0.7975	0.417
Mof_C 	C 	0.885	0.1779	0.3221	-0.133
Mof_C 	C 	0.9298	0.2025	0.2975	0.419
Mof_C 	C 	0.385	0.6779	0.3221	-0.145
Mof_C 	C 	0.4298	0.7025	0.2975	0.431
Mof_C 	C 	0.115	0.6779	0.1779	-0.149
Mof_C 	C 	0.0702	0.7025	0.2025	0.425
Mof_C 	C 	0.615	0.6779	0.6779	-0.144
Mof_C 	C 	0.5702	0.7025	0.7025	0.431
Mof_C 	C 	0.615	0.1779	0.1779	-0.149
Mof_C 	C 	0.5702	0.2025	0.2025	0.431
Mof_C 	C 	0.115	0.3221	0.8221	-0.14
Mof_C 	C 	0.0702	0.2975	0.7975	0.424
Mof_C 	C 	0.615	0.3221	0.3221	-0.145
Mof_C 	C 	0.5702	0.2975	0.2975	0.432
Mof_C 	C 	0.1779	0.885	0.3221	-0.133
Mof_C 	C 	0.2025	0.9298	0.2975	0.419
Mof_C 	C 	0.1779	0.385	0.8221	-0.14
Mof_C 	C 	0.2025	0.4298	0.7975	0.43
Mof_C 	C 	0.8221	0.885	0.6779	-0.123
Mof_C 	C 	0.7975	0.9298	0.7025	0.417
Mof_C 	C 	0.8221	0.385	0.1779	-0.14
Mof_C 	C 	0.7975	0.4298	0.2025	0.43
Mof_C 	C 	0.3221	0.885	0.1779	-0.133
Mof_C 	C 	0.2975	0.9298	0.2025	0.419
Mof_C 	C 	0.1779	0.115	0.6779	-0.149
Mof_C 	C 	0.2025	0.0702	0.7025	0.425
Mof_C 	C 	0.1779	0.615	0.1779	-0.149
Mof_C 	C 	0.2025	0.5702	0.2025	0.431
Mof_C 	C 	0.8221	0.115	0.3221	-0.14
Mof_C 	C 	0.7975	0.0702	0.2975	0.424
Mof_C 	C 	0.8221	0.615	0.8221	-0.13
Mof_C 	C 	0.7975	0.5702	0.7975	0.428
Mof_C 	C 	0.3221	0.615	0.3221	-0.145
Mof_C 	C 	0.2975	0.5702	0.2975	0.432
Mof_C 	C 	0.1779	0.3221	0.115	-0.149
Mof_C 	C 	0.2025	0.2975	0.0702	0.426
Mof_C 	C 	0.1779	0.8221	0.615	-0.14
Mof_C 	C 	0.2025	0.7975	0.5702	0.43
Mof_C 	C 	0.8221	0.6779	0.115	-0.139
Mof_C 	C 	0.7975	0.7025	0.0702	0.424
Mof_C 	C 	0.8221	0.1779	0.615	-0.14
Mof_C 	C 	0.7975	0.2025	0.5702	0.43
Mof_C 	C 	0.3221	0.1779	0.115	-0.149
Mof_C 	C 	0.2975	0.2025	0.0702	0.426
Mof_C 	C 	0.1779	0.6779	0.885	-0.132
Mof_C 	C 	0.2025	0.7025	0.9298	0.419
Mof_C 	C 	0.1779	0.1779	0.385	-0.149
Mof_C 	C 	0.2025	0.2025	0.4298	0.431
Mof_C 	C 	0.8221	0.3221	0.885	-0.124
Mof_C 	C 	0.7975	0.2975	0.9298	0.418
Mof_C 	C 	0.8221	0.8221	0.385	-0.131
Mof_C 	C 	0.7975	0.7975	0.4298	0.428
Mof_C 	C 	0.3221	0.3221	0.385	-0.146
Mof_C 	C 	0.2975	0.2975	0.4298	0.432
Mof_C 	C 	0.3221	0.885	0.8221	-0.124
Mof_C 	C 	0.2975	0.9298	0.7975	0.418
Mof_C 	C 	0.3221	0.385	0.3221	-0.146
Mof_C 	C 	0.2975	0.4298	0.2975	0.432
Mof_C 	C 	0.6779	0.885	0.1779	-0.132
Mof_C 	C 	0.7025	0.9298	0.2025	0.419
Mof_C 	C 	0.6779	0.385	0.6779	-0.145
Mof_C 	C 	0.7025	0.4298	0.7025	0.431
Mof_C 	C 	0.1779	0.385	0.1779	-0.149
Mof_C 	C 	0.2025	0.4298	0.2025	0.431
Mof_C 	C 	0.6779	0.115	0.8221	-0.139
Mof_C 	C 	0.7025	0.0702	0.7975	0.424
Mof_C 	C 	0.6779	0.615	0.3221	-0.145
Mof_C 	C 	0.7025	0.5702	0.2975	0.431
Mof_C 	C 	0.1779	0.115	0.3221	-0.149
Mof_C 	C 	0.2025	0.0702	0.2975	0.426
Mof_C 	C 	0.3221	0.115	0.1779	-0.149
Mof_C 	C 	0.2975	0.0702	0.2025	0.426
Mof_C 	C 	0.3221	0.615	0.6779	-0.145
Mof_C 	C 	0.2975	0.5702	0.7025	0.431
Mof_C 	C 	0.885	0.1779	0.6779	-0.132
Mof_C 	C 	0.9298	0.2025	0.7025	0.419
Mof_C 	C 	0.385	0.1779	0.1779	-0.149
Mof_C 	C 	0.4298	0.2025	0.2025	0.431
Mof_C 	C 	0.885	0.8221	0.3221	-0.124
Mof_C 	C 	0.9298	0.7975	0.2975	0.418
Mof_C 	C 	0.385	0.8221	0.8221	-0.131
Mof_C 	C 	0.4298	0.7975	0.7975	0.428
Mof_C 	C 	0.385	0.3221	0.3221	-0.146
Mof_C 	C 	0.4298	0.2975	0.2975	0.432
Mof_C 	C 	0.115	0.1779	0.3221	-0.149
Mof_C 	C 	0.0702	0.2025	0.2975	0.426
Mof_C 	C 	0.615	0.1779	0.8221	-0.14
Mof_C 	C 	0.5702	0.2025	0.7975	0.43
Mof_C 	C 	0.115	0.8221	0.6779	-0.139
Mof_C 	C 	0.0702	0.7975	0.7025	0.424
Mof_C 	C 	0.115	0.3221	0.1779	-0.149
Mof_C 	C 	0.0702	0.2975	0.2025	0.426
Mof_C 	C 	0.615	0.8221	0.1779	-0.14
Mof_C 	C 	0.5702	0.7975	0.2025	0.43
Mof_C 	C 	0.6779	0.8221	0.115	-0.139
Mof_C 	C 	0.7025	0.7975	0.0702	0.424
Mof_C 	C 	0.6779	0.3221	0.615	-0.145
Mof_C 	C 	0.7025	0.2975	0.5702	0.431
Mof_C 	C 	0.3221	0.6779	0.615	-0.145
Mof_C 	C 	0.2975	0.7025	0.5702	0.431
Mof_C 	C 	0.3221	0.8221	0.885	-0.124
Mof_C 	C 	0.2975	0.7975	0.9298	0.418
Mof_C 	C 	0.6779	0.1779	0.885	-0.132
Mof_C 	C 	0.7025	0.2025	0.9298	0.419
Mof_C 	C 	0.6779	0.6779	0.385	-0.145
Mof_C 	C 	0.7025	0.7025	0.4298	0.431
Mof_C 	C 	0.115	0.6779	0.8221	-0.139
Mof_C 	C 	0.0702	0.7025	0.7975	0.424
Mof_C 	C 	0.615	0.6779	0.3221	-0.145
Mof_C 	C 	0.5702	0.7025	0.2975	0.431
Mof_C 	C 	0.615	0.3221	0.6779	-0.145
Mof_C 	C 	0.5702	0.2975	0.7025	0.431
Mof_C 	C 	0.885	0.3221	0.8221	-0.124
Mof_C 	C 	0.9298	0.2975	0.7975	0.418
Mof_C 	C 	0.885	0.6779	0.1779	-0.132
Mof_C 	C 	0.9298	0.7025	0.2025	0.419
Mof_C 	C 	0.385	0.6779	0.6779	-0.145
Mof_C 	C 	0.4298	0.7025	0.7025	0.431
Mof_C 	C 	0.8221	0.115	0.6779	-0.139
Mof_C 	C 	0.7975	0.0702	0.7025	0.424
Mof_C 	C 	0.8221	0.615	0.1779	-0.14
Mof_C 	C 	0.7975	0.5702	0.2025	0.43
Mof_C 	C 	0.1779	0.615	0.8221	-0.14
Mof_C 	C 	0.2025	0.5702	0.7975	0.43
Mof_C 	C 	0.8221	0.885	0.3221	-0.124
Mof_C 	C 	0.7975	0.9298	0.2975	0.418
Mof_C 	C 	0.8221	0.385	0.8221	-0.131
Mof_C 	C 	0.7975	0.4298	0.7975	0.428
Mof_C 	C 	0.1779	0.885	0.6779	-0.132
Mof_C 	C 	0.2025	0.9298	0.7025	0.419
Mof_C 	C 	0.8221	0.6779	0.885	-0.123
Mof_C 	C 	0.7975	0.7025	0.9298	0.417
Mof_C 	C 	0.8221	0.1779	0.385	-0.14
Mof_C 	C 	0.7975	0.2025	0.4298	0.43
Mof_C 	C 	0.1779	0.8221	0.385	-0.14
Mof_C 	C 	0.2025	0.7975	0.4298	0.43
Mof_C 	C 	0.8221	0.3221	0.115	-0.14
Mof_C 	C 	0.7975	0.2975	0.0702	0.424
Mof_C 	C 	0.8221	0.8221	0.615	-0.13
Mof_C 	C 	0.7975	0.7975	0.5702	0.428
Mof_C 	C 	0.1779	0.6779	0.115	-0.149
Mof_C 	C 	0.2025	0.7025	0.0702	0.425
Mof_C 	C 	0.6779	0.115	0.1779	-0.149
Mof_C 	C 	0.7025	0.0702	0.2025	0.425
Mof_C 	C 	0.6779	0.615	0.6779	-0.144
Mof_C 	C 	0.7025	0.5702	0.7025	0.431
Mof_C 	C 	0.3221	0.115	0.8221	-0.14
Mof_C 	C 	0.2975	0.0702	0.7975	0.424
Mof_C 	C 	0.3221	0.385	0.6779	-0.145
Mof_C 	C 	0.2975	0.4298	0.7025	0.431
Mof_C 	C 	0.6779	0.885	0.8221	-0.123
Mof_C 	C 	0.7025	0.9298	0.7975	0.417
Mof_C 	C 	0.6779	0.385	0.3221	-0.145
Mof_C 	C 	0.7025	0.4298	0.2975	0.431
Mof_C 	C 	0.115	0.8221	0.3221	-0.14
Mof_C 	C 	0.0702	0.7975	0.2975	0.424
Mof_C 	C 	0.615	0.8221	0.8221	-0.13
Mof_C 	C 	0.5702	0.7975	0.7975	0.428
Mof_C 	C 	0.115	0.1779	0.6779	-0.149
Mof_C 	C 	0.0702	0.2025	0.7025	0.425
Mof_C 	C 	0.885	0.8221	0.6779	-0.123
Mof_C 	C 	0.9298	0.7975	0.7025	0.417
Mof_C 	C 	0.385	0.8221	0.1779	-0.14
Mof_C 	C 	0.4298	0.7975	0.2025	0.43
Mof_C 	C 	0.385	0.1779	0.8221	-0.14
Mof_C 	C 	0.4298	0.2025	0.7975	0.43
Mof_C 	C 	0.3012	0.1363	0.8637	0.089
Mof_H 	H 	0.2718	0.1217	0.8783	0.054
Mof_C 	C 	0.3012	0.6363	0.3637	0.096
Mof_H 	H 	0.2718	0.6217	0.3783	0.049
Mof_C 	C 	0.8012	0.1363	0.3637	0.091
Mof_H 	H 	0.7718	0.1217	0.3783	0.049
Mof_C 	C 	0.8012	0.6363	0.8637	0.084
Mof_H 	H 	0.7718	0.6217	0.8783	0.059
Mof_C 	C 	0.6988	0.8637	0.8637	0.082
Mof_H 	H 	0.7282	0.8783	0.8783	0.065
Mof_C 	C 	0.6988	0.3637	0.3637	0.096
Mof_H 	H 	0.7282	0.3783	0.3783	0.05
Mof_C 	C 	0.1988	0.8637	0.3637	0.089
Mof_H 	H 	0.2282	0.8783	0.3783	0.056
Mof_C 	C 	0.1988	0.3637	0.8637	0.089
Mof_H 	H 	0.2282	0.3783	0.8783	0.056
Mof_C 	C 	0.6988	0.1363	0.1363	0.095
Mof_H 	H 	0.7282	0.1217	0.1217	0.046
Mof_C 	C 	0.6988	0.6363	0.6363	0.095
Mof_H 	H 	0.7282	0.6217	0.6217	0.05
Mof_C 	C 	0.1988	0.1363	0.6363	0.095
Mof_H 	H 	0.2282	0.1217	0.6217	0.046
Mof_C 	C 	0.1988	0.6363	0.1363	0.095
Mof_H 	H 	0.2282	0.6217	0.1217	0.046
Mof_C 	C 	0.3012	0.8637	0.1363	0.089
Mof_H 	H 	0.2718	0.8783	0.1217	0.054
Mof_C 	C 	0.3012	0.3637	0.6363	0.096
Mof_H 	H 	0.2718	0.3783	0.6217	0.049
Mof_C 	C 	0.8012	0.8637	0.6363	0.084
Mof_H 	H 	0.7718	0.8783	0.6217	0.059
Mof_C 	C 	0.8012	0.3637	0.1363	0.091
Mof_H 	H 	0.7718	0.3783	0.1217	0.049
Mof_C 	C 	0.8637	0.3012	0.1363	0.089
Mof_H 	H 	0.8783	0.2718	0.1217	0.054
Mof_C 	C 	0.8637	0.8012	0.6363	0.084
Mof_H 	H 	0.8783	0.7718	0.6217	0.059
Mof_C 	C 	0.3637	0.3012	0.6363	0.096
Mof_H 	H 	0.3783	0.2718	0.6217	0.049
Mof_C 	C 	0.3637	0.8012	0.1363	0.091
Mof_H 	H 	0.3783	0.7718	0.1217	0.049
Mof_C 	C 	0.8637	0.6988	0.8637	0.082
Mof_H 	H 	0.8783	0.7282	0.8783	0.065
Mof_C 	C 	0.8637	0.1988	0.3637	0.089
Mof_H 	H 	0.8783	0.2282	0.3783	0.056
Mof_C 	C 	0.3637	0.6988	0.3637	0.096
Mof_H 	H 	0.3783	0.7282	0.3783	0.05
Mof_C 	C 	0.3637	0.1988	0.8637	0.089
Mof_H 	H 	0.3783	0.2282	0.8783	0.056
Mof_C 	C 	0.1363	0.6988	0.1363	0.095
Mof_H 	H 	0.1217	0.7282	0.1217	0.046
Mof_C 	C 	0.1363	0.1988	0.6363	0.095
Mof_H 	H 	0.1217	0.2282	0.6217	0.046
Mof_C 	C 	0.6363	0.6988	0.6363	0.095
Mof_H 	H 	0.6217	0.7282	0.6217	0.05
Mof_C 	C 	0.6363	0.1988	0.1363	0.095
Mof_H 	H 	0.6217	0.2282	0.1217	0.046
Mof_C 	C 	0.1363	0.3012	0.8637	0.089
Mof_H 	H 	0.1217	0.2718	0.8783	0.054
Mof_C 	C 	0.1363	0.8012	0.3637	0.091
Mof_H 	H 	0.1217	0.7718	0.3783	0.049
Mof_C 	C 	0.6363	0.3012	0.3637	0.096
Mof_H 	H 	0.6217	0.2718	0.3783	0.049
Mof_C 	C 	0.6363	0.8012	0.8637	0.084
Mof_H 	H 	0.6217	0.7718	0.8783	0.059
Mof_C 	C 	0.1363	0.8637	0.3012	0.089
Mof_H 	H 	0.1217	0.8783	0.2718	0.054
Mof_C 	C 	0.1363	0.3637	0.8012	0.091
Mof_H 	H 	0.1217	0.3783	0.7718	0.049
Mof_C 	C 	0.6363	0.8637	0.8012	0.084
Mof_H 	H 	0.6217	0.8783	0.7718	0.059
Mof_C 	C 	0.6363	0.3637	0.3012	0.096
Mof_H 	H 	0.6217	0.3783	0.2718	0.049
Mof_C 	C 	0.8637	0.8637	0.6988	0.082
Mof_H 	H 	0.8783	0.8783	0.7282	0.065
Mof_C 	C 	0.8637	0.3637	0.1988	0.089
Mof_H 	H 	0.8783	0.3783	0.2282	0.056
Mof_C 	C 	0.3637	0.8637	0.1988	0.089
Mof_H 	H 	0.3783	0.8783	0.2282	0.056
Mof_C 	C 	0.3637	0.3637	0.6988	0.096
Mof_H 	H 	0.3783	0.3783	0.7282	0.05
Mof_C 	C 	0.1363	0.1363	0.6988	0.095
Mof_H 	H 	0.1217	0.1217	0.7282	0.046
Mof_C 	C 	0.1363	0.6363	0.1988	0.095
Mof_H 	H 	0.1217	0.6217	0.2282	0.046
Mof_C 	C 	0.6363	0.1363	0.1988	0.095
Mof_H 	H 	0.6217	0.1217	0.2282	0.046
Mof_C 	C 	0.6363	0.6363	0.6988	0.095
Mof_H 	H 	0.6217	0.6217	0.7282	0.05
Mof_C 	C 	0.8637	0.1363	0.3012	0.089
Mof_H 	H 	0.8783	0.1217	0.2718	0.054
Mof_C 	C 	0.8637	0.6363	0.8012	0.084
Mof_H 	H 	0.8783	0.6217	0.7718	0.059
Mof_C 	C 	0.3637	0.1363	0.8012	0.091
Mof_H 	H 	0.3783	0.1217	0.7718	0.049
Mof_C 	C 	0.3637	0.6363	0.3012	0.096
Mof_H 	H 	0.3783	0.6217	0.2718	0.049
Mof_C 	C 	0.1363	0.3012	0.1363	0.095
Mof_H 	H 	0.1217	0.2718	0.1217	0.045
Mof_C 	C 	0.1363	0.8012	0.6363	0.091
Mof_H 	H 	0.1217	0.7718	0.6217	0.049
Mof_C 	C 	0.6363	0.3012	0.6363	0.096
Mof_H 	H 	0.6217	0.2718	0.6217	0.049
Mof_C 	C 	0.6363	0.8012	0.1363	0.091
Mof_H 	H 	0.6217	0.7718	0.1217	0.049
Mof_C 	C 	0.8637	0.6988	0.1363	0.088
Mof_H 	H 	0.8783	0.7282	0.1217	0.055
Mof_C 	C 	0.8637	0.1988	0.6363	0.089
Mof_H 	H 	0.8783	0.2282	0.6217	0.056
Mof_C 	C 	0.3637	0.6988	0.6363	0.096
Mof_H 	H 	0.3783	0.7282	0.6217	0.05
Mof_C 	C 	0.3637	0.1988	0.1363	0.096
Mof_H 	H 	0.3783	0.2282	0.1217	0.046
Mof_C 	C 	0.1363	0.6988	0.8637	0.088
Mof_H 	H 	0.1217	0.7282	0.8783	0.055
Mof_C 	C 	0.1363	0.1988	0.3637	0.096
Mof_H 	H 	0.1217	0.2282	0.3783	0.046
Mof_C 	C 	0.6363	0.6988	0.3637	0.096
Mof_H 	H 	0.6217	0.7282	0.3783	0.05
Mof_C 	C 	0.6363	0.1988	0.8637	0.089
Mof_H 	H 	0.6217	0.2282	0.8783	0.056
Mof_C 	C 	0.8637	0.3012	0.8637	0.082
Mof_H 	H 	0.8783	0.2718	0.8783	0.063
Mof_C 	C 	0.8637	0.8012	0.3637	0.085
Mof_H 	H 	0.8783	0.7718	0.3783	0.059
Mof_C 	C 	0.3637	0.3012	0.3637	0.096
Mof_H 	H 	0.3783	0.2718	0.3783	0.049
Mof_C 	C 	0.3637	0.8012	0.8637	0.085
Mof_H 	H 	0.3783	0.7718	0.8783	0.059
Mof_C 	C 	0.3012	0.8637	0.8637	0.082
Mof_H 	H 	0.2718	0.8783	0.8783	0.063
Mof_C 	C 	0.3012	0.3637	0.3637	0.096
Mof_H 	H 	0.2718	0.3783	0.3783	0.049
Mof_C 	C 	0.8012	0.8637	0.3637	0.085
Mof_H 	H 	0.7718	0.8783	0.3783	0.059
Mof_C 	C 	0.8012	0.3637	0.8637	0.085
Mof_H 	H 	0.7718	0.3783	0.8783	0.059
Mof_C 	C 	0.6988	0.8637	0.1363	0.088
Mof_H 	H 	0.7282	0.8783	0.1217	0.055
Mof_C 	C 	0.6988	0.3637	0.6363	0.096
Mof_H 	H 	0.7282	0.3783	0.6217	0.05
Mof_C 	C 	0.1988	0.8637	0.6363	0.089
Mof_H 	H 	0.2282	0.8783	0.6217	0.056
Mof_C 	C 	0.1988	0.3637	0.1363	0.096
Mof_H 	H 	0.2282	0.3783	0.1217	0.046
Mof_C 	C 	0.6988	0.1363	0.8637	0.088
Mof_H 	H 	0.7282	0.1217	0.8783	0.055
Mof_C 	C 	0.6988	0.6363	0.3637	0.096
Mof_H 	H 	0.7282	0.6217	0.3783	0.05
Mof_C 	C 	0.1988	0.1363	0.3637	0.096
Mof_H 	H 	0.2282	0.1217	0.3783	0.046
Mof_C 	C 	0.1988	0.6363	0.8637	0.089
Mof_H 	H 	0.2282	0.6217	0.8783	0.056
Mof_C 	C 	0.3012	0.1363	0.1363	0.095
Mof_H 	H 	0.2718	0.1217	0.1217	0.045
Mof_C 	C 	0.3012	0.6363	0.6363	0.096
Mof_H 	H 	0.2718	0.6217	0.6217	0.049
Mof_C 	C 	0.8012	0.1363	0.6363	0.091
Mof_H 	H 	0.7718	0.1217	0.6217	0.049
Mof_C 	C 	0.8012	0.6363	0.1363	0.091
Mof_H 	H 	0.7718	0.6217	0.1217	0.049
Mof_C 	C 	0.8637	0.1363	0.6988	0.088
Mof_H 	H 	0.8783	0.1217	0.7282	0.055
Mof_C 	C 	0.8637	0.6363	0.1988	0.089
Mof_H 	H 	0.8783	0.6217	0.2282	0.056
Mof_C 	C 	0.3637	0.1363	0.1988	0.096
Mof_H 	H 	0.3783	0.1217	0.2282	0.046
Mof_C 	C 	0.3637	0.6363	0.6988	0.096
Mof_H 	H 	0.3783	0.6217	0.7282	0.05
Mof_C 	C 	0.8637	0.8637	0.3012	0.082
Mof_H 	H 	0.8783	0.8783	0.2718	0.063
Mof_C 	C 	0.8637	0.3637	0.8012	0.085
Mof_H 	H 	0.8783	0.3783	0.7718	0.059
Mof_C 	C 	0.3637	0.8637	0.8012	0.085
Mof_H 	H 	0.3783	0.8783	0.7718	0.059
Mof_C 	C 	0.3637	0.3637	0.3012	0.096
Mof_H 	H 	0.3783	0.3783	0.2718	0.049
Mof_C 	C 	0.1363	0.1363	0.3012	0.095
Mof_H 	H 	0.1217	0.1217	0.2718	0.045
Mof_C 	C 	0.1363	0.6363	0.8012	0.091
Mof_H 	H 	0.1217	0.6217	0.7718	0.049
Mof_C 	C 	0.6363	0.1363	0.8012	0.091
Mof_H 	H 	0.6217	0.1217	0.7718	0.049
Mof_C 	C 	0.6363	0.6363	0.3012	0.096
Mof_H 	H 	0.6217	0.6217	0.2718	0.049
Mof_C 	C 	0.1363	0.8637	0.6988	0.088
Mof_H 	H 	0.1217	0.8783	0.7282	0.055
Mof_C 	C 	0.1363	0.3637	0.1988	0.096
Mof_H 	H 	0.1217	0.3783	0.2282	0.046
Mof_C 	C 	0.6363	0.8637	0.1988	0.089
Mof_H 	H 	0.6217	0.8783	0.2282	0.056
Mof_C 	C 	0.6363	0.3637	0.6988	0.096
Mof_H 	H 	0.6217	0.3783	0.7282	0.05
_end
