data_functionalizedCrystal
_audit_creation_method	'EQeq! by Chris Wilmer'
_symmetry_space_group_name_H-M	'P1'
_symmetry_Int_Tables_number	1
_symmetry_cell_setting	triclinic
loop_
_symmetry_equiv_pos_as_xyz
  x,y,z
_cell_length_a	9.5868
_cell_length_b	10.1255
_cell_length_c	20.2095
_cell_angle_alpha	103.146
_cell_angle_beta	90
_cell_angle_gamma	90
loop_
_atom_site_label
_atom_site_type_symbol
_atom_site_fract_x
_atom_site_fract_y
_atom_site_fract_z
_atom_site_charge
Mof_Eu	Eu	0.42941	0.76883	0.79843	2.342
Mof_Eu	Eu	0.92941	0.73116	0.70157	2.337
Mof_Eu	Eu	0.57059	0.23116	0.20157	2.342
Mof_Eu	Eu	0.07059	0.26883	0.29843	2.337
Mof_Zn	Zn	0.86129	0.30294	0.66367	1.173
Mof_Zn	Zn	0.36129	0.19706	0.83633	1.173
Mof_Zn	Zn	0.13871	0.69706	0.33633	1.173
Mof_Zn	Zn	0.63871	0.80294	0.16367	1.174
Mof_H 	H 	0.0078	0.9439	0.1533	-0.036
Mof_H 	H 	0.9025	0.8218	0.0563	0.058
Mof_H 	H 	0.0196	0.7795	0.9545	-0.008
Mof_H 	H 	0.3516	0.9834	0.0468	-0.004
Mof_H 	H 	0.6257	0.1022	0.7204	-0.043
Mof_H 	H 	0.5078	0.5561	0.3467	-0.039
Mof_H 	H 	0.4025	0.6782	0.4437	0.063
Mof_H 	H 	0.5196	0.7205	0.5455	-0.013
Mof_H 	H 	0.8516	0.5166	0.4532	-0.006
Mof_H 	H 	0.1257	0.3978	0.7796	-0.042
Mof_H 	H 	0.9922	0.0561	0.8467	-0.036
Mof_H 	H 	0.0975	0.1782	0.9437	0.058
Mof_H 	H 	0.9804	0.2205	0.0455	-0.008
Mof_H 	H 	0.6484	0.0166	0.9532	-0.004
Mof_H 	H 	0.3743	0.8978	0.2796	-0.043
Mof_H 	H 	0.4922	0.4439	0.6533	-0.039
Mof_H 	H 	0.5975	0.3218	0.5563	0.063
Mof_H 	H 	0.4804	0.2795	0.4545	-0.013
Mof_H 	H 	0.1484	0.4834	0.5468	-0.006
Mof_H 	H 	0.8743	0.6022	0.2204	-0.042
Mof_C 	C 	0.1907	0.9745	0.1104	-0.256
Mof_C 	C 	0.0561	0.9267	0.1124	0.125
Mof_C 	C 	0.9929	0.8538	0.0543	-0.181
Mof_C 	C 	0.063	0.8284	0.9936	0.099
Mof_C 	C 	0.1979	0.87512	0.99012	-0.168
Mof_C 	C 	0.2617	0.94998	0.04888	0.115
Mof_C 	C 	0.2747	0.84541	0.92411	0.354
Mof_C 	C 	0.2588	0.05384	0.17444	0.551
Mof_C 	C 	0.7023	0.53525	0.73895	0.412
Mof_C 	C 	0.639	0.41176	0.75256	-0.089
Mof_C 	C 	0.5365	0.3873	0.7961	-0.069
Mof_C 	C 	0.449	0.47409	0.84879	0.37
Mof_C 	C 	0.6139	0.195	0.7373	0.126
Mof_C 	C 	0.6907	0.5255	0.3896	-0.262
Mof_C 	C 	0.5561	0.5733	0.3876	0.139
Mof_C 	C 	0.4929	0.6462	0.4457	-0.197
Mof_C 	C 	0.563	0.6716	0.5064	0.109
Mof_C 	C 	0.6979	0.62488	0.50988	-0.178
Mof_C 	C 	0.7617	0.55002	0.45112	0.126
Mof_C 	C 	0.7747	0.65459	0.57589	0.358
Mof_C 	C 	0.7588	0.44616	0.32556	0.553
Mof_C 	C 	0.2023	0.96475	0.76105	0.413
Mof_C 	C 	0.139	0.08824	0.74744	-0.09
Mof_C 	C 	0.0365	0.1127	0.7039	-0.065
Mof_C 	C 	0.949	0.02591	0.65121	0.366
Mof_C 	C 	0.1139	0.305	0.7627	0.127
Mof_C 	C 	0.8093	0.0255	0.8896	-0.256
Mof_C 	C 	0.9439	0.0733	0.8876	0.125
Mof_C 	C 	0.0071	0.1462	0.9457	-0.181
Mof_C 	C 	0.937	0.1716	0.0064	0.099
Mof_C 	C 	0.8021	0.12488	0.00988	-0.168
Mof_C 	C 	0.7383	0.05002	0.95112	0.115
Mof_C 	C 	0.7253	0.15459	0.07589	0.354
Mof_C 	C 	0.7412	0.94616	0.82556	0.551
Mof_C 	C 	0.2977	0.46475	0.26105	0.412
Mof_C 	C 	0.361	0.58824	0.24744	-0.089
Mof_C 	C 	0.4635	0.6127	0.2039	-0.069
Mof_C 	C 	0.551	0.52591	0.15121	0.37
Mof_C 	C 	0.3861	0.805	0.2627	0.126
Mof_C 	C 	0.3093	0.4745	0.6104	-0.262
Mof_C 	C 	0.4439	0.4267	0.6124	0.14
Mof_C 	C 	0.5071	0.3538	0.5543	-0.197
Mof_C 	C 	0.437	0.3284	0.4936	0.109
Mof_C 	C 	0.3021	0.37512	0.49012	-0.178
Mof_C 	C 	0.2383	0.44998	0.54888	0.126
Mof_C 	C 	0.2253	0.34541	0.42411	0.358
Mof_C 	C 	0.2412	0.55384	0.67444	0.553
Mof_C 	C 	0.7977	0.03525	0.23895	0.413
Mof_C 	C 	0.861	0.91176	0.25256	-0.09
Mof_C 	C 	0.9635	0.8873	0.2961	-0.065
Mof_C 	C 	0.051	0.97409	0.34879	0.366
Mof_C 	C 	0.8861	0.695	0.2373	0.127
Mof_N 	N 	0.687	0.2894	0.7158	-0.262
Mof_N 	N 	0.5216	0.24848	0.78568	-0.277
Mof_N 	N 	0.187	0.2106	0.7842	-0.261
Mof_N 	N 	0.0216	0.25152	0.71432	-0.276
Mof_N 	N 	0.313	0.7106	0.2842	-0.262
Mof_N 	N 	0.4784	0.75152	0.21432	-0.277
Mof_N 	N 	0.813	0.7894	0.2158	-0.261
Mof_N 	N 	0.9784	0.74848	0.28568	-0.276
Mof_O 	O 	0.2196	0.77213	0.87193	-0.465
Mof_O 	O 	0.3972	0.89067	0.92087	-0.45
Mof_O 	O 	0.3863	0.07913	0.17173	-0.623
Mof_O 	O 	0.1856	0.08687	0.22737	-0.615
Mof_O 	O 	0.6519	0.64987	0.75917	-0.577
Mof_O 	O 	0.8142	0.51485	0.70345	-0.668
Mof_O 	O 	0.468	0.60109	0.86229	-0.495
Mof_O 	O 	0.362	0.4153	0.878	-0.442
Mof_O 	O 	0.7196	0.72787	0.62807	-0.466
Mof_O 	O 	0.8972	0.60933	0.57913	-0.451
Mof_O 	O 	0.8863	0.42087	0.32827	-0.622
Mof_O 	O 	0.6856	0.41313	0.27263	-0.615
Mof_O 	O 	0.1519	0.85013	0.74083	-0.576
Mof_O 	O 	0.3142	0.98515	0.79655	-0.668
Mof_O 	O 	0.968	0.89891	0.63771	-0.493
Mof_O 	O 	0.862	0.0847	0.622	-0.442
Mof_O 	O 	0.7804	0.22787	0.12807	-0.465
Mof_O 	O 	0.6028	0.10933	0.07913	-0.45
Mof_O 	O 	0.6137	0.92087	0.82827	-0.623
Mof_O 	O 	0.8144	0.91313	0.77263	-0.615
Mof_O 	O 	0.3481	0.35013	0.24083	-0.577
Mof_O 	O 	0.1858	0.48515	0.29655	-0.668
Mof_O 	O 	0.532	0.39891	0.13771	-0.495
Mof_O 	O 	0.638	0.5847	0.122	-0.442
Mof_O 	O 	0.2804	0.27213	0.37193	-0.466
Mof_O 	O 	0.1028	0.39067	0.42087	-0.451
Mof_O 	O 	0.1137	0.57913	0.67173	-0.622
Mof_O 	O 	0.3144	0.58687	0.72737	-0.615
Mof_O 	O 	0.8481	0.14987	0.25917	-0.576
Mof_O 	O 	0.6858	0.01485	0.20345	-0.668
Mof_O 	O 	0.032	0.10109	0.36229	-0.493
Mof_O 	O 	0.138	0.9153	0.378	-0.442
_end
