# CIF file generated by openbabel 3.1.0, see https://openbabel.org
data_I
_chemical_name_common 'image0'
_cell_length_a 31.8033
_cell_length_b 31.8033
_cell_length_c 34.5593
_cell_angle_alpha 90
_cell_angle_beta 90
_cell_angle_gamma 90
_space_group_name_H-M_alt 'P 1'
_space_group_name_Hall 'P 1'
loop_
    _symmetry_equiv_pos_as_xyz
    x,y,z
loop_
    _atom_site_label
    _atom_site_type_symbol
    _atom_site_fract_x
    _atom_site_fract_y
    _atom_site_fract_z
    _atom_site_occupancy
    P1       P        0.05084    0.50152    0.17064    1.000
    P2       P        0.17618    0.69861    0.32500    1.000
    P3       P        0.96685    0.32645    0.07578    1.000
    P4       P        0.15376    0.58464    0.27232    1.000
    O1       O        0.22003    0.71025    0.34217    1.000
    O2       O        0.21739    0.65015    0.22290    1.000
    O3       O        0.15634    0.73952    0.30922    1.000
    O4       O        0.98302    0.32929    0.03414    1.000
    O5       O        0.96566    0.48094    0.05215    1.000
    O6       O        0.05809    0.51715    0.02728    1.000
    O7       O        0.93896    0.36456    0.08547    1.000
    O8       O        0.12432    0.49616    0.08138    1.000
    O9       O        0.00932    0.54589    0.08927    1.000
    O10      O        0.10658    0.69321    0.25626    1.000
    O11      O        0.14998    0.67728    0.35548    1.000
    O12      O        0.96691    0.43531    0.12457    1.000
    O13      O        0.18421    0.66951    0.28973    1.000
    O14      O        0.18590    0.73168    0.23377    1.000
    O15      O        0.00066    0.32018    0.10589    1.000
    O16      O        0.05816    0.51868    0.21071    1.000
    O17      O        0.20177    0.58587    0.27467    1.000
    O18      O        0.15624    0.80649    0.26561    1.000
    O19      O        0.07754    0.52567    0.14101    1.000
    O20      O        0.00431    0.50413    0.15991    1.000
    O21      O        0.13782    0.61619    0.24208    1.000
    O22      O        0.93704    0.28676    0.07547    1.000
    O23      O        0.13930    0.54118    0.26336    1.000
    O24      O        0.06374    0.45373    0.17202    1.000
    O25      O        0.13510    0.59702    0.31307    1.000
    Mo1      Mo       0.12816    0.74962    0.24913    1.000
    Mo2      Mo       0.15711    0.67671    0.22935    1.000
    Mo3      Mo       0.07437    0.53020    0.08095    1.000
    Mo4      Mo       0.94356    0.42704    0.07316    1.000
    Mo5      Mo       0.24492    0.63376    0.27578    1.000
    Mo6      Mo       0.97411    0.49272    0.10758    1.000
    P5       P        0.55084    0.00152    0.67064    1.000
    P6       P        0.67618    0.19861    0.82500    1.000
    P7       P        0.46685    0.82645    0.57578    1.000
    P8       P        0.65376    0.08464    0.77232    1.000
    O26      O        0.72003    0.21025    0.84217    1.000
    O27      O        0.71739    0.15015    0.72290    1.000
    O28      O        0.65634    0.23952    0.80922    1.000
    O29      O        0.48302    0.82929    0.53414    1.000
    O30      O        0.46566    0.98094    0.55215    1.000
    O31      O        0.55809    0.01715    0.52728    1.000
    O32      O        0.43896    0.86456    0.58547    1.000
    O33      O        0.62432    0.99616    0.58138    1.000
    O34      O        0.50932    0.04589    0.58927    1.000
    O35      O        0.60658    0.19321    0.75626    1.000
    O36      O        0.64998    0.17728    0.85548    1.000
    O37      O        0.46691    0.93531    0.62457    1.000
    O38      O        0.68421    0.16951    0.78973    1.000
    O39      O        0.68590    0.23168    0.73377    1.000
    O40      O        0.50066    0.82018    0.60589    1.000
    O41      O        0.55816    0.01868    0.71071    1.000
    O42      O        0.70177    0.08587    0.77467    1.000
    O43      O        0.65624    0.30649    0.76561    1.000
    O44      O        0.57754    0.02567    0.64101    1.000
    O45      O        0.50431    0.00413    0.65991    1.000
    O46      O        0.63782    0.11619    0.74208    1.000
    O47      O        0.43704    0.78676    0.57547    1.000
    O48      O        0.63930    0.04118    0.76336    1.000
    O49      O        0.56374    0.95373    0.67202    1.000
    O50      O        0.63510    0.09702    0.81307    1.000
    Mo7      Mo       0.62816    0.24962    0.74913    1.000
    Mo8      Mo       0.65711    0.17671    0.72935    1.000
    Mo9      Mo       0.57437    0.03020    0.58095    1.000
    Mo10     Mo       0.44356    0.92704    0.57316    1.000
    Mo11     Mo       0.74492    0.13376    0.77578    1.000
    Mo12     Mo       0.47411    0.99272    0.60758    1.000
    P9       P        0.44916    0.49848    0.67064    1.000
    P10      P        0.32382    0.30139    0.82500    1.000
    P11      P        0.53315    0.67355    0.57578    1.000
    P12      P        0.34624    0.41536    0.77232    1.000
    O51      O        0.27997    0.28975    0.84217    1.000
    O52      O        0.28261    0.34985    0.72290    1.000
    O53      O        0.34366    0.26048    0.80922    1.000
    O54      O        0.51698    0.67071    0.53414    1.000
    O55      O        0.53434    0.51906    0.55215    1.000
    O56      O        0.44191    0.48285    0.52728    1.000
    O57      O        0.56104    0.63544    0.58547    1.000
    O58      O        0.37568    0.50384    0.58138    1.000
    O59      O        0.49068    0.45411    0.58927    1.000
    O60      O        0.39342    0.30679    0.75626    1.000
    O61      O        0.35002    0.32272    0.85548    1.000
    O62      O        0.53309    0.56469    0.62457    1.000
    O63      O        0.31579    0.33049    0.78973    1.000
    O64      O        0.31410    0.26832    0.73377    1.000
    O65      O        0.49934    0.67982    0.60589    1.000
    O66      O        0.44184    0.48132    0.71071    1.000
    O67      O        0.29823    0.41413    0.77467    1.000
    O68      O        0.34376    0.19351    0.76561    1.000
    O69      O        0.42246    0.47433    0.64101    1.000
    O70      O        0.49569    0.49587    0.65991    1.000
    O71      O        0.36218    0.38381    0.74208    1.000
    O72      O        0.56296    0.71324    0.57547    1.000
    O73      O        0.36070    0.45882    0.76336    1.000
    O74      O        0.43626    0.54627    0.67202    1.000
    O75      O        0.36490    0.40298    0.81307    1.000
    Mo13     Mo       0.37184    0.25038    0.74913    1.000
    Mo14     Mo       0.34289    0.32329    0.72935    1.000
    Mo15     Mo       0.42563    0.46980    0.58095    1.000
    Mo16     Mo       0.55644    0.57296    0.57316    1.000
    Mo17     Mo       0.25508    0.36624    0.77578    1.000
    Mo18     Mo       0.52589    0.50728    0.60758    1.000
    P13      P        0.94916    0.99848    0.17064    1.000
    P14      P        0.82382    0.80139    0.32500    1.000
    P15      P        0.03315    0.17355    0.07578    1.000
    P16      P        0.84624    0.91536    0.27232    1.000
    O76      O        0.77997    0.78975    0.34217    1.000
    O77      O        0.78261    0.84985    0.22290    1.000
    O78      O        0.84366    0.76048    0.30922    1.000
    O79      O        0.01698    0.17071    0.03414    1.000
    O80      O        0.03434    0.01906    0.05215    1.000
    O81      O        0.94191    0.98285    0.02728    1.000
    O82      O        0.06104    0.13544    0.08547    1.000
    O83      O        0.87568    0.00384    0.08138    1.000
    O84      O        0.99068    0.95411    0.08927    1.000
    O85      O        0.89342    0.80679    0.25626    1.000
    O86      O        0.85002    0.82272    0.35548    1.000
    O87      O        0.03309    0.06469    0.12457    1.000
    O88      O        0.81579    0.83049    0.28973    1.000
    O89      O        0.81410    0.76832    0.23377    1.000
    O90      O        0.99934    0.17982    0.10589    1.000
    O91      O        0.94184    0.98132    0.21071    1.000
    O92      O        0.79823    0.91413    0.27467    1.000
    O93      O        0.84376    0.69351    0.26561    1.000
    O94      O        0.92246    0.97433    0.14101    1.000
    O95      O        0.99569    0.99587    0.15991    1.000
    O96      O        0.86218    0.88381    0.24208    1.000
    O97      O        0.06296    0.21324    0.07547    1.000
    O98      O        0.86070    0.95882    0.26336    1.000
    O99      O        0.93626    0.04627    0.17202    1.000
    O100     O        0.86490    0.90298    0.31307    1.000
    Mo19     Mo       0.87184    0.75038    0.24913    1.000
    Mo20     Mo       0.84289    0.82329    0.22935    1.000
    Mo21     Mo       0.92563    0.96980    0.08095    1.000
    Mo22     Mo       0.05644    0.07296    0.07316    1.000
    Mo23     Mo       0.75508    0.86624    0.27578    1.000
    Mo24     Mo       0.02589    0.00728    0.10758    1.000
    P17      P        0.74848    0.80084    0.42064    1.000
    P18      P        0.55139    0.92618    0.57500    1.000
    P19      P        0.92355    0.71685    0.32578    1.000
    P20      P        0.66536    0.90376    0.52232    1.000
    O101     O        0.53975    0.97003    0.59217    1.000
    O102     O        0.59985    0.96739    0.47290    1.000
    O103     O        0.51048    0.90634    0.55922    1.000
    O104     O        0.92071    0.73302    0.28414    1.000
    O105     O        0.76906    0.71566    0.30215    1.000
    O106     O        0.73285    0.80809    0.27728    1.000
    O107     O        0.88544    0.68896    0.33547    1.000
    O108     O        0.75384    0.87432    0.33138    1.000
    O109     O        0.70411    0.75932    0.33927    1.000
    O110     O        0.55679    0.85658    0.50626    1.000
    O111     O        0.57272    0.89998    0.60548    1.000
    O112     O        0.81469    0.71691    0.37457    1.000
    O113     O        0.58049    0.93421    0.53973    1.000
    O114     O        0.51832    0.93590    0.48377    1.000
    O115     O        0.92982    0.75066    0.35589    1.000
    O116     O        0.73132    0.80816    0.46071    1.000
    O117     O        0.66413    0.95177    0.52467    1.000
    O118     O        0.44351    0.90624    0.51561    1.000
    O119     O        0.72433    0.82754    0.39101    1.000
    O120     O        0.74587    0.75431    0.40991    1.000
    O121     O        0.63381    0.88782    0.49208    1.000
    O122     O        0.96324    0.68704    0.32547    1.000
    O123     O        0.70882    0.88930    0.51336    1.000
    O124     O        0.79627    0.81374    0.42202    1.000
    O125     O        0.65298    0.88510    0.56307    1.000
    Mo25     Mo       0.50038    0.87816    0.49913    1.000
    Mo26     Mo       0.57329    0.90711    0.47935    1.000
    Mo27     Mo       0.71980    0.82437    0.33095    1.000
    Mo28     Mo       0.82296    0.69356    0.32316    1.000
    Mo29     Mo       0.61624    0.99492    0.52578    1.000
    Mo30     Mo       0.75728    0.72411    0.35758    1.000
    P21      P        0.24848    0.30084    0.92064    1.000
    P22      P        0.05139    0.42618    0.07500    1.000
    P23      P        0.42355    0.21685    0.82578    1.000
    P24      P        0.16536    0.40376    0.02232    1.000
    O126     O        0.03975    0.47003    0.09217    1.000
    O127     O        0.09985    0.46739    0.97290    1.000
    O128     O        0.01048    0.40634    0.05922    1.000
    O129     O        0.42071    0.23302    0.78414    1.000
    O130     O        0.26906    0.21566    0.80215    1.000
    O131     O        0.23285    0.30809    0.77728    1.000
    O132     O        0.38544    0.18896    0.83547    1.000
    O133     O        0.25384    0.37432    0.83138    1.000
    O134     O        0.20411    0.25932    0.83927    1.000
    O135     O        0.05679    0.35658    0.00626    1.000
    O136     O        0.07272    0.39998    0.10548    1.000
    O137     O        0.31469    0.21691    0.87457    1.000
    O138     O        0.08049    0.43421    0.03973    1.000
    O139     O        0.01832    0.43590    0.98377    1.000
    O140     O        0.42982    0.25066    0.85589    1.000
    O141     O        0.23132    0.30816    0.96071    1.000
    O142     O        0.16413    0.45177    0.02467    1.000
    O143     O        0.94351    0.40624    0.01561    1.000
    O144     O        0.22433    0.32754    0.89101    1.000
    O145     O        0.24587    0.25431    0.90991    1.000
    O146     O        0.13381    0.38782    0.99208    1.000
    O147     O        0.46324    0.18704    0.82547    1.000
    O148     O        0.20882    0.38930    0.01336    1.000
    O149     O        0.29627    0.31374    0.92202    1.000
    O150     O        0.15298    0.38510    0.06307    1.000
    Mo31     Mo       0.00038    0.37816    0.99913    1.000
    Mo32     Mo       0.07329    0.40711    0.97935    1.000
    Mo33     Mo       0.21980    0.32437    0.83095    1.000
    Mo34     Mo       0.32296    0.19356    0.82316    1.000
    Mo35     Mo       0.11624    0.49492    0.02578    1.000
    Mo36     Mo       0.25728    0.22411    0.85758    1.000
    P25      P        0.75152    0.19916    0.92064    1.000
    P26      P        0.94861    0.07382    0.07500    1.000
    P27      P        0.57645    0.28315    0.82578    1.000
    P28      P        0.83464    0.09624    0.02232    1.000
    O151     O        0.96025    0.02997    0.09217    1.000
    O152     O        0.90015    0.03261    0.97290    1.000
    O153     O        0.98952    0.09366    0.05922    1.000
    O154     O        0.57929    0.26698    0.78414    1.000
    O155     O        0.73094    0.28434    0.80215    1.000
    O156     O        0.76715    0.19191    0.77728    1.000
    O157     O        0.61456    0.31104    0.83547    1.000
    O158     O        0.74616    0.12568    0.83138    1.000
    O159     O        0.79589    0.24068    0.83927    1.000
    O160     O        0.94321    0.14342    0.00626    1.000
    O161     O        0.92728    0.10002    0.10548    1.000
    O162     O        0.68531    0.28309    0.87457    1.000
    O163     O        0.91951    0.06579    0.03973    1.000
    O164     O        0.98168    0.06410    0.98377    1.000
    O165     O        0.57018    0.24934    0.85589    1.000
    O166     O        0.76868    0.19184    0.96071    1.000
    O167     O        0.83587    0.04823    0.02467    1.000
    O168     O        0.05649    0.09376    0.01561    1.000
    O169     O        0.77567    0.17246    0.89101    1.000
    O170     O        0.75413    0.24569    0.90991    1.000
    O171     O        0.86619    0.11218    0.99208    1.000
    O172     O        0.53676    0.31296    0.82547    1.000
    O173     O        0.79118    0.11070    0.01336    1.000
    O174     O        0.70373    0.18626    0.92202    1.000
    O175     O        0.84702    0.11490    0.06307    1.000
    Mo37     Mo       0.99962    0.12184    0.99913    1.000
    Mo38     Mo       0.92671    0.09289    0.97935    1.000
    Mo39     Mo       0.78020    0.17563    0.83095    1.000
    Mo40     Mo       0.67704    0.30644    0.82316    1.000
    Mo41     Mo       0.88376    0.00508    0.02578    1.000
    Mo42     Mo       0.74272    0.27589    0.85758    1.000
    P29      P        0.25152    0.69916    0.42064    1.000
    P30      P        0.44861    0.57382    0.57500    1.000
    P31      P        0.07645    0.78315    0.32578    1.000
    P32      P        0.33464    0.59624    0.52232    1.000
    O176     O        0.46025    0.52997    0.59217    1.000
    O177     O        0.40015    0.53261    0.47290    1.000
    O178     O        0.48952    0.59366    0.55922    1.000
    O179     O        0.07929    0.76698    0.28414    1.000
    O180     O        0.23094    0.78434    0.30215    1.000
    O181     O        0.26715    0.69191    0.27728    1.000
    O182     O        0.11456    0.81104    0.33547    1.000
    O183     O        0.24616    0.62568    0.33138    1.000
    O184     O        0.29589    0.74068    0.33927    1.000
    O185     O        0.44321    0.64342    0.50626    1.000
    O186     O        0.42728    0.60002    0.60548    1.000
    O187     O        0.18531    0.78309    0.37457    1.000
    O188     O        0.41951    0.56579    0.53973    1.000
    O189     O        0.48168    0.56410    0.48377    1.000
    O190     O        0.07018    0.74934    0.35589    1.000
    O191     O        0.26868    0.69184    0.46071    1.000
    O192     O        0.33587    0.54823    0.52467    1.000
    O193     O        0.55649    0.59376    0.51561    1.000
    O194     O        0.27567    0.67246    0.39101    1.000
    O195     O        0.25413    0.74569    0.40991    1.000
    O196     O        0.36619    0.61218    0.49208    1.000
    O197     O        0.03676    0.81296    0.32547    1.000
    O198     O        0.29118    0.61070    0.51336    1.000
    O199     O        0.20373    0.68626    0.42202    1.000
    O200     O        0.34702    0.61490    0.56307    1.000
    Mo43     Mo       0.49962    0.62184    0.49913    1.000
    Mo44     Mo       0.42671    0.59289    0.47935    1.000
    Mo45     Mo       0.28020    0.67563    0.33095    1.000
    Mo46     Mo       0.17704    0.80644    0.32316    1.000
    Mo47     Mo       0.38376    0.50508    0.52578    1.000
    Mo48     Mo       0.24272    0.77589    0.35758    1.000
    P33      P        0.44916    0.50152    0.82936    1.000
    P34      P        0.32382    0.69861    0.67500    1.000
    P35      P        0.53315    0.32645    0.92422    1.000
    P36      P        0.34624    0.58464    0.72768    1.000
    O201     O        0.27997    0.71025    0.65783    1.000
    O202     O        0.28261    0.65015    0.77710    1.000
    O203     O        0.34366    0.73952    0.69078    1.000
    O204     O        0.51698    0.32929    0.96586    1.000
    O205     O        0.53434    0.48094    0.94785    1.000
    O206     O        0.44191    0.51715    0.97272    1.000
    O207     O        0.56104    0.36456    0.91453    1.000
    O208     O        0.37568    0.49616    0.91862    1.000
    O209     O        0.49068    0.54589    0.91073    1.000
    O210     O        0.39342    0.69321    0.74374    1.000
    O211     O        0.35002    0.67728    0.64452    1.000
    O212     O        0.53309    0.43531    0.87543    1.000
    O213     O        0.31579    0.66951    0.71027    1.000
    O214     O        0.31410    0.73168    0.76623    1.000
    O215     O        0.49934    0.32018    0.89411    1.000
    O216     O        0.44184    0.51868    0.78929    1.000
    O217     O        0.29823    0.58587    0.72533    1.000
    O218     O        0.34376    0.80649    0.73439    1.000
    O219     O        0.42246    0.52567    0.85899    1.000
    O220     O        0.49569    0.50413    0.84009    1.000
    O221     O        0.36218    0.61619    0.75792    1.000
    O222     O        0.56296    0.28676    0.92453    1.000
    O223     O        0.36070    0.54118    0.73664    1.000
    O224     O        0.43626    0.45373    0.82798    1.000
    O225     O        0.36490    0.59702    0.68693    1.000
    Mo49     Mo       0.37184    0.74962    0.75087    1.000
    Mo50     Mo       0.34289    0.67671    0.77065    1.000
    Mo51     Mo       0.42563    0.53020    0.91905    1.000
    Mo52     Mo       0.55644    0.42704    0.92684    1.000
    Mo53     Mo       0.25508    0.63376    0.72422    1.000
    Mo54     Mo       0.52589    0.49272    0.89242    1.000
    P37      P        0.94916    0.00152    0.32936    1.000
    P38      P        0.82382    0.19861    0.17500    1.000
    P39      P        0.03315    0.82645    0.42422    1.000
    P40      P        0.84624    0.08464    0.22768    1.000
    O226     O        0.77997    0.21025    0.15783    1.000
    O227     O        0.78261    0.15015    0.27710    1.000
    O228     O        0.84366    0.23952    0.19078    1.000
    O229     O        0.01698    0.82929    0.46586    1.000
    O230     O        0.03434    0.98094    0.44785    1.000
    O231     O        0.94191    0.01715    0.47272    1.000
    O232     O        0.06104    0.86456    0.41453    1.000
    O233     O        0.87568    0.99616    0.41862    1.000
    O234     O        0.99068    0.04589    0.41073    1.000
    O235     O        0.89342    0.19321    0.24374    1.000
    O236     O        0.85002    0.17728    0.14452    1.000
    O237     O        0.03309    0.93531    0.37543    1.000
    O238     O        0.81579    0.16951    0.21027    1.000
    O239     O        0.81410    0.23168    0.26623    1.000
    O240     O        0.99934    0.82018    0.39411    1.000
    O241     O        0.94184    0.01868    0.28929    1.000
    O242     O        0.79823    0.08587    0.22533    1.000
    O243     O        0.84376    0.30649    0.23439    1.000
    O244     O        0.92246    0.02567    0.35899    1.000
    O245     O        0.99569    0.00413    0.34009    1.000
    O246     O        0.86218    0.11619    0.25792    1.000
    O247     O        0.06296    0.78676    0.42453    1.000
    O248     O        0.86070    0.04118    0.23664    1.000
    O249     O        0.93626    0.95373    0.32798    1.000
    O250     O        0.86490    0.09702    0.18693    1.000
    Mo55     Mo       0.87184    0.24962    0.25087    1.000
    Mo56     Mo       0.84289    0.17671    0.27065    1.000
    Mo57     Mo       0.92563    0.03020    0.41905    1.000
    Mo58     Mo       0.05644    0.92704    0.42684    1.000
    Mo59     Mo       0.75508    0.13376    0.22422    1.000
    Mo60     Mo       0.02589    0.99272    0.39242    1.000
    P41      P        0.05084    0.49848    0.32936    1.000
    P42      P        0.17618    0.30139    0.17500    1.000
    P43      P        0.96685    0.67355    0.42422    1.000
    P44      P        0.15376    0.41536    0.22768    1.000
    O251     O        0.22003    0.28975    0.15783    1.000
    O252     O        0.21739    0.34985    0.27710    1.000
    O253     O        0.15634    0.26048    0.19078    1.000
    O254     O        0.98302    0.67071    0.46586    1.000
    O255     O        0.96566    0.51906    0.44785    1.000
    O256     O        0.05809    0.48285    0.47272    1.000
    O257     O        0.93896    0.63544    0.41453    1.000
    O258     O        0.12432    0.50384    0.41862    1.000
    O259     O        0.00932    0.45411    0.41073    1.000
    O260     O        0.10658    0.30679    0.24374    1.000
    O261     O        0.14998    0.32272    0.14452    1.000
    O262     O        0.96691    0.56469    0.37543    1.000
    O263     O        0.18421    0.33049    0.21027    1.000
    O264     O        0.18590    0.26832    0.26623    1.000
    O265     O        0.00066    0.67982    0.39411    1.000
    O266     O        0.05816    0.48132    0.28929    1.000
    O267     O        0.20177    0.41413    0.22533    1.000
    O268     O        0.15624    0.19351    0.23439    1.000
    O269     O        0.07754    0.47433    0.35899    1.000
    O270     O        0.00431    0.49587    0.34009    1.000
    O271     O        0.13782    0.38381    0.25792    1.000
    O272     O        0.93704    0.71324    0.42453    1.000
    O273     O        0.13930    0.45882    0.23664    1.000
    O274     O        0.06374    0.54627    0.32798    1.000
    O275     O        0.13510    0.40298    0.18693    1.000
    Mo61     Mo       0.12816    0.25038    0.25087    1.000
    Mo62     Mo       0.15711    0.32329    0.27065    1.000
    Mo63     Mo       0.07437    0.46980    0.41905    1.000
    Mo64     Mo       0.94356    0.57296    0.42684    1.000
    Mo65     Mo       0.24492    0.36624    0.22422    1.000
    Mo66     Mo       0.97411    0.50728    0.39242    1.000
    P45      P        0.55084    0.99848    0.82936    1.000
    P46      P        0.67618    0.80139    0.67500    1.000
    P47      P        0.46685    0.17355    0.92422    1.000
    P48      P        0.65376    0.91536    0.72768    1.000
    O276     O        0.72003    0.78975    0.65783    1.000
    O277     O        0.71739    0.84985    0.77710    1.000
    O278     O        0.65634    0.76048    0.69078    1.000
    O279     O        0.48302    0.17071    0.96586    1.000
    O280     O        0.46566    0.01906    0.94785    1.000
    O281     O        0.55809    0.98285    0.97272    1.000
    O282     O        0.43896    0.13544    0.91453    1.000
    O283     O        0.62432    0.00384    0.91862    1.000
    O284     O        0.50932    0.95411    0.91073    1.000
    O285     O        0.60658    0.80679    0.74374    1.000
    O286     O        0.64998    0.82272    0.64452    1.000
    O287     O        0.46691    0.06469    0.87543    1.000
    O288     O        0.68421    0.83049    0.71027    1.000
    O289     O        0.68590    0.76832    0.76623    1.000
    O290     O        0.50066    0.17982    0.89411    1.000
    O291     O        0.55816    0.98132    0.78929    1.000
    O292     O        0.70177    0.91413    0.72533    1.000
    O293     O        0.65624    0.69351    0.73439    1.000
    O294     O        0.57754    0.97433    0.85899    1.000
    O295     O        0.50431    0.99587    0.84009    1.000
    O296     O        0.63782    0.88381    0.75792    1.000
    O297     O        0.43704    0.21324    0.92453    1.000
    O298     O        0.63930    0.95882    0.73664    1.000
    O299     O        0.56374    0.04627    0.82798    1.000
    O300     O        0.63510    0.90298    0.68693    1.000
    Mo67     Mo       0.62816    0.75038    0.75087    1.000
    Mo68     Mo       0.65711    0.82329    0.77065    1.000
    Mo69     Mo       0.57437    0.96980    0.91905    1.000
    Mo70     Mo       0.44356    0.07296    0.92684    1.000
    Mo71     Mo       0.74492    0.86624    0.72422    1.000
    Mo72     Mo       0.47411    0.00728    0.89242    1.000
    P49      P        0.75152    0.80084    0.57936    1.000
    P50      P        0.94861    0.92618    0.42500    1.000
    P51      P        0.57645    0.71685    0.67422    1.000
    P52      P        0.83464    0.90376    0.47768    1.000
    O301     O        0.96025    0.97003    0.40783    1.000
    O302     O        0.90015    0.96739    0.52710    1.000
    O303     O        0.98952    0.90634    0.44078    1.000
    O304     O        0.57929    0.73302    0.71586    1.000
    O305     O        0.73094    0.71566    0.69785    1.000
    O306     O        0.76715    0.80809    0.72272    1.000
    O307     O        0.61456    0.68896    0.66453    1.000
    O308     O        0.74616    0.87432    0.66862    1.000
    O309     O        0.79589    0.75932    0.66073    1.000
    O310     O        0.94321    0.85658    0.49374    1.000
    O311     O        0.92728    0.89998    0.39452    1.000
    O312     O        0.68531    0.71691    0.62543    1.000
    O313     O        0.91951    0.93421    0.46027    1.000
    O314     O        0.98168    0.93590    0.51623    1.000
    O315     O        0.57018    0.75066    0.64411    1.000
    O316     O        0.76868    0.80816    0.53929    1.000
    O317     O        0.83587    0.95177    0.47533    1.000
    O318     O        0.05649    0.90624    0.48439    1.000
    O319     O        0.77567    0.82754    0.60899    1.000
    O320     O        0.75413    0.75431    0.59009    1.000
    O321     O        0.86619    0.88782    0.50792    1.000
    O322     O        0.53676    0.68704    0.67453    1.000
    O323     O        0.79118    0.88930    0.48664    1.000
    O324     O        0.70373    0.81374    0.57798    1.000
    O325     O        0.84702    0.88510    0.43693    1.000
    Mo73     Mo       0.99962    0.87816    0.50087    1.000
    Mo74     Mo       0.92671    0.90711    0.52065    1.000
    Mo75     Mo       0.78020    0.82437    0.66905    1.000
    Mo76     Mo       0.67704    0.69356    0.67684    1.000
    Mo77     Mo       0.88376    0.99492    0.47422    1.000
    Mo78     Mo       0.74272    0.72411    0.64242    1.000
    P53      P        0.25152    0.30084    0.07936    1.000
    P54      P        0.44861    0.42618    0.92500    1.000
    P55      P        0.07645    0.21685    0.17422    1.000
    P56      P        0.33464    0.40376    0.97768    1.000
    O326     O        0.46025    0.47003    0.90783    1.000
    O327     O        0.40015    0.46739    0.02710    1.000
    O328     O        0.48952    0.40634    0.94078    1.000
    O329     O        0.07929    0.23302    0.21586    1.000
    O330     O        0.23094    0.21566    0.19785    1.000
    O331     O        0.26715    0.30809    0.22272    1.000
    O332     O        0.11456    0.18896    0.16453    1.000
    O333     O        0.24616    0.37432    0.16862    1.000
    O334     O        0.29589    0.25932    0.16073    1.000
    O335     O        0.44321    0.35658    0.99374    1.000
    O336     O        0.42728    0.39998    0.89452    1.000
    O337     O        0.18531    0.21691    0.12543    1.000
    O338     O        0.41951    0.43421    0.96027    1.000
    O339     O        0.48168    0.43590    0.01623    1.000
    O340     O        0.07018    0.25066    0.14411    1.000
    O341     O        0.26868    0.30816    0.03929    1.000
    O342     O        0.33587    0.45177    0.97533    1.000
    O343     O        0.55649    0.40624    0.98439    1.000
    O344     O        0.27567    0.32754    0.10899    1.000
    O345     O        0.25413    0.25431    0.09009    1.000
    O346     O        0.36619    0.38782    0.00792    1.000
    O347     O        0.03676    0.18704    0.17453    1.000
    O348     O        0.29118    0.38930    0.98664    1.000
    O349     O        0.20373    0.31374    0.07798    1.000
    O350     O        0.34702    0.38510    0.93693    1.000
    Mo79     Mo       0.49962    0.37816    0.00087    1.000
    Mo80     Mo       0.42671    0.40711    0.02065    1.000
    Mo81     Mo       0.28020    0.32437    0.16905    1.000
    Mo82     Mo       0.17704    0.19356    0.17684    1.000
    Mo83     Mo       0.38376    0.49492    0.97422    1.000
    Mo84     Mo       0.24272    0.22411    0.14242    1.000
    P57      P        0.74848    0.19916    0.07936    1.000
    P58      P        0.55139    0.07382    0.92500    1.000
    P59      P        0.92355    0.28315    0.17422    1.000
    P60      P        0.66536    0.09624    0.97768    1.000
    O351     O        0.53975    0.02997    0.90783    1.000
    O352     O        0.59985    0.03261    0.02710    1.000
    O353     O        0.51048    0.09366    0.94078    1.000
    O354     O        0.92071    0.26698    0.21586    1.000
    O355     O        0.76906    0.28434    0.19785    1.000
    O356     O        0.73285    0.19191    0.22272    1.000
    O357     O        0.88544    0.31104    0.16453    1.000
    O358     O        0.75384    0.12568    0.16862    1.000
    O359     O        0.70411    0.24068    0.16073    1.000
    O360     O        0.55679    0.14342    0.99374    1.000
    O361     O        0.57272    0.10002    0.89452    1.000
    O362     O        0.81469    0.28309    0.12543    1.000
    O363     O        0.58049    0.06579    0.96027    1.000
    O364     O        0.51832    0.06410    0.01623    1.000
    O365     O        0.92982    0.24934    0.14411    1.000
    O366     O        0.73132    0.19184    0.03929    1.000
    O367     O        0.66413    0.04823    0.97533    1.000
    O368     O        0.44351    0.09376    0.98439    1.000
    O369     O        0.72433    0.17246    0.10899    1.000
    O370     O        0.74587    0.24569    0.09009    1.000
    O371     O        0.63381    0.11218    0.00792    1.000
    O372     O        0.96324    0.31296    0.17453    1.000
    O373     O        0.70882    0.11070    0.98664    1.000
    O374     O        0.79627    0.18626    0.07798    1.000
    O375     O        0.65298    0.11490    0.93693    1.000
    Mo85     Mo       0.50038    0.12184    0.00087    1.000
    Mo86     Mo       0.57329    0.09289    0.02065    1.000
    Mo87     Mo       0.71980    0.17563    0.16905    1.000
    Mo88     Mo       0.82296    0.30644    0.17684    1.000
    Mo89     Mo       0.61624    0.00508    0.97422    1.000
    Mo90     Mo       0.75728    0.27589    0.14242    1.000
    P61      P        0.24848    0.69916    0.57936    1.000
    P62      P        0.05139    0.57382    0.42500    1.000
    P63      P        0.42355    0.78315    0.67422    1.000
    P64      P        0.16536    0.59624    0.47768    1.000
    O376     O        0.03975    0.52997    0.40783    1.000
    O377     O        0.09985    0.53261    0.52710    1.000
    O378     O        0.01048    0.59366    0.44078    1.000
    O379     O        0.42071    0.76698    0.71586    1.000
    O380     O        0.26906    0.78434    0.69785    1.000
    O381     O        0.23285    0.69191    0.72272    1.000
    O382     O        0.38544    0.81104    0.66453    1.000
    O383     O        0.25384    0.62568    0.66862    1.000
    O384     O        0.20411    0.74068    0.66073    1.000
    O385     O        0.05679    0.64342    0.49374    1.000
    O386     O        0.07272    0.60002    0.39452    1.000
    O387     O        0.31469    0.78309    0.62543    1.000
    O388     O        0.08049    0.56579    0.46027    1.000
    O389     O        0.01832    0.56410    0.51623    1.000
    O390     O        0.42982    0.74934    0.64411    1.000
    O391     O        0.23132    0.69184    0.53929    1.000
    O392     O        0.16413    0.54823    0.47533    1.000
    O393     O        0.94351    0.59376    0.48439    1.000
    O394     O        0.22433    0.67246    0.60899    1.000
    O395     O        0.24587    0.74569    0.59009    1.000
    O396     O        0.13381    0.61218    0.50792    1.000
    O397     O        0.46324    0.81296    0.67453    1.000
    O398     O        0.20882    0.61070    0.48664    1.000
    O399     O        0.29627    0.68626    0.57798    1.000
    O400     O        0.15298    0.61490    0.43693    1.000
    Mo91     Mo       0.00038    0.62184    0.50087    1.000
    Mo92     Mo       0.07329    0.59289    0.52065    1.000
    Mo93     Mo       0.21980    0.67563    0.66905    1.000
    Mo94     Mo       0.32296    0.80644    0.67684    1.000
    Mo95     Mo       0.11624    0.50508    0.47422    1.000
    Mo96     Mo       0.25728    0.77589    0.64242    1.000
    P65      P        0.94916    0.49848    0.82936    1.000
    P66      P        0.82382    0.30139    0.67500    1.000
    P67      P        0.03315    0.67355    0.92422    1.000
    P68      P        0.84624    0.41536    0.72768    1.000
    O401     O        0.77997    0.28975    0.65783    1.000
    O402     O        0.78261    0.34985    0.77710    1.000
    O403     O        0.84366    0.26048    0.69078    1.000
    O404     O        0.01698    0.67071    0.96586    1.000
    O405     O        0.03434    0.51906    0.94785    1.000
    O406     O        0.94191    0.48285    0.97272    1.000
    O407     O        0.06104    0.63544    0.91453    1.000
    O408     O        0.87568    0.50384    0.91862    1.000
    O409     O        0.99068    0.45411    0.91073    1.000
    O410     O        0.89342    0.30679    0.74374    1.000
    O411     O        0.85002    0.32272    0.64452    1.000
    O412     O        0.03309    0.56469    0.87543    1.000
    O413     O        0.81579    0.33049    0.71027    1.000
    O414     O        0.81410    0.26832    0.76623    1.000
    O415     O        0.99934    0.67982    0.89411    1.000
    O416     O        0.94184    0.48132    0.78929    1.000
    O417     O        0.79823    0.41413    0.72533    1.000
    O418     O        0.84376    0.19351    0.73439    1.000
    O419     O        0.92246    0.47433    0.85899    1.000
    O420     O        0.99569    0.49587    0.84009    1.000
    O421     O        0.86218    0.38381    0.75792    1.000
    O422     O        0.06296    0.71324    0.92453    1.000
    O423     O        0.86070    0.45882    0.73664    1.000
    O424     O        0.93626    0.54627    0.82798    1.000
    O425     O        0.86490    0.40298    0.68693    1.000
    Mo97     Mo       0.87184    0.25038    0.75087    1.000
    Mo98     Mo       0.84289    0.32329    0.77065    1.000
    Mo99     Mo       0.92563    0.46980    0.91905    1.000
    Mo100    Mo       0.05644    0.57296    0.92684    1.000
    Mo101    Mo       0.75508    0.36624    0.72422    1.000
    Mo102    Mo       0.02589    0.50728    0.89242    1.000
    P69      P        0.44916    0.99848    0.32936    1.000
    P70      P        0.32382    0.80139    0.17500    1.000
    P71      P        0.53315    0.17355    0.42422    1.000
    P72      P        0.34624    0.91536    0.22768    1.000
    O426     O        0.27997    0.78975    0.15783    1.000
    O427     O        0.28261    0.84985    0.27710    1.000
    O428     O        0.34366    0.76048    0.19078    1.000
    O429     O        0.51698    0.17071    0.46586    1.000
    O430     O        0.53434    0.01906    0.44785    1.000
    O431     O        0.44191    0.98285    0.47272    1.000
    O432     O        0.56104    0.13544    0.41453    1.000
    O433     O        0.37568    0.00384    0.41862    1.000
    O434     O        0.49068    0.95411    0.41073    1.000
    O435     O        0.39342    0.80679    0.24374    1.000
    O436     O        0.35002    0.82272    0.14452    1.000
    O437     O        0.53309    0.06469    0.37543    1.000
    O438     O        0.31579    0.83049    0.21027    1.000
    O439     O        0.31410    0.76832    0.26623    1.000
    O440     O        0.49934    0.17982    0.39411    1.000
    O441     O        0.44184    0.98132    0.28929    1.000
    O442     O        0.29823    0.91413    0.22533    1.000
    O443     O        0.34376    0.69351    0.23439    1.000
    O444     O        0.42246    0.97433    0.35899    1.000
    O445     O        0.49569    0.99587    0.34009    1.000
    O446     O        0.36218    0.88381    0.25792    1.000
    O447     O        0.56296    0.21324    0.42453    1.000
    O448     O        0.36070    0.95882    0.23664    1.000
    O449     O        0.43626    0.04627    0.32798    1.000
    O450     O        0.36490    0.90298    0.18693    1.000
    Mo103    Mo       0.37184    0.75038    0.25087    1.000
    Mo104    Mo       0.34289    0.82329    0.27065    1.000
    Mo105    Mo       0.42563    0.96980    0.41905    1.000
    Mo106    Mo       0.55644    0.07296    0.42684    1.000
    Mo107    Mo       0.25508    0.86624    0.22422    1.000
    Mo108    Mo       0.52589    0.00728    0.39242    1.000
    P73      P        0.55084    0.50152    0.32936    1.000
    P74      P        0.67618    0.69861    0.17500    1.000
    P75      P        0.46685    0.32645    0.42422    1.000
    P76      P        0.65376    0.58464    0.22768    1.000
    O451     O        0.72003    0.71025    0.15783    1.000
    O452     O        0.71739    0.65015    0.27710    1.000
    O453     O        0.65634    0.73952    0.19078    1.000
    O454     O        0.48302    0.32929    0.46586    1.000
    O455     O        0.46566    0.48094    0.44785    1.000
    O456     O        0.55809    0.51715    0.47272    1.000
    O457     O        0.43896    0.36456    0.41453    1.000
    O458     O        0.62432    0.49616    0.41862    1.000
    O459     O        0.50932    0.54589    0.41073    1.000
    O460     O        0.60658    0.69321    0.24374    1.000
    O461     O        0.64998    0.67728    0.14452    1.000
    O462     O        0.46691    0.43531    0.37543    1.000
    O463     O        0.68421    0.66951    0.21027    1.000
    O464     O        0.68590    0.73168    0.26623    1.000
    O465     O        0.50066    0.32018    0.39411    1.000
    O466     O        0.55816    0.51868    0.28929    1.000
    O467     O        0.70177    0.58587    0.22533    1.000
    O468     O        0.65624    0.80649    0.23439    1.000
    O469     O        0.57754    0.52567    0.35899    1.000
    O470     O        0.50431    0.50413    0.34009    1.000
    O471     O        0.63782    0.61619    0.25792    1.000
    O472     O        0.43704    0.28676    0.42453    1.000
    O473     O        0.63930    0.54118    0.23664    1.000
    O474     O        0.56374    0.45373    0.32798    1.000
    O475     O        0.63510    0.59702    0.18693    1.000
    Mo109    Mo       0.62816    0.74962    0.25087    1.000
    Mo110    Mo       0.65711    0.67671    0.27065    1.000
    Mo111    Mo       0.57437    0.53020    0.41905    1.000
    Mo112    Mo       0.44356    0.42704    0.42684    1.000
    Mo113    Mo       0.74492    0.63376    0.22422    1.000
    Mo114    Mo       0.47411    0.49272    0.39242    1.000
    P77      P        0.05084    0.00152    0.82936    1.000
    P78      P        0.17618    0.19861    0.67500    1.000
    P79      P        0.96685    0.82645    0.92422    1.000
    P80      P        0.15376    0.08464    0.72768    1.000
    O476     O        0.22003    0.21025    0.65783    1.000
    O477     O        0.21739    0.15015    0.77710    1.000
    O478     O        0.15634    0.23952    0.69078    1.000
    O479     O        0.98302    0.82929    0.96586    1.000
    O480     O        0.96566    0.98094    0.94785    1.000
    O481     O        0.05809    0.01715    0.97272    1.000
    O482     O        0.93896    0.86456    0.91453    1.000
    O483     O        0.12432    0.99616    0.91862    1.000
    O484     O        0.00932    0.04589    0.91073    1.000
    O485     O        0.10658    0.19321    0.74374    1.000
    O486     O        0.14998    0.17728    0.64452    1.000
    O487     O        0.96691    0.93531    0.87543    1.000
    O488     O        0.18421    0.16951    0.71027    1.000
    O489     O        0.18590    0.23168    0.76623    1.000
    O490     O        0.00066    0.82018    0.89411    1.000
    O491     O        0.05816    0.01868    0.78929    1.000
    O492     O        0.20177    0.08587    0.72533    1.000
    O493     O        0.15624    0.30649    0.73439    1.000
    O494     O        0.07754    0.02567    0.85899    1.000
    O495     O        0.00431    0.00413    0.84009    1.000
    O496     O        0.13782    0.11619    0.75792    1.000
    O497     O        0.93704    0.78676    0.92453    1.000
    O498     O        0.13930    0.04118    0.73664    1.000
    O499     O        0.06374    0.95373    0.82798    1.000
    O500     O        0.13510    0.09702    0.68693    1.000
    Mo115    Mo       0.12816    0.24962    0.75087    1.000
    Mo116    Mo       0.15711    0.17671    0.77065    1.000
    Mo117    Mo       0.07437    0.03020    0.91905    1.000
    Mo118    Mo       0.94356    0.92704    0.92684    1.000
    Mo119    Mo       0.24492    0.13376    0.72422    1.000
    Mo120    Mo       0.97411    0.99272    0.89242    1.000
    P81      P        0.25152    0.19916    0.57936    1.000
    P82      P        0.44861    0.07382    0.42500    1.000
    P83      P        0.07645    0.28315    0.67422    1.000
    P84      P        0.33464    0.09624    0.47768    1.000
    O501     O        0.46025    0.02997    0.40783    1.000
    O502     O        0.40015    0.03261    0.52710    1.000
    O503     O        0.48952    0.09366    0.44078    1.000
    O504     O        0.07929    0.26698    0.71586    1.000
    O505     O        0.23094    0.28434    0.69785    1.000
    O506     O        0.26715    0.19191    0.72272    1.000
    O507     O        0.11456    0.31104    0.66453    1.000
    O508     O        0.24616    0.12568    0.66862    1.000
    O509     O        0.29589    0.24068    0.66073    1.000
    O510     O        0.44321    0.14342    0.49374    1.000
    O511     O        0.42728    0.10002    0.39452    1.000
    O512     O        0.18531    0.28309    0.62543    1.000
    O513     O        0.41951    0.06579    0.46027    1.000
    O514     O        0.48168    0.06410    0.51623    1.000
    O515     O        0.07018    0.24934    0.64411    1.000
    O516     O        0.26868    0.19184    0.53929    1.000
    O517     O        0.33587    0.04823    0.47533    1.000
    O518     O        0.55649    0.09376    0.48439    1.000
    O519     O        0.27567    0.17246    0.60899    1.000
    O520     O        0.25413    0.24569    0.59009    1.000
    O521     O        0.36619    0.11218    0.50792    1.000
    O522     O        0.03676    0.31296    0.67453    1.000
    O523     O        0.29118    0.11070    0.48664    1.000
    O524     O        0.20373    0.18626    0.57798    1.000
    O525     O        0.34702    0.11490    0.43693    1.000
    Mo121    Mo       0.49962    0.12184    0.50087    1.000
    Mo122    Mo       0.42671    0.09289    0.52065    1.000
    Mo123    Mo       0.28020    0.17563    0.66905    1.000
    Mo124    Mo       0.17704    0.30644    0.67684    1.000
    Mo125    Mo       0.38376    0.00508    0.47422    1.000
    Mo126    Mo       0.24272    0.27589    0.64242    1.000
    P85      P        0.75152    0.69916    0.07936    1.000
    P86      P        0.94861    0.57382    0.92500    1.000
    P87      P        0.57645    0.78315    0.17422    1.000
    P88      P        0.83464    0.59624    0.97768    1.000
    O526     O        0.96025    0.52997    0.90783    1.000
    O527     O        0.90015    0.53261    0.02710    1.000
    O528     O        0.98952    0.59366    0.94078    1.000
    O529     O        0.57929    0.76698    0.21586    1.000
    O530     O        0.73094    0.78434    0.19785    1.000
    O531     O        0.76715    0.69191    0.22272    1.000
    O532     O        0.61456    0.81104    0.16453    1.000
    O533     O        0.74616    0.62568    0.16862    1.000
    O534     O        0.79589    0.74068    0.16073    1.000
    O535     O        0.94321    0.64342    0.99374    1.000
    O536     O        0.92728    0.60002    0.89452    1.000
    O537     O        0.68531    0.78309    0.12543    1.000
    O538     O        0.91951    0.56579    0.96027    1.000
    O539     O        0.98168    0.56410    0.01623    1.000
    O540     O        0.57018    0.74934    0.14411    1.000
    O541     O        0.76868    0.69184    0.03929    1.000
    O542     O        0.83587    0.54823    0.97533    1.000
    O543     O        0.05649    0.59376    0.98439    1.000
    O544     O        0.77567    0.67246    0.10899    1.000
    O545     O        0.75413    0.74569    0.09009    1.000
    O546     O        0.86619    0.61218    0.00792    1.000
    O547     O        0.53676    0.81296    0.17453    1.000
    O548     O        0.79118    0.61070    0.98664    1.000
    O549     O        0.70373    0.68626    0.07798    1.000
    O550     O        0.84702    0.61490    0.93693    1.000
    Mo127    Mo       0.99962    0.62184    0.00087    1.000
    Mo128    Mo       0.92671    0.59289    0.02065    1.000
    Mo129    Mo       0.78020    0.67563    0.16905    1.000
    Mo130    Mo       0.67704    0.80644    0.17684    1.000
    Mo131    Mo       0.88376    0.50508    0.97422    1.000
    Mo132    Mo       0.74272    0.77589    0.14242    1.000
    P89      P        0.24848    0.80084    0.07936    1.000
    P90      P        0.05139    0.92618    0.92500    1.000
    P91      P        0.42355    0.71685    0.17422    1.000
    P92      P        0.16536    0.90376    0.97768    1.000
    O551     O        0.03975    0.97003    0.90783    1.000
    O552     O        0.09985    0.96739    0.02710    1.000
    O553     O        0.01048    0.90634    0.94078    1.000
    O554     O        0.42071    0.73302    0.21586    1.000
    O555     O        0.26906    0.71566    0.19785    1.000
    O556     O        0.23285    0.80809    0.22272    1.000
    O557     O        0.38544    0.68896    0.16453    1.000
    O558     O        0.25384    0.87432    0.16862    1.000
    O559     O        0.20411    0.75932    0.16073    1.000
    O560     O        0.05679    0.85658    0.99374    1.000
    O561     O        0.07272    0.89998    0.89452    1.000
    O562     O        0.31469    0.71691    0.12543    1.000
    O563     O        0.08049    0.93421    0.96027    1.000
    O564     O        0.01832    0.93590    0.01623    1.000
    O565     O        0.42982    0.75066    0.14411    1.000
    O566     O        0.23132    0.80816    0.03929    1.000
    O567     O        0.16413    0.95177    0.97533    1.000
    O568     O        0.94351    0.90624    0.98439    1.000
    O569     O        0.22433    0.82754    0.10899    1.000
    O570     O        0.24587    0.75431    0.09009    1.000
    O571     O        0.13381    0.88782    0.00792    1.000
    O572     O        0.46324    0.68704    0.17453    1.000
    O573     O        0.20882    0.88930    0.98664    1.000
    O574     O        0.29627    0.81374    0.07798    1.000
    O575     O        0.15298    0.88510    0.93693    1.000
    Mo133    Mo       0.00038    0.87816    0.00087    1.000
    Mo134    Mo       0.07329    0.90711    0.02065    1.000
    Mo135    Mo       0.21980    0.82437    0.16905    1.000
    Mo136    Mo       0.32296    0.69356    0.17684    1.000
    Mo137    Mo       0.11624    0.99492    0.97422    1.000
    Mo138    Mo       0.25728    0.72411    0.14242    1.000
    P93      P        0.74848    0.30084    0.57936    1.000
    P94      P        0.55139    0.42618    0.42500    1.000
    P95      P        0.92355    0.21685    0.67422    1.000
    P96      P        0.66536    0.40376    0.47768    1.000
    O576     O        0.53975    0.47003    0.40783    1.000
    O577     O        0.59985    0.46739    0.52710    1.000
    O578     O        0.51048    0.40634    0.44078    1.000
    O579     O        0.92071    0.23302    0.71586    1.000
    O580     O        0.76906    0.21566    0.69785    1.000
    O581     O        0.73285    0.30809    0.72272    1.000
    O582     O        0.88544    0.18896    0.66453    1.000
    O583     O        0.75384    0.37432    0.66862    1.000
    O584     O        0.70411    0.25932    0.66073    1.000
    O585     O        0.55679    0.35658    0.49374    1.000
    O586     O        0.57272    0.39998    0.39452    1.000
    O587     O        0.81469    0.21691    0.62543    1.000
    O588     O        0.58049    0.43421    0.46027    1.000
    O589     O        0.51832    0.43590    0.51623    1.000
    O590     O        0.92982    0.25066    0.64411    1.000
    O591     O        0.73132    0.30816    0.53929    1.000
    O592     O        0.66413    0.45177    0.47533    1.000
    O593     O        0.44351    0.40624    0.48439    1.000
    O594     O        0.72433    0.32754    0.60899    1.000
    O595     O        0.74587    0.25431    0.59009    1.000
    O596     O        0.63381    0.38782    0.50792    1.000
    O597     O        0.96324    0.18704    0.67453    1.000
    O598     O        0.70882    0.38930    0.48664    1.000
    O599     O        0.79627    0.31374    0.57798    1.000
    O600     O        0.65298    0.38510    0.43693    1.000
    Mo139    Mo       0.50038    0.37816    0.50087    1.000
    Mo140    Mo       0.57329    0.40711    0.52065    1.000
    Mo141    Mo       0.71980    0.32437    0.66905    1.000
    Mo142    Mo       0.82296    0.19356    0.67684    1.000
    Mo143    Mo       0.61624    0.49492    0.47422    1.000
    Mo144    Mo       0.75728    0.22411    0.64242    1.000
    P97      P        0.55084    0.49848    0.17064    1.000
    P98      P        0.67618    0.30139    0.32500    1.000
    P99      P        0.46685    0.67355    0.07578    1.000
    P100     P        0.65376    0.41536    0.27232    1.000
    O601     O        0.72003    0.28975    0.34217    1.000
    O602     O        0.71739    0.34985    0.22290    1.000
    O603     O        0.65634    0.26048    0.30922    1.000
    O604     O        0.48302    0.67071    0.03414    1.000
    O605     O        0.46566    0.51906    0.05215    1.000
    O606     O        0.55809    0.48285    0.02728    1.000
    O607     O        0.43896    0.63544    0.08547    1.000
    O608     O        0.62432    0.50384    0.08138    1.000
    O609     O        0.50932    0.45411    0.08927    1.000
    O610     O        0.60658    0.30679    0.25626    1.000
    O611     O        0.64998    0.32272    0.35548    1.000
    O612     O        0.46691    0.56469    0.12457    1.000
    O613     O        0.68421    0.33049    0.28973    1.000
    O614     O        0.68590    0.26832    0.23377    1.000
    O615     O        0.50066    0.67982    0.10589    1.000
    O616     O        0.55816    0.48132    0.21071    1.000
    O617     O        0.70177    0.41413    0.27467    1.000
    O618     O        0.65624    0.19351    0.26561    1.000
    O619     O        0.57754    0.47433    0.14101    1.000
    O620     O        0.50431    0.49587    0.15991    1.000
    O621     O        0.63782    0.38381    0.24208    1.000
    O622     O        0.43704    0.71324    0.07547    1.000
    O623     O        0.63930    0.45882    0.26336    1.000
    O624     O        0.56374    0.54627    0.17202    1.000
    O625     O        0.63510    0.40298    0.31307    1.000
    Mo145    Mo       0.62816    0.25038    0.24913    1.000
    Mo146    Mo       0.65711    0.32329    0.22935    1.000
    Mo147    Mo       0.57437    0.46980    0.08095    1.000
    Mo148    Mo       0.44356    0.57296    0.07316    1.000
    Mo149    Mo       0.74492    0.36624    0.27578    1.000
    Mo150    Mo       0.47411    0.50728    0.10758    1.000
    P101     P        0.05084    0.99848    0.67064    1.000
    P102     P        0.17618    0.80139    0.82500    1.000
    P103     P        0.96685    0.17355    0.57578    1.000
    P104     P        0.15376    0.91536    0.77232    1.000
    O626     O        0.22003    0.78975    0.84217    1.000
    O627     O        0.21739    0.84985    0.72290    1.000
    O628     O        0.15634    0.76048    0.80922    1.000
    O629     O        0.98302    0.17071    0.53414    1.000
    O630     O        0.96566    0.01906    0.55215    1.000
    O631     O        0.05809    0.98285    0.52728    1.000
    O632     O        0.93896    0.13544    0.58547    1.000
    O633     O        0.12432    0.00384    0.58138    1.000
    O634     O        0.00932    0.95411    0.58927    1.000
    O635     O        0.10658    0.80679    0.75626    1.000
    O636     O        0.14998    0.82272    0.85548    1.000
    O637     O        0.96691    0.06469    0.62457    1.000
    O638     O        0.18421    0.83049    0.78973    1.000
    O639     O        0.18590    0.76832    0.73377    1.000
    O640     O        0.00066    0.17982    0.60589    1.000
    O641     O        0.05816    0.98132    0.71071    1.000
    O642     O        0.20177    0.91413    0.77467    1.000
    O643     O        0.15624    0.69351    0.76561    1.000
    O644     O        0.07754    0.97433    0.64101    1.000
    O645     O        0.00431    0.99587    0.65991    1.000
    O646     O        0.13782    0.88381    0.74208    1.000
    O647     O        0.93704    0.21324    0.57547    1.000
    O648     O        0.13930    0.95882    0.76336    1.000
    O649     O        0.06374    0.04627    0.67202    1.000
    O650     O        0.13510    0.90298    0.81307    1.000
    Mo151    Mo       0.12816    0.75038    0.74913    1.000
    Mo152    Mo       0.15711    0.82329    0.72935    1.000
    Mo153    Mo       0.07437    0.96980    0.58095    1.000
    Mo154    Mo       0.94356    0.07296    0.57316    1.000
    Mo155    Mo       0.24492    0.86624    0.77578    1.000
    Mo156    Mo       0.97411    0.00728    0.60758    1.000
    P105     P        0.94916    0.50152    0.67064    1.000
    P106     P        0.82382    0.69861    0.82500    1.000
    P107     P        0.03315    0.32645    0.57578    1.000
    P108     P        0.84624    0.58464    0.77232    1.000
    O651     O        0.77997    0.71025    0.84217    1.000
    O652     O        0.78261    0.65015    0.72290    1.000
    O653     O        0.84366    0.73952    0.80922    1.000
    O654     O        0.01698    0.32929    0.53414    1.000
    O655     O        0.03434    0.48094    0.55215    1.000
    O656     O        0.94191    0.51715    0.52728    1.000
    O657     O        0.06104    0.36456    0.58547    1.000
    O658     O        0.87568    0.49616    0.58138    1.000
    O659     O        0.99068    0.54589    0.58927    1.000
    O660     O        0.89342    0.69321    0.75626    1.000
    O661     O        0.85002    0.67728    0.85548    1.000
    O662     O        0.03309    0.43531    0.62457    1.000
    O663     O        0.81579    0.66951    0.78973    1.000
    O664     O        0.81410    0.73168    0.73377    1.000
    O665     O        0.99934    0.32018    0.60589    1.000
    O666     O        0.94184    0.51868    0.71071    1.000
    O667     O        0.79823    0.58587    0.77467    1.000
    O668     O        0.84376    0.80649    0.76561    1.000
    O669     O        0.92246    0.52567    0.64101    1.000
    O670     O        0.99569    0.50413    0.65991    1.000
    O671     O        0.86218    0.61619    0.74208    1.000
    O672     O        0.06296    0.28676    0.57547    1.000
    O673     O        0.86070    0.54118    0.76336    1.000
    O674     O        0.93626    0.45373    0.67202    1.000
    O675     O        0.86490    0.59702    0.81307    1.000
    Mo157    Mo       0.87184    0.74962    0.74913    1.000
    Mo158    Mo       0.84289    0.67671    0.72935    1.000
    Mo159    Mo       0.92563    0.53020    0.58095    1.000
    Mo160    Mo       0.05644    0.42704    0.57316    1.000
    Mo161    Mo       0.75508    0.63376    0.77578    1.000
    Mo162    Mo       0.02589    0.49272    0.60758    1.000
    P109     P        0.44916    0.00152    0.17064    1.000
    P110     P        0.32382    0.19861    0.32500    1.000
    P111     P        0.53315    0.82645    0.07578    1.000
    P112     P        0.34624    0.08464    0.27232    1.000
    O676     O        0.27997    0.21025    0.34217    1.000
    O677     O        0.28261    0.15015    0.22290    1.000
    O678     O        0.34366    0.23952    0.30922    1.000
    O679     O        0.51698    0.82929    0.03414    1.000
    O680     O        0.53434    0.98094    0.05215    1.000
    O681     O        0.44191    0.01715    0.02728    1.000
    O682     O        0.56104    0.86456    0.08547    1.000
    O683     O        0.37568    0.99616    0.08138    1.000
    O684     O        0.49068    0.04589    0.08927    1.000
    O685     O        0.39342    0.19321    0.25626    1.000
    O686     O        0.35002    0.17728    0.35548    1.000
    O687     O        0.53309    0.93531    0.12457    1.000
    O688     O        0.31579    0.16951    0.28973    1.000
    O689     O        0.31410    0.23168    0.23377    1.000
    O690     O        0.49934    0.82018    0.10589    1.000
    O691     O        0.44184    0.01868    0.21071    1.000
    O692     O        0.29823    0.08587    0.27467    1.000
    O693     O        0.34376    0.30649    0.26561    1.000
    O694     O        0.42246    0.02567    0.14101    1.000
    O695     O        0.49569    0.00413    0.15991    1.000
    O696     O        0.36218    0.11619    0.24208    1.000
    O697     O        0.56296    0.78676    0.07547    1.000
    O698     O        0.36070    0.04118    0.26336    1.000
    O699     O        0.43626    0.95373    0.17202    1.000
    O700     O        0.36490    0.09702    0.31307    1.000
    Mo163    Mo       0.37184    0.24962    0.24913    1.000
    Mo164    Mo       0.34289    0.17671    0.22935    1.000
    Mo165    Mo       0.42563    0.03020    0.08095    1.000
    Mo166    Mo       0.55644    0.92704    0.07316    1.000
    Mo167    Mo       0.25508    0.13376    0.27578    1.000
    Mo168    Mo       0.52589    0.99272    0.10758    1.000
    P113     P        0.24848    0.19916    0.42064    1.000
    P114     P        0.05139    0.07382    0.57500    1.000
    P115     P        0.42355    0.28315    0.32578    1.000
    P116     P        0.16536    0.09624    0.52232    1.000
    O701     O        0.03975    0.02997    0.59217    1.000
    O702     O        0.09985    0.03261    0.47290    1.000
    O703     O        0.01048    0.09366    0.55922    1.000
    O704     O        0.42071    0.26698    0.28414    1.000
    O705     O        0.26906    0.28434    0.30215    1.000
    O706     O        0.23285    0.19191    0.27728    1.000
    O707     O        0.38544    0.31104    0.33547    1.000
    O708     O        0.25384    0.12568    0.33138    1.000
    O709     O        0.20411    0.24068    0.33927    1.000
    O710     O        0.05679    0.14342    0.50626    1.000
    O711     O        0.07272    0.10002    0.60548    1.000
    O712     O        0.31469    0.28309    0.37457    1.000
    O713     O        0.08049    0.06579    0.53973    1.000
    O714     O        0.01832    0.06410    0.48377    1.000
    O715     O        0.42982    0.24934    0.35589    1.000
    O716     O        0.23132    0.19184    0.46071    1.000
    O717     O        0.16413    0.04823    0.52467    1.000
    O718     O        0.94351    0.09376    0.51561    1.000
    O719     O        0.22433    0.17246    0.39101    1.000
    O720     O        0.24587    0.24569    0.40991    1.000
    O721     O        0.13381    0.11218    0.49208    1.000
    O722     O        0.46324    0.31296    0.32547    1.000
    O723     O        0.20882    0.11070    0.51336    1.000
    O724     O        0.29627    0.18626    0.42202    1.000
    O725     O        0.15298    0.11490    0.56307    1.000
    Mo169    Mo       0.00038    0.12184    0.49913    1.000
    Mo170    Mo       0.07329    0.09289    0.47935    1.000
    Mo171    Mo       0.21980    0.17563    0.33095    1.000
    Mo172    Mo       0.32296    0.30644    0.32316    1.000
    Mo173    Mo       0.11624    0.00508    0.52578    1.000
    Mo174    Mo       0.25728    0.27589    0.35758    1.000
    P117     P        0.74848    0.69916    0.92064    1.000
    P118     P        0.55139    0.57382    0.07500    1.000
    P119     P        0.92355    0.78315    0.82578    1.000
    P120     P        0.66536    0.59624    0.02232    1.000
    O726     O        0.53975    0.52997    0.09217    1.000
    O727     O        0.59985    0.53261    0.97290    1.000
    O728     O        0.51048    0.59366    0.05922    1.000
    O729     O        0.92071    0.76698    0.78414    1.000
    O730     O        0.76906    0.78434    0.80215    1.000
    O731     O        0.73285    0.69191    0.77728    1.000
    O732     O        0.88544    0.81104    0.83547    1.000
    O733     O        0.75384    0.62568    0.83138    1.000
    O734     O        0.70411    0.74068    0.83927    1.000
    O735     O        0.55679    0.64342    0.00626    1.000
    O736     O        0.57272    0.60002    0.10548    1.000
    O737     O        0.81469    0.78309    0.87457    1.000
    O738     O        0.58049    0.56579    0.03973    1.000
    O739     O        0.51832    0.56410    0.98377    1.000
    O740     O        0.92982    0.74934    0.85589    1.000
    O741     O        0.73132    0.69184    0.96071    1.000
    O742     O        0.66413    0.54823    0.02467    1.000
    O743     O        0.44351    0.59376    0.01561    1.000
    O744     O        0.72433    0.67246    0.89101    1.000
    O745     O        0.74587    0.74569    0.90991    1.000
    O746     O        0.63381    0.61218    0.99208    1.000
    O747     O        0.96324    0.81296    0.82547    1.000
    O748     O        0.70882    0.61070    0.01336    1.000
    O749     O        0.79627    0.68626    0.92202    1.000
    O750     O        0.65298    0.61490    0.06307    1.000
    Mo175    Mo       0.50038    0.62184    0.99913    1.000
    Mo176    Mo       0.57329    0.59289    0.97935    1.000
    Mo177    Mo       0.71980    0.67563    0.83095    1.000
    Mo178    Mo       0.82296    0.80644    0.82316    1.000
    Mo179    Mo       0.61624    0.50508    0.02578    1.000
    Mo180    Mo       0.75728    0.77589    0.85758    1.000
    P121     P        0.25152    0.80084    0.92064    1.000
    P122     P        0.44861    0.92618    0.07500    1.000
    P123     P        0.07645    0.71685    0.82578    1.000
    P124     P        0.33464    0.90376    0.02232    1.000
    O751     O        0.46025    0.97003    0.09217    1.000
    O752     O        0.40015    0.96739    0.97290    1.000
    O753     O        0.48952    0.90634    0.05922    1.000
    O754     O        0.07929    0.73302    0.78414    1.000
    O755     O        0.23094    0.71566    0.80215    1.000
    O756     O        0.26715    0.80809    0.77728    1.000
    O757     O        0.11456    0.68896    0.83547    1.000
    O758     O        0.24616    0.87432    0.83138    1.000
    O759     O        0.29589    0.75932    0.83927    1.000
    O760     O        0.44321    0.85658    0.00626    1.000
    O761     O        0.42728    0.89998    0.10548    1.000
    O762     O        0.18531    0.71691    0.87457    1.000
    O763     O        0.41951    0.93421    0.03973    1.000
    O764     O        0.48168    0.93590    0.98377    1.000
    O765     O        0.07018    0.75066    0.85589    1.000
    O766     O        0.26868    0.80816    0.96071    1.000
    O767     O        0.33587    0.95177    0.02467    1.000
    O768     O        0.55649    0.90624    0.01561    1.000
    O769     O        0.27567    0.82754    0.89101    1.000
    O770     O        0.25413    0.75431    0.90991    1.000
    O771     O        0.36619    0.88782    0.99208    1.000
    O772     O        0.03676    0.68704    0.82547    1.000
    O773     O        0.29118    0.88930    0.01336    1.000
    O774     O        0.20373    0.81374    0.92202    1.000
    O775     O        0.34702    0.88510    0.06307    1.000
    Mo181    Mo       0.49962    0.87816    0.99913    1.000
    Mo182    Mo       0.42671    0.90711    0.97935    1.000
    Mo183    Mo       0.28020    0.82437    0.83095    1.000
    Mo184    Mo       0.17704    0.69356    0.82316    1.000
    Mo185    Mo       0.38376    0.99492    0.02578    1.000
    Mo186    Mo       0.24272    0.72411    0.85758    1.000
    P125     P        0.75152    0.30084    0.42064    1.000
    P126     P        0.94861    0.42618    0.57500    1.000
    P127     P        0.57645    0.21685    0.32578    1.000
    P128     P        0.83464    0.40376    0.52232    1.000
    O776     O        0.96025    0.47003    0.59217    1.000
    O777     O        0.90015    0.46739    0.47290    1.000
    O778     O        0.98952    0.40634    0.55922    1.000
    O779     O        0.57929    0.23302    0.28414    1.000
    O780     O        0.73094    0.21566    0.30215    1.000
    O781     O        0.76715    0.30809    0.27728    1.000
    O782     O        0.61456    0.18896    0.33547    1.000
    O783     O        0.74616    0.37432    0.33138    1.000
    O784     O        0.79589    0.25932    0.33927    1.000
    O785     O        0.94321    0.35658    0.50626    1.000
    O786     O        0.92728    0.39998    0.60548    1.000
    O787     O        0.68531    0.21691    0.37457    1.000
    O788     O        0.91951    0.43421    0.53973    1.000
    O789     O        0.98168    0.43590    0.48377    1.000
    O790     O        0.57018    0.25066    0.35589    1.000
    O791     O        0.76868    0.30816    0.46071    1.000
    O792     O        0.83587    0.45177    0.52467    1.000
    O793     O        0.05649    0.40624    0.51561    1.000
    O794     O        0.77567    0.32754    0.39101    1.000
    O795     O        0.75413    0.25431    0.40991    1.000
    O796     O        0.86619    0.38782    0.49208    1.000
    O797     O        0.53676    0.18704    0.32547    1.000
    O798     O        0.79118    0.38930    0.51336    1.000
    O799     O        0.70373    0.31374    0.42202    1.000
    O800     O        0.84702    0.38510    0.56307    1.000
    Mo187    Mo       0.99962    0.37816    0.49913    1.000
    Mo188    Mo       0.92671    0.40711    0.47935    1.000
    Mo189    Mo       0.78020    0.32437    0.33095    1.000
    Mo190    Mo       0.67704    0.19356    0.32316    1.000
    Mo191    Mo       0.88376    0.49492    0.52578    1.000
    Mo192    Mo       0.74272    0.22411    0.35758    1.000
    Zn1      Zn       0.09790    0.50000    0.25000    1.000
    Zn2      Zn       0.59790    0.00000    0.75000    1.000
    Zn3      Zn       0.40210    0.50000    0.75000    1.000
    Zn4      Zn       0.90210    0.00000    0.25000    1.000
    Zn5      Zn       0.75000    0.84790    0.50000    1.000
    Zn6      Zn       0.25000    0.34790    0.00000    1.000
    Zn7      Zn       0.75000    0.15210    0.00000    1.000
    Zn8      Zn       0.25000    0.65210    0.50000    1.000
    Zn9      Zn       0.90210    0.50000    0.75000    1.000
    Zn10     Zn       0.40210    0.00000    0.25000    1.000
    Zn11     Zn       0.59790    0.50000    0.25000    1.000
    Zn12     Zn       0.09790    0.00000    0.75000    1.000
    Zn13     Zn       0.25000    0.15210    0.50000    1.000
    Zn14     Zn       0.75000    0.65210    0.00000    1.000
    Zn15     Zn       0.25000    0.84790    0.00000    1.000
    Zn16     Zn       0.75000    0.34790    0.50000    1.000
    Zn17     Zn       0.25000    0.75000    0.25000    1.000
    Zn18     Zn       0.25000    0.25000    0.75000    1.000
    Zn19     Zn       0.50000    0.00000    0.50000    1.000
    Zn20     Zn       0.00000    0.50000    0.00000    1.000
    Zn21     Zn       0.00000    0.00000    0.00000    1.000
    Zn22     Zn       0.50000    0.50000    0.50000    1.000
    Zn23     Zn       0.25000    0.75000    0.75000    1.000
    Zn24     Zn       0.25000    0.25000    0.25000    1.000
    Zn25     Zn       0.00000    0.00000    0.50000    1.000
    Zn26     Zn       0.50000    0.50000    0.00000    1.000
    Zn27     Zn       0.50000    0.00000    0.00000    1.000
    Zn28     Zn       0.00000    0.50000    0.50000    1.000
    Zn29     Zn       0.75000    0.25000    0.75000    1.000
    Zn30     Zn       0.75000    0.75000    0.25000    1.000
    Zn31     Zn       0.75000    0.25000    0.25000    1.000
    Zn32     Zn       0.75000    0.75000    0.75000    1.000
