# CIF file generated by openbabel 3.1.0, see https://openbabel.org
data_I
_chemical_name_common 'image0'
_cell_length_a 18.1391
_cell_length_b 18.1391
_cell_length_c 48.6861
_cell_angle_alpha 90
_cell_angle_beta 90
_cell_angle_gamma 120
_space_group_name_H-M_alt 'P 1'
_space_group_name_Hall 'P 1'
loop_
    _symmetry_equiv_pos_as_xyz
    x,y,z
loop_
    _atom_site_label
    _atom_site_type_symbol
    _atom_site_fract_x
    _atom_site_fract_y
    _atom_site_fract_z
    _atom_site_occupancy
    Cu1      Cu       0.50730    0.44510    0.52000    1.000
    C1       C        0.62360    0.54730    0.47370    1.000
    O1       O        0.60650    0.51240    0.49770    1.000
    O2       O        0.56790    0.55900    0.46100    1.000
    C2       C        0.79980    0.63770    0.42230    1.000
    C3       C        0.86020    0.62300    0.43490    1.000
    H1       H        0.91080    0.63900    0.42610    1.000
    C4       C        0.84420    0.58600    0.46070    1.000
    C5       C        0.76780    0.56200    0.47390    1.000
    H2       H        0.75720    0.53800    0.49100    1.000
    C6       C        0.70740    0.57690    0.46136    1.000
    C7       C        0.72340    0.61450    0.43550    1.000
    H3       H        0.68340    0.62400    0.42720    1.000
    C8       C        0.89700    0.55730    0.47690    1.000
    O3       O        0.87540    0.53100    0.50180    1.000
    O4       O        0.97120    0.57600    0.46780    1.000
    N1       N        0.84020    0.67960    0.39710    1.000
    C9       C        0.79500    0.69600    0.37930    1.000
    O5       O        0.71900    0.67000    0.38210    1.000
    H4       H        0.89330    0.69900    0.39260    1.000
    C10      C        0.83250    0.72910    0.35065    1.000
    C11      C        0.78240    0.73510    0.33010    1.000
    C12      C        0.81670    0.76500    0.30430    1.000
    C13      C        0.90100    0.78900    0.29890    1.000
    C14      C        0.95110    0.78310    0.31940    1.000
    C15      C        0.91690    0.75320    0.34530    1.000
    H5       H        0.72660    0.71900    0.33370    1.000
    H6       H        0.78400    0.76900    0.29070    1.000
    H7       H        0.00690    0.79900    0.31580    1.000
    H8       H        0.95000    0.74900    0.35880    1.000
    C16      C        0.93680    0.82030    0.27185    1.000
    C17      C        0.89930    0.77580    0.24630    1.000
    N2       N        0.93360    0.80310    0.22150    1.000
    C18      C        0.01070    0.87920    0.21840    1.000
    N3       N        0.05080    0.92580    0.24200    1.000
    C19      C        0.01650    0.89850    0.26680    1.000
    H9       H        0.04370    0.92980    0.28220    1.000
    H10      H        0.03400    0.89720    0.20110    1.000
    H11      H        0.84850    0.72520    0.24650    1.000
    C20      C        0.78080    0.69940    0.32750    1.000
    C21      C        0.81510    0.72900    0.30160    1.000
    C22      C        0.95270    0.81870    0.32200    1.000
    C23      C        0.91850    0.78880    0.34790    1.000
    H12      H        0.72400    0.66000    0.32940    1.000
    H13      H        0.78100    0.71000    0.28630    1.000
    H14      H        0.00960    0.85800    0.32020    1.000
    H15      H        0.95270    0.80800    0.36320    1.000
    Cu2      Cu       0.17397    0.77843    0.85333    1.000
    C24      C        0.29027    0.88063    0.80703    1.000
    O6       O        0.27317    0.84573    0.83103    1.000
    O7       O        0.23457    0.89233    0.79433    1.000
    C25      C        0.46647    0.97103    0.75563    1.000
    C26      C        0.52687    0.95633    0.76823    1.000
    H16      H        0.57747    0.97233    0.75943    1.000
    C27      C        0.51087    0.91933    0.79403    1.000
    C28      C        0.43447    0.89533    0.80723    1.000
    H17      H        0.42387    0.87133    0.82433    1.000
    C29      C        0.37407    0.91023    0.79469    1.000
    C30      C        0.39007    0.94783    0.76883    1.000
    H18      H        0.35007    0.95733    0.76053    1.000
    C31      C        0.56367    0.89063    0.81023    1.000
    O8       O        0.54207    0.86433    0.83513    1.000
    O9       O        0.63787    0.90933    0.80113    1.000
    N4       N        0.50687    0.01293    0.73043    1.000
    C32      C        0.46167    0.02933    0.71263    1.000
    O10      O        0.38567    0.00333    0.71543    1.000
    H19      H        0.55997    0.03233    0.72593    1.000
    C33      C        0.49917    0.06243    0.68398    1.000
    C34      C        0.44907    0.06843    0.66343    1.000
    C35      C        0.48337    0.09833    0.63763    1.000
    C36      C        0.56767    0.12233    0.63223    1.000
    C37      C        0.61777    0.11643    0.65273    1.000
    C38      C        0.58357    0.08653    0.67863    1.000
    H20      H        0.39327    0.05233    0.66703    1.000
    H21      H        0.45067    0.10233    0.62403    1.000
    H22      H        0.67357    0.13233    0.64913    1.000
    H23      H        0.61667    0.08233    0.69213    1.000
    C39      C        0.60347    0.15363    0.60518    1.000
    C40      C        0.56597    0.10913    0.57963    1.000
    N5       N        0.60027    0.13643    0.55483    1.000
    C41      C        0.67737    0.21253    0.55173    1.000
    N6       N        0.71747    0.25913    0.57533    1.000
    C42      C        0.68317    0.23183    0.60013    1.000
    H24      H        0.71037    0.26313    0.61553    1.000
    H25      H        0.70067    0.23053    0.53443    1.000
    H26      H        0.51517    0.05853    0.57983    1.000
    C43      C        0.44747    0.03273    0.66083    1.000
    C44      C        0.48177    0.06233    0.63493    1.000
    C45      C        0.61937    0.15203    0.65533    1.000
    C46      C        0.58517    0.12213    0.68123    1.000
    H27      H        0.39067    0.99333    0.66273    1.000
    H28      H        0.44767    0.04333    0.61963    1.000
    H29      H        0.67627    0.19133    0.65353    1.000
    H30      H        0.61937    0.14133    0.69653    1.000
    Cu3      Cu       0.84063    0.11177    0.18667    1.000
    C47      C        0.95693    0.21397    0.14037    1.000
    O11      O        0.93983    0.17907    0.16437    1.000
    O12      O        0.90123    0.22567    0.12767    1.000
    C48      C        0.13313    0.30437    0.08897    1.000
    C49      C        0.19353    0.28967    0.10157    1.000
    H31      H        0.24413    0.30567    0.09277    1.000
    C50      C        0.17753    0.25267    0.12737    1.000
    C51      C        0.10113    0.22867    0.14057    1.000
    H32      H        0.09053    0.20467    0.15767    1.000
    C52      C        0.04073    0.24357    0.12803    1.000
    C53      C        0.05673    0.28117    0.10217    1.000
    H33      H        0.01673    0.29067    0.09387    1.000
    C54      C        0.23033    0.22397    0.14357    1.000
    O13      O        0.20873    0.19767    0.16847    1.000
    O14      O        0.30453    0.24267    0.13447    1.000
    N7       N        0.17353    0.34627    0.06377    1.000
    C55      C        0.12833    0.36267    0.04597    1.000
    O15      O        0.05233    0.33667    0.04877    1.000
    H34      H        0.22663    0.36567    0.05927    1.000
    C56      C        0.16583    0.39577    0.01732    1.000
    C57      C        0.11573    0.40177    0.99677    1.000
    C58      C        0.15003    0.43167    0.97097    1.000
    C59      C        0.23433    0.45567    0.96557    1.000
    C60      C        0.28443    0.44977    0.98607    1.000
    C61      C        0.25023    0.41987    0.01197    1.000
    H35      H        0.05993    0.38567    0.00037    1.000
    H36      H        0.11733    0.43567    0.95737    1.000
    H37      H        0.34023    0.46567    0.98247    1.000
    H38      H        0.28333    0.41567    0.02547    1.000
    C62      C        0.27013    0.48697    0.93852    1.000
    C63      C        0.23263    0.44247    0.91297    1.000
    N8       N        0.26693    0.46977    0.88817    1.000
    C64      C        0.34403    0.54587    0.88507    1.000
    N9       N        0.38413    0.59247    0.90867    1.000
    C65      C        0.34983    0.56517    0.93347    1.000
    H39      H        0.37703    0.59647    0.94887    1.000
    H40      H        0.36733    0.56387    0.86777    1.000
    H41      H        0.18183    0.39187    0.91317    1.000
    C66      C        0.11413    0.36607    0.99417    1.000
    C67      C        0.14843    0.39567    0.96827    1.000
    C68      C        0.28603    0.48537    0.98867    1.000
    C69      C        0.25183    0.45547    0.01457    1.000
    H42      H        0.05733    0.32667    0.99607    1.000
    H43      H        0.11433    0.37667    0.95297    1.000
    H44      H        0.34293    0.52467    0.98687    1.000
    H45      H        0.28603    0.47467    0.02987    1.000
    Cu4      Cu       0.55490    0.06220    0.52000    1.000
    C70      C        0.45270    0.07630    0.47370    1.000
    O16      O        0.48760    0.09410    0.49770    1.000
    O17      O        0.44100    0.00890    0.46100    1.000
    C71      C        0.36230    0.16210    0.42230    1.000
    C72      C        0.37700    0.23720    0.43490    1.000
    H46      H        0.36100    0.27180    0.42610    1.000
    C73      C        0.41400    0.25820    0.46070    1.000
    C74      C        0.43800    0.20580    0.47390    1.000
    H47      H        0.46200    0.21920    0.49100    1.000
    C75      C        0.42310    0.13050    0.46136    1.000
    C76      C        0.38550    0.10890    0.43550    1.000
    H48      H        0.37600    0.05940    0.42720    1.000
    C77      C        0.44270    0.33970    0.47690    1.000
    O18      O        0.46900    0.34440    0.50180    1.000
    O19      O        0.42400    0.39520    0.46780    1.000
    N10      N        0.32040    0.16060    0.39710    1.000
    C78      C        0.30400    0.09900    0.37930    1.000
    O20      O        0.33000    0.04900    0.38210    1.000
    H49      H        0.30100    0.19430    0.39260    1.000
    C79      C        0.27090    0.10340    0.35065    1.000
    C80      C        0.26490    0.04730    0.33010    1.000
    C81      C        0.23500    0.05170    0.30430    1.000
    C82      C        0.21100    0.11200    0.29890    1.000
    C83      C        0.21690    0.16800    0.31940    1.000
    C84      C        0.24680    0.16370    0.34530    1.000
    H50      H        0.28100    0.00760    0.33370    1.000
    H51      H        0.23100    0.01500    0.29070    1.000
    H52      H        0.20100    0.20790    0.31580    1.000
    H53      H        0.25100    0.20100    0.35880    1.000
    C85      C        0.17970    0.11650    0.27185    1.000
    C86      C        0.22420    0.12350    0.24630    1.000
    N11      N        0.19690    0.13050    0.22150    1.000
    C87      C        0.12080    0.13150    0.21840    1.000
    N12      N        0.07420    0.12500    0.24200    1.000
    C88      C        0.10150    0.11800    0.26680    1.000
    H54      H        0.07020    0.11390    0.28220    1.000
    H55      H        0.10280    0.13680    0.20110    1.000
    H56      H        0.27480    0.12330    0.24650    1.000
    C89      C        0.30060    0.08140    0.32750    1.000
    C90      C        0.27100    0.08610    0.30160    1.000
    C91      C        0.18130    0.13400    0.32200    1.000
    C92      C        0.21120    0.12970    0.34790    1.000
    H57      H        0.34000    0.06400    0.32940    1.000
    H58      H        0.29000    0.07100    0.28630    1.000
    H59      H        0.14200    0.15160    0.32020    1.000
    H60      H        0.19200    0.14470    0.36320    1.000
    Cu5      Cu       0.22157    0.39553    0.85333    1.000
    C93      C        0.11937    0.40963    0.80703    1.000
    O21      O        0.15427    0.42743    0.83103    1.000
    O22      O        0.10767    0.34223    0.79433    1.000
    C94      C        0.02897    0.49543    0.75563    1.000
    C95      C        0.04367    0.57053    0.76823    1.000
    H61      H        0.02767    0.60513    0.75943    1.000
    C96      C        0.08067    0.59153    0.79403    1.000
    C97      C        0.10467    0.53913    0.80723    1.000
    H62      H        0.12867    0.55253    0.82433    1.000
    C98      C        0.08977    0.46383    0.79469    1.000
    C99      C        0.05217    0.44223    0.76883    1.000
    H63      H        0.04267    0.39273    0.76053    1.000
    C100     C        0.10937    0.67303    0.81023    1.000
    O23      O        0.13567    0.67773    0.83513    1.000
    O24      O        0.09067    0.72853    0.80113    1.000
    N13      N        0.98707    0.49393    0.73043    1.000
    C101     C        0.97067    0.43233    0.71263    1.000
    O25      O        0.99667    0.38233    0.71543    1.000
    H64      H        0.96767    0.52763    0.72593    1.000
    C102     C        0.93757    0.43673    0.68398    1.000
    C103     C        0.93157    0.38063    0.66343    1.000
    C104     C        0.90167    0.38503    0.63763    1.000
    C105     C        0.87767    0.44533    0.63223    1.000
    C106     C        0.88357    0.50133    0.65273    1.000
    C107     C        0.91347    0.49703    0.67863    1.000
    H65      H        0.94767    0.34093    0.66703    1.000
    H66      H        0.89767    0.34833    0.62403    1.000
    H67      H        0.86767    0.54123    0.64913    1.000
    H68      H        0.91767    0.53433    0.69213    1.000
    C108     C        0.84637    0.44983    0.60518    1.000
    C109     C        0.89087    0.45683    0.57963    1.000
    N14      N        0.86357    0.46383    0.55483    1.000
    C110     C        0.78747    0.46483    0.55173    1.000
    N15      N        0.74087    0.45833    0.57533    1.000
    C111     C        0.76817    0.45133    0.60013    1.000
    H69      H        0.73687    0.44723    0.61553    1.000
    H70      H        0.76947    0.47013    0.53443    1.000
    H71      H        0.94147    0.45663    0.57983    1.000
    C112     C        0.96727    0.41473    0.66083    1.000
    C113     C        0.93767    0.41943    0.63493    1.000
    C114     C        0.84797    0.46733    0.65533    1.000
    C115     C        0.87787    0.46303    0.68123    1.000
    H72      H        0.00667    0.39733    0.66273    1.000
    H73      H        0.95667    0.40433    0.61963    1.000
    H74      H        0.80867    0.48493    0.65353    1.000
    H75      H        0.85867    0.47803    0.69653    1.000
    Cu6      Cu       0.88823    0.72887    0.18667    1.000
    C116     C        0.78603    0.74297    0.14037    1.000
    O26      O        0.82093    0.76077    0.16437    1.000
    O27      O        0.77433    0.67557    0.12767    1.000
    C117     C        0.69563    0.82877    0.08897    1.000
    C118     C        0.71033    0.90387    0.10157    1.000
    H76      H        0.69433    0.93847    0.09277    1.000
    C119     C        0.74733    0.92487    0.12737    1.000
    C120     C        0.77133    0.87247    0.14057    1.000
    H77      H        0.79533    0.88587    0.15767    1.000
    C121     C        0.75643    0.79717    0.12803    1.000
    C122     C        0.71883    0.77557    0.10217    1.000
    H78      H        0.70933    0.72607    0.09387    1.000
    C123     C        0.77603    0.00637    0.14357    1.000
    O28      O        0.80233    0.01107    0.16847    1.000
    O29      O        0.75733    0.06187    0.13447    1.000
    N16      N        0.65373    0.82727    0.06377    1.000
    C124     C        0.63733    0.76567    0.04597    1.000
    O30      O        0.66333    0.71567    0.04877    1.000
    H79      H        0.63433    0.86097    0.05927    1.000
    C125     C        0.60423    0.77007    0.01732    1.000
    C126     C        0.59823    0.71397    0.99677    1.000
    C127     C        0.56833    0.71837    0.97097    1.000
    C128     C        0.54433    0.77867    0.96557    1.000
    C129     C        0.55023    0.83467    0.98607    1.000
    C130     C        0.58013    0.83037    0.01197    1.000
    H80      H        0.61433    0.67427    0.00037    1.000
    H81      H        0.56433    0.68167    0.95737    1.000
    H82      H        0.53433    0.87457    0.98247    1.000
    H83      H        0.58433    0.86767    0.02547    1.000
    C131     C        0.51303    0.78317    0.93852    1.000
    C132     C        0.55753    0.79017    0.91297    1.000
    N17      N        0.53023    0.79717    0.88817    1.000
    C133     C        0.45413    0.79817    0.88507    1.000
    N18      N        0.40753    0.79167    0.90867    1.000
    C134     C        0.43483    0.78467    0.93347    1.000
    H84      H        0.40353    0.78057    0.94887    1.000
    H85      H        0.43613    0.80347    0.86777    1.000
    H86      H        0.60813    0.78997    0.91317    1.000
    C135     C        0.63393    0.74807    0.99417    1.000
    C136     C        0.60433    0.75277    0.96827    1.000
    C137     C        0.51463    0.80067    0.98867    1.000
    C138     C        0.54453    0.79637    0.01457    1.000
    H87      H        0.67333    0.73067    0.99607    1.000
    H88      H        0.62333    0.73767    0.95297    1.000
    H89      H        0.47533    0.81827    0.98687    1.000
    H90      H        0.52533    0.81137    0.02987    1.000
    Cu7      Cu       0.93780    0.49270    0.52000    1.000
    C139     C        0.92370    0.37640    0.47370    1.000
    O31      O        0.90590    0.39350    0.49770    1.000
    O32      O        0.99110    0.43210    0.46100    1.000
    C140     C        0.83790    0.20020    0.42230    1.000
    C141     C        0.76280    0.13980    0.43490    1.000
    H91      H        0.72820    0.08920    0.42610    1.000
    C142     C        0.74180    0.15580    0.46070    1.000
    C143     C        0.79420    0.23220    0.47390    1.000
    H92      H        0.78080    0.24280    0.49100    1.000
    C144     C        0.86950    0.29260    0.46136    1.000
    C145     C        0.89110    0.27660    0.43550    1.000
    H93      H        0.94060    0.31660    0.42720    1.000
    C146     C        0.66030    0.10300    0.47690    1.000
    O33      O        0.65560    0.12460    0.50180    1.000
    O34      O        0.60480    0.02880    0.46780    1.000
    N19      N        0.83940    0.15980    0.39710    1.000
    C147     C        0.90100    0.20500    0.37930    1.000
    O35      O        0.95100    0.28100    0.38210    1.000
    H94      H        0.80570    0.10670    0.39260    1.000
    C148     C        0.89660    0.16750    0.35065    1.000
    C149     C        0.95270    0.21760    0.33010    1.000
    C150     C        0.94830    0.18330    0.30430    1.000
    C151     C        0.88800    0.09900    0.29890    1.000
    C152     C        0.83200    0.04890    0.31940    1.000
    C153     C        0.83630    0.08310    0.34530    1.000
    H95      H        0.99240    0.27340    0.33370    1.000
    H96      H        0.98500    0.21600    0.29070    1.000
    H97      H        0.79210    0.99310    0.31580    1.000
    H98      H        0.79900    0.05000    0.35880    1.000
    C154     C        0.88350    0.06320    0.27185    1.000
    C155     C        0.87650    0.10070    0.24630    1.000
    N20      N        0.86950    0.06640    0.22150    1.000
    C156     C        0.86850    0.98930    0.21840    1.000
    N21      N        0.87500    0.94920    0.24200    1.000
    C157     C        0.88200    0.98350    0.26680    1.000
    H99      H        0.88610    0.95630    0.28220    1.000
    H100     H        0.86320    0.96600    0.20110    1.000
    H101     H        0.87670    0.15150    0.24650    1.000
    C158     C        0.91860    0.21920    0.32750    1.000
    C159     C        0.91390    0.18490    0.30160    1.000
    C160     C        0.86600    0.04730    0.32200    1.000
    C161     C        0.87030    0.08150    0.34790    1.000
    H102     H        0.93600    0.27600    0.32940    1.000
    H103     H        0.92900    0.21900    0.28630    1.000
    H104     H        0.84840    0.99040    0.32020    1.000
    H105     H        0.85530    0.04730    0.36320    1.000
    Cu8      Cu       0.60447    0.82603    0.85333    1.000
    C162     C        0.59037    0.70973    0.80703    1.000
    O36      O        0.57257    0.72683    0.83103    1.000
    O37      O        0.65777    0.76543    0.79433    1.000
    C163     C        0.50457    0.53353    0.75563    1.000
    C164     C        0.42947    0.47313    0.76823    1.000
    H106     H        0.39487    0.42253    0.75943    1.000
    C165     C        0.40847    0.48913    0.79403    1.000
    C166     C        0.46087    0.56553    0.80723    1.000
    H107     H        0.44747    0.57613    0.82433    1.000
    C167     C        0.53617    0.62593    0.79469    1.000
    C168     C        0.55777    0.60993    0.76883    1.000
    H108     H        0.60727    0.64993    0.76053    1.000
    C169     C        0.32697    0.43633    0.81023    1.000
    O38      O        0.32227    0.45793    0.83513    1.000
    O39      O        0.27147    0.36213    0.80113    1.000
    N22      N        0.50607    0.49313    0.73043    1.000
    C170     C        0.56767    0.53833    0.71263    1.000
    O40      O        0.61767    0.61433    0.71543    1.000
    H109     H        0.47237    0.44003    0.72593    1.000
    C171     C        0.56327    0.50083    0.68398    1.000
    C172     C        0.61937    0.55093    0.66343    1.000
    C173     C        0.61497    0.51663    0.63763    1.000
    C174     C        0.55467    0.43233    0.63223    1.000
    C175     C        0.49867    0.38223    0.65273    1.000
    C176     C        0.50297    0.41643    0.67863    1.000
    H110     H        0.65907    0.60673    0.66703    1.000
    H111     H        0.65167    0.54933    0.62403    1.000
    H112     H        0.45877    0.32643    0.64913    1.000
    H113     H        0.46567    0.38333    0.69213    1.000
    C177     C        0.55017    0.39653    0.60518    1.000
    C178     C        0.54317    0.43403    0.57963    1.000
    N23      N        0.53617    0.39973    0.55483    1.000
    C179     C        0.53517    0.32263    0.55173    1.000
    N24      N        0.54167    0.28253    0.57533    1.000
    C180     C        0.54867    0.31683    0.60013    1.000
    H114     H        0.55277    0.28963    0.61553    1.000
    H115     H        0.52987    0.29933    0.53443    1.000
    H116     H        0.54337    0.48483    0.57983    1.000
    C181     C        0.58527    0.55253    0.66083    1.000
    C182     C        0.58057    0.51823    0.63493    1.000
    C183     C        0.53267    0.38063    0.65533    1.000
    C184     C        0.53697    0.41483    0.68123    1.000
    H117     H        0.60267    0.60933    0.66273    1.000
    H118     H        0.59567    0.55233    0.61963    1.000
    H119     H        0.51507    0.32373    0.65353    1.000
    H120     H        0.52197    0.38063    0.69653    1.000
    Cu9      Cu       0.27113    0.15937    0.18667    1.000
    C185     C        0.25703    0.04307    0.14037    1.000
    O41      O        0.23923    0.06017    0.16437    1.000
    O42      O        0.32443    0.09877    0.12767    1.000
    C186     C        0.17123    0.86687    0.08897    1.000
    C187     C        0.09613    0.80647    0.10157    1.000
    H121     H        0.06153    0.75587    0.09277    1.000
    C188     C        0.07513    0.82247    0.12737    1.000
    C189     C        0.12753    0.89887    0.14057    1.000
    H122     H        0.11413    0.90947    0.15767    1.000
    C190     C        0.20283    0.95927    0.12803    1.000
    C191     C        0.22443    0.94327    0.10217    1.000
    H123     H        0.27393    0.98327    0.09387    1.000
    C192     C        0.99363    0.76967    0.14357    1.000
    O43      O        0.98893    0.79127    0.16847    1.000
    O44      O        0.93813    0.69547    0.13447    1.000
    N25      N        0.17273    0.82647    0.06377    1.000
    C193     C        0.23433    0.87167    0.04597    1.000
    O45      O        0.28433    0.94767    0.04877    1.000
    H124     H        0.13903    0.77337    0.05927    1.000
    C194     C        0.22993    0.83417    0.01732    1.000
    C195     C        0.28603    0.88427    0.99677    1.000
    C196     C        0.28163    0.84997    0.97097    1.000
    C197     C        0.22133    0.76567    0.96557    1.000
    C198     C        0.16533    0.71557    0.98607    1.000
    C199     C        0.16963    0.74977    0.01197    1.000
    H125     H        0.32573    0.94007    0.00037    1.000
    H126     H        0.31833    0.88267    0.95737    1.000
    H127     H        0.12543    0.65977    0.98247    1.000
    H128     H        0.13233    0.71667    0.02547    1.000
    C200     C        0.21683    0.72987    0.93852    1.000
    C201     C        0.20983    0.76737    0.91297    1.000
    N26      N        0.20283    0.73307    0.88817    1.000
    C202     C        0.20183    0.65597    0.88507    1.000
    N27      N        0.20833    0.61587    0.90867    1.000
    C203     C        0.21533    0.65017    0.93347    1.000
    H129     H        0.21943    0.62297    0.94887    1.000
    H130     H        0.19653    0.63267    0.86777    1.000
    H131     H        0.21003    0.81817    0.91317    1.000
    C204     C        0.25193    0.88587    0.99417    1.000
    C205     C        0.24723    0.85157    0.96827    1.000
    C206     C        0.19933    0.71397    0.98867    1.000
    C207     C        0.20363    0.74817    0.01457    1.000
    H132     H        0.26933    0.94267    0.99607    1.000
    H133     H        0.26233    0.88567    0.95297    1.000
    H134     H        0.18173    0.65707    0.98687    1.000
    H135     H        0.18863    0.71397    0.02987    1.000
    Cu10     Cu       0.44510    0.50730    0.48000    1.000
    C208     C        0.54730    0.62360    0.52630    1.000
    O46      O        0.51240    0.60650    0.50230    1.000
    O47      O        0.55900    0.56790    0.53900    1.000
    C209     C        0.63770    0.79980    0.57770    1.000
    C210     C        0.62300    0.86020    0.56510    1.000
    H136     H        0.63900    0.91080    0.57390    1.000
    C211     C        0.58600    0.84420    0.53930    1.000
    C212     C        0.56200    0.76780    0.52610    1.000
    H137     H        0.53800    0.75720    0.50900    1.000
    C213     C        0.57690    0.70740    0.53864    1.000
    C214     C        0.61450    0.72340    0.56450    1.000
    H138     H        0.62400    0.68340    0.57280    1.000
    C215     C        0.55730    0.89700    0.52310    1.000
    O48      O        0.53100    0.87540    0.49820    1.000
    O49      O        0.57600    0.97120    0.53220    1.000
    N28      N        0.67960    0.84020    0.60290    1.000
    C216     C        0.69600    0.79500    0.62070    1.000
    O50      O        0.67000    0.71900    0.61790    1.000
    H139     H        0.69900    0.89330    0.60740    1.000
    C217     C        0.72910    0.83250    0.64935    1.000
    C218     C        0.73510    0.78240    0.66990    1.000
    C219     C        0.76500    0.81670    0.69570    1.000
    C220     C        0.78900    0.90100    0.70110    1.000
    C221     C        0.78310    0.95110    0.68060    1.000
    C222     C        0.75320    0.91690    0.65470    1.000
    H140     H        0.71900    0.72660    0.66630    1.000
    H141     H        0.76900    0.78400    0.70930    1.000
    H142     H        0.79900    0.00690    0.68420    1.000
    H143     H        0.74900    0.95000    0.64120    1.000
    C223     C        0.82030    0.93680    0.72815    1.000
    C224     C        0.77580    0.89930    0.75370    1.000
    N29      N        0.80310    0.93360    0.77850    1.000
    C225     C        0.87920    0.01070    0.78160    1.000
    N30      N        0.92580    0.05080    0.75800    1.000
    C226     C        0.89850    0.01650    0.73320    1.000
    H144     H        0.92980    0.04370    0.71780    1.000
    H145     H        0.89720    0.03400    0.79890    1.000
    H146     H        0.72520    0.84850    0.75350    1.000
    C227     C        0.69940    0.78080    0.67250    1.000
    C228     C        0.72900    0.81510    0.69840    1.000
    C229     C        0.81870    0.95270    0.67800    1.000
    C230     C        0.78880    0.91850    0.65210    1.000
    H147     H        0.66000    0.72400    0.67060    1.000
    H148     H        0.71000    0.78100    0.71370    1.000
    H149     H        0.85800    0.00960    0.67980    1.000
    H150     H        0.80800    0.95270    0.63680    1.000
    Cu11     Cu       0.11177    0.84063    0.81333    1.000
    C231     C        0.21397    0.95693    0.85963    1.000
    O51      O        0.17907    0.93983    0.83563    1.000
    O52      O        0.22567    0.90123    0.87233    1.000
    C232     C        0.30437    0.13313    0.91103    1.000
    C233     C        0.28967    0.19353    0.89843    1.000
    H151     H        0.30567    0.24413    0.90723    1.000
    C234     C        0.25267    0.17753    0.87263    1.000
    C235     C        0.22867    0.10113    0.85943    1.000
    H152     H        0.20467    0.09053    0.84233    1.000
    C236     C        0.24357    0.04073    0.87197    1.000
    C237     C        0.28117    0.05673    0.89783    1.000
    H153     H        0.29067    0.01673    0.90613    1.000
    C238     C        0.22397    0.23033    0.85643    1.000
    O53      O        0.19767    0.20873    0.83153    1.000
    O54      O        0.24267    0.30453    0.86553    1.000
    N31      N        0.34627    0.17353    0.93623    1.000
    C239     C        0.36267    0.12833    0.95403    1.000
    O55      O        0.33667    0.05233    0.95123    1.000
    H154     H        0.36567    0.22663    0.94073    1.000
    C240     C        0.39577    0.16583    0.98268    1.000
    C241     C        0.40177    0.11573    0.00323    1.000
    C242     C        0.43167    0.15003    0.02903    1.000
    C243     C        0.45567    0.23433    0.03443    1.000
    C244     C        0.44977    0.28443    0.01393    1.000
    C245     C        0.41987    0.25023    0.98803    1.000
    H155     H        0.38567    0.05993    0.99963    1.000
    H156     H        0.43567    0.11733    0.04263    1.000
    H157     H        0.46567    0.34023    0.01753    1.000
    H158     H        0.41567    0.28333    0.97453    1.000
    C246     C        0.48697    0.27013    0.06148    1.000
    C247     C        0.44247    0.23263    0.08703    1.000
    N32      N        0.46977    0.26693    0.11183    1.000
    C248     C        0.54587    0.34403    0.11493    1.000
    N33      N        0.59247    0.38413    0.09133    1.000
    C249     C        0.56517    0.34983    0.06653    1.000
    H159     H        0.59647    0.37703    0.05113    1.000
    H160     H        0.56387    0.36733    0.13223    1.000
    H161     H        0.39187    0.18183    0.08683    1.000
    C250     C        0.36607    0.11413    0.00583    1.000
    C251     C        0.39567    0.14843    0.03173    1.000
    C252     C        0.48537    0.28603    0.01133    1.000
    C253     C        0.45547    0.25183    0.98543    1.000
    H162     H        0.32667    0.05733    0.00393    1.000
    H163     H        0.37667    0.11433    0.04703    1.000
    H164     H        0.52467    0.34293    0.01313    1.000
    H165     H        0.47467    0.28603    0.97013    1.000
    Cu12     Cu       0.77843    0.17397    0.14667    1.000
    C254     C        0.88063    0.29027    0.19297    1.000
    O56      O        0.84573    0.27317    0.16897    1.000
    O57      O        0.89233    0.23457    0.20567    1.000
    C255     C        0.97103    0.46647    0.24437    1.000
    C256     C        0.95633    0.52687    0.23177    1.000
    H166     H        0.97233    0.57747    0.24057    1.000
    C257     C        0.91933    0.51087    0.20597    1.000
    C258     C        0.89533    0.43447    0.19277    1.000
    H167     H        0.87133    0.42387    0.17567    1.000
    C259     C        0.91023    0.37407    0.20531    1.000
    C260     C        0.94783    0.39007    0.23117    1.000
    H168     H        0.95733    0.35007    0.23947    1.000
    C261     C        0.89063    0.56367    0.18977    1.000
    O58      O        0.86433    0.54207    0.16487    1.000
    O59      O        0.90933    0.63787    0.19887    1.000
    N34      N        0.01293    0.50687    0.26957    1.000
    C262     C        0.02933    0.46167    0.28737    1.000
    O60      O        0.00333    0.38567    0.28457    1.000
    H169     H        0.03233    0.55997    0.27407    1.000
    C263     C        0.06243    0.49917    0.31602    1.000
    C264     C        0.06843    0.44907    0.33657    1.000
    C265     C        0.09833    0.48337    0.36237    1.000
    C266     C        0.12233    0.56767    0.36777    1.000
    C267     C        0.11643    0.61777    0.34727    1.000
    C268     C        0.08653    0.58357    0.32137    1.000
    H170     H        0.05233    0.39327    0.33297    1.000
    H171     H        0.10233    0.45067    0.37597    1.000
    H172     H        0.13233    0.67357    0.35087    1.000
    H173     H        0.08233    0.61667    0.30787    1.000
    C269     C        0.15363    0.60347    0.39482    1.000
    C270     C        0.10913    0.56597    0.42037    1.000
    N35      N        0.13643    0.60027    0.44517    1.000
    C271     C        0.21253    0.67737    0.44827    1.000
    N36      N        0.25913    0.71747    0.42467    1.000
    C272     C        0.23183    0.68317    0.39987    1.000
    H174     H        0.26313    0.71037    0.38447    1.000
    H175     H        0.23053    0.70067    0.46557    1.000
    H176     H        0.05853    0.51517    0.42017    1.000
    C273     C        0.03273    0.44747    0.33917    1.000
    C274     C        0.06233    0.48177    0.36507    1.000
    C275     C        0.15203    0.61937    0.34467    1.000
    C276     C        0.12213    0.58517    0.31877    1.000
    H177     H        0.99333    0.39067    0.33727    1.000
    H178     H        0.04333    0.44767    0.38037    1.000
    H179     H        0.19133    0.67627    0.34647    1.000
    H180     H        0.14133    0.61937    0.30347    1.000
    Cu13     Cu       0.06220    0.55490    0.48000    1.000
    C277     C        0.07630    0.45270    0.52630    1.000
    O61      O        0.09410    0.48760    0.50230    1.000
    O62      O        0.00890    0.44100    0.53900    1.000
    C278     C        0.16210    0.36230    0.57770    1.000
    C279     C        0.23720    0.37700    0.56510    1.000
    H181     H        0.27180    0.36100    0.57390    1.000
    C280     C        0.25820    0.41400    0.53930    1.000
    C281     C        0.20580    0.43800    0.52610    1.000
    H182     H        0.21920    0.46200    0.50900    1.000
    C282     C        0.13050    0.42310    0.53864    1.000
    C283     C        0.10890    0.38550    0.56450    1.000
    H183     H        0.05940    0.37600    0.57280    1.000
    C284     C        0.33970    0.44270    0.52310    1.000
    O63      O        0.34440    0.46900    0.49820    1.000
    O64      O        0.39520    0.42400    0.53220    1.000
    N37      N        0.16060    0.32040    0.60290    1.000
    C285     C        0.09900    0.30400    0.62070    1.000
    O65      O        0.04900    0.33000    0.61790    1.000
    H184     H        0.19430    0.30100    0.60740    1.000
    C286     C        0.10340    0.27090    0.64935    1.000
    C287     C        0.04730    0.26490    0.66990    1.000
    C288     C        0.05170    0.23500    0.69570    1.000
    C289     C        0.11200    0.21100    0.70110    1.000
    C290     C        0.16800    0.21690    0.68060    1.000
    C291     C        0.16370    0.24680    0.65470    1.000
    H185     H        0.00760    0.28100    0.66630    1.000
    H186     H        0.01500    0.23100    0.70930    1.000
    H187     H        0.20790    0.20100    0.68420    1.000
    H188     H        0.20100    0.25100    0.64120    1.000
    C292     C        0.11650    0.17970    0.72815    1.000
    C293     C        0.12350    0.22420    0.75370    1.000
    N38      N        0.13050    0.19690    0.77850    1.000
    C294     C        0.13150    0.12080    0.78160    1.000
    N39      N        0.12500    0.07420    0.75800    1.000
    C295     C        0.11800    0.10150    0.73320    1.000
    H189     H        0.11390    0.07020    0.71780    1.000
    H190     H        0.13680    0.10280    0.79890    1.000
    H191     H        0.12330    0.27480    0.75350    1.000
    C296     C        0.08140    0.30060    0.67250    1.000
    C297     C        0.08610    0.27100    0.69840    1.000
    C298     C        0.13400    0.18130    0.67800    1.000
    C299     C        0.12970    0.21120    0.65210    1.000
    H192     H        0.06400    0.34000    0.67060    1.000
    H193     H        0.07100    0.29000    0.71370    1.000
    H194     H        0.15160    0.14200    0.67980    1.000
    H195     H        0.14470    0.19200    0.63680    1.000
    Cu14     Cu       0.72887    0.88823    0.81333    1.000
    C300     C        0.74297    0.78603    0.85963    1.000
    O66      O        0.76077    0.82093    0.83563    1.000
    O67      O        0.67557    0.77433    0.87233    1.000
    C301     C        0.82877    0.69563    0.91103    1.000
    C302     C        0.90387    0.71033    0.89843    1.000
    H196     H        0.93847    0.69433    0.90723    1.000
    C303     C        0.92487    0.74733    0.87263    1.000
    C304     C        0.87247    0.77133    0.85943    1.000
    H197     H        0.88587    0.79533    0.84233    1.000
    C305     C        0.79717    0.75643    0.87197    1.000
    C306     C        0.77557    0.71883    0.89783    1.000
    H198     H        0.72607    0.70933    0.90613    1.000
    C307     C        0.00637    0.77603    0.85643    1.000
    O68      O        0.01107    0.80233    0.83153    1.000
    O69      O        0.06187    0.75733    0.86553    1.000
    N40      N        0.82727    0.65373    0.93623    1.000
    C308     C        0.76567    0.63733    0.95403    1.000
    O70      O        0.71567    0.66333    0.95123    1.000
    H199     H        0.86097    0.63433    0.94073    1.000
    C309     C        0.77007    0.60423    0.98268    1.000
    C310     C        0.71397    0.59823    0.00323    1.000
    C311     C        0.71837    0.56833    0.02903    1.000
    C312     C        0.77867    0.54433    0.03443    1.000
    C313     C        0.83467    0.55023    0.01393    1.000
    C314     C        0.83037    0.58013    0.98803    1.000
    H200     H        0.67427    0.61433    0.99963    1.000
    H201     H        0.68167    0.56433    0.04263    1.000
    H202     H        0.87457    0.53433    0.01753    1.000
    H203     H        0.86767    0.58433    0.97453    1.000
    C315     C        0.78317    0.51303    0.06148    1.000
    C316     C        0.79017    0.55753    0.08703    1.000
    N41      N        0.79717    0.53023    0.11183    1.000
    C317     C        0.79817    0.45413    0.11493    1.000
    N42      N        0.79167    0.40753    0.09133    1.000
    C318     C        0.78467    0.43483    0.06653    1.000
    H204     H        0.78057    0.40353    0.05113    1.000
    H205     H        0.80347    0.43613    0.13223    1.000
    H206     H        0.78997    0.60813    0.08683    1.000
    C319     C        0.74807    0.63393    0.00583    1.000
    C320     C        0.75277    0.60433    0.03173    1.000
    C321     C        0.80067    0.51463    0.01133    1.000
    C322     C        0.79637    0.54453    0.98543    1.000
    H207     H        0.73067    0.67333    0.00393    1.000
    H208     H        0.73767    0.62333    0.04703    1.000
    H209     H        0.81827    0.47533    0.01313    1.000
    H210     H        0.81137    0.52533    0.97013    1.000
    Cu15     Cu       0.39553    0.22157    0.14667    1.000
    C323     C        0.40963    0.11937    0.19297    1.000
    O71      O        0.42743    0.15427    0.16897    1.000
    O72      O        0.34223    0.10767    0.20567    1.000
    C324     C        0.49543    0.02897    0.24437    1.000
    C325     C        0.57053    0.04367    0.23177    1.000
    H211     H        0.60513    0.02767    0.24057    1.000
    C326     C        0.59153    0.08067    0.20597    1.000
    C327     C        0.53913    0.10467    0.19277    1.000
    H212     H        0.55253    0.12867    0.17567    1.000
    C328     C        0.46383    0.08977    0.20531    1.000
    C329     C        0.44223    0.05217    0.23117    1.000
    H213     H        0.39273    0.04267    0.23947    1.000
    C330     C        0.67303    0.10937    0.18977    1.000
    O73      O        0.67773    0.13567    0.16487    1.000
    O74      O        0.72853    0.09067    0.19887    1.000
    N43      N        0.49393    0.98707    0.26957    1.000
    C331     C        0.43233    0.97067    0.28737    1.000
    O75      O        0.38233    0.99667    0.28457    1.000
    H214     H        0.52763    0.96767    0.27407    1.000
    C332     C        0.43673    0.93757    0.31602    1.000
    C333     C        0.38063    0.93157    0.33657    1.000
    C334     C        0.38503    0.90167    0.36237    1.000
    C335     C        0.44533    0.87767    0.36777    1.000
    C336     C        0.50133    0.88357    0.34727    1.000
    C337     C        0.49703    0.91347    0.32137    1.000
    H215     H        0.34093    0.94767    0.33297    1.000
    H216     H        0.34833    0.89767    0.37597    1.000
    H217     H        0.54123    0.86767    0.35087    1.000
    H218     H        0.53433    0.91767    0.30787    1.000
    C338     C        0.44983    0.84637    0.39482    1.000
    C339     C        0.45683    0.89087    0.42037    1.000
    N44      N        0.46383    0.86357    0.44517    1.000
    C340     C        0.46483    0.78747    0.44827    1.000
    N45      N        0.45833    0.74087    0.42467    1.000
    C341     C        0.45133    0.76817    0.39987    1.000
    H219     H        0.44723    0.73687    0.38447    1.000
    H220     H        0.47013    0.76947    0.46557    1.000
    H221     H        0.45663    0.94147    0.42017    1.000
    C342     C        0.41473    0.96727    0.33917    1.000
    C343     C        0.41943    0.93767    0.36507    1.000
    C344     C        0.46733    0.84797    0.34467    1.000
    C345     C        0.46303    0.87787    0.31877    1.000
    H222     H        0.39733    0.00667    0.33727    1.000
    H223     H        0.40433    0.95667    0.38037    1.000
    H224     H        0.48493    0.80867    0.34647    1.000
    H225     H        0.47803    0.85867    0.30347    1.000
    Cu16     Cu       0.49270    0.93780    0.48000    1.000
    C346     C        0.37640    0.92370    0.52630    1.000
    O76      O        0.39350    0.90590    0.50230    1.000
    O77      O        0.43210    0.99110    0.53900    1.000
    C347     C        0.20020    0.83790    0.57770    1.000
    C348     C        0.13980    0.76280    0.56510    1.000
    H226     H        0.08920    0.72820    0.57390    1.000
    C349     C        0.15580    0.74180    0.53930    1.000
    C350     C        0.23220    0.79420    0.52610    1.000
    H227     H        0.24280    0.78080    0.50900    1.000
    C351     C        0.29260    0.86950    0.53864    1.000
    C352     C        0.27660    0.89110    0.56450    1.000
    H228     H        0.31660    0.94060    0.57280    1.000
    C353     C        0.10300    0.66030    0.52310    1.000
    O78      O        0.12460    0.65560    0.49820    1.000
    O79      O        0.02880    0.60480    0.53220    1.000
    N46      N        0.15980    0.83940    0.60290    1.000
    C354     C        0.20500    0.90100    0.62070    1.000
    O80      O        0.28100    0.95100    0.61790    1.000
    H229     H        0.10670    0.80570    0.60740    1.000
    C355     C        0.16750    0.89660    0.64935    1.000
    C356     C        0.21760    0.95270    0.66990    1.000
    C357     C        0.18330    0.94830    0.69570    1.000
    C358     C        0.09900    0.88800    0.70110    1.000
    C359     C        0.04890    0.83200    0.68060    1.000
    C360     C        0.08310    0.83630    0.65470    1.000
    H230     H        0.27340    0.99240    0.66630    1.000
    H231     H        0.21600    0.98500    0.70930    1.000
    H232     H        0.99310    0.79210    0.68420    1.000
    H233     H        0.05000    0.79900    0.64120    1.000
    C361     C        0.06320    0.88350    0.72815    1.000
    C362     C        0.10070    0.87650    0.75370    1.000
    N47      N        0.06640    0.86950    0.77850    1.000
    C363     C        0.98930    0.86850    0.78160    1.000
    N48      N        0.94920    0.87500    0.75800    1.000
    C364     C        0.98350    0.88200    0.73320    1.000
    H234     H        0.95630    0.88610    0.71780    1.000
    H235     H        0.96600    0.86320    0.79890    1.000
    H236     H        0.15150    0.87670    0.75350    1.000
    C365     C        0.21920    0.91860    0.67250    1.000
    C366     C        0.18490    0.91390    0.69840    1.000
    C367     C        0.04730    0.86600    0.67800    1.000
    C368     C        0.08150    0.87030    0.65210    1.000
    H237     H        0.27600    0.93600    0.67060    1.000
    H238     H        0.21900    0.92900    0.71370    1.000
    H239     H        0.99040    0.84840    0.67980    1.000
    H240     H        0.04730    0.85530    0.63680    1.000
    Cu17     Cu       0.15937    0.27113    0.81333    1.000
    C369     C        0.04307    0.25703    0.85963    1.000
    O81      O        0.06017    0.23923    0.83563    1.000
    O82      O        0.09877    0.32443    0.87233    1.000
    C370     C        0.86687    0.17123    0.91103    1.000
    C371     C        0.80647    0.09613    0.89843    1.000
    H241     H        0.75587    0.06153    0.90723    1.000
    C372     C        0.82247    0.07513    0.87263    1.000
    C373     C        0.89887    0.12753    0.85943    1.000
    H242     H        0.90947    0.11413    0.84233    1.000
    C374     C        0.95927    0.20283    0.87197    1.000
    C375     C        0.94327    0.22443    0.89783    1.000
    H243     H        0.98327    0.27393    0.90613    1.000
    C376     C        0.76967    0.99363    0.85643    1.000
    O83      O        0.79127    0.98893    0.83153    1.000
    O84      O        0.69547    0.93813    0.86553    1.000
    N49      N        0.82647    0.17273    0.93623    1.000
    C377     C        0.87167    0.23433    0.95403    1.000
    O85      O        0.94767    0.28433    0.95123    1.000
    H244     H        0.77337    0.13903    0.94073    1.000
    C378     C        0.83417    0.22993    0.98268    1.000
    C379     C        0.88427    0.28603    0.00323    1.000
    C380     C        0.84997    0.28163    0.02903    1.000
    C381     C        0.76567    0.22133    0.03443    1.000
    C382     C        0.71557    0.16533    0.01393    1.000
    C383     C        0.74977    0.16963    0.98803    1.000
    H245     H        0.94007    0.32573    0.99963    1.000
    H246     H        0.88267    0.31833    0.04263    1.000
    H247     H        0.65977    0.12543    0.01753    1.000
    H248     H        0.71667    0.13233    0.97453    1.000
    C384     C        0.72987    0.21683    0.06148    1.000
    C385     C        0.76737    0.20983    0.08703    1.000
    N50      N        0.73307    0.20283    0.11183    1.000
    C386     C        0.65597    0.20183    0.11493    1.000
    N51      N        0.61587    0.20833    0.09133    1.000
    C387     C        0.65017    0.21533    0.06653    1.000
    H249     H        0.62297    0.21943    0.05113    1.000
    H250     H        0.63267    0.19653    0.13223    1.000
    H251     H        0.81817    0.21003    0.08683    1.000
    C388     C        0.88587    0.25193    0.00583    1.000
    C389     C        0.85157    0.24723    0.03173    1.000
    C390     C        0.71397    0.19933    0.01133    1.000
    C391     C        0.74817    0.20363    0.98543    1.000
    H252     H        0.94267    0.26933    0.00393    1.000
    H253     H        0.88567    0.26233    0.04703    1.000
    H254     H        0.65707    0.18173    0.01313    1.000
    H255     H        0.71397    0.18863    0.97013    1.000
    Cu18     Cu       0.82603    0.60447    0.14667    1.000
    C392     C        0.70973    0.59037    0.19297    1.000
    O86      O        0.72683    0.57257    0.16897    1.000
    O87      O        0.76543    0.65777    0.20567    1.000
    C393     C        0.53353    0.50457    0.24437    1.000
    C394     C        0.47313    0.42947    0.23177    1.000
    H256     H        0.42253    0.39487    0.24057    1.000
    C395     C        0.48913    0.40847    0.20597    1.000
    C396     C        0.56553    0.46087    0.19277    1.000
    H257     H        0.57613    0.44747    0.17567    1.000
    C397     C        0.62593    0.53617    0.20531    1.000
    C398     C        0.60993    0.55777    0.23117    1.000
    H258     H        0.64993    0.60727    0.23947    1.000
    C399     C        0.43633    0.32697    0.18977    1.000
    O88      O        0.45793    0.32227    0.16487    1.000
    O89      O        0.36213    0.27147    0.19887    1.000
    N52      N        0.49313    0.50607    0.26957    1.000
    C400     C        0.53833    0.56767    0.28737    1.000
    O90      O        0.61433    0.61767    0.28457    1.000
    H259     H        0.44003    0.47237    0.27407    1.000
    C401     C        0.50083    0.56327    0.31602    1.000
    C402     C        0.55093    0.61937    0.33657    1.000
    C403     C        0.51663    0.61497    0.36237    1.000
    C404     C        0.43233    0.55467    0.36777    1.000
    C405     C        0.38223    0.49867    0.34727    1.000
    C406     C        0.41643    0.50297    0.32137    1.000
    H260     H        0.60673    0.65907    0.33297    1.000
    H261     H        0.54933    0.65167    0.37597    1.000
    H262     H        0.32643    0.45877    0.35087    1.000
    H263     H        0.38333    0.46567    0.30787    1.000
    C407     C        0.39653    0.55017    0.39482    1.000
    C408     C        0.43403    0.54317    0.42037    1.000
    N53      N        0.39973    0.53617    0.44517    1.000
    C409     C        0.32263    0.53517    0.44827    1.000
    N54      N        0.28253    0.54167    0.42467    1.000
    C410     C        0.31683    0.54867    0.39987    1.000
    H264     H        0.28963    0.55277    0.38447    1.000
    H265     H        0.29933    0.52987    0.46557    1.000
    H266     H        0.48483    0.54337    0.42017    1.000
    C411     C        0.55253    0.58527    0.33917    1.000
    C412     C        0.51823    0.58057    0.36507    1.000
    C413     C        0.38063    0.53267    0.34467    1.000
    C414     C        0.41483    0.53697    0.31877    1.000
    H267     H        0.60933    0.60267    0.33727    1.000
    H268     H        0.55233    0.59567    0.38037    1.000
    H269     H        0.32373    0.51507    0.34647    1.000
    H270     H        0.38063    0.52197    0.30347    1.000
