# CIF file generated by openbabel 3.1.0, see https://openbabel.org
data_I
_chemical_name_common 'image0'
_cell_length_a 9.1657
_cell_length_b 15.5849
_cell_length_c 13.5302
_cell_angle_alpha 90
_cell_angle_beta 107.469
_cell_angle_gamma 90
_space_group_name_H-M_alt 'P 1'
_space_group_name_Hall 'P 1'
loop_
    _symmetry_equiv_pos_as_xyz
    x,y,z
loop_
    _atom_site_label
    _atom_site_type_symbol
    _atom_site_fract_x
    _atom_site_fract_y
    _atom_site_fract_z
    _atom_site_occupancy
    Zn1      Zn       0.37908    0.55185    0.24814    1.000
    Zn2      Zn       0.12668    0.74516    0.25215    1.000
    O1       O        0.02940    0.64020    0.18210    1.000
    O2       O        0.19000    0.55180    0.13510    1.000
    C1       C        0.92930    0.51390    0.09240    1.000
    C2       C        0.93710    0.45300    0.01910    1.000
    H1       H        0.02590    0.44840    0.99840    1.000
    C3       C        0.81340    0.39870    0.97640    1.000
    C4       C        0.68390    0.40480    0.00960    1.000
    H2       H        0.60160    0.36700    0.98230    1.000
    C5       C        0.67420    0.46590    0.08260    1.000
    C6       C        0.79840    0.52120    0.12300    1.000
    H3       H        0.79290    0.56360    0.17120    1.000
    C7       C        0.06040    0.57390    0.14110    1.000
    O3       O        0.93750    0.33210    0.86420    1.000
    C8       C        0.81660    0.33440    0.89490    1.000
    O4       O        0.70620    0.28690    0.85630    1.000
    O5       O        0.42990    0.41940    0.09090    1.000
    C9       C        0.53480    0.47360    0.11840    1.000
    O6       O        0.53690    0.53660    0.17880    1.000
    O7       O        0.47740    0.65690    0.31900    1.000
    O8       O        0.31780    0.74610    0.36550    1.000
    C10      C        0.58090    0.78030    0.41240    1.000
    C11      C        0.57160    0.84210    0.48510    1.000
    H4       H        0.48310    0.84640    0.50630    1.000
    C12      C        0.69460    0.89730    0.52610    1.000
    C13      C        0.82460    0.89150    0.49390    1.000
    H5       H        0.90610    0.92990    0.52050    1.000
    C14      C        0.83510    0.82950    0.42270    1.000
    C15      C        0.71240    0.77370    0.38250    1.000
    H6       H        0.71910    0.73130    0.33470    1.000
    C16      C        0.44780    0.72420    0.36220    1.000
    O9       O        0.56940    0.96470    0.63810    1.000
    C17      C        0.68850    0.96360    0.60650    1.000
    O10      O        0.79670    0.01350    0.64220    1.000
    O11      O        0.07660    0.87570    0.41050    1.000
    C18      C        0.97370    0.82320    0.38500    1.000
    O12      O        0.97220    0.75860    0.32440    1.000
    Zn3      Zn       0.62092    0.05185    0.75186    1.000
    Zn4      Zn       0.87332    0.24516    0.74785    1.000
    O13      O        0.97060    0.14020    0.81790    1.000
    O14      O        0.81000    0.05180    0.86490    1.000
    C19      C        0.07070    0.01390    0.90760    1.000
    C20      C        0.06290    0.95300    0.98090    1.000
    H7       H        0.97410    0.94840    0.00160    1.000
    C21      C        0.18660    0.89870    0.02360    1.000
    C22      C        0.31610    0.90480    0.99040    1.000
    H8       H        0.39840    0.86700    0.01770    1.000
    C23      C        0.32580    0.96590    0.91740    1.000
    C24      C        0.20160    0.02120    0.87700    1.000
    H9       H        0.20710    0.06360    0.82880    1.000
    C25      C        0.93960    0.07390    0.85890    1.000
    O15      O        0.06250    0.83210    0.13580    1.000
    C26      C        0.18340    0.83440    0.10510    1.000
    O16      O        0.29380    0.78690    0.14370    1.000
    O17      O        0.57010    0.91940    0.90910    1.000
    C27      C        0.46520    0.97360    0.88160    1.000
    O18      O        0.46310    0.03660    0.82120    1.000
    O19      O        0.52260    0.15690    0.68100    1.000
    O20      O        0.68220    0.24610    0.63450    1.000
    C28      C        0.41910    0.28030    0.58760    1.000
    C29      C        0.42840    0.34210    0.51490    1.000
    H10      H        0.51690    0.34640    0.49370    1.000
    C30      C        0.30540    0.39730    0.47390    1.000
    C31      C        0.17540    0.39150    0.50610    1.000
    H11      H        0.09390    0.42990    0.47950    1.000
    C32      C        0.16490    0.32950    0.57730    1.000
    C33      C        0.28760    0.27370    0.61750    1.000
    H12      H        0.28090    0.23130    0.66530    1.000
    C34      C        0.55220    0.22420    0.63780    1.000
    O21      O        0.43060    0.46470    0.36190    1.000
    C35      C        0.31150    0.46360    0.39350    1.000
    O22      O        0.20330    0.51350    0.35780    1.000
    O23      O        0.92340    0.37570    0.58950    1.000
    C36      C        0.02630    0.32320    0.61500    1.000
    O24      O        0.02780    0.25860    0.67560    1.000
