data_functionalizedCrystal
_audit_creation_method	'EQeq! by Chris Wilmer'
_symmetry_space_group_name_H-M	'P1'
_symmetry_Int_Tables_number	1
_symmetry_cell_setting	triclinic
loop_
_symmetry_equiv_pos_as_xyz
  x,y,z
_cell_length_a	38.002
_cell_length_b	38.002
_cell_length_c	24.348
_cell_angle_alpha	90
_cell_angle_beta	90
_cell_angle_gamma	120
loop_
_atom_site_label
_atom_site_type_symbol
_atom_site_fract_x
_atom_site_fract_y
_atom_site_fract_z
_atom_site_charge
Mof_Tb	Tb	0.21779	0.43127	0.00817	2.145
Mof_Tb	Tb	0.10354	0.20809	0.16699	1.375
Mof_Cu	Cu	0.14078	0.33418	0.04339	0.902
Mof_Cu	Cu	0.2985	0.43601	0.08276	0.867
Mof_Cu	Cu	0.19177	0.48678	0.09446	0.867
Mof_Cu	Cu	0.15418	0.3594	0.91416	0.861
Mof_Cu	Cu	0.31345	0.46019	0.95224	0.909
Mof_Cu	Cu	0.20492	0.51091	0.96599	0.905
Mof_O 	O 	0.15879	0.39044	0.06876	-0.615
Mof_O 	O 	0.14834	0.42434	0.1347	-0.443
Mof_O 	O 	0.24008	0.39617	0.07124	-0.615
Mof_O 	O 	0.19269	0.33348	0.0938	-0.418
Mof_O 	O 	0.23479	0.47214	0.09208	-0.62
Mof_O 	O 	0.28267	0.47195	0.1434	-0.446
Mof_O 	O 	0.17183	0.41671	0.92834	-0.604
Mof_O 	O 	0.16439	0.46727	0.8971	-0.416
Mof_O 	O 	0.25525	0.42151	0.93382	-0.605
Mof_O 	O 	0.21604	0.3827	0.86646	-0.44
Mof_O 	O 	0.24685	0.49455	0.95698	-0.606
Mof_O 	O 	0.30596	0.51236	0.9169	-0.425
Mof_O 	O 	0.17978	0.36047	0.9838	-0.602
Mof_O 	O 	0.29147	0.46514	0.02253	-0.584
Mof_O 	O 	0.18092	0.46659	0.01955	-0.6
Mof_O 	O 	0.12269	0.28077	0.01065	-0.489
Mof_O 	O 	0.10917	0.24717	0.09	-0.576
Mof_O 	O 	0.36852	0.48632	0.981	-0.538
Mof_O 	O 	0.39898	0.51945	0.9066	-0.574
Mof_O 	O 	0.16448	0.5257	0.9882	-0.501
Mof_O 	O 	0.1555	0.54605	0.9064	-0.551
Mof_N 	N 	0.1029	0.3189	0.1058	-0.263
Mof_H 	H 	0.0772	0.3048	0.0934	0.063
Mof_H 	H 	0.1069	0.3027	0.1288	0.077
Mof_N 	N 	0.2955	0.3969	0.1381	-0.272
Mof_H 	H 	0.3158	0.3915	0.1328	0.06
Mof_H 	H 	0.2982	0.4074	0.172	0.083
Mof_N 	N 	0.2153	0.5123	0.1654	-0.277
Mof_H 	H 	0.2296	0.5395	0.1618	0.064
Mof_H 	H 	0.1955	0.5059	0.1903	0.085
Mof_N 	N 	0.1278	0.36606	0.8487	-0.272
Mof_H 	H 	0.1363	0.3588	0.8185	0.082
Mof_H 	H 	0.1007	0.35	0.8513	0.062
Mof_N 	N 	0.3241	0.4456	0.8799	-0.264
Mof_H 	H 	0.3404	0.4683	0.8608	0.074
Mof_H 	H 	0.337	0.4313	0.8836	0.065
Mof_N 	N 	0.2387	0.55378	0.9137	-0.272
Mof_H 	H 	0.225	0.5497	0.882	0.082
Mof_H 	H 	0.2441	0.578	0.9273	0.069
Mof_C 	C 	0.1411	0.3927	0.1114	0.491
Mof_C 	C 	0.2566	0.3598	0.1332	-0.361
Mof_H 	H 	0.2447	0.3517	0.1695	0.117
Mof_H 	H 	0.2611	0.3385	0.1193	0.106
Mof_C 	C 	0.2276	0.3632	0.0972	0.475
Mof_C 	C 	0.2546	0.4786	0.1355	0.469
Mof_C 	C 	0.1378	0.4072	0.8443	-0.325
Mof_H 	H 	0.1131	0.4081	0.838	0.1
Mof_H 	H 	0.1552	0.4192	0.8125	0.105
Mof_C 	C 	0.1589	0.4326	0.8939	0.456
Mof_C 	C 	0.287	0.4219	0.8506	-0.325
Mof_H 	H 	0.2872	0.3986	0.8346	0.093
Mof_H 	H 	0.2858	0.4381	0.8206	0.097
Mof_C 	C 	0.2495	0.407	0.885	0.46
Mof_C 	C 	0.2766	0.5543	0.9033	-0.313
Mof_H 	H 	0.2988	0.5787	0.9193	0.091
Mof_H 	H 	0.2811	0.5555	0.8639	0.092
Mof_C 	C 	0.2775	0.5175	0.9264	0.454
Mof_C 	C 	0.1132	0.2489	0.039	0.52
Mof_H 	H 	0.109	0.2257	0.0205	-0.194
Mof_C 	C 	0.3988	0.5081	0.954	0.617
Mof_H 	H 	0.4238	0.5168	0.9706	-0.197
Mof_C 	C 	0.1464	0.5364	0.9554	0.547
Mof_H 	H 	0.1239	0.5372	0.9689	-0.173
Mof_C 	C 	0.2414	0.4973	0.1829	-0.312
Mof_H 	H 	0.2275	0.4768	0.2109	0.11
Mof_H 	H 	0.2655	0.5194	0.1995	0.095
Mof_C 	C 	0.1086	0.3548	0.1355	-0.368
Mof_H 	H 	0.1153	0.353	0.1735	0.117
Mof_H 	H 	0.0834	0.3553	0.1352	0.113
Mof_Tb	Tb	0.88446	0.7646	0.3415	2.146
Mof_Tb	Tb	0.7702	0.54142	0.50032	1.375
Mof_Cu	Cu	0.80745	0.66751	0.37672	0.903
Mof_Cu	Cu	0.96517	0.76934	0.41609	0.868
Mof_Cu	Cu	0.85844	0.82011	0.42779	0.868
Mof_Cu	Cu	0.82085	0.69273	0.24749	0.862
Mof_Cu	Cu	0.98012	0.79352	0.28557	0.91
Mof_Cu	Cu	0.87159	0.84424	0.29932	0.906
Mof_O 	O 	0.82546	0.72377	0.40209	-0.614
Mof_O 	O 	0.81501	0.75767	0.46803	-0.442
Mof_O 	O 	0.90675	0.7295	0.40457	-0.614
Mof_O 	O 	0.85936	0.66681	0.42713	-0.417
Mof_O 	O 	0.90146	0.80547	0.42541	-0.619
Mof_O 	O 	0.94934	0.80528	0.47673	-0.445
Mof_O 	O 	0.8385	0.75004	0.26167	-0.603
Mof_O 	O 	0.83106	0.8006	0.23043	-0.415
Mof_O 	O 	0.92192	0.75484	0.26715	-0.604
Mof_O 	O 	0.88271	0.71603	0.19979	-0.439
Mof_O 	O 	0.91352	0.82788	0.29031	-0.605
Mof_O 	O 	0.97263	0.84569	0.25023	-0.424
Mof_O 	O 	0.84645	0.6938	0.31713	-0.602
Mof_O 	O 	0.95814	0.79847	0.35586	-0.583
Mof_O 	O 	0.84759	0.79992	0.35288	-0.599
Mof_O 	O 	0.78936	0.6141	0.34398	-0.488
Mof_O 	O 	0.77584	0.5805	0.42333	-0.575
Mof_O 	O 	0.03519	0.81965	0.31433	-0.537
Mof_O 	O 	0.06565	0.85278	0.23993	-0.573
Mof_O 	O 	0.83115	0.85903	0.32153	-0.5
Mof_O 	O 	0.82217	0.87938	0.23973	-0.55
Mof_N 	N 	0.76957	0.65223	0.43913	-0.262
Mof_H 	H 	0.74387	0.63813	0.42673	0.064
Mof_H 	H 	0.77357	0.63603	0.46213	0.079
Mof_N 	N 	0.96217	0.73023	0.47143	-0.271
Mof_H 	H 	0.98247	0.72483	0.46613	0.061
Mof_H 	H 	0.96487	0.74073	0.50533	0.084
Mof_N 	N 	0.88197	0.84563	0.49873	-0.276
Mof_H 	H 	0.89627	0.87283	0.49513	0.064
Mof_H 	H 	0.86217	0.83923	0.52363	0.085
Mof_N 	N 	0.79447	0.69939	0.18203	-0.272
Mof_H 	H 	0.80297	0.69213	0.15183	0.082
Mof_H 	H 	0.76737	0.68333	0.18463	0.062
Mof_N 	N 	0.99077	0.77893	0.21323	-0.264
Mof_H 	H 	0.00707	0.80163	0.19413	0.073
Mof_H 	H 	0.00367	0.76463	0.21693	0.065
Mof_N 	N 	0.90537	0.88711	0.24703	-0.272
Mof_H 	H 	0.89167	0.88303	0.21533	0.082
Mof_H 	H 	0.91077	0.91133	0.26063	0.069
Mof_C 	C 	0.80777	0.72603	0.44473	0.491
Mof_C 	C 	0.92327	0.69313	0.46653	-0.361
Mof_H 	H 	0.91137	0.68503	0.50283	0.117
Mof_H 	H 	0.92777	0.67183	0.45263	0.106
Mof_C 	C 	0.89427	0.69653	0.43053	0.475
Mof_C 	C 	0.92127	0.81193	0.46883	0.469
Mof_C 	C 	0.80447	0.74053	0.17763	-0.325
Mof_H 	H 	0.77977	0.74143	0.17133	0.1
Mof_H 	H 	0.82187	0.75253	0.14583	0.105
Mof_C 	C 	0.82557	0.76593	0.22723	0.456
Mof_C 	C 	0.95367	0.75523	0.18393	-0.325
Mof_H 	H 	0.95387	0.73193	0.16793	0.093
Mof_H 	H 	0.95247	0.77143	0.15393	0.098
Mof_C 	C 	0.91617	0.74033	0.21833	0.46
Mof_C 	C 	0.94327	0.88763	0.23663	-0.313
Mof_H 	H 	0.96547	0.91203	0.25263	0.091
Mof_H 	H 	0.94777	0.88883	0.19723	0.092
Mof_C 	C 	0.94417	0.85083	0.25973	0.454
Mof_C 	C 	0.77987	0.58223	0.37233	0.52
Mof_H 	H 	0.77567	0.55903	0.35383	-0.194
Mof_C 	C 	0.06547	0.84143	0.28733	0.617
Mof_H 	H 	0.09047	0.85013	0.30393	-0.197
Mof_C 	C 	0.81307	0.86973	0.28873	0.547
Mof_H 	H 	0.79057	0.87053	0.30223	-0.173
Mof_C 	C 	0.90807	0.83063	0.51623	-0.312
Mof_H 	H 	0.89417	0.81013	0.54423	0.11
Mof_H 	H 	0.93217	0.85273	0.53283	0.095
Mof_C 	C 	0.77527	0.68813	0.46883	-0.368
Mof_H 	H 	0.78197	0.68633	0.50683	0.117
Mof_H 	H 	0.75007	0.68863	0.46853	0.113
Mof_Tb	Tb	0.55112	0.09794	0.67484	2.146
Mof_Tb	Tb	0.43687	0.87476	0.83365	1.376
Mof_Cu	Cu	0.47411	0.00085	0.71006	0.903
Mof_Cu	Cu	0.63183	0.10268	0.74943	0.868
Mof_Cu	Cu	0.5251	0.15345	0.76113	0.868
Mof_Cu	Cu	0.48751	0.02607	0.58083	0.862
Mof_Cu	Cu	0.64678	0.12686	0.61891	0.91
Mof_Cu	Cu	0.53825	0.17758	0.63266	0.906
Mof_O 	O 	0.49212	0.05711	0.73543	-0.614
Mof_O 	O 	0.48167	0.09101	0.80137	-0.442
Mof_O 	O 	0.57341	0.06284	0.73791	-0.614
Mof_O 	O 	0.52602	0.00015	0.76047	-0.417
Mof_O 	O 	0.56812	0.13881	0.75875	-0.619
Mof_O 	O 	0.616	0.13862	0.81007	-0.445
Mof_O 	O 	0.50516	0.08338	0.59501	-0.603
Mof_O 	O 	0.49772	0.13394	0.56377	-0.415
Mof_O 	O 	0.58858	0.08818	0.60049	-0.604
Mof_O 	O 	0.54937	0.04937	0.53313	-0.439
Mof_O 	O 	0.58018	0.16122	0.62365	-0.605
Mof_O 	O 	0.63929	0.17903	0.58357	-0.424
Mof_O 	O 	0.51311	0.02714	0.65047	-0.602
Mof_O 	O 	0.6248	0.13181	0.6892	-0.583
Mof_O 	O 	0.51425	0.13326	0.68622	-0.599
Mof_O 	O 	0.45602	0.94744	0.67732	-0.488
Mof_O 	O 	0.4425	0.91384	0.75667	-0.575
Mof_O 	O 	0.70185	0.15299	0.64767	-0.537
Mof_O 	O 	0.73231	0.18612	0.57327	-0.573
Mof_O 	O 	0.49781	0.19237	0.65487	-0.5
Mof_O 	O 	0.48883	0.21272	0.57307	-0.55
Mof_N 	N 	0.43623	0.98557	0.77247	-0.262
Mof_H 	H 	0.41053	0.97147	0.76007	0.064
Mof_H 	H 	0.44023	0.96937	0.79547	0.079
Mof_N 	N 	0.62883	0.06357	0.80477	-0.271
Mof_H 	H 	0.64913	0.05817	0.79947	0.061
Mof_H 	H 	0.63153	0.07407	0.83867	0.084
Mof_N 	N 	0.54863	0.17897	0.83207	-0.276
Mof_H 	H 	0.56293	0.20617	0.82847	0.064
Mof_H 	H 	0.52883	0.17257	0.85697	0.085
Mof_N 	N 	0.46113	0.03273	0.51537	-0.272
Mof_H 	H 	0.46963	0.02547	0.48517	0.082
Mof_H 	H 	0.43403	0.01667	0.51797	0.062
Mof_N 	N 	0.65743	0.11227	0.54657	-0.264
Mof_H 	H 	0.67373	0.13497	0.52747	0.074
Mof_H 	H 	0.67033	0.09797	0.55027	0.065
Mof_N 	N 	0.57203	0.22045	0.58037	-0.272
Mof_H 	H 	0.55833	0.21637	0.54867	0.082
Mof_H 	H 	0.57743	0.24467	0.59397	0.069
Mof_C 	C 	0.47443	0.05937	0.77807	0.491
Mof_C 	C 	0.58993	0.02647	0.79987	-0.361
Mof_H 	H 	0.57803	0.01837	0.83617	0.117
Mof_H 	H 	0.59443	0.00517	0.78597	0.106
Mof_C 	C 	0.56093	0.02987	0.76387	0.475
Mof_C 	C 	0.58793	0.14527	0.80217	0.469
Mof_C 	C 	0.47113	0.07387	0.51097	-0.325
Mof_H 	H 	0.44643	0.07477	0.50467	0.1
Mof_H 	H 	0.48853	0.08587	0.47917	0.105
Mof_C 	C 	0.49223	0.09927	0.56057	0.456
Mof_C 	C 	0.62033	0.08857	0.51727	-0.325
Mof_H 	H 	0.62053	0.06527	0.50127	0.093
Mof_H 	H 	0.61913	0.10477	0.48727	0.097
Mof_C 	C 	0.58283	0.07367	0.55167	0.46
Mof_C 	C 	0.60993	0.22097	0.56997	-0.313
Mof_H 	H 	0.63213	0.24537	0.58597	0.091
Mof_H 	H 	0.61443	0.22217	0.53057	0.092
Mof_C 	C 	0.61083	0.18417	0.59307	0.454
Mof_C 	C 	0.44653	0.91557	0.70567	0.52
Mof_H 	H 	0.44233	0.89237	0.68717	-0.194
Mof_C 	C 	0.73213	0.17477	0.62067	0.617
Mof_H 	H 	0.75713	0.18347	0.63727	-0.197
Mof_C 	C 	0.47973	0.20307	0.62207	0.547
Mof_H 	H 	0.45723	0.20387	0.63557	-0.173
Mof_C 	C 	0.57473	0.16397	0.84957	-0.312
Mof_H 	H 	0.56083	0.14347	0.87757	0.11
Mof_H 	H 	0.59883	0.18607	0.86617	0.095
Mof_C 	C 	0.44193	0.02147	0.80217	-0.368
Mof_H 	H 	0.44863	0.01967	0.84017	0.117
Mof_H 	H 	0.41673	0.02197	0.80187	0.113
Mof_Tb	Tb	0.56873	0.78652	0.00817	2.146
Mof_Tb	Tb	0.79191	0.89545	0.16699	1.376
Mof_Cu	Cu	0.66582	0.8066	0.04339	0.903
Mof_Cu	Cu	0.56399	0.86249	0.08276	0.868
Mof_Cu	Cu	0.51322	0.70499	0.09446	0.868
Mof_Cu	Cu	0.6406	0.79478	0.91416	0.862
Mof_Cu	Cu	0.53981	0.85326	0.95224	0.91
Mof_Cu	Cu	0.48909	0.69401	0.96599	0.906
Mof_O 	O 	0.60956	0.76835	0.06876	-0.614
Mof_O 	O 	0.57566	0.724	0.1347	-0.442
Mof_O 	O 	0.60383	0.84391	0.07124	-0.614
Mof_O 	O 	0.66652	0.85921	0.0938	-0.417
Mof_O 	O 	0.52786	0.76265	0.09208	-0.619
Mof_O 	O 	0.52805	0.81072	0.1434	-0.445
Mof_O 	O 	0.58329	0.75512	0.92834	-0.603
Mof_O 	O 	0.53273	0.69712	0.8971	-0.415
Mof_O 	O 	0.57849	0.83374	0.93382	-0.604
Mof_O 	O 	0.6173	0.83334	0.86646	-0.439
Mof_O 	O 	0.50545	0.7523	0.95698	-0.605
Mof_O 	O 	0.48764	0.7936	0.9169	-0.424
Mof_O 	O 	0.63953	0.81931	0.9838	-0.601
Mof_O 	O 	0.53486	0.82633	0.02253	-0.583
Mof_O 	O 	0.53341	0.71433	0.01955	-0.599
Mof_O 	O 	0.71923	0.84192	0.01065	-0.488
Mof_O 	O 	0.75283	0.862	0.09	-0.575
Mof_O 	O 	0.51368	0.8822	0.981	-0.537
Mof_O 	O 	0.48055	0.87953	0.9066	-0.573
Mof_O 	O 	0.4743	0.63878	0.9882	-0.5
Mof_O 	O 	0.45395	0.60945	0.9064	-0.55
Mof_N 	N 	0.6811	0.784	0.1058	-0.262
Mof_H 	H 	0.6952	0.7724	0.0934	0.064
Mof_H 	H 	0.6973	0.8042	0.1288	0.079
Mof_N 	N 	0.6031	0.8986	0.1381	-0.271
Mof_H 	H 	0.6085	0.9243	0.1328	0.061
Mof_H 	H 	0.5926	0.8908	0.172	0.084
Mof_N 	N 	0.4877	0.703	0.1654	-0.276
Mof_H 	H 	0.4605	0.6901	0.1618	0.064
Mof_H 	H 	0.4941	0.6896	0.1903	0.085
Mof_N 	N 	0.63394	0.76174	0.8487	-0.272
Mof_H 	H 	0.6412	0.7775	0.8185	0.082
Mof_H 	H 	0.65	0.7507	0.8513	0.062
Mof_N 	N 	0.5544	0.8785	0.8799	-0.264
Mof_H 	H 	0.5317	0.8721	0.8608	0.074
Mof_H 	H 	0.5687	0.9057	0.8836	0.065
Mof_N 	N 	0.44622	0.68492	0.9137	-0.272
Mof_H 	H 	0.4503	0.6753	0.882	0.082
Mof_H 	H 	0.422	0.6661	0.9273	0.069
Mof_C 	C 	0.6073	0.7484	0.1114	0.491
Mof_C 	C 	0.6402	0.8968	0.1332	-0.361
Mof_H 	H 	0.6483	0.893	0.1695	0.117
Mof_H 	H 	0.6615	0.9226	0.1193	0.106
Mof_C 	C 	0.6368	0.8644	0.0972	0.475
Mof_C 	C 	0.5214	0.776	0.1355	0.469
Mof_C 	C 	0.5928	0.7306	0.8443	-0.325
Mof_H 	H 	0.5919	0.705	0.838	0.1
Mof_H 	H 	0.5808	0.736	0.8125	0.105
Mof_C 	C 	0.5674	0.7263	0.8939	0.456
Mof_C 	C 	0.5781	0.8651	0.8506	-0.325
Mof_H 	H 	0.6014	0.8886	0.8346	0.093
Mof_H 	H 	0.5619	0.8477	0.8206	0.097
Mof_C 	C 	0.593	0.8425	0.885	0.46
Mof_C 	C 	0.4457	0.7223	0.9033	-0.313
Mof_H 	H 	0.4213	0.7201	0.9193	0.091
Mof_H 	H 	0.4445	0.7256	0.8639	0.092
Mof_C 	C 	0.4825	0.76	0.9264	0.454
Mof_C 	C 	0.7511	0.8643	0.039	0.52
Mof_H 	H 	0.7743	0.8833	0.0205	-0.194
Mof_C 	C 	0.4919	0.8907	0.954	0.617
Mof_H 	H 	0.4832	0.907	0.9706	-0.196
Mof_C 	C 	0.4636	0.61	0.9554	0.547
Mof_H 	H 	0.4628	0.5867	0.9689	-0.173
Mof_C 	C 	0.5027	0.7441	0.1829	-0.312
Mof_H 	H 	0.5232	0.7507	0.2109	0.11
Mof_H 	H 	0.4806	0.7461	0.1995	0.095
Mof_C 	C 	0.6452	0.7538	0.1355	-0.368
Mof_H 	H 	0.647	0.7623	0.1735	0.117
Mof_H 	H 	0.6447	0.7281	0.1352	0.113
Mof_Tb	Tb	0.2354	0.11985	0.3415	2.146
Mof_Tb	Tb	0.45858	0.22878	0.50032	1.375
Mof_Cu	Cu	0.33249	0.13993	0.37672	0.903
Mof_Cu	Cu	0.23066	0.19582	0.41609	0.868
Mof_Cu	Cu	0.17989	0.03832	0.42779	0.868
Mof_Cu	Cu	0.30727	0.12811	0.24749	0.862
Mof_Cu	Cu	0.20648	0.18659	0.28557	0.91
Mof_Cu	Cu	0.15576	0.02734	0.29932	0.906
Mof_O 	O 	0.27623	0.10168	0.40209	-0.614
Mof_O 	O 	0.24233	0.05733	0.46803	-0.442
Mof_O 	O 	0.2705	0.17724	0.40457	-0.614
Mof_O 	O 	0.33319	0.19254	0.42713	-0.417
Mof_O 	O 	0.19453	0.09598	0.42541	-0.619
Mof_O 	O 	0.19472	0.14405	0.47673	-0.445
Mof_O 	O 	0.24996	0.08845	0.26167	-0.603
Mof_O 	O 	0.1994	0.03045	0.23043	-0.415
Mof_O 	O 	0.24516	0.16707	0.26715	-0.604
Mof_O 	O 	0.28397	0.16667	0.19979	-0.439
Mof_O 	O 	0.17212	0.08563	0.29031	-0.605
Mof_O 	O 	0.15431	0.12693	0.25023	-0.424
Mof_O 	O 	0.3062	0.15264	0.31713	-0.602
Mof_O 	O 	0.20153	0.15966	0.35586	-0.583
Mof_O 	O 	0.20008	0.04766	0.35288	-0.599
Mof_O 	O 	0.3859	0.17525	0.34398	-0.488
Mof_O 	O 	0.4195	0.19533	0.42333	-0.575
Mof_O 	O 	0.18035	0.21553	0.31433	-0.537
Mof_O 	O 	0.14722	0.21286	0.23993	-0.573
Mof_O 	O 	0.14097	0.97211	0.32153	-0.5
Mof_O 	O 	0.12062	0.94278	0.23973	-0.55
Mof_N 	N 	0.34777	0.11733	0.43913	-0.262
Mof_H 	H 	0.36187	0.10573	0.42673	0.064
Mof_H 	H 	0.36397	0.13753	0.46213	0.079
Mof_N 	N 	0.26977	0.23193	0.47143	-0.271
Mof_H 	H 	0.27517	0.25763	0.46613	0.061
Mof_H 	H 	0.25927	0.22413	0.50533	0.084
Mof_N 	N 	0.15437	0.03633	0.49873	-0.276
Mof_H 	H 	0.12717	0.02343	0.49513	0.064
Mof_H 	H 	0.16077	0.02293	0.52363	0.085
Mof_N 	N 	0.30061	0.09507	0.18203	-0.272
Mof_H 	H 	0.30787	0.11083	0.15183	0.082
Mof_H 	H 	0.31667	0.08403	0.18463	0.062
Mof_N 	N 	0.22107	0.21183	0.21323	-0.264
Mof_H 	H 	0.19837	0.20543	0.19413	0.074
Mof_H 	H 	0.23537	0.23903	0.21693	0.065
Mof_N 	N 	0.11289	0.01825	0.24703	-0.272
Mof_H 	H 	0.11697	0.00863	0.21533	0.082
Mof_H 	H 	0.08867	0.99943	0.26063	0.069
Mof_C 	C 	0.27397	0.08173	0.44473	0.491
Mof_C 	C 	0.30687	0.23013	0.46653	-0.361
Mof_H 	H 	0.31497	0.22633	0.50283	0.117
Mof_H 	H 	0.32817	0.25593	0.45263	0.106
Mof_C 	C 	0.30347	0.19773	0.43053	0.475
Mof_C 	C 	0.18807	0.10933	0.46883	0.469
Mof_C 	C 	0.25947	0.06393	0.17763	-0.325
Mof_H 	H 	0.25857	0.03833	0.17133	0.1
Mof_H 	H 	0.24747	0.06933	0.14583	0.105
Mof_C 	C 	0.23407	0.05963	0.22723	0.456
Mof_C 	C 	0.24477	0.19843	0.18393	-0.325
Mof_H 	H 	0.26807	0.22193	0.16793	0.093
Mof_H 	H 	0.22857	0.18103	0.15393	0.097
Mof_C 	C 	0.25967	0.17583	0.21833	0.46
Mof_C 	C 	0.11237	0.05563	0.23663	-0.313
Mof_H 	H 	0.08797	0.05343	0.25263	0.091
Mof_H 	H 	0.11117	0.05893	0.19723	0.092
Mof_C 	C 	0.14917	0.09333	0.25973	0.454
Mof_C 	C 	0.41777	0.19763	0.37233	0.52
Mof_H 	H 	0.44097	0.21663	0.35383	-0.194
Mof_C 	C 	0.15857	0.22403	0.28733	0.617
Mof_H 	H 	0.14987	0.24033	0.30393	-0.197
Mof_C 	C 	0.13027	0.94333	0.28873	0.547
Mof_H 	H 	0.12947	0.92003	0.30223	-0.173
Mof_C 	C 	0.16937	0.07743	0.51623	-0.312
Mof_H 	H 	0.18987	0.08403	0.54423	0.11
Mof_H 	H 	0.14727	0.07943	0.53283	0.095
Mof_C 	C 	0.31187	0.08713	0.46883	-0.368
Mof_H 	H 	0.31367	0.09563	0.50683	0.117
Mof_H 	H 	0.31137	0.06143	0.46853	0.113
Mof_Tb	Tb	0.90206	0.45319	0.67484	2.146
Mof_Tb	Tb	0.12524	0.56211	0.83365	1.376
Mof_Cu	Cu	0.99915	0.47327	0.71006	0.903
Mof_Cu	Cu	0.89732	0.52916	0.74943	0.868
Mof_Cu	Cu	0.84655	0.37166	0.76113	0.868
Mof_Cu	Cu	0.97393	0.46145	0.58083	0.862
Mof_Cu	Cu	0.87314	0.51993	0.61891	0.91
Mof_Cu	Cu	0.82242	0.36068	0.63266	0.906
Mof_O 	O 	0.94289	0.43502	0.73543	-0.614
Mof_O 	O 	0.90899	0.39067	0.80137	-0.442
Mof_O 	O 	0.93716	0.51058	0.73791	-0.614
Mof_O 	O 	0.99985	0.52588	0.76047	-0.417
Mof_O 	O 	0.86119	0.42932	0.75875	-0.619
Mof_O 	O 	0.86138	0.47739	0.81007	-0.445
Mof_O 	O 	0.91662	0.42179	0.59501	-0.603
Mof_O 	O 	0.86606	0.36379	0.56377	-0.415
Mof_O 	O 	0.91182	0.50041	0.60049	-0.604
Mof_O 	O 	0.95063	0.50001	0.53313	-0.439
Mof_O 	O 	0.83878	0.41897	0.62365	-0.605
Mof_O 	O 	0.82097	0.46027	0.58357	-0.424
Mof_O 	O 	0.97286	0.48598	0.65047	-0.602
Mof_O 	O 	0.86819	0.493	0.6892	-0.583
Mof_O 	O 	0.86674	0.381	0.68622	-0.599
Mof_O 	O 	0.05256	0.50859	0.67732	-0.488
Mof_O 	O 	0.08616	0.52867	0.75667	-0.575
Mof_O 	O 	0.84701	0.54887	0.64767	-0.537
Mof_O 	O 	0.81388	0.5462	0.57327	-0.573
Mof_O 	O 	0.80763	0.30545	0.65487	-0.5
Mof_O 	O 	0.78728	0.27612	0.57307	-0.55
Mof_N 	N 	0.01443	0.45067	0.77247	-0.262
Mof_H 	H 	0.02853	0.43907	0.76007	0.064
Mof_H 	H 	0.03063	0.47087	0.79547	0.079
Mof_N 	N 	0.93643	0.56527	0.80477	-0.271
Mof_H 	H 	0.94183	0.59097	0.79947	0.061
Mof_H 	H 	0.92593	0.55747	0.83867	0.084
Mof_N 	N 	0.82103	0.36967	0.83207	-0.276
Mof_H 	H 	0.79383	0.35677	0.82847	0.064
Mof_H 	H 	0.82743	0.35627	0.85697	0.085
Mof_N 	N 	0.96727	0.42841	0.51537	-0.272
Mof_H 	H 	0.97453	0.44417	0.48517	0.082
Mof_H 	H 	0.98333	0.41737	0.51797	0.062
Mof_N 	N 	0.88773	0.54517	0.54657	-0.264
Mof_H 	H 	0.86503	0.53877	0.52747	0.074
Mof_H 	H 	0.90203	0.57237	0.55027	0.065
Mof_N 	N 	0.77955	0.35159	0.58037	-0.272
Mof_H 	H 	0.78363	0.34197	0.54867	0.082
Mof_H 	H 	0.75533	0.33277	0.59397	0.069
Mof_C 	C 	0.94063	0.41507	0.77807	0.491
Mof_C 	C 	0.97353	0.56347	0.79987	-0.361
Mof_H 	H 	0.98163	0.55967	0.83617	0.117
Mof_H 	H 	0.99483	0.58927	0.78597	0.106
Mof_C 	C 	0.97013	0.53107	0.76387	0.475
Mof_C 	C 	0.85473	0.44267	0.80217	0.469
Mof_C 	C 	0.92613	0.39727	0.51097	-0.325
Mof_H 	H 	0.92523	0.37167	0.50467	0.1
Mof_H 	H 	0.91413	0.40267	0.47917	0.105
Mof_C 	C 	0.90073	0.39297	0.56057	0.456
Mof_C 	C 	0.91143	0.53177	0.51727	-0.325
Mof_H 	H 	0.93473	0.55527	0.50127	0.093
Mof_H 	H 	0.89523	0.51437	0.48727	0.097
Mof_C 	C 	0.92633	0.50917	0.55167	0.46
Mof_C 	C 	0.77903	0.38897	0.56997	-0.313
Mof_H 	H 	0.75463	0.38677	0.58597	0.091
Mof_H 	H 	0.77783	0.39227	0.53057	0.092
Mof_C 	C 	0.81583	0.42667	0.59307	0.454
Mof_C 	C 	0.08443	0.53097	0.70567	0.52
Mof_H 	H 	0.10763	0.54997	0.68717	-0.194
Mof_C 	C 	0.82523	0.55737	0.62067	0.617
Mof_H 	H 	0.81653	0.57367	0.63727	-0.197
Mof_C 	C 	0.79693	0.27667	0.62207	0.547
Mof_H 	H 	0.79613	0.25337	0.63557	-0.173
Mof_C 	C 	0.83603	0.41077	0.84957	-0.312
Mof_H 	H 	0.85653	0.41737	0.87757	0.11
Mof_H 	H 	0.81393	0.41277	0.86617	0.095
Mof_C 	C 	0.97853	0.42047	0.80217	-0.368
Mof_H 	H 	0.98033	0.42897	0.84017	0.117
Mof_H 	H 	0.97803	0.39477	0.80187	0.113
Mof_Tb	Tb	0.21348	0.78221	0.00817	2.145
Mof_Tb	Tb	0.10455	0.89646	0.16699	1.375
Mof_Cu	Cu	0.1934	0.85922	0.04339	0.903
Mof_Cu	Cu	0.13751	0.7015	0.08276	0.868
Mof_Cu	Cu	0.29501	0.80823	0.09446	0.868
Mof_Cu	Cu	0.20522	0.84582	0.91416	0.862
Mof_Cu	Cu	0.14674	0.68655	0.95224	0.91
Mof_Cu	Cu	0.30599	0.79508	0.96599	0.906
Mof_O 	O 	0.23165	0.84121	0.06876	-0.614
Mof_O 	O 	0.276	0.85166	0.1347	-0.442
Mof_O 	O 	0.15609	0.75992	0.07124	-0.614
Mof_O 	O 	0.14079	0.80731	0.0938	-0.417
Mof_O 	O 	0.23735	0.76521	0.09208	-0.619
Mof_O 	O 	0.18928	0.71733	0.1434	-0.445
Mof_O 	O 	0.24488	0.82817	0.92834	-0.603
Mof_O 	O 	0.30288	0.83561	0.8971	-0.415
Mof_O 	O 	0.16626	0.74475	0.93382	-0.604
Mof_O 	O 	0.16666	0.78396	0.86646	-0.439
Mof_O 	O 	0.2477	0.75315	0.95698	-0.605
Mof_O 	O 	0.2064	0.69404	0.9169	-0.424
Mof_O 	O 	0.18069	0.82022	0.9838	-0.601
Mof_O 	O 	0.17367	0.70853	0.02253	-0.583
Mof_O 	O 	0.28567	0.81908	0.01955	-0.599
Mof_O 	O 	0.15808	0.87731	0.01065	-0.488
Mof_O 	O 	0.138	0.89083	0.09	-0.575
Mof_O 	O 	0.1178	0.63148	0.981	-0.537
Mof_O 	O 	0.12047	0.60102	0.9066	-0.573
Mof_O 	O 	0.36122	0.83552	0.9882	-0.499
Mof_O 	O 	0.39055	0.8445	0.9064	-0.55
Mof_N 	N 	0.216	0.8971	0.1058	-0.262
Mof_H 	H 	0.2276	0.9228	0.0934	0.064
Mof_H 	H 	0.1958	0.8931	0.1288	0.078
Mof_N 	N 	0.1014	0.7045	0.1381	-0.271
Mof_H 	H 	0.0757	0.6842	0.1328	0.061
Mof_H 	H 	0.1092	0.7018	0.172	0.084
Mof_N 	N 	0.297	0.7847	0.1654	-0.276
Mof_H 	H 	0.3099	0.7704	0.1618	0.064
Mof_H 	H 	0.3104	0.8045	0.1903	0.085
Mof_N 	N 	0.23826	0.8722	0.8487	-0.272
Mof_H 	H 	0.2225	0.8637	0.8185	0.082
Mof_H 	H 	0.2493	0.8993	0.8513	0.062
Mof_N 	N 	0.1215	0.6759	0.8799	-0.264
Mof_H 	H 	0.1279	0.6596	0.8608	0.074
Mof_H 	H 	0.0943	0.663	0.8836	0.065
Mof_N 	N 	0.31508	0.7613	0.9137	-0.272
Mof_H 	H 	0.3247	0.775	0.882	0.082
Mof_H 	H 	0.3339	0.7559	0.9273	0.069
Mof_C 	C 	0.2516	0.8589	0.1114	0.491
Mof_C 	C 	0.1032	0.7434	0.1332	-0.361
Mof_H 	H 	0.107	0.7553	0.1695	0.117
Mof_H 	H 	0.0774	0.7389	0.1193	0.106
Mof_C 	C 	0.1356	0.7724	0.0972	0.475
Mof_C 	C 	0.224	0.7454	0.1355	0.469
Mof_C 	C 	0.2694	0.8622	0.8443	-0.325
Mof_H 	H 	0.295	0.8869	0.838	0.1
Mof_H 	H 	0.264	0.8448	0.8125	0.105
Mof_C 	C 	0.2737	0.8411	0.8939	0.456
Mof_C 	C 	0.1349	0.713	0.8506	-0.325
Mof_H 	H 	0.1114	0.7128	0.8346	0.093
Mof_H 	H 	0.1523	0.7142	0.8206	0.097
Mof_C 	C 	0.1575	0.7505	0.885	0.46
Mof_C 	C 	0.2777	0.7234	0.9033	-0.313
Mof_H 	H 	0.2799	0.7012	0.9193	0.091
Mof_H 	H 	0.2744	0.7189	0.8639	0.092
Mof_C 	C 	0.24	0.7225	0.9264	0.454
Mof_C 	C 	0.1357	0.8868	0.039	0.52
Mof_H 	H 	0.1167	0.891	0.0205	-0.194
Mof_C 	C 	0.1093	0.6012	0.954	0.617
Mof_H 	H 	0.093	0.5762	0.9706	-0.196
Mof_C 	C 	0.39	0.8536	0.9554	0.546
Mof_H 	H 	0.4133	0.8761	0.9689	-0.173
Mof_C 	C 	0.2559	0.7586	0.1829	-0.312
Mof_H 	H 	0.2493	0.7725	0.2109	0.11
Mof_H 	H 	0.2539	0.7345	0.1995	0.095
Mof_C 	C 	0.2462	0.8914	0.1355	-0.368
Mof_H 	H 	0.2377	0.8847	0.1735	0.117
Mof_H 	H 	0.2719	0.9166	0.1352	0.113
Mof_Tb	Tb	0.88015	0.11554	0.3415	2.146
Mof_Tb	Tb	0.77122	0.2298	0.50032	1.375
Mof_Cu	Cu	0.86007	0.19255	0.37672	0.903
Mof_Cu	Cu	0.80418	0.03483	0.41609	0.868
Mof_Cu	Cu	0.96168	0.14156	0.42779	0.868
Mof_Cu	Cu	0.87189	0.17915	0.24749	0.862
Mof_Cu	Cu	0.81341	0.01988	0.28557	0.91
Mof_Cu	Cu	0.97266	0.12841	0.29932	0.906
Mof_O 	O 	0.89832	0.17454	0.40209	-0.614
Mof_O 	O 	0.94267	0.18499	0.46803	-0.442
Mof_O 	O 	0.82276	0.09325	0.40457	-0.614
Mof_O 	O 	0.80746	0.14064	0.42713	-0.417
Mof_O 	O 	0.90402	0.09854	0.42541	-0.619
Mof_O 	O 	0.85595	0.05066	0.47673	-0.445
Mof_O 	O 	0.91155	0.1615	0.26167	-0.603
Mof_O 	O 	0.96955	0.16894	0.23043	-0.415
Mof_O 	O 	0.83293	0.07808	0.26715	-0.604
Mof_O 	O 	0.83333	0.11729	0.19979	-0.439
Mof_O 	O 	0.91437	0.08648	0.29031	-0.605
Mof_O 	O 	0.87307	0.02737	0.25023	-0.424
Mof_O 	O 	0.84736	0.15355	0.31713	-0.602
Mof_O 	O 	0.84034	0.04186	0.35586	-0.583
Mof_O 	O 	0.95234	0.15241	0.35288	-0.599
Mof_O 	O 	0.82475	0.21064	0.34398	-0.488
Mof_O 	O 	0.80467	0.22416	0.42333	-0.575
Mof_O 	O 	0.78447	0.96481	0.31433	-0.537
Mof_O 	O 	0.78714	0.93435	0.23993	-0.573
Mof_O 	O 	0.02789	0.16885	0.32153	-0.5
Mof_O 	O 	0.05722	0.17783	0.23973	-0.55
Mof_N 	N 	0.88267	0.23043	0.43913	-0.262
Mof_H 	H 	0.89427	0.25613	0.42673	0.064
Mof_H 	H 	0.86247	0.22643	0.46213	0.079
Mof_N 	N 	0.76807	0.03783	0.47143	-0.271
Mof_H 	H 	0.74237	0.01753	0.46613	0.061
Mof_H 	H 	0.77587	0.03513	0.50533	0.084
Mof_N 	N 	0.96367	0.11803	0.49873	-0.276
Mof_H 	H 	0.97657	0.10373	0.49513	0.064
Mof_H 	H 	0.97707	0.13783	0.52363	0.085
Mof_N 	N 	0.90493	0.20553	0.18203	-0.272
Mof_H 	H 	0.88917	0.19703	0.15183	0.082
Mof_H 	H 	0.91597	0.23263	0.18463	0.062
Mof_N 	N 	0.78817	0.00923	0.21323	-0.264
Mof_H 	H 	0.79457	0.99293	0.19413	0.074
Mof_H 	H 	0.76097	0.99633	0.21693	0.065
Mof_N 	N 	0.98175	0.09463	0.24703	-0.272
Mof_H 	H 	0.99137	0.10833	0.21533	0.082
Mof_H 	H 	0.00057	0.08923	0.26063	0.069
Mof_C 	C 	0.91827	0.19223	0.44473	0.491
Mof_C 	C 	0.76987	0.07673	0.46653	-0.361
Mof_H 	H 	0.77367	0.08863	0.50283	0.117
Mof_H 	H 	0.74407	0.07223	0.45263	0.106
Mof_C 	C 	0.80227	0.10573	0.43053	0.475
Mof_C 	C 	0.89067	0.07873	0.46883	0.469
Mof_C 	C 	0.93607	0.19553	0.17763	-0.325
Mof_H 	H 	0.96167	0.22023	0.17133	0.1
Mof_H 	H 	0.93067	0.17813	0.14583	0.105
Mof_C 	C 	0.94037	0.17443	0.22723	0.456
Mof_C 	C 	0.80157	0.04633	0.18393	-0.325
Mof_H 	H 	0.77807	0.04613	0.16793	0.093
Mof_H 	H 	0.81897	0.04753	0.15393	0.098
Mof_C 	C 	0.82417	0.08383	0.21833	0.461
Mof_C 	C 	0.94437	0.05673	0.23663	-0.313
Mof_H 	H 	0.94657	0.03453	0.25263	0.091
Mof_H 	H 	0.94107	0.05223	0.19723	0.092
Mof_C 	C 	0.90667	0.05583	0.25973	0.454
Mof_C 	C 	0.80237	0.22013	0.37233	0.52
Mof_H 	H 	0.78337	0.22433	0.35383	-0.194
Mof_C 	C 	0.77597	0.93453	0.28733	0.617
Mof_H 	H 	0.75967	0.90953	0.30393	-0.197
Mof_C 	C 	0.05667	0.18693	0.28873	0.547
Mof_H 	H 	0.07997	0.20943	0.30223	-0.173
Mof_C 	C 	0.92257	0.09193	0.51623	-0.312
Mof_H 	H 	0.91597	0.10583	0.54423	0.11
Mof_H 	H 	0.92057	0.06783	0.53283	0.095
Mof_C 	C 	0.91287	0.22473	0.46883	-0.368
Mof_H 	H 	0.90437	0.21803	0.50683	0.117
Mof_H 	H 	0.93857	0.24993	0.46853	0.113
Mof_Tb	Tb	0.54681	0.44888	0.67484	2.146
Mof_Tb	Tb	0.43789	0.56313	0.83365	1.376
Mof_Cu	Cu	0.52673	0.52589	0.71006	0.903
Mof_Cu	Cu	0.47084	0.36817	0.74943	0.868
Mof_Cu	Cu	0.62834	0.4749	0.76113	0.868
Mof_Cu	Cu	0.53855	0.51249	0.58083	0.862
Mof_Cu	Cu	0.48007	0.35322	0.61891	0.91
Mof_Cu	Cu	0.63932	0.46175	0.63266	0.906
Mof_O 	O 	0.56498	0.50788	0.73543	-0.614
Mof_O 	O 	0.60933	0.51833	0.80137	-0.442
Mof_O 	O 	0.48942	0.42659	0.73791	-0.614
Mof_O 	O 	0.47412	0.47398	0.76047	-0.417
Mof_O 	O 	0.57068	0.43188	0.75875	-0.619
Mof_O 	O 	0.52261	0.384	0.81007	-0.445
Mof_O 	O 	0.57821	0.49484	0.59501	-0.603
Mof_O 	O 	0.63621	0.50228	0.56377	-0.415
Mof_O 	O 	0.49959	0.41142	0.60049	-0.604
Mof_O 	O 	0.49999	0.45063	0.53313	-0.439
Mof_O 	O 	0.58103	0.41982	0.62365	-0.605
Mof_O 	O 	0.53973	0.36071	0.58357	-0.424
Mof_O 	O 	0.51402	0.48689	0.65047	-0.602
Mof_O 	O 	0.507	0.3752	0.6892	-0.583
Mof_O 	O 	0.619	0.48575	0.68622	-0.599
Mof_O 	O 	0.49141	0.54398	0.67732	-0.488
Mof_O 	O 	0.47133	0.5575	0.75667	-0.575
Mof_O 	O 	0.45113	0.29815	0.64767	-0.537
Mof_O 	O 	0.4538	0.26769	0.57327	-0.573
Mof_O 	O 	0.69455	0.50219	0.65487	-0.5
Mof_O 	O 	0.72388	0.51117	0.57307	-0.55
Mof_N 	N 	0.54933	0.56377	0.77247	-0.262
Mof_H 	H 	0.56093	0.58947	0.76007	0.064
Mof_H 	H 	0.52913	0.55977	0.79547	0.079
Mof_N 	N 	0.43473	0.37117	0.80477	-0.271
Mof_H 	H 	0.40903	0.35087	0.79947	0.061
Mof_H 	H 	0.44253	0.36847	0.83867	0.084
Mof_N 	N 	0.63033	0.45137	0.83207	-0.276
Mof_H 	H 	0.64323	0.43707	0.82847	0.064
Mof_H 	H 	0.64373	0.47117	0.85697	0.085
Mof_N 	N 	0.57159	0.53887	0.51537	-0.272
Mof_H 	H 	0.55583	0.53037	0.48517	0.082
Mof_H 	H 	0.58263	0.56597	0.51797	0.062
Mof_N 	N 	0.45483	0.34257	0.54657	-0.264
Mof_H 	H 	0.46123	0.32627	0.52747	0.074
Mof_H 	H 	0.42763	0.32967	0.55027	0.065
Mof_N 	N 	0.64841	0.42797	0.58037	-0.272
Mof_H 	H 	0.65803	0.44167	0.54867	0.082
Mof_H 	H 	0.66723	0.42257	0.59397	0.069
Mof_C 	C 	0.58493	0.52557	0.77807	0.491
Mof_C 	C 	0.43653	0.41007	0.79987	-0.361
Mof_H 	H 	0.44033	0.42197	0.83617	0.117
Mof_H 	H 	0.41073	0.40557	0.78597	0.106
Mof_C 	C 	0.46893	0.43907	0.76387	0.475
Mof_C 	C 	0.55733	0.41207	0.80217	0.469
Mof_C 	C 	0.60273	0.52887	0.51097	-0.325
Mof_H 	H 	0.62833	0.55357	0.50467	0.1
Mof_H 	H 	0.59733	0.51147	0.47917	0.105
Mof_C 	C 	0.60703	0.50777	0.56057	0.456
Mof_C 	C 	0.46823	0.37967	0.51727	-0.325
Mof_H 	H 	0.44473	0.37947	0.50127	0.093
Mof_H 	H 	0.48563	0.38087	0.48727	0.097
Mof_C 	C 	0.49083	0.41717	0.55167	0.46
Mof_C 	C 	0.61103	0.39007	0.56997	-0.313
Mof_H 	H 	0.61323	0.36787	0.58597	0.091
Mof_H 	H 	0.60773	0.38557	0.53057	0.092
Mof_C 	C 	0.57333	0.38917	0.59307	0.454
Mof_C 	C 	0.46903	0.55347	0.70567	0.52
Mof_H 	H 	0.45003	0.55767	0.68717	-0.194
Mof_C 	C 	0.44263	0.26787	0.62067	0.617
Mof_H 	H 	0.42633	0.24287	0.63727	-0.197
Mof_C 	C 	0.72333	0.52027	0.62207	0.547
Mof_H 	H 	0.74663	0.54277	0.63557	-0.173
Mof_C 	C 	0.58923	0.42527	0.84957	-0.312
Mof_H 	H 	0.58263	0.43917	0.87757	0.11
Mof_H 	H 	0.58723	0.40117	0.86617	0.095
Mof_C 	C 	0.57953	0.55807	0.80217	-0.368
Mof_H 	H 	0.57103	0.55137	0.84017	0.117
Mof_H 	H 	0.60523	0.58327	0.80187	0.113
Mof_Tb	Tb	0.78221	0.56873	0.99183	2.146
Mof_Tb	Tb	0.89646	0.79191	0.83301	1.376
Mof_Cu	Cu	0.85922	0.66582	0.95661	0.903
Mof_Cu	Cu	0.7015	0.56399	0.91724	0.868
Mof_Cu	Cu	0.80823	0.51322	0.90554	0.868
Mof_Cu	Cu	0.84582	0.6406	0.08584	0.862
Mof_Cu	Cu	0.68655	0.53981	0.04776	0.91
Mof_Cu	Cu	0.79508	0.48909	0.03401	0.906
Mof_O 	O 	0.84121	0.60956	0.93124	-0.614
Mof_O 	O 	0.85166	0.57566	0.8653	-0.442
Mof_O 	O 	0.75992	0.60383	0.92876	-0.614
Mof_O 	O 	0.80731	0.66652	0.9062	-0.417
Mof_O 	O 	0.76521	0.52786	0.90792	-0.619
Mof_O 	O 	0.71733	0.52805	0.8566	-0.445
Mof_O 	O 	0.82817	0.58329	0.07166	-0.603
Mof_O 	O 	0.83561	0.53273	0.1029	-0.415
Mof_O 	O 	0.74475	0.57849	0.06618	-0.604
Mof_O 	O 	0.78396	0.6173	0.13354	-0.439
Mof_O 	O 	0.75315	0.50545	0.04302	-0.605
Mof_O 	O 	0.69404	0.48764	0.0831	-0.424
Mof_O 	O 	0.82022	0.63953	0.0162	-0.601
Mof_O 	O 	0.70853	0.53486	0.97747	-0.583
Mof_O 	O 	0.81908	0.53341	0.98045	-0.599
Mof_O 	O 	0.87731	0.71923	0.98935	-0.488
Mof_O 	O 	0.89083	0.75283	0.91	-0.575
Mof_O 	O 	0.63148	0.51368	0.019	-0.537
Mof_O 	O 	0.60102	0.48055	0.0934	-0.573
Mof_O 	O 	0.83552	0.4743	0.0118	-0.5
Mof_O 	O 	0.8445	0.45395	0.0936	-0.55
Mof_N 	N 	0.8971	0.6811	0.8942	-0.262
Mof_H 	H 	0.9228	0.6952	0.9066	0.064
Mof_H 	H 	0.8931	0.6973	0.8712	0.078
Mof_N 	N 	0.7045	0.6031	0.8619	-0.271
Mof_H 	H 	0.6842	0.6085	0.8672	0.061
Mof_H 	H 	0.7018	0.5926	0.828	0.084
Mof_N 	N 	0.7847	0.4877	0.8346	-0.276
Mof_H 	H 	0.7704	0.4605	0.8382	0.064
Mof_H 	H 	0.8045	0.4941	0.8097	0.085
Mof_N 	N 	0.8722	0.63394	0.1513	-0.272
Mof_H 	H 	0.8637	0.6412	0.1815	0.082
Mof_H 	H 	0.8993	0.65	0.1487	0.062
Mof_N 	N 	0.6759	0.5544	0.1201	-0.264
Mof_H 	H 	0.6596	0.5317	0.1392	0.074
Mof_H 	H 	0.663	0.5687	0.1164	0.065
Mof_N 	N 	0.7613	0.44622	0.0863	-0.272
Mof_H 	H 	0.775	0.4503	0.118	0.082
Mof_H 	H 	0.7559	0.422	0.0727	0.069
Mof_C 	C 	0.8589	0.6073	0.8886	0.491
Mof_C 	C 	0.7434	0.6402	0.8668	-0.361
Mof_H 	H 	0.7553	0.6483	0.8305	0.117
Mof_H 	H 	0.7389	0.6615	0.8807	0.106
Mof_C 	C 	0.7724	0.6368	0.9028	0.475
Mof_C 	C 	0.7454	0.5214	0.8645	0.469
Mof_C 	C 	0.8622	0.5928	0.1557	-0.325
Mof_H 	H 	0.8869	0.5919	0.162	0.1
Mof_H 	H 	0.8448	0.5808	0.1875	0.105
Mof_C 	C 	0.8411	0.5674	0.1061	0.456
Mof_C 	C 	0.713	0.5781	0.1494	-0.325
Mof_H 	H 	0.7128	0.6014	0.1654	0.093
Mof_H 	H 	0.7142	0.5619	0.1794	0.097
Mof_C 	C 	0.7505	0.593	0.115	0.46
Mof_C 	C 	0.7234	0.4457	0.0967	-0.313
Mof_H 	H 	0.7012	0.4213	0.0807	0.091
Mof_H 	H 	0.7189	0.4445	0.1361	0.092
Mof_C 	C 	0.7225	0.4825	0.0736	0.454
Mof_C 	C 	0.8868	0.7511	0.961	0.52
Mof_H 	H 	0.891	0.7743	0.9795	-0.194
Mof_C 	C 	0.6012	0.4919	0.046	0.617
Mof_H 	H 	0.5762	0.4832	0.0294	-0.197
Mof_C 	C 	0.8536	0.4636	0.0446	0.547
Mof_H 	H 	0.8761	0.4628	0.0311	-0.173
Mof_C 	C 	0.7586	0.5027	0.8171	-0.312
Mof_H 	H 	0.7725	0.5232	0.7891	0.11
Mof_H 	H 	0.7345	0.4806	0.8005	0.095
Mof_C 	C 	0.8914	0.6452	0.8645	-0.368
Mof_H 	H 	0.8847	0.647	0.8265	0.117
Mof_H 	H 	0.9166	0.6447	0.8648	0.113
Mof_Tb	Tb	0.44888	0.90206	0.32516	2.146
Mof_Tb	Tb	0.56313	0.12524	0.16635	1.376
Mof_Cu	Cu	0.52589	0.99915	0.28994	0.903
Mof_Cu	Cu	0.36817	0.89732	0.25057	0.868
Mof_Cu	Cu	0.4749	0.84655	0.23887	0.868
Mof_Cu	Cu	0.51249	0.97393	0.41917	0.862
Mof_Cu	Cu	0.35322	0.87314	0.38109	0.91
Mof_Cu	Cu	0.46175	0.82242	0.36734	0.906
Mof_O 	O 	0.50788	0.94289	0.26457	-0.614
Mof_O 	O 	0.51833	0.90899	0.19863	-0.442
Mof_O 	O 	0.42659	0.93716	0.26209	-0.614
Mof_O 	O 	0.47398	0.99985	0.23953	-0.417
Mof_O 	O 	0.43188	0.86119	0.24125	-0.619
Mof_O 	O 	0.384	0.86138	0.18993	-0.445
Mof_O 	O 	0.49484	0.91662	0.40499	-0.603
Mof_O 	O 	0.50228	0.86606	0.43623	-0.415
Mof_O 	O 	0.41142	0.91182	0.39951	-0.604
Mof_O 	O 	0.45063	0.95063	0.46687	-0.439
Mof_O 	O 	0.41982	0.83878	0.37635	-0.605
Mof_O 	O 	0.36071	0.82097	0.41643	-0.424
Mof_O 	O 	0.48689	0.97286	0.34953	-0.602
Mof_O 	O 	0.3752	0.86819	0.3108	-0.583
Mof_O 	O 	0.48575	0.86674	0.31378	-0.599
Mof_O 	O 	0.54398	0.05256	0.32268	-0.488
Mof_O 	O 	0.5575	0.08616	0.24333	-0.575
Mof_O 	O 	0.29815	0.84701	0.35233	-0.537
Mof_O 	O 	0.26769	0.81388	0.42673	-0.573
Mof_O 	O 	0.50219	0.80763	0.34513	-0.5
Mof_O 	O 	0.51117	0.78728	0.42693	-0.55
Mof_N 	N 	0.56377	0.01443	0.22753	-0.262
Mof_H 	H 	0.58947	0.02853	0.23993	0.064
Mof_H 	H 	0.55977	0.03063	0.20453	0.079
Mof_N 	N 	0.37117	0.93643	0.19523	-0.271
Mof_H 	H 	0.35087	0.94183	0.20053	0.061
Mof_H 	H 	0.36847	0.92593	0.16133	0.084
Mof_N 	N 	0.45137	0.82103	0.16793	-0.276
Mof_H 	H 	0.43707	0.79383	0.17153	0.064
Mof_H 	H 	0.47117	0.82743	0.14303	0.085
Mof_N 	N 	0.53887	0.96727	0.48463	-0.272
Mof_H 	H 	0.53037	0.97453	0.51483	0.082
Mof_H 	H 	0.56597	0.98333	0.48203	0.062
Mof_N 	N 	0.34257	0.88773	0.45343	-0.264
Mof_H 	H 	0.32627	0.86503	0.47253	0.074
Mof_H 	H 	0.32967	0.90203	0.44973	0.065
Mof_N 	N 	0.42797	0.77955	0.41963	-0.272
Mof_H 	H 	0.44167	0.78363	0.45133	0.082
Mof_H 	H 	0.42257	0.75533	0.40603	0.069
Mof_C 	C 	0.52557	0.94063	0.22193	0.491
Mof_C 	C 	0.41007	0.97353	0.20013	-0.361
Mof_H 	H 	0.42197	0.98163	0.16383	0.117
Mof_H 	H 	0.40557	0.99483	0.21403	0.106
Mof_C 	C 	0.43907	0.97013	0.23613	0.475
Mof_C 	C 	0.41207	0.85473	0.19783	0.469
Mof_C 	C 	0.52887	0.92613	0.48903	-0.325
Mof_H 	H 	0.55357	0.92523	0.49533	0.1
Mof_H 	H 	0.51147	0.91413	0.52083	0.105
Mof_C 	C 	0.50777	0.90073	0.43943	0.456
Mof_C 	C 	0.37967	0.91143	0.48273	-0.325
Mof_H 	H 	0.37947	0.93473	0.49873	0.093
Mof_H 	H 	0.38087	0.89523	0.51273	0.097
Mof_C 	C 	0.41717	0.92633	0.44833	0.46
Mof_C 	C 	0.39007	0.77903	0.43003	-0.313
Mof_H 	H 	0.36787	0.75463	0.41403	0.091
Mof_H 	H 	0.38557	0.77783	0.46943	0.092
Mof_C 	C 	0.38917	0.81583	0.40693	0.454
Mof_C 	C 	0.55347	0.08443	0.29433	0.52
Mof_H 	H 	0.55767	0.10763	0.31283	-0.194
Mof_C 	C 	0.26787	0.82523	0.37933	0.617
Mof_H 	H 	0.24287	0.81653	0.36273	-0.197
Mof_C 	C 	0.52027	0.79693	0.37793	0.547
Mof_H 	H 	0.54277	0.79613	0.36443	-0.173
Mof_C 	C 	0.42527	0.83603	0.15043	-0.312
Mof_H 	H 	0.43917	0.85653	0.12243	0.11
Mof_H 	H 	0.40117	0.81393	0.13383	0.095
Mof_C 	C 	0.55807	0.97853	0.19783	-0.368
Mof_H 	H 	0.55137	0.98033	0.15983	0.117
Mof_H 	H 	0.58327	0.97803	0.19813	0.113
Mof_Tb	Tb	0.11554	0.2354	0.6585	2.146
Mof_Tb	Tb	0.2298	0.45858	0.49968	1.375
Mof_Cu	Cu	0.19255	0.33249	0.62328	0.903
Mof_Cu	Cu	0.03483	0.23066	0.58391	0.868
Mof_Cu	Cu	0.14156	0.17989	0.57221	0.868
Mof_Cu	Cu	0.17915	0.30727	0.75251	0.862
Mof_Cu	Cu	0.01988	0.20648	0.71443	0.91
Mof_Cu	Cu	0.12841	0.15576	0.70068	0.906
Mof_O 	O 	0.17454	0.27623	0.59791	-0.614
Mof_O 	O 	0.18499	0.24233	0.53197	-0.442
Mof_O 	O 	0.09325	0.2705	0.59543	-0.614
Mof_O 	O 	0.14064	0.33319	0.57287	-0.417
Mof_O 	O 	0.09854	0.19453	0.57459	-0.619
Mof_O 	O 	0.05066	0.19472	0.52327	-0.445
Mof_O 	O 	0.1615	0.24996	0.73833	-0.603
Mof_O 	O 	0.16894	0.1994	0.76957	-0.415
Mof_O 	O 	0.07808	0.24516	0.73285	-0.604
Mof_O 	O 	0.11729	0.28397	0.80021	-0.439
Mof_O 	O 	0.08648	0.17212	0.70969	-0.605
Mof_O 	O 	0.02737	0.15431	0.74977	-0.424
Mof_O 	O 	0.15355	0.3062	0.68287	-0.602
Mof_O 	O 	0.04186	0.20153	0.64414	-0.583
Mof_O 	O 	0.15241	0.20008	0.64712	-0.599
Mof_O 	O 	0.21064	0.3859	0.65602	-0.488
Mof_O 	O 	0.22416	0.4195	0.57667	-0.575
Mof_O 	O 	0.96481	0.18035	0.68567	-0.537
Mof_O 	O 	0.93435	0.14722	0.76007	-0.573
Mof_O 	O 	0.16885	0.14097	0.67847	-0.5
Mof_O 	O 	0.17783	0.12062	0.76027	-0.55
Mof_N 	N 	0.23043	0.34777	0.56087	-0.262
Mof_H 	H 	0.25613	0.36187	0.57327	0.064
Mof_H 	H 	0.22643	0.36397	0.53787	0.079
Mof_N 	N 	0.03783	0.26977	0.52857	-0.271
Mof_H 	H 	0.01753	0.27517	0.53387	0.061
Mof_H 	H 	0.03513	0.25927	0.49467	0.084
Mof_N 	N 	0.11803	0.15437	0.50127	-0.276
Mof_H 	H 	0.10373	0.12717	0.50487	0.064
Mof_H 	H 	0.13783	0.16077	0.47637	0.085
Mof_N 	N 	0.20553	0.30061	0.81797	-0.272
Mof_H 	H 	0.19703	0.30787	0.84817	0.082
Mof_H 	H 	0.23263	0.31667	0.81537	0.062
Mof_N 	N 	0.00923	0.22107	0.78677	-0.264
Mof_H 	H 	0.99293	0.19837	0.80587	0.073
Mof_H 	H 	0.99633	0.23537	0.78307	0.065
Mof_N 	N 	0.09463	0.11289	0.75297	-0.272
Mof_H 	H 	0.10833	0.11697	0.78467	0.082
Mof_H 	H 	0.08923	0.08867	0.73937	0.069
Mof_C 	C 	0.19223	0.27397	0.55527	0.491
Mof_C 	C 	0.07673	0.30687	0.53347	-0.361
Mof_H 	H 	0.08863	0.31497	0.49717	0.117
Mof_H 	H 	0.07223	0.32817	0.54737	0.106
Mof_C 	C 	0.10573	0.30347	0.56947	0.475
Mof_C 	C 	0.07873	0.18807	0.53117	0.469
Mof_C 	C 	0.19553	0.25947	0.82237	-0.325
Mof_H 	H 	0.22023	0.25857	0.82867	0.1
Mof_H 	H 	0.17813	0.24747	0.85417	0.105
Mof_C 	C 	0.17443	0.23407	0.77277	0.456
Mof_C 	C 	0.04633	0.24477	0.81607	-0.325
Mof_H 	H 	0.04613	0.26807	0.83207	0.093
Mof_H 	H 	0.04753	0.22857	0.84607	0.098
Mof_C 	C 	0.08383	0.25967	0.78167	0.46
Mof_C 	C 	0.05673	0.11237	0.76337	-0.313
Mof_H 	H 	0.03453	0.08797	0.74737	0.091
Mof_H 	H 	0.05223	0.11117	0.80277	0.092
Mof_C 	C 	0.05583	0.14917	0.74027	0.454
Mof_C 	C 	0.22013	0.41777	0.62767	0.52
Mof_H 	H 	0.22433	0.44097	0.64617	-0.194
Mof_C 	C 	0.93453	0.15857	0.71267	0.617
Mof_H 	H 	0.90953	0.14987	0.69607	-0.197
Mof_C 	C 	0.18693	0.13027	0.71127	0.547
Mof_H 	H 	0.20943	0.12947	0.69777	-0.173
Mof_C 	C 	0.09193	0.16937	0.48377	-0.312
Mof_H 	H 	0.10583	0.18987	0.45577	0.11
Mof_H 	H 	0.06783	0.14727	0.46717	0.095
Mof_C 	C 	0.22473	0.31187	0.53117	-0.368
Mof_H 	H 	0.21803	0.31367	0.49317	0.117
Mof_H 	H 	0.24993	0.31137	0.53147	0.113
Mof_Tb	Tb	0.43127	0.21348	0.99183	2.146
Mof_Tb	Tb	0.20809	0.10455	0.83301	1.376
Mof_Cu	Cu	0.33418	0.1934	0.95661	0.903
Mof_Cu	Cu	0.43601	0.13751	0.91724	0.868
Mof_Cu	Cu	0.48678	0.29501	0.90554	0.868
Mof_Cu	Cu	0.3594	0.20522	0.08584	0.862
Mof_Cu	Cu	0.46019	0.14674	0.04776	0.91
Mof_Cu	Cu	0.51091	0.30599	0.03401	0.906
Mof_O 	O 	0.39044	0.23165	0.93124	-0.614
Mof_O 	O 	0.42434	0.276	0.8653	-0.442
Mof_O 	O 	0.39617	0.15609	0.92876	-0.614
Mof_O 	O 	0.33348	0.14079	0.9062	-0.417
Mof_O 	O 	0.47214	0.23735	0.90792	-0.619
Mof_O 	O 	0.47195	0.18928	0.8566	-0.445
Mof_O 	O 	0.41671	0.24488	0.07166	-0.603
Mof_O 	O 	0.46727	0.30288	0.1029	-0.415
Mof_O 	O 	0.42151	0.16626	0.06618	-0.604
Mof_O 	O 	0.3827	0.16666	0.13354	-0.439
Mof_O 	O 	0.49455	0.2477	0.04302	-0.605
Mof_O 	O 	0.51236	0.2064	0.0831	-0.424
Mof_O 	O 	0.36047	0.18069	0.0162	-0.601
Mof_O 	O 	0.46514	0.17367	0.97747	-0.583
Mof_O 	O 	0.46659	0.28567	0.98045	-0.599
Mof_O 	O 	0.28077	0.15808	0.98935	-0.488
Mof_O 	O 	0.24717	0.138	0.91	-0.575
Mof_O 	O 	0.48632	0.1178	0.019	-0.537
Mof_O 	O 	0.51945	0.12047	0.0934	-0.573
Mof_O 	O 	0.5257	0.36122	0.0118	-0.5
Mof_O 	O 	0.54605	0.39055	0.0936	-0.55
Mof_N 	N 	0.3189	0.216	0.8942	-0.262
Mof_H 	H 	0.3048	0.2276	0.9066	0.064
Mof_H 	H 	0.3027	0.1958	0.8712	0.079
Mof_N 	N 	0.3969	0.1014	0.8619	-0.271
Mof_H 	H 	0.3915	0.0757	0.8672	0.061
Mof_H 	H 	0.4074	0.1092	0.828	0.084
Mof_N 	N 	0.5123	0.297	0.8346	-0.276
Mof_H 	H 	0.5395	0.3099	0.8382	0.064
Mof_H 	H 	0.5059	0.3104	0.8097	0.085
Mof_N 	N 	0.36606	0.23826	0.1513	-0.272
Mof_H 	H 	0.3588	0.2225	0.1815	0.082
Mof_H 	H 	0.35	0.2493	0.1487	0.062
Mof_N 	N 	0.4456	0.1215	0.1201	-0.264
Mof_H 	H 	0.4683	0.1279	0.1392	0.074
Mof_H 	H 	0.4313	0.0943	0.1164	0.065
Mof_N 	N 	0.55378	0.31508	0.0863	-0.272
Mof_H 	H 	0.5497	0.3247	0.118	0.082
Mof_H 	H 	0.578	0.3339	0.0727	0.069
Mof_C 	C 	0.3927	0.2516	0.8886	0.491
Mof_C 	C 	0.3598	0.1032	0.8668	-0.361
Mof_H 	H 	0.3517	0.107	0.8305	0.117
Mof_H 	H 	0.3385	0.0774	0.8807	0.106
Mof_C 	C 	0.3632	0.1356	0.9028	0.475
Mof_C 	C 	0.4786	0.224	0.8645	0.469
Mof_C 	C 	0.4072	0.2694	0.1557	-0.325
Mof_H 	H 	0.4081	0.295	0.162	0.1
Mof_H 	H 	0.4192	0.264	0.1875	0.105
Mof_C 	C 	0.4326	0.2737	0.1061	0.456
Mof_C 	C 	0.4219	0.1349	0.1494	-0.325
Mof_H 	H 	0.3986	0.1114	0.1654	0.093
Mof_H 	H 	0.4381	0.1523	0.1794	0.097
Mof_C 	C 	0.407	0.1575	0.115	0.46
Mof_C 	C 	0.5543	0.2777	0.0967	-0.313
Mof_H 	H 	0.5787	0.2799	0.0807	0.091
Mof_H 	H 	0.5555	0.2744	0.1361	0.092
Mof_C 	C 	0.5175	0.24	0.0736	0.454
Mof_C 	C 	0.2489	0.1357	0.961	0.52
Mof_H 	H 	0.2257	0.1167	0.9795	-0.194
Mof_C 	C 	0.5081	0.1093	0.046	0.617
Mof_H 	H 	0.5168	0.093	0.0294	-0.196
Mof_C 	C 	0.5364	0.39	0.0446	0.547
Mof_H 	H 	0.5372	0.4133	0.0311	-0.173
Mof_C 	C 	0.4973	0.2559	0.8171	-0.312
Mof_H 	H 	0.4768	0.2493	0.7891	0.11
Mof_H 	H 	0.5194	0.2539	0.8005	0.095
Mof_C 	C 	0.3548	0.2462	0.8645	-0.368
Mof_H 	H 	0.353	0.2377	0.8265	0.117
Mof_H 	H 	0.3553	0.2719	0.8648	0.113
Mof_Tb	Tb	0.09794	0.54681	0.32516	2.146
Mof_Tb	Tb	0.87476	0.43789	0.16635	1.376
Mof_Cu	Cu	0.00085	0.52673	0.28994	0.903
Mof_Cu	Cu	0.10268	0.47084	0.25057	0.868
Mof_Cu	Cu	0.15345	0.62834	0.23887	0.868
Mof_Cu	Cu	0.02607	0.53855	0.41917	0.862
Mof_Cu	Cu	0.12686	0.48007	0.38109	0.91
Mof_Cu	Cu	0.17758	0.63932	0.36734	0.906
Mof_O 	O 	0.05711	0.56498	0.26457	-0.614
Mof_O 	O 	0.09101	0.60933	0.19863	-0.442
Mof_O 	O 	0.06284	0.48942	0.26209	-0.614
Mof_O 	O 	0.00015	0.47412	0.23953	-0.417
Mof_O 	O 	0.13881	0.57068	0.24125	-0.619
Mof_O 	O 	0.13862	0.52261	0.18993	-0.445
Mof_O 	O 	0.08338	0.57821	0.40499	-0.603
Mof_O 	O 	0.13394	0.63621	0.43623	-0.415
Mof_O 	O 	0.08818	0.49959	0.39951	-0.604
Mof_O 	O 	0.04937	0.49999	0.46687	-0.439
Mof_O 	O 	0.16122	0.58103	0.37635	-0.605
Mof_O 	O 	0.17903	0.53973	0.41643	-0.424
Mof_O 	O 	0.02714	0.51402	0.34953	-0.602
Mof_O 	O 	0.13181	0.507	0.3108	-0.583
Mof_O 	O 	0.13326	0.619	0.31378	-0.599
Mof_O 	O 	0.94744	0.49141	0.32268	-0.488
Mof_O 	O 	0.91384	0.47133	0.24333	-0.575
Mof_O 	O 	0.15299	0.45113	0.35233	-0.537
Mof_O 	O 	0.18612	0.4538	0.42673	-0.573
Mof_O 	O 	0.19237	0.69455	0.34513	-0.5
Mof_O 	O 	0.21272	0.72388	0.42693	-0.55
Mof_N 	N 	0.98557	0.54933	0.22753	-0.262
Mof_H 	H 	0.97147	0.56093	0.23993	0.064
Mof_H 	H 	0.96937	0.52913	0.20453	0.079
Mof_N 	N 	0.06357	0.43473	0.19523	-0.271
Mof_H 	H 	0.05817	0.40903	0.20053	0.061
Mof_H 	H 	0.07407	0.44253	0.16133	0.084
Mof_N 	N 	0.17897	0.63033	0.16793	-0.276
Mof_H 	H 	0.20617	0.64323	0.17153	0.064
Mof_H 	H 	0.17257	0.64373	0.14303	0.085
Mof_N 	N 	0.03273	0.57159	0.48463	-0.272
Mof_H 	H 	0.02547	0.55583	0.51483	0.082
Mof_H 	H 	0.01667	0.58263	0.48203	0.062
Mof_N 	N 	0.11227	0.45483	0.45343	-0.264
Mof_H 	H 	0.13497	0.46123	0.47253	0.074
Mof_H 	H 	0.09797	0.42763	0.44973	0.065
Mof_N 	N 	0.22045	0.64841	0.41963	-0.272
Mof_H 	H 	0.21637	0.65803	0.45133	0.082
Mof_H 	H 	0.24467	0.66723	0.40603	0.069
Mof_C 	C 	0.05937	0.58493	0.22193	0.491
Mof_C 	C 	0.02647	0.43653	0.20013	-0.361
Mof_H 	H 	0.01837	0.44033	0.16383	0.117
Mof_H 	H 	0.00517	0.41073	0.21403	0.106
Mof_C 	C 	0.02987	0.46893	0.23613	0.475
Mof_C 	C 	0.14527	0.55733	0.19783	0.469
Mof_C 	C 	0.07387	0.60273	0.48903	-0.325
Mof_H 	H 	0.07477	0.62833	0.49533	0.1
Mof_H 	H 	0.08587	0.59733	0.52083	0.105
Mof_C 	C 	0.09927	0.60703	0.43943	0.456
Mof_C 	C 	0.08857	0.46823	0.48273	-0.325
Mof_H 	H 	0.06527	0.44473	0.49873	0.093
Mof_H 	H 	0.10477	0.48563	0.51273	0.097
Mof_C 	C 	0.07367	0.49083	0.44833	0.46
Mof_C 	C 	0.22097	0.61103	0.43003	-0.313
Mof_H 	H 	0.24537	0.61323	0.41403	0.091
Mof_H 	H 	0.22217	0.60773	0.46943	0.092
Mof_C 	C 	0.18417	0.57333	0.40693	0.454
Mof_C 	C 	0.91557	0.46903	0.29433	0.52
Mof_H 	H 	0.89237	0.45003	0.31283	-0.194
Mof_C 	C 	0.17477	0.44263	0.37933	0.617
Mof_H 	H 	0.18347	0.42633	0.36273	-0.197
Mof_C 	C 	0.20307	0.72333	0.37793	0.547
Mof_H 	H 	0.20387	0.74663	0.36443	-0.173
Mof_C 	C 	0.16397	0.58923	0.15043	-0.312
Mof_H 	H 	0.14347	0.58263	0.12243	0.11
Mof_H 	H 	0.18607	0.58723	0.13383	0.095
Mof_C 	C 	0.02147	0.57953	0.19783	-0.368
Mof_H 	H 	0.01967	0.57103	0.15983	0.117
Mof_H 	H 	0.02197	0.60523	0.19813	0.113
Mof_Tb	Tb	0.7646	0.88015	0.6585	2.146
Mof_Tb	Tb	0.54142	0.77122	0.49968	1.375
Mof_Cu	Cu	0.66751	0.86007	0.62328	0.903
Mof_Cu	Cu	0.76934	0.80418	0.58391	0.868
Mof_Cu	Cu	0.82011	0.96168	0.57221	0.868
Mof_Cu	Cu	0.69273	0.87189	0.75251	0.862
Mof_Cu	Cu	0.79352	0.81341	0.71443	0.91
Mof_Cu	Cu	0.84424	0.97266	0.70068	0.906
Mof_O 	O 	0.72377	0.89832	0.59791	-0.614
Mof_O 	O 	0.75767	0.94267	0.53197	-0.442
Mof_O 	O 	0.7295	0.82276	0.59543	-0.614
Mof_O 	O 	0.66681	0.80746	0.57287	-0.417
Mof_O 	O 	0.80547	0.90402	0.57459	-0.619
Mof_O 	O 	0.80528	0.85595	0.52327	-0.445
Mof_O 	O 	0.75004	0.91155	0.73833	-0.603
Mof_O 	O 	0.8006	0.96955	0.76957	-0.415
Mof_O 	O 	0.75484	0.83293	0.73285	-0.604
Mof_O 	O 	0.71603	0.83333	0.80021	-0.439
Mof_O 	O 	0.82788	0.91437	0.70969	-0.605
Mof_O 	O 	0.84569	0.87307	0.74977	-0.424
Mof_O 	O 	0.6938	0.84736	0.68287	-0.602
Mof_O 	O 	0.79847	0.84034	0.64414	-0.583
Mof_O 	O 	0.79992	0.95234	0.64712	-0.599
Mof_O 	O 	0.6141	0.82475	0.65602	-0.488
Mof_O 	O 	0.5805	0.80467	0.57667	-0.575
Mof_O 	O 	0.81965	0.78447	0.68567	-0.537
Mof_O 	O 	0.85278	0.78714	0.76007	-0.573
Mof_O 	O 	0.85903	0.02789	0.67847	-0.5
Mof_O 	O 	0.87938	0.05722	0.76027	-0.55
Mof_N 	N 	0.65223	0.88267	0.56087	-0.262
Mof_H 	H 	0.63813	0.89427	0.57327	0.064
Mof_H 	H 	0.63603	0.86247	0.53787	0.079
Mof_N 	N 	0.73023	0.76807	0.52857	-0.271
Mof_H 	H 	0.72483	0.74237	0.53387	0.061
Mof_H 	H 	0.74073	0.77587	0.49467	0.084
Mof_N 	N 	0.84563	0.96367	0.50127	-0.276
Mof_H 	H 	0.87283	0.97657	0.50487	0.064
Mof_H 	H 	0.83923	0.97707	0.47637	0.085
Mof_N 	N 	0.69939	0.90493	0.81797	-0.272
Mof_H 	H 	0.69213	0.88917	0.84817	0.082
Mof_H 	H 	0.68333	0.91597	0.81537	0.062
Mof_N 	N 	0.77893	0.78817	0.78677	-0.264
Mof_H 	H 	0.80163	0.79457	0.80587	0.074
Mof_H 	H 	0.76463	0.76097	0.78307	0.065
Mof_N 	N 	0.88711	0.98175	0.75297	-0.272
Mof_H 	H 	0.88303	0.99137	0.78467	0.082
Mof_H 	H 	0.91133	0.00057	0.73937	0.069
Mof_C 	C 	0.72603	0.91827	0.55527	0.491
Mof_C 	C 	0.69313	0.76987	0.53347	-0.361
Mof_H 	H 	0.68503	0.77367	0.49717	0.117
Mof_H 	H 	0.67183	0.74407	0.54737	0.106
Mof_C 	C 	0.69653	0.80227	0.56947	0.475
Mof_C 	C 	0.81193	0.89067	0.53117	0.469
Mof_C 	C 	0.74053	0.93607	0.82237	-0.325
Mof_H 	H 	0.74143	0.96167	0.82867	0.1
Mof_H 	H 	0.75253	0.93067	0.85417	0.105
Mof_C 	C 	0.76593	0.94037	0.77277	0.456
Mof_C 	C 	0.75523	0.80157	0.81607	-0.325
Mof_H 	H 	0.73193	0.77807	0.83207	0.093
Mof_H 	H 	0.77143	0.81897	0.84607	0.097
Mof_C 	C 	0.74033	0.82417	0.78167	0.46
Mof_C 	C 	0.88763	0.94437	0.76337	-0.313
Mof_H 	H 	0.91203	0.94657	0.74737	0.091
Mof_H 	H 	0.88883	0.94107	0.80277	0.092
Mof_C 	C 	0.85083	0.90667	0.74027	0.454
Mof_C 	C 	0.58223	0.80237	0.62767	0.52
Mof_H 	H 	0.55903	0.78337	0.64617	-0.194
Mof_C 	C 	0.84143	0.77597	0.71267	0.617
Mof_H 	H 	0.85013	0.75967	0.69607	-0.197
Mof_C 	C 	0.86973	0.05667	0.71127	0.547
Mof_H 	H 	0.87053	0.07997	0.69777	-0.173
Mof_C 	C 	0.83063	0.92257	0.48377	-0.312
Mof_H 	H 	0.81013	0.91597	0.45577	0.11
Mof_H 	H 	0.85273	0.92057	0.46717	0.095
Mof_C 	C 	0.68813	0.91287	0.53117	-0.368
Mof_H 	H 	0.68633	0.90437	0.49317	0.117
Mof_H 	H 	0.68863	0.93857	0.53147	0.113
Mof_Tb	Tb	0.78652	0.21779	0.99183	2.145
Mof_Tb	Tb	0.89545	0.10354	0.83301	1.375
Mof_Cu	Cu	0.8066	0.14078	0.95661	0.903
Mof_Cu	Cu	0.86249	0.2985	0.91724	0.868
Mof_Cu	Cu	0.70499	0.19177	0.90554	0.868
Mof_Cu	Cu	0.79478	0.15418	0.08584	0.862
Mof_Cu	Cu	0.85326	0.31345	0.04776	0.91
Mof_Cu	Cu	0.69401	0.20492	0.03401	0.906
Mof_O 	O 	0.76835	0.15879	0.93124	-0.614
Mof_O 	O 	0.724	0.14834	0.8653	-0.442
Mof_O 	O 	0.84391	0.24008	0.92876	-0.614
Mof_O 	O 	0.85921	0.19269	0.9062	-0.417
Mof_O 	O 	0.76265	0.23479	0.90792	-0.619
Mof_O 	O 	0.81072	0.28267	0.8566	-0.445
Mof_O 	O 	0.75512	0.17183	0.07166	-0.603
Mof_O 	O 	0.69712	0.16439	0.1029	-0.415
Mof_O 	O 	0.83374	0.25525	0.06618	-0.604
Mof_O 	O 	0.83334	0.21604	0.13354	-0.439
Mof_O 	O 	0.7523	0.24685	0.04302	-0.605
Mof_O 	O 	0.7936	0.30596	0.0831	-0.424
Mof_O 	O 	0.81931	0.17978	0.0162	-0.601
Mof_O 	O 	0.82633	0.29147	0.97747	-0.583
Mof_O 	O 	0.71433	0.18092	0.98045	-0.599
Mof_O 	O 	0.84192	0.12269	0.98935	-0.488
Mof_O 	O 	0.862	0.10917	0.91	-0.575
Mof_O 	O 	0.8822	0.36852	0.019	-0.537
Mof_O 	O 	0.87953	0.39898	0.0934	-0.573
Mof_O 	O 	0.63878	0.16448	0.0118	-0.499
Mof_O 	O 	0.60945	0.1555	0.0936	-0.55
Mof_N 	N 	0.784	0.1029	0.8942	-0.262
Mof_H 	H 	0.7724	0.0772	0.9066	0.064
Mof_H 	H 	0.8042	0.1069	0.8712	0.078
Mof_N 	N 	0.8986	0.2955	0.8619	-0.271
Mof_H 	H 	0.9243	0.3158	0.8672	0.061
Mof_H 	H 	0.8908	0.2982	0.828	0.084
Mof_N 	N 	0.703	0.2153	0.8346	-0.276
Mof_H 	H 	0.6901	0.2296	0.8382	0.064
Mof_H 	H 	0.6896	0.1955	0.8097	0.085
Mof_N 	N 	0.76174	0.1278	0.1513	-0.272
Mof_H 	H 	0.7775	0.1363	0.1815	0.082
Mof_H 	H 	0.7507	0.1007	0.1487	0.062
Mof_N 	N 	0.8785	0.3241	0.1201	-0.264
Mof_H 	H 	0.8721	0.3404	0.1392	0.074
Mof_H 	H 	0.9057	0.337	0.1164	0.065
Mof_N 	N 	0.68492	0.2387	0.0863	-0.272
Mof_H 	H 	0.6753	0.225	0.118	0.082
Mof_H 	H 	0.6661	0.2441	0.0727	0.069
Mof_C 	C 	0.7484	0.1411	0.8886	0.491
Mof_C 	C 	0.8968	0.2566	0.8668	-0.361
Mof_H 	H 	0.893	0.2447	0.8305	0.117
Mof_H 	H 	0.9226	0.2611	0.8807	0.106
Mof_C 	C 	0.8644	0.2276	0.9028	0.475
Mof_C 	C 	0.776	0.2546	0.8645	0.469
Mof_C 	C 	0.7306	0.1378	0.1557	-0.325
Mof_H 	H 	0.705	0.1131	0.162	0.1
Mof_H 	H 	0.736	0.1552	0.1875	0.105
Mof_C 	C 	0.7263	0.1589	0.1061	0.456
Mof_C 	C 	0.8651	0.287	0.1494	-0.325
Mof_H 	H 	0.8886	0.2872	0.1654	0.093
Mof_H 	H 	0.8477	0.2858	0.1794	0.097
Mof_C 	C 	0.8425	0.2495	0.115	0.46
Mof_C 	C 	0.7223	0.2766	0.0967	-0.313
Mof_H 	H 	0.7201	0.2988	0.0807	0.091
Mof_H 	H 	0.7256	0.2811	0.1361	0.092
Mof_C 	C 	0.76	0.2775	0.0736	0.454
Mof_C 	C 	0.8643	0.1132	0.961	0.52
Mof_H 	H 	0.8833	0.109	0.9795	-0.194
Mof_C 	C 	0.8907	0.3988	0.046	0.617
Mof_H 	H 	0.907	0.4238	0.0294	-0.196
Mof_C 	C 	0.61	0.1464	0.0446	0.546
Mof_H 	H 	0.5867	0.1239	0.0311	-0.173
Mof_C 	C 	0.7441	0.2414	0.8171	-0.312
Mof_H 	H 	0.7507	0.2275	0.7891	0.11
Mof_H 	H 	0.7461	0.2655	0.8005	0.095
Mof_C 	C 	0.7538	0.1086	0.8645	-0.368
Mof_H 	H 	0.7623	0.1153	0.8265	0.117
Mof_H 	H 	0.7281	0.0834	0.8648	0.113
Mof_Tb	Tb	0.45319	0.55112	0.32516	2.146
Mof_Tb	Tb	0.56211	0.43687	0.16635	1.376
Mof_Cu	Cu	0.47327	0.47411	0.28994	0.903
Mof_Cu	Cu	0.52916	0.63183	0.25057	0.868
Mof_Cu	Cu	0.37166	0.5251	0.23887	0.868
Mof_Cu	Cu	0.46145	0.48751	0.41917	0.862
Mof_Cu	Cu	0.51993	0.64678	0.38109	0.91
Mof_Cu	Cu	0.36068	0.53825	0.36734	0.906
Mof_O 	O 	0.43502	0.49212	0.26457	-0.614
Mof_O 	O 	0.39067	0.48167	0.19863	-0.442
Mof_O 	O 	0.51058	0.57341	0.26209	-0.614
Mof_O 	O 	0.52588	0.52602	0.23953	-0.417
Mof_O 	O 	0.42932	0.56812	0.24125	-0.619
Mof_O 	O 	0.47739	0.616	0.18993	-0.445
Mof_O 	O 	0.42179	0.50516	0.40499	-0.603
Mof_O 	O 	0.36379	0.49772	0.43623	-0.415
Mof_O 	O 	0.50041	0.58858	0.39951	-0.604
Mof_O 	O 	0.50001	0.54937	0.46687	-0.439
Mof_O 	O 	0.41897	0.58018	0.37635	-0.605
Mof_O 	O 	0.46027	0.63929	0.41643	-0.424
Mof_O 	O 	0.48598	0.51311	0.34953	-0.602
Mof_O 	O 	0.493	0.6248	0.3108	-0.583
Mof_O 	O 	0.381	0.51425	0.31378	-0.599
Mof_O 	O 	0.50859	0.45602	0.32268	-0.488
Mof_O 	O 	0.52867	0.4425	0.24333	-0.575
Mof_O 	O 	0.54887	0.70185	0.35233	-0.537
Mof_O 	O 	0.5462	0.73231	0.42673	-0.573
Mof_O 	O 	0.30545	0.49781	0.34513	-0.5
Mof_O 	O 	0.27612	0.48883	0.42693	-0.55
Mof_N 	N 	0.45067	0.43623	0.22753	-0.262
Mof_H 	H 	0.43907	0.41053	0.23993	0.064
Mof_H 	H 	0.47087	0.44023	0.20453	0.079
Mof_N 	N 	0.56527	0.62883	0.19523	-0.271
Mof_H 	H 	0.59097	0.64913	0.20053	0.061
Mof_H 	H 	0.55747	0.63153	0.16133	0.084
Mof_N 	N 	0.36967	0.54863	0.16793	-0.276
Mof_H 	H 	0.35677	0.56293	0.17153	0.064
Mof_H 	H 	0.35627	0.52883	0.14303	0.085
Mof_N 	N 	0.42841	0.46113	0.48463	-0.272
Mof_H 	H 	0.44417	0.46963	0.51483	0.082
Mof_H 	H 	0.41737	0.43403	0.48203	0.062
Mof_N 	N 	0.54517	0.65743	0.45343	-0.264
Mof_H 	H 	0.53877	0.67373	0.47253	0.074
Mof_H 	H 	0.57237	0.67033	0.44973	0.065
Mof_N 	N 	0.35159	0.57203	0.41963	-0.272
Mof_H 	H 	0.34197	0.55833	0.45133	0.082
Mof_H 	H 	0.33277	0.57743	0.40603	0.069
Mof_C 	C 	0.41507	0.47443	0.22193	0.491
Mof_C 	C 	0.56347	0.58993	0.20013	-0.361
Mof_H 	H 	0.55967	0.57803	0.16383	0.117
Mof_H 	H 	0.58927	0.59443	0.21403	0.106
Mof_C 	C 	0.53107	0.56093	0.23613	0.475
Mof_C 	C 	0.44267	0.58793	0.19783	0.469
Mof_C 	C 	0.39727	0.47113	0.48903	-0.325
Mof_H 	H 	0.37167	0.44643	0.49533	0.1
Mof_H 	H 	0.40267	0.48853	0.52083	0.105
Mof_C 	C 	0.39297	0.49223	0.43943	0.456
Mof_C 	C 	0.53177	0.62033	0.48273	-0.325
Mof_H 	H 	0.55527	0.62053	0.49873	0.093
Mof_H 	H 	0.51437	0.61913	0.51273	0.097
Mof_C 	C 	0.50917	0.58283	0.44833	0.46
Mof_C 	C 	0.38897	0.60993	0.43003	-0.313
Mof_H 	H 	0.38677	0.63213	0.41403	0.091
Mof_H 	H 	0.39227	0.61443	0.46943	0.092
Mof_C 	C 	0.42667	0.61083	0.40693	0.454
Mof_C 	C 	0.53097	0.44653	0.29433	0.52
Mof_H 	H 	0.54997	0.44233	0.31283	-0.194
Mof_C 	C 	0.55737	0.73213	0.37933	0.617
Mof_H 	H 	0.57367	0.75713	0.36273	-0.197
Mof_C 	C 	0.27667	0.47973	0.37793	0.547
Mof_H 	H 	0.25337	0.45723	0.36443	-0.173
Mof_C 	C 	0.41077	0.57473	0.15043	-0.312
Mof_H 	H 	0.41737	0.56083	0.12243	0.11
Mof_H 	H 	0.41277	0.59883	0.13383	0.095
Mof_C 	C 	0.42047	0.44193	0.19783	-0.368
Mof_H 	H 	0.42897	0.44863	0.15983	0.117
Mof_H 	H 	0.39477	0.41673	0.19813	0.113
Mof_Tb	Tb	0.11985	0.88446	0.6585	2.146
Mof_Tb	Tb	0.22878	0.7702	0.49968	1.375
Mof_Cu	Cu	0.13993	0.80745	0.62328	0.903
Mof_Cu	Cu	0.19582	0.96517	0.58391	0.868
Mof_Cu	Cu	0.03832	0.85844	0.57221	0.868
Mof_Cu	Cu	0.12811	0.82085	0.75251	0.862
Mof_Cu	Cu	0.18659	0.98012	0.71443	0.91
Mof_Cu	Cu	0.02734	0.87159	0.70068	0.906
Mof_O 	O 	0.10168	0.82546	0.59791	-0.614
Mof_O 	O 	0.05733	0.81501	0.53197	-0.442
Mof_O 	O 	0.17724	0.90675	0.59543	-0.614
Mof_O 	O 	0.19254	0.85936	0.57287	-0.417
Mof_O 	O 	0.09598	0.90146	0.57459	-0.619
Mof_O 	O 	0.14405	0.94934	0.52327	-0.445
Mof_O 	O 	0.08845	0.8385	0.73833	-0.603
Mof_O 	O 	0.03045	0.83106	0.76957	-0.415
Mof_O 	O 	0.16707	0.92192	0.73285	-0.604
Mof_O 	O 	0.16667	0.88271	0.80021	-0.439
Mof_O 	O 	0.08563	0.91352	0.70969	-0.605
Mof_O 	O 	0.12693	0.97263	0.74977	-0.424
Mof_O 	O 	0.15264	0.84645	0.68287	-0.602
Mof_O 	O 	0.15966	0.95814	0.64414	-0.583
Mof_O 	O 	0.04766	0.84759	0.64712	-0.599
Mof_O 	O 	0.17525	0.78936	0.65602	-0.488
Mof_O 	O 	0.19533	0.77584	0.57667	-0.575
Mof_O 	O 	0.21553	0.03519	0.68567	-0.537
Mof_O 	O 	0.21286	0.06565	0.76007	-0.573
Mof_O 	O 	0.97211	0.83115	0.67847	-0.5
Mof_O 	O 	0.94278	0.82217	0.76027	-0.55
Mof_N 	N 	0.11733	0.76957	0.56087	-0.262
Mof_H 	H 	0.10573	0.74387	0.57327	0.064
Mof_H 	H 	0.13753	0.77357	0.53787	0.079
Mof_N 	N 	0.23193	0.96217	0.52857	-0.271
Mof_H 	H 	0.25763	0.98247	0.53387	0.061
Mof_H 	H 	0.22413	0.96487	0.49467	0.084
Mof_N 	N 	0.03633	0.88197	0.50127	-0.276
Mof_H 	H 	0.02343	0.89627	0.50487	0.064
Mof_H 	H 	0.02293	0.86217	0.47637	0.085
Mof_N 	N 	0.09507	0.79447	0.81797	-0.272
Mof_H 	H 	0.11083	0.80297	0.84817	0.082
Mof_H 	H 	0.08403	0.76737	0.81537	0.062
Mof_N 	N 	0.21183	0.99077	0.78677	-0.264
Mof_H 	H 	0.20543	0.00707	0.80587	0.074
Mof_H 	H 	0.23903	0.00367	0.78307	0.065
Mof_N 	N 	0.01825	0.90537	0.75297	-0.272
Mof_H 	H 	0.00863	0.89167	0.78467	0.082
Mof_H 	H 	0.99943	0.91077	0.73937	0.069
Mof_C 	C 	0.08173	0.80777	0.55527	0.491
Mof_C 	C 	0.23013	0.92327	0.53347	-0.361
Mof_H 	H 	0.22633	0.91137	0.49717	0.117
Mof_H 	H 	0.25593	0.92777	0.54737	0.106
Mof_C 	C 	0.19773	0.89427	0.56947	0.475
Mof_C 	C 	0.10933	0.92127	0.53117	0.469
Mof_C 	C 	0.06393	0.80447	0.82237	-0.325
Mof_H 	H 	0.03833	0.77977	0.82867	0.1
Mof_H 	H 	0.06933	0.82187	0.85417	0.105
Mof_C 	C 	0.05963	0.82557	0.77277	0.456
Mof_C 	C 	0.19843	0.95367	0.81607	-0.325
Mof_H 	H 	0.22193	0.95387	0.83207	0.093
Mof_H 	H 	0.18103	0.95247	0.84607	0.098
Mof_C 	C 	0.17583	0.91617	0.78167	0.461
Mof_C 	C 	0.05563	0.94327	0.76337	-0.313
Mof_H 	H 	0.05343	0.96547	0.74737	0.091
Mof_H 	H 	0.05893	0.94777	0.80277	0.092
Mof_C 	C 	0.09333	0.94417	0.74027	0.454
Mof_C 	C 	0.19763	0.77987	0.62767	0.52
Mof_H 	H 	0.21663	0.77567	0.64617	-0.194
Mof_C 	C 	0.22403	0.06547	0.71267	0.617
Mof_H 	H 	0.24033	0.09047	0.69607	-0.197
Mof_C 	C 	0.94333	0.81307	0.71127	0.547
Mof_H 	H 	0.92003	0.79057	0.69777	-0.173
Mof_C 	C 	0.07743	0.90807	0.48377	-0.312
Mof_H 	H 	0.08403	0.89417	0.45577	0.11
Mof_H 	H 	0.07943	0.93217	0.46717	0.095
Mof_C 	C 	0.08713	0.77527	0.53117	-0.368
Mof_H 	H 	0.09563	0.78197	0.49317	0.117
Mof_H 	H 	0.06143	0.75007	0.53147	0.113
_end
