# CIF file generated by openbabel 3.1.0, see https://openbabel.org
data_I
_chemical_name_common 'image0'
_cell_length_a 17.046
_cell_length_b 24.0462
_cell_length_c 28.8442
_cell_angle_alpha 90
_cell_angle_beta 90
_cell_angle_gamma 90
_space_group_name_H-M_alt 'P 1'
_space_group_name_Hall 'P 1'
loop_
    _symmetry_equiv_pos_as_xyz
    x,y,z
loop_
    _atom_site_label
    _atom_site_type_symbol
    _atom_site_fract_x
    _atom_site_fract_y
    _atom_site_fract_z
    _atom_site_occupancy
    Cd1      Cd       0.59146    0.59846    0.70902    1.000
    Cd2      Cd       0.90933    0.67107    0.20919    1.000
    O1       O        0.58070    0.15410    0.67330    1.000
    O2       O        0.59430    0.04120    0.67300    1.000
    O3       O        0.71410    0.62070    0.66347    1.000
    O4       O        0.59960    0.60340    0.62933    1.000
    O5       O        0.82880    0.67440    0.27286    1.000
    O6       O        0.45500    0.59290    0.70340    1.000
    O7       O        0.33230    0.59870    0.72590    1.000
    O8       O        0.88410    0.22540    0.19000    1.000
    O9       O        0.90050    0.11600    0.19100    1.000
    O10      O        0.09420    0.66820    0.37120    1.000
    O11      O        0.21210    0.67580    0.34000    1.000
    O12      O        0.95270    0.66620    0.29540    1.000
    N1       N        0.63370    0.15240    0.76460    1.000
    N2       N        0.65650    0.04490    0.76170    1.000
    N3       N        0.57190    0.69310    0.70940    1.000
    N4       N        0.58610    0.50430    0.70400    1.000
    N5       N        0.91970    0.76600    0.20950    1.000
    N6       N        0.90690    0.57480    0.21310    1.000
    N7       N        0.81730    0.22250    0.27510    1.000
    N8       N        0.85070    0.11530    0.28120    1.000
    C1       C        0.58220    0.20900    0.67710    1.000
    C2       C        0.56610    0.24330    0.63840    1.000
    C3       C        0.56480    0.30050    0.64500    1.000
    H1       H        0.55250    0.32340    0.61920    1.000
    C4       C        0.58040    0.32600    0.68720    1.000
    C5       C        0.59980    0.29320    0.72420    1.000
    H2       H        0.61240    0.30990    0.75310    1.000
    C6       C        0.60110    0.23440    0.71990    1.000
    C7       C        0.55170    0.21750    0.59110    1.000
    C8       C        0.48040    0.17850    0.59180    1.000
    H3       H        0.48760    0.15040    0.61600    1.000
    H4       H        0.47530    0.16020    0.56160    1.000
    H5       H        0.43290    0.20010    0.59830    1.000
    C9       C        0.53450    0.26160    0.55240    1.000
    H6       H        0.48010    0.27430    0.55500    1.000
    H7       H        0.54260    0.24470    0.52180    1.000
    H8       H        0.57000    0.29330    0.55610    1.000
    C10      C        0.62780    0.18440    0.57510    1.000
    H9       H        0.67170    0.21050    0.57150    1.000
    H10      H        0.61760    0.16610    0.54540    1.000
    H11      H        0.64120    0.15640    0.59840    1.000
    C11      C        0.58000    0.38810    0.69240    1.000
    C12      C        0.54690    0.42250    0.66300    1.000
    H12      H        0.52040    0.40730    0.63690    1.000
    C13      C        0.61810    0.41350    0.73020    1.000
    H13      H        0.64180    0.39150    0.75370    1.000
    C14      C        0.62260    0.20550    0.76180    1.000
    H14      H        0.62900    0.22690    0.78920    1.000
    C15      C        0.65100    0.12610    0.81080    1.000
    H15      H        0.60000    0.11480    0.82510    1.000
    C16      C        0.69520    0.16210    0.84560    1.000
    H16      H        0.66400    0.19560    0.85320    1.000
    H17      H        0.74590    0.17410    0.83220    1.000
    C17      C        0.70910    0.12740    0.88930    1.000
    H18      H        0.73820    0.15010    0.91220    1.000
    H19      H        0.65800    0.11720    0.90310    1.000
    C18      C        0.75490    0.07530    0.87910    1.000
    H20      H        0.76150    0.05360    0.90800    1.000
    H21      H        0.80770    0.08540    0.86760    1.000
    C19      C        0.71350    0.04010    0.84340    1.000
    H22      H        0.66310    0.02670    0.85620    1.000
    H23      H        0.74620    0.00730    0.83600    1.000
    C20      C        0.69820    0.07290    0.79960    1.000
    H24      H        0.75030    0.08490    0.78720    1.000
    C21      C        0.64270    0.99350    0.76090    1.000
    H25      H        0.65600    0.97300    0.78790    1.000
    C22      C        0.60880    0.96280    0.72330    1.000
    C23      C        0.59860    0.90460    0.72980    1.000
    H26      H        0.61000    0.88880    0.75920    1.000
    C24      C        0.57300    0.87080    0.69480    1.000
    C25      C        0.55730    0.89560    0.65140    1.000
    H27      H        0.53860    0.87280    0.62690    1.000
    C26      C        0.56810    0.95230    0.64310    1.000
    C27      C        0.59080    0.98650    0.68030    1.000
    C28      C        0.55590    0.97640    0.59400    1.000
    C29      C        0.63300    0.00650    0.57760    1.000
    H28      H        0.67800    0.98170    0.58200    1.000
    H29      H        0.64070    0.04050    0.59590    1.000
    H30      H        0.62840    0.01620    0.54470    1.000
    C30      C        0.53810    0.92980    0.55780    1.000
    H31      H        0.57450    0.89870    0.56240    1.000
    H32      H        0.54450    0.94470    0.52640    1.000
    H33      H        0.48410    0.91660    0.56190    1.000
    C31      C        0.48690    0.01600    0.59340    1.000
    H34      H        0.48760    0.03750    0.56460    1.000
    H35      H        0.49050    0.04130    0.62000    1.000
    H36      H        0.43790    0.99470    0.59540    1.000
    C32      C        0.56810    0.81010    0.70120    1.000
    C33      C        0.60300    0.78360    0.73870    1.000
    H37      H        0.62560    0.80530    0.76280    1.000
    C34      C        0.60560    0.72640    0.74170    1.000
    H38      H        0.63190    0.70970    0.76720    1.000
    C35      C        0.53610    0.71780    0.67390    1.000
    H39      H        0.51180    0.69490    0.65110    1.000
    C36      C        0.53230    0.77520    0.66810    1.000
    H40      H        0.50580    0.79070    0.64220    1.000
    C37      C        0.62080    0.47100    0.73270    1.000
    H41      H        0.65020    0.48720    0.75720    1.000
    C38      C        0.54860    0.48030    0.66800    1.000
    H42      H        0.52290    0.50300    0.64580    1.000
    C39      C        0.67180    0.61790    0.62850    1.000
    C40      C        0.70510    0.62990    0.58150    1.000
    C41      C        0.65710    0.62380    0.54210    1.000
    H43      H        0.60370    0.61330    0.54580    1.000
    C42      C        0.68680    0.63300    0.49810    1.000
    H44      H        0.65340    0.62880    0.47190    1.000
    C43      C        0.76620    0.64830    0.49150    1.000
    C44      C        0.81440    0.65440    0.53160    1.000
    H45      H        0.86780    0.66500    0.52850    1.000
    C45      C        0.78250    0.64450    0.57540    1.000
    H46      H        0.81520    0.64810    0.60180    1.000
    C46      C        0.79810    0.65610    0.44410    1.000
    C47      C        0.75000    0.67360    0.40920    1.000
    H47      H        0.69710    0.68310    0.41600    1.000
    C48      C        0.77710    0.67780    0.36380    1.000
    H48      H        0.74240    0.68840    0.33960    1.000
    C49      C        0.85410    0.66650    0.35410    1.000
    C50      C        0.90530    0.65090    0.38890    1.000
    H49      H        0.95890    0.64360    0.38210    1.000
    C51      C        0.87730    0.64630    0.43380    1.000
    H50      H        0.91230    0.63630    0.45800    1.000
    C52      C        0.87970    0.66930    0.30410    1.000
    C53      C        0.38400    0.59960    0.69510    1.000
    C54      C        0.35630    0.61110    0.64650    1.000
    C55      C        0.27760    0.62380    0.63960    1.000
    H51      H        0.24280    0.62600    0.66530    1.000
    C56      C        0.25000    0.63330    0.59520    1.000
    H52      H        0.19570    0.64020    0.59050    1.000
    C57      C        0.30000    0.63300    0.55720    1.000
    C58      C        0.37910    0.62200    0.56440    1.000
    H53      H        0.41470    0.62190    0.53910    1.000
    C59      C        0.40610    0.61090    0.60950    1.000
    H54      H        0.46010    0.60310    0.61440    1.000
    C60      C        0.26680    0.64300    0.50940    1.000
    C61      C        0.19210    0.62580    0.49880    1.000
    H55      H        0.16220    0.60630    0.52130    1.000
    C62      C        0.15990    0.63650    0.45590    1.000
    H56      H        0.10740    0.62550    0.44960    1.000
    C63      C        0.20300    0.66290    0.42200    1.000
    C64      C        0.27940    0.67900    0.43220    1.000
    H57      H        0.31150    0.69450    0.40860    1.000
    C65      C        0.30870    0.67240    0.47630    1.000
    H58      H        0.35810    0.68820    0.48410    1.000
    C66      C        0.91870    0.94530    0.20360    1.000
    C67      C        0.92340    0.88330    0.20670    1.000
    C68      C        0.88050    0.85460    0.23960    1.000
    H59      H        0.85100    0.87440    0.26210    1.000
    C69      C        0.88040    0.79620    0.23990    1.000
    H60      H        0.85070    0.77760    0.26310    1.000
    C70      C        0.96170    0.79320    0.17820    1.000
    H61      H        0.99190    0.77210    0.15690    1.000
    C71      C        0.96410    0.85120    0.17460    1.000
    H62      H        0.99320    0.86850    0.15050    1.000
    C72      C        0.85060    0.54650    0.23480    1.000
    H63      H        0.81150    0.56640    0.25130    1.000
    C73      C        0.84730    0.48850    0.23400    1.000
    H64      H        0.80590    0.46990    0.24950    1.000
    C74      C        0.90240    0.45850    0.21130    1.000
    C75      C        0.96210    0.48760    0.19060    1.000
    H65      H        0.00350    0.46800    0.17570    1.000
    C76      C        0.96260    0.54600    0.19120    1.000
    H66      H        0.00350    0.56540    0.17580    1.000
    C77      C        0.89590    0.39730    0.20740    1.000
    C78      C        0.86190    0.36480    0.24040    1.000
    H67      H        0.84100    0.38160    0.26750    1.000
    C79      C        0.85720    0.30620    0.23490    1.000
    C80      C        0.88600    0.27970    0.19540    1.000
    C81      C        0.92160    0.31360    0.15990    1.000
    C82      C        0.92610    0.37060    0.16790    1.000
    H68      H        0.95130    0.39300    0.14510    1.000
    C83      C        0.95790    0.28650    0.11690    1.000
    C84      C        0.89880    0.24950    0.09040    1.000
    H69      H        0.88400    0.21780    0.10980    1.000
    H70      H        0.92310    0.23600    0.06170    1.000
    H71      H        0.85190    0.27130    0.08280    1.000
    C85      C        0.02760    0.25170    0.13200    1.000
    H72      H        0.06870    0.27610    0.14420    1.000
    H73      H        0.04800    0.23100    0.10540    1.000
    H74      H        0.01100    0.22560    0.15620    1.000
    C86      C        0.98770    0.33070    0.08230    1.000
    H75      H        0.94930    0.36090    0.08000    1.000
    H76      H        0.99470    0.31360    0.05170    1.000
    H77      H        0.03790    0.34560    0.09310    1.000
    C87      C        0.81970    0.27530    0.27300    1.000
    H78      H        0.79620    0.29590    0.29740    1.000
    C88      C        0.77710    0.19260    0.31430    1.000
    H79      H        0.72670    0.17750    0.30190    1.000
    C89      C        0.75720    0.22710    0.35620    1.000
    H80      H        0.71930    0.25640    0.34740    1.000
    H81      H        0.80530    0.24540    0.36800    1.000
    C90      C        0.72110    0.18950    0.39490    1.000
    H82      H        0.71520    0.21170    0.42360    1.000
    H83      H        0.66820    0.17730    0.38510    1.000
    C91      C        0.77050    0.13890    0.40520    1.000
    H84      H        0.74300    0.11510    0.42800    1.000
    H85      H        0.82090    0.15070    0.41910    1.000
    C92      C        0.78660    0.10520    0.36050    1.000
    H86      H        0.81820    0.07180    0.36790    1.000
    H87      H        0.73630    0.09280    0.34670    1.000
    C93      C        0.83070    0.14170    0.32620    1.000
    H88      H        0.87990    0.15550    0.34120    1.000
    C94      C        0.86660    0.06400    0.27960    1.000
    H89      H        0.86240    0.04300    0.30740    1.000
    C95      C        0.89100    0.03540    0.23780    1.000
    C96      C        0.89720    0.97680    0.24110    1.000
    H90      H        0.88630    0.95900    0.26980    1.000
    C97      C        0.93150    0.97120    0.16140    1.000
    H91      H        0.94600    0.94910    0.13550    1.000
    C98      C        0.92410    0.02850    0.15560    1.000
    C99      C        0.90560    0.06110    0.19390    1.000
    C100     C        0.93120    0.05490    0.10650    1.000
    C101     C        0.85480    0.08430    0.09410    1.000
    H92      H        0.81080    0.05860    0.09820    1.000
    H93      H        0.85690    0.09660    0.06170    1.000
    H94      H        0.84770    0.11660    0.11440    1.000
    C102     C        0.94930    0.01190    0.06720    1.000
    H95      H        0.99350    0.98830    0.07660    1.000
    H96      H        0.96280    0.03170    0.03860    1.000
    H97      H        0.90300    0.98860    0.06180    1.000
    C103     C        0.99890    0.09750    0.10470    1.000
    H98      H        0.98690    0.12890    0.12520    1.000
    H99      H        0.00520    0.11100    0.07290    1.000
    H100     H        0.04760    0.07960    0.11490    1.000
    C104     C        0.16850    0.67010    0.37390    1.000
    V1       V        0.64455    0.10030    0.70571    1.000
    V2       V        0.83193    0.16517    0.22345    1.000
    V3       V        0.58400    0.09669    0.72322    1.000
    V4       V        0.90760    0.17458    0.23578    1.000
    Cd3      Cd       0.40854    0.59846    0.79098    1.000
    Cd4      Cd       0.09067    0.67107    0.29081    1.000
    O13      O        0.41930    0.15410    0.82670    1.000
    O14      O        0.40570    0.04120    0.82700    1.000
    O15      O        0.28590    0.62070    0.83653    1.000
    O16      O        0.40040    0.60340    0.87067    1.000
    O17      O        0.17120    0.67440    0.22714    1.000
    O18      O        0.54500    0.59290    0.79660    1.000
    O19      O        0.66770    0.59870    0.77410    1.000
    O20      O        0.11590    0.22540    0.31000    1.000
    O21      O        0.09950    0.11600    0.30900    1.000
    O22      O        0.90580    0.66820    0.12880    1.000
    O23      O        0.78790    0.67580    0.16000    1.000
    O24      O        0.04730    0.66620    0.20460    1.000
    N9       N        0.36630    0.15240    0.73540    1.000
    N10      N        0.34350    0.04490    0.73830    1.000
    N11      N        0.42810    0.69310    0.79060    1.000
    N12      N        0.41390    0.50430    0.79600    1.000
    N13      N        0.08030    0.76600    0.29050    1.000
    N14      N        0.09310    0.57480    0.28690    1.000
    N15      N        0.18270    0.22250    0.22490    1.000
    N16      N        0.14930    0.11530    0.21880    1.000
    C105     C        0.41780    0.20900    0.82290    1.000
    C106     C        0.43390    0.24330    0.86160    1.000
    C107     C        0.43520    0.30050    0.85500    1.000
    H101     H        0.44750    0.32340    0.88080    1.000
    C108     C        0.41960    0.32600    0.81280    1.000
    C109     C        0.40020    0.29320    0.77580    1.000
    H102     H        0.38760    0.30990    0.74690    1.000
    C110     C        0.39890    0.23440    0.78010    1.000
    C111     C        0.44830    0.21750    0.90890    1.000
    C112     C        0.51960    0.17850    0.90820    1.000
    H103     H        0.51240    0.15040    0.88400    1.000
    H104     H        0.52470    0.16020    0.93840    1.000
    H105     H        0.56710    0.20010    0.90170    1.000
    C113     C        0.46550    0.26160    0.94760    1.000
    H106     H        0.51990    0.27430    0.94500    1.000
    H107     H        0.45740    0.24470    0.97820    1.000
    H108     H        0.43000    0.29330    0.94390    1.000
    C114     C        0.37220    0.18440    0.92490    1.000
    H109     H        0.32830    0.21050    0.92850    1.000
    H110     H        0.38240    0.16610    0.95460    1.000
    H111     H        0.35880    0.15640    0.90160    1.000
    C115     C        0.42000    0.38810    0.80760    1.000
    C116     C        0.45310    0.42250    0.83700    1.000
    H112     H        0.47960    0.40730    0.86310    1.000
    C117     C        0.38190    0.41350    0.76980    1.000
    H113     H        0.35820    0.39150    0.74630    1.000
    C118     C        0.37740    0.20550    0.73820    1.000
    H114     H        0.37100    0.22690    0.71080    1.000
    C119     C        0.34900    0.12610    0.68920    1.000
    H115     H        0.40000    0.11480    0.67490    1.000
    C120     C        0.30480    0.16210    0.65440    1.000
    H116     H        0.33600    0.19560    0.64680    1.000
    H117     H        0.25410    0.17410    0.66780    1.000
    C121     C        0.29090    0.12740    0.61070    1.000
    H118     H        0.26180    0.15010    0.58780    1.000
    H119     H        0.34200    0.11720    0.59690    1.000
    C122     C        0.24510    0.07530    0.62090    1.000
    H120     H        0.23850    0.05360    0.59200    1.000
    H121     H        0.19230    0.08540    0.63240    1.000
    C123     C        0.28650    0.04010    0.65660    1.000
    H122     H        0.33690    0.02670    0.64380    1.000
    H123     H        0.25380    0.00730    0.66400    1.000
    C124     C        0.30180    0.07290    0.70040    1.000
    H124     H        0.24970    0.08490    0.71280    1.000
    C125     C        0.35730    0.99350    0.73910    1.000
    H125     H        0.34400    0.97300    0.71210    1.000
    C126     C        0.39120    0.96280    0.77670    1.000
    C127     C        0.40140    0.90460    0.77020    1.000
    H126     H        0.39000    0.88880    0.74080    1.000
    C128     C        0.42700    0.87080    0.80520    1.000
    C129     C        0.44270    0.89560    0.84860    1.000
    H127     H        0.46140    0.87280    0.87310    1.000
    C130     C        0.43190    0.95230    0.85690    1.000
    C131     C        0.40920    0.98650    0.81970    1.000
    C132     C        0.44410    0.97640    0.90600    1.000
    C133     C        0.36700    0.00650    0.92240    1.000
    H128     H        0.32200    0.98170    0.91800    1.000
    H129     H        0.35930    0.04050    0.90410    1.000
    H130     H        0.37160    0.01620    0.95530    1.000
    C134     C        0.46190    0.92980    0.94220    1.000
    H131     H        0.42550    0.89870    0.93760    1.000
    H132     H        0.45550    0.94470    0.97360    1.000
    H133     H        0.51590    0.91660    0.93810    1.000
    C135     C        0.51310    0.01600    0.90660    1.000
    H134     H        0.51240    0.03750    0.93540    1.000
    H135     H        0.50950    0.04130    0.88000    1.000
    H136     H        0.56210    0.99470    0.90460    1.000
    C136     C        0.43190    0.81010    0.79880    1.000
    C137     C        0.39700    0.78360    0.76130    1.000
    H137     H        0.37440    0.80530    0.73720    1.000
    C138     C        0.39440    0.72640    0.75830    1.000
    H138     H        0.36810    0.70970    0.73280    1.000
    C139     C        0.46390    0.71780    0.82610    1.000
    H139     H        0.48820    0.69490    0.84890    1.000
    C140     C        0.46770    0.77520    0.83190    1.000
    H140     H        0.49420    0.79070    0.85780    1.000
    C141     C        0.37920    0.47100    0.76730    1.000
    H141     H        0.34980    0.48720    0.74280    1.000
    C142     C        0.45140    0.48030    0.83200    1.000
    H142     H        0.47710    0.50300    0.85420    1.000
    C143     C        0.32820    0.61790    0.87150    1.000
    C144     C        0.29490    0.62990    0.91850    1.000
    C145     C        0.34290    0.62380    0.95790    1.000
    H143     H        0.39630    0.61330    0.95420    1.000
    C146     C        0.31320    0.63300    0.00190    1.000
    H144     H        0.34660    0.62880    0.02810    1.000
    C147     C        0.23380    0.64830    0.00850    1.000
    C148     C        0.18560    0.65440    0.96840    1.000
    H145     H        0.13220    0.66500    0.97150    1.000
    C149     C        0.21750    0.64450    0.92460    1.000
    H146     H        0.18480    0.64810    0.89820    1.000
    C150     C        0.20190    0.65610    0.05590    1.000
    C151     C        0.25000    0.67360    0.09080    1.000
    H147     H        0.30290    0.68310    0.08400    1.000
    C152     C        0.22290    0.67780    0.13620    1.000
    H148     H        0.25760    0.68840    0.16040    1.000
    C153     C        0.14590    0.66650    0.14590    1.000
    C154     C        0.09470    0.65090    0.11110    1.000
    H149     H        0.04110    0.64360    0.11790    1.000
    C155     C        0.12270    0.64630    0.06620    1.000
    H150     H        0.08770    0.63630    0.04200    1.000
    C156     C        0.12030    0.66930    0.19590    1.000
    C157     C        0.61600    0.59960    0.80490    1.000
    C158     C        0.64370    0.61110    0.85350    1.000
    C159     C        0.72240    0.62380    0.86040    1.000
    H151     H        0.75720    0.62600    0.83470    1.000
    C160     C        0.75000    0.63330    0.90480    1.000
    H152     H        0.80430    0.64020    0.90950    1.000
    C161     C        0.70000    0.63300    0.94280    1.000
    C162     C        0.62090    0.62200    0.93560    1.000
    H153     H        0.58530    0.62190    0.96090    1.000
    C163     C        0.59390    0.61090    0.89050    1.000
    H154     H        0.53990    0.60310    0.88560    1.000
    C164     C        0.73320    0.64300    0.99060    1.000
    C165     C        0.80790    0.62580    0.00120    1.000
    H155     H        0.83780    0.60630    0.97870    1.000
    C166     C        0.84010    0.63650    0.04410    1.000
    H156     H        0.89260    0.62550    0.05040    1.000
    C167     C        0.79700    0.66290    0.07800    1.000
    C168     C        0.72060    0.67900    0.06780    1.000
    H157     H        0.68850    0.69450    0.09140    1.000
    C169     C        0.69130    0.67240    0.02370    1.000
    H158     H        0.64190    0.68820    0.01590    1.000
    C170     C        0.08130    0.94530    0.29640    1.000
    C171     C        0.07660    0.88330    0.29330    1.000
    C172     C        0.11950    0.85460    0.26040    1.000
    H159     H        0.14900    0.87440    0.23790    1.000
    C173     C        0.11960    0.79620    0.26010    1.000
    H160     H        0.14930    0.77760    0.23690    1.000
    C174     C        0.03830    0.79320    0.32180    1.000
    H161     H        0.00810    0.77210    0.34310    1.000
    C175     C        0.03590    0.85120    0.32540    1.000
    H162     H        0.00680    0.86850    0.34950    1.000
    C176     C        0.14940    0.54650    0.26520    1.000
    H163     H        0.18850    0.56640    0.24870    1.000
    C177     C        0.15270    0.48850    0.26600    1.000
    H164     H        0.19410    0.46990    0.25050    1.000
    C178     C        0.09760    0.45850    0.28870    1.000
    C179     C        0.03790    0.48760    0.30940    1.000
    H165     H        0.99650    0.46800    0.32430    1.000
    C180     C        0.03740    0.54600    0.30880    1.000
    H166     H        0.99650    0.56540    0.32420    1.000
    C181     C        0.10410    0.39730    0.29260    1.000
    C182     C        0.13810    0.36480    0.25960    1.000
    H167     H        0.15900    0.38160    0.23250    1.000
    C183     C        0.14280    0.30620    0.26510    1.000
    C184     C        0.11400    0.27970    0.30460    1.000
    C185     C        0.07840    0.31360    0.34010    1.000
    C186     C        0.07390    0.37060    0.33210    1.000
    H168     H        0.04870    0.39300    0.35490    1.000
    C187     C        0.04210    0.28650    0.38310    1.000
    C188     C        0.10120    0.24950    0.40960    1.000
    H169     H        0.11600    0.21780    0.39020    1.000
    H170     H        0.07690    0.23600    0.43830    1.000
    H171     H        0.14810    0.27130    0.41720    1.000
    C189     C        0.97240    0.25170    0.36800    1.000
    H172     H        0.93130    0.27610    0.35580    1.000
    H173     H        0.95200    0.23100    0.39460    1.000
    H174     H        0.98900    0.22560    0.34380    1.000
    C190     C        0.01230    0.33070    0.41770    1.000
    H175     H        0.05070    0.36090    0.42000    1.000
    H176     H        0.00530    0.31360    0.44830    1.000
    H177     H        0.96210    0.34560    0.40690    1.000
    C191     C        0.18030    0.27530    0.22700    1.000
    H178     H        0.20380    0.29590    0.20260    1.000
    C192     C        0.22290    0.19260    0.18570    1.000
    H179     H        0.27330    0.17750    0.19810    1.000
    C193     C        0.24280    0.22710    0.14380    1.000
    H180     H        0.28070    0.25640    0.15260    1.000
    H181     H        0.19470    0.24540    0.13200    1.000
    C194     C        0.27890    0.18950    0.10510    1.000
    H182     H        0.28480    0.21170    0.07640    1.000
    H183     H        0.33180    0.17730    0.11490    1.000
    C195     C        0.22950    0.13890    0.09480    1.000
    H184     H        0.25700    0.11510    0.07200    1.000
    H185     H        0.17910    0.15070    0.08090    1.000
    C196     C        0.21340    0.10520    0.13950    1.000
    H186     H        0.18180    0.07180    0.13210    1.000
    H187     H        0.26370    0.09280    0.15330    1.000
    C197     C        0.16930    0.14170    0.17380    1.000
    H188     H        0.12010    0.15550    0.15880    1.000
    C198     C        0.13340    0.06400    0.22040    1.000
    H189     H        0.13760    0.04300    0.19260    1.000
    C199     C        0.10900    0.03540    0.26220    1.000
    C200     C        0.10280    0.97680    0.25890    1.000
    H190     H        0.11370    0.95900    0.23020    1.000
    C201     C        0.06850    0.97120    0.33860    1.000
    H191     H        0.05400    0.94910    0.36450    1.000
    C202     C        0.07590    0.02850    0.34440    1.000
    C203     C        0.09440    0.06110    0.30610    1.000
    C204     C        0.06880    0.05490    0.39350    1.000
    C205     C        0.14520    0.08430    0.40590    1.000
    H192     H        0.18920    0.05860    0.40180    1.000
    H193     H        0.14310    0.09660    0.43830    1.000
    H194     H        0.15230    0.11660    0.38560    1.000
    C206     C        0.05070    0.01190    0.43280    1.000
    H195     H        0.00650    0.98830    0.42340    1.000
    H196     H        0.03720    0.03170    0.46140    1.000
    H197     H        0.09700    0.98860    0.43820    1.000
    C207     C        0.00110    0.09750    0.39530    1.000
    H198     H        0.01310    0.12890    0.37480    1.000
    H199     H        0.99480    0.11100    0.42710    1.000
    H200     H        0.95240    0.07960    0.38510    1.000
    C208     C        0.83150    0.67010    0.12610    1.000
    V5       V        0.35545    0.10030    0.79429    1.000
    V6       V        0.16807    0.16517    0.27655    1.000
    V7       V        0.41600    0.09669    0.77678    1.000
    V8       V        0.09240    0.17458    0.26422    1.000
    O25      O        0.50000    0.08890    0.75000    1.000
    O26      O        0.00000    0.18480    0.25000    1.000
    Cd5      Cd       0.40854    0.40154    0.20902    1.000
    Cd6      Cd       0.09067    0.32893    0.70919    1.000
    O27      O        0.41930    0.84590    0.17330    1.000
    O28      O        0.40570    0.95880    0.17300    1.000
    O29      O        0.28590    0.37930    0.16347    1.000
    O30      O        0.40040    0.39660    0.12933    1.000
    O31      O        0.17120    0.32560    0.77286    1.000
    O32      O        0.54500    0.40710    0.20340    1.000
    O33      O        0.66770    0.40130    0.22590    1.000
    O34      O        0.11590    0.77460    0.69000    1.000
    O35      O        0.09950    0.88400    0.69100    1.000
    O36      O        0.90580    0.33180    0.87120    1.000
    O37      O        0.78790    0.32420    0.84000    1.000
    O38      O        0.04730    0.33380    0.79540    1.000
    N17      N        0.36630    0.84760    0.26460    1.000
    N18      N        0.34350    0.95510    0.26170    1.000
    N19      N        0.42810    0.30690    0.20940    1.000
    N20      N        0.41390    0.49570    0.20400    1.000
    N21      N        0.08030    0.23400    0.70950    1.000
    N22      N        0.09310    0.42520    0.71310    1.000
    N23      N        0.18270    0.77750    0.77510    1.000
    N24      N        0.14930    0.88470    0.78120    1.000
    C209     C        0.41780    0.79100    0.17710    1.000
    C210     C        0.43390    0.75670    0.13840    1.000
    C211     C        0.43520    0.69950    0.14500    1.000
    H201     H        0.44750    0.67660    0.11920    1.000
    C212     C        0.41960    0.67400    0.18720    1.000
    C213     C        0.40020    0.70680    0.22420    1.000
    H202     H        0.38760    0.69010    0.25310    1.000
    C214     C        0.39890    0.76560    0.21990    1.000
    C215     C        0.44830    0.78250    0.09110    1.000
    C216     C        0.51960    0.82150    0.09180    1.000
    H203     H        0.51240    0.84960    0.11600    1.000
    H204     H        0.52470    0.83980    0.06160    1.000
    H205     H        0.56710    0.79990    0.09830    1.000
    C217     C        0.46550    0.73840    0.05240    1.000
    H206     H        0.51990    0.72570    0.05500    1.000
    H207     H        0.45740    0.75530    0.02180    1.000
    H208     H        0.43000    0.70670    0.05610    1.000
    C218     C        0.37220    0.81560    0.07510    1.000
    H209     H        0.32830    0.78950    0.07150    1.000
    H210     H        0.38240    0.83390    0.04540    1.000
    H211     H        0.35880    0.84360    0.09840    1.000
    C219     C        0.42000    0.61190    0.19240    1.000
    C220     C        0.45310    0.57750    0.16300    1.000
    H212     H        0.47960    0.59270    0.13690    1.000
    C221     C        0.38190    0.58650    0.23020    1.000
    H213     H        0.35820    0.60850    0.25370    1.000
    C222     C        0.37740    0.79450    0.26180    1.000
    H214     H        0.37100    0.77310    0.28920    1.000
    C223     C        0.34900    0.87390    0.31080    1.000
    H215     H        0.40000    0.88520    0.32510    1.000
    C224     C        0.30480    0.83790    0.34560    1.000
    H216     H        0.33600    0.80440    0.35320    1.000
    H217     H        0.25410    0.82590    0.33220    1.000
    C225     C        0.29090    0.87260    0.38930    1.000
    H218     H        0.26180    0.84990    0.41220    1.000
    H219     H        0.34200    0.88280    0.40310    1.000
    C226     C        0.24510    0.92470    0.37910    1.000
    H220     H        0.23850    0.94640    0.40800    1.000
    H221     H        0.19230    0.91460    0.36760    1.000
    C227     C        0.28650    0.95990    0.34340    1.000
    H222     H        0.33690    0.97330    0.35620    1.000
    H223     H        0.25380    0.99270    0.33600    1.000
    C228     C        0.30180    0.92710    0.29960    1.000
    H224     H        0.24970    0.91510    0.28720    1.000
    C229     C        0.35730    0.00650    0.26090    1.000
    H225     H        0.34400    0.02700    0.28790    1.000
    C230     C        0.39120    0.03720    0.22330    1.000
    C231     C        0.40140    0.09540    0.22980    1.000
    H226     H        0.39000    0.11120    0.25920    1.000
    C232     C        0.42700    0.12920    0.19480    1.000
    C233     C        0.44270    0.10440    0.15140    1.000
    H227     H        0.46140    0.12720    0.12690    1.000
    C234     C        0.43190    0.04770    0.14310    1.000
    C235     C        0.40920    0.01350    0.18030    1.000
    C236     C        0.44410    0.02360    0.09400    1.000
    C237     C        0.36700    0.99350    0.07760    1.000
    H228     H        0.32200    0.01830    0.08200    1.000
    H229     H        0.35930    0.95950    0.09590    1.000
    H230     H        0.37160    0.98380    0.04470    1.000
    C238     C        0.46190    0.07020    0.05780    1.000
    H231     H        0.42550    0.10130    0.06240    1.000
    H232     H        0.45550    0.05530    0.02640    1.000
    H233     H        0.51590    0.08340    0.06190    1.000
    C239     C        0.51310    0.98400    0.09340    1.000
    H234     H        0.51240    0.96250    0.06460    1.000
    H235     H        0.50950    0.95870    0.12000    1.000
    H236     H        0.56210    0.00530    0.09540    1.000
    C240     C        0.43190    0.18990    0.20120    1.000
    C241     C        0.39700    0.21640    0.23870    1.000
    H237     H        0.37440    0.19470    0.26280    1.000
    C242     C        0.39440    0.27360    0.24170    1.000
    H238     H        0.36810    0.29030    0.26720    1.000
    C243     C        0.46390    0.28220    0.17390    1.000
    H239     H        0.48820    0.30510    0.15110    1.000
    C244     C        0.46770    0.22480    0.16810    1.000
    H240     H        0.49420    0.20930    0.14220    1.000
    C245     C        0.37920    0.52900    0.23270    1.000
    H241     H        0.34980    0.51280    0.25720    1.000
    C246     C        0.45140    0.51970    0.16800    1.000
    H242     H        0.47710    0.49700    0.14580    1.000
    C247     C        0.32820    0.38210    0.12850    1.000
    C248     C        0.29490    0.37010    0.08150    1.000
    C249     C        0.34290    0.37620    0.04210    1.000
    H243     H        0.39630    0.38670    0.04580    1.000
    C250     C        0.31320    0.36700    0.99810    1.000
    H244     H        0.34660    0.37120    0.97190    1.000
    C251     C        0.23380    0.35170    0.99150    1.000
    C252     C        0.18560    0.34560    0.03160    1.000
    H245     H        0.13220    0.33500    0.02850    1.000
    C253     C        0.21750    0.35550    0.07540    1.000
    H246     H        0.18480    0.35190    0.10180    1.000
    C254     C        0.20190    0.34390    0.94410    1.000
    C255     C        0.25000    0.32640    0.90920    1.000
    H247     H        0.30290    0.31690    0.91600    1.000
    C256     C        0.22290    0.32220    0.86380    1.000
    H248     H        0.25760    0.31160    0.83960    1.000
    C257     C        0.14590    0.33350    0.85410    1.000
    C258     C        0.09470    0.34910    0.88890    1.000
    H249     H        0.04110    0.35640    0.88210    1.000
    C259     C        0.12270    0.35370    0.93380    1.000
    H250     H        0.08770    0.36370    0.95800    1.000
    C260     C        0.12030    0.33070    0.80410    1.000
    C261     C        0.61600    0.40040    0.19510    1.000
    C262     C        0.64370    0.38890    0.14650    1.000
    C263     C        0.72240    0.37620    0.13960    1.000
    H251     H        0.75720    0.37400    0.16530    1.000
    C264     C        0.75000    0.36670    0.09520    1.000
    H252     H        0.80430    0.35980    0.09050    1.000
    C265     C        0.70000    0.36700    0.05720    1.000
    C266     C        0.62090    0.37800    0.06440    1.000
    H253     H        0.58530    0.37810    0.03910    1.000
    C267     C        0.59390    0.38910    0.10950    1.000
    H254     H        0.53990    0.39690    0.11440    1.000
    C268     C        0.73320    0.35700    0.00940    1.000
    C269     C        0.80790    0.37420    0.99880    1.000
    H255     H        0.83780    0.39370    0.02130    1.000
    C270     C        0.84010    0.36350    0.95590    1.000
    H256     H        0.89260    0.37450    0.94960    1.000
    C271     C        0.79700    0.33710    0.92200    1.000
    C272     C        0.72060    0.32100    0.93220    1.000
    H257     H        0.68850    0.30550    0.90860    1.000
    C273     C        0.69130    0.32760    0.97630    1.000
    H258     H        0.64190    0.31180    0.98410    1.000
    C274     C        0.08130    0.05470    0.70360    1.000
    C275     C        0.07660    0.11670    0.70670    1.000
    C276     C        0.11950    0.14540    0.73960    1.000
    H259     H        0.14900    0.12560    0.76210    1.000
    C277     C        0.11960    0.20380    0.73990    1.000
    H260     H        0.14930    0.22240    0.76310    1.000
    C278     C        0.03830    0.20680    0.67820    1.000
    H261     H        0.00810    0.22790    0.65690    1.000
    C279     C        0.03590    0.14880    0.67460    1.000
    H262     H        0.00680    0.13150    0.65050    1.000
    C280     C        0.14940    0.45350    0.73480    1.000
    H263     H        0.18850    0.43360    0.75130    1.000
    C281     C        0.15270    0.51150    0.73400    1.000
    H264     H        0.19410    0.53010    0.74950    1.000
    C282     C        0.09760    0.54150    0.71130    1.000
    C283     C        0.03790    0.51240    0.69060    1.000
    H265     H        0.99650    0.53200    0.67570    1.000
    C284     C        0.03740    0.45400    0.69120    1.000
    H266     H        0.99650    0.43460    0.67580    1.000
    C285     C        0.10410    0.60270    0.70740    1.000
    C286     C        0.13810    0.63520    0.74040    1.000
    H267     H        0.15900    0.61840    0.76750    1.000
    C287     C        0.14280    0.69380    0.73490    1.000
    C288     C        0.11400    0.72030    0.69540    1.000
    C289     C        0.07840    0.68640    0.65990    1.000
    C290     C        0.07390    0.62940    0.66790    1.000
    H268     H        0.04870    0.60700    0.64510    1.000
    C291     C        0.04210    0.71350    0.61690    1.000
    C292     C        0.10120    0.75050    0.59040    1.000
    H269     H        0.11600    0.78220    0.60980    1.000
    H270     H        0.07690    0.76400    0.56170    1.000
    H271     H        0.14810    0.72870    0.58280    1.000
    C293     C        0.97240    0.74830    0.63200    1.000
    H272     H        0.93130    0.72390    0.64420    1.000
    H273     H        0.95200    0.76900    0.60540    1.000
    H274     H        0.98900    0.77440    0.65620    1.000
    C294     C        0.01230    0.66930    0.58230    1.000
    H275     H        0.05070    0.63910    0.58000    1.000
    H276     H        0.00530    0.68640    0.55170    1.000
    H277     H        0.96210    0.65440    0.59310    1.000
    C295     C        0.18030    0.72470    0.77300    1.000
    H278     H        0.20380    0.70410    0.79740    1.000
    C296     C        0.22290    0.80740    0.81430    1.000
    H279     H        0.27330    0.82250    0.80190    1.000
    C297     C        0.24280    0.77290    0.85620    1.000
    H280     H        0.28070    0.74360    0.84740    1.000
    H281     H        0.19470    0.75460    0.86800    1.000
    C298     C        0.27890    0.81050    0.89490    1.000
    H282     H        0.28480    0.78830    0.92360    1.000
    H283     H        0.33180    0.82270    0.88510    1.000
    C299     C        0.22950    0.86110    0.90520    1.000
    H284     H        0.25700    0.88490    0.92800    1.000
    H285     H        0.17910    0.84930    0.91910    1.000
    C300     C        0.21340    0.89480    0.86050    1.000
    H286     H        0.18180    0.92820    0.86790    1.000
    H287     H        0.26370    0.90720    0.84670    1.000
    C301     C        0.16930    0.85830    0.82620    1.000
    H288     H        0.12010    0.84450    0.84120    1.000
    C302     C        0.13340    0.93600    0.77960    1.000
    H289     H        0.13760    0.95700    0.80740    1.000
    C303     C        0.10900    0.96460    0.73780    1.000
    C304     C        0.10280    0.02320    0.74110    1.000
    H290     H        0.11370    0.04100    0.76980    1.000
    C305     C        0.06850    0.02880    0.66140    1.000
    H291     H        0.05400    0.05090    0.63550    1.000
    C306     C        0.07590    0.97150    0.65560    1.000
    C307     C        0.09440    0.93890    0.69390    1.000
    C308     C        0.06880    0.94510    0.60650    1.000
    C309     C        0.14520    0.91570    0.59410    1.000
    H292     H        0.18920    0.94140    0.59820    1.000
    H293     H        0.14310    0.90340    0.56170    1.000
    H294     H        0.15230    0.88340    0.61440    1.000
    C310     C        0.05070    0.98810    0.56720    1.000
    H295     H        0.00650    0.01170    0.57660    1.000
    H296     H        0.03720    0.96830    0.53860    1.000
    H297     H        0.09700    0.01140    0.56180    1.000
    C311     C        0.00110    0.90250    0.60470    1.000
    H298     H        0.01310    0.87110    0.62520    1.000
    H299     H        0.99480    0.88900    0.57290    1.000
    H300     H        0.95240    0.92040    0.61490    1.000
    C312     C        0.83150    0.32990    0.87390    1.000
    V9       V        0.35545    0.89970    0.20571    1.000
    V10      V        0.16807    0.83483    0.72345    1.000
    V11      V        0.41600    0.90331    0.22322    1.000
    V12      V        0.09240    0.82542    0.73578    1.000
    Cd7      Cd       0.59146    0.40154    0.29098    1.000
    Cd8      Cd       0.90933    0.32893    0.79081    1.000
    O39      O        0.58070    0.84590    0.32670    1.000
    O40      O        0.59430    0.95880    0.32700    1.000
    O41      O        0.71410    0.37930    0.33653    1.000
    O42      O        0.59960    0.39660    0.37067    1.000
    O43      O        0.82880    0.32560    0.72714    1.000
    O44      O        0.45500    0.40710    0.29660    1.000
    O45      O        0.33230    0.40130    0.27410    1.000
    O46      O        0.88410    0.77460    0.81000    1.000
    O47      O        0.90050    0.88400    0.80900    1.000
    O48      O        0.09420    0.33180    0.62880    1.000
    O49      O        0.21210    0.32420    0.66000    1.000
    O50      O        0.95270    0.33380    0.70460    1.000
    N25      N        0.63370    0.84760    0.23540    1.000
    N26      N        0.65650    0.95510    0.23830    1.000
    N27      N        0.57190    0.30690    0.29060    1.000
    N28      N        0.58610    0.49570    0.29600    1.000
    N29      N        0.91970    0.23400    0.79050    1.000
    N30      N        0.90690    0.42520    0.78690    1.000
    N31      N        0.81730    0.77750    0.72490    1.000
    N32      N        0.85070    0.88470    0.71880    1.000
    C313     C        0.58220    0.79100    0.32290    1.000
    C314     C        0.56610    0.75670    0.36160    1.000
    C315     C        0.56480    0.69950    0.35500    1.000
    H301     H        0.55250    0.67660    0.38080    1.000
    C316     C        0.58040    0.67400    0.31280    1.000
    C317     C        0.59980    0.70680    0.27580    1.000
    H302     H        0.61240    0.69010    0.24690    1.000
    C318     C        0.60110    0.76560    0.28010    1.000
    C319     C        0.55170    0.78250    0.40890    1.000
    C320     C        0.48040    0.82150    0.40820    1.000
    H303     H        0.48760    0.84960    0.38400    1.000
    H304     H        0.47530    0.83980    0.43840    1.000
    H305     H        0.43290    0.79990    0.40170    1.000
    C321     C        0.53450    0.73840    0.44760    1.000
    H306     H        0.48010    0.72570    0.44500    1.000
    H307     H        0.54260    0.75530    0.47820    1.000
    H308     H        0.57000    0.70670    0.44390    1.000
    C322     C        0.62780    0.81560    0.42490    1.000
    H309     H        0.67170    0.78950    0.42850    1.000
    H310     H        0.61760    0.83390    0.45460    1.000
    H311     H        0.64120    0.84360    0.40160    1.000
    C323     C        0.58000    0.61190    0.30760    1.000
    C324     C        0.54690    0.57750    0.33700    1.000
    H312     H        0.52040    0.59270    0.36310    1.000
    C325     C        0.61810    0.58650    0.26980    1.000
    H313     H        0.64180    0.60850    0.24630    1.000
    C326     C        0.62260    0.79450    0.23820    1.000
    H314     H        0.62900    0.77310    0.21080    1.000
    C327     C        0.65100    0.87390    0.18920    1.000
    H315     H        0.60000    0.88520    0.17490    1.000
    C328     C        0.69520    0.83790    0.15440    1.000
    H316     H        0.66400    0.80440    0.14680    1.000
    H317     H        0.74590    0.82590    0.16780    1.000
    C329     C        0.70910    0.87260    0.11070    1.000
    H318     H        0.73820    0.84990    0.08780    1.000
    H319     H        0.65800    0.88280    0.09690    1.000
    C330     C        0.75490    0.92470    0.12090    1.000
    H320     H        0.76150    0.94640    0.09200    1.000
    H321     H        0.80770    0.91460    0.13240    1.000
    C331     C        0.71350    0.95990    0.15660    1.000
    H322     H        0.66310    0.97330    0.14380    1.000
    H323     H        0.74620    0.99270    0.16400    1.000
    C332     C        0.69820    0.92710    0.20040    1.000
    H324     H        0.75030    0.91510    0.21280    1.000
    C333     C        0.64270    0.00650    0.23910    1.000
    H325     H        0.65600    0.02700    0.21210    1.000
    C334     C        0.60880    0.03720    0.27670    1.000
    C335     C        0.59860    0.09540    0.27020    1.000
    H326     H        0.61000    0.11120    0.24080    1.000
    C336     C        0.57300    0.12920    0.30520    1.000
    C337     C        0.55730    0.10440    0.34860    1.000
    H327     H        0.53860    0.12720    0.37310    1.000
    C338     C        0.56810    0.04770    0.35690    1.000
    C339     C        0.59080    0.01350    0.31970    1.000
    C340     C        0.55590    0.02360    0.40600    1.000
    C341     C        0.63300    0.99350    0.42240    1.000
    H328     H        0.67800    0.01830    0.41800    1.000
    H329     H        0.64070    0.95950    0.40410    1.000
    H330     H        0.62840    0.98380    0.45530    1.000
    C342     C        0.53810    0.07020    0.44220    1.000
    H331     H        0.57450    0.10130    0.43760    1.000
    H332     H        0.54450    0.05530    0.47360    1.000
    H333     H        0.48410    0.08340    0.43810    1.000
    C343     C        0.48690    0.98400    0.40660    1.000
    H334     H        0.48760    0.96250    0.43540    1.000
    H335     H        0.49050    0.95870    0.38000    1.000
    H336     H        0.43790    0.00530    0.40460    1.000
    C344     C        0.56810    0.18990    0.29880    1.000
    C345     C        0.60300    0.21640    0.26130    1.000
    H337     H        0.62560    0.19470    0.23720    1.000
    C346     C        0.60560    0.27360    0.25830    1.000
    H338     H        0.63190    0.29030    0.23280    1.000
    C347     C        0.53610    0.28220    0.32610    1.000
    H339     H        0.51180    0.30510    0.34890    1.000
    C348     C        0.53230    0.22480    0.33190    1.000
    H340     H        0.50580    0.20930    0.35780    1.000
    C349     C        0.62080    0.52900    0.26730    1.000
    H341     H        0.65020    0.51280    0.24280    1.000
    C350     C        0.54860    0.51970    0.33200    1.000
    H342     H        0.52290    0.49700    0.35420    1.000
    C351     C        0.67180    0.38210    0.37150    1.000
    C352     C        0.70510    0.37010    0.41850    1.000
    C353     C        0.65710    0.37620    0.45790    1.000
    H343     H        0.60370    0.38670    0.45420    1.000
    C354     C        0.68680    0.36700    0.50190    1.000
    H344     H        0.65340    0.37120    0.52810    1.000
    C355     C        0.76620    0.35170    0.50850    1.000
    C356     C        0.81440    0.34560    0.46840    1.000
    H345     H        0.86780    0.33500    0.47150    1.000
    C357     C        0.78250    0.35550    0.42460    1.000
    H346     H        0.81520    0.35190    0.39820    1.000
    C358     C        0.79810    0.34390    0.55590    1.000
    C359     C        0.75000    0.32640    0.59080    1.000
    H347     H        0.69710    0.31690    0.58400    1.000
    C360     C        0.77710    0.32220    0.63620    1.000
    H348     H        0.74240    0.31160    0.66040    1.000
    C361     C        0.85410    0.33350    0.64590    1.000
    C362     C        0.90530    0.34910    0.61110    1.000
    H349     H        0.95890    0.35640    0.61790    1.000
    C363     C        0.87730    0.35370    0.56620    1.000
    H350     H        0.91230    0.36370    0.54200    1.000
    C364     C        0.87970    0.33070    0.69590    1.000
    C365     C        0.38400    0.40040    0.30490    1.000
    C366     C        0.35630    0.38890    0.35350    1.000
    C367     C        0.27760    0.37620    0.36040    1.000
    H351     H        0.24280    0.37400    0.33470    1.000
    C368     C        0.25000    0.36670    0.40480    1.000
    H352     H        0.19570    0.35980    0.40950    1.000
    C369     C        0.30000    0.36700    0.44280    1.000
    C370     C        0.37910    0.37800    0.43560    1.000
    H353     H        0.41470    0.37810    0.46090    1.000
    C371     C        0.40610    0.38910    0.39050    1.000
    H354     H        0.46010    0.39690    0.38560    1.000
    C372     C        0.26680    0.35700    0.49060    1.000
    C373     C        0.19210    0.37420    0.50120    1.000
    H355     H        0.16220    0.39370    0.47870    1.000
    C374     C        0.15990    0.36350    0.54410    1.000
    H356     H        0.10740    0.37450    0.55040    1.000
    C375     C        0.20300    0.33710    0.57800    1.000
    C376     C        0.27940    0.32100    0.56780    1.000
    H357     H        0.31150    0.30550    0.59140    1.000
    C377     C        0.30870    0.32760    0.52370    1.000
    H358     H        0.35810    0.31180    0.51590    1.000
    C378     C        0.91870    0.05470    0.79640    1.000
    C379     C        0.92340    0.11670    0.79330    1.000
    C380     C        0.88050    0.14540    0.76040    1.000
    H359     H        0.85100    0.12560    0.73790    1.000
    C381     C        0.88040    0.20380    0.76010    1.000
    H360     H        0.85070    0.22240    0.73690    1.000
    C382     C        0.96170    0.20680    0.82180    1.000
    H361     H        0.99190    0.22790    0.84310    1.000
    C383     C        0.96410    0.14880    0.82540    1.000
    H362     H        0.99320    0.13150    0.84950    1.000
    C384     C        0.85060    0.45350    0.76520    1.000
    H363     H        0.81150    0.43360    0.74870    1.000
    C385     C        0.84730    0.51150    0.76600    1.000
    H364     H        0.80590    0.53010    0.75050    1.000
    C386     C        0.90240    0.54150    0.78870    1.000
    C387     C        0.96210    0.51240    0.80940    1.000
    H365     H        0.00350    0.53200    0.82430    1.000
    C388     C        0.96260    0.45400    0.80880    1.000
    H366     H        0.00350    0.43460    0.82420    1.000
    C389     C        0.89590    0.60270    0.79260    1.000
    C390     C        0.86190    0.63520    0.75960    1.000
    H367     H        0.84100    0.61840    0.73250    1.000
    C391     C        0.85720    0.69380    0.76510    1.000
    C392     C        0.88600    0.72030    0.80460    1.000
    C393     C        0.92160    0.68640    0.84010    1.000
    C394     C        0.92610    0.62940    0.83210    1.000
    H368     H        0.95130    0.60700    0.85490    1.000
    C395     C        0.95790    0.71350    0.88310    1.000
    C396     C        0.89880    0.75050    0.90960    1.000
    H369     H        0.88400    0.78220    0.89020    1.000
    H370     H        0.92310    0.76400    0.93830    1.000
    H371     H        0.85190    0.72870    0.91720    1.000
    C397     C        0.02760    0.74830    0.86800    1.000
    H372     H        0.06870    0.72390    0.85580    1.000
    H373     H        0.04800    0.76900    0.89460    1.000
    H374     H        0.01100    0.77440    0.84380    1.000
    C398     C        0.98770    0.66930    0.91770    1.000
    H375     H        0.94930    0.63910    0.92000    1.000
    H376     H        0.99470    0.68640    0.94830    1.000
    H377     H        0.03790    0.65440    0.90690    1.000
    C399     C        0.81970    0.72470    0.72700    1.000
    H378     H        0.79620    0.70410    0.70260    1.000
    C400     C        0.77710    0.80740    0.68570    1.000
    H379     H        0.72670    0.82250    0.69810    1.000
    C401     C        0.75720    0.77290    0.64380    1.000
    H380     H        0.71930    0.74360    0.65260    1.000
    H381     H        0.80530    0.75460    0.63200    1.000
    C402     C        0.72110    0.81050    0.60510    1.000
    H382     H        0.71520    0.78830    0.57640    1.000
    H383     H        0.66820    0.82270    0.61490    1.000
    C403     C        0.77050    0.86110    0.59480    1.000
    H384     H        0.74300    0.88490    0.57200    1.000
    H385     H        0.82090    0.84930    0.58090    1.000
    C404     C        0.78660    0.89480    0.63950    1.000
    H386     H        0.81820    0.92820    0.63210    1.000
    H387     H        0.73630    0.90720    0.65330    1.000
    C405     C        0.83070    0.85830    0.67380    1.000
    H388     H        0.87990    0.84450    0.65880    1.000
    C406     C        0.86660    0.93600    0.72040    1.000
    H389     H        0.86240    0.95700    0.69260    1.000
    C407     C        0.89100    0.96460    0.76220    1.000
    C408     C        0.89720    0.02320    0.75890    1.000
    H390     H        0.88630    0.04100    0.73020    1.000
    C409     C        0.93150    0.02880    0.83860    1.000
    H391     H        0.94600    0.05090    0.86450    1.000
    C410     C        0.92410    0.97150    0.84440    1.000
    C411     C        0.90560    0.93890    0.80610    1.000
    C412     C        0.93120    0.94510    0.89350    1.000
    C413     C        0.85480    0.91570    0.90590    1.000
    H392     H        0.81080    0.94140    0.90180    1.000
    H393     H        0.85690    0.90340    0.93830    1.000
    H394     H        0.84770    0.88340    0.88560    1.000
    C414     C        0.94930    0.98810    0.93280    1.000
    H395     H        0.99350    0.01170    0.92340    1.000
    H396     H        0.96280    0.96830    0.96140    1.000
    H397     H        0.90300    0.01140    0.93820    1.000
    C415     C        0.99890    0.90250    0.89530    1.000
    H398     H        0.98690    0.87110    0.87480    1.000
    H399     H        0.00520    0.88900    0.92710    1.000
    H400     H        0.04760    0.92040    0.88510    1.000
    C416     C        0.16850    0.32990    0.62610    1.000
    V13      V        0.64455    0.89970    0.29429    1.000
    V14      V        0.83193    0.83483    0.77655    1.000
    V15      V        0.58400    0.90331    0.27678    1.000
    V16      V        0.90760    0.82542    0.76422    1.000
    O51      O        0.50000    0.91110    0.25000    1.000
    O52      O        0.00000    0.81520    0.75000    1.000
