data_functionalizedCrystal
_audit_creation_method	'EQeq! by Chris Wilmer'
_symmetry_space_group_name_H-M	'P1'
_symmetry_Int_Tables_number	1
_symmetry_cell_setting	triclinic
loop_
_symmetry_equiv_pos_as_xyz
  x,y,z
_cell_length_a	38.7269
_cell_length_b	14.9496
_cell_length_c	31.7789
_cell_angle_alpha	90
_cell_angle_beta	90.794
_cell_angle_gamma	90
loop_
_atom_site_label
_atom_site_type_symbol
_atom_site_fract_x
_atom_site_fract_y
_atom_site_fract_z
_atom_site_charge
Mof_In	In	0.21832	0.02187	0.20056	2.522
Mof_O 	O 	0.24523	0.9001	0.23335	-0.461
Mof_O 	O 	0.26119	0.0373	0.24795	-0.524
Mof_O 	O 	0.67473	0.4804	0.24478	-0.483
Mof_O 	O 	0.6897	0.6211	0.24035	-0.52
Mof_O 	O 	0.69116	0.5926	0.66272	-0.459
Mof_O 	O 	0.67526	0.4522	0.65423	-0.517
Mof_O 	O 	0.25875	0.9975	0.65282	-0.528
Mof_O 	O 	0.24504	0.8596	0.66771	-0.487
Mof_C 	C 	0.26454	0.9563	0.25266	0.328
Mof_C 	C 	0.29306	0.9195	0.28032	-0.076
Mof_C 	C 	0.29704	0.8306	0.287	0.029
Mof_H 	H 	0.2813	0.7907	0.2752	0.052
Mof_C 	C 	0.32476	0.7979	0.31166	-0.093
Mof_H 	H 	0.3274	0.7367	0.3159	0.075
Mof_C 	C 	0.34831	0.8583	0.32972	0.055
Mof_C 	C 	0.34337	0.948	0.3241	-0.104
Mof_H 	H 	0.3586	0.9881	0.3369	0.07
Mof_C 	C 	0.31619	0.9806	0.2996	0.023
Mof_H 	H 	0.3132	0.0419	0.296	0.046
Mof_C 	C 	0.3783	0.825	0.35601	-0.003
Mof_C 	C 	0.39337	0.7454	0.34565	-0.033
Mof_H 	H 	0.3846	0.7128	0.323	0.049
Mof_C 	C 	0.42142	0.7122	0.36824	-0.072
Mof_H 	H 	0.4318	0.6587	0.3604	0.06
Mof_C 	C 	0.43447	0.7619	0.40443	0.037
Mof_C 	C 	0.41791	0.8434	0.41236	-0.072
Mof_H 	H 	0.426	0.8783	0.4346	0.059
Mof_C 	C 	0.39041	0.8742	0.389	-0.035
Mof_H 	H 	0.3801	0.9284	0.3957	0.043
Mof_C 	C 	0.46437	0.7285	0.42939	-0.033
Mof_C 	C 	0.49468	0.7009	0.40391	0.05
Mof_C 	C 	0.50735	0.7587	0.3735	-0.086
Mof_H 	H 	0.4966	0.8137	0.3691	0.063
Mof_C 	C 	0.53599	0.7355	0.3494	-0.025
Mof_H 	H 	0.5442	0.7755	0.3296	0.039
Mof_C 	C 	0.55197	0.6551	0.35475	-0.019
Mof_C 	C 	0.53724	0.5935	0.382	-0.023
Mof_H 	H 	0.5461	0.5358	0.384	0.037
Mof_C 	C 	0.50909	0.6183	0.4063	-0.087
Mof_H 	H 	0.4999	0.5768	0.4248	0.061
Mof_C 	C 	0.58259	0.6308	0.32907	0.067
Mof_C 	C 	0.6047	0.6974	0.3141	-0.115
Mof_H 	H 	0.6007	0.757	0.3208	0.072
Mof_C 	C 	0.63255	0.6745	0.2891	0.03
Mof_H 	H 	0.6463	0.7193	0.2779	0.039
Mof_C 	C 	0.63999	0.586	0.28075	-0.086
Mof_C 	C 	0.6175	0.5197	0.2956	0.032
Mof_H 	H 	0.6213	0.4599	0.2891	0.038
Mof_C 	C 	0.58982	0.5436	0.3198	-0.118
Mof_H 	H 	0.5756	0.499	0.3302	0.073
Mof_C 	C 	0.46442	0.725	0.47147	-0.044
Mof_C 	C 	0.43403	0.748	0.49677	0.056
Mof_C 	C 	0.4024	0.7011	0.49271	-0.089
Mof_H 	H 	0.4007	0.6533	0.4741	0.065
Mof_C 	C 	0.37442	0.7251	0.5158	-0.018
Mof_H 	H 	0.3538	0.6935	0.5128	0.04
Mof_C 	C 	0.37655	0.7983	0.54458	-0.025
Mof_C 	C 	0.40723	0.8426	0.5476	-0.016
Mof_H 	H 	0.4089	0.8926	0.5649	0.035
Mof_C 	C 	0.43571	0.8156	0.5258	-0.096
Mof_H 	H 	0.4567	0.8439	0.5308	0.065
Mof_C 	C 	0.34628	0.8277	0.57033	0.073
Mof_C 	C 	0.32426	0.7654	0.58759	-0.12
Mof_H 	H 	0.3278	0.7049	0.5826	0.077
Mof_C 	C 	0.29651	0.7927	0.61273	0.037
Mof_H 	H 	0.2819	0.7503	0.6243	0.038
Mof_C 	C 	0.29101	0.8822	0.62012	-0.091
Mof_C 	C 	0.31345	0.9449	0.6015	0.035
Mof_H 	H 	0.3099	0.0057	0.6058	0.039
Mof_C 	C 	0.34048	0.9173	0.5769	-0.122
Mof_H 	H 	0.3549	0.9595	0.5647	0.074
Mof_C 	C 	0.49567	0.6983	0.49682	0.058
Mof_C 	C 	0.49334	0.6341	0.5277	-0.096
Mof_H 	H 	0.472	0.6083	0.5331	0.066
Mof_C 	C 	0.52167	0.607	0.5508	-0.016
Mof_H 	H 	0.5193	0.5611	0.5703	0.033
Mof_C 	C 	0.55384	0.6467	0.54555	-0.026
Mof_C 	C 	0.55574	0.7144	0.5146	-0.018
Mof_H 	H 	0.5767	0.743	0.5102	0.037
Mof_C 	C 	0.52731	0.7391	0.4907	-0.093
Mof_H 	H 	0.5294	0.7835	0.4704	0.066
Mof_C 	C 	0.5847	0.6168	0.57077	0.067
Mof_C 	C 	0.59003	0.5278	0.58025	-0.116
Mof_H 	H 	0.5742	0.4856	0.5705	0.07
Mof_C 	C 	0.61837	0.4993	0.60391	0.025
Mof_H 	H 	0.6216	0.439	0.6101	0.038
Mof_C 	C 	0.64207	0.5637	0.61831	-0.081
Mof_C 	C 	0.63718	0.6522	0.60798	0.032
Mof_H 	H 	0.6533	0.6944	0.617	0.039
Mof_C 	C 	0.60904	0.6794	0.58465	-0.117
Mof_H 	H 	0.6062	0.7395	0.5781	0.073
Mof_C 	C 	0.67016	0.5625	0.25395	0.326
Mof_C 	C 	0.67144	0.5342	0.64618	0.315
Mof_C 	C 	0.26339	0.9149	0.64824	0.335
Mof_In	In	0.71832	0.52187	0.20056	2.522
Mof_O 	O 	0.74523	0.4001	0.23335	-0.462
Mof_O 	O 	0.76119	0.5373	0.24795	-0.524
Mof_O 	O 	0.17473	0.9804	0.24478	-0.483
Mof_O 	O 	0.1897	0.1211	0.24035	-0.521
Mof_O 	O 	0.19116	0.0926	0.66272	-0.46
Mof_O 	O 	0.17526	0.9522	0.65423	-0.519
Mof_O 	O 	0.75875	0.4975	0.65282	-0.529
Mof_O 	O 	0.74504	0.3596	0.66771	-0.488
Mof_C 	C 	0.76454	0.4563	0.25266	0.325
Mof_C 	C 	0.79306	0.4195	0.28032	-0.076
Mof_C 	C 	0.79704	0.3306	0.287	0.027
Mof_H 	H 	0.7813	0.2907	0.2752	0.051
Mof_C 	C 	0.82476	0.2979	0.31166	-0.092
Mof_H 	H 	0.8274	0.2367	0.3159	0.074
Mof_C 	C 	0.84831	0.3583	0.32972	0.053
Mof_C 	C 	0.84337	0.448	0.3241	-0.103
Mof_H 	H 	0.8586	0.4881	0.3369	0.068
Mof_C 	C 	0.81619	0.4806	0.2996	0.019
Mof_H 	H 	0.8132	0.5419	0.296	0.046
Mof_C 	C 	0.8783	0.325	0.35601	-0.004
Mof_C 	C 	0.89337	0.2454	0.34565	-0.035
Mof_H 	H 	0.8846	0.2128	0.323	0.049
Mof_C 	C 	0.92142	0.2122	0.36824	-0.072
Mof_H 	H 	0.9318	0.1587	0.3604	0.059
Mof_C 	C 	0.93447	0.2619	0.40443	0.037
Mof_C 	C 	0.91791	0.3434	0.41236	-0.072
Mof_H 	H 	0.926	0.3783	0.4346	0.059
Mof_C 	C 	0.89041	0.3742	0.389	-0.036
Mof_H 	H 	0.8801	0.4284	0.3957	0.043
Mof_C 	C 	0.96437	0.2285	0.42939	-0.033
Mof_C 	C 	0.99468	0.2009	0.40391	0.05
Mof_C 	C 	0.00735	0.2587	0.3735	-0.087
Mof_H 	H 	0.9966	0.3137	0.3691	0.063
Mof_C 	C 	0.03599	0.2355	0.3494	-0.025
Mof_H 	H 	0.0442	0.2755	0.3296	0.039
Mof_C 	C 	0.05197	0.1551	0.35475	-0.019
Mof_C 	C 	0.03724	0.0935	0.382	-0.023
Mof_H 	H 	0.0461	0.0358	0.384	0.037
Mof_C 	C 	0.00909	0.1183	0.4063	-0.087
Mof_H 	H 	0.9999	0.0768	0.4248	0.061
Mof_C 	C 	0.08259	0.1308	0.32907	0.067
Mof_C 	C 	0.1047	0.1974	0.3141	-0.115
Mof_H 	H 	0.1007	0.257	0.3208	0.072
Mof_C 	C 	0.13255	0.1745	0.2891	0.03
Mof_H 	H 	0.1463	0.2193	0.2779	0.039
Mof_C 	C 	0.13999	0.086	0.28075	-0.086
Mof_C 	C 	0.1175	0.0197	0.2956	0.031
Mof_H 	H 	0.1213	0.9599	0.2891	0.039
Mof_C 	C 	0.08982	0.0436	0.3198	-0.119
Mof_H 	H 	0.0756	0.999	0.3302	0.074
Mof_C 	C 	0.96442	0.225	0.47147	-0.044
Mof_C 	C 	0.93403	0.248	0.49677	0.056
Mof_C 	C 	0.9024	0.2011	0.49271	-0.089
Mof_H 	H 	0.9007	0.1533	0.4741	0.065
Mof_C 	C 	0.87442	0.2251	0.5158	-0.018
Mof_H 	H 	0.8538	0.1935	0.5128	0.04
Mof_C 	C 	0.87655	0.2983	0.54458	-0.026
Mof_C 	C 	0.90723	0.3426	0.5476	-0.015
Mof_H 	H 	0.9089	0.3926	0.5649	0.035
Mof_C 	C 	0.93571	0.3156	0.5258	-0.096
Mof_H 	H 	0.9567	0.3439	0.5308	0.065
Mof_C 	C 	0.84628	0.3277	0.57033	0.074
Mof_C 	C 	0.82426	0.2654	0.58759	-0.121
Mof_H 	H 	0.8278	0.2049	0.5826	0.077
Mof_C 	C 	0.79651	0.2927	0.61273	0.037
Mof_H 	H 	0.7819	0.2503	0.6243	0.038
Mof_C 	C 	0.79101	0.3822	0.62012	-0.091
Mof_C 	C 	0.81345	0.4449	0.6015	0.037
Mof_H 	H 	0.8099	0.5057	0.6058	0.038
Mof_C 	C 	0.84048	0.4173	0.5769	-0.123
Mof_H 	H 	0.8549	0.4595	0.5647	0.074
Mof_C 	C 	0.99567	0.1983	0.49682	0.057
Mof_C 	C 	0.99334	0.1341	0.5277	-0.096
Mof_H 	H 	0.972	0.1083	0.5331	0.066
Mof_C 	C 	0.02167	0.107	0.5508	-0.016
Mof_H 	H 	0.0193	0.0611	0.5703	0.034
Mof_C 	C 	0.05384	0.1467	0.54555	-0.025
Mof_C 	C 	0.05574	0.2144	0.5146	-0.018
Mof_H 	H 	0.0767	0.243	0.5102	0.037
Mof_C 	C 	0.02731	0.2391	0.4907	-0.093
Mof_H 	H 	0.0294	0.2835	0.4704	0.066
Mof_C 	C 	0.0847	0.1168	0.57077	0.066
Mof_C 	C 	0.09003	0.0278	0.58025	-0.113
Mof_H 	H 	0.0742	0.9856	0.5705	0.069
Mof_C 	C 	0.11837	0.9993	0.60391	0.023
Mof_H 	H 	0.1216	0.939	0.6101	0.039
Mof_C 	C 	0.14207	0.0637	0.61831	-0.079
Mof_C 	C 	0.13718	0.1522	0.60798	0.031
Mof_H 	H 	0.1533	0.1944	0.617	0.039
Mof_C 	C 	0.10904	0.1794	0.58465	-0.116
Mof_H 	H 	0.1062	0.2395	0.5781	0.072
Mof_C 	C 	0.17016	0.0625	0.25395	0.325
Mof_C 	C 	0.17144	0.0342	0.64618	0.315
Mof_C 	C 	0.76339	0.4149	0.64824	0.335
Mof_In	In	0.21832	0.97813	0.70056	2.521
Mof_O 	O 	0.24523	0.0999	0.73335	-0.462
Mof_O 	O 	0.26119	0.9627	0.74795	-0.525
Mof_O 	O 	0.67473	0.5196	0.74478	-0.484
Mof_O 	O 	0.6897	0.3789	0.74035	-0.521
Mof_O 	O 	0.69116	0.4074	0.16272	-0.46
Mof_O 	O 	0.67526	0.5478	0.15423	-0.518
Mof_O 	O 	0.25875	0.0025	0.15282	-0.529
Mof_O 	O 	0.24504	0.1404	0.16771	-0.488
Mof_C 	C 	0.26454	0.0437	0.75266	0.327
Mof_C 	C 	0.29306	0.0805	0.78032	-0.077
Mof_C 	C 	0.29704	0.1694	0.787	0.029
Mof_H 	H 	0.2813	0.2093	0.7752	0.051
Mof_C 	C 	0.32476	0.2021	0.81166	-0.094
Mof_H 	H 	0.3274	0.2633	0.8159	0.074
Mof_C 	C 	0.34831	0.1417	0.82972	0.054
Mof_C 	C 	0.34337	0.052	0.8241	-0.105
Mof_H 	H 	0.3586	0.0119	0.8369	0.069
Mof_C 	C 	0.31619	0.0194	0.7996	0.022
Mof_H 	H 	0.3132	0.9581	0.796	0.045
Mof_C 	C 	0.3783	0.175	0.85601	-0.004
Mof_C 	C 	0.39337	0.2546	0.84565	-0.034
Mof_H 	H 	0.3846	0.2872	0.823	0.049
Mof_C 	C 	0.42142	0.2878	0.86824	-0.072
Mof_H 	H 	0.4318	0.3413	0.8604	0.06
Mof_C 	C 	0.43447	0.2381	0.90443	0.037
Mof_C 	C 	0.41791	0.1566	0.91236	-0.072
Mof_H 	H 	0.426	0.1217	0.9346	0.059
Mof_C 	C 	0.39041	0.1258	0.889	-0.035
Mof_H 	H 	0.3801	0.0716	0.8957	0.043
Mof_C 	C 	0.46437	0.2715	0.92939	-0.033
Mof_C 	C 	0.49468	0.2991	0.90391	0.05
Mof_C 	C 	0.50735	0.2413	0.8735	-0.086
Mof_H 	H 	0.4966	0.1863	0.8691	0.063
Mof_C 	C 	0.53599	0.2645	0.8494	-0.025
Mof_H 	H 	0.5442	0.2245	0.8296	0.039
Mof_C 	C 	0.55197	0.3449	0.85475	-0.019
Mof_C 	C 	0.53724	0.4065	0.882	-0.023
Mof_H 	H 	0.5461	0.4642	0.884	0.037
Mof_C 	C 	0.50909	0.3817	0.9063	-0.087
Mof_H 	H 	0.4999	0.4232	0.9248	0.061
Mof_C 	C 	0.58259	0.3692	0.82907	0.067
Mof_C 	C 	0.6047	0.3026	0.8141	-0.115
Mof_H 	H 	0.6007	0.243	0.8208	0.072
Mof_C 	C 	0.63255	0.3255	0.7891	0.03
Mof_H 	H 	0.6463	0.2807	0.7779	0.039
Mof_C 	C 	0.63999	0.414	0.78075	-0.086
Mof_C 	C 	0.6175	0.4803	0.7956	0.032
Mof_H 	H 	0.6213	0.5401	0.7891	0.038
Mof_C 	C 	0.58982	0.4564	0.8198	-0.118
Mof_H 	H 	0.5756	0.501	0.8302	0.073
Mof_C 	C 	0.46442	0.275	0.97147	-0.044
Mof_C 	C 	0.43403	0.252	0.99677	0.056
Mof_C 	C 	0.4024	0.2989	0.99271	-0.088
Mof_H 	H 	0.4007	0.3467	0.9741	0.065
Mof_C 	C 	0.37442	0.2749	0.0158	-0.018
Mof_H 	H 	0.3538	0.3065	0.0128	0.04
Mof_C 	C 	0.37655	0.2017	0.04458	-0.025
Mof_C 	C 	0.40723	0.1574	0.0476	-0.016
Mof_H 	H 	0.4089	0.1074	0.0649	0.035
Mof_C 	C 	0.43571	0.1844	0.0258	-0.096
Mof_H 	H 	0.4567	0.1561	0.0308	0.065
Mof_C 	C 	0.34628	0.1723	0.07033	0.073
Mof_C 	C 	0.32426	0.2346	0.08759	-0.12
Mof_H 	H 	0.3278	0.2951	0.0826	0.077
Mof_C 	C 	0.29651	0.2073	0.11273	0.036
Mof_H 	H 	0.2819	0.2497	0.1243	0.038
Mof_C 	C 	0.29101	0.1178	0.12012	-0.09
Mof_C 	C 	0.31345	0.0551	0.1015	0.034
Mof_H 	H 	0.3099	0.9943	0.1058	0.04
Mof_C 	C 	0.34048	0.0827	0.0769	-0.121
Mof_H 	H 	0.3549	0.0405	0.0647	0.074
Mof_C 	C 	0.49567	0.3017	0.99682	0.058
Mof_C 	C 	0.49334	0.3659	0.0277	-0.096
Mof_H 	H 	0.472	0.3917	0.0331	0.066
Mof_C 	C 	0.52167	0.393	0.0508	-0.016
Mof_H 	H 	0.5193	0.4389	0.0703	0.033
Mof_C 	C 	0.55384	0.3533	0.04555	-0.026
Mof_C 	C 	0.55574	0.2856	0.0146	-0.018
Mof_H 	H 	0.5767	0.257	0.0102	0.037
Mof_C 	C 	0.52731	0.2609	0.9907	-0.093
Mof_H 	H 	0.5294	0.2165	0.9704	0.066
Mof_C 	C 	0.5847	0.3832	0.07077	0.067
Mof_C 	C 	0.59003	0.4722	0.08025	-0.116
Mof_H 	H 	0.5742	0.5144	0.0705	0.07
Mof_C 	C 	0.61837	0.5007	0.10391	0.025
Mof_H 	H 	0.6216	0.561	0.1101	0.038
Mof_C 	C 	0.64207	0.4363	0.11831	-0.081
Mof_C 	C 	0.63718	0.3478	0.10798	0.032
Mof_H 	H 	0.6533	0.3056	0.117	0.039
Mof_C 	C 	0.60904	0.3206	0.08465	-0.117
Mof_H 	H 	0.6062	0.2605	0.0781	0.073
Mof_C 	C 	0.67016	0.4375	0.75395	0.326
Mof_C 	C 	0.67144	0.4658	0.14618	0.315
Mof_C 	C 	0.26339	0.0851	0.14824	0.334
Mof_In	In	0.71832	0.47813	0.70056	2.522
Mof_O 	O 	0.74523	0.5999	0.73335	-0.462
Mof_O 	O 	0.76119	0.4627	0.74795	-0.524
Mof_O 	O 	0.17473	0.0196	0.74478	-0.483
Mof_O 	O 	0.1897	0.8789	0.74035	-0.521
Mof_O 	O 	0.19116	0.9074	0.16272	-0.46
Mof_O 	O 	0.17526	0.0478	0.15423	-0.519
Mof_O 	O 	0.75875	0.5025	0.15282	-0.529
Mof_O 	O 	0.74504	0.6404	0.16771	-0.488
Mof_C 	C 	0.76454	0.5437	0.75266	0.325
Mof_C 	C 	0.79306	0.5805	0.78032	-0.076
Mof_C 	C 	0.79704	0.6694	0.787	0.027
Mof_H 	H 	0.7813	0.7093	0.7752	0.051
Mof_C 	C 	0.82476	0.7021	0.81166	-0.092
Mof_H 	H 	0.8274	0.7633	0.8159	0.074
Mof_C 	C 	0.84831	0.6417	0.82972	0.053
Mof_C 	C 	0.84337	0.552	0.8241	-0.103
Mof_H 	H 	0.8586	0.5119	0.8369	0.068
Mof_C 	C 	0.81619	0.5194	0.7996	0.019
Mof_H 	H 	0.8132	0.4581	0.796	0.046
Mof_C 	C 	0.8783	0.675	0.85601	-0.004
Mof_C 	C 	0.89337	0.7546	0.84565	-0.035
Mof_H 	H 	0.8846	0.7872	0.823	0.049
Mof_C 	C 	0.92142	0.7878	0.86824	-0.072
Mof_H 	H 	0.9318	0.8413	0.8604	0.059
Mof_C 	C 	0.93447	0.7381	0.90443	0.037
Mof_C 	C 	0.91791	0.6566	0.91236	-0.072
Mof_H 	H 	0.926	0.6217	0.9346	0.059
Mof_C 	C 	0.89041	0.6258	0.889	-0.036
Mof_H 	H 	0.8801	0.5716	0.8957	0.043
Mof_C 	C 	0.96437	0.7715	0.92939	-0.033
Mof_C 	C 	0.99468	0.7991	0.90391	0.05
Mof_C 	C 	0.00735	0.7413	0.8735	-0.086
Mof_H 	H 	0.9966	0.6863	0.8691	0.063
Mof_C 	C 	0.03599	0.7645	0.8494	-0.025
Mof_H 	H 	0.0442	0.7245	0.8296	0.039
Mof_C 	C 	0.05197	0.8449	0.85475	-0.019
Mof_C 	C 	0.03724	0.9065	0.882	-0.023
Mof_H 	H 	0.0461	0.9642	0.884	0.037
Mof_C 	C 	0.00909	0.8817	0.9063	-0.087
Mof_H 	H 	0.9999	0.9232	0.9248	0.061
Mof_C 	C 	0.08259	0.8692	0.82907	0.067
Mof_C 	C 	0.1047	0.8026	0.8141	-0.115
Mof_H 	H 	0.1007	0.743	0.8208	0.072
Mof_C 	C 	0.13255	0.8255	0.7891	0.03
Mof_H 	H 	0.1463	0.7807	0.7779	0.039
Mof_C 	C 	0.13999	0.914	0.78075	-0.086
Mof_C 	C 	0.1175	0.9803	0.7956	0.031
Mof_H 	H 	0.1213	0.0401	0.7891	0.039
Mof_C 	C 	0.08982	0.9564	0.8198	-0.119
Mof_H 	H 	0.0756	0.001	0.8302	0.074
Mof_C 	C 	0.96442	0.775	0.97147	-0.044
Mof_C 	C 	0.93403	0.752	0.99677	0.055
Mof_C 	C 	0.9024	0.7989	0.99271	-0.089
Mof_H 	H 	0.9007	0.8467	0.9741	0.065
Mof_C 	C 	0.87442	0.7749	0.0158	-0.017
Mof_H 	H 	0.8538	0.8065	0.0128	0.04
Mof_C 	C 	0.87655	0.7017	0.04458	-0.026
Mof_C 	C 	0.90723	0.6574	0.0476	-0.015
Mof_H 	H 	0.9089	0.6074	0.0649	0.035
Mof_C 	C 	0.93571	0.6844	0.0258	-0.095
Mof_H 	H 	0.9567	0.6561	0.0308	0.065
Mof_C 	C 	0.84628	0.6723	0.07033	0.074
Mof_C 	C 	0.82426	0.7346	0.08759	-0.121
Mof_H 	H 	0.8278	0.7951	0.0826	0.077
Mof_C 	C 	0.79651	0.7073	0.11273	0.037
Mof_H 	H 	0.7819	0.7497	0.1243	0.038
Mof_C 	C 	0.79101	0.6178	0.12012	-0.091
Mof_C 	C 	0.81345	0.5551	0.1015	0.037
Mof_H 	H 	0.8099	0.4943	0.1058	0.038
Mof_C 	C 	0.84048	0.5827	0.0769	-0.123
Mof_H 	H 	0.8549	0.5405	0.0647	0.074
Mof_C 	C 	0.99567	0.8017	0.99682	0.056
Mof_C 	C 	0.99334	0.8659	0.0277	-0.094
Mof_H 	H 	0.972	0.8917	0.0331	0.065
Mof_C 	C 	0.02167	0.893	0.0508	-0.017
Mof_H 	H 	0.0193	0.9389	0.0703	0.034
Mof_C 	C 	0.05384	0.8533	0.04555	-0.024
Mof_C 	C 	0.05574	0.7856	0.0146	-0.019
Mof_H 	H 	0.0767	0.757	0.0102	0.037
Mof_C 	C 	0.02731	0.7609	0.9907	-0.092
Mof_H 	H 	0.0294	0.7165	0.9704	0.066
Mof_C 	C 	0.0847	0.8832	0.07077	0.064
Mof_C 	C 	0.09003	0.9722	0.08025	-0.11
Mof_H 	H 	0.0742	0.0144	0.0705	0.067
Mof_C 	C 	0.11837	0.0007	0.10391	0.021
Mof_H 	H 	0.1216	0.061	0.1101	0.04
Mof_C 	C 	0.14207	0.9363	0.11831	-0.078
Mof_C 	C 	0.13718	0.8478	0.10798	0.029
Mof_H 	H 	0.1533	0.8056	0.117	0.04
Mof_C 	C 	0.10904	0.8206	0.08465	-0.115
Mof_H 	H 	0.1062	0.7605	0.0781	0.072
Mof_C 	C 	0.17016	0.9375	0.75395	0.325
Mof_C 	C 	0.17144	0.9658	0.14618	0.315
Mof_C 	C 	0.76339	0.5851	0.14824	0.335
Mof_In	In	0.78168	0.02187	0.29944	2.521
Mof_O 	O 	0.75477	0.9001	0.26665	-0.462
Mof_O 	O 	0.73881	0.0373	0.25205	-0.525
Mof_O 	O 	0.32527	0.4804	0.25522	-0.484
Mof_O 	O 	0.3103	0.6211	0.25965	-0.521
Mof_O 	O 	0.30884	0.5926	0.83728	-0.46
Mof_O 	O 	0.32474	0.4522	0.84577	-0.518
Mof_O 	O 	0.74125	0.9975	0.84718	-0.529
Mof_O 	O 	0.75496	0.8596	0.83229	-0.488
Mof_C 	C 	0.73546	0.9563	0.24734	0.327
Mof_C 	C 	0.70694	0.9195	0.21968	-0.077
Mof_C 	C 	0.70296	0.8306	0.213	0.029
Mof_H 	H 	0.7187	0.7907	0.2248	0.051
Mof_C 	C 	0.67524	0.7979	0.18834	-0.094
Mof_H 	H 	0.6726	0.7367	0.1841	0.074
Mof_C 	C 	0.65169	0.8583	0.17028	0.054
Mof_C 	C 	0.65663	0.948	0.1759	-0.105
Mof_H 	H 	0.6414	0.9881	0.1631	0.069
Mof_C 	C 	0.68381	0.9806	0.2004	0.022
Mof_H 	H 	0.6868	0.0419	0.204	0.045
Mof_C 	C 	0.6217	0.825	0.14399	-0.004
Mof_C 	C 	0.60663	0.7454	0.15435	-0.034
Mof_H 	H 	0.6154	0.7128	0.177	0.049
Mof_C 	C 	0.57858	0.7122	0.13176	-0.072
Mof_H 	H 	0.5682	0.6587	0.1396	0.06
Mof_C 	C 	0.56553	0.7619	0.09557	0.037
Mof_C 	C 	0.58209	0.8434	0.08764	-0.072
Mof_H 	H 	0.574	0.8783	0.0654	0.059
Mof_C 	C 	0.60959	0.8742	0.111	-0.035
Mof_H 	H 	0.6199	0.9284	0.1043	0.043
Mof_C 	C 	0.53563	0.7285	0.07061	-0.033
Mof_C 	C 	0.50532	0.7009	0.09609	0.05
Mof_C 	C 	0.49265	0.7587	0.1265	-0.086
Mof_H 	H 	0.5034	0.8137	0.1309	0.063
Mof_C 	C 	0.46401	0.7355	0.1506	-0.025
Mof_H 	H 	0.4558	0.7755	0.1704	0.039
Mof_C 	C 	0.44803	0.6551	0.14525	-0.019
Mof_C 	C 	0.46276	0.5935	0.118	-0.023
Mof_H 	H 	0.4539	0.5358	0.116	0.037
Mof_C 	C 	0.49091	0.6183	0.0937	-0.087
Mof_H 	H 	0.5001	0.5768	0.0752	0.061
Mof_C 	C 	0.41741	0.6308	0.17093	0.067
Mof_C 	C 	0.3953	0.6974	0.1859	-0.115
Mof_H 	H 	0.3993	0.757	0.1792	0.072
Mof_C 	C 	0.36745	0.6745	0.2109	0.03
Mof_H 	H 	0.3537	0.7193	0.2221	0.039
Mof_C 	C 	0.36001	0.586	0.21925	-0.086
Mof_C 	C 	0.3825	0.5197	0.2044	0.032
Mof_H 	H 	0.3787	0.4599	0.2109	0.038
Mof_C 	C 	0.41018	0.5436	0.1802	-0.118
Mof_H 	H 	0.4244	0.499	0.1698	0.073
Mof_C 	C 	0.53558	0.725	0.02853	-0.044
Mof_C 	C 	0.56597	0.748	0.00323	0.056
Mof_C 	C 	0.5976	0.7011	0.00729	-0.088
Mof_H 	H 	0.5993	0.6533	0.0259	0.065
Mof_C 	C 	0.62558	0.7251	0.9842	-0.018
Mof_H 	H 	0.6462	0.6935	0.9872	0.04
Mof_C 	C 	0.62345	0.7983	0.95542	-0.025
Mof_C 	C 	0.59277	0.8426	0.9524	-0.016
Mof_H 	H 	0.5911	0.8926	0.9351	0.035
Mof_C 	C 	0.56429	0.8156	0.9742	-0.096
Mof_H 	H 	0.5433	0.8439	0.9692	0.065
Mof_C 	C 	0.65372	0.8277	0.92967	0.073
Mof_C 	C 	0.67574	0.7654	0.91241	-0.12
Mof_H 	H 	0.6722	0.7049	0.9174	0.077
Mof_C 	C 	0.70349	0.7927	0.88727	0.036
Mof_H 	H 	0.7181	0.7503	0.8757	0.038
Mof_C 	C 	0.70899	0.8822	0.87988	-0.09
Mof_C 	C 	0.68655	0.9449	0.8985	0.034
Mof_H 	H 	0.6901	0.0057	0.8942	0.04
Mof_C 	C 	0.65952	0.9173	0.9231	-0.121
Mof_H 	H 	0.6451	0.9595	0.9353	0.074
Mof_C 	C 	0.50433	0.6983	0.00318	0.058
Mof_C 	C 	0.50666	0.6341	0.9723	-0.096
Mof_H 	H 	0.528	0.6083	0.9669	0.066
Mof_C 	C 	0.47833	0.607	0.9492	-0.016
Mof_H 	H 	0.4807	0.5611	0.9297	0.033
Mof_C 	C 	0.44616	0.6467	0.95445	-0.026
Mof_C 	C 	0.44426	0.7144	0.9854	-0.018
Mof_H 	H 	0.4233	0.743	0.9898	0.037
Mof_C 	C 	0.47269	0.7391	0.0093	-0.093
Mof_H 	H 	0.4706	0.7835	0.0296	0.066
Mof_C 	C 	0.4153	0.6168	0.92923	0.067
Mof_C 	C 	0.40997	0.5278	0.91975	-0.116
Mof_H 	H 	0.4258	0.4856	0.9295	0.07
Mof_C 	C 	0.38163	0.4993	0.89609	0.025
Mof_H 	H 	0.3784	0.439	0.8899	0.038
Mof_C 	C 	0.35793	0.5637	0.88169	-0.081
Mof_C 	C 	0.36282	0.6522	0.89202	0.032
Mof_H 	H 	0.3467	0.6944	0.883	0.039
Mof_C 	C 	0.39096	0.6794	0.91535	-0.117
Mof_H 	H 	0.3938	0.7395	0.9219	0.073
Mof_C 	C 	0.32984	0.5625	0.24605	0.326
Mof_C 	C 	0.32856	0.5342	0.85382	0.315
Mof_C 	C 	0.73661	0.9149	0.85176	0.334
Mof_In	In	0.28168	0.52187	0.29944	2.522
Mof_O 	O 	0.25477	0.4001	0.26665	-0.462
Mof_O 	O 	0.23881	0.5373	0.25205	-0.524
Mof_O 	O 	0.82527	0.9804	0.25522	-0.483
Mof_O 	O 	0.8103	0.1211	0.25965	-0.521
Mof_O 	O 	0.80884	0.0926	0.83728	-0.46
Mof_O 	O 	0.82474	0.9522	0.84577	-0.519
Mof_O 	O 	0.24125	0.4975	0.84718	-0.529
Mof_O 	O 	0.25496	0.3596	0.83229	-0.488
Mof_C 	C 	0.23546	0.4563	0.24734	0.325
Mof_C 	C 	0.20694	0.4195	0.21968	-0.076
Mof_C 	C 	0.20296	0.3306	0.213	0.027
Mof_H 	H 	0.2187	0.2907	0.2248	0.051
Mof_C 	C 	0.17524	0.2979	0.18834	-0.092
Mof_H 	H 	0.1726	0.2367	0.1841	0.074
Mof_C 	C 	0.15169	0.3583	0.17028	0.053
Mof_C 	C 	0.15663	0.448	0.1759	-0.103
Mof_H 	H 	0.1414	0.4881	0.1631	0.068
Mof_C 	C 	0.18381	0.4806	0.2004	0.019
Mof_H 	H 	0.1868	0.5419	0.204	0.046
Mof_C 	C 	0.1217	0.325	0.14399	-0.004
Mof_C 	C 	0.10663	0.2454	0.15435	-0.035
Mof_H 	H 	0.1154	0.2128	0.177	0.049
Mof_C 	C 	0.07858	0.2122	0.13176	-0.072
Mof_H 	H 	0.0682	0.1587	0.1396	0.059
Mof_C 	C 	0.06553	0.2619	0.09557	0.037
Mof_C 	C 	0.08209	0.3434	0.08764	-0.072
Mof_H 	H 	0.074	0.3783	0.0654	0.059
Mof_C 	C 	0.10959	0.3742	0.111	-0.036
Mof_H 	H 	0.1199	0.4284	0.1043	0.043
Mof_C 	C 	0.03563	0.2285	0.07061	-0.033
Mof_C 	C 	0.00532	0.2009	0.09609	0.05
Mof_C 	C 	0.99265	0.2587	0.1265	-0.086
Mof_H 	H 	0.0034	0.3137	0.1309	0.063
Mof_C 	C 	0.96401	0.2355	0.1506	-0.025
Mof_H 	H 	0.9558	0.2755	0.1704	0.039
Mof_C 	C 	0.94803	0.1551	0.14525	-0.019
Mof_C 	C 	0.96276	0.0935	0.118	-0.023
Mof_H 	H 	0.9539	0.0358	0.116	0.037
Mof_C 	C 	0.99091	0.1183	0.0937	-0.087
Mof_H 	H 	0.0001	0.0768	0.0752	0.061
Mof_C 	C 	0.91741	0.1308	0.17093	0.067
Mof_C 	C 	0.8953	0.1974	0.1859	-0.115
Mof_H 	H 	0.8993	0.257	0.1792	0.072
Mof_C 	C 	0.86745	0.1745	0.2109	0.03
Mof_H 	H 	0.8537	0.2193	0.2221	0.039
Mof_C 	C 	0.86001	0.086	0.21925	-0.086
Mof_C 	C 	0.8825	0.0197	0.2044	0.031
Mof_H 	H 	0.8787	0.9599	0.2109	0.039
Mof_C 	C 	0.91018	0.0436	0.1802	-0.119
Mof_H 	H 	0.9244	0.999	0.1698	0.074
Mof_C 	C 	0.03558	0.225	0.02853	-0.044
Mof_C 	C 	0.06597	0.248	0.00323	0.055
Mof_C 	C 	0.0976	0.2011	0.00729	-0.089
Mof_H 	H 	0.0993	0.1533	0.0259	0.065
Mof_C 	C 	0.12558	0.2251	0.9842	-0.017
Mof_H 	H 	0.1462	0.1935	0.9872	0.04
Mof_C 	C 	0.12345	0.2983	0.95542	-0.026
Mof_C 	C 	0.09277	0.3426	0.9524	-0.015
Mof_H 	H 	0.0911	0.3926	0.9351	0.035
Mof_C 	C 	0.06429	0.3156	0.9742	-0.095
Mof_H 	H 	0.0433	0.3439	0.9692	0.065
Mof_C 	C 	0.15372	0.3277	0.92967	0.074
Mof_C 	C 	0.17574	0.2654	0.91241	-0.121
Mof_H 	H 	0.1722	0.2049	0.9174	0.077
Mof_C 	C 	0.20349	0.2927	0.88727	0.037
Mof_H 	H 	0.2181	0.2503	0.8757	0.038
Mof_C 	C 	0.20899	0.3822	0.87988	-0.091
Mof_C 	C 	0.18655	0.4449	0.8985	0.037
Mof_H 	H 	0.1901	0.5057	0.8942	0.038
Mof_C 	C 	0.15952	0.4173	0.9231	-0.123
Mof_H 	H 	0.1451	0.4595	0.9353	0.074
Mof_C 	C 	0.00433	0.1983	0.00318	0.056
Mof_C 	C 	0.00666	0.1341	0.9723	-0.094
Mof_H 	H 	0.028	0.1083	0.9669	0.065
Mof_C 	C 	0.97833	0.107	0.9492	-0.017
Mof_H 	H 	0.9807	0.0611	0.9297	0.034
Mof_C 	C 	0.94616	0.1467	0.95445	-0.024
Mof_C 	C 	0.94426	0.2144	0.9854	-0.019
Mof_H 	H 	0.9233	0.243	0.9898	0.037
Mof_C 	C 	0.97269	0.2391	0.0093	-0.092
Mof_H 	H 	0.9706	0.2835	0.0296	0.066
Mof_C 	C 	0.9153	0.1168	0.92923	0.064
Mof_C 	C 	0.90997	0.0278	0.91975	-0.11
Mof_H 	H 	0.9258	0.9856	0.9295	0.067
Mof_C 	C 	0.88163	0.9993	0.89609	0.021
Mof_H 	H 	0.8784	0.939	0.8899	0.04
Mof_C 	C 	0.85793	0.0637	0.88169	-0.078
Mof_C 	C 	0.86282	0.1522	0.89202	0.029
Mof_H 	H 	0.8467	0.1944	0.883	0.04
Mof_C 	C 	0.89096	0.1794	0.91535	-0.115
Mof_H 	H 	0.8938	0.2395	0.9219	0.072
Mof_C 	C 	0.82984	0.0625	0.24605	0.325
Mof_C 	C 	0.82856	0.0342	0.85382	0.315
Mof_C 	C 	0.23661	0.4149	0.85176	0.335
Mof_In	In	0.78168	0.97813	0.79944	2.521
Mof_O 	O 	0.75477	0.0999	0.76665	-0.462
Mof_O 	O 	0.73881	0.9627	0.75205	-0.525
Mof_O 	O 	0.32527	0.5196	0.75522	-0.484
Mof_O 	O 	0.3103	0.3789	0.75965	-0.521
Mof_O 	O 	0.30884	0.4074	0.33728	-0.46
Mof_O 	O 	0.32474	0.5478	0.34577	-0.518
Mof_O 	O 	0.74125	0.0025	0.34718	-0.529
Mof_O 	O 	0.75496	0.1404	0.33229	-0.488
Mof_C 	C 	0.73546	0.0437	0.74734	0.327
Mof_C 	C 	0.70694	0.0805	0.71968	-0.077
Mof_C 	C 	0.70296	0.1694	0.713	0.028
Mof_H 	H 	0.7187	0.2093	0.7248	0.051
Mof_C 	C 	0.67524	0.2021	0.68834	-0.094
Mof_H 	H 	0.6726	0.2633	0.6841	0.074
Mof_C 	C 	0.65169	0.1417	0.67028	0.054
Mof_C 	C 	0.65663	0.052	0.6759	-0.105
Mof_H 	H 	0.6414	0.0119	0.6631	0.069
Mof_C 	C 	0.68381	0.0194	0.7004	0.022
Mof_H 	H 	0.6868	0.9581	0.704	0.045
Mof_C 	C 	0.6217	0.175	0.64399	-0.004
Mof_C 	C 	0.60663	0.2546	0.65435	-0.034
Mof_H 	H 	0.6154	0.2872	0.677	0.049
Mof_C 	C 	0.57858	0.2878	0.63176	-0.072
Mof_H 	H 	0.5682	0.3413	0.6396	0.06
Mof_C 	C 	0.56553	0.2381	0.59557	0.037
Mof_C 	C 	0.58209	0.1566	0.58764	-0.072
Mof_H 	H 	0.574	0.1217	0.5654	0.059
Mof_C 	C 	0.60959	0.1258	0.611	-0.035
Mof_H 	H 	0.6199	0.0716	0.6043	0.043
Mof_C 	C 	0.53563	0.2715	0.57061	-0.033
Mof_C 	C 	0.50532	0.2991	0.59609	0.05
Mof_C 	C 	0.49265	0.2413	0.6265	-0.086
Mof_H 	H 	0.5034	0.1863	0.6309	0.063
Mof_C 	C 	0.46401	0.2645	0.6506	-0.025
Mof_H 	H 	0.4558	0.2245	0.6704	0.039
Mof_C 	C 	0.44803	0.3449	0.64525	-0.019
Mof_C 	C 	0.46276	0.4065	0.618	-0.023
Mof_H 	H 	0.4539	0.4642	0.616	0.037
Mof_C 	C 	0.49091	0.3817	0.5937	-0.087
Mof_H 	H 	0.5001	0.4232	0.5752	0.061
Mof_C 	C 	0.41741	0.3692	0.67093	0.067
Mof_C 	C 	0.3953	0.3026	0.6859	-0.115
Mof_H 	H 	0.3993	0.243	0.6792	0.072
Mof_C 	C 	0.36745	0.3255	0.7109	0.03
Mof_H 	H 	0.3537	0.2807	0.7221	0.039
Mof_C 	C 	0.36001	0.414	0.71925	-0.086
Mof_C 	C 	0.3825	0.4803	0.7044	0.032
Mof_H 	H 	0.3787	0.5401	0.7109	0.038
Mof_C 	C 	0.41018	0.4564	0.6802	-0.118
Mof_H 	H 	0.4244	0.501	0.6698	0.073
Mof_C 	C 	0.53558	0.275	0.52853	-0.044
Mof_C 	C 	0.56597	0.252	0.50323	0.056
Mof_C 	C 	0.5976	0.2989	0.50729	-0.089
Mof_H 	H 	0.5993	0.3467	0.5259	0.065
Mof_C 	C 	0.62558	0.2749	0.4842	-0.018
Mof_H 	H 	0.6462	0.3065	0.4872	0.04
Mof_C 	C 	0.62345	0.2017	0.45542	-0.025
Mof_C 	C 	0.59277	0.1574	0.4524	-0.016
Mof_H 	H 	0.5911	0.1074	0.4351	0.035
Mof_C 	C 	0.56429	0.1844	0.4742	-0.096
Mof_H 	H 	0.5433	0.1561	0.4692	0.065
Mof_C 	C 	0.65372	0.1723	0.42967	0.073
Mof_C 	C 	0.67574	0.2346	0.41241	-0.12
Mof_H 	H 	0.6722	0.2951	0.4174	0.077
Mof_C 	C 	0.70349	0.2073	0.38727	0.037
Mof_H 	H 	0.7181	0.2497	0.3757	0.038
Mof_C 	C 	0.70899	0.1178	0.37988	-0.091
Mof_C 	C 	0.68655	0.0551	0.3985	0.035
Mof_H 	H 	0.6901	0.9943	0.3942	0.039
Mof_C 	C 	0.65952	0.0827	0.4231	-0.122
Mof_H 	H 	0.6451	0.0405	0.4353	0.074
Mof_C 	C 	0.50433	0.3017	0.50318	0.058
Mof_C 	C 	0.50666	0.3659	0.4723	-0.096
Mof_H 	H 	0.528	0.3917	0.4669	0.066
Mof_C 	C 	0.47833	0.393	0.4492	-0.016
Mof_H 	H 	0.4807	0.4389	0.4297	0.033
Mof_C 	C 	0.44616	0.3533	0.45445	-0.026
Mof_C 	C 	0.44426	0.2856	0.4854	-0.018
Mof_H 	H 	0.4233	0.257	0.4898	0.037
Mof_C 	C 	0.47269	0.2609	0.5093	-0.093
Mof_H 	H 	0.4706	0.2165	0.5296	0.066
Mof_C 	C 	0.4153	0.3832	0.42923	0.067
Mof_C 	C 	0.40997	0.4722	0.41975	-0.116
Mof_H 	H 	0.4258	0.5144	0.4295	0.07
Mof_C 	C 	0.38163	0.5007	0.39609	0.025
Mof_H 	H 	0.3784	0.561	0.3899	0.038
Mof_C 	C 	0.35793	0.4363	0.38169	-0.081
Mof_C 	C 	0.36282	0.3478	0.39202	0.032
Mof_H 	H 	0.3467	0.3056	0.383	0.039
Mof_C 	C 	0.39096	0.3206	0.41535	-0.117
Mof_H 	H 	0.3938	0.2605	0.4219	0.073
Mof_C 	C 	0.32984	0.4375	0.74605	0.326
Mof_C 	C 	0.32856	0.4658	0.35382	0.315
Mof_C 	C 	0.73661	0.0851	0.35176	0.335
Mof_In	In	0.28168	0.47813	0.79944	2.522
Mof_O 	O 	0.25477	0.5999	0.76665	-0.462
Mof_O 	O 	0.23881	0.4627	0.75205	-0.524
Mof_O 	O 	0.82527	0.0196	0.75522	-0.483
Mof_O 	O 	0.8103	0.8789	0.75965	-0.521
Mof_O 	O 	0.80884	0.9074	0.33728	-0.46
Mof_O 	O 	0.82474	0.0478	0.34577	-0.519
Mof_O 	O 	0.24125	0.5025	0.34718	-0.529
Mof_O 	O 	0.25496	0.6404	0.33229	-0.488
Mof_C 	C 	0.23546	0.5437	0.74734	0.325
Mof_C 	C 	0.20694	0.5805	0.71968	-0.076
Mof_C 	C 	0.20296	0.6694	0.713	0.027
Mof_H 	H 	0.2187	0.7093	0.7248	0.051
Mof_C 	C 	0.17524	0.7021	0.68834	-0.092
Mof_H 	H 	0.1726	0.7633	0.6841	0.074
Mof_C 	C 	0.15169	0.6417	0.67028	0.053
Mof_C 	C 	0.15663	0.552	0.6759	-0.103
Mof_H 	H 	0.1414	0.5119	0.6631	0.068
Mof_C 	C 	0.18381	0.5194	0.7004	0.019
Mof_H 	H 	0.1868	0.4581	0.704	0.046
Mof_C 	C 	0.1217	0.675	0.64399	-0.004
Mof_C 	C 	0.10663	0.7546	0.65435	-0.035
Mof_H 	H 	0.1154	0.7872	0.677	0.049
Mof_C 	C 	0.07858	0.7878	0.63176	-0.072
Mof_H 	H 	0.0682	0.8413	0.6396	0.059
Mof_C 	C 	0.06553	0.7381	0.59557	0.037
Mof_C 	C 	0.08209	0.6566	0.58764	-0.072
Mof_H 	H 	0.074	0.6217	0.5654	0.059
Mof_C 	C 	0.10959	0.6258	0.611	-0.036
Mof_H 	H 	0.1199	0.5716	0.6043	0.043
Mof_C 	C 	0.03563	0.7715	0.57061	-0.033
Mof_C 	C 	0.00532	0.7991	0.59609	0.05
Mof_C 	C 	0.99265	0.7413	0.6265	-0.087
Mof_H 	H 	0.0034	0.6863	0.6309	0.063
Mof_C 	C 	0.96401	0.7645	0.6506	-0.025
Mof_H 	H 	0.9558	0.7245	0.6704	0.039
Mof_C 	C 	0.94803	0.8449	0.64525	-0.019
Mof_C 	C 	0.96276	0.9065	0.618	-0.023
Mof_H 	H 	0.9539	0.9642	0.616	0.037
Mof_C 	C 	0.99091	0.8817	0.5937	-0.087
Mof_H 	H 	0.0001	0.9232	0.5752	0.061
Mof_C 	C 	0.91741	0.8692	0.67093	0.067
Mof_C 	C 	0.8953	0.8026	0.6859	-0.115
Mof_H 	H 	0.8993	0.743	0.6792	0.072
Mof_C 	C 	0.86745	0.8255	0.7109	0.03
Mof_H 	H 	0.8537	0.7807	0.7221	0.039
Mof_C 	C 	0.86001	0.914	0.71925	-0.086
Mof_C 	C 	0.8825	0.9803	0.7044	0.031
Mof_H 	H 	0.8787	0.0401	0.7109	0.039
Mof_C 	C 	0.91018	0.9564	0.6802	-0.119
Mof_H 	H 	0.9244	0.001	0.6698	0.074
Mof_C 	C 	0.03558	0.775	0.52853	-0.044
Mof_C 	C 	0.06597	0.752	0.50323	0.056
Mof_C 	C 	0.0976	0.7989	0.50729	-0.089
Mof_H 	H 	0.0993	0.8467	0.5259	0.065
Mof_C 	C 	0.12558	0.7749	0.4842	-0.018
Mof_H 	H 	0.1462	0.8065	0.4872	0.04
Mof_C 	C 	0.12345	0.7017	0.45542	-0.026
Mof_C 	C 	0.09277	0.6574	0.4524	-0.015
Mof_H 	H 	0.0911	0.6074	0.4351	0.035
Mof_C 	C 	0.06429	0.6844	0.4742	-0.096
Mof_H 	H 	0.0433	0.6561	0.4692	0.065
Mof_C 	C 	0.15372	0.6723	0.42967	0.074
Mof_C 	C 	0.17574	0.7346	0.41241	-0.121
Mof_H 	H 	0.1722	0.7951	0.4174	0.077
Mof_C 	C 	0.20349	0.7073	0.38727	0.037
Mof_H 	H 	0.2181	0.7497	0.3757	0.038
Mof_C 	C 	0.20899	0.6178	0.37988	-0.091
Mof_C 	C 	0.18655	0.5551	0.3985	0.037
Mof_H 	H 	0.1901	0.4943	0.3942	0.038
Mof_C 	C 	0.15952	0.5827	0.4231	-0.123
Mof_H 	H 	0.1451	0.5405	0.4353	0.074
Mof_C 	C 	0.00433	0.8017	0.50318	0.057
Mof_C 	C 	0.00666	0.8659	0.4723	-0.096
Mof_H 	H 	0.028	0.8917	0.4669	0.066
Mof_C 	C 	0.97833	0.893	0.4492	-0.016
Mof_H 	H 	0.9807	0.9389	0.4297	0.034
Mof_C 	C 	0.94616	0.8533	0.45445	-0.025
Mof_C 	C 	0.94426	0.7856	0.4854	-0.018
Mof_H 	H 	0.9233	0.757	0.4898	0.037
Mof_C 	C 	0.97269	0.7609	0.5093	-0.093
Mof_H 	H 	0.9706	0.7165	0.5296	0.066
Mof_C 	C 	0.9153	0.8832	0.42923	0.066
Mof_C 	C 	0.90997	0.9722	0.41975	-0.113
Mof_H 	H 	0.9258	0.0144	0.4295	0.069
Mof_C 	C 	0.88163	0.0007	0.39609	0.023
Mof_H 	H 	0.8784	0.061	0.3899	0.039
Mof_C 	C 	0.85793	0.9363	0.38169	-0.079
Mof_C 	C 	0.86282	0.8478	0.39202	0.031
Mof_H 	H 	0.8467	0.8056	0.383	0.039
Mof_C 	C 	0.89096	0.8206	0.41535	-0.116
Mof_H 	H 	0.8938	0.7605	0.4219	0.072
Mof_C 	C 	0.82984	0.9375	0.74605	0.325
Mof_C 	C 	0.82856	0.9658	0.35382	0.315
Mof_C 	C 	0.23661	0.5851	0.35176	0.335
_end
