# CIF file generated by openbabel 3.1.0, see https://openbabel.org
data_I
_chemical_name_common 'IXOFOR_clean'
_cell_length_a 6.8127
_cell_length_b 13.7142
_cell_length_c 16.0701
_cell_angle_alpha 90
_cell_angle_beta 90
_cell_angle_gamma 90
_space_group_name_H-M_alt 'P 1'
_space_group_name_Hall 'P 1'
loop_
    _symmetry_equiv_pos_as_xyz
    x,y,z
loop_
    _atom_site_label
    _atom_site_type_symbol
    _atom_site_fract_x
    _atom_site_fract_y
    _atom_site_fract_z
    _atom_site_occupancy
    V1       V        0.43417    0.76462    0.00141    1.000
    V2       V        0.06583    0.23538    0.50141    1.000
    V3       V        0.56583    0.26462    0.49859    1.000
    V4       V        0.93417    0.73538    0.99859    1.000
    H1       H        0.96700    0.45710    0.67610    1.000
    H2       H        0.94640    0.56600    0.78570    1.000
    H3       H        0.52790    0.60810    0.77550    1.000
    H4       H        0.54860    0.50090    0.66480    1.000
    H5       H        0.53300    0.54290    0.17610    1.000
    H6       H        0.55360    0.43400    0.28570    1.000
    H7       H        0.97210    0.39190    0.27550    1.000
    H8       H        0.95140    0.49910    0.16480    1.000
    H9       H        0.03300    0.95710    0.82390    1.000
    H10      H        0.05360    0.06600    0.71430    1.000
    H11      H        0.47210    0.10810    0.72450    1.000
    H12      H        0.45140    0.00090    0.83520    1.000
    H13      H        0.46700    0.04290    0.32390    1.000
    H14      H        0.44640    0.93400    0.21430    1.000
    H15      H        0.02790    0.89190    0.22450    1.000
    H16      H        0.04860    0.99910    0.33520    1.000
    C1       C        0.27580    0.38864    0.59585    1.000
    C2       C        0.26090    0.46563    0.66145    1.000
    C3       C        0.08000    0.48665    0.69663    1.000
    C4       C        0.06790    0.55168    0.76233    1.000
    C5       C        0.23580    0.59550    0.79340    1.000
    C6       C        0.41550    0.57704    0.75607    1.000
    C7       C        0.42800    0.51266    0.69005    1.000
    C8       C        0.22300    0.65783    0.86938    1.000
    C9       C        0.22420    0.61136    0.09585    1.000
    C10      C        0.23910    0.53437    0.16145    1.000
    C11      C        0.42000    0.51335    0.19663    1.000
    C12      C        0.43210    0.44832    0.26233    1.000
    C13      C        0.26420    0.40450    0.29340    1.000
    C14      C        0.08450    0.42296    0.25607    1.000
    C15      C        0.07200    0.48734    0.19005    1.000
    C16      C        0.27700    0.34217    0.36938    1.000
    C17      C        0.72420    0.88864    0.90415    1.000
    C18      C        0.73910    0.96563    0.83855    1.000
    C19      C        0.92000    0.98665    0.80337    1.000
    C20      C        0.93210    0.05168    0.73767    1.000
    C21      C        0.76420    0.09550    0.70660    1.000
    C22      C        0.58450    0.07704    0.74393    1.000
    C23      C        0.57200    0.01266    0.80995    1.000
    C24      C        0.77700    0.15783    0.63062    1.000
    C25      C        0.77580    0.11136    0.40415    1.000
    C26      C        0.76090    0.03437    0.33855    1.000
    C27      C        0.58000    0.01335    0.30337    1.000
    C28      C        0.56790    0.94832    0.23767    1.000
    C29      C        0.73580    0.90450    0.20660    1.000
    C30      C        0.91550    0.92296    0.24393    1.000
    C31      C        0.92800    0.98734    0.30995    1.000
    C32      C        0.72300    0.84217    0.13062    1.000
    O1       O        0.21608    0.80953    0.00983    1.000
    O2       O        0.44412    0.36597    0.57080    1.000
    O3       O        0.38318    0.68900    0.89881    1.000
    O4       O        0.05606    0.67296    0.89933    1.000
    O5       O        0.11665    0.35088    0.57168    1.000
    O6       O        0.28392    0.19047    0.50983    1.000
    O7       O        0.05588    0.63403    0.07080    1.000
    O8       O        0.11682    0.31100    0.39881    1.000
    O9       O        0.44394    0.32704    0.39933    1.000
    O10      O        0.38335    0.64912    0.07168    1.000
    O11      O        0.78392    0.30953    0.49017    1.000
    O12      O        0.55588    0.86597    0.92920    1.000
    O13      O        0.61682    0.18900    0.60119    1.000
    O14      O        0.94394    0.17296    0.60067    1.000
    O15      O        0.88335    0.85088    0.92832    1.000
    O16      O        0.71608    0.69047    0.99017    1.000
    O17      O        0.94412    0.13403    0.42920    1.000
    O18      O        0.88318    0.81100    0.10119    1.000
    O19      O        0.55606    0.82704    0.10067    1.000
    O20      O        0.61665    0.14912    0.42832    1.000
