data_functionalizedCrystal
_audit_creation_method	'EQeq! by Chris Wilmer'
_symmetry_space_group_name_H-M	'P1'
_symmetry_Int_Tables_number	1
_symmetry_cell_setting	triclinic
loop_
_symmetry_equiv_pos_as_xyz
  x,y,z
_cell_length_a	19.5639
_cell_length_b	19.5639
_cell_length_c	26.8732
_cell_angle_alpha	90
_cell_angle_beta	90
_cell_angle_gamma	120
loop_
_atom_site_label
_atom_site_type_symbol
_atom_site_fract_x
_atom_site_fract_y
_atom_site_fract_z
_atom_site_charge
Mof_Cd	Cd	0.28993	0.01014	0.36144	0.404
Mof_C 	C 	0.9995	0.9253	0.37434	-0.038
Mof_H 	H 	0.9995	0.9223	0.3383	0.05
Mof_H 	H 	0.9993	0.8791	0.3875	0.05
Mof_C 	C 	0.0745	0.9996	0.39157	-0.135
Mof_H 	H 	0.074	0.9996	0.428	0.073
Mof_C 	C 	0.1481	0.9981	0.37529	0.298
Mof_C 	C 	0.3817	0.0885	0.5684	0.233
Mof_C 	C 	0.4561	0.0979	0.5676	-0.293
Mof_H 	H 	0.4835	0.1066	0.5379	0.138
Mof_C 	C 	0.4892	0.0941	0.61247	0.233
Mof_C 	C 	0.4496	0.0819	0.65666	-0.294
Mof_H 	H 	0.4726	0.0796	0.6864	0.137
Mof_C 	C 	0.3749	0.0732	0.65621	0.235
Mof_C 	C 	0.3396	0.0769	0.61224	-0.289
Mof_H 	H 	0.2898	0.0719	0.6122	0.149
Mof_C 	C 	0.2866	0.1075	0.51495	-0.003
Mof_H 	H 	0.2671	0.1289	0.538	0.046
Mof_C 	C 	0.2658	0.0906	0.46703	0.012
Mof_H 	H 	0.2283	0.099	0.4513	0.034
Mof_C 	C 	0.3535	0.0576	0.4788	0.101
Mof_H 	H 	0.3887	0.0394	0.4741	-0.002
Mof_C 	C 	0.6291	0.1484	0.5814	0.002
Mof_H 	H 	0.6341	0.1885	0.5605	0.031
Mof_C 	C 	0.683	0.1246	0.589	0.011
Mof_H 	H 	0.7322	0.1468	0.5738	0.033
Mof_C 	C 	0.5822	0.0483	0.6317	0.107
Mof_H 	H 	0.547	0.0056	0.651	-0.009
Mof_C 	C 	0.2412	0.0032	0.7004	-0.008
Mof_H 	H 	0.2082	0.9846	0.6728	0.039
Mof_C 	C 	0.2207	0.9887	0.7487	-0.022
Mof_H 	H 	0.1696	0.9582	0.761	0.047
Mof_C 	C 	0.347	0.0459	0.74649	0.13
Mof_H 	H 	0.3949	0.0494	0.7545	-0.016
Mof_C 	C 	0.6178	0.3661	0.3223	-0.291
Mof_H 	H 	0.5853	0.3881	0.3209	0.137
Mof_C 	C 	0.586	0.2855	0.3233	0.238
Mof_C 	C 	0.4483	0.2532	0.3055	0.012
Mof_H 	H 	0.4572	0.2986	0.2889	0.028
Mof_C 	C 	0.3767	0.188	0.3177	0.005
Mof_H 	H 	0.3278	0.1842	0.3134	0.042
Mof_C 	C 	0.4642	0.161	0.338	0.115
Mof_H 	H 	0.4889	0.1333	0.3482	-0.013
Mof_N 	N 	0.3072	0.0593	0.44402	-0.14
Mof_N 	N 	0.3431	0.086	0.52248	-0.157
Mof_N 	N 	0.6548	0.0646	0.62154	-0.154
Mof_N 	N 	0.5652	0.0998	0.61142	-0.163
Mof_N 	N 	0.2944	0.0303	0.77921	-0.152
Mof_N 	N 	0.3304	0.0567	0.70088	-0.165
Mof_N 	N 	0.388	0.1302	0.3368	-0.15
Mof_N 	N 	0.5034	0.2357	0.3234	-0.168
Mof_O 	O 	0.20255	0.05852	0.35486	-0.286
Mof_O 	O 	0.15295	0.93704	0.38453	-0.287
Mof_C 	C 	0.282	0.0912	0.7117	-0.017
Mof_H 	H 	0.268	0.1191	0.6899	0.044
Mof_C 	C 	0.2615	0.0745	0.7596	0.013
Mof_H 	H 	0.2304	0.0897	0.7773	0.023
Mof_Cd	Cd	0.98986	0.27979	0.36144	0.405
Mof_C 	C 	0.0747	0.0742	0.37434	-0.037
Mof_H 	H 	0.0777	0.0772	0.3383	0.05
Mof_H 	H 	0.1209	0.1202	0.3875	0.05
Mof_C 	C 	0.0004	0.0749	0.39157	-0.136
Mof_H 	H 	0.0004	0.0744	0.428	0.073
Mof_C 	C 	0.0019	0.15	0.37529	0.298
Mof_C 	C 	0.9115	0.2932	0.5684	0.233
Mof_C 	C 	0.9021	0.3582	0.5676	-0.293
Mof_H 	H 	0.8934	0.3769	0.5379	0.138
Mof_C 	C 	0.9059	0.3951	0.61247	0.233
Mof_C 	C 	0.9181	0.3677	0.65666	-0.294
Mof_H 	H 	0.9204	0.393	0.6864	0.137
Mof_C 	C 	0.9268	0.3017	0.65621	0.235
Mof_C 	C 	0.9231	0.2627	0.61224	-0.29
Mof_H 	H 	0.9281	0.2179	0.6122	0.149
Mof_C 	C 	0.8925	0.1791	0.51495	-0.003
Mof_H 	H 	0.8711	0.1382	0.538	0.046
Mof_C 	C 	0.9094	0.1752	0.46703	0.013
Mof_H 	H 	0.901	0.1293	0.4513	0.034
Mof_C 	C 	0.9424	0.2959	0.4788	0.101
Mof_H 	H 	0.9606	0.3493	0.4741	-0.002
Mof_C 	C 	0.8516	0.4807	0.5814	0.002
Mof_H 	H 	0.8115	0.4456	0.5605	0.031
Mof_C 	C 	0.8754	0.5584	0.589	0.011
Mof_H 	H 	0.8532	0.5854	0.5738	0.033
Mof_C 	C 	0.9517	0.5339	0.6317	0.107
Mof_H 	H 	0.9944	0.5414	0.651	-0.009
Mof_C 	C 	0.9968	0.238	0.7004	-0.007
Mof_H 	H 	0.0154	0.2236	0.6728	0.039
Mof_C 	C 	0.0113	0.232	0.7487	-0.023
Mof_H 	H 	0.0418	0.2114	0.761	0.048
Mof_C 	C 	0.9541	0.3011	0.74649	0.13
Mof_H 	H 	0.9506	0.3455	0.7545	-0.016
Mof_C 	C 	0.6339	0.2517	0.3223	-0.291
Mof_H 	H 	0.6119	0.1972	0.3209	0.137
Mof_C 	C 	0.7145	0.3005	0.3233	0.238
Mof_C 	C 	0.7468	0.1951	0.3055	0.012
Mof_H 	H 	0.7014	0.1586	0.2889	0.028
Mof_C 	C 	0.812	0.1887	0.3177	0.005
Mof_H 	H 	0.8158	0.1436	0.3134	0.042
Mof_C 	C 	0.839	0.3032	0.338	0.115
Mof_H 	H 	0.8667	0.3556	0.3482	-0.013
Mof_N 	N 	0.9407	0.2479	0.44402	-0.14
Mof_N 	N 	0.914	0.2571	0.52248	-0.157
Mof_N 	N 	0.9354	0.5902	0.62154	-0.154
Mof_N 	N 	0.9002	0.4654	0.61142	-0.163
Mof_N 	N 	0.9697	0.2641	0.77921	-0.152
Mof_N 	N 	0.9433	0.2737	0.70088	-0.165
Mof_N 	N 	0.8698	0.2578	0.3368	-0.15
Mof_N 	N 	0.7643	0.2677	0.3234	-0.168
Mof_O 	O 	0.94148	0.14403	0.35486	-0.286
Mof_O 	O 	0.06296	0.21591	0.38453	-0.287
Mof_C 	C 	0.9088	0.1908	0.7117	-0.017
Mof_H 	H 	0.8809	0.1489	0.6899	0.044
Mof_C 	C 	0.9255	0.187	0.7596	0.014
Mof_H 	H 	0.9103	0.1407	0.7773	0.023
Mof_Cd	Cd	0.72021	0.71007	0.36144	0.405
Mof_C 	C 	0.9258	0.0005	0.37434	-0.037
Mof_H 	H 	0.9228	0.0005	0.3383	0.05
Mof_H 	H 	0.8798	0.0007	0.3875	0.05
Mof_C 	C 	0.9251	0.9255	0.39157	-0.136
Mof_H 	H 	0.9256	0.926	0.428	0.073
Mof_C 	C 	0.85	0.8519	0.37529	0.298
Mof_C 	C 	0.7068	0.6183	0.5684	0.233
Mof_C 	C 	0.6418	0.5439	0.5676	-0.293
Mof_H 	H 	0.6231	0.5165	0.5379	0.138
Mof_C 	C 	0.6049	0.5108	0.61247	0.233
Mof_C 	C 	0.6323	0.5504	0.65666	-0.294
Mof_H 	H 	0.607	0.5274	0.6864	0.137
Mof_C 	C 	0.6983	0.6251	0.65621	0.234
Mof_C 	C 	0.7373	0.6604	0.61224	-0.289
Mof_H 	H 	0.7821	0.7102	0.6122	0.149
Mof_C 	C 	0.8209	0.7134	0.51495	-0.003
Mof_H 	H 	0.8618	0.7329	0.538	0.046
Mof_C 	C 	0.8248	0.7342	0.46703	0.012
Mof_H 	H 	0.8707	0.7717	0.4513	0.034
Mof_C 	C 	0.7041	0.6465	0.4788	0.101
Mof_H 	H 	0.6507	0.6113	0.4741	-0.002
Mof_C 	C 	0.5193	0.3709	0.5814	0.002
Mof_H 	H 	0.5544	0.3659	0.5605	0.031
Mof_C 	C 	0.4416	0.317	0.589	0.011
Mof_H 	H 	0.4146	0.2678	0.5738	0.033
Mof_C 	C 	0.4661	0.4178	0.6317	0.107
Mof_H 	H 	0.4586	0.453	0.651	-0.01
Mof_C 	C 	0.762	0.7588	0.7004	-0.009
Mof_H 	H 	0.7764	0.7918	0.6728	0.04
Mof_C 	C 	0.768	0.7793	0.7487	-0.021
Mof_H 	H 	0.7886	0.8304	0.761	0.047
Mof_C 	C 	0.6989	0.653	0.74649	0.13
Mof_H 	H 	0.6545	0.6051	0.7545	-0.016
Mof_C 	C 	0.7483	0.3822	0.3223	-0.291
Mof_H 	H 	0.8028	0.4147	0.3209	0.137
Mof_C 	C 	0.6995	0.414	0.3233	0.238
Mof_C 	C 	0.8049	0.5517	0.3055	0.012
Mof_H 	H 	0.8414	0.5428	0.2889	0.028
Mof_C 	C 	0.8113	0.6233	0.3177	0.005
Mof_H 	H 	0.8564	0.6722	0.3134	0.042
Mof_C 	C 	0.6968	0.5358	0.338	0.115
Mof_H 	H 	0.6444	0.5111	0.3482	-0.013
Mof_N 	N 	0.7521	0.6928	0.44402	-0.14
Mof_N 	N 	0.7429	0.6569	0.52248	-0.157
Mof_N 	N 	0.4098	0.3452	0.62154	-0.154
Mof_N 	N 	0.5346	0.4348	0.61142	-0.163
Mof_N 	N 	0.7359	0.7056	0.77921	-0.152
Mof_N 	N 	0.7263	0.6696	0.70088	-0.165
Mof_N 	N 	0.7422	0.612	0.3368	-0.15
Mof_N 	N 	0.7323	0.4966	0.3234	-0.168
Mof_O 	O 	0.85597	0.79745	0.35486	-0.285
Mof_O 	O 	0.78409	0.84705	0.38453	-0.287
Mof_C 	C 	0.8092	0.718	0.7117	-0.016
Mof_H 	H 	0.8511	0.732	0.6899	0.044
Mof_C 	C 	0.813	0.7385	0.7596	0.012
Mof_H 	H 	0.8593	0.7696	0.7773	0.024
Mof_Cd	Cd	0.98986	0.71007	0.13856	0.405
Mof_C 	C 	0.0747	0.0005	0.12566	-0.039
Mof_H 	H 	0.0777	0.0005	0.1617	0.05
Mof_H 	H 	0.1209	0.0007	0.1125	0.051
Mof_C 	C 	0.0004	0.9255	0.10843	-0.134
Mof_H 	H 	0.0004	0.926	0.072	0.073
Mof_C 	C 	0.0019	0.8519	0.12471	0.299
Mof_C 	C 	0.9115	0.6183	0.9316	0.233
Mof_C 	C 	0.9021	0.5439	0.9324	-0.293
Mof_H 	H 	0.8934	0.5165	0.9621	0.138
Mof_C 	C 	0.9059	0.5108	0.88753	0.233
Mof_C 	C 	0.9181	0.5504	0.84334	-0.294
Mof_H 	H 	0.9204	0.5274	0.8136	0.137
Mof_C 	C 	0.9268	0.6251	0.84379	0.235
Mof_C 	C 	0.9231	0.6604	0.88776	-0.29
Mof_H 	H 	0.9281	0.7102	0.8878	0.149
Mof_C 	C 	0.8925	0.7134	0.98505	-0.003
Mof_H 	H 	0.8711	0.7329	0.962	0.046
Mof_C 	C 	0.9094	0.7342	0.03297	0.012
Mof_H 	H 	0.901	0.7717	0.0487	0.034
Mof_C 	C 	0.9424	0.6465	0.0212	0.1
Mof_H 	H 	0.9606	0.6113	0.0259	-0.002
Mof_C 	C 	0.8516	0.3709	0.9186	0.002
Mof_H 	H 	0.8115	0.3659	0.9395	0.031
Mof_C 	C 	0.8754	0.317	0.911	0.011
Mof_H 	H 	0.8532	0.2678	0.9262	0.033
Mof_C 	C 	0.9517	0.4178	0.8683	0.107
Mof_H 	H 	0.9944	0.453	0.849	-0.009
Mof_C 	C 	0.9968	0.7588	0.7996	-0.007
Mof_H 	H 	0.0154	0.7918	0.8272	0.039
Mof_C 	C 	0.0113	0.7793	0.7513	-0.023
Mof_H 	H 	0.0418	0.8304	0.739	0.047
Mof_C 	C 	0.9541	0.653	0.75351	0.13
Mof_H 	H 	0.9506	0.6051	0.7455	-0.016
Mof_C 	C 	0.6339	0.3822	0.1777	-0.291
Mof_H 	H 	0.6119	0.4147	0.1791	0.137
Mof_C 	C 	0.7145	0.414	0.1767	0.238
Mof_C 	C 	0.7468	0.5517	0.1945	0.012
Mof_H 	H 	0.7014	0.5428	0.2111	0.028
Mof_C 	C 	0.812	0.6233	0.1823	0.005
Mof_H 	H 	0.8158	0.6722	0.1866	0.042
Mof_C 	C 	0.839	0.5358	0.162	0.115
Mof_H 	H 	0.8667	0.5111	0.1518	-0.013
Mof_N 	N 	0.9407	0.6928	0.05598	-0.14
Mof_N 	N 	0.914	0.6569	0.97752	-0.157
Mof_N 	N 	0.9354	0.3452	0.87846	-0.154
Mof_N 	N 	0.9002	0.4348	0.88858	-0.163
Mof_N 	N 	0.9697	0.7056	0.72079	-0.152
Mof_N 	N 	0.9433	0.6696	0.79912	-0.165
Mof_N 	N 	0.8698	0.612	0.1632	-0.15
Mof_N 	N 	0.7643	0.4966	0.1766	-0.168
Mof_O 	O 	0.94148	0.79745	0.14514	-0.286
Mof_O 	O 	0.06296	0.84705	0.11547	-0.287
Mof_C 	C 	0.9088	0.718	0.7883	-0.017
Mof_H 	H 	0.8809	0.732	0.8101	0.044
Mof_C 	C 	0.9255	0.7385	0.7404	0.013
Mof_H 	H 	0.9103	0.7696	0.7227	0.023
Mof_Cd	Cd	0.72021	0.01014	0.13856	0.405
Mof_C 	C 	0.9258	0.9253	0.12566	-0.039
Mof_H 	H 	0.9228	0.9223	0.1617	0.05
Mof_H 	H 	0.8798	0.8791	0.1125	0.051
Mof_C 	C 	0.9251	0.9996	0.10843	-0.135
Mof_H 	H 	0.9256	0.9996	0.072	0.073
Mof_C 	C 	0.85	0.9981	0.12471	0.298
Mof_C 	C 	0.7068	0.0885	0.9316	0.233
Mof_C 	C 	0.6418	0.0979	0.9324	-0.293
Mof_H 	H 	0.6231	0.1066	0.9621	0.139
Mof_C 	C 	0.6049	0.0941	0.88753	0.234
Mof_C 	C 	0.6323	0.0819	0.84334	-0.294
Mof_H 	H 	0.607	0.0796	0.8136	0.137
Mof_C 	C 	0.6983	0.0732	0.84379	0.235
Mof_C 	C 	0.7373	0.0769	0.88776	-0.29
Mof_H 	H 	0.7821	0.0719	0.8878	0.149
Mof_C 	C 	0.8209	0.1075	0.98505	-0.001
Mof_H 	H 	0.8618	0.1289	0.962	0.045
Mof_C 	C 	0.8248	0.0906	0.03297	0.011
Mof_H 	H 	0.8707	0.099	0.0487	0.035
Mof_C 	C 	0.7041	0.0576	0.0212	0.1
Mof_H 	H 	0.6507	0.0394	0.0259	-0.002
Mof_C 	C 	0.5193	0.1484	0.9186	0.002
Mof_H 	H 	0.5544	0.1885	0.9395	0.031
Mof_C 	C 	0.4416	0.1246	0.911	0.011
Mof_H 	H 	0.4146	0.1468	0.9262	0.033
Mof_C 	C 	0.4661	0.0483	0.8683	0.107
Mof_H 	H 	0.4586	0.0056	0.849	-0.009
Mof_C 	C 	0.762	0.0032	0.7996	-0.006
Mof_H 	H 	0.7764	0.9846	0.8272	0.038
Mof_C 	C 	0.768	0.9887	0.7513	-0.024
Mof_H 	H 	0.7886	0.9582	0.739	0.048
Mof_C 	C 	0.6989	0.0459	0.75351	0.13
Mof_H 	H 	0.6545	0.0494	0.7455	-0.016
Mof_C 	C 	0.7483	0.3661	0.1777	-0.291
Mof_H 	H 	0.8028	0.3881	0.1791	0.137
Mof_C 	C 	0.6995	0.2855	0.1767	0.238
Mof_C 	C 	0.8049	0.2532	0.1945	0.012
Mof_H 	H 	0.8414	0.2986	0.2111	0.028
Mof_C 	C 	0.8113	0.188	0.1823	0.005
Mof_H 	H 	0.8564	0.1842	0.1866	0.042
Mof_C 	C 	0.6968	0.161	0.162	0.115
Mof_H 	H 	0.6444	0.1333	0.1518	-0.013
Mof_N 	N 	0.7521	0.0593	0.05598	-0.14
Mof_N 	N 	0.7429	0.086	0.97752	-0.157
Mof_N 	N 	0.4098	0.0646	0.87846	-0.154
Mof_N 	N 	0.5346	0.0998	0.88858	-0.163
Mof_N 	N 	0.7359	0.0303	0.72079	-0.152
Mof_N 	N 	0.7263	0.0567	0.79912	-0.165
Mof_N 	N 	0.7422	0.1302	0.1632	-0.15
Mof_N 	N 	0.7323	0.2357	0.1766	-0.168
Mof_O 	O 	0.85597	0.05852	0.14514	-0.286
Mof_O 	O 	0.78409	0.93704	0.11547	-0.287
Mof_C 	C 	0.8092	0.0912	0.7883	-0.018
Mof_H 	H 	0.8511	0.1191	0.8101	0.045
Mof_C 	C 	0.813	0.0745	0.7404	0.014
Mof_H 	H 	0.8593	0.0897	0.7227	0.023
Mof_Cd	Cd	0.28993	0.27979	0.13856	0.405
Mof_C 	C 	0.9995	0.0742	0.12566	-0.038
Mof_H 	H 	0.9995	0.0772	0.1617	0.05
Mof_H 	H 	0.9993	0.1202	0.1125	0.05
Mof_C 	C 	0.0745	0.0749	0.10843	-0.135
Mof_H 	H 	0.074	0.0744	0.072	0.073
Mof_C 	C 	0.1481	0.15	0.12471	0.298
Mof_C 	C 	0.3817	0.2932	0.9316	0.233
Mof_C 	C 	0.4561	0.3582	0.9324	-0.293
Mof_H 	H 	0.4835	0.3769	0.9621	0.138
Mof_C 	C 	0.4892	0.3951	0.88753	0.233
Mof_C 	C 	0.4496	0.3677	0.84334	-0.294
Mof_H 	H 	0.4726	0.393	0.8136	0.137
Mof_C 	C 	0.3749	0.3017	0.84379	0.234
Mof_C 	C 	0.3396	0.2627	0.88776	-0.289
Mof_H 	H 	0.2898	0.2179	0.8878	0.149
Mof_C 	C 	0.2866	0.1791	0.98505	-0.003
Mof_H 	H 	0.2671	0.1382	0.962	0.046
Mof_C 	C 	0.2658	0.1752	0.03297	0.012
Mof_H 	H 	0.2283	0.1293	0.0487	0.034
Mof_C 	C 	0.3535	0.2959	0.0212	0.101
Mof_H 	H 	0.3887	0.3493	0.0259	-0.002
Mof_C 	C 	0.6291	0.4807	0.9186	0.002
Mof_H 	H 	0.6341	0.4456	0.9395	0.031
Mof_C 	C 	0.683	0.5584	0.911	0.011
Mof_H 	H 	0.7322	0.5854	0.9262	0.033
Mof_C 	C 	0.5822	0.5339	0.8683	0.107
Mof_H 	H 	0.547	0.5414	0.849	-0.01
Mof_C 	C 	0.2412	0.238	0.7996	-0.009
Mof_H 	H 	0.2082	0.2236	0.8272	0.04
Mof_C 	C 	0.2207	0.232	0.7513	-0.021
Mof_H 	H 	0.1696	0.2114	0.739	0.047
Mof_C 	C 	0.347	0.3011	0.75351	0.13
Mof_H 	H 	0.3949	0.3455	0.7455	-0.016
Mof_C 	C 	0.6178	0.2517	0.1777	-0.291
Mof_H 	H 	0.5853	0.1972	0.1791	0.137
Mof_C 	C 	0.586	0.3005	0.1767	0.238
Mof_C 	C 	0.4483	0.1951	0.1945	0.012
Mof_H 	H 	0.4572	0.1586	0.2111	0.028
Mof_C 	C 	0.3767	0.1887	0.1823	0.005
Mof_H 	H 	0.3278	0.1436	0.1866	0.042
Mof_C 	C 	0.4642	0.3032	0.162	0.115
Mof_H 	H 	0.4889	0.3556	0.1518	-0.013
Mof_N 	N 	0.3072	0.2479	0.05598	-0.14
Mof_N 	N 	0.3431	0.2571	0.97752	-0.157
Mof_N 	N 	0.6548	0.5902	0.87846	-0.154
Mof_N 	N 	0.5652	0.4654	0.88858	-0.163
Mof_N 	N 	0.2944	0.2641	0.72079	-0.152
Mof_N 	N 	0.3304	0.2737	0.79912	-0.165
Mof_N 	N 	0.388	0.2578	0.1632	-0.15
Mof_N 	N 	0.5034	0.2677	0.1766	-0.168
Mof_O 	O 	0.20255	0.14403	0.14514	-0.285
Mof_O 	O 	0.15295	0.21591	0.11547	-0.287
Mof_C 	C 	0.282	0.1908	0.7883	-0.016
Mof_H 	H 	0.268	0.1489	0.8101	0.044
Mof_C 	C 	0.2615	0.187	0.7404	0.012
Mof_H 	H 	0.2304	0.1407	0.7227	0.024
Mof_Cd	Cd	0.71007	0.98986	0.63856	0.405
Mof_C 	C 	0.0005	0.0747	0.62566	-0.037
Mof_H 	H 	0.0005	0.0777	0.6617	0.05
Mof_H 	H 	0.0007	0.1209	0.6125	0.05
Mof_C 	C 	0.9255	0.0004	0.60843	-0.135
Mof_H 	H 	0.926	0.0004	0.572	0.073
Mof_C 	C 	0.8519	0.0019	0.62471	0.298
Mof_C 	C 	0.6183	0.9115	0.4316	0.233
Mof_C 	C 	0.5439	0.9021	0.4324	-0.293
Mof_H 	H 	0.5165	0.8934	0.4621	0.138
Mof_C 	C 	0.5108	0.9059	0.38753	0.233
Mof_C 	C 	0.5504	0.9181	0.34334	-0.294
Mof_H 	H 	0.5274	0.9204	0.3136	0.137
Mof_C 	C 	0.6251	0.9268	0.34379	0.235
Mof_C 	C 	0.6604	0.9231	0.38776	-0.289
Mof_H 	H 	0.7102	0.9281	0.3878	0.149
Mof_C 	C 	0.7134	0.8925	0.48505	-0.003
Mof_H 	H 	0.7329	0.8711	0.462	0.046
Mof_C 	C 	0.7342	0.9094	0.53297	0.012
Mof_H 	H 	0.7717	0.901	0.5487	0.034
Mof_C 	C 	0.6465	0.9424	0.5212	0.101
Mof_H 	H 	0.6113	0.9606	0.5259	-0.002
Mof_C 	C 	0.3709	0.8516	0.4186	0.002
Mof_H 	H 	0.3659	0.8115	0.4395	0.031
Mof_C 	C 	0.317	0.8754	0.411	0.011
Mof_H 	H 	0.2678	0.8532	0.4262	0.033
Mof_C 	C 	0.4178	0.9517	0.3683	0.107
Mof_H 	H 	0.453	0.9944	0.349	-0.009
Mof_C 	C 	0.7588	0.9968	0.2996	-0.008
Mof_H 	H 	0.7918	0.0154	0.3272	0.039
Mof_C 	C 	0.7793	0.0113	0.2513	-0.022
Mof_H 	H 	0.8304	0.0418	0.239	0.047
Mof_C 	C 	0.653	0.9541	0.25351	0.13
Mof_H 	H 	0.6051	0.9506	0.2455	-0.016
Mof_C 	C 	0.3822	0.6339	0.6777	-0.291
Mof_H 	H 	0.4147	0.6119	0.6791	0.137
Mof_C 	C 	0.414	0.7145	0.6767	0.238
Mof_C 	C 	0.5517	0.7468	0.6945	0.012
Mof_H 	H 	0.5428	0.7014	0.7111	0.028
Mof_C 	C 	0.6233	0.812	0.6823	0.005
Mof_H 	H 	0.6722	0.8158	0.6866	0.042
Mof_C 	C 	0.5358	0.839	0.662	0.115
Mof_H 	H 	0.5111	0.8667	0.6518	-0.013
Mof_N 	N 	0.6928	0.9407	0.55598	-0.14
Mof_N 	N 	0.6569	0.914	0.47752	-0.157
Mof_N 	N 	0.3452	0.9354	0.37846	-0.154
Mof_N 	N 	0.4348	0.9002	0.38858	-0.163
Mof_N 	N 	0.7056	0.9697	0.22079	-0.152
Mof_N 	N 	0.6696	0.9433	0.29912	-0.165
Mof_N 	N 	0.612	0.8698	0.6632	-0.15
Mof_N 	N 	0.4966	0.7643	0.6766	-0.168
Mof_O 	O 	0.79745	0.94148	0.64514	-0.286
Mof_O 	O 	0.84705	0.06296	0.61547	-0.287
Mof_C 	C 	0.718	0.9088	0.2883	-0.017
Mof_H 	H 	0.732	0.8809	0.3101	0.044
Mof_C 	C 	0.7385	0.9255	0.2404	0.013
Mof_H 	H 	0.7696	0.9103	0.2227	0.023
Mof_Cd	Cd	0.01014	0.72021	0.63856	0.405
Mof_C 	C 	0.9253	0.9258	0.62566	-0.037
Mof_H 	H 	0.9223	0.9228	0.6617	0.05
Mof_H 	H 	0.8791	0.8798	0.6125	0.05
Mof_C 	C 	0.9996	0.9251	0.60843	-0.136
Mof_H 	H 	0.9996	0.9256	0.572	0.073
Mof_C 	C 	0.9981	0.85	0.62471	0.298
Mof_C 	C 	0.0885	0.7068	0.4316	0.233
Mof_C 	C 	0.0979	0.6418	0.4324	-0.293
Mof_H 	H 	0.1066	0.6231	0.4621	0.138
Mof_C 	C 	0.0941	0.6049	0.38753	0.233
Mof_C 	C 	0.0819	0.6323	0.34334	-0.294
Mof_H 	H 	0.0796	0.607	0.3136	0.137
Mof_C 	C 	0.0732	0.6983	0.34379	0.235
Mof_C 	C 	0.0769	0.7373	0.38776	-0.29
Mof_H 	H 	0.0719	0.7821	0.3878	0.149
Mof_C 	C 	0.1075	0.8209	0.48505	-0.003
Mof_H 	H 	0.1289	0.8618	0.462	0.046
Mof_C 	C 	0.0906	0.8248	0.53297	0.013
Mof_H 	H 	0.099	0.8707	0.5487	0.034
Mof_C 	C 	0.0576	0.7041	0.5212	0.101
Mof_H 	H 	0.0394	0.6507	0.5259	-0.002
Mof_C 	C 	0.1484	0.5193	0.4186	0.002
Mof_H 	H 	0.1885	0.5544	0.4395	0.031
Mof_C 	C 	0.1246	0.4416	0.411	0.011
Mof_H 	H 	0.1468	0.4146	0.4262	0.033
Mof_C 	C 	0.0483	0.4661	0.3683	0.107
Mof_H 	H 	0.0056	0.4586	0.349	-0.009
Mof_C 	C 	0.0032	0.762	0.2996	-0.007
Mof_H 	H 	0.9846	0.7764	0.3272	0.039
Mof_C 	C 	0.9887	0.768	0.2513	-0.023
Mof_H 	H 	0.9582	0.7886	0.239	0.048
Mof_C 	C 	0.0459	0.6989	0.25351	0.13
Mof_H 	H 	0.0494	0.6545	0.2455	-0.016
Mof_C 	C 	0.3661	0.7483	0.6777	-0.291
Mof_H 	H 	0.3881	0.8028	0.6791	0.137
Mof_C 	C 	0.2855	0.6995	0.6767	0.238
Mof_C 	C 	0.2532	0.8049	0.6945	0.012
Mof_H 	H 	0.2986	0.8414	0.7111	0.028
Mof_C 	C 	0.188	0.8113	0.6823	0.005
Mof_H 	H 	0.1842	0.8564	0.6866	0.042
Mof_C 	C 	0.161	0.6968	0.662	0.115
Mof_H 	H 	0.1333	0.6444	0.6518	-0.013
Mof_N 	N 	0.0593	0.7521	0.55598	-0.14
Mof_N 	N 	0.086	0.7429	0.47752	-0.157
Mof_N 	N 	0.0646	0.4098	0.37846	-0.154
Mof_N 	N 	0.0998	0.5346	0.38858	-0.163
Mof_N 	N 	0.0303	0.7359	0.22079	-0.152
Mof_N 	N 	0.0567	0.7263	0.29912	-0.165
Mof_N 	N 	0.1302	0.7422	0.6632	-0.15
Mof_N 	N 	0.2357	0.7323	0.6766	-0.168
Mof_O 	O 	0.05852	0.85597	0.64514	-0.286
Mof_O 	O 	0.93704	0.78409	0.61547	-0.287
Mof_C 	C 	0.0912	0.8092	0.2883	-0.017
Mof_H 	H 	0.1191	0.8511	0.3101	0.044
Mof_C 	C 	0.0745	0.813	0.2404	0.014
Mof_H 	H 	0.0897	0.8593	0.2227	0.023
Mof_Cd	Cd	0.27979	0.28993	0.63856	0.405
Mof_C 	C 	0.0742	0.9995	0.62566	-0.037
Mof_H 	H 	0.0772	0.9995	0.6617	0.05
Mof_H 	H 	0.1202	0.9993	0.6125	0.05
Mof_C 	C 	0.0749	0.0745	0.60843	-0.136
Mof_H 	H 	0.0744	0.074	0.572	0.073
Mof_C 	C 	0.15	0.1481	0.62471	0.298
Mof_C 	C 	0.2932	0.3817	0.4316	0.233
Mof_C 	C 	0.3582	0.4561	0.4324	-0.293
Mof_H 	H 	0.3769	0.4835	0.4621	0.138
Mof_C 	C 	0.3951	0.4892	0.38753	0.233
Mof_C 	C 	0.3677	0.4496	0.34334	-0.294
Mof_H 	H 	0.393	0.4726	0.3136	0.137
Mof_C 	C 	0.3017	0.3749	0.34379	0.234
Mof_C 	C 	0.2627	0.3396	0.38776	-0.289
Mof_H 	H 	0.2179	0.2898	0.3878	0.149
Mof_C 	C 	0.1791	0.2866	0.48505	-0.003
Mof_H 	H 	0.1382	0.2671	0.462	0.046
Mof_C 	C 	0.1752	0.2658	0.53297	0.012
Mof_H 	H 	0.1293	0.2283	0.5487	0.034
Mof_C 	C 	0.2959	0.3535	0.5212	0.101
Mof_H 	H 	0.3493	0.3887	0.5259	-0.002
Mof_C 	C 	0.4807	0.6291	0.4186	0.002
Mof_H 	H 	0.4456	0.6341	0.4395	0.031
Mof_C 	C 	0.5584	0.683	0.411	0.011
Mof_H 	H 	0.5854	0.7322	0.4262	0.033
Mof_C 	C 	0.5339	0.5822	0.3683	0.107
Mof_H 	H 	0.5414	0.547	0.349	-0.01
Mof_C 	C 	0.238	0.2412	0.2996	-0.009
Mof_H 	H 	0.2236	0.2082	0.3272	0.04
Mof_C 	C 	0.232	0.2207	0.2513	-0.021
Mof_H 	H 	0.2114	0.1696	0.239	0.047
Mof_C 	C 	0.3011	0.347	0.25351	0.13
Mof_H 	H 	0.3455	0.3949	0.2455	-0.016
Mof_C 	C 	0.2517	0.6178	0.6777	-0.291
Mof_H 	H 	0.1972	0.5853	0.6791	0.137
Mof_C 	C 	0.3005	0.586	0.6767	0.238
Mof_C 	C 	0.1951	0.4483	0.6945	0.012
Mof_H 	H 	0.1586	0.4572	0.7111	0.028
Mof_C 	C 	0.1887	0.3767	0.6823	0.005
Mof_H 	H 	0.1436	0.3278	0.6866	0.042
Mof_C 	C 	0.3032	0.4642	0.662	0.115
Mof_H 	H 	0.3556	0.4889	0.6518	-0.013
Mof_N 	N 	0.2479	0.3072	0.55598	-0.14
Mof_N 	N 	0.2571	0.3431	0.47752	-0.157
Mof_N 	N 	0.5902	0.6548	0.37846	-0.154
Mof_N 	N 	0.4654	0.5652	0.38858	-0.163
Mof_N 	N 	0.2641	0.2944	0.22079	-0.152
Mof_N 	N 	0.2737	0.3304	0.29912	-0.165
Mof_N 	N 	0.2578	0.388	0.6632	-0.15
Mof_N 	N 	0.2677	0.5034	0.6766	-0.168
Mof_O 	O 	0.14403	0.20255	0.64514	-0.285
Mof_O 	O 	0.21591	0.15295	0.61547	-0.287
Mof_C 	C 	0.1908	0.282	0.2883	-0.016
Mof_H 	H 	0.1489	0.268	0.3101	0.044
Mof_C 	C 	0.187	0.2615	0.2404	0.012
Mof_H 	H 	0.1407	0.2304	0.2227	0.024
Mof_Cd	Cd	0.01014	0.28993	0.86144	0.405
Mof_C 	C 	0.9253	0.9995	0.87434	-0.039
Mof_H 	H 	0.9223	0.9995	0.8383	0.05
Mof_H 	H 	0.8791	0.9993	0.8875	0.051
Mof_C 	C 	0.9996	0.0745	0.89157	-0.134
Mof_H 	H 	0.9996	0.074	0.928	0.073
Mof_C 	C 	0.9981	0.1481	0.87529	0.299
Mof_C 	C 	0.0885	0.3817	0.0684	0.233
Mof_C 	C 	0.0979	0.4561	0.0676	-0.293
Mof_H 	H 	0.1066	0.4835	0.0379	0.138
Mof_C 	C 	0.0941	0.4892	0.11247	0.233
Mof_C 	C 	0.0819	0.4496	0.15666	-0.294
Mof_H 	H 	0.0796	0.4726	0.1864	0.137
Mof_C 	C 	0.0732	0.3749	0.15621	0.235
Mof_C 	C 	0.0769	0.3396	0.11224	-0.29
Mof_H 	H 	0.0719	0.2898	0.1122	0.149
Mof_C 	C 	0.1075	0.2866	0.01495	-0.003
Mof_H 	H 	0.1289	0.2671	0.038	0.046
Mof_C 	C 	0.0906	0.2658	0.96703	0.012
Mof_H 	H 	0.099	0.2283	0.9513	0.034
Mof_C 	C 	0.0576	0.3535	0.9788	0.1
Mof_H 	H 	0.0394	0.3887	0.9741	-0.002
Mof_C 	C 	0.1484	0.6291	0.0814	0.002
Mof_H 	H 	0.1885	0.6341	0.0605	0.031
Mof_C 	C 	0.1246	0.683	0.089	0.011
Mof_H 	H 	0.1468	0.7322	0.0738	0.033
Mof_C 	C 	0.0483	0.5822	0.1317	0.107
Mof_H 	H 	0.0056	0.547	0.151	-0.009
Mof_C 	C 	0.0032	0.2412	0.2004	-0.007
Mof_H 	H 	0.9846	0.2082	0.1728	0.039
Mof_C 	C 	0.9887	0.2207	0.2487	-0.023
Mof_H 	H 	0.9582	0.1696	0.261	0.047
Mof_C 	C 	0.0459	0.347	0.24649	0.13
Mof_H 	H 	0.0494	0.3949	0.2545	-0.016
Mof_C 	C 	0.3661	0.6178	0.8223	-0.291
Mof_H 	H 	0.3881	0.5853	0.8209	0.137
Mof_C 	C 	0.2855	0.586	0.8233	0.238
Mof_C 	C 	0.2532	0.4483	0.8055	0.012
Mof_H 	H 	0.2986	0.4572	0.7889	0.028
Mof_C 	C 	0.188	0.3767	0.8177	0.005
Mof_H 	H 	0.1842	0.3278	0.8134	0.042
Mof_C 	C 	0.161	0.4642	0.838	0.115
Mof_H 	H 	0.1333	0.4889	0.8482	-0.013
Mof_N 	N 	0.0593	0.3072	0.94402	-0.14
Mof_N 	N 	0.086	0.3431	0.02248	-0.157
Mof_N 	N 	0.0646	0.6548	0.12154	-0.154
Mof_N 	N 	0.0998	0.5652	0.11142	-0.163
Mof_N 	N 	0.0303	0.2944	0.27921	-0.152
Mof_N 	N 	0.0567	0.3304	0.20088	-0.165
Mof_N 	N 	0.1302	0.388	0.8368	-0.15
Mof_N 	N 	0.2357	0.5034	0.8234	-0.168
Mof_O 	O 	0.05852	0.20255	0.85486	-0.286
Mof_O 	O 	0.93704	0.15295	0.88453	-0.287
Mof_C 	C 	0.0912	0.282	0.2117	-0.017
Mof_H 	H 	0.1191	0.268	0.1899	0.044
Mof_C 	C 	0.0745	0.2615	0.2596	0.013
Mof_H 	H 	0.0897	0.2304	0.2773	0.023
Mof_Cd	Cd	0.27979	0.98986	0.86144	0.405
Mof_C 	C 	0.0742	0.0747	0.87434	-0.039
Mof_H 	H 	0.0772	0.0777	0.8383	0.05
Mof_H 	H 	0.1202	0.1209	0.8875	0.051
Mof_C 	C 	0.0749	0.0004	0.89157	-0.135
Mof_H 	H 	0.0744	0.0004	0.928	0.073
Mof_C 	C 	0.15	0.0019	0.87529	0.298
Mof_C 	C 	0.2932	0.9115	0.0684	0.233
Mof_C 	C 	0.3582	0.9021	0.0676	-0.293
Mof_H 	H 	0.3769	0.8934	0.0379	0.139
Mof_C 	C 	0.3951	0.9059	0.11247	0.234
Mof_C 	C 	0.3677	0.9181	0.15666	-0.294
Mof_H 	H 	0.393	0.9204	0.1864	0.137
Mof_C 	C 	0.3017	0.9268	0.15621	0.235
Mof_C 	C 	0.2627	0.9231	0.11224	-0.29
Mof_H 	H 	0.2179	0.9281	0.1122	0.149
Mof_C 	C 	0.1791	0.8925	0.01495	-0.001
Mof_H 	H 	0.1382	0.8711	0.038	0.045
Mof_C 	C 	0.1752	0.9094	0.96703	0.011
Mof_H 	H 	0.1293	0.901	0.9513	0.035
Mof_C 	C 	0.2959	0.9424	0.9788	0.1
Mof_H 	H 	0.3493	0.9606	0.9741	-0.002
Mof_C 	C 	0.4807	0.8516	0.0814	0.002
Mof_H 	H 	0.4456	0.8115	0.0605	0.031
Mof_C 	C 	0.5584	0.8754	0.089	0.011
Mof_H 	H 	0.5854	0.8532	0.0738	0.033
Mof_C 	C 	0.5339	0.9517	0.1317	0.107
Mof_H 	H 	0.5414	0.9944	0.151	-0.009
Mof_C 	C 	0.238	0.9968	0.2004	-0.006
Mof_H 	H 	0.2236	0.0154	0.1728	0.038
Mof_C 	C 	0.232	0.0113	0.2487	-0.024
Mof_H 	H 	0.2114	0.0418	0.261	0.048
Mof_C 	C 	0.3011	0.9541	0.24649	0.13
Mof_H 	H 	0.3455	0.9506	0.2545	-0.016
Mof_C 	C 	0.2517	0.6339	0.8223	-0.291
Mof_H 	H 	0.1972	0.6119	0.8209	0.137
Mof_C 	C 	0.3005	0.7145	0.8233	0.238
Mof_C 	C 	0.1951	0.7468	0.8055	0.012
Mof_H 	H 	0.1586	0.7014	0.7889	0.028
Mof_C 	C 	0.1887	0.812	0.8177	0.005
Mof_H 	H 	0.1436	0.8158	0.8134	0.042
Mof_C 	C 	0.3032	0.839	0.838	0.115
Mof_H 	H 	0.3556	0.8667	0.8482	-0.013
Mof_N 	N 	0.2479	0.9407	0.94402	-0.14
Mof_N 	N 	0.2571	0.914	0.02248	-0.157
Mof_N 	N 	0.5902	0.9354	0.12154	-0.154
Mof_N 	N 	0.4654	0.9002	0.11142	-0.163
Mof_N 	N 	0.2641	0.9697	0.27921	-0.152
Mof_N 	N 	0.2737	0.9433	0.20088	-0.165
Mof_N 	N 	0.2578	0.8698	0.8368	-0.15
Mof_N 	N 	0.2677	0.7643	0.8234	-0.168
Mof_O 	O 	0.14403	0.94148	0.85486	-0.286
Mof_O 	O 	0.21591	0.06296	0.88453	-0.287
Mof_C 	C 	0.1908	0.9088	0.2117	-0.018
Mof_H 	H 	0.1489	0.8809	0.1899	0.045
Mof_C 	C 	0.187	0.9255	0.2596	0.014
Mof_H 	H 	0.1407	0.9103	0.2773	0.023
Mof_Cd	Cd	0.71007	0.72021	0.86144	0.405
Mof_C 	C 	0.0005	0.9258	0.87434	-0.038
Mof_H 	H 	0.0005	0.9228	0.8383	0.05
Mof_H 	H 	0.0007	0.8798	0.8875	0.05
Mof_C 	C 	0.9255	0.9251	0.89157	-0.135
Mof_H 	H 	0.926	0.9256	0.928	0.073
Mof_C 	C 	0.8519	0.85	0.87529	0.298
Mof_C 	C 	0.6183	0.7068	0.0684	0.233
Mof_C 	C 	0.5439	0.6418	0.0676	-0.293
Mof_H 	H 	0.5165	0.6231	0.0379	0.138
Mof_C 	C 	0.5108	0.6049	0.11247	0.233
Mof_C 	C 	0.5504	0.6323	0.15666	-0.294
Mof_H 	H 	0.5274	0.607	0.1864	0.137
Mof_C 	C 	0.6251	0.6983	0.15621	0.234
Mof_C 	C 	0.6604	0.7373	0.11224	-0.289
Mof_H 	H 	0.7102	0.7821	0.1122	0.149
Mof_C 	C 	0.7134	0.8209	0.01495	-0.003
Mof_H 	H 	0.7329	0.8618	0.038	0.046
Mof_C 	C 	0.7342	0.8248	0.96703	0.012
Mof_H 	H 	0.7717	0.8707	0.9513	0.034
Mof_C 	C 	0.6465	0.7041	0.9788	0.101
Mof_H 	H 	0.6113	0.6507	0.9741	-0.002
Mof_C 	C 	0.3709	0.5193	0.0814	0.002
Mof_H 	H 	0.3659	0.5544	0.0605	0.031
Mof_C 	C 	0.317	0.4416	0.089	0.011
Mof_H 	H 	0.2678	0.4146	0.0738	0.033
Mof_C 	C 	0.4178	0.4661	0.1317	0.107
Mof_H 	H 	0.453	0.4586	0.151	-0.01
Mof_C 	C 	0.7588	0.762	0.2004	-0.009
Mof_H 	H 	0.7918	0.7764	0.1728	0.04
Mof_C 	C 	0.7793	0.768	0.2487	-0.021
Mof_H 	H 	0.8304	0.7886	0.261	0.047
Mof_C 	C 	0.653	0.6989	0.24649	0.13
Mof_H 	H 	0.6051	0.6545	0.2545	-0.016
Mof_C 	C 	0.3822	0.7483	0.8223	-0.291
Mof_H 	H 	0.4147	0.8028	0.8209	0.137
Mof_C 	C 	0.414	0.6995	0.8233	0.238
Mof_C 	C 	0.5517	0.8049	0.8055	0.012
Mof_H 	H 	0.5428	0.8414	0.7889	0.028
Mof_C 	C 	0.6233	0.8113	0.8177	0.005
Mof_H 	H 	0.6722	0.8564	0.8134	0.042
Mof_C 	C 	0.5358	0.6968	0.838	0.115
Mof_H 	H 	0.5111	0.6444	0.8482	-0.013
Mof_N 	N 	0.6928	0.7521	0.94402	-0.14
Mof_N 	N 	0.6569	0.7429	0.02248	-0.157
Mof_N 	N 	0.3452	0.4098	0.12154	-0.154
Mof_N 	N 	0.4348	0.5346	0.11142	-0.163
Mof_N 	N 	0.7056	0.7359	0.27921	-0.152
Mof_N 	N 	0.6696	0.7263	0.20088	-0.165
Mof_N 	N 	0.612	0.7422	0.8368	-0.15
Mof_N 	N 	0.4966	0.7323	0.8234	-0.168
Mof_O 	O 	0.79745	0.85597	0.85486	-0.285
Mof_O 	O 	0.84705	0.78409	0.88453	-0.287
Mof_C 	C 	0.718	0.8092	0.2117	-0.016
Mof_H 	H 	0.732	0.8511	0.1899	0.044
Mof_C 	C 	0.7385	0.813	0.2596	0.012
Mof_H 	H 	0.7696	0.8593	0.2773	0.024
_end
