# CIF file generated by openbabel 3.1.0, see https://openbabel.org
data_I
_chemical_name_common 'image0'
_cell_length_a 19.6025
_cell_length_b 23.5274
_cell_length_c 25.9223
_cell_angle_alpha 90
_cell_angle_beta 90
_cell_angle_gamma 90
_space_group_name_H-M_alt 'P 1'
_space_group_name_Hall 'P 1'
loop_
    _symmetry_equiv_pos_as_xyz
    x,y,z
loop_
    _atom_site_label
    _atom_site_type_symbol
    _atom_site_fract_x
    _atom_site_fract_y
    _atom_site_fract_z
    _atom_site_occupancy
    Ni1      Ni       0.31620    0.33524    0.20028    1.000
    O1       O        0.95578    0.31981    0.22792    1.000
    O2       O        0.91264    0.36338    0.29714    1.000
    O3       O        0.21078    0.32640    0.21488    1.000
    O4       O        0.26743    0.39625    0.25100    1.000
    O5       O        0.08408    0.51714    0.33438    1.000
    C1       C        0.75765    0.38041    0.60693    1.000
    H1       H        0.77130    0.34190    0.60330    1.000
    C2       C        0.78994    0.42040    0.57724    1.000
    H2       H        0.82470    0.40930    0.55370    1.000
    C3       C        0.77167    0.47712    0.58164    1.000
    C4       C        0.71856    0.48933    0.61505    1.000
    H3       H        0.70280    0.52730    0.61860    1.000
    C5       C        0.68881    0.44656    0.64296    1.000
    H4       H        0.65220    0.45610    0.66530    1.000
    C6       C        0.80991    0.52319    0.55507    1.000
    C7       C        0.85011    0.51393    0.51165    1.000
    H5       H        0.85060    0.47750    0.49590    1.000
    C8       C        0.88944    0.55750    0.49122    1.000
    C9       C        0.88591    0.61023    0.51543    1.000
    H6       H        0.91170    0.64150    0.50280    1.000
    C10      C        0.84396    0.61651    0.55844    1.000
    C11      C        0.83971    0.67070    0.58831    1.000
    C12      C        0.88967    0.71140    0.58899    1.000
    H7       H        0.92930    0.70680    0.56830    1.000
    C13      C        0.88261    0.75924    0.61968    1.000
    H8       H        0.91770    0.78710    0.61890    1.000
    C14      C        0.78123    0.72810    0.64936    1.000
    H9       H        0.74210    0.73340    0.67040    1.000
    C15      C        0.78487    0.67994    0.62008    1.000
    H10      H        0.74920    0.65270    0.62170    1.000
    C16      C        0.93782    0.54675    0.44826    1.000
    C17      C        0.95938    0.58953    0.41470    1.000
    H11      H        0.94110    0.62670    0.41820    1.000
    C18      C        0.00671    0.57880    0.37650    1.000
    H12      H        0.02020    0.60830    0.35360    1.000
    C19      C        0.03429    0.52532    0.37167    1.000
    C20      C        0.01469    0.48269    0.40476    1.000
    H13      H        0.03450    0.44600    0.40190    1.000
    C21      C        0.96656    0.49327    0.44191    1.000
    H14      H        0.95250    0.46320    0.46390    1.000
    C22      C        0.08361    0.46515    0.30855    1.000
    C23      C        0.02333    0.43650    0.29869    1.000
    H15      H        0.98110    0.45200    0.30980    1.000
    C24      C        0.02470    0.38543    0.27268    1.000
    C25      C        0.08635    0.36432    0.25450    1.000
    H16      H        0.08730    0.32970    0.23560    1.000
    C26      C        0.14627    0.39340    0.26378    1.000
    C27      C        0.14536    0.44426    0.29154    1.000
    H17      H        0.18650    0.46410    0.29860    1.000
    C28      C        0.95942    0.35351    0.26491    1.000
    C29      C        0.21202    0.37107    0.24262    1.000
    N1       N        0.70823    0.39229    0.64062    1.000
    N2       N        0.80604    0.57420    0.57758    1.000
    N3       N        0.82922    0.76792    0.65007    1.000
    Ni2      Ni       0.81620    0.83524    0.70028    1.000
    O6       O        0.45578    0.81981    0.72792    1.000
    O7       O        0.41264    0.86338    0.79714    1.000
    O8       O        0.71078    0.82640    0.71488    1.000
    O9       O        0.76743    0.89625    0.75100    1.000
    O10      O        0.58408    0.01714    0.83438    1.000
    C30      C        0.25765    0.88041    0.10693    1.000
    H18      H        0.27130    0.84190    0.10330    1.000
    C31      C        0.28994    0.92040    0.07724    1.000
    H19      H        0.32470    0.90930    0.05370    1.000
    C32      C        0.27167    0.97712    0.08164    1.000
    C33      C        0.21856    0.98933    0.11505    1.000
    H20      H        0.20280    0.02730    0.11860    1.000
    C34      C        0.18881    0.94656    0.14296    1.000
    H21      H        0.15220    0.95610    0.16530    1.000
    C35      C        0.30991    0.02319    0.05507    1.000
    C36      C        0.35011    0.01393    0.01165    1.000
    H22      H        0.35060    0.97750    0.99590    1.000
    C37      C        0.38944    0.05750    0.99122    1.000
    C38      C        0.38591    0.11023    0.01543    1.000
    H23      H        0.41170    0.14150    0.00280    1.000
    C39      C        0.34396    0.11651    0.05844    1.000
    C40      C        0.33971    0.17070    0.08831    1.000
    C41      C        0.38967    0.21140    0.08899    1.000
    H24      H        0.42930    0.20680    0.06830    1.000
    C42      C        0.38261    0.25924    0.11968    1.000
    H25      H        0.41770    0.28710    0.11890    1.000
    C43      C        0.28123    0.22810    0.14936    1.000
    H26      H        0.24210    0.23340    0.17040    1.000
    C44      C        0.28487    0.17994    0.12008    1.000
    H27      H        0.24920    0.15270    0.12170    1.000
    C45      C        0.43782    0.04675    0.94826    1.000
    C46      C        0.45938    0.08953    0.91470    1.000
    H28      H        0.44110    0.12670    0.91820    1.000
    C47      C        0.50671    0.07880    0.87650    1.000
    H29      H        0.52020    0.10830    0.85360    1.000
    C48      C        0.53429    0.02532    0.87167    1.000
    C49      C        0.51469    0.98269    0.90476    1.000
    H30      H        0.53450    0.94600    0.90190    1.000
    C50      C        0.46656    0.99327    0.94191    1.000
    H31      H        0.45250    0.96320    0.96390    1.000
    C51      C        0.58361    0.96515    0.80855    1.000
    C52      C        0.52333    0.93650    0.79869    1.000
    H32      H        0.48110    0.95200    0.80980    1.000
    C53      C        0.52470    0.88543    0.77268    1.000
    C54      C        0.58635    0.86432    0.75450    1.000
    H33      H        0.58730    0.82970    0.73560    1.000
    C55      C        0.64627    0.89340    0.76378    1.000
    C56      C        0.64536    0.94426    0.79154    1.000
    H34      H        0.68650    0.96410    0.79860    1.000
    C57      C        0.45942    0.85351    0.76491    1.000
    C58      C        0.71202    0.87107    0.74262    1.000
    N4       N        0.20823    0.89229    0.14062    1.000
    N5       N        0.30604    0.07420    0.07758    1.000
    N6       N        0.32922    0.26792    0.15007    1.000
    Ni3      Ni       0.68380    0.83524    0.29972    1.000
    O11      O        0.04422    0.81981    0.27208    1.000
    O12      O        0.08736    0.86338    0.20286    1.000
    O13      O        0.78922    0.82640    0.28512    1.000
    O14      O        0.73257    0.89625    0.24900    1.000
    O15      O        0.91592    0.01714    0.16562    1.000
    C59      C        0.24235    0.88041    0.89307    1.000
    H35      H        0.22870    0.84190    0.89670    1.000
    C60      C        0.21006    0.92040    0.92276    1.000
    H36      H        0.17530    0.90930    0.94630    1.000
    C61      C        0.22833    0.97712    0.91836    1.000
    C62      C        0.28144    0.98933    0.88495    1.000
    H37      H        0.29720    0.02730    0.88140    1.000
    C63      C        0.31119    0.94656    0.85704    1.000
    H38      H        0.34780    0.95610    0.83470    1.000
    C64      C        0.19009    0.02319    0.94493    1.000
    C65      C        0.14989    0.01393    0.98835    1.000
    H39      H        0.14940    0.97750    0.00410    1.000
    C66      C        0.11056    0.05750    0.00878    1.000
    C67      C        0.11409    0.11023    0.98457    1.000
    H40      H        0.08830    0.14150    0.99720    1.000
    C68      C        0.15604    0.11651    0.94156    1.000
    C69      C        0.16029    0.17070    0.91169    1.000
    C70      C        0.11033    0.21140    0.91101    1.000
    H41      H        0.07070    0.20680    0.93170    1.000
    C71      C        0.11739    0.25924    0.88032    1.000
    H42      H        0.08230    0.28710    0.88110    1.000
    C72      C        0.21877    0.22810    0.85064    1.000
    H43      H        0.25790    0.23340    0.82960    1.000
    C73      C        0.21513    0.17994    0.87992    1.000
    H44      H        0.25080    0.15270    0.87830    1.000
    C74      C        0.06218    0.04675    0.05174    1.000
    C75      C        0.04062    0.08953    0.08530    1.000
    H45      H        0.05890    0.12670    0.08180    1.000
    C76      C        0.99329    0.07880    0.12350    1.000
    H46      H        0.97980    0.10830    0.14640    1.000
    C77      C        0.96571    0.02532    0.12833    1.000
    C78      C        0.98531    0.98269    0.09524    1.000
    H47      H        0.96550    0.94600    0.09810    1.000
    C79      C        0.03344    0.99327    0.05809    1.000
    H48      H        0.04750    0.96320    0.03610    1.000
    C80      C        0.91639    0.96515    0.19145    1.000
    C81      C        0.97667    0.93650    0.20131    1.000
    H49      H        0.01890    0.95200    0.19020    1.000
    C82      C        0.97530    0.88543    0.22732    1.000
    C83      C        0.91365    0.86432    0.24550    1.000
    H50      H        0.91270    0.82970    0.26440    1.000
    C84      C        0.85373    0.89340    0.23622    1.000
    C85      C        0.85464    0.94426    0.20846    1.000
    H51      H        0.81350    0.96410    0.20140    1.000
    C86      C        0.04058    0.85351    0.23509    1.000
    C87      C        0.78798    0.87107    0.25738    1.000
    N7       N        0.29177    0.89229    0.85938    1.000
    N8       N        0.19396    0.07420    0.92242    1.000
    N9       N        0.17078    0.26792    0.84993    1.000
    Ni4      Ni       0.18380    0.33524    0.79972    1.000
    O16      O        0.54422    0.31981    0.77208    1.000
    O17      O        0.58736    0.36338    0.70286    1.000
    O18      O        0.28922    0.32640    0.78512    1.000
    O19      O        0.23257    0.39625    0.74900    1.000
    O20      O        0.41592    0.51714    0.66562    1.000
    C88      C        0.74235    0.38041    0.39307    1.000
    H52      H        0.72870    0.34190    0.39670    1.000
    C89      C        0.71006    0.42040    0.42276    1.000
    H53      H        0.67530    0.40930    0.44630    1.000
    C90      C        0.72833    0.47712    0.41836    1.000
    C91      C        0.78144    0.48933    0.38495    1.000
    H54      H        0.79720    0.52730    0.38140    1.000
    C92      C        0.81119    0.44656    0.35704    1.000
    H55      H        0.84780    0.45610    0.33470    1.000
    C93      C        0.69009    0.52319    0.44493    1.000
    C94      C        0.64989    0.51393    0.48835    1.000
    H56      H        0.64940    0.47750    0.50410    1.000
    C95      C        0.61056    0.55750    0.50878    1.000
    C96      C        0.61409    0.61023    0.48457    1.000
    H57      H        0.58830    0.64150    0.49720    1.000
    C97      C        0.65604    0.61651    0.44156    1.000
    C98      C        0.66029    0.67070    0.41169    1.000
    C99      C        0.61033    0.71140    0.41101    1.000
    H58      H        0.57070    0.70680    0.43170    1.000
    C100     C        0.61739    0.75924    0.38032    1.000
    H59      H        0.58230    0.78710    0.38110    1.000
    C101     C        0.71877    0.72810    0.35064    1.000
    H60      H        0.75790    0.73340    0.32960    1.000
    C102     C        0.71513    0.67994    0.37992    1.000
    H61      H        0.75080    0.65270    0.37830    1.000
    C103     C        0.56218    0.54675    0.55174    1.000
    C104     C        0.54062    0.58953    0.58530    1.000
    H62      H        0.55890    0.62670    0.58180    1.000
    C105     C        0.49329    0.57880    0.62350    1.000
    H63      H        0.47980    0.60830    0.64640    1.000
    C106     C        0.46571    0.52532    0.62833    1.000
    C107     C        0.48531    0.48269    0.59524    1.000
    H64      H        0.46550    0.44600    0.59810    1.000
    C108     C        0.53344    0.49327    0.55809    1.000
    H65      H        0.54750    0.46320    0.53610    1.000
    C109     C        0.41639    0.46515    0.69145    1.000
    C110     C        0.47667    0.43650    0.70131    1.000
    H66      H        0.51890    0.45200    0.69020    1.000
    C111     C        0.47530    0.38543    0.72732    1.000
    C112     C        0.41365    0.36432    0.74550    1.000
    H67      H        0.41270    0.32970    0.76440    1.000
    C113     C        0.35373    0.39340    0.73622    1.000
    C114     C        0.35464    0.44426    0.70846    1.000
    H68      H        0.31350    0.46410    0.70140    1.000
    C115     C        0.54058    0.35351    0.73509    1.000
    C116     C        0.28798    0.37107    0.75738    1.000
    N10      N        0.79177    0.39229    0.35938    1.000
    N11      N        0.69396    0.57420    0.42242    1.000
    N12      N        0.67078    0.76792    0.34993    1.000
    Ni5      Ni       0.81620    0.33524    0.29972    1.000
    O21      O        0.45578    0.31981    0.27208    1.000
    O22      O        0.41264    0.36338    0.20286    1.000
    O23      O        0.71078    0.32640    0.28512    1.000
    O24      O        0.76743    0.39625    0.24900    1.000
    O25      O        0.58408    0.51714    0.16562    1.000
    C117     C        0.25765    0.38041    0.89307    1.000
    H69      H        0.27130    0.34190    0.89670    1.000
    C118     C        0.28994    0.42040    0.92276    1.000
    H70      H        0.32470    0.40930    0.94630    1.000
    C119     C        0.27167    0.47712    0.91836    1.000
    C120     C        0.21856    0.48933    0.88495    1.000
    H71      H        0.20280    0.52730    0.88140    1.000
    C121     C        0.18881    0.44656    0.85704    1.000
    H72      H        0.15220    0.45610    0.83470    1.000
    C122     C        0.30991    0.52319    0.94493    1.000
    C123     C        0.35011    0.51393    0.98835    1.000
    H73      H        0.35060    0.47750    0.00410    1.000
    C124     C        0.38944    0.55750    0.00878    1.000
    C125     C        0.38591    0.61023    0.98457    1.000
    H74      H        0.41170    0.64150    0.99720    1.000
    C126     C        0.34396    0.61651    0.94156    1.000
    C127     C        0.33971    0.67070    0.91169    1.000
    C128     C        0.38967    0.71140    0.91101    1.000
    H75      H        0.42930    0.70680    0.93170    1.000
    C129     C        0.38261    0.75924    0.88032    1.000
    H76      H        0.41770    0.78710    0.88110    1.000
    C130     C        0.28123    0.72810    0.85064    1.000
    H77      H        0.24210    0.73340    0.82960    1.000
    C131     C        0.28487    0.67994    0.87992    1.000
    H78      H        0.24920    0.65270    0.87830    1.000
    C132     C        0.43782    0.54675    0.05174    1.000
    C133     C        0.45938    0.58953    0.08530    1.000
    H79      H        0.44110    0.62670    0.08180    1.000
    C134     C        0.50671    0.57880    0.12350    1.000
    H80      H        0.52020    0.60830    0.14640    1.000
    C135     C        0.53429    0.52532    0.12833    1.000
    C136     C        0.51469    0.48269    0.09524    1.000
    H81      H        0.53450    0.44600    0.09810    1.000
    C137     C        0.46656    0.49327    0.05809    1.000
    H82      H        0.45250    0.46320    0.03610    1.000
    C138     C        0.58361    0.46515    0.19145    1.000
    C139     C        0.52333    0.43650    0.20131    1.000
    H83      H        0.48110    0.45200    0.19020    1.000
    C140     C        0.52470    0.38543    0.22732    1.000
    C141     C        0.58635    0.36432    0.24550    1.000
    H84      H        0.58730    0.32970    0.26440    1.000
    C142     C        0.64627    0.39340    0.23622    1.000
    C143     C        0.64536    0.44426    0.20846    1.000
    H85      H        0.68650    0.46410    0.20140    1.000
    C144     C        0.45942    0.35351    0.23509    1.000
    C145     C        0.71202    0.37107    0.25738    1.000
    N13      N        0.20823    0.39229    0.85938    1.000
    N14      N        0.30604    0.57420    0.92242    1.000
    N15      N        0.32922    0.76792    0.84993    1.000
    Ni6      Ni       0.31620    0.83524    0.79972    1.000
    O26      O        0.95578    0.81981    0.77208    1.000
    O27      O        0.91264    0.86338    0.70286    1.000
    O28      O        0.21078    0.82640    0.78512    1.000
    O29      O        0.26743    0.89625    0.74900    1.000
    O30      O        0.08408    0.01714    0.66562    1.000
    C146     C        0.75765    0.88041    0.39307    1.000
    H86      H        0.77130    0.84190    0.39670    1.000
    C147     C        0.78994    0.92040    0.42276    1.000
    H87      H        0.82470    0.90930    0.44630    1.000
    C148     C        0.77167    0.97712    0.41836    1.000
    C149     C        0.71856    0.98933    0.38495    1.000
    H88      H        0.70280    0.02730    0.38140    1.000
    C150     C        0.68881    0.94656    0.35704    1.000
    H89      H        0.65220    0.95610    0.33470    1.000
    C151     C        0.80991    0.02319    0.44493    1.000
    C152     C        0.85011    0.01393    0.48835    1.000
    H90      H        0.85060    0.97750    0.50410    1.000
    C153     C        0.88944    0.05750    0.50878    1.000
    C154     C        0.88591    0.11023    0.48457    1.000
    H91      H        0.91170    0.14150    0.49720    1.000
    C155     C        0.84396    0.11651    0.44156    1.000
    C156     C        0.83971    0.17070    0.41169    1.000
    C157     C        0.88967    0.21140    0.41101    1.000
    H92      H        0.92930    0.20680    0.43170    1.000
    C158     C        0.88261    0.25924    0.38032    1.000
    H93      H        0.91770    0.28710    0.38110    1.000
    C159     C        0.78123    0.22810    0.35064    1.000
    H94      H        0.74210    0.23340    0.32960    1.000
    C160     C        0.78487    0.17994    0.37992    1.000
    H95      H        0.74920    0.15270    0.37830    1.000
    C161     C        0.93782    0.04675    0.55174    1.000
    C162     C        0.95938    0.08953    0.58530    1.000
    H96      H        0.94110    0.12670    0.58180    1.000
    C163     C        0.00671    0.07880    0.62350    1.000
    H97      H        0.02020    0.10830    0.64640    1.000
    C164     C        0.03429    0.02532    0.62833    1.000
    C165     C        0.01469    0.98269    0.59524    1.000
    H98      H        0.03450    0.94600    0.59810    1.000
    C166     C        0.96656    0.99327    0.55809    1.000
    H99      H        0.95250    0.96320    0.53610    1.000
    C167     C        0.08361    0.96515    0.69145    1.000
    C168     C        0.02333    0.93650    0.70131    1.000
    H100     H        0.98110    0.95200    0.69020    1.000
    C169     C        0.02470    0.88543    0.72732    1.000
    C170     C        0.08635    0.86432    0.74550    1.000
    H101     H        0.08730    0.82970    0.76440    1.000
    C171     C        0.14627    0.89340    0.73622    1.000
    C172     C        0.14536    0.94426    0.70846    1.000
    H102     H        0.18650    0.96410    0.70140    1.000
    C173     C        0.95942    0.85351    0.73509    1.000
    C174     C        0.21202    0.87107    0.75738    1.000
    N16      N        0.70823    0.89229    0.35938    1.000
    N17      N        0.80604    0.07420    0.42242    1.000
    N18      N        0.82922    0.26792    0.34993    1.000
    Ni7      Ni       0.18380    0.83524    0.20028    1.000
    O31      O        0.54422    0.81981    0.22792    1.000
    O32      O        0.58736    0.86338    0.29714    1.000
    O33      O        0.28922    0.82640    0.21488    1.000
    O34      O        0.23257    0.89625    0.25100    1.000
    O35      O        0.41592    0.01714    0.33438    1.000
    C175     C        0.74235    0.88041    0.60693    1.000
    H103     H        0.72870    0.84190    0.60330    1.000
    C176     C        0.71006    0.92040    0.57724    1.000
    H104     H        0.67530    0.90930    0.55370    1.000
    C177     C        0.72833    0.97712    0.58164    1.000
    C178     C        0.78144    0.98933    0.61505    1.000
    H105     H        0.79720    0.02730    0.61860    1.000
    C179     C        0.81119    0.94656    0.64296    1.000
    H106     H        0.84780    0.95610    0.66530    1.000
    C180     C        0.69009    0.02319    0.55507    1.000
    C181     C        0.64989    0.01393    0.51165    1.000
    H107     H        0.64940    0.97750    0.49590    1.000
    C182     C        0.61056    0.05750    0.49122    1.000
    C183     C        0.61409    0.11023    0.51543    1.000
    H108     H        0.58830    0.14150    0.50280    1.000
    C184     C        0.65604    0.11651    0.55844    1.000
    C185     C        0.66029    0.17070    0.58831    1.000
    C186     C        0.61033    0.21140    0.58899    1.000
    H109     H        0.57070    0.20680    0.56830    1.000
    C187     C        0.61739    0.25924    0.61968    1.000
    H110     H        0.58230    0.28710    0.61890    1.000
    C188     C        0.71877    0.22810    0.64936    1.000
    H111     H        0.75790    0.23340    0.67040    1.000
    C189     C        0.71513    0.17994    0.62008    1.000
    H112     H        0.75080    0.15270    0.62170    1.000
    C190     C        0.56218    0.04675    0.44826    1.000
    C191     C        0.54062    0.08953    0.41470    1.000
    H113     H        0.55890    0.12670    0.41820    1.000
    C192     C        0.49329    0.07880    0.37650    1.000
    H114     H        0.47980    0.10830    0.35360    1.000
    C193     C        0.46571    0.02532    0.37167    1.000
    C194     C        0.48531    0.98269    0.40476    1.000
    H115     H        0.46550    0.94600    0.40190    1.000
    C195     C        0.53344    0.99327    0.44191    1.000
    H116     H        0.54750    0.96320    0.46390    1.000
    C196     C        0.41639    0.96515    0.30855    1.000
    C197     C        0.47667    0.93650    0.29869    1.000
    H117     H        0.51890    0.95200    0.30980    1.000
    C198     C        0.47530    0.88543    0.27268    1.000
    C199     C        0.41365    0.86432    0.25450    1.000
    H118     H        0.41270    0.82970    0.23560    1.000
    C200     C        0.35373    0.89340    0.26378    1.000
    C201     C        0.35464    0.94426    0.29154    1.000
    H119     H        0.31350    0.96410    0.29860    1.000
    C202     C        0.54058    0.85351    0.26491    1.000
    C203     C        0.28798    0.87107    0.24262    1.000
    N19      N        0.79177    0.89229    0.64062    1.000
    N20      N        0.69396    0.07420    0.57758    1.000
    N21      N        0.67078    0.26792    0.65007    1.000
    Ni8      Ni       0.68380    0.33524    0.70028    1.000
    O36      O        0.04422    0.31981    0.72792    1.000
    O37      O        0.08736    0.36338    0.79714    1.000
    O38      O        0.78922    0.32640    0.71488    1.000
    O39      O        0.73257    0.39625    0.75100    1.000
    O40      O        0.91592    0.51714    0.83438    1.000
    C204     C        0.24235    0.38041    0.10693    1.000
    H120     H        0.22870    0.34190    0.10330    1.000
    C205     C        0.21006    0.42040    0.07724    1.000
    H121     H        0.17530    0.40930    0.05370    1.000
    C206     C        0.22833    0.47712    0.08164    1.000
    C207     C        0.28144    0.48933    0.11505    1.000
    H122     H        0.29720    0.52730    0.11860    1.000
    C208     C        0.31119    0.44656    0.14296    1.000
    H123     H        0.34780    0.45610    0.16530    1.000
    C209     C        0.19009    0.52319    0.05507    1.000
    C210     C        0.14989    0.51393    0.01165    1.000
    H124     H        0.14940    0.47750    0.99590    1.000
    C211     C        0.11056    0.55750    0.99122    1.000
    C212     C        0.11409    0.61023    0.01543    1.000
    H125     H        0.08830    0.64150    0.00280    1.000
    C213     C        0.15604    0.61651    0.05844    1.000
    C214     C        0.16029    0.67070    0.08831    1.000
    C215     C        0.11033    0.71140    0.08899    1.000
    H126     H        0.07070    0.70680    0.06830    1.000
    C216     C        0.11739    0.75924    0.11968    1.000
    H127     H        0.08230    0.78710    0.11890    1.000
    C217     C        0.21877    0.72810    0.14936    1.000
    H128     H        0.25790    0.73340    0.17040    1.000
    C218     C        0.21513    0.67994    0.12008    1.000
    H129     H        0.25080    0.65270    0.12170    1.000
    C219     C        0.06218    0.54675    0.94826    1.000
    C220     C        0.04062    0.58953    0.91470    1.000
    H130     H        0.05890    0.62670    0.91820    1.000
    C221     C        0.99329    0.57880    0.87650    1.000
    H131     H        0.97980    0.60830    0.85360    1.000
    C222     C        0.96571    0.52532    0.87167    1.000
    C223     C        0.98531    0.48269    0.90476    1.000
    H132     H        0.96550    0.44600    0.90190    1.000
    C224     C        0.03344    0.49327    0.94191    1.000
    H133     H        0.04750    0.46320    0.96390    1.000
    C225     C        0.91639    0.46515    0.80855    1.000
    C226     C        0.97667    0.43650    0.79869    1.000
    H134     H        0.01890    0.45200    0.80980    1.000
    C227     C        0.97530    0.38543    0.77268    1.000
    C228     C        0.91365    0.36432    0.75450    1.000
    H135     H        0.91270    0.32970    0.73560    1.000
    C229     C        0.85373    0.39340    0.76378    1.000
    C230     C        0.85464    0.44426    0.79154    1.000
    H136     H        0.81350    0.46410    0.79860    1.000
    C231     C        0.04058    0.35351    0.76491    1.000
    C232     C        0.78798    0.37107    0.74262    1.000
    N22      N        0.29177    0.39229    0.14062    1.000
    N23      N        0.19396    0.57420    0.07758    1.000
    N24      N        0.17078    0.76792    0.15007    1.000
    Ni9      Ni       0.18380    0.66476    0.70028    1.000
    O41      O        0.54422    0.68019    0.72792    1.000
    O42      O        0.58736    0.63662    0.79714    1.000
    O43      O        0.28922    0.67360    0.71488    1.000
    O44      O        0.23257    0.60375    0.75100    1.000
    O45      O        0.41592    0.48286    0.83438    1.000
    C233     C        0.74235    0.61959    0.10693    1.000
    H137     H        0.72870    0.65810    0.10330    1.000
    C234     C        0.71006    0.57960    0.07724    1.000
    H138     H        0.67530    0.59070    0.05370    1.000
    C235     C        0.72833    0.52288    0.08164    1.000
    C236     C        0.78144    0.51067    0.11505    1.000
    H139     H        0.79720    0.47270    0.11860    1.000
    C237     C        0.81119    0.55344    0.14296    1.000
    H140     H        0.84780    0.54390    0.16530    1.000
    C238     C        0.69009    0.47681    0.05507    1.000
    C239     C        0.64989    0.48607    0.01165    1.000
    H141     H        0.64940    0.52250    0.99590    1.000
    C240     C        0.61056    0.44250    0.99122    1.000
    C241     C        0.61409    0.38977    0.01543    1.000
    H142     H        0.58830    0.35850    0.00280    1.000
    C242     C        0.65604    0.38349    0.05844    1.000
    C243     C        0.66029    0.32930    0.08831    1.000
    C244     C        0.61033    0.28860    0.08899    1.000
    H143     H        0.57070    0.29320    0.06830    1.000
    C245     C        0.61739    0.24076    0.11968    1.000
    H144     H        0.58230    0.21290    0.11890    1.000
    C246     C        0.71877    0.27190    0.14936    1.000
    H145     H        0.75790    0.26660    0.17040    1.000
    C247     C        0.71513    0.32006    0.12008    1.000
    H146     H        0.75080    0.34730    0.12170    1.000
    C248     C        0.56218    0.45325    0.94826    1.000
    C249     C        0.54062    0.41047    0.91470    1.000
    H147     H        0.55890    0.37330    0.91820    1.000
    C250     C        0.49329    0.42120    0.87650    1.000
    H148     H        0.47980    0.39170    0.85360    1.000
    C251     C        0.46571    0.47468    0.87167    1.000
    C252     C        0.48531    0.51731    0.90476    1.000
    H149     H        0.46550    0.55400    0.90190    1.000
    C253     C        0.53344    0.50673    0.94191    1.000
    H150     H        0.54750    0.53680    0.96390    1.000
    C254     C        0.41639    0.53485    0.80855    1.000
    C255     C        0.47667    0.56350    0.79869    1.000
    H151     H        0.51890    0.54800    0.80980    1.000
    C256     C        0.47530    0.61457    0.77268    1.000
    C257     C        0.41365    0.63568    0.75450    1.000
    H152     H        0.41270    0.67030    0.73560    1.000
    C258     C        0.35373    0.60660    0.76378    1.000
    C259     C        0.35464    0.55574    0.79154    1.000
    H153     H        0.31350    0.53590    0.79860    1.000
    C260     C        0.54058    0.64649    0.76491    1.000
    C261     C        0.28798    0.62893    0.74262    1.000
    N25      N        0.79177    0.60771    0.14062    1.000
    N26      N        0.69396    0.42580    0.07758    1.000
    N27      N        0.67078    0.23208    0.15007    1.000
    Ni10     Ni       0.68380    0.16476    0.20028    1.000
    O46      O        0.04422    0.18019    0.22792    1.000
    O47      O        0.08736    0.13662    0.29714    1.000
    O48      O        0.78922    0.17360    0.21488    1.000
    O49      O        0.73257    0.10375    0.25100    1.000
    O50      O        0.91592    0.98286    0.33438    1.000
    C262     C        0.24235    0.11959    0.60693    1.000
    H154     H        0.22870    0.15810    0.60330    1.000
    C263     C        0.21006    0.07960    0.57724    1.000
    H155     H        0.17530    0.09070    0.55370    1.000
    C264     C        0.22833    0.02288    0.58164    1.000
    C265     C        0.28144    0.01067    0.61505    1.000
    H156     H        0.29720    0.97270    0.61860    1.000
    C266     C        0.31119    0.05344    0.64296    1.000
    H157     H        0.34780    0.04390    0.66530    1.000
    C267     C        0.19009    0.97681    0.55507    1.000
    C268     C        0.14989    0.98607    0.51165    1.000
    H158     H        0.14940    0.02250    0.49590    1.000
    C269     C        0.11056    0.94250    0.49122    1.000
    C270     C        0.11409    0.88977    0.51543    1.000
    H159     H        0.08830    0.85850    0.50280    1.000
    C271     C        0.15604    0.88349    0.55844    1.000
    C272     C        0.16029    0.82930    0.58831    1.000
    C273     C        0.11033    0.78860    0.58899    1.000
    H160     H        0.07070    0.79320    0.56830    1.000
    C274     C        0.11739    0.74076    0.61968    1.000
    H161     H        0.08230    0.71290    0.61890    1.000
    C275     C        0.21877    0.77190    0.64936    1.000
    H162     H        0.25790    0.76660    0.67040    1.000
    C276     C        0.21513    0.82006    0.62008    1.000
    H163     H        0.25080    0.84730    0.62170    1.000
    C277     C        0.06218    0.95325    0.44826    1.000
    C278     C        0.04062    0.91047    0.41470    1.000
    H164     H        0.05890    0.87330    0.41820    1.000
    C279     C        0.99329    0.92120    0.37650    1.000
    H165     H        0.97980    0.89170    0.35360    1.000
    C280     C        0.96571    0.97468    0.37167    1.000
    C281     C        0.98531    0.01731    0.40476    1.000
    H166     H        0.96550    0.05400    0.40190    1.000
    C282     C        0.03344    0.00673    0.44191    1.000
    H167     H        0.04750    0.03680    0.46390    1.000
    C283     C        0.91639    0.03485    0.30855    1.000
    C284     C        0.97667    0.06350    0.29869    1.000
    H168     H        0.01890    0.04800    0.30980    1.000
    C285     C        0.97530    0.11457    0.27268    1.000
    C286     C        0.91365    0.13568    0.25450    1.000
    H169     H        0.91270    0.17030    0.23560    1.000
    C287     C        0.85373    0.10660    0.26378    1.000
    C288     C        0.85464    0.05574    0.29154    1.000
    H170     H        0.81350    0.03590    0.29860    1.000
    C289     C        0.04058    0.14649    0.26491    1.000
    C290     C        0.78798    0.12893    0.24262    1.000
    N28      N        0.29177    0.10771    0.64062    1.000
    N29      N        0.19396    0.92580    0.57758    1.000
    N30      N        0.17078    0.73208    0.65007    1.000
    Ni11     Ni       0.81620    0.16476    0.79972    1.000
    O51      O        0.45578    0.18019    0.77208    1.000
    O52      O        0.41264    0.13662    0.70286    1.000
    O53      O        0.71078    0.17360    0.78512    1.000
    O54      O        0.76743    0.10375    0.74900    1.000
    O55      O        0.58408    0.98286    0.66562    1.000
    C291     C        0.25765    0.11959    0.39307    1.000
    H171     H        0.27130    0.15810    0.39670    1.000
    C292     C        0.28994    0.07960    0.42276    1.000
    H172     H        0.32470    0.09070    0.44630    1.000
    C293     C        0.27167    0.02288    0.41836    1.000
    C294     C        0.21856    0.01067    0.38495    1.000
    H173     H        0.20280    0.97270    0.38140    1.000
    C295     C        0.18881    0.05344    0.35704    1.000
    H174     H        0.15220    0.04390    0.33470    1.000
    C296     C        0.30991    0.97681    0.44493    1.000
    C297     C        0.35011    0.98607    0.48835    1.000
    H175     H        0.35060    0.02250    0.50410    1.000
    C298     C        0.38944    0.94250    0.50878    1.000
    C299     C        0.38591    0.88977    0.48457    1.000
    H176     H        0.41170    0.85850    0.49720    1.000
    C300     C        0.34396    0.88349    0.44156    1.000
    C301     C        0.33971    0.82930    0.41169    1.000
    C302     C        0.38967    0.78860    0.41101    1.000
    H177     H        0.42930    0.79320    0.43170    1.000
    C303     C        0.38261    0.74076    0.38032    1.000
    H178     H        0.41770    0.71290    0.38110    1.000
    C304     C        0.28123    0.77190    0.35064    1.000
    H179     H        0.24210    0.76660    0.32960    1.000
    C305     C        0.28487    0.82006    0.37992    1.000
    H180     H        0.24920    0.84730    0.37830    1.000
    C306     C        0.43782    0.95325    0.55174    1.000
    C307     C        0.45938    0.91047    0.58530    1.000
    H181     H        0.44110    0.87330    0.58180    1.000
    C308     C        0.50671    0.92120    0.62350    1.000
    H182     H        0.52020    0.89170    0.64640    1.000
    C309     C        0.53429    0.97468    0.62833    1.000
    C310     C        0.51469    0.01731    0.59524    1.000
    H183     H        0.53450    0.05400    0.59810    1.000
    C311     C        0.46656    0.00673    0.55809    1.000
    H184     H        0.45250    0.03680    0.53610    1.000
    C312     C        0.58361    0.03485    0.69145    1.000
    C313     C        0.52333    0.06350    0.70131    1.000
    H185     H        0.48110    0.04800    0.69020    1.000
    C314     C        0.52470    0.11457    0.72732    1.000
    C315     C        0.58635    0.13568    0.74550    1.000
    H186     H        0.58730    0.17030    0.76440    1.000
    C316     C        0.64627    0.10660    0.73622    1.000
    C317     C        0.64536    0.05574    0.70846    1.000
    H187     H        0.68650    0.03590    0.70140    1.000
    C318     C        0.45942    0.14649    0.73509    1.000
    C319     C        0.71202    0.12893    0.75738    1.000
    N31      N        0.20823    0.10771    0.35938    1.000
    N32      N        0.30604    0.92580    0.42242    1.000
    N33      N        0.32922    0.73208    0.34993    1.000
    Ni12     Ni       0.31620    0.66476    0.29972    1.000
    O56      O        0.95578    0.68019    0.27208    1.000
    O57      O        0.91264    0.63662    0.20286    1.000
    O58      O        0.21078    0.67360    0.28512    1.000
    O59      O        0.26743    0.60375    0.24900    1.000
    O60      O        0.08408    0.48286    0.16562    1.000
    C320     C        0.75765    0.61959    0.89307    1.000
    H188     H        0.77130    0.65810    0.89670    1.000
    C321     C        0.78994    0.57960    0.92276    1.000
    H189     H        0.82470    0.59070    0.94630    1.000
    C322     C        0.77167    0.52288    0.91836    1.000
    C323     C        0.71856    0.51067    0.88495    1.000
    H190     H        0.70280    0.47270    0.88140    1.000
    C324     C        0.68881    0.55344    0.85704    1.000
    H191     H        0.65220    0.54390    0.83470    1.000
    C325     C        0.80991    0.47681    0.94493    1.000
    C326     C        0.85011    0.48607    0.98835    1.000
    H192     H        0.85060    0.52250    0.00410    1.000
    C327     C        0.88944    0.44250    0.00878    1.000
    C328     C        0.88591    0.38977    0.98457    1.000
    H193     H        0.91170    0.35850    0.99720    1.000
    C329     C        0.84396    0.38349    0.94156    1.000
    C330     C        0.83971    0.32930    0.91169    1.000
    C331     C        0.88967    0.28860    0.91101    1.000
    H194     H        0.92930    0.29320    0.93170    1.000
    C332     C        0.88261    0.24076    0.88032    1.000
    H195     H        0.91770    0.21290    0.88110    1.000
    C333     C        0.78123    0.27190    0.85064    1.000
    H196     H        0.74210    0.26660    0.82960    1.000
    C334     C        0.78487    0.32006    0.87992    1.000
    H197     H        0.74920    0.34730    0.87830    1.000
    C335     C        0.93782    0.45325    0.05174    1.000
    C336     C        0.95938    0.41047    0.08530    1.000
    H198     H        0.94110    0.37330    0.08180    1.000
    C337     C        0.00671    0.42120    0.12350    1.000
    H199     H        0.02020    0.39170    0.14640    1.000
    C338     C        0.03429    0.47468    0.12833    1.000
    C339     C        0.01469    0.51731    0.09524    1.000
    H200     H        0.03450    0.55400    0.09810    1.000
    C340     C        0.96656    0.50673    0.05809    1.000
    H201     H        0.95250    0.53680    0.03610    1.000
    C341     C        0.08361    0.53485    0.19145    1.000
    C342     C        0.02333    0.56350    0.20131    1.000
    H202     H        0.98110    0.54800    0.19020    1.000
    C343     C        0.02470    0.61457    0.22732    1.000
    C344     C        0.08635    0.63568    0.24550    1.000
    H203     H        0.08730    0.67030    0.26440    1.000
    C345     C        0.14627    0.60660    0.23622    1.000
    C346     C        0.14536    0.55574    0.20846    1.000
    H204     H        0.18650    0.53590    0.20140    1.000
    C347     C        0.95942    0.64649    0.23509    1.000
    C348     C        0.21202    0.62893    0.25738    1.000
    N34      N        0.70823    0.60771    0.85938    1.000
    N35      N        0.80604    0.42580    0.92242    1.000
    N36      N        0.82922    0.23208    0.84993    1.000
    Ni13     Ni       0.68380    0.66476    0.79972    1.000
    O61      O        0.04422    0.68019    0.77208    1.000
    O62      O        0.08736    0.63662    0.70286    1.000
    O63      O        0.78922    0.67360    0.78512    1.000
    O64      O        0.73257    0.60375    0.74900    1.000
    O65      O        0.91592    0.48286    0.66562    1.000
    C349     C        0.24235    0.61959    0.39307    1.000
    H205     H        0.22870    0.65810    0.39670    1.000
    C350     C        0.21006    0.57960    0.42276    1.000
    H206     H        0.17530    0.59070    0.44630    1.000
    C351     C        0.22833    0.52288    0.41836    1.000
    C352     C        0.28144    0.51067    0.38495    1.000
    H207     H        0.29720    0.47270    0.38140    1.000
    C353     C        0.31119    0.55344    0.35704    1.000
    H208     H        0.34780    0.54390    0.33470    1.000
    C354     C        0.19009    0.47681    0.44493    1.000
    C355     C        0.14989    0.48607    0.48835    1.000
    H209     H        0.14940    0.52250    0.50410    1.000
    C356     C        0.11056    0.44250    0.50878    1.000
    C357     C        0.11409    0.38977    0.48457    1.000
    H210     H        0.08830    0.35850    0.49720    1.000
    C358     C        0.15604    0.38349    0.44156    1.000
    C359     C        0.16029    0.32930    0.41169    1.000
    C360     C        0.11033    0.28860    0.41101    1.000
    H211     H        0.07070    0.29320    0.43170    1.000
    C361     C        0.11739    0.24076    0.38032    1.000
    H212     H        0.08230    0.21290    0.38110    1.000
    C362     C        0.21877    0.27190    0.35064    1.000
    H213     H        0.25790    0.26660    0.32960    1.000
    C363     C        0.21513    0.32006    0.37992    1.000
    H214     H        0.25080    0.34730    0.37830    1.000
    C364     C        0.06218    0.45325    0.55174    1.000
    C365     C        0.04062    0.41047    0.58530    1.000
    H215     H        0.05890    0.37330    0.58180    1.000
    C366     C        0.99329    0.42120    0.62350    1.000
    H216     H        0.97980    0.39170    0.64640    1.000
    C367     C        0.96571    0.47468    0.62833    1.000
    C368     C        0.98531    0.51731    0.59524    1.000
    H217     H        0.96550    0.55400    0.59810    1.000
    C369     C        0.03344    0.50673    0.55809    1.000
    H218     H        0.04750    0.53680    0.53610    1.000
    C370     C        0.91639    0.53485    0.69145    1.000
    C371     C        0.97667    0.56350    0.70131    1.000
    H219     H        0.01890    0.54800    0.69020    1.000
    C372     C        0.97530    0.61457    0.72732    1.000
    C373     C        0.91365    0.63568    0.74550    1.000
    H220     H        0.91270    0.67030    0.76440    1.000
    C374     C        0.85373    0.60660    0.73622    1.000
    C375     C        0.85464    0.55574    0.70846    1.000
    H221     H        0.81350    0.53590    0.70140    1.000
    C376     C        0.04058    0.64649    0.73509    1.000
    C377     C        0.78798    0.62893    0.75738    1.000
    N37      N        0.29177    0.60771    0.35938    1.000
    N38      N        0.19396    0.42580    0.42242    1.000
    N39      N        0.17078    0.23208    0.34993    1.000
    Ni14     Ni       0.18380    0.16476    0.29972    1.000
    O66      O        0.54422    0.18019    0.27208    1.000
    O67      O        0.58736    0.13662    0.20286    1.000
    O68      O        0.28922    0.17360    0.28512    1.000
    O69      O        0.23257    0.10375    0.24900    1.000
    O70      O        0.41592    0.98286    0.16562    1.000
    C378     C        0.74235    0.11959    0.89307    1.000
    H222     H        0.72870    0.15810    0.89670    1.000
    C379     C        0.71006    0.07960    0.92276    1.000
    H223     H        0.67530    0.09070    0.94630    1.000
    C380     C        0.72833    0.02288    0.91836    1.000
    C381     C        0.78144    0.01067    0.88495    1.000
    H224     H        0.79720    0.97270    0.88140    1.000
    C382     C        0.81119    0.05344    0.85704    1.000
    H225     H        0.84780    0.04390    0.83470    1.000
    C383     C        0.69009    0.97681    0.94493    1.000
    C384     C        0.64989    0.98607    0.98835    1.000
    H226     H        0.64940    0.02250    0.00410    1.000
    C385     C        0.61056    0.94250    0.00878    1.000
    C386     C        0.61409    0.88977    0.98457    1.000
    H227     H        0.58830    0.85850    0.99720    1.000
    C387     C        0.65604    0.88349    0.94156    1.000
    C388     C        0.66029    0.82930    0.91169    1.000
    C389     C        0.61033    0.78860    0.91101    1.000
    H228     H        0.57070    0.79320    0.93170    1.000
    C390     C        0.61739    0.74076    0.88032    1.000
    H229     H        0.58230    0.71290    0.88110    1.000
    C391     C        0.71877    0.77190    0.85064    1.000
    H230     H        0.75790    0.76660    0.82960    1.000
    C392     C        0.71513    0.82006    0.87992    1.000
    H231     H        0.75080    0.84730    0.87830    1.000
    C393     C        0.56218    0.95325    0.05174    1.000
    C394     C        0.54062    0.91047    0.08530    1.000
    H232     H        0.55890    0.87330    0.08180    1.000
    C395     C        0.49329    0.92120    0.12350    1.000
    H233     H        0.47980    0.89170    0.14640    1.000
    C396     C        0.46571    0.97468    0.12833    1.000
    C397     C        0.48531    0.01731    0.09524    1.000
    H234     H        0.46550    0.05400    0.09810    1.000
    C398     C        0.53344    0.00673    0.05809    1.000
    H235     H        0.54750    0.03680    0.03610    1.000
    C399     C        0.41639    0.03485    0.19145    1.000
    C400     C        0.47667    0.06350    0.20131    1.000
    H236     H        0.51890    0.04800    0.19020    1.000
    C401     C        0.47530    0.11457    0.22732    1.000
    C402     C        0.41365    0.13568    0.24550    1.000
    H237     H        0.41270    0.17030    0.26440    1.000
    C403     C        0.35373    0.10660    0.23622    1.000
    C404     C        0.35464    0.05574    0.20846    1.000
    H238     H        0.31350    0.03590    0.20140    1.000
    C405     C        0.54058    0.14649    0.23509    1.000
    C406     C        0.28798    0.12893    0.25738    1.000
    N40      N        0.79177    0.10771    0.85938    1.000
    N41      N        0.69396    0.92580    0.92242    1.000
    N42      N        0.67078    0.73208    0.84993    1.000
    Ni15     Ni       0.31620    0.16476    0.70028    1.000
    O71      O        0.95578    0.18019    0.72792    1.000
    O72      O        0.91264    0.13662    0.79714    1.000
    O73      O        0.21078    0.17360    0.71488    1.000
    O74      O        0.26743    0.10375    0.75100    1.000
    O75      O        0.08408    0.98286    0.83438    1.000
    C407     C        0.75765    0.11959    0.10693    1.000
    H239     H        0.77130    0.15810    0.10330    1.000
    C408     C        0.78994    0.07960    0.07724    1.000
    H240     H        0.82470    0.09070    0.05370    1.000
    C409     C        0.77167    0.02288    0.08164    1.000
    C410     C        0.71856    0.01067    0.11505    1.000
    H241     H        0.70280    0.97270    0.11860    1.000
    C411     C        0.68881    0.05344    0.14296    1.000
    H242     H        0.65220    0.04390    0.16530    1.000
    C412     C        0.80991    0.97681    0.05507    1.000
    C413     C        0.85011    0.98607    0.01165    1.000
    H243     H        0.85060    0.02250    0.99590    1.000
    C414     C        0.88944    0.94250    0.99122    1.000
    C415     C        0.88591    0.88977    0.01543    1.000
    H244     H        0.91170    0.85850    0.00280    1.000
    C416     C        0.84396    0.88349    0.05844    1.000
    C417     C        0.83971    0.82930    0.08831    1.000
    C418     C        0.88967    0.78860    0.08899    1.000
    H245     H        0.92930    0.79320    0.06830    1.000
    C419     C        0.88261    0.74076    0.11968    1.000
    H246     H        0.91770    0.71290    0.11890    1.000
    C420     C        0.78123    0.77190    0.14936    1.000
    H247     H        0.74210    0.76660    0.17040    1.000
    C421     C        0.78487    0.82006    0.12008    1.000
    H248     H        0.74920    0.84730    0.12170    1.000
    C422     C        0.93782    0.95325    0.94826    1.000
    C423     C        0.95938    0.91047    0.91470    1.000
    H249     H        0.94110    0.87330    0.91820    1.000
    C424     C        0.00671    0.92120    0.87650    1.000
    H250     H        0.02020    0.89170    0.85360    1.000
    C425     C        0.03429    0.97468    0.87167    1.000
    C426     C        0.01469    0.01731    0.90476    1.000
    H251     H        0.03450    0.05400    0.90190    1.000
    C427     C        0.96656    0.00673    0.94191    1.000
    H252     H        0.95250    0.03680    0.96390    1.000
    C428     C        0.08361    0.03485    0.80855    1.000
    C429     C        0.02333    0.06350    0.79869    1.000
    H253     H        0.98110    0.04800    0.80980    1.000
    C430     C        0.02470    0.11457    0.77268    1.000
    C431     C        0.08635    0.13568    0.75450    1.000
    H254     H        0.08730    0.17030    0.73560    1.000
    C432     C        0.14627    0.10660    0.76378    1.000
    C433     C        0.14536    0.05574    0.79154    1.000
    H255     H        0.18650    0.03590    0.79860    1.000
    C434     C        0.95942    0.14649    0.76491    1.000
    C435     C        0.21202    0.12893    0.74262    1.000
    N43      N        0.70823    0.10771    0.14062    1.000
    N44      N        0.80604    0.92580    0.07758    1.000
    N45      N        0.82922    0.73208    0.15007    1.000
    Ni16     Ni       0.81620    0.66476    0.20028    1.000
    O76      O        0.45578    0.68019    0.22792    1.000
    O77      O        0.41264    0.63662    0.29714    1.000
    O78      O        0.71078    0.67360    0.21488    1.000
    O79      O        0.76743    0.60375    0.25100    1.000
    O80      O        0.58408    0.48286    0.33438    1.000
    C436     C        0.25765    0.61959    0.60693    1.000
    H256     H        0.27130    0.65810    0.60330    1.000
    C437     C        0.28994    0.57960    0.57724    1.000
    H257     H        0.32470    0.59070    0.55370    1.000
    C438     C        0.27167    0.52288    0.58164    1.000
    C439     C        0.21856    0.51067    0.61505    1.000
    H258     H        0.20280    0.47270    0.61860    1.000
    C440     C        0.18881    0.55344    0.64296    1.000
    H259     H        0.15220    0.54390    0.66530    1.000
    C441     C        0.30991    0.47681    0.55507    1.000
    C442     C        0.35011    0.48607    0.51165    1.000
    H260     H        0.35060    0.52250    0.49590    1.000
    C443     C        0.38944    0.44250    0.49122    1.000
    C444     C        0.38591    0.38977    0.51543    1.000
    H261     H        0.41170    0.35850    0.50280    1.000
    C445     C        0.34396    0.38349    0.55844    1.000
    C446     C        0.33971    0.32930    0.58831    1.000
    C447     C        0.38967    0.28860    0.58899    1.000
    H262     H        0.42930    0.29320    0.56830    1.000
    C448     C        0.38261    0.24076    0.61968    1.000
    H263     H        0.41770    0.21290    0.61890    1.000
    C449     C        0.28123    0.27190    0.64936    1.000
    H264     H        0.24210    0.26660    0.67040    1.000
    C450     C        0.28487    0.32006    0.62008    1.000
    H265     H        0.24920    0.34730    0.62170    1.000
    C451     C        0.43782    0.45325    0.44826    1.000
    C452     C        0.45938    0.41047    0.41470    1.000
    H266     H        0.44110    0.37330    0.41820    1.000
    C453     C        0.50671    0.42120    0.37650    1.000
    H267     H        0.52020    0.39170    0.35360    1.000
    C454     C        0.53429    0.47468    0.37167    1.000
    C455     C        0.51469    0.51731    0.40476    1.000
    H268     H        0.53450    0.55400    0.40190    1.000
    C456     C        0.46656    0.50673    0.44191    1.000
    H269     H        0.45250    0.53680    0.46390    1.000
    C457     C        0.58361    0.53485    0.30855    1.000
    C458     C        0.52333    0.56350    0.29869    1.000
    H270     H        0.48110    0.54800    0.30980    1.000
    C459     C        0.52470    0.61457    0.27268    1.000
    C460     C        0.58635    0.63568    0.25450    1.000
    H271     H        0.58730    0.67030    0.23560    1.000
    C461     C        0.64627    0.60660    0.26378    1.000
    C462     C        0.64536    0.55574    0.29154    1.000
    H272     H        0.68650    0.53590    0.29860    1.000
    C463     C        0.45942    0.64649    0.26491    1.000
    C464     C        0.71202    0.62893    0.24262    1.000
    N46      N        0.20823    0.60771    0.64062    1.000
    N47      N        0.30604    0.42580    0.57758    1.000
    N48      N        0.32922    0.23208    0.65007    1.000
