# CIF file generated by openbabel 3.1.0, see https://openbabel.org
data_I
_chemical_name_common 'image0'
_cell_length_a 9.917
_cell_length_b 8.7409
_cell_length_c 22.499
_cell_angle_alpha 90
_cell_angle_beta 107.43
_cell_angle_gamma 90
_space_group_name_H-M_alt 'P 1'
_space_group_name_Hall 'P 1'
loop_
    _symmetry_equiv_pos_as_xyz
    x,y,z
loop_
    _atom_site_label
    _atom_site_type_symbol
    _atom_site_fract_x
    _atom_site_fract_y
    _atom_site_fract_z
    _atom_site_occupancy
    C1       C        0.83090    0.51540    0.27731    1.000
    H1       H        0.74160    0.55370    0.25690    1.000
    C2       C        0.89600    0.56290    0.33689    1.000
    H2       H        0.85130    0.63180    0.35630    1.000
    C3       C        0.02930    0.50730    0.36812    1.000
    C4       C        0.09040    0.40470    0.33735    1.000
    H3       H        0.17950    0.36420    0.35680    1.000
    C5       C        0.01770    0.36350    0.27772    1.000
    H4       H        0.06000    0.29450    0.25730    1.000
    C6       C        0.56910    0.22730    0.55716    1.000
    H5       H        0.59810    0.14740    0.53660    1.000
    C7       C        0.45310    0.31040    0.52532    1.000
    H6       H        0.40530    0.28720    0.48400    1.000
    C8       C        0.40770    0.42930    0.55511    1.000
    C9       C        0.48270    0.45920    0.61641    1.000
    H7       H        0.45570    0.53810    0.63820    1.000
    C10      C        0.59830    0.36960    0.64455    1.000
    H8       H        0.64820    0.39040    0.68580    1.000
    C11      C        0.04960    0.96820    0.63420    1.000
    H9       H        0.09940    0.01110    0.67220    1.000
    C12      C        0.11910    0.86640    0.60714    1.000
    H10      H        0.21240    0.83930    0.62710    1.000
    C13      C        0.04740    0.80500    0.54967    1.000
    C14      C        0.90940    0.85070    0.52211    1.000
    H11      H        0.85920    0.81430    0.48290    1.000
    C15      C        0.84740    0.94980    0.55297    1.000
    H12      H        0.75380    0.97750    0.53420    1.000
    C16      C        0.10210    0.55230    0.43321    1.000
    C17      C        0.28060    0.51650    0.52141    1.000
    C18      C        0.11220    0.68980    0.51893    1.000
    Cu1      Cu       0.80144    0.38069    0.15691    1.000
    N1       N        0.88920    0.41690    0.24703    1.000
    N2       N        0.64320    0.25540    0.61653    1.000
    N3       N        0.91480    0.00910    0.60904    1.000
    N4       N        0.04220    0.65770    0.45964    1.000
    N5       N        0.22210    0.47920    0.46175    1.000
    N6       N        0.23060    0.62150    0.55228    1.000
    C19      C        0.83090    0.98460    0.77731    1.000
    H13      H        0.74160    0.94630    0.75690    1.000
    C20      C        0.89600    0.93710    0.83689    1.000
    H14      H        0.85130    0.86820    0.85630    1.000
    C21      C        0.02930    0.99270    0.86812    1.000
    C22      C        0.09040    0.09530    0.83735    1.000
    H15      H        0.17950    0.13580    0.85680    1.000
    C23      C        0.01770    0.13650    0.77772    1.000
    H16      H        0.06000    0.20550    0.75730    1.000
    C24      C        0.56910    0.27270    0.05716    1.000
    H17      H        0.59810    0.35260    0.03660    1.000
    C25      C        0.45310    0.18960    0.02532    1.000
    H18      H        0.40530    0.21280    0.98400    1.000
    C26      C        0.40770    0.07070    0.05511    1.000
    C27      C        0.48270    0.04080    0.11641    1.000
    H19      H        0.45570    0.96190    0.13820    1.000
    C28      C        0.59830    0.13040    0.14455    1.000
    H20      H        0.64820    0.10960    0.18580    1.000
    C29      C        0.04960    0.53180    0.13420    1.000
    H21      H        0.09940    0.48890    0.17220    1.000
    C30      C        0.11910    0.63360    0.10714    1.000
    H22      H        0.21240    0.66070    0.12710    1.000
    C31      C        0.04740    0.69500    0.04967    1.000
    C32      C        0.90940    0.64930    0.02211    1.000
    H23      H        0.85920    0.68570    0.98290    1.000
    C33      C        0.84740    0.55020    0.05297    1.000
    H24      H        0.75380    0.52250    0.03420    1.000
    C34      C        0.10210    0.94770    0.93321    1.000
    C35      C        0.28060    0.98350    0.02141    1.000
    C36      C        0.11220    0.81020    0.01893    1.000
    Cu2      Cu       0.80144    0.11931    0.65691    1.000
    N7       N        0.88920    0.08310    0.74703    1.000
    N8       N        0.64320    0.24460    0.11653    1.000
    N9       N        0.91480    0.49090    0.10904    1.000
    N10      N        0.04220    0.84230    0.95964    1.000
    N11      N        0.22210    0.02080    0.96175    1.000
    N12      N        0.23060    0.87850    0.05228    1.000
    C37      C        0.16910    0.01540    0.22269    1.000
    H25      H        0.25840    0.05370    0.24310    1.000
    C38      C        0.10400    0.06290    0.16311    1.000
    H26      H        0.14870    0.13180    0.14370    1.000
    C39      C        0.97070    0.00730    0.13188    1.000
    C40      C        0.90960    0.90470    0.16265    1.000
    H27      H        0.82050    0.86420    0.14320    1.000
    C41      C        0.98230    0.86350    0.22228    1.000
    H28      H        0.94000    0.79450    0.24270    1.000
    C42      C        0.43090    0.72730    0.94284    1.000
    H29      H        0.40190    0.64740    0.96340    1.000
    C43      C        0.54690    0.81040    0.97468    1.000
    H30      H        0.59470    0.78720    0.01600    1.000
    C44      C        0.59230    0.92930    0.94489    1.000
    C45      C        0.51730    0.95920    0.88359    1.000
    H31      H        0.54430    0.03810    0.86180    1.000
    C46      C        0.40170    0.86960    0.85545    1.000
    H32      H        0.35180    0.89040    0.81420    1.000
    C47      C        0.95040    0.46820    0.86580    1.000
    H33      H        0.90060    0.51110    0.82780    1.000
    C48      C        0.88090    0.36640    0.89286    1.000
    H34      H        0.78760    0.33930    0.87290    1.000
    C49      C        0.95260    0.30500    0.95033    1.000
    C50      C        0.09060    0.35070    0.97789    1.000
    H35      H        0.14080    0.31430    0.01710    1.000
    C51      C        0.15260    0.44980    0.94703    1.000
    H36      H        0.24620    0.47750    0.96580    1.000
    C52      C        0.89790    0.05230    0.06679    1.000
    C53      C        0.71940    0.01650    0.97859    1.000
    C54      C        0.88780    0.18980    0.98107    1.000
    Cu3      Cu       0.19856    0.88069    0.34309    1.000
    N13      N        0.11080    0.91690    0.25297    1.000
    N14      N        0.35680    0.75540    0.88347    1.000
    N15      N        0.08520    0.50910    0.89096    1.000
    N16      N        0.95780    0.15770    0.04036    1.000
    N17      N        0.77790    0.97920    0.03825    1.000
    N18      N        0.76940    0.12150    0.94772    1.000
    C55      C        0.16910    0.48460    0.72269    1.000
    H37      H        0.25840    0.44630    0.74310    1.000
    C56      C        0.10400    0.43710    0.66311    1.000
    H38      H        0.14870    0.36820    0.64370    1.000
    C57      C        0.97070    0.49270    0.63188    1.000
    C58      C        0.90960    0.59530    0.66265    1.000
    H39      H        0.82050    0.63580    0.64320    1.000
    C59      C        0.98230    0.63650    0.72228    1.000
    H40      H        0.94000    0.70550    0.74270    1.000
    C60      C        0.43090    0.77270    0.44284    1.000
    H41      H        0.40190    0.85260    0.46340    1.000
    C61      C        0.54690    0.68960    0.47468    1.000
    H42      H        0.59470    0.71280    0.51600    1.000
    C62      C        0.59230    0.57070    0.44489    1.000
    C63      C        0.51730    0.54080    0.38359    1.000
    H43      H        0.54430    0.46190    0.36180    1.000
    C64      C        0.40170    0.63040    0.35545    1.000
    H44      H        0.35180    0.60960    0.31420    1.000
    C65      C        0.95040    0.03180    0.36580    1.000
    H45      H        0.90060    0.98890    0.32780    1.000
    C66      C        0.88090    0.13360    0.39286    1.000
    H46      H        0.78760    0.16070    0.37290    1.000
    C67      C        0.95260    0.19500    0.45033    1.000
    C68      C        0.09060    0.14930    0.47789    1.000
    H47      H        0.14080    0.18570    0.51710    1.000
    C69      C        0.15260    0.05020    0.44703    1.000
    H48      H        0.24620    0.02250    0.46580    1.000
    C70      C        0.89790    0.44770    0.56679    1.000
    C71      C        0.71940    0.48350    0.47859    1.000
    C72      C        0.88780    0.31020    0.48107    1.000
    Cu4      Cu       0.19856    0.61931    0.84309    1.000
    N19      N        0.11080    0.58310    0.75297    1.000
    N20      N        0.35680    0.74460    0.38347    1.000
    N21      N        0.08520    0.99090    0.39096    1.000
    N22      N        0.95780    0.34230    0.54036    1.000
    N23      N        0.77790    0.52080    0.53825    1.000
    N24      N        0.76940    0.37850    0.44772    1.000
