data_functionalizedCrystal
_audit_creation_method	'EQeq! by Chris Wilmer'
_symmetry_space_group_name_H-M	'P1'
_symmetry_Int_Tables_number	1
_symmetry_cell_setting	triclinic
loop_
_symmetry_equiv_pos_as_xyz
  x,y,z
_cell_length_a	16.2538
_cell_length_b	8.7093
_cell_length_c	20.8595
_cell_angle_alpha	90
_cell_angle_beta	94.891
_cell_angle_gamma	90
loop_
_atom_site_label
_atom_site_type_symbol
_atom_site_fract_x
_atom_site_fract_y
_atom_site_fract_z
_atom_site_charge
Mof_Tb	Tb	0.24239	0.22123	0.71242	2.202
Mof_O 	O 	0.1259	0.3573	0.6622	-0.501
Mof_O 	O 	0.3693	0.3201	0.7484	-0.599
Mof_O 	O 	0.1792	0.5384	0.8395	-0.569
Mof_O 	O 	0.1784	0.2997	0.8016	-0.568
Mof_O 	O 	0.3632	0.5439	0.7989	-0.589
Mof_O 	O 	0.212	0.533	0.70467	-0.579
Mof_N 	N 	0.9852	0.9341	0.4991	-0.102
Mof_N 	N 	0.7548	0.4578	0.8402	-0.101
Mof_N 	N 	0.7856	0.3605	0.8121	-0.099
Mof_C 	C 	0.1517	0.4925	0.6657	0.41
Mof_C 	C 	0.1106	0.6089	0.6205	-0.187
Mof_C 	C 	0.1487	0.749	0.6104	0.113
Mof_H 	H 	0.2006	0.7697	0.6309	-0.017
Mof_C 	C 	0.1096	0.8576	0.5698	-0.19
Mof_H 	H 	0.1354	0.9508	0.5632	0.094
Mof_C 	C 	0.0321	0.8277	0.5391	0.162
Mof_C 	C 	0.9961	0.6845	0.5468	-0.191
Mof_H 	H 	0.9454	0.6623	0.5247	0.101
Mof_C 	C 	0.0344	0.5755	0.5867	0.103
Mof_H 	H 	0.0099	0.48	0.5911	0.006
Mof_C 	C 	0.4014	0.4312	0.7798	0.574
Mof_C 	C 	0.4931	0.4263	0.7966	-0.26
Mof_C 	C 	0.5319	0.5379	0.8367	0.173
Mof_H 	H 	0.4999	0.6126	0.8545	-0.012
Mof_C 	C 	0.616	0.5403	0.8506	-0.245
Mof_H 	H 	0.6407	0.6155	0.8774	0.123
Mof_C 	C 	0.6626	0.4298	0.8241	0.188
Mof_C 	C 	0.626	0.3122	0.7858	-0.23
Mof_H 	H 	0.6582	0.236	0.7692	0.123
Mof_C 	C 	0.5397	0.3115	0.7729	0.165
Mof_H 	H 	0.5142	0.2332	0.7483	-0.018
Mof_C 	C 	0.1433	0.4149	0.8224	0.539
Mof_C 	C 	0.0509	0.4071	0.8262	-0.256
Mof_C 	C 	0.0092	0.5161	0.8588	0.167
Mof_H 	H 	0.0378	0.5943	0.8815	-0.031
Mof_C 	C 	0.9223	0.5069	0.8573	-0.243
Mof_H 	H 	0.8936	0.579	0.8796	0.119
Mof_C 	C 	0.88	0.394	0.8237	0.198
Mof_C 	C 	0.9218	0.286	0.7927	-0.251
Mof_H 	H 	0.8925	0.2082	0.7704	0.128
Mof_C 	C 	0.0074	0.2888	0.7935	0.176
Mof_H 	H 	0.0353	0.213	0.7725	-0.027
Mof_Tb	Tb	0.25761	0.72123	0.78758	2.2
Mof_O 	O 	0.3741	0.8573	0.8378	-0.499
Mof_O 	O 	0.1307	0.8201	0.7516	-0.599
Mof_O 	O 	0.3208	0.0384	0.6605	-0.566
Mof_O 	O 	0.3216	0.7997	0.6984	-0.567
Mof_O 	O 	0.1368	0.0439	0.7011	-0.585
Mof_O 	O 	0.288	0.033	0.79533	-0.575
Mof_N 	N 	0.5148	0.4341	0.0009	-0.105
Mof_N 	N 	0.7452	0.9578	0.6598	-0.101
Mof_N 	N 	0.7144	0.8605	0.6879	-0.099
Mof_C 	C 	0.3483	0.9925	0.8343	0.404
Mof_C 	C 	0.3894	0.1089	0.8795	-0.187
Mof_C 	C 	0.3513	0.249	0.8896	0.115
Mof_H 	H 	0.2994	0.2697	0.8691	-0.017
Mof_C 	C 	0.3904	0.3576	0.9302	-0.194
Mof_H 	H 	0.3646	0.4508	0.9368	0.097
Mof_C 	C 	0.4679	0.3277	0.9609	0.169
Mof_C 	C 	0.5039	0.1845	0.9532	-0.2
Mof_H 	H 	0.5546	0.1623	0.9753	0.104
Mof_C 	C 	0.4656	0.0755	0.9133	0.113
Mof_H 	H 	0.4901	0.98	0.9089	0.001
Mof_C 	C 	0.0986	0.9312	0.7202	0.57
Mof_C 	C 	0.0069	0.9263	0.7034	-0.264
Mof_C 	C 	0.9681	0.0379	0.6633	0.173
Mof_H 	H 	0.0001	0.1126	0.6455	-0.01
Mof_C 	C 	0.884	0.0403	0.6494	-0.246
Mof_H 	H 	0.8593	0.1155	0.6226	0.123
Mof_C 	C 	0.8374	0.9298	0.6759	0.189
Mof_C 	C 	0.874	0.8122	0.7142	-0.233
Mof_H 	H 	0.8418	0.736	0.7308	0.124
Mof_C 	C 	0.9603	0.8115	0.7271	0.17
Mof_H 	H 	0.9858	0.7332	0.7517	-0.019
Mof_C 	C 	0.3567	0.9149	0.6776	0.535
Mof_C 	C 	0.4491	0.9071	0.6738	-0.257
Mof_C 	C 	0.4908	0.0161	0.6412	0.169
Mof_H 	H 	0.4622	0.0943	0.6185	-0.031
Mof_C 	C 	0.5777	0.0069	0.6427	-0.242
Mof_H 	H 	0.6064	0.079	0.6204	0.119
Mof_C 	C 	0.62	0.894	0.6763	0.196
Mof_C 	C 	0.5782	0.786	0.7073	-0.249
Mof_H 	H 	0.6075	0.7082	0.7296	0.127
Mof_C 	C 	0.4926	0.7888	0.7065	0.174
Mof_H 	H 	0.4647	0.713	0.7275	-0.027
Mof_Tb	Tb	0.75761	0.77877	0.28758	2.203
Mof_O 	O 	0.8741	0.6427	0.3378	-0.5
Mof_O 	O 	0.6307	0.6799	0.2516	-0.599
Mof_O 	O 	0.8208	0.4616	0.1605	-0.569
Mof_O 	O 	0.8216	0.7003	0.1984	-0.568
Mof_O 	O 	0.6368	0.4561	0.2011	-0.589
Mof_O 	O 	0.788	0.467	0.29533	-0.579
Mof_N 	N 	0.0148	0.0659	0.5009	-0.102
Mof_N 	N 	0.2452	0.5422	0.1598	-0.101
Mof_N 	N 	0.2144	0.6395	0.1879	-0.099
Mof_C 	C 	0.8483	0.5075	0.3343	0.41
Mof_C 	C 	0.8894	0.3911	0.3795	-0.187
Mof_C 	C 	0.8513	0.251	0.3896	0.113
Mof_H 	H 	0.7994	0.2303	0.3691	-0.017
Mof_C 	C 	0.8904	0.1424	0.4302	-0.19
Mof_H 	H 	0.8646	0.0492	0.4368	0.094
Mof_C 	C 	0.9679	0.1723	0.4609	0.162
Mof_C 	C 	0.0039	0.3155	0.4532	-0.191
Mof_H 	H 	0.0546	0.3377	0.4753	0.101
Mof_C 	C 	0.9656	0.4245	0.4133	0.103
Mof_H 	H 	0.9901	0.52	0.4089	0.006
Mof_C 	C 	0.5986	0.5688	0.2202	0.574
Mof_C 	C 	0.5069	0.5737	0.2034	-0.26
Mof_C 	C 	0.4681	0.4621	0.1633	0.173
Mof_H 	H 	0.5001	0.3874	0.1455	-0.012
Mof_C 	C 	0.384	0.4597	0.1494	-0.245
Mof_H 	H 	0.3593	0.3845	0.1226	0.123
Mof_C 	C 	0.3374	0.5702	0.1759	0.188
Mof_C 	C 	0.374	0.6878	0.2142	-0.23
Mof_H 	H 	0.3418	0.764	0.2308	0.123
Mof_C 	C 	0.4603	0.6885	0.2271	0.165
Mof_H 	H 	0.4858	0.7668	0.2517	-0.018
Mof_C 	C 	0.8567	0.5851	0.1776	0.539
Mof_C 	C 	0.9491	0.5929	0.1738	-0.256
Mof_C 	C 	0.9908	0.4839	0.1412	0.167
Mof_H 	H 	0.9622	0.4057	0.1185	-0.031
Mof_C 	C 	0.0777	0.4931	0.1427	-0.243
Mof_H 	H 	0.1064	0.421	0.1204	0.119
Mof_C 	C 	0.12	0.606	0.1763	0.198
Mof_C 	C 	0.0782	0.714	0.2073	-0.251
Mof_H 	H 	0.1075	0.7918	0.2296	0.128
Mof_C 	C 	0.9926	0.7112	0.2065	0.176
Mof_H 	H 	0.9647	0.787	0.2275	-0.027
Mof_Tb	Tb	0.74239	0.27877	0.21242	2.2
Mof_O 	O 	0.6259	0.1427	0.1622	-0.499
Mof_O 	O 	0.8693	0.1799	0.2484	-0.599
Mof_O 	O 	0.6792	0.9616	0.3395	-0.566
Mof_O 	O 	0.6784	0.2003	0.3016	-0.567
Mof_O 	O 	0.8632	0.9561	0.2989	-0.585
Mof_O 	O 	0.712	0.967	0.20467	-0.575
Mof_N 	N 	0.4852	0.5659	0.9991	-0.105
Mof_N 	N 	0.2548	0.0422	0.3402	-0.101
Mof_N 	N 	0.2856	0.1395	0.3121	-0.099
Mof_C 	C 	0.6517	0.0075	0.1657	0.404
Mof_C 	C 	0.6106	0.8911	0.1205	-0.187
Mof_C 	C 	0.6487	0.751	0.1104	0.115
Mof_H 	H 	0.7006	0.7303	0.1309	-0.017
Mof_C 	C 	0.6096	0.6424	0.0698	-0.194
Mof_H 	H 	0.6354	0.5492	0.0632	0.097
Mof_C 	C 	0.5321	0.6723	0.0391	0.169
Mof_C 	C 	0.4961	0.8155	0.0468	-0.2
Mof_H 	H 	0.4454	0.8377	0.0247	0.104
Mof_C 	C 	0.5344	0.9245	0.0867	0.113
Mof_H 	H 	0.5099	0.02	0.0911	0.001
Mof_C 	C 	0.9014	0.0688	0.2798	0.57
Mof_C 	C 	0.9931	0.0737	0.2966	-0.264
Mof_C 	C 	0.0319	0.9621	0.3367	0.173
Mof_H 	H 	0.9999	0.8874	0.3545	-0.01
Mof_C 	C 	0.116	0.9597	0.3506	-0.246
Mof_H 	H 	0.1407	0.8845	0.3774	0.123
Mof_C 	C 	0.1626	0.0702	0.3241	0.189
Mof_C 	C 	0.126	0.1878	0.2858	-0.233
Mof_H 	H 	0.1582	0.264	0.2692	0.124
Mof_C 	C 	0.0397	0.1885	0.2729	0.17
Mof_H 	H 	0.0142	0.2668	0.2483	-0.019
Mof_C 	C 	0.6433	0.0851	0.3224	0.535
Mof_C 	C 	0.5509	0.0929	0.3262	-0.257
Mof_C 	C 	0.5092	0.9839	0.3588	0.169
Mof_H 	H 	0.5378	0.9057	0.3815	-0.031
Mof_C 	C 	0.4223	0.9931	0.3573	-0.242
Mof_H 	H 	0.3936	0.921	0.3796	0.119
Mof_C 	C 	0.38	0.106	0.3237	0.196
Mof_C 	C 	0.4218	0.214	0.2927	-0.249
Mof_H 	H 	0.3925	0.2918	0.2704	0.127
Mof_C 	C 	0.5074	0.2112	0.2935	0.174
Mof_H 	H 	0.5353	0.287	0.2725	-0.027
_end
