# CIF file generated by openbabel 3.1.0, see https://openbabel.org
data_I
_chemical_name_common 'FIFNUE_clean'
_cell_length_a 8.1309
_cell_length_b 10.5108
_cell_length_c 11.4194
_cell_angle_alpha 62.599
_cell_angle_beta 84.4085
_cell_angle_gamma 77.777
_space_group_name_H-M_alt 'P 1'
_space_group_name_Hall 'P 1'
loop_
    _symmetry_equiv_pos_as_xyz
    x,y,z
loop_
    _atom_site_label
    _atom_site_type_symbol
    _atom_site_fract_x
    _atom_site_fract_y
    _atom_site_fract_z
    _atom_site_occupancy
    Co1      Co       0.48993    0.68825    0.50758    1.000
    Co2      Co       0.98993    0.19583    0.49242    1.000
    H1       H        0.58780    0.56990    0.79900    1.000
    H2       H        0.40550    0.37810    0.63500    1.000
    H3       H        0.58350    0.37330    0.00140    1.000
    H4       H        0.39860    0.17880    0.83000    1.000
    H5       H        0.53810    0.21190    0.18560    1.000
    H6       H        0.42300    0.98670    0.01120    1.000
    H7       H        0.53670    0.00960    0.38380    1.000
    H8       H        0.41900    0.79290    0.21600    1.000
    H9       H        0.70240    0.39430    0.54160    1.000
    H10      H        0.08780    0.36890    0.20100    1.000
    H11      H        0.90550    0.01310    0.36500    1.000
    H12      H        0.08350    0.37470    0.99860    1.000
    H13      H        0.89860    0.00880    0.17000    1.000
    H14      H        0.03810    0.39750    0.81440    1.000
    H15      H        0.92300    0.99790    0.98880    1.000
    H16      H        0.03670    0.39340    0.61620    1.000
    H17      H        0.91900    0.00890    0.78400    1.000
    H18      H        0.20240    0.93590    0.45840    1.000
    C1       C        0.54810    0.49039    0.80502    1.000
    C2       C        0.44190    0.37768    0.70984    1.000
    C3       C        0.54600    0.37167    0.92786    1.000
    C4       C        0.43710    0.25762    0.82676    1.000
    C5       C        0.48900    0.25145    0.94150    1.000
    C6       C        0.48320    0.12310    0.07220    1.000
    C7       C        0.51560    0.12721    0.18878    1.000
    C8       C        0.44670    0.99463    0.08534    1.000
    C9       C        0.51370    0.00503    0.30774    1.000
    C10      C        0.44570    0.87771    0.20958    1.000
    C11      C        0.72530    0.45657    0.45486    1.000
    C12      C        0.04810    0.29541    0.19498    1.000
    C13      C        0.94190    0.08752    0.29016    1.000
    C14      C        0.04600    0.29953    0.07214    1.000
    C15      C        0.93710    0.08438    0.17324    1.000
    C16      C        0.98900    0.19295    0.05850    1.000
    C17      C        0.98320    0.19530    0.92780    1.000
    C18      C        0.01560    0.31599    0.81122    1.000
    C19      C        0.94670    0.07997    0.91466    1.000
    C20      C        0.01370    0.31277    0.69226    1.000
    C21      C        0.94570    0.08729    0.79042    1.000
    C22      C        0.22530    0.91143    0.54514    1.000
    N1       N        0.49650    0.49661    0.69578    1.000
    N2       N        0.48080    0.87971    0.32038    1.000
    N3       N        0.99650    0.19239    0.30422    1.000
    N4       N        0.98080    0.20009    0.67962    1.000
    O1       O        0.63880    0.58271    0.40498    1.000
    O2       O        0.84050    0.40799    0.39662    1.000
    O3       O        0.13880    0.98769    0.59502    1.000
    O4       O        0.34050    0.80461    0.60338    1.000
