# CIF file generated by openbabel 3.1.0, see https://openbabel.org
data_I
_chemical_name_common 'SEYFEI_clean'
_cell_length_a 8.9062
_cell_length_b 8.9466
_cell_length_c 15.5353
_cell_angle_alpha 90
_cell_angle_beta 90
_cell_angle_gamma 90
_space_group_name_H-M_alt 'P 1'
_space_group_name_Hall 'P 1'
loop_
    _symmetry_equiv_pos_as_xyz
    x,y,z
loop_
    _atom_site_label
    _atom_site_type_symbol
    _atom_site_fract_x
    _atom_site_fract_y
    _atom_site_fract_z
    _atom_site_occupancy
    Lu1      Lu       0.38822    0.03214    0.39509    1.000
    Lu2      Lu       0.61178    0.46786    0.89509    1.000
    Lu3      Lu       0.88822    0.96786    0.10491    1.000
    Lu4      Lu       0.11178    0.53214    0.60491    1.000
    P1       P        0.06669    0.12683    0.29390    1.000
    P2       P        0.93331    0.37317    0.79390    1.000
    P3       P        0.56669    0.87317    0.20610    1.000
    P4       P        0.43331    0.62683    0.70610    1.000
    H1       H        0.24950    0.14700    0.18770    1.000
    H2       H        0.17530    0.30390    0.20380    1.000
    H3       H        0.22080    0.44220    0.31270    1.000
    H4       H        0.39150    0.46020    0.33440    1.000
    H5       H        0.48250    0.37920    0.21640    1.000
    H6       H        0.48790    0.20780    0.19440    1.000
    H7       H        0.90290    0.27040    0.32380    1.000
    H8       H        0.75050    0.35300    0.68770    1.000
    H9       H        0.82470    0.19610    0.70380    1.000
    H10      H        0.77920    0.05780    0.81270    1.000
    H11      H        0.60850    0.03980    0.83440    1.000
    H12      H        0.51750    0.12080    0.71640    1.000
    H13      H        0.51210    0.29220    0.69440    1.000
    H14      H        0.09710    0.22960    0.82380    1.000
    H15      H        0.74950    0.85300    0.31230    1.000
    H16      H        0.67530    0.69610    0.29620    1.000
    H17      H        0.72080    0.55780    0.18730    1.000
    H18      H        0.89150    0.53980    0.16560    1.000
    H19      H        0.98250    0.62080    0.28360    1.000
    H20      H        0.98790    0.79220    0.30560    1.000
    H21      H        0.40290    0.72960    0.17620    1.000
    H22      H        0.25050    0.64700    0.81230    1.000
    H23      H        0.32470    0.80390    0.79620    1.000
    H24      H        0.27920    0.94220    0.68730    1.000
    H25      H        0.10850    0.96020    0.66560    1.000
    H26      H        0.01750    0.87920    0.78360    1.000
    H27      H        0.01210    0.70780    0.80560    1.000
    H28      H        0.59710    0.77040    0.67620    1.000
    C1       C        0.21420    0.21510    0.23190    1.000
    C2       C        0.30650    0.39280    0.33870    1.000
    C3       C        0.27330    0.36580    0.43200    1.000
    C4       C        0.48130    0.27950    0.24110    1.000
    C5       C        0.61480    0.26030    0.30150    1.000
    C6       C        0.78580    0.28490    0.73190    1.000
    C7       C        0.69350    0.10720    0.83870    1.000
    C8       C        0.72670    0.13420    0.93200    1.000
    C9       C        0.51870    0.22050    0.74110    1.000
    C10      C        0.38520    0.23970    0.80150    1.000
    C11      C        0.71420    0.78490    0.26810    1.000
    C12      C        0.80650    0.60720    0.16130    1.000
    C13      C        0.77330    0.63420    0.06800    1.000
    C14      C        0.98130    0.72050    0.25890    1.000
    C15      C        0.11480    0.73970    0.19850    1.000
    C16      C        0.28580    0.71510    0.76810    1.000
    C17      C        0.19350    0.89280    0.66130    1.000
    C18      C        0.22670    0.86580    0.56800    1.000
    C19      C        0.01870    0.77950    0.75890    1.000
    C20      C        0.88520    0.76030    0.69850    1.000
    N1       N        0.34020    0.25640    0.28930    1.000
    N2       N        0.65980    0.24360    0.78930    1.000
    N3       N        0.84020    0.74360    0.21070    1.000
    N4       N        0.15980    0.75640    0.71070    1.000
    O1       O        0.31520    0.24320    0.46560    1.000
    O2       O        0.20860    0.46910    0.47190    1.000
    O3       O        0.73810    0.31530    0.27790    1.000
    O4       O        0.59600    0.18750    0.37070    1.000
    O5       O        0.98260    0.24970    0.34740    1.000
    O6       O        0.96100    0.04930    0.23340    1.000
    O7       O        0.14660    0.02480    0.35560    1.000
    O8       O        0.68480    0.25680    0.96560    1.000
    O9       O        0.79140    0.03090    0.97190    1.000
    O10      O        0.26190    0.18470    0.77790    1.000
    O11      O        0.40400    0.31250    0.87070    1.000
    O12      O        0.01740    0.25030    0.84740    1.000
    O13      O        0.03900    0.45070    0.73340    1.000
    O14      O        0.85340    0.47520    0.85560    1.000
    O15      O        0.81520    0.75680    0.03440    1.000
    O16      O        0.70860    0.53090    0.02810    1.000
    O17      O        0.23810    0.68470    0.22210    1.000
    O18      O        0.09600    0.81250    0.12930    1.000
    O19      O        0.48260    0.75030    0.15260    1.000
    O20      O        0.46100    0.95070    0.26660    1.000
    O21      O        0.64660    0.97520    0.14440    1.000
    O22      O        0.18480    0.74320    0.53440    1.000
    O23      O        0.29140    0.96910    0.52810    1.000
    O24      O        0.76190    0.81530    0.72210    1.000
    O25      O        0.90400    0.68750    0.62930    1.000
    O26      O        0.51740    0.74970    0.65260    1.000
    O27      O        0.53900    0.54930    0.76660    1.000
    O28      O        0.35340    0.52480    0.64440    1.000
