# CIF file generated by openbabel 3.1.0, see https://openbabel.org
data_I
_chemical_name_common 'image0'
_cell_length_a 13.9914
_cell_length_b 20.2561
_cell_length_c 23.3703
_cell_angle_alpha 90
_cell_angle_beta 90
_cell_angle_gamma 90
_space_group_name_H-M_alt 'P 1'
_space_group_name_Hall 'P 1'
loop_
    _symmetry_equiv_pos_as_xyz
    x,y,z
loop_
    _atom_site_label
    _atom_site_type_symbol
    _atom_site_fract_x
    _atom_site_fract_y
    _atom_site_fract_z
    _atom_site_occupancy
    Zn1      Zn       0.82247    0.19515    0.24702    1.000
    Zn2      Zn       0.63304    0.22659    0.99610    1.000
    Zn3      Zn       0.79288    0.31495    0.77921    1.000
    N1       N        0.95030    0.20530    0.21150    1.000
    N2       N        0.09220    0.18200    0.17620    1.000
    N3       N        0.26590    0.97580    0.16260    1.000
    N4       N        0.23250    0.87780    0.19890    1.000
    N5       N        0.42180    0.18500    0.11450    1.000
    N6       N        0.54850    0.21620    0.06450    1.000
    N7       N        0.52790    0.24440    0.93780    1.000
    N8       N        0.39890    0.28740    0.89820    1.000
    N9       N        0.06360    0.32060    0.85470    1.000
    N10      N        0.92120    0.30310    0.81840    1.000
    N11      N        0.27740    0.51020    0.86010    1.000
    N12      N        0.26140    0.60930    0.82450    1.000
    O1       O        0.83260    0.33120    0.23120    1.000
    O2       O        0.71940    0.25840    0.24270    1.000
    O3       O        0.59590    0.09040    0.98700    1.000
    O4       O        0.71280    0.15660    0.96640    1.000
    O5       O        0.80510    0.84020    0.82410    1.000
    O6       O        0.93270    0.90660    0.80910    1.000
    O7       O        0.75400    0.27820    0.07670    1.000
    O8       O        0.70450    0.30540    0.99290    1.000
    O9       O        0.75260    0.22800    0.78970    1.000
    O10      O        0.61320    0.27150    0.77020    1.000
    H1       H        0.64700    0.30340    0.76280    1.000
    C1       C        0.74560    0.31390    0.23450    1.000
    C2       C        0.67450    0.36820    0.23130    1.000
    C3       C        0.57670    0.35670    0.23960    1.000
    H2       H        0.55580    0.31340    0.24400    1.000
    C4       C        0.51040    0.40670    0.24150    1.000
    H3       H        0.44790    0.39650    0.25180    1.000
    C5       C        0.53370    0.47440    0.22830    1.000
    C6       C        0.63330    0.48550    0.21670    1.000
    H4       H        0.65370    0.52780    0.20720    1.000
    C7       C        0.69980    0.43490    0.21920    1.000
    H5       H        0.76370    0.44490    0.21260    1.000
    C8       C        0.02590    0.16920    0.21470    1.000
    H6       H        0.03320    0.13650    0.24230    1.000
    C9       C        0.96580    0.24560    0.16640    1.000
    H7       H        0.92200    0.27580    0.15170    1.000
    C10      C        0.05600    0.23500    0.14550    1.000
    H8       H        0.08670    0.25850    0.11660    1.000
    C11      C        0.17870    0.15160    0.16480    1.000
    C12      C        0.18060    0.08110    0.16900    1.000
    H9       H        0.12640    0.05760    0.17990    1.000
    C13      C        0.26590    0.04880    0.15640    1.000
    C14      C        0.34630    0.07860    0.13830    1.000
    H10      H        0.40140    0.05520    0.12920    1.000
    C15      C        0.34070    0.15110    0.13400    1.000
    C16      C        0.25840    0.18530    0.14710    1.000
    H11      H        0.25690    0.23100    0.14400    1.000
    C17      C        0.21700    0.94380    0.20410    1.000
    H12      H        0.17890    0.96370    0.23170    1.000
    C18      C        0.29170    0.87320    0.15270    1.000
    H13      H        0.31330    0.83300    0.13850    1.000
    C19      C        0.31710    0.93330    0.12860    1.000
    H14      H        0.35740    0.94230    0.09800    1.000
    C20      C        0.45710    0.24330    0.13870    1.000
    H15      H        0.43080    0.26550    0.16980    1.000
    C21      C        0.53660    0.26220    0.10910    1.000
    H16      H        0.57540    0.29840    0.11690    1.000
    C22      C        0.47820    0.16920    0.07090    1.000
    H17      H        0.47120    0.13200    0.04810    1.000
    C23      C        0.67140    0.09660    0.96780    1.000
    C24      C        0.72790    0.04480    0.93780    1.000
    C25      C        0.68670    0.98040    0.93790    1.000
    H18      H        0.63160    0.97150    0.95880    1.000
    C26      C        0.73260    0.92990    0.90500    1.000
    H19      H        0.70510    0.88820    0.90330    1.000
    C27      C        0.81750    0.94180    0.87540    1.000
    C28      C        0.86120    0.00660    0.88000    1.000
    H20      H        0.91970    0.01540    0.86270    1.000
    C29      C        0.81410    0.05510    0.91080    1.000
    H21      H        0.84190    0.09670    0.91330    1.000
    C30      C        0.85610    0.89160    0.83470    1.000
    C31      C        0.75470    0.31560    0.03250    1.000
    C32      C        0.82650    0.37160    0.03170    1.000
    C33      C        0.86900    0.39290    0.08610    1.000
    H22      H        0.85370    0.37350    0.12100    1.000
    C34      C        0.93600    0.44580    0.08080    1.000
    H23      H        0.96400    0.46170    0.11420    1.000
    C35      C        0.96210    0.47490    0.03040    1.000
    C36      C        0.93370    0.44310    0.97820    1.000
    H24      H        0.96080    0.45540    0.94340    1.000
    C37      C        0.85930    0.38980    0.98070    1.000
    H25      H        0.83670    0.36990    0.94750    1.000
    C38      C        0.48920    0.19970    0.90090    1.000
    H26      H        0.51430    0.15800    0.89360    1.000
    C39      C        0.40780    0.22480    0.87580    1.000
    H27      H        0.36770    0.20400    0.84970    1.000
    C40      C        0.47180    0.29590    0.93620    1.000
    H28      H        0.48050    0.33360    0.95830    1.000
    C41      C        0.32060    0.33170    0.88690    1.000
    C42      C        0.23290    0.30410    0.87940    1.000
    H29      H        0.22410    0.25880    0.88330    1.000
    C43      C        0.15660    0.34550    0.86570    1.000
    C44      C        0.17010    0.41520    0.86200    1.000
    H30      H        0.11910    0.44390    0.85610    1.000
    C45      C        0.26070    0.43750    0.86760    1.000
    C46      C        0.34150    0.40040    0.88150    1.000
    H31      H        0.40200    0.41840    0.88670    1.000
    C47      C        0.02450    0.26830    0.88480    1.000
    H32      H        0.05300    0.24490    0.91440    1.000
    C48      C        0.93640    0.25810    0.86230    1.000
    H33      H        0.89310    0.22610    0.87440    1.000
    C49      C        0.00130    0.33820    0.81400    1.000
    H34      H        0.01240    0.37040    0.78650    1.000
    C50      C        0.22400    0.54520    0.82410    1.000
    H35      H        0.17220    0.53010    0.80290    1.000
    C51      C        0.33950    0.60470    0.86030    1.000
    H36      H        0.38110    0.63970    0.86670    1.000
    C52      C        0.34940    0.55000    0.88340    1.000
    H37      H        0.39500    0.53800    0.91050    1.000
    C53      C        0.66550    0.22200    0.78110    1.000
    C54      C        0.61370    0.15650    0.78050    1.000
    C55      C        0.66630    0.10090    0.79480    1.000
    H38      H        0.73020    0.10480    0.80550    1.000
    C56      C        0.62120    0.03730    0.79300    1.000
    H39      H        0.65630    0.99930    0.80050    1.000
    C57      C        0.52300    0.03300    0.77990    1.000
    C58      C        0.47510    0.09070    0.76330    1.000
    H40      H        0.41180    0.08740    0.75150    1.000
    C59      C        0.51770    0.15220    0.76370    1.000
    H41      H        0.48370    0.18970    0.75310    1.000
    H42      H        0.77710    0.40590    0.03250    1.000
    Zn4      Zn       0.17753    0.80485    0.24702    1.000
    Zn5      Zn       0.36696    0.77341    0.99610    1.000
    Zn6      Zn       0.20712    0.68505    0.77921    1.000
    N13      N        0.04970    0.79470    0.21150    1.000
    N14      N        0.90780    0.81800    0.17620    1.000
    N15      N        0.73410    0.02420    0.16260    1.000
    N16      N        0.76750    0.12220    0.19890    1.000
    N17      N        0.57820    0.81500    0.11450    1.000
    N18      N        0.45150    0.78380    0.06450    1.000
    N19      N        0.47210    0.75560    0.93780    1.000
    N20      N        0.60110    0.71260    0.89820    1.000
    N21      N        0.93640    0.67940    0.85470    1.000
    N22      N        0.07880    0.69690    0.81840    1.000
    N23      N        0.72260    0.48980    0.86010    1.000
    N24      N        0.73860    0.39070    0.82450    1.000
    O11      O        0.16740    0.66880    0.23120    1.000
    O12      O        0.28060    0.74160    0.24270    1.000
    O13      O        0.40410    0.90960    0.98700    1.000
    O14      O        0.28720    0.84340    0.96640    1.000
    O15      O        0.19490    0.15980    0.82410    1.000
    O16      O        0.06730    0.09340    0.80910    1.000
    O17      O        0.24600    0.72180    0.07670    1.000
    O18      O        0.29550    0.69460    0.99290    1.000
    O19      O        0.24740    0.77200    0.78970    1.000
    O20      O        0.38680    0.72850    0.77020    1.000
    H43      H        0.35300    0.69660    0.76280    1.000
    C60      C        0.25440    0.68610    0.23450    1.000
    C61      C        0.32550    0.63180    0.23130    1.000
    C62      C        0.42330    0.64330    0.23960    1.000
    H44      H        0.44420    0.68660    0.24400    1.000
    C63      C        0.48960    0.59330    0.24150    1.000
    H45      H        0.55210    0.60350    0.25180    1.000
    C64      C        0.46630    0.52560    0.22830    1.000
    C65      C        0.36670    0.51450    0.21670    1.000
    H46      H        0.34630    0.47220    0.20720    1.000
    C66      C        0.30020    0.56510    0.21920    1.000
    H47      H        0.23630    0.55510    0.21260    1.000
    C67      C        0.97410    0.83080    0.21470    1.000
    H48      H        0.96680    0.86350    0.24230    1.000
    C68      C        0.03420    0.75440    0.16640    1.000
    H49      H        0.07800    0.72420    0.15170    1.000
    C69      C        0.94400    0.76500    0.14550    1.000
    H50      H        0.91330    0.74150    0.11660    1.000
    C70      C        0.82130    0.84840    0.16480    1.000
    C71      C        0.81940    0.91890    0.16900    1.000
    H51      H        0.87360    0.94240    0.17990    1.000
    C72      C        0.73410    0.95120    0.15640    1.000
    C73      C        0.65370    0.92140    0.13830    1.000
    H52      H        0.59860    0.94480    0.12920    1.000
    C74      C        0.65930    0.84890    0.13400    1.000
    C75      C        0.74160    0.81470    0.14710    1.000
    H53      H        0.74310    0.76900    0.14400    1.000
    C76      C        0.78300    0.05620    0.20410    1.000
    H54      H        0.82110    0.03630    0.23170    1.000
    C77      C        0.70830    0.12680    0.15270    1.000
    H55      H        0.68670    0.16700    0.13850    1.000
    C78      C        0.68290    0.06670    0.12860    1.000
    H56      H        0.64260    0.05770    0.09800    1.000
    C79      C        0.54290    0.75670    0.13870    1.000
    H57      H        0.56920    0.73450    0.16980    1.000
    C80      C        0.46340    0.73780    0.10910    1.000
    H58      H        0.42460    0.70160    0.11690    1.000
    C81      C        0.52180    0.83080    0.07090    1.000
    H59      H        0.52880    0.86800    0.04810    1.000
    C82      C        0.32860    0.90340    0.96780    1.000
    C83      C        0.27210    0.95520    0.93780    1.000
    C84      C        0.31330    0.01960    0.93790    1.000
    H60      H        0.36840    0.02850    0.95880    1.000
    C85      C        0.26740    0.07010    0.90500    1.000
    H61      H        0.29490    0.11180    0.90330    1.000
    C86      C        0.18250    0.05820    0.87540    1.000
    C87      C        0.13880    0.99340    0.88000    1.000
    H62      H        0.08030    0.98460    0.86270    1.000
    C88      C        0.18590    0.94490    0.91080    1.000
    H63      H        0.15810    0.90330    0.91330    1.000
    C89      C        0.14390    0.10840    0.83470    1.000
    C90      C        0.24530    0.68440    0.03250    1.000
    C91      C        0.17350    0.62840    0.03170    1.000
    C92      C        0.13100    0.60710    0.08610    1.000
    H64      H        0.14630    0.62650    0.12100    1.000
    C93      C        0.06400    0.55420    0.08080    1.000
    H65      H        0.03600    0.53830    0.11420    1.000
    C94      C        0.03790    0.52510    0.03040    1.000
    C95      C        0.06630    0.55690    0.97820    1.000
    H66      H        0.03920    0.54460    0.94340    1.000
    C96      C        0.14070    0.61020    0.98070    1.000
    H67      H        0.16330    0.63010    0.94750    1.000
    C97      C        0.51080    0.80030    0.90090    1.000
    H68      H        0.48570    0.84200    0.89360    1.000
    C98      C        0.59220    0.77520    0.87580    1.000
    H69      H        0.63230    0.79600    0.84970    1.000
    C99      C        0.52820    0.70410    0.93620    1.000
    H70      H        0.51950    0.66640    0.95830    1.000
    C100     C        0.67940    0.66830    0.88690    1.000
    C101     C        0.76710    0.69590    0.87940    1.000
    H71      H        0.77590    0.74120    0.88330    1.000
    C102     C        0.84340    0.65450    0.86570    1.000
    C103     C        0.82990    0.58480    0.86200    1.000
    H72      H        0.88090    0.55610    0.85610    1.000
    C104     C        0.73930    0.56250    0.86760    1.000
    C105     C        0.65850    0.59960    0.88150    1.000
    H73      H        0.59800    0.58160    0.88670    1.000
    C106     C        0.97550    0.73170    0.88480    1.000
    H74      H        0.94700    0.75510    0.91440    1.000
    C107     C        0.06360    0.74190    0.86230    1.000
    H75      H        0.10690    0.77390    0.87440    1.000
    C108     C        0.99870    0.66180    0.81400    1.000
    H76      H        0.98760    0.62960    0.78650    1.000
    C109     C        0.77600    0.45480    0.82410    1.000
    H77      H        0.82780    0.46990    0.80290    1.000
    C110     C        0.66050    0.39530    0.86030    1.000
    H78      H        0.61890    0.36030    0.86670    1.000
    C111     C        0.65060    0.45000    0.88340    1.000
    H79      H        0.60500    0.46200    0.91050    1.000
    C112     C        0.33450    0.77800    0.78110    1.000
    C113     C        0.38630    0.84350    0.78050    1.000
    C114     C        0.33370    0.89910    0.79480    1.000
    H80      H        0.26980    0.89520    0.80550    1.000
    C115     C        0.37880    0.96270    0.79300    1.000
    H81      H        0.34370    0.00070    0.80050    1.000
    C116     C        0.47700    0.96700    0.77990    1.000
    C117     C        0.52490    0.90930    0.76330    1.000
    H82      H        0.58820    0.91260    0.75150    1.000
    C118     C        0.48230    0.84780    0.76370    1.000
    H83      H        0.51630    0.81030    0.75310    1.000
    H84      H        0.22290    0.59410    0.03250    1.000
    Zn7      Zn       0.82247    0.80485    0.74702    1.000
    Zn8      Zn       0.63304    0.77341    0.49610    1.000
    Zn9      Zn       0.79288    0.68505    0.27921    1.000
    N25      N        0.95030    0.79470    0.71150    1.000
    N26      N        0.09220    0.81800    0.67620    1.000
    N27      N        0.26590    0.02420    0.66260    1.000
    N28      N        0.23250    0.12220    0.69890    1.000
    N29      N        0.42180    0.81500    0.61450    1.000
    N30      N        0.54850    0.78380    0.56450    1.000
    N31      N        0.52790    0.75560    0.43780    1.000
    N32      N        0.39890    0.71260    0.39820    1.000
    N33      N        0.06360    0.67940    0.35470    1.000
    N34      N        0.92120    0.69690    0.31840    1.000
    N35      N        0.27740    0.48980    0.36010    1.000
    N36      N        0.26140    0.39070    0.32450    1.000
    O21      O        0.83260    0.66880    0.73120    1.000
    O22      O        0.71940    0.74160    0.74270    1.000
    O23      O        0.59590    0.90960    0.48700    1.000
    O24      O        0.71280    0.84340    0.46640    1.000
    O25      O        0.80510    0.15980    0.32410    1.000
    O26      O        0.93270    0.09340    0.30910    1.000
    O27      O        0.75400    0.72180    0.57670    1.000
    O28      O        0.70450    0.69460    0.49290    1.000
    O29      O        0.75260    0.77200    0.28970    1.000
    O30      O        0.61320    0.72850    0.27020    1.000
    H85      H        0.64700    0.69660    0.26280    1.000
    C119     C        0.74560    0.68610    0.73450    1.000
    C120     C        0.67450    0.63180    0.73130    1.000
    C121     C        0.57670    0.64330    0.73960    1.000
    H86      H        0.55580    0.68660    0.74400    1.000
    C122     C        0.51040    0.59330    0.74150    1.000
    H87      H        0.44790    0.60350    0.75180    1.000
    C123     C        0.53370    0.52560    0.72830    1.000
    C124     C        0.63330    0.51450    0.71670    1.000
    H88      H        0.65370    0.47220    0.70720    1.000
    C125     C        0.69980    0.56510    0.71920    1.000
    H89      H        0.76370    0.55510    0.71260    1.000
    C126     C        0.02590    0.83080    0.71470    1.000
    H90      H        0.03320    0.86350    0.74230    1.000
    C127     C        0.96580    0.75440    0.66640    1.000
    H91      H        0.92200    0.72420    0.65170    1.000
    C128     C        0.05600    0.76500    0.64550    1.000
    H92      H        0.08670    0.74150    0.61660    1.000
    C129     C        0.17870    0.84840    0.66480    1.000
    C130     C        0.18060    0.91890    0.66900    1.000
    H93      H        0.12640    0.94240    0.67990    1.000
    C131     C        0.26590    0.95120    0.65640    1.000
    C132     C        0.34630    0.92140    0.63830    1.000
    H94      H        0.40140    0.94480    0.62920    1.000
    C133     C        0.34070    0.84890    0.63400    1.000
    C134     C        0.25840    0.81470    0.64710    1.000
    H95      H        0.25690    0.76900    0.64400    1.000
    C135     C        0.21700    0.05620    0.70410    1.000
    H96      H        0.17890    0.03630    0.73170    1.000
    C136     C        0.29170    0.12680    0.65270    1.000
    H97      H        0.31330    0.16700    0.63850    1.000
    C137     C        0.31710    0.06670    0.62860    1.000
    H98      H        0.35740    0.05770    0.59800    1.000
    C138     C        0.45710    0.75670    0.63870    1.000
    H99      H        0.43080    0.73450    0.66980    1.000
    C139     C        0.53660    0.73780    0.60910    1.000
    H100     H        0.57540    0.70160    0.61690    1.000
    C140     C        0.47820    0.83080    0.57090    1.000
    H101     H        0.47120    0.86800    0.54810    1.000
    C141     C        0.67140    0.90340    0.46780    1.000
    C142     C        0.72790    0.95520    0.43780    1.000
    C143     C        0.68670    0.01960    0.43790    1.000
    H102     H        0.63160    0.02850    0.45880    1.000
    C144     C        0.73260    0.07010    0.40500    1.000
    H103     H        0.70510    0.11180    0.40330    1.000
    C145     C        0.81750    0.05820    0.37540    1.000
    C146     C        0.86120    0.99340    0.38000    1.000
    H104     H        0.91970    0.98460    0.36270    1.000
    C147     C        0.81410    0.94490    0.41080    1.000
    H105     H        0.84190    0.90330    0.41330    1.000
    C148     C        0.85610    0.10840    0.33470    1.000
    C149     C        0.75470    0.68440    0.53250    1.000
    C150     C        0.82650    0.62840    0.53170    1.000
    C151     C        0.86900    0.60710    0.58610    1.000
    H106     H        0.85370    0.62650    0.62100    1.000
    C152     C        0.93600    0.55420    0.58080    1.000
    H107     H        0.96400    0.53830    0.61420    1.000
    C153     C        0.96210    0.52510    0.53040    1.000
    C154     C        0.93370    0.55690    0.47820    1.000
    H108     H        0.96080    0.54460    0.44340    1.000
    C155     C        0.85930    0.61020    0.48070    1.000
    H109     H        0.83670    0.63010    0.44750    1.000
    C156     C        0.48920    0.80030    0.40090    1.000
    H110     H        0.51430    0.84200    0.39360    1.000
    C157     C        0.40780    0.77520    0.37580    1.000
    H111     H        0.36770    0.79600    0.34970    1.000
    C158     C        0.47180    0.70410    0.43620    1.000
    H112     H        0.48050    0.66640    0.45830    1.000
    C159     C        0.32060    0.66830    0.38690    1.000
    C160     C        0.23290    0.69590    0.37940    1.000
    H113     H        0.22410    0.74120    0.38330    1.000
    C161     C        0.15660    0.65450    0.36570    1.000
    C162     C        0.17010    0.58480    0.36200    1.000
    H114     H        0.11910    0.55610    0.35610    1.000
    C163     C        0.26070    0.56250    0.36760    1.000
    C164     C        0.34150    0.59960    0.38150    1.000
    H115     H        0.40200    0.58160    0.38670    1.000
    C165     C        0.02450    0.73170    0.38480    1.000
    H116     H        0.05300    0.75510    0.41440    1.000
    C166     C        0.93640    0.74190    0.36230    1.000
    H117     H        0.89310    0.77390    0.37440    1.000
    C167     C        0.00130    0.66180    0.31400    1.000
    H118     H        0.01240    0.62960    0.28650    1.000
    C168     C        0.22400    0.45480    0.32410    1.000
    H119     H        0.17220    0.46990    0.30290    1.000
    C169     C        0.33950    0.39530    0.36030    1.000
    H120     H        0.38110    0.36030    0.36670    1.000
    C170     C        0.34940    0.45000    0.38340    1.000
    H121     H        0.39500    0.46200    0.41050    1.000
    C171     C        0.66550    0.77800    0.28110    1.000
    C172     C        0.61370    0.84350    0.28050    1.000
    C173     C        0.66630    0.89910    0.29480    1.000
    H122     H        0.73020    0.89520    0.30550    1.000
    C174     C        0.62120    0.96270    0.29300    1.000
    H123     H        0.65630    0.00070    0.30050    1.000
    C175     C        0.52300    0.96700    0.27990    1.000
    C176     C        0.47510    0.90930    0.26330    1.000
    H124     H        0.41180    0.91260    0.25150    1.000
    C177     C        0.51770    0.84780    0.26370    1.000
    H125     H        0.48370    0.81030    0.25310    1.000
    H126     H        0.77710    0.59410    0.53250    1.000
    Zn10     Zn       0.17753    0.19515    0.74702    1.000
    Zn11     Zn       0.36696    0.22659    0.49610    1.000
    Zn12     Zn       0.20712    0.31495    0.27921    1.000
    N37      N        0.04970    0.20530    0.71150    1.000
    N38      N        0.90780    0.18200    0.67620    1.000
    N39      N        0.73410    0.97580    0.66260    1.000
    N40      N        0.76750    0.87780    0.69890    1.000
    N41      N        0.57820    0.18500    0.61450    1.000
    N42      N        0.45150    0.21620    0.56450    1.000
    N43      N        0.47210    0.24440    0.43780    1.000
    N44      N        0.60110    0.28740    0.39820    1.000
    N45      N        0.93640    0.32060    0.35470    1.000
    N46      N        0.07880    0.30310    0.31840    1.000
    N47      N        0.72260    0.51020    0.36010    1.000
    N48      N        0.73860    0.60930    0.32450    1.000
    O31      O        0.16740    0.33120    0.73120    1.000
    O32      O        0.28060    0.25840    0.74270    1.000
    O33      O        0.40410    0.09040    0.48700    1.000
    O34      O        0.28720    0.15660    0.46640    1.000
    O35      O        0.19490    0.84020    0.32410    1.000
    O36      O        0.06730    0.90660    0.30910    1.000
    O37      O        0.24600    0.27820    0.57670    1.000
    O38      O        0.29550    0.30540    0.49290    1.000
    O39      O        0.24740    0.22800    0.28970    1.000
    O40      O        0.38680    0.27150    0.27020    1.000
    H127     H        0.35300    0.30340    0.26280    1.000
    C178     C        0.25440    0.31390    0.73450    1.000
    C179     C        0.32550    0.36820    0.73130    1.000
    C180     C        0.42330    0.35670    0.73960    1.000
    H128     H        0.44420    0.31340    0.74400    1.000
    C181     C        0.48960    0.40670    0.74150    1.000
    H129     H        0.55210    0.39650    0.75180    1.000
    C182     C        0.46630    0.47440    0.72830    1.000
    C183     C        0.36670    0.48550    0.71670    1.000
    H130     H        0.34630    0.52780    0.70720    1.000
    C184     C        0.30020    0.43490    0.71920    1.000
    H131     H        0.23630    0.44490    0.71260    1.000
    C185     C        0.97410    0.16920    0.71470    1.000
    H132     H        0.96680    0.13650    0.74230    1.000
    C186     C        0.03420    0.24560    0.66640    1.000
    H133     H        0.07800    0.27580    0.65170    1.000
    C187     C        0.94400    0.23500    0.64550    1.000
    H134     H        0.91330    0.25850    0.61660    1.000
    C188     C        0.82130    0.15160    0.66480    1.000
    C189     C        0.81940    0.08110    0.66900    1.000
    H135     H        0.87360    0.05760    0.67990    1.000
    C190     C        0.73410    0.04880    0.65640    1.000
    C191     C        0.65370    0.07860    0.63830    1.000
    H136     H        0.59860    0.05520    0.62920    1.000
    C192     C        0.65930    0.15110    0.63400    1.000
    C193     C        0.74160    0.18530    0.64710    1.000
    H137     H        0.74310    0.23100    0.64400    1.000
    C194     C        0.78300    0.94380    0.70410    1.000
    H138     H        0.82110    0.96370    0.73170    1.000
    C195     C        0.70830    0.87320    0.65270    1.000
    H139     H        0.68670    0.83300    0.63850    1.000
    C196     C        0.68290    0.93330    0.62860    1.000
    H140     H        0.64260    0.94230    0.59800    1.000
    C197     C        0.54290    0.24330    0.63870    1.000
    H141     H        0.56920    0.26550    0.66980    1.000
    C198     C        0.46340    0.26220    0.60910    1.000
    H142     H        0.42460    0.29840    0.61690    1.000
    C199     C        0.52180    0.16920    0.57090    1.000
    H143     H        0.52880    0.13200    0.54810    1.000
    C200     C        0.32860    0.09660    0.46780    1.000
    C201     C        0.27210    0.04480    0.43780    1.000
    C202     C        0.31330    0.98040    0.43790    1.000
    H144     H        0.36840    0.97150    0.45880    1.000
    C203     C        0.26740    0.92990    0.40500    1.000
    H145     H        0.29490    0.88820    0.40330    1.000
    C204     C        0.18250    0.94180    0.37540    1.000
    C205     C        0.13880    0.00660    0.38000    1.000
    H146     H        0.08030    0.01540    0.36270    1.000
    C206     C        0.18590    0.05510    0.41080    1.000
    H147     H        0.15810    0.09670    0.41330    1.000
    C207     C        0.14390    0.89160    0.33470    1.000
    C208     C        0.24530    0.31560    0.53250    1.000
    C209     C        0.17350    0.37160    0.53170    1.000
    C210     C        0.13100    0.39290    0.58610    1.000
    H148     H        0.14630    0.37350    0.62100    1.000
    C211     C        0.06400    0.44580    0.58080    1.000
    H149     H        0.03600    0.46170    0.61420    1.000
    C212     C        0.03790    0.47490    0.53040    1.000
    C213     C        0.06630    0.44310    0.47820    1.000
    H150     H        0.03920    0.45540    0.44340    1.000
    C214     C        0.14070    0.38980    0.48070    1.000
    H151     H        0.16330    0.36990    0.44750    1.000
    C215     C        0.51080    0.19970    0.40090    1.000
    H152     H        0.48570    0.15800    0.39360    1.000
    C216     C        0.59220    0.22480    0.37580    1.000
    H153     H        0.63230    0.20400    0.34970    1.000
    C217     C        0.52820    0.29590    0.43620    1.000
    H154     H        0.51950    0.33360    0.45830    1.000
    C218     C        0.67940    0.33170    0.38690    1.000
    C219     C        0.76710    0.30410    0.37940    1.000
    H155     H        0.77590    0.25880    0.38330    1.000
    C220     C        0.84340    0.34550    0.36570    1.000
    C221     C        0.82990    0.41520    0.36200    1.000
    H156     H        0.88090    0.44390    0.35610    1.000
    C222     C        0.73930    0.43750    0.36760    1.000
    C223     C        0.65850    0.40040    0.38150    1.000
    H157     H        0.59800    0.41840    0.38670    1.000
    C224     C        0.97550    0.26830    0.38480    1.000
    H158     H        0.94700    0.24490    0.41440    1.000
    C225     C        0.06360    0.25810    0.36230    1.000
    H159     H        0.10690    0.22610    0.37440    1.000
    C226     C        0.99870    0.33820    0.31400    1.000
    H160     H        0.98760    0.37040    0.28650    1.000
    C227     C        0.77600    0.54520    0.32410    1.000
    H161     H        0.82780    0.53010    0.30290    1.000
    C228     C        0.66050    0.60470    0.36030    1.000
    H162     H        0.61890    0.63970    0.36670    1.000
    C229     C        0.65060    0.55000    0.38340    1.000
    H163     H        0.60500    0.53800    0.41050    1.000
    C230     C        0.33450    0.22200    0.28110    1.000
    C231     C        0.38630    0.15650    0.28050    1.000
    C232     C        0.33370    0.10090    0.29480    1.000
    H164     H        0.26980    0.10480    0.30550    1.000
    C233     C        0.37880    0.03730    0.29300    1.000
    H165     H        0.34370    0.99930    0.30050    1.000
    C234     C        0.47700    0.03300    0.27990    1.000
    C235     C        0.52490    0.09070    0.26330    1.000
    H166     H        0.58820    0.08740    0.25150    1.000
    C236     C        0.48230    0.15220    0.26370    1.000
    H167     H        0.51630    0.18970    0.25310    1.000
    H168     H        0.22290    0.40590    0.53250    1.000
