# CIF file generated by openbabel 3.1.0, see https://openbabel.org
data_I
_chemical_name_common 'ja0660047si20060818_060458_clean'
_cell_length_a 12.3841
_cell_length_b 12.3841
_cell_length_c 14.3613
_cell_angle_alpha 64.4582
_cell_angle_beta 64.4582
_cell_angle_gamma 89.9995
_space_group_name_H-M_alt 'P 1'
_space_group_name_Hall 'P 1'
loop_
    _symmetry_equiv_pos_as_xyz
    x,y,z
loop_
    _atom_site_label
    _atom_site_type_symbol
    _atom_site_fract_x
    _atom_site_fract_y
    _atom_site_fract_z
    _atom_site_occupancy
    Zn1      Zn       0.50000    0.50000    0.00000    1.000
    Zn2      Zn       0.00000    0.00000    0.00000    1.000
    H1       H        0.85620    0.74210    0.20960    1.000
    H2       H        0.83260    0.95450    0.40780    1.000
    H3       H        0.35620    0.54830    0.20960    1.000
    H4       H        0.25790    0.06580    0.79040    1.000
    H5       H        0.74040    0.54550    0.59220    1.000
    H6       H        0.93420    0.04830    0.20960    1.000
    H7       H        0.04860    0.31920    0.00000    1.000
    H8       H        0.86230    0.74040    0.59220    1.000
    H9       H        0.18080    0.45140    0.00000    1.000
    H10      H        0.54860    0.18080    0.00000    1.000
    H11      H        0.95140    0.68080    0.00000    1.000
    H12      H        0.13770    0.25960    0.40780    1.000
    H13      H        0.68080    0.04860    0.00000    1.000
    H14      H        0.81920    0.54860    0.00000    1.000
    H15      H        0.04550    0.24040    0.59220    1.000
    H16      H        0.16740    0.04550    0.59220    1.000
    H17      H        0.24040    0.36230    0.59220    1.000
    H18      H        0.95170    0.14380    0.79040    1.000
    H19      H        0.43420    0.24210    0.20960    1.000
    H20      H        0.75790    0.64380    0.79040    1.000
    H21      H        0.64380    0.45170    0.79040    1.000
    H22      H        0.33260    0.13770    0.40780    1.000
    H23      H        0.04830    0.85620    0.20960    1.000
    H24      H        0.74210    0.93420    0.20960    1.000
    H25      H        0.66740    0.86230    0.59220    1.000
    H26      H        0.45450    0.33260    0.40780    1.000
    H27      H        0.36230    0.16740    0.59220    1.000
    H28      H        0.45170    0.56580    0.79040    1.000
    H29      H        0.24210    0.35620    0.20960    1.000
    H30      H        0.54550    0.66740    0.59220    1.000
    H31      H        0.45140    0.81920    0.00000    1.000
    H32      H        0.31920    0.95140    0.00000    1.000
    H33      H        0.56580    0.75790    0.79040    1.000
    H34      H        0.75960    0.63770    0.40780    1.000
    H35      H        0.14380    0.25790    0.79040    1.000
    H36      H        0.63770    0.83260    0.40780    1.000
    H37      H        0.06580    0.95170    0.79040    1.000
    H38      H        0.54830    0.43420    0.20960    1.000
    H39      H        0.95450    0.75960    0.40780    1.000
    H40      H        0.25960    0.45450    0.40780    1.000
    C1       C        0.78570    0.89600    0.25100    1.000
    C2       C        0.39600    0.28570    0.25100    1.000
    C3       C        0.52780    0.10690    0.00000    1.000
    C4       C        0.09260    0.20660    0.63080    1.000
    C5       C        0.71430    0.64700    0.74900    1.000
    C6       C        0.97220    0.60690    0.00000    1.000
    C7       C        0.16260    0.09260    0.63080    1.000
    C8       C        0.08150    0.58150    0.00000    1.000
    C9       C        0.28570    0.35300    0.25100    1.000
    C10      C        0.28190    0.28190    0.43620    1.000
    C11      C        0.33740    0.22340    0.36920    1.000
    C12      C        0.83740    0.90740    0.36920    1.000
    C13      C        0.72730    0.36560    0.00000    1.000
    C14      C        0.21430    0.10400    0.74900    1.000
    C15      C        0.90740    0.79340    0.36920    1.000
    C16      C        0.22730    0.13440    0.00000    1.000
    C17      C        0.35300    0.46330    0.25100    1.000
    C18      C        0.60690    0.02780    0.00000    1.000
    C19      C        0.71810    0.71810    0.56380    1.000
    C20      C        0.79340    0.72340    0.36920    1.000
    C21      C        0.53670    0.60400    0.74900    1.000
    C22      C        0.46330    0.39600    0.25100    1.000
    C23      C        0.20660    0.27660    0.63080    1.000
    C24      C        0.59260    0.66260    0.63080    1.000
    C25      C        0.66260    0.77660    0.63080    1.000
    C26      C        0.91850    0.41850    0.00000    1.000
    C27      C        0.60400    0.71430    0.74900    1.000
    C28      C        0.89600    0.96330    0.25100    1.000
    C29      C        0.39310    0.97220    0.00000    1.000
    C30      C        0.96330    0.85300    0.25100    1.000
    C31      C        0.27270    0.63440    0.00000    1.000
    C32      C        0.63440    0.72730    0.00000    1.000
    C33      C        0.10400    0.03670    0.74900    1.000
    C34      C        0.77270    0.86560    0.00000    1.000
    C35      C        0.22340    0.29340    0.36920    1.000
    C36      C        0.66460    0.83540    0.00000    1.000
    C37      C        0.10690    0.47220    0.00000    1.000
    C38      C        0.41850    0.08150    0.00000    1.000
    C39      C        0.64700    0.53670    0.74900    1.000
    C40      C        0.70660    0.59260    0.63080    1.000
    C41      C        0.83540    0.33540    0.00000    1.000
    C42      C        0.21810    0.21810    0.56380    1.000
    C43      C        0.13440    0.77270    0.00000    1.000
    C44      C        0.33540    0.16460    0.00000    1.000
    C45      C        0.16460    0.66460    0.00000    1.000
    C46      C        0.29340    0.40740    0.36920    1.000
    C47      C        0.47220    0.89310    0.00000    1.000
    C48      C        0.72340    0.83740    0.36920    1.000
    C49      C        0.03670    0.14700    0.74900    1.000
    C50      C        0.89310    0.52780    0.00000    1.000
    C51      C        0.78190    0.78190    0.43620    1.000
    C52      C        0.58150    0.91850    0.00000    1.000
    C53      C        0.40740    0.33740    0.36920    1.000
    C54      C        0.77660    0.70660    0.63080    1.000
    C55      C        0.14700    0.21430    0.74900    1.000
    C56      C        0.86560    0.22730    0.00000    1.000
    C57      C        0.27660    0.16260    0.63080    1.000
    C58      C        0.85300    0.78570    0.25100    1.000
    C59      C        0.02780    0.39310    0.00000    1.000
    C60      C        0.36560    0.27270    0.00000    1.000
    N1       N        0.85910    0.89710    0.00000    1.000
    N2       N        0.40560    0.40560    0.18880    1.000
    N3       N        0.39710    0.35910    0.00000    1.000
    N4       N        0.14090    0.10290    0.00000    1.000
    N5       N        0.64090    0.39710    0.00000    1.000
    N6       N        0.59440    0.59440    0.81120    1.000
    N7       N        0.10290    0.85910    0.00000    1.000
    N8       N        0.60290    0.64090    0.00000    1.000
    N9       N        0.09440    0.09440    0.81120    1.000
    N10      N        0.90560    0.90560    0.18880    1.000
    N11      N        0.35910    0.60290    0.00000    1.000
    N12      N        0.89710    0.14090    0.00000    1.000
