data_functionalizedCrystal
_audit_creation_method	'EQeq! by Chris Wilmer'
_symmetry_space_group_name_H-M	'P1'
_symmetry_Int_Tables_number	1
_symmetry_cell_setting	triclinic
loop_
_symmetry_equiv_pos_as_xyz
  x,y,z
_cell_length_a	10.6201
_cell_length_b	11.402
_cell_length_c	11.713
_cell_angle_alpha	104.804
_cell_angle_beta	106.883
_cell_angle_gamma	95.881
loop_
_atom_site_label
_atom_site_type_symbol
_atom_site_fract_x
_atom_site_fract_y
_atom_site_fract_z
_atom_site_charge
Mof_Tb	Tb	0.39941	0.43949	0.62077	2.143
Mof_O 	O 	0.24391	0.48332	0.72066	-0.529
Mof_O 	O 	0.30382	0.51623	0.92639	-0.311
Mof_O 	O 	0.55259	0.74292	0.30778	-0.51
Mof_O 	O 	0.6775	0.91558	0.45365	-0.43
Mof_H 	H 	0.7258	0.861	0.4796	0.187
Mof_O 	O 	0.53866	0.34828	0.34033	-0.558
Mof_O 	O 	0.40719	0.28982	0.44267	-0.553
Mof_O 	O 	0.6188	0.45873	0.62988	-0.596
Mof_O 	O 	0.76257	0.51237	0.53918	-0.528
Mof_C 	C 	0.21998	0.4789	0.81974	0.417
Mof_C 	C 	0.07619	0.4283	0.80281	-0.186
Mof_C 	C 	0.04159	0.35194	0.87045	0.114
Mof_C 	C 	0.90607	0.319	0.8564	-0.184
Mof_H 	H 	0.8824	0.2698	0.902	0.101
Mof_C 	C 	0.80653	0.35743	0.77692	0.137
Mof_H 	H 	0.7174	0.3359	0.7708	-0.01
Mof_C 	C 	0.84039	0.42851	0.70612	-0.229
Mof_C 	C 	0.9748	0.46237	0.71918	0.132
Mof_H 	H 	0.9973	0.5089	0.6709	0.004
Mof_C 	C 	0.73283	0.46927	0.61897	0.531
Mof_C 	C 	0.13962	0.29732	0.95038	-0.012
Mof_C 	C 	0.2282	0.23216	0.90584	-0.036
Mof_H 	H 	0.2361	0.2324	0.8289	0.038
Mof_C 	C 	0.3045	0.16702	0.97521	-0.045
Mof_H 	H 	0.3609	0.1216	0.943	0.049
Mof_C 	C 	0.29784	0.16854	0.09292	-0.03
Mof_C 	C 	0.2149	0.23881	0.13982	-0.031
Mof_H 	H 	0.2129	0.2447	0.2199	0.039
Mof_C 	C 	0.13474	0.30051	0.06874	-0.057
Mof_H 	H 	0.0771	0.3445	0.1004	0.054
Mof_C 	C 	0.37234	0.09065	0.16264	0.13
Mof_C 	C 	0.3616	0.9656	0.10137	-0.186
Mof_H 	H 	0.3096	0.9335	0.0174	0.098
Mof_C 	C 	0.4259	0.88872	0.16197	0.116
Mof_H 	H 	0.4163	0.8056	0.1196	0.002
Mof_C 	C 	0.50523	0.93657	0.28713	-0.203
Mof_C 	C 	0.51475	0.06001	0.35056	0.151
Mof_H 	H 	0.5657	0.0913	0.4348	0.001
Mof_C 	C 	0.4489	0.13698	0.2893	-0.22
Mof_C 	C 	0.46636	0.27029	0.3634	0.541
Mof_C 	C 	0.5792	0.85551	0.35025	0.456
Mof_Tb	Tb	0.60059	0.56051	0.37923	2.144
Mof_O 	O 	0.75609	0.51668	0.27934	-0.528
Mof_O 	O 	0.69618	0.48377	0.07361	-0.31
Mof_O 	O 	0.44741	0.25708	0.69222	-0.509
Mof_O 	O 	0.3225	0.08442	0.54635	-0.429
Mof_H 	H 	0.2742	0.139	0.5204	0.188
Mof_O 	O 	0.46134	0.65172	0.65967	-0.558
Mof_O 	O 	0.59281	0.71018	0.55733	-0.553
Mof_O 	O 	0.3812	0.54127	0.37012	-0.596
Mof_O 	O 	0.23743	0.48763	0.46082	-0.528
Mof_C 	C 	0.78002	0.5211	0.18026	0.417
Mof_C 	C 	0.92381	0.5717	0.19719	-0.186
Mof_C 	C 	0.95841	0.64806	0.12955	0.114
Mof_C 	C 	0.09393	0.681	0.1436	-0.184
Mof_H 	H 	0.1176	0.7302	0.098	0.101
Mof_C 	C 	0.19347	0.64257	0.22308	0.137
Mof_H 	H 	0.2826	0.6641	0.2292	-0.01
Mof_C 	C 	0.15961	0.57149	0.29388	-0.229
Mof_C 	C 	0.0252	0.53763	0.28082	0.132
Mof_H 	H 	0.0027	0.4911	0.3291	0.004
Mof_C 	C 	0.26717	0.53073	0.38103	0.531
Mof_C 	C 	0.86038	0.70268	0.04962	-0.012
Mof_C 	C 	0.7718	0.76784	0.09416	-0.036
Mof_H 	H 	0.7639	0.7676	0.1711	0.038
Mof_C 	C 	0.6955	0.83298	0.02479	-0.045
Mof_H 	H 	0.6391	0.8784	0.057	0.049
Mof_C 	C 	0.70216	0.83146	0.90708	-0.03
Mof_C 	C 	0.7851	0.76119	0.86018	-0.031
Mof_H 	H 	0.7871	0.7553	0.7801	0.039
Mof_C 	C 	0.86526	0.69949	0.93126	-0.057
Mof_H 	H 	0.9229	0.6555	0.8996	0.054
Mof_C 	C 	0.62766	0.90935	0.83736	0.13
Mof_C 	C 	0.6384	0.0344	0.89863	-0.186
Mof_H 	H 	0.6904	0.0665	0.9826	0.098
Mof_C 	C 	0.5741	0.11128	0.83803	0.116
Mof_H 	H 	0.5837	0.1944	0.8804	0.002
Mof_C 	C 	0.49477	0.06343	0.71287	-0.203
Mof_C 	C 	0.48525	0.93999	0.64944	0.151
Mof_H 	H 	0.4343	0.9087	0.5652	0.001
Mof_C 	C 	0.5511	0.86302	0.7107	-0.22
Mof_C 	C 	0.53364	0.72971	0.6366	0.541
Mof_C 	C 	0.4208	0.14449	0.64975	0.456
_end
