# CIF file generated by openbabel 3.1.0, see https://openbabel.org
data_I
_chemical_name_common 'image0'
_cell_length_a 22.0935
_cell_length_b 16.2897
_cell_length_c 25.6306
_cell_angle_alpha 90
_cell_angle_beta 115.277
_cell_angle_gamma 90
_space_group_name_H-M_alt 'P 1'
_space_group_name_Hall 'P 1'
loop_
    _symmetry_equiv_pos_as_xyz
    x,y,z
loop_
    _atom_site_label
    _atom_site_type_symbol
    _atom_site_fract_x
    _atom_site_fract_y
    _atom_site_fract_z
    _atom_site_occupancy
    Ag1      Ag       0.34389    0.54296    0.36775    1.000
    Ag2      Ag       0.82289    0.74813    0.86721    1.000
    N1       N        0.73840    0.82240    0.56321    1.000
    N2       N        0.27990    0.31310    0.92128    1.000
    N3       N        0.12260    0.53710    0.05882    1.000
    N4       N        0.43920    0.61580    0.41221    1.000
    N5       N        0.91320    0.65780    0.90741    1.000
    C1       C        0.62370    0.74280    0.50240    1.000
    N6       N        0.12630    0.48890    0.97322    1.000
    N7       N        0.64810    0.78980    0.47281    1.000
    C2       C        0.73510    0.93510    0.38810    1.000
    H1       H        0.71310    0.94220    0.34840    1.000
    N8       N        0.79580    0.96960    0.41668    1.000
    N9       N        0.21150    0.45010    0.06477    1.000
    N10      N        0.80040    0.74670    0.77130    1.000
    C3       C        0.27800    0.36230    0.00920    1.000
    H2       H        0.29890    0.36600    0.04920    1.000
    C4       C        0.79840    0.91580    0.50500    1.000
    H3       H        0.82080    0.91130    0.54490    1.000
    C5       C        0.21950    0.34830    0.89190    1.000
    H4       H        0.19950    0.34410    0.85190    1.000
    C6       C        0.55980    0.69780    0.47020    1.000
    N11      N        0.27580    0.52920    0.27180    1.000
    C7       C        0.09760    0.53040    0.00110    1.000
    N12      N        0.65300    0.73200    0.55932    1.000
    C8       C        0.94360    0.65700    0.96510    1.000
    H5       H        0.92360    0.68530    0.98520    1.000
    C9       C        0.53290    0.68800    0.41100    1.000
    H6       H        0.55450    0.70950    0.38980    1.000
    C10      C        0.00310    0.61620    0.99640    1.000
    H7       H        0.02250    0.61710    0.03650    1.000
    C11      C        0.74340    0.76280    0.65170    1.000
    C12      C        0.18040    0.49780    0.08830    1.000
    C13      C        0.17890    0.54380    0.18160    1.000
    H8       H        0.13480    0.56120    0.16180    1.000
    C14      C        0.52600    0.66490    0.50020    1.000
    H9       H        0.54330    0.66970    0.54010    1.000
    C15      C        0.21550    0.39870    0.97770    1.000
    C16      C        0.82620    0.95910    0.47410    1.000
    H10      H        0.86830    0.98220    0.49430    1.000
    C17      C        0.70950    0.77330    0.58760    1.000
    C18      C        0.03310    0.57390    0.96700    1.000
    C19      C        0.30780    0.32040    0.97920    1.000
    H11      H        0.34930    0.29600    0.00020    1.000
    C20      C        0.73620    0.87910    0.47490    1.000
    C21      C        0.94330    0.61660    0.87940    1.000
    H12      H        0.92350    0.61760    0.83930    1.000
    C22      C        0.70560    0.82780    0.50520    1.000
    C23      C        0.30780    0.49510    0.24290    1.000
    H13      H        0.35200    0.47860    0.26370    1.000
    C24      C        0.18280    0.44850    0.00690    1.000
    C25      C        0.18560    0.39050    0.91840    1.000
    H14      H        0.14360    0.41290    0.89660    1.000
    C26      C        0.70390    0.88960    0.41520    1.000
    H15      H        0.66210    0.86620    0.39390    1.000
    C27      C        0.47310    0.64560    0.38400    1.000
    H16      H        0.45580    0.63750    0.34430    1.000
    C28      C        0.46650    0.62500    0.46970    1.000
    H17      H        0.44390    0.60320    0.48990    1.000
    C29      C        0.82850    0.79330    0.74480    1.000
    H18      H        0.86780    0.82100    0.76750    1.000
    C30      C        0.21220    0.50790    0.15200    1.000
    C31      C        0.00230    0.57290    0.90730    1.000
    H19      H        0.02060    0.54360    0.88640    1.000
    C32      C        0.80220    0.80280    0.68520    1.000
    H20      H        0.82380    0.83520    0.66850    1.000
    C33      C        0.21220    0.55320    0.24060    1.000
    H21      H        0.18940    0.57750    0.25990    1.000
    C34      C        0.71520    0.71060    0.67820    1.000
    H22      H        0.67710    0.68020    0.65640    1.000
    C35      C        0.27830    0.48330    0.18340    1.000
    H23      H        0.30220    0.45950    0.16500    1.000
    C36      C        0.74490    0.70500    0.73740    1.000
    H24      H        0.72560    0.67050    0.75500    1.000
    Ag3      Ag       0.84389    0.04296    0.36775    1.000
    Ag4      Ag       0.32289    0.24813    0.86722    1.000
    N13      N        0.23840    0.32240    0.56321    1.000
    N14      N        0.77990    0.81310    0.92128    1.000
    N15      N        0.62260    0.03710    0.05882    1.000
    N16      N        0.93920    0.11580    0.41221    1.000
    N17      N        0.41320    0.15780    0.90741    1.000
    C37      C        0.12370    0.24280    0.50240    1.000
    N18      N        0.62630    0.98890    0.97322    1.000
    N19      N        0.14810    0.28980    0.47281    1.000
    C38      C        0.23510    0.43510    0.38810    1.000
    H25      H        0.21310    0.44220    0.34840    1.000
    N20      N        0.29580    0.46960    0.41668    1.000
    N21      N        0.71150    0.95010    0.06477    1.000
    N22      N        0.30040    0.24670    0.77130    1.000
    C39      C        0.77800    0.86230    0.00920    1.000
    H26      H        0.79890    0.86600    0.04920    1.000
    C40      C        0.29840    0.41580    0.50500    1.000
    H27      H        0.32080    0.41130    0.54490    1.000
    C41      C        0.71950    0.84830    0.89190    1.000
    H28      H        0.69950    0.84410    0.85190    1.000
    C42      C        0.05980    0.19780    0.47020    1.000
    N23      N        0.77580    0.02920    0.27180    1.000
    C43      C        0.59760    0.03040    0.00110    1.000
    N24      N        0.15300    0.23200    0.55932    1.000
    C44      C        0.44360    0.15700    0.96510    1.000
    H29      H        0.42360    0.18530    0.98520    1.000
    C45      C        0.03290    0.18800    0.41100    1.000
    H30      H        0.05450    0.20950    0.38980    1.000
    C46      C        0.50310    0.11620    0.99640    1.000
    H31      H        0.52250    0.11710    0.03650    1.000
    C47      C        0.24340    0.26280    0.65170    1.000
    C48      C        0.68040    0.99780    0.08830    1.000
    C49      C        0.67890    0.04380    0.18160    1.000
    H32      H        0.63480    0.06120    0.16180    1.000
    C50      C        0.02600    0.16490    0.50020    1.000
    H33      H        0.04330    0.16970    0.54010    1.000
    C51      C        0.71550    0.89870    0.97770    1.000
    C52      C        0.32620    0.45910    0.47410    1.000
    H34      H        0.36830    0.48220    0.49430    1.000
    C53      C        0.20950    0.27330    0.58760    1.000
    C54      C        0.53310    0.07390    0.96700    1.000
    C55      C        0.80780    0.82040    0.97920    1.000
    H35      H        0.84930    0.79600    0.00020    1.000
    C56      C        0.23620    0.37910    0.47490    1.000
    C57      C        0.44330    0.11660    0.87940    1.000
    H36      H        0.42350    0.11760    0.83930    1.000
    C58      C        0.20560    0.32780    0.50520    1.000
    C59      C        0.80780    0.99510    0.24290    1.000
    H37      H        0.85200    0.97860    0.26370    1.000
    C60      C        0.68280    0.94850    0.00690    1.000
    C61      C        0.68560    0.89050    0.91840    1.000
    H38      H        0.64360    0.91290    0.89660    1.000
    C62      C        0.20390    0.38960    0.41520    1.000
    H39      H        0.16210    0.36620    0.39390    1.000
    C63      C        0.97310    0.14560    0.38400    1.000
    H40      H        0.95580    0.13750    0.34430    1.000
    C64      C        0.96650    0.12500    0.46970    1.000
    H41      H        0.94390    0.10320    0.48990    1.000
    C65      C        0.32850    0.29330    0.74480    1.000
    H42      H        0.36780    0.32100    0.76750    1.000
    C66      C        0.71220    0.00790    0.15200    1.000
    C67      C        0.50230    0.07290    0.90730    1.000
    H43      H        0.52060    0.04360    0.88640    1.000
    C68      C        0.30220    0.30280    0.68520    1.000
    H44      H        0.32380    0.33520    0.66850    1.000
    C69      C        0.71220    0.05320    0.24060    1.000
    H45      H        0.68940    0.07750    0.25990    1.000
    C70      C        0.21520    0.21060    0.67820    1.000
    H46      H        0.17710    0.18020    0.65640    1.000
    C71      C        0.77830    0.98330    0.18340    1.000
    H47      H        0.80220    0.95950    0.16500    1.000
    C72      C        0.24490    0.20500    0.73740    1.000
    H48      H        0.22560    0.17050    0.75500    1.000
    Ag5      Ag       0.65611    0.54296    0.13225    1.000
    Ag6      Ag       0.17711    0.74813    0.63278    1.000
    N25      N        0.26160    0.82240    0.93679    1.000
    N26      N        0.72010    0.31310    0.57872    1.000
    N27      N        0.87740    0.53710    0.44118    1.000
    N28      N        0.56080    0.61580    0.08779    1.000
    N29      N        0.08680    0.65780    0.59259    1.000
    C73      C        0.37630    0.74280    0.99760    1.000
    N30      N        0.87370    0.48890    0.52678    1.000
    N31      N        0.35190    0.78980    0.02719    1.000
    C74      C        0.26490    0.93510    0.11190    1.000
    H49      H        0.28690    0.94220    0.15160    1.000
    N32      N        0.20420    0.96960    0.08332    1.000
    N33      N        0.78850    0.45010    0.43523    1.000
    N34      N        0.19960    0.74670    0.72870    1.000
    C75      C        0.72200    0.36230    0.49080    1.000
    H50      H        0.70110    0.36600    0.45080    1.000
    C76      C        0.20160    0.91580    0.99500    1.000
    H51      H        0.17920    0.91130    0.95510    1.000
    C77      C        0.78050    0.34830    0.60810    1.000
    H52      H        0.80050    0.34410    0.64810    1.000
    C78      C        0.44020    0.69780    0.02980    1.000
    N35      N        0.72420    0.52920    0.22820    1.000
    C79      C        0.90240    0.53040    0.49890    1.000
    N36      N        0.34700    0.73200    0.94068    1.000
    C80      C        0.05640    0.65700    0.53490    1.000
    H53      H        0.07640    0.68530    0.51480    1.000
    C81      C        0.46710    0.68800    0.08900    1.000
    H54      H        0.44550    0.70950    0.11020    1.000
    C82      C        0.99690    0.61620    0.50360    1.000
    H55      H        0.97750    0.61710    0.46350    1.000
    C83      C        0.25660    0.76280    0.84830    1.000
    C84      C        0.81960    0.49780    0.41170    1.000
    C85      C        0.82110    0.54380    0.31840    1.000
    H56      H        0.86520    0.56120    0.33820    1.000
    C86      C        0.47400    0.66490    0.99980    1.000
    H57      H        0.45670    0.66970    0.95990    1.000
    C87      C        0.78450    0.39870    0.52230    1.000
    C88      C        0.17380    0.95910    0.02590    1.000
    H58      H        0.13170    0.98220    0.00570    1.000
    C89      C        0.29050    0.77330    0.91240    1.000
    C90      C        0.96690    0.57390    0.53300    1.000
    C91      C        0.69220    0.32040    0.52080    1.000
    H59      H        0.65070    0.29600    0.49980    1.000
    C92      C        0.26380    0.87910    0.02510    1.000
    C93      C        0.05670    0.61660    0.62060    1.000
    H60      H        0.07650    0.61760    0.66070    1.000
    C94      C        0.29440    0.82780    0.99480    1.000
    C95      C        0.69220    0.49510    0.25710    1.000
    H61      H        0.64800    0.47860    0.23630    1.000
    C96      C        0.81720    0.44850    0.49310    1.000
    C97      C        0.81440    0.39050    0.58160    1.000
    H62      H        0.85640    0.41290    0.60340    1.000
    C98      C        0.29610    0.88960    0.08480    1.000
    H63      H        0.33790    0.86620    0.10610    1.000
    C99      C        0.52690    0.64560    0.11600    1.000
    H64      H        0.54420    0.63750    0.15570    1.000
    C100     C        0.53350    0.62500    0.03030    1.000
    H65      H        0.55610    0.60320    0.01010    1.000
    C101     C        0.17150    0.79330    0.75520    1.000
    H66      H        0.13220    0.82100    0.73250    1.000
    C102     C        0.78780    0.50790    0.34800    1.000
    C103     C        0.99770    0.57290    0.59270    1.000
    H67      H        0.97940    0.54360    0.61360    1.000
    C104     C        0.19780    0.80280    0.81480    1.000
    H68      H        0.17620    0.83520    0.83150    1.000
    C105     C        0.78780    0.55320    0.25940    1.000
    H69      H        0.81060    0.57750    0.24010    1.000
    C106     C        0.28480    0.71060    0.82180    1.000
    H70      H        0.32290    0.68020    0.84360    1.000
    C107     C        0.72170    0.48330    0.31660    1.000
    H71      H        0.69780    0.45950    0.33500    1.000
    C108     C        0.25510    0.70500    0.76260    1.000
    H72      H        0.27440    0.67050    0.74500    1.000
    Ag7      Ag       0.15611    0.04296    0.13225    1.000
    Ag8      Ag       0.67711    0.24813    0.63278    1.000
    N37      N        0.76160    0.32240    0.93679    1.000
    N38      N        0.22010    0.81310    0.57872    1.000
    N39      N        0.37740    0.03710    0.44118    1.000
    N40      N        0.06080    0.11580    0.08779    1.000
    N41      N        0.58680    0.15780    0.59259    1.000
    C109     C        0.87630    0.24280    0.99760    1.000
    N42      N        0.37370    0.98890    0.52678    1.000
    N43      N        0.85190    0.28980    0.02719    1.000
    C110     C        0.76490    0.43510    0.11190    1.000
    H73      H        0.78690    0.44220    0.15160    1.000
    N44      N        0.70420    0.46960    0.08332    1.000
    N45      N        0.28850    0.95010    0.43523    1.000
    N46      N        0.69960    0.24670    0.72870    1.000
    C111     C        0.22200    0.86230    0.49080    1.000
    H74      H        0.20110    0.86600    0.45080    1.000
    C112     C        0.70160    0.41580    0.99500    1.000
    H75      H        0.67920    0.41130    0.95510    1.000
    C113     C        0.28050    0.84830    0.60810    1.000
    H76      H        0.30050    0.84410    0.64810    1.000
    C114     C        0.94020    0.19780    0.02980    1.000
    N47      N        0.22420    0.02920    0.22820    1.000
    C115     C        0.40240    0.03040    0.49890    1.000
    N48      N        0.84700    0.23200    0.94068    1.000
    C116     C        0.55640    0.15700    0.53490    1.000
    H77      H        0.57640    0.18530    0.51480    1.000
    C117     C        0.96710    0.18800    0.08900    1.000
    H78      H        0.94550    0.20950    0.11020    1.000
    C118     C        0.49690    0.11620    0.50360    1.000
    H79      H        0.47750    0.11710    0.46350    1.000
    C119     C        0.75660    0.26280    0.84830    1.000
    C120     C        0.31960    0.99780    0.41170    1.000
    C121     C        0.32110    0.04380    0.31840    1.000
    H80      H        0.36520    0.06120    0.33820    1.000
    C122     C        0.97400    0.16490    0.99980    1.000
    H81      H        0.95670    0.16970    0.95990    1.000
    C123     C        0.28450    0.89870    0.52230    1.000
    C124     C        0.67380    0.45910    0.02590    1.000
    H82      H        0.63170    0.48220    0.00570    1.000
    C125     C        0.79050    0.27330    0.91240    1.000
    C126     C        0.46690    0.07390    0.53300    1.000
    C127     C        0.19220    0.82040    0.52080    1.000
    H83      H        0.15070    0.79600    0.49980    1.000
    C128     C        0.76380    0.37910    0.02510    1.000
    C129     C        0.55670    0.11660    0.62060    1.000
    H84      H        0.57650    0.11760    0.66070    1.000
    C130     C        0.79440    0.32780    0.99480    1.000
    C131     C        0.19220    0.99510    0.25710    1.000
    H85      H        0.14800    0.97860    0.23630    1.000
    C132     C        0.31720    0.94850    0.49310    1.000
    C133     C        0.31440    0.89050    0.58160    1.000
    H86      H        0.35640    0.91290    0.60340    1.000
    C134     C        0.79610    0.38960    0.08480    1.000
    H87      H        0.83790    0.36620    0.10610    1.000
    C135     C        0.02690    0.14560    0.11600    1.000
    H88      H        0.04420    0.13750    0.15570    1.000
    C136     C        0.03350    0.12500    0.03030    1.000
    H89      H        0.05610    0.10320    0.01010    1.000
    C137     C        0.67150    0.29330    0.75520    1.000
    H90      H        0.63220    0.32100    0.73250    1.000
    C138     C        0.28780    0.00790    0.34800    1.000
    C139     C        0.49770    0.07290    0.59270    1.000
    H91      H        0.47940    0.04360    0.61360    1.000
    C140     C        0.69780    0.30280    0.81480    1.000
    H92      H        0.67620    0.33520    0.83150    1.000
    C141     C        0.28780    0.05320    0.25940    1.000
    H93      H        0.31060    0.07750    0.24010    1.000
    C142     C        0.78480    0.21060    0.82180    1.000
    H94      H        0.82290    0.18020    0.84360    1.000
    C143     C        0.22170    0.98330    0.31660    1.000
    H95      H        0.19780    0.95950    0.33500    1.000
    C144     C        0.75510    0.20500    0.76260    1.000
    H96      H        0.77440    0.17050    0.74500    1.000
    Ag9      Ag       0.65611    0.45704    0.63225    1.000
    Ag10     Ag       0.17711    0.25187    0.13278    1.000
    N49      N        0.26160    0.17760    0.43679    1.000
    N50      N        0.72010    0.68690    0.07872    1.000
    N51      N        0.87740    0.46290    0.94118    1.000
    N52      N        0.56080    0.38420    0.58779    1.000
    N53      N        0.08680    0.34220    0.09259    1.000
    C145     C        0.37630    0.25720    0.49760    1.000
    N54      N        0.87370    0.51110    0.02678    1.000
    N55      N        0.35190    0.21020    0.52719    1.000
    C146     C        0.26490    0.06490    0.61190    1.000
    H97      H        0.28690    0.05780    0.65160    1.000
    N56      N        0.20420    0.03040    0.58332    1.000
    N57      N        0.78850    0.54990    0.93523    1.000
    N58      N        0.19960    0.25330    0.22870    1.000
    C147     C        0.72200    0.63770    0.99080    1.000
    H98      H        0.70110    0.63400    0.95080    1.000
    C148     C        0.20160    0.08420    0.49500    1.000
    H99      H        0.17920    0.08870    0.45510    1.000
    C149     C        0.78050    0.65170    0.10810    1.000
    H100     H        0.80050    0.65590    0.14810    1.000
    C150     C        0.44020    0.30220    0.52980    1.000
    N59      N        0.72420    0.47080    0.72820    1.000
    C151     C        0.90240    0.46960    0.99890    1.000
    N60      N        0.34700    0.26800    0.44068    1.000
    C152     C        0.05640    0.34300    0.03490    1.000
    H101     H        0.07640    0.31470    0.01480    1.000
    C153     C        0.46710    0.31200    0.58900    1.000
    H102     H        0.44550    0.29050    0.61020    1.000
    C154     C        0.99690    0.38380    0.00360    1.000
    H103     H        0.97750    0.38290    0.96350    1.000
    C155     C        0.25660    0.23720    0.34830    1.000
    C156     C        0.81960    0.50220    0.91170    1.000
    C157     C        0.82110    0.45620    0.81840    1.000
    H104     H        0.86520    0.43880    0.83820    1.000
    C158     C        0.47400    0.33510    0.49980    1.000
    H105     H        0.45670    0.33030    0.45990    1.000
    C159     C        0.78450    0.60130    0.02230    1.000
    C160     C        0.17380    0.04090    0.52590    1.000
    H106     H        0.13170    0.01780    0.50570    1.000
    C161     C        0.29050    0.22670    0.41240    1.000
    C162     C        0.96690    0.42610    0.03300    1.000
    C163     C        0.69220    0.67960    0.02080    1.000
    H107     H        0.65070    0.70400    0.99980    1.000
    C164     C        0.26380    0.12090    0.52510    1.000
    C165     C        0.05670    0.38340    0.12060    1.000
    H108     H        0.07650    0.38240    0.16070    1.000
    C166     C        0.29440    0.17220    0.49480    1.000
    C167     C        0.69220    0.50490    0.75710    1.000
    H109     H        0.64800    0.52140    0.73630    1.000
    C168     C        0.81720    0.55150    0.99310    1.000
    C169     C        0.81440    0.60950    0.08160    1.000
    H110     H        0.85640    0.58710    0.10340    1.000
    C170     C        0.29610    0.11040    0.58480    1.000
    H111     H        0.33790    0.13380    0.60610    1.000
    C171     C        0.52690    0.35440    0.61600    1.000
    H112     H        0.54420    0.36250    0.65570    1.000
    C172     C        0.53350    0.37500    0.53030    1.000
    H113     H        0.55610    0.39680    0.51010    1.000
    C173     C        0.17150    0.20670    0.25520    1.000
    H114     H        0.13220    0.17900    0.23250    1.000
    C174     C        0.78780    0.49210    0.84800    1.000
    C175     C        0.99770    0.42710    0.09270    1.000
    H115     H        0.97940    0.45640    0.11360    1.000
    C176     C        0.19780    0.19720    0.31480    1.000
    H116     H        0.17620    0.16480    0.33150    1.000
    C177     C        0.78780    0.44680    0.75940    1.000
    H117     H        0.81060    0.42250    0.74010    1.000
    C178     C        0.28480    0.28940    0.32180    1.000
    H118     H        0.32290    0.31980    0.34360    1.000
    C179     C        0.72170    0.51670    0.81660    1.000
    H119     H        0.69780    0.54050    0.83500    1.000
    C180     C        0.25510    0.29500    0.26260    1.000
    H120     H        0.27440    0.32950    0.24500    1.000
    Ag11     Ag       0.15611    0.95704    0.63225    1.000
    Ag12     Ag       0.67711    0.75187    0.13278    1.000
    N61      N        0.76160    0.67760    0.43679    1.000
    N62      N        0.22010    0.18690    0.07872    1.000
    N63      N        0.37740    0.96290    0.94118    1.000
    N64      N        0.06080    0.88420    0.58779    1.000
    N65      N        0.58680    0.84220    0.09259    1.000
    C181     C        0.87630    0.75720    0.49760    1.000
    N66      N        0.37370    0.01110    0.02678    1.000
    N67      N        0.85190    0.71020    0.52719    1.000
    C182     C        0.76490    0.56490    0.61190    1.000
    H121     H        0.78690    0.55780    0.65160    1.000
    N68      N        0.70420    0.53040    0.58332    1.000
    N69      N        0.28850    0.04990    0.93523    1.000
    N70      N        0.69960    0.75330    0.22870    1.000
    C183     C        0.22200    0.13770    0.99080    1.000
    H122     H        0.20110    0.13400    0.95080    1.000
    C184     C        0.70160    0.58420    0.49500    1.000
    H123     H        0.67920    0.58870    0.45510    1.000
    C185     C        0.28050    0.15170    0.10810    1.000
    H124     H        0.30050    0.15590    0.14810    1.000
    C186     C        0.94020    0.80220    0.52980    1.000
    N71      N        0.22420    0.97080    0.72820    1.000
    C187     C        0.40240    0.96960    0.99890    1.000
    N72      N        0.84700    0.76800    0.44068    1.000
    C188     C        0.55640    0.84300    0.03490    1.000
    H125     H        0.57640    0.81470    0.01480    1.000
    C189     C        0.96710    0.81200    0.58900    1.000
    H126     H        0.94550    0.79050    0.61020    1.000
    C190     C        0.49690    0.88380    0.00360    1.000
    H127     H        0.47750    0.88290    0.96350    1.000
    C191     C        0.75660    0.73720    0.34830    1.000
    C192     C        0.31960    0.00220    0.91170    1.000
    C193     C        0.32110    0.95620    0.81840    1.000
    H128     H        0.36520    0.93880    0.83820    1.000
    C194     C        0.97400    0.83510    0.49980    1.000
    H129     H        0.95670    0.83030    0.45990    1.000
    C195     C        0.28450    0.10130    0.02230    1.000
    C196     C        0.67380    0.54090    0.52590    1.000
    H130     H        0.63170    0.51780    0.50570    1.000
    C197     C        0.79050    0.72670    0.41240    1.000
    C198     C        0.46690    0.92610    0.03300    1.000
    C199     C        0.19220    0.17960    0.02080    1.000
    H131     H        0.15070    0.20400    0.99980    1.000
    C200     C        0.76380    0.62090    0.52510    1.000
    C201     C        0.55670    0.88340    0.12060    1.000
    H132     H        0.57650    0.88240    0.16070    1.000
    C202     C        0.79440    0.67220    0.49480    1.000
    C203     C        0.19220    0.00490    0.75710    1.000
    H133     H        0.14800    0.02140    0.73630    1.000
    C204     C        0.31720    0.05150    0.99310    1.000
    C205     C        0.31440    0.10950    0.08160    1.000
    H134     H        0.35640    0.08710    0.10340    1.000
    C206     C        0.79610    0.61040    0.58480    1.000
    H135     H        0.83790    0.63380    0.60610    1.000
    C207     C        0.02690    0.85440    0.61600    1.000
    H136     H        0.04420    0.86250    0.65570    1.000
    C208     C        0.03350    0.87500    0.53030    1.000
    H137     H        0.05610    0.89680    0.51010    1.000
    C209     C        0.67150    0.70670    0.25520    1.000
    H138     H        0.63220    0.67900    0.23250    1.000
    C210     C        0.28780    0.99210    0.84800    1.000
    C211     C        0.49770    0.92710    0.09270    1.000
    H139     H        0.47940    0.95640    0.11360    1.000
    C212     C        0.69780    0.69720    0.31480    1.000
    H140     H        0.67620    0.66480    0.33150    1.000
    C213     C        0.28780    0.94680    0.75940    1.000
    H141     H        0.31060    0.92250    0.74010    1.000
    C214     C        0.78480    0.78940    0.32180    1.000
    H142     H        0.82290    0.81980    0.34360    1.000
    C215     C        0.22170    0.01670    0.81660    1.000
    H143     H        0.19780    0.04050    0.83500    1.000
    C216     C        0.75510    0.79500    0.26260    1.000
    H144     H        0.77440    0.82950    0.24500    1.000
    Ag13     Ag       0.34389    0.45704    0.86775    1.000
    Ag14     Ag       0.82289    0.25187    0.36722    1.000
    N73      N        0.73840    0.17760    0.06321    1.000
    N74      N        0.27990    0.68690    0.42128    1.000
    N75      N        0.12260    0.46290    0.55882    1.000
    N76      N        0.43920    0.38420    0.91221    1.000
    N77      N        0.91320    0.34220    0.40741    1.000
    C217     C        0.62370    0.25720    0.00240    1.000
    N78      N        0.12630    0.51110    0.47322    1.000
    N79      N        0.64810    0.21020    0.97281    1.000
    C218     C        0.73510    0.06490    0.88810    1.000
    H145     H        0.71310    0.05780    0.84840    1.000
    N80      N        0.79580    0.03040    0.91668    1.000
    N81      N        0.21150    0.54990    0.56477    1.000
    N82      N        0.80040    0.25330    0.27130    1.000
    C219     C        0.27800    0.63770    0.50920    1.000
    H146     H        0.29890    0.63400    0.54920    1.000
    C220     C        0.79840    0.08420    0.00500    1.000
    H147     H        0.82080    0.08870    0.04490    1.000
    C221     C        0.21950    0.65170    0.39190    1.000
    H148     H        0.19950    0.65590    0.35190    1.000
    C222     C        0.55980    0.30220    0.97020    1.000
    N83      N        0.27580    0.47080    0.77180    1.000
    C223     C        0.09760    0.46960    0.50110    1.000
    N84      N        0.65300    0.26800    0.05932    1.000
    C224     C        0.94360    0.34300    0.46510    1.000
    H149     H        0.92360    0.31470    0.48520    1.000
    C225     C        0.53290    0.31200    0.91100    1.000
    H150     H        0.55450    0.29050    0.88980    1.000
    C226     C        0.00310    0.38380    0.49640    1.000
    H151     H        0.02250    0.38290    0.53650    1.000
    C227     C        0.74340    0.23720    0.15170    1.000
    C228     C        0.18040    0.50220    0.58830    1.000
    C229     C        0.17890    0.45620    0.68160    1.000
    H152     H        0.13480    0.43880    0.66180    1.000
    C230     C        0.52600    0.33510    0.00020    1.000
    H153     H        0.54330    0.33030    0.04010    1.000
    C231     C        0.21550    0.60130    0.47770    1.000
    C232     C        0.82620    0.04090    0.97410    1.000
    H154     H        0.86830    0.01780    0.99430    1.000
    C233     C        0.70950    0.22670    0.08760    1.000
    C234     C        0.03310    0.42610    0.46700    1.000
    C235     C        0.30780    0.67960    0.47920    1.000
    H155     H        0.34930    0.70400    0.50020    1.000
    C236     C        0.73620    0.12090    0.97490    1.000
    C237     C        0.94330    0.38340    0.37940    1.000
    H156     H        0.92350    0.38240    0.33930    1.000
    C238     C        0.70560    0.17220    0.00520    1.000
    C239     C        0.30780    0.50490    0.74290    1.000
    H157     H        0.35200    0.52140    0.76370    1.000
    C240     C        0.18280    0.55150    0.50690    1.000
    C241     C        0.18560    0.60950    0.41840    1.000
    H158     H        0.14360    0.58710    0.39660    1.000
    C242     C        0.70390    0.11040    0.91520    1.000
    H159     H        0.66210    0.13380    0.89390    1.000
    C243     C        0.47310    0.35440    0.88400    1.000
    H160     H        0.45580    0.36250    0.84430    1.000
    C244     C        0.46650    0.37500    0.96970    1.000
    H161     H        0.44390    0.39680    0.98990    1.000
    C245     C        0.82850    0.20670    0.24480    1.000
    H162     H        0.86780    0.17900    0.26750    1.000
    C246     C        0.21220    0.49210    0.65200    1.000
    C247     C        0.00230    0.42710    0.40730    1.000
    H163     H        0.02060    0.45640    0.38640    1.000
    C248     C        0.80220    0.19720    0.18520    1.000
    H164     H        0.82380    0.16480    0.16850    1.000
    C249     C        0.21220    0.44680    0.74060    1.000
    H165     H        0.18940    0.42250    0.75990    1.000
    C250     C        0.71520    0.28940    0.17820    1.000
    H166     H        0.67710    0.31980    0.15640    1.000
    C251     C        0.27830    0.51670    0.68340    1.000
    H167     H        0.30220    0.54050    0.66500    1.000
    C252     C        0.74490    0.29500    0.23740    1.000
    H168     H        0.72560    0.32950    0.25500    1.000
    Ag15     Ag       0.84389    0.95704    0.86775    1.000
    Ag16     Ag       0.32289    0.75187    0.36722    1.000
    N85      N        0.23840    0.67760    0.06321    1.000
    N86      N        0.77990    0.18690    0.42128    1.000
    N87      N        0.62260    0.96290    0.55882    1.000
    N88      N        0.93920    0.88420    0.91221    1.000
    N89      N        0.41320    0.84220    0.40741    1.000
    C253     C        0.12370    0.75720    0.00240    1.000
    N90      N        0.62630    0.01110    0.47322    1.000
    N91      N        0.14810    0.71020    0.97281    1.000
    C254     C        0.23510    0.56490    0.88810    1.000
    H169     H        0.21310    0.55780    0.84840    1.000
    N92      N        0.29580    0.53040    0.91668    1.000
    N93      N        0.71150    0.04990    0.56477    1.000
    N94      N        0.30040    0.75330    0.27130    1.000
    C255     C        0.77800    0.13770    0.50920    1.000
    H170     H        0.79890    0.13400    0.54920    1.000
    C256     C        0.29840    0.58420    0.00500    1.000
    H171     H        0.32080    0.58870    0.04490    1.000
    C257     C        0.71950    0.15170    0.39190    1.000
    H172     H        0.69950    0.15590    0.35190    1.000
    C258     C        0.05980    0.80220    0.97020    1.000
    N95      N        0.77580    0.97080    0.77180    1.000
    C259     C        0.59760    0.96960    0.50110    1.000
    N96      N        0.15300    0.76800    0.05932    1.000
    C260     C        0.44360    0.84300    0.46510    1.000
    H173     H        0.42360    0.81470    0.48520    1.000
    C261     C        0.03290    0.81200    0.91100    1.000
    H174     H        0.05450    0.79050    0.88980    1.000
    C262     C        0.50310    0.88380    0.49640    1.000
    H175     H        0.52250    0.88290    0.53650    1.000
    C263     C        0.24340    0.73720    0.15170    1.000
    C264     C        0.68040    0.00220    0.58830    1.000
    C265     C        0.67890    0.95620    0.68160    1.000
    H176     H        0.63480    0.93880    0.66180    1.000
    C266     C        0.02600    0.83510    0.00020    1.000
    H177     H        0.04330    0.83030    0.04010    1.000
    C267     C        0.71550    0.10130    0.47770    1.000
    C268     C        0.32620    0.54090    0.97410    1.000
    H178     H        0.36830    0.51780    0.99430    1.000
    C269     C        0.20950    0.72670    0.08760    1.000
    C270     C        0.53310    0.92610    0.46700    1.000
    C271     C        0.80780    0.17960    0.47920    1.000
    H179     H        0.84930    0.20400    0.50020    1.000
    C272     C        0.23620    0.62090    0.97490    1.000
    C273     C        0.44330    0.88340    0.37940    1.000
    H180     H        0.42350    0.88240    0.33930    1.000
    C274     C        0.20560    0.67220    0.00520    1.000
    C275     C        0.80780    0.00490    0.74290    1.000
    H181     H        0.85200    0.02140    0.76370    1.000
    C276     C        0.68280    0.05150    0.50690    1.000
    C277     C        0.68560    0.10950    0.41840    1.000
    H182     H        0.64360    0.08710    0.39660    1.000
    C278     C        0.20390    0.61040    0.91520    1.000
    H183     H        0.16210    0.63380    0.89390    1.000
    C279     C        0.97310    0.85440    0.88400    1.000
    H184     H        0.95580    0.86250    0.84430    1.000
    C280     C        0.96650    0.87500    0.96970    1.000
    H185     H        0.94390    0.89680    0.98990    1.000
    C281     C        0.32850    0.70670    0.24480    1.000
    H186     H        0.36780    0.67900    0.26750    1.000
    C282     C        0.71220    0.99210    0.65200    1.000
    C283     C        0.50230    0.92710    0.40730    1.000
    H187     H        0.52060    0.95640    0.38640    1.000
    C284     C        0.30220    0.69720    0.18520    1.000
    H188     H        0.32380    0.66480    0.16850    1.000
    C285     C        0.71220    0.94680    0.74060    1.000
    H189     H        0.68940    0.92250    0.75990    1.000
    C286     C        0.21520    0.78940    0.17820    1.000
    H190     H        0.17710    0.81980    0.15640    1.000
    C287     C        0.77830    0.01670    0.68340    1.000
    H191     H        0.80220    0.04050    0.66500    1.000
    C288     C        0.24490    0.79500    0.23740    1.000
    H192     H        0.22560    0.82950    0.25500    1.000
