data_functionalizedCrystal
_audit_creation_method	'EQeq! by Chris Wilmer'
_symmetry_space_group_name_H-M	'P1'
_symmetry_Int_Tables_number	1
_symmetry_cell_setting	triclinic
loop_
_symmetry_equiv_pos_as_xyz
  x,y,z
_cell_length_a	18.923
_cell_length_b	16.5046
_cell_length_c	7.8437
_cell_angle_alpha	90
_cell_angle_beta	91.868
_cell_angle_gamma	90
loop_
_atom_site_label
_atom_site_type_symbol
_atom_site_fract_x
_atom_site_fract_y
_atom_site_fract_z
_atom_site_charge
Mof_O 	O 	0.0629	0.8014	0.863	-0.672
Mof_O 	O 	0.066	0.0237	0.353	-0.775
Mof_O 	O 	0.0837	0.6472	0.88	-0.207
Mof_C 	C 	0.119	0.8753	0.236	-0.063
Mof_P 	P 	0.0672	0.7236	0.9886	0.27
Mof_O 	O 	0.9984	0.7084	0.063	0.003
Mof_O 	O 	0.1717	0.968	0.504	-0.218
Mof_P 	P 	0.1045	0.946	0.4063	0.529
Mof_N 	N 	0.1245	0.7898	0.298	-0.095
Mof_C 	C 	0.2534	0.804	0.35	0.022
Mof_C 	C 	0.1365	0.7367	0.154	0.009
Mof_C 	C 	0.1823	0.789	0.432	0.051
Mof_C 	C 	0.1872	0.705	0.51	0.016
Mof_O 	O 	0.057	0.8973	0.538	-0.763
Mof_O 	O 	0.5629	0.3014	0.863	-0.62
Mof_O 	O 	0.566	0.5237	0.353	-0.703
Mof_O 	O 	0.5837	0.1472	0.88	-0.162
Mof_C 	C 	0.619	0.3753	0.236	-0.026
Mof_P 	P 	0.5672	0.2236	0.9886	0.445
Mof_O 	O 	0.4984	0.2084	0.063	-0.212
Mof_O 	O 	0.6717	0.468	0.504	-0.212
Mof_P 	P 	0.6045	0.446	0.4063	0.534
Mof_N 	N 	0.6245	0.2898	0.298	-0.084
Mof_C 	C 	0.7534	0.304	0.35	0.023
Mof_C 	C 	0.6365	0.2367	0.154	0.013
Mof_C 	C 	0.6823	0.289	0.432	0.05
Mof_C 	C 	0.6872	0.205	0.51	0.032
Mof_O 	O 	0.557	0.3973	0.538	-0.686
Mof_O 	O 	0.9371	0.8014	0.637	-0.558
Mof_O 	O 	0.934	0.0237	0.147	-0.621
Mof_O 	O 	0.9163	0.6472	0.62	-0.116
Mof_C 	C 	0.881	0.8753	0.264	0.013
Mof_P 	P 	0.9328	0.7236	0.5114	0.609
Mof_O 	O 	0.0016	0.7084	0.437	-0.418
Mof_O 	O 	0.8283	0.968	0.996	-0.205
Mof_P 	P 	0.8955	0.946	0.0937	0.514
Mof_N 	N 	0.8755	0.7898	0.202	-0.074
Mof_C 	C 	0.7466	0.804	0.15	0.025
Mof_C 	C 	0.8635	0.7367	0.346	0.024
Mof_C 	C 	0.8177	0.789	0.068	0.029
Mof_C 	C 	0.8128	0.705	0.99	0.069
Mof_O 	O 	0.943	0.8973	0.962	-0.585
Mof_O 	O 	0.4371	0.3014	0.637	-0.621
Mof_O 	O 	0.434	0.5237	0.147	-0.705
Mof_O 	O 	0.4163	0.1472	0.62	-0.162
Mof_C 	C 	0.381	0.3753	0.264	-0.025
Mof_P 	P 	0.4328	0.2236	0.5114	0.43
Mof_O 	O 	0.5016	0.2084	0.437	-0.201
Mof_O 	O 	0.3283	0.468	0.996	-0.212
Mof_P 	P 	0.3955	0.446	0.0937	0.519
Mof_N 	N 	0.3755	0.2898	0.202	-0.085
Mof_C 	C 	0.2466	0.304	0.15	0.024
Mof_C 	C 	0.3635	0.2367	0.346	0.021
Mof_C 	C 	0.3177	0.289	0.068	0.034
Mof_C 	C 	0.3128	0.205	0.99	0.049
Mof_O 	O 	0.443	0.3973	0.962	-0.676
Mof_O 	O 	0.9371	0.1986	0.137	-0.561
Mof_O 	O 	0.934	0.9763	0.647	-0.62
Mof_O 	O 	0.9163	0.3528	0.12	-0.119
Mof_C 	C 	0.881	0.1247	0.764	0.015
Mof_P 	P 	0.9328	0.2764	0.0114	0.59
Mof_O 	O 	0.0016	0.2916	0.937	-0.405
Mof_O 	O 	0.8283	0.032	0.496	-0.22
Mof_P 	P 	0.8955	0.054	0.5937	0.534
Mof_N 	N 	0.8755	0.2102	0.702	-0.074
Mof_C 	C 	0.7466	0.196	0.65	0.024
Mof_C 	C 	0.8635	0.2633	0.846	0.036
Mof_C 	C 	0.8177	0.211	0.568	0.045
Mof_C 	C 	0.8128	0.295	0.49	0.052
Mof_O 	O 	0.943	0.1027	0.462	-0.597
Mof_O 	O 	0.4371	0.6986	0.137	-0.623
Mof_O 	O 	0.434	0.4763	0.647	-0.703
Mof_O 	O 	0.4163	0.8528	0.12	-0.165
Mof_C 	C 	0.381	0.6247	0.764	-0.021
Mof_P 	P 	0.4328	0.7764	0.0114	0.412
Mof_O 	O 	0.5016	0.7916	0.937	-0.187
Mof_O 	O 	0.3283	0.532	0.496	-0.225
Mof_P 	P 	0.3955	0.554	0.5937	0.534
Mof_N 	N 	0.3755	0.7102	0.702	-0.086
Mof_C 	C 	0.2466	0.696	0.65	0.024
Mof_C 	C 	0.3635	0.7633	0.846	0.035
Mof_C 	C 	0.3177	0.711	0.568	0.046
Mof_C 	C 	0.3128	0.795	0.49	0.035
Mof_O 	O 	0.443	0.6027	0.462	-0.687
Mof_O 	O 	0.0629	0.1986	0.363	-0.673
Mof_O 	O 	0.066	0.9763	0.853	-0.771
Mof_O 	O 	0.0837	0.3528	0.38	-0.209
Mof_C 	C 	0.119	0.1247	0.736	-0.058
Mof_P 	P 	0.0672	0.2764	0.4886	0.251
Mof_O 	O 	0.9984	0.2916	0.563	0.02
Mof_O 	O 	0.1717	0.032	0.004	-0.226
Mof_P 	P 	0.1045	0.054	0.9063	0.542
Mof_N 	N 	0.1245	0.2102	0.798	-0.097
Mof_C 	C 	0.2534	0.196	0.85	0.022
Mof_C 	C 	0.1365	0.2633	0.654	0.022
Mof_C 	C 	0.1823	0.211	0.932	0.064
Mof_C 	C 	0.1872	0.295	0.01	0.002
Mof_O 	O 	0.057	0.1027	0.038	-0.771
Mof_O 	O 	0.5629	0.6986	0.363	-0.622
Mof_O 	O 	0.566	0.4763	0.853	-0.701
Mof_O 	O 	0.5837	0.8528	0.38	-0.165
Mof_C 	C 	0.619	0.6247	0.736	-0.022
Mof_P 	P 	0.5672	0.7764	0.4886	0.43
Mof_O 	O 	0.4984	0.7916	0.563	-0.2
Mof_O 	O 	0.6717	0.532	0.004	-0.226
Mof_P 	P 	0.6045	0.554	0.9063	0.55
Mof_N 	N 	0.6245	0.7102	0.798	-0.085
Mof_C 	C 	0.7534	0.696	0.85	0.022
Mof_C 	C 	0.6365	0.7633	0.654	0.025
Mof_C 	C 	0.6823	0.711	0.932	0.066
Mof_C 	C 	0.6872	0.795	0.01	0.014
Mof_O 	O 	0.557	0.6027	0.038	-0.697
Mof_Zr	Zr	-1.45103e-18	0.8914	0.75	3.187
Mof_Zr	Zr	0.5	0.3914	0.75	3.218
Mof_Zr	Zr	7.25513e-19	0.1086	0.25	3.187
Mof_Zr	Zr	0.5	0.6086	0.25	3.217
_end
