data_functionalizedCrystal
_audit_creation_method	'EQeq! by Chris Wilmer'
_symmetry_space_group_name_H-M	'P1'
_symmetry_Int_Tables_number	1
_symmetry_cell_setting	triclinic
loop_
_symmetry_equiv_pos_as_xyz
  x,y,z
_cell_length_a	6.8055
_cell_length_b	13.4475
_cell_length_c	16.1809
_cell_angle_alpha	90
_cell_angle_beta	90
_cell_angle_gamma	90
loop_
_atom_site_label
_atom_site_type_symbol
_atom_site_fract_x
_atom_site_fract_y
_atom_site_fract_z
_atom_site_charge
Mof_C 	C 	0.2243	0.6096	0.4043	0.43
Mof_C 	C 	0.2402	0.5343	0.3379	-0.087
Mof_C 	C 	0.4192	0.5118	0.3021	-0.009
Mof_H 	H 	0.5331	0.541	0.3225	0.059
Mof_C 	C 	0.431	0.4483	0.2381	-0.002
Mof_H 	H 	0.5532	0.433	0.2158	0.054
Mof_C 	C 	0.0714	0.4893	0.3071	-0.009
Mof_H 	H 	0.9501	0.5022	0.3312	0.053
Mof_C 	C 	0.0845	0.4253	0.2405	0
Mof_H 	H 	0.9712	0.3958	0.2198	0.054
Mof_C 	C 	0.2623	0.4049	0.2047	-0.099
Mof_C 	C 	0.2769	0.3443	0.1295	0.436
Mof_O 	O 	0.2835	0.1898	0.99	-0.673
Mof_O 	O 	0.1157	0.3126	0.0996	-0.503
Mof_O 	O 	0.0564	0.6321	0.4302	-0.512
Mof_O 	O 	0.4428	0.3284	0.0991	-0.519
Mof_O 	O 	0.3845	0.6473	0.4286	-0.503
Mof_V 	V 	0.06454	0.23546	0.99852	1.835
Mof_C 	C 	0.2757	0.3904	0.9043	0.427
Mof_C 	C 	0.2598	0.4657	0.8379	-0.082
Mof_C 	C 	0.0808	0.4882	0.8021	-0.019
Mof_H 	H 	0.9669	0.459	0.8225	0.062
Mof_C 	C 	0.069	0.5517	0.7381	0.005
Mof_H 	H 	0.9468	0.567	0.7158	0.049
Mof_C 	C 	0.4286	0.5107	0.8071	-0.018
Mof_H 	H 	0.5499	0.4978	0.8312	0.058
Mof_C 	C 	0.4155	0.5747	0.7405	0.006
Mof_H 	H 	0.5288	0.6042	0.7198	0.053
Mof_C 	C 	0.2377	0.5951	0.7047	-0.104
Mof_C 	C 	0.2231	0.6557	0.6295	0.437
Mof_O 	O 	0.2165	0.8102	0.49	-0.672
Mof_O 	O 	0.3843	0.6874	0.5996	-0.504
Mof_O 	O 	0.4436	0.3679	0.9302	-0.512
Mof_O 	O 	0.0572	0.6716	0.5991	-0.518
Mof_O 	O 	0.1155	0.3527	0.9286	-0.503
Mof_V 	V 	0.43546	0.76454	0.49852	1.836
Mof_C 	C 	0.7757	0.1096	0.0957	0.429
Mof_C 	C 	0.7598	0.0343	0.1621	-0.086
Mof_C 	C 	0.5808	0.0118	0.1979	-0.01
Mof_H 	H 	0.4669	0.041	0.1775	0.058
Mof_C 	C 	0.569	0.9483	0.2619	-0.004
Mof_H 	H 	0.4468	0.933	0.2842	0.053
Mof_C 	C 	0.9286	0.9893	0.1929	-0.013
Mof_H 	H 	0.0499	0.0022	0.1688	0.055
Mof_C 	C 	0.9155	0.9253	0.2595	-0.007
Mof_H 	H 	0.0288	0.8958	0.2802	0.06
Mof_C 	C 	0.7377	0.9049	0.2953	-0.097
Mof_C 	C 	0.7231	0.8443	0.3705	0.434
Mof_O 	O 	0.7165	0.6898	0.51	-0.673
Mof_O 	O 	0.8843	0.8126	0.4004	-0.505
Mof_O 	O 	0.9436	0.1321	0.0698	-0.512
Mof_O 	O 	0.5572	0.8284	0.4009	-0.519
Mof_O 	O 	0.6155	0.1473	0.0714	-0.503
Mof_V 	V 	0.93546	0.73546	0.50148	1.835
Mof_C 	C 	0.7243	0.8904	0.5957	0.423
Mof_C 	C 	0.7402	0.9657	0.6621	-0.072
Mof_C 	C 	0.9192	0.9882	0.6979	-0.042
Mof_H 	H 	0.0331	0.959	0.6775	0.071
Mof_C 	C 	0.931	0.0517	0.7619	0.029
Mof_H 	H 	0.0532	0.067	0.7842	0.039
Mof_C 	C 	0.5714	0.0107	0.6929	-0.028
Mof_H 	H 	0.4501	0.9978	0.6688	0.061
Mof_C 	C 	0.5845	0.0747	0.7595	0.017
Mof_H 	H 	0.4712	0.1042	0.7802	0.049
Mof_C 	C 	0.7623	0.0951	0.7953	-0.116
Mof_C 	C 	0.7769	0.1557	0.8705	0.442
Mof_O 	O 	0.7835	0.3102	0.01	-0.673
Mof_O 	O 	0.6157	0.1874	0.9004	-0.504
Mof_O 	O 	0.5564	0.8679	0.5698	-0.512
Mof_O 	O 	0.9428	0.1716	0.9009	-0.518
Mof_O 	O 	0.8845	0.8527	0.5714	-0.503
Mof_V 	V 	0.56454	0.26454	0.00148	1.836
_end
