# CIF file generated by openbabel 3.1.0, see https://openbabel.org
data_I
_chemical_name_common 'image0'
_cell_length_a 13.854
_cell_length_b 10.832
_cell_length_c 18.731
_cell_angle_alpha 90
_cell_angle_beta 130.624
_cell_angle_gamma 90
_space_group_name_H-M_alt 'P 1'
_space_group_name_Hall 'P 1'
loop_
    _symmetry_equiv_pos_as_xyz
    x,y,z
loop_
    _atom_site_label
    _atom_site_type_symbol
    _atom_site_fract_x
    _atom_site_fract_y
    _atom_site_fract_z
    _atom_site_occupancy
    N1       N        0.34450    0.09220    0.68790    1.000
    N2       N        0.23870    0.26280    0.60770    1.000
    N3       N        0.00690    0.81370    0.65990    1.000
    O1       O        0.88230    0.52440    0.62960    1.000
    O2       O        0.81230    0.58940    0.69960    1.000
    O3       O        0.63990    0.18900    0.38530    1.000
    O4       O        0.45070    0.14570    0.33170    1.000
    S1       S        0.39397    0.16520    0.57785    1.000
    C1       C        0.42330    0.32520    0.57430    1.000
    H1       H        0.34360    0.36710    0.52630    1.000
    H2       H        0.46220    0.36340    0.63450    1.000
    C2       C        0.51070    0.33720    0.55260    1.000
    C3       C        0.61280    0.41760    0.60510    1.000
    H3       H        0.62630    0.46410    0.65260    1.000
    C4       C        0.69550    0.42940    0.58740    1.000
    C5       C        0.67770    0.35670    0.51830    1.000
    H4       H        0.73510    0.36150    0.50830    1.000
    C6       C        0.57440    0.27710    0.46430    1.000
    C7       C        0.48990    0.26890    0.48070    1.000
    H5       H        0.41930    0.21760    0.44340    1.000
    C8       C        0.80340    0.51950    0.64250    1.000
    C9       C        0.55420    0.19970    0.38950    1.000
    C10      C        0.32240    0.17480    0.62730    1.000
    C11      C        0.26990    0.12850    0.71010    1.000
    C12      C        0.25680    0.07790    0.77190    1.000
    H6       H        0.30010    0.00680    0.80630    1.000
    C13      C        0.17640    0.13850    0.77920    1.000
    H7       H        0.16640    0.10830    0.82050    1.000
    C14      C        0.10910    0.24420    0.72660    1.000
    H8       H        0.05440    0.28090    0.73290    1.000
    C15      C        0.12100    0.29460    0.66680    1.000
    H9       H        0.07670    0.36520    0.63220    1.000
    C16      C        0.20380    0.23440    0.65990    1.000
    C17      C        0.08540    0.79270    0.64270    1.000
    H10      H        0.14280    0.72770    0.67390    1.000
    C18      C        0.08580    0.86230    0.58130    1.000
    H11      H        0.14190    0.84340    0.57150    1.000
    C19      C        0.00170    0.96130    0.53370    1.000
    C20      C        0.92280    0.98490    0.55360    1.000
    H12      H        0.86660    0.05110    0.52530    1.000
    C21      C        0.92790    0.90990    0.61550    1.000
    H13      H        0.87340    0.92720    0.62700    1.000
    N4       N        0.65550    0.09220    0.81210    1.000
    N5       N        0.76130    0.26280    0.89230    1.000
    N6       N        0.99310    0.81370    0.84010    1.000
    O5       O        0.11770    0.52440    0.87040    1.000
    O6       O        0.18770    0.58940    0.80040    1.000
    O7       O        0.36010    0.18900    0.11470    1.000
    O8       O        0.54930    0.14570    0.16830    1.000
    S2       S        0.60603    0.16520    0.92215    1.000
    C22      C        0.57670    0.32520    0.92570    1.000
    H14      H        0.65640    0.36710    0.97370    1.000
    H15      H        0.53780    0.36340    0.86550    1.000
    C23      C        0.48930    0.33720    0.94740    1.000
    C24      C        0.38720    0.41760    0.89490    1.000
    H16      H        0.37370    0.46410    0.84740    1.000
    C25      C        0.30450    0.42940    0.91260    1.000
    C26      C        0.32230    0.35670    0.98170    1.000
    H17      H        0.26490    0.36150    0.99170    1.000
    C27      C        0.42560    0.27710    0.03570    1.000
    C28      C        0.51010    0.26890    0.01930    1.000
    H18      H        0.58070    0.21760    0.05660    1.000
    C29      C        0.19660    0.51950    0.85750    1.000
    C30      C        0.44580    0.19970    0.11050    1.000
    C31      C        0.67760    0.17480    0.87270    1.000
    C32      C        0.73010    0.12850    0.78990    1.000
    C33      C        0.74320    0.07790    0.72810    1.000
    H19      H        0.69990    0.00680    0.69370    1.000
    C34      C        0.82360    0.13850    0.72080    1.000
    H20      H        0.83360    0.10830    0.67950    1.000
    C35      C        0.89090    0.24420    0.77340    1.000
    H21      H        0.94560    0.28090    0.76710    1.000
    C36      C        0.87900    0.29460    0.83320    1.000
    H22      H        0.92330    0.36520    0.86780    1.000
    C37      C        0.79620    0.23440    0.84010    1.000
    C38      C        0.91460    0.79270    0.85730    1.000
    H23      H        0.85720    0.72770    0.82610    1.000
    C39      C        0.91420    0.86230    0.91870    1.000
    H24      H        0.85810    0.84340    0.92850    1.000
    C40      C        0.99830    0.96130    0.96630    1.000
    C41      C        0.07720    0.98490    0.94640    1.000
    H25      H        0.13340    0.05110    0.97470    1.000
    C42      C        0.07210    0.90990    0.88450    1.000
    H26      H        0.12660    0.92720    0.87300    1.000
    N7       N        0.65550    0.90780    0.31210    1.000
    N8       N        0.76130    0.73720    0.39230    1.000
    N9       N        0.99310    0.18630    0.34010    1.000
    O9       O        0.11770    0.47560    0.37040    1.000
    O10      O        0.18770    0.41060    0.30040    1.000
    O11      O        0.36010    0.81100    0.61470    1.000
    O12      O        0.54930    0.85430    0.66830    1.000
    S3       S        0.60603    0.83480    0.42215    1.000
    C43      C        0.57670    0.67480    0.42570    1.000
    H27      H        0.65640    0.63290    0.47370    1.000
    H28      H        0.53780    0.63660    0.36550    1.000
    C44      C        0.48930    0.66280    0.44740    1.000
    C45      C        0.38720    0.58240    0.39490    1.000
    H29      H        0.37370    0.53590    0.34740    1.000
    C46      C        0.30450    0.57060    0.41260    1.000
    C47      C        0.32230    0.64330    0.48170    1.000
    H30      H        0.26490    0.63850    0.49170    1.000
    C48      C        0.42560    0.72290    0.53570    1.000
    C49      C        0.51010    0.73110    0.51930    1.000
    H31      H        0.58070    0.78240    0.55660    1.000
    C50      C        0.19660    0.48050    0.35750    1.000
    C51      C        0.44580    0.80030    0.61050    1.000
    C52      C        0.67760    0.82520    0.37270    1.000
    C53      C        0.73010    0.87150    0.28990    1.000
    C54      C        0.74320    0.92210    0.22810    1.000
    H32      H        0.69990    0.99320    0.19370    1.000
    C55      C        0.82360    0.86150    0.22080    1.000
    H33      H        0.83360    0.89170    0.17950    1.000
    C56      C        0.89090    0.75580    0.27340    1.000
    H34      H        0.94560    0.71910    0.26710    1.000
    C57      C        0.87900    0.70540    0.33320    1.000
    H35      H        0.92330    0.63480    0.36780    1.000
    C58      C        0.79620    0.76560    0.34010    1.000
    C59      C        0.91460    0.20730    0.35730    1.000
    H36      H        0.85720    0.27230    0.32610    1.000
    C60      C        0.91420    0.13770    0.41870    1.000
    H37      H        0.85810    0.15660    0.42850    1.000
    C61      C        0.99830    0.03870    0.46630    1.000
    C62      C        0.07720    0.01510    0.44640    1.000
    H38      H        0.13340    0.94890    0.47470    1.000
    C63      C        0.07210    0.09010    0.38450    1.000
    H39      H        0.12660    0.07280    0.37300    1.000
    N10      N        0.34450    0.90780    0.18790    1.000
    N11      N        0.23870    0.73720    0.10770    1.000
    N12      N        0.00690    0.18630    0.15990    1.000
    O13      O        0.88230    0.47560    0.12960    1.000
    O14      O        0.81230    0.41060    0.19960    1.000
    O15      O        0.63990    0.81100    0.88530    1.000
    O16      O        0.45070    0.85430    0.83170    1.000
    S4       S        0.39397    0.83480    0.07785    1.000
    C64      C        0.42330    0.67480    0.07430    1.000
    H40      H        0.34360    0.63290    0.02630    1.000
    H41      H        0.46220    0.63660    0.13450    1.000
    C65      C        0.51070    0.66280    0.05260    1.000
    C66      C        0.61280    0.58240    0.10510    1.000
    H42      H        0.62630    0.53590    0.15260    1.000
    C67      C        0.69550    0.57060    0.08740    1.000
    C68      C        0.67770    0.64330    0.01830    1.000
    H43      H        0.73510    0.63850    0.00830    1.000
    C69      C        0.57440    0.72290    0.96430    1.000
    C70      C        0.48990    0.73110    0.98070    1.000
    H44      H        0.41930    0.78240    0.94340    1.000
    C71      C        0.80340    0.48050    0.14250    1.000
    C72      C        0.55420    0.80030    0.88950    1.000
    C73      C        0.32240    0.82520    0.12730    1.000
    C74      C        0.26990    0.87150    0.21010    1.000
    C75      C        0.25680    0.92210    0.27190    1.000
    H45      H        0.30010    0.99320    0.30630    1.000
    C76      C        0.17640    0.86150    0.27920    1.000
    H46      H        0.16640    0.89170    0.32050    1.000
    C77      C        0.10910    0.75580    0.22660    1.000
    H47      H        0.05440    0.71910    0.23290    1.000
    C78      C        0.12100    0.70540    0.16680    1.000
    H48      H        0.07670    0.63480    0.13220    1.000
    C79      C        0.20380    0.76560    0.15990    1.000
    C80      C        0.08540    0.20730    0.14270    1.000
    H49      H        0.14280    0.27230    0.17390    1.000
    C81      C        0.08580    0.13770    0.08130    1.000
    H50      H        0.14190    0.15660    0.07150    1.000
    C82      C        0.00170    0.03870    0.03370    1.000
    C83      C        0.92280    0.01510    0.05360    1.000
    H51      H        0.86660    0.94890    0.02530    1.000
    C84      C        0.92790    0.09010    0.11550    1.000
    H52      H        0.87340    0.07280    0.12700    1.000
    Cd1      Cd       0.00000    0.67664    0.75000    1.000
    Cd2      Cd       0.00000    0.32336    0.25000    1.000
    Cd3      Cd       0.50000    0.94745    0.75000    1.000
    Cd4      Cd       0.50000    0.05255    0.25000    1.000
