# CIF file generated by openbabel 3.1.0, see https://openbabel.org
data_I
_chemical_name_common 'image0'
_cell_length_a 17.5414
_cell_length_b 18.1004
_cell_length_c 18.4729
_cell_angle_alpha 90
_cell_angle_beta 91.858
_cell_angle_gamma 90
_space_group_name_H-M_alt 'P 1'
_space_group_name_Hall 'P 1'
loop_
    _symmetry_equiv_pos_as_xyz
    x,y,z
loop_
    _atom_site_label
    _atom_site_type_symbol
    _atom_site_fract_x
    _atom_site_fract_y
    _atom_site_fract_z
    _atom_site_occupancy
    Zn1      Zn       0.39796    0.52486    0.20083    1.000
    Zn2      Zn       0.39733    0.23271    0.06408    1.000
    Zn3      Zn       0.32041    0.39205    0.12431    1.000
    O1       O        0.38319    0.42101    0.21728    1.000
    O2       O        0.64504    0.51695    0.94238    1.000
    O3       O        0.41775    0.33346    0.09500    1.000
    O4       O        0.29334    0.20661    0.09681    1.000
    O5       O        0.56087    0.43976    0.88940    1.000
    N1       N        0.46262    0.57974    0.27752    1.000
    C1       C        0.59498    0.46780    0.94495    1.000
    O6       O        0.70656    0.06040    0.29479    1.000
    O7       O        0.76632    0.95928    0.34050    1.000
    C2       C        0.61634    0.45817    0.07869    1.000
    H1       H        0.66030    0.48850    0.07510    1.000
    O8       O        0.38670    0.29360    0.46052    1.000
    O9       O        0.27812    0.30101    0.17353    1.000
    C3       C        0.52785    0.39049    0.15280    1.000
    O10      O        0.50883    0.27349    0.48212    1.000
    N2       N        0.54035    0.66170    0.36743    1.000
    C4       C        0.50838    0.39571    0.02296    1.000
    H2       H        0.48010    0.38200    0.98030    1.000
    C5       C        0.41720    0.35048    0.32121    1.000
    H3       H        0.36720    0.35670    0.33850    1.000
    C6       C        0.56114    0.32734    0.26920    1.000
    H4       H        0.61050    0.31860    0.25120    1.000
    C7       C        0.47182    0.31424    0.36400    1.000
    C8       C        0.48384    0.37223    0.09016    1.000
    C9       C        0.43475    0.37787    0.25322    1.000
    C10      C        0.57284    0.66518    0.29412    1.000
    H5       H        0.62670    0.64880    0.29680    1.000
    H6       H        0.57150    0.71680    0.27650    1.000
    C11      C        0.57348    0.43886    0.01712    1.000
    C12      C        0.52731    0.61571    0.24090    1.000
    H7       H        0.50740    0.64580    0.19970    1.000
    H8       H        0.56130    0.57730    0.22150    1.000
    C13      C        0.50724    0.36442    0.22579    1.000
    C14      C        0.18737    0.20613    0.17367    1.000
    C15      C        0.59398    0.43243    0.14608    1.000
    H9       H        0.62440    0.44370    0.18810    1.000
    C16      C        0.76574    0.02157    0.31124    1.000
    C17      C        0.49390    0.53504    0.33875    1.000
    H10      H        0.52630    0.49500    0.32000    1.000
    H11      H        0.45150    0.51200    0.36470    1.000
    C18      C        0.54452    0.30290    0.33785    1.000
    H12      H        0.58240    0.27850    0.36700    1.000
    C19      C        0.41364    0.63921    0.30711    1.000
    H13      H        0.36950    0.61680    0.33100    1.000
    H14      H        0.39390    0.67090    0.26700    1.000
    C20      C        0.45959    0.68625    0.36192    1.000
    H15      H        0.45750    0.73870    0.34680    1.000
    H16      H        0.43660    0.68230    0.41000    1.000
    C21      C        0.54160    0.58367    0.39167    1.000
    H17      H        0.52070    0.58020    0.44070    1.000
    H18      H        0.59490    0.56560    0.39430    1.000
    C22      C        0.07485    0.21648    0.24436    1.000
    C23      C        0.84048    0.05472    0.29180    1.000
    O11      O        0.03350    0.25770    0.29111    1.000
    H19      H        0.98900    0.26330    0.27390    1.000
    C24      C        0.05349    0.14538    0.22591    1.000
    C25      C        0.90689    0.01651    0.30536    1.000
    H20      H        0.90520    0.96960    0.32830    1.000
    C26      C        0.97965    0.11368    0.24995    1.000
    C27      C        0.97656    0.04550    0.28593    1.000
    C28      C        0.84252    0.12293    0.25660    1.000
    H21      H        0.79680    0.14960    0.24650    1.000
    C29      C        0.91185    0.15110    0.23670    1.000
    H22      H        0.91310    0.19770    0.21320    1.000
    O12      O        0.04260    0.00796    0.30320    1.000
    H23      H        0.04110    0.96610    0.28360    1.000
    C30      C        0.45568    0.29180    0.43993    1.000
    C31      C        0.25818    0.24082    0.14578    1.000
    C32      C        0.14147    0.24682    0.21818    1.000
    H24      H        0.15550    0.29590    0.23100    1.000
    C33      C        0.16713    0.13430    0.15671    1.000
    H25      H        0.19840    0.10520    0.12690    1.000
    C34      C        0.10088    0.10524    0.18358    1.000
    H26      H        0.08780    0.05560    0.17220    1.000
    O13      O        0.91040    0.21480    0.19200    1.000
    H27      H        0.88090    0.24640    0.20910    1.000
    O14      O        0.08560    0.03230    0.16790    1.000
    H28      H        0.10350    0.00550    0.20140    1.000
    H29      H        0.04390    0.24490    0.27510    1.000
    H30      H        0.02230    0.01910    0.29700    1.000
    Zn4      Zn       0.60204    0.02486    0.29917    1.000
    Zn5      Zn       0.60267    0.73271    0.43592    1.000
    Zn6      Zn       0.67959    0.89205    0.37569    1.000
    O15      O        0.61681    0.92101    0.28272    1.000
    O16      O        0.35496    0.01695    0.55762    1.000
    O17      O        0.58225    0.83346    0.40500    1.000
    O18      O        0.70666    0.70661    0.40319    1.000
    O19      O        0.43913    0.93976    0.61060    1.000
    N3       N        0.53738    0.07974    0.22248    1.000
    C35      C        0.40502    0.96780    0.55505    1.000
    O20      O        0.29344    0.56040    0.20521    1.000
    O21      O        0.23368    0.45928    0.15950    1.000
    C36      C        0.38366    0.95817    0.42131    1.000
    H31      H        0.33970    0.98850    0.42490    1.000
    O22      O        0.61330    0.79360    0.03948    1.000
    O23      O        0.72188    0.80101    0.32647    1.000
    C37      C        0.47215    0.89049    0.34720    1.000
    O24      O        0.49117    0.77349    0.01788    1.000
    N4       N        0.45965    0.16170    0.13257    1.000
    C38      C        0.49162    0.89571    0.47704    1.000
    H32      H        0.51990    0.88200    0.51970    1.000
    C39      C        0.58280    0.85048    0.17879    1.000
    H33      H        0.63280    0.85670    0.16150    1.000
    C40      C        0.43886    0.82734    0.23080    1.000
    H34      H        0.38950    0.81860    0.24880    1.000
    C41      C        0.52818    0.81424    0.13600    1.000
    C42      C        0.51616    0.87223    0.40984    1.000
    C43      C        0.56525    0.87787    0.24678    1.000
    C44      C        0.42716    0.16518    0.20588    1.000
    H35      H        0.37330    0.14880    0.20320    1.000
    H36      H        0.42850    0.21680    0.22350    1.000
    C45      C        0.42652    0.93886    0.48288    1.000
    C46      C        0.47269    0.11571    0.25910    1.000
    H37      H        0.49260    0.14580    0.30030    1.000
    H38      H        0.43870    0.07730    0.27850    1.000
    C47      C        0.49276    0.86442    0.27421    1.000
    C48      C        0.81263    0.70613    0.32633    1.000
    C49      C        0.40602    0.93243    0.35392    1.000
    H39      H        0.37560    0.94370    0.31190    1.000
    C50      C        0.23426    0.52157    0.18876    1.000
    C51      C        0.50610    0.03504    0.16125    1.000
    H40      H        0.47370    0.99500    0.18000    1.000
    H41      H        0.54850    0.01200    0.13530    1.000
    C52      C        0.45548    0.80290    0.16215    1.000
    H42      H        0.41760    0.77850    0.13300    1.000
    C53      C        0.58636    0.13921    0.19289    1.000
    H43      H        0.63050    0.11680    0.16900    1.000
    H44      H        0.60610    0.17090    0.23300    1.000
    C54      C        0.54041    0.18625    0.13808    1.000
    H45      H        0.54250    0.23870    0.15320    1.000
    H46      H        0.56340    0.18230    0.09000    1.000
    C55      C        0.45840    0.08367    0.10833    1.000
    H47      H        0.47930    0.08020    0.05930    1.000
    H48      H        0.40510    0.06560    0.10570    1.000
    C56      C        0.92515    0.71648    0.25564    1.000
    C57      C        0.15952    0.55472    0.20820    1.000
    O25      O        0.96650    0.75770    0.20889    1.000
    H49      H        0.01100    0.76330    0.22610    1.000
    C58      C        0.94651    0.64538    0.27409    1.000
    C59      C        0.09311    0.51651    0.19464    1.000
    H50      H        0.09480    0.46960    0.17170    1.000
    C60      C        0.02035    0.61368    0.25005    1.000
    C61      C        0.02344    0.54550    0.21407    1.000
    C62      C        0.15748    0.62293    0.24340    1.000
    H51      H        0.20320    0.64960    0.25350    1.000
    C63      C        0.08815    0.65110    0.26330    1.000
    H52      H        0.08690    0.69770    0.28680    1.000
    O26      O        0.95740    0.50796    0.19680    1.000
    H53      H        0.95890    0.46610    0.21640    1.000
    C64      C        0.54432    0.79180    0.06007    1.000
    C65      C        0.74182    0.74082    0.35422    1.000
    C66      C        0.85853    0.74682    0.28182    1.000
    H54      H        0.84450    0.79590    0.26900    1.000
    C67      C        0.83287    0.63430    0.34329    1.000
    H55      H        0.80160    0.60520    0.37310    1.000
    C68      C        0.89912    0.60524    0.31642    1.000
    H56      H        0.91220    0.55560    0.32780    1.000
    O27      O        0.08960    0.71480    0.30800    1.000
    H57      H        0.11910    0.74640    0.29090    1.000
    O28      O        0.91440    0.53230    0.33210    1.000
    H58      H        0.89650    0.50550    0.29860    1.000
    H59      H        0.95610    0.74490    0.22490    1.000
    H60      H        0.97770    0.51910    0.20300    1.000
    Zn7      Zn       0.60204    0.47513    0.79917    1.000
    Zn8      Zn       0.60267    0.76729    0.93592    1.000
    Zn9      Zn       0.67959    0.60795    0.87569    1.000
    O29      O        0.61681    0.57899    0.78272    1.000
    O30      O        0.35496    0.48305    0.05762    1.000
    O31      O        0.58225    0.66654    0.90500    1.000
    O32      O        0.70666    0.79339    0.90319    1.000
    O33      O        0.43913    0.56024    0.11060    1.000
    N5       N        0.53738    0.42026    0.72248    1.000
    C69      C        0.40502    0.53220    0.05505    1.000
    O34      O        0.29344    0.93960    0.70521    1.000
    O35      O        0.23368    0.04072    0.65950    1.000
    C70      C        0.38366    0.54183    0.92131    1.000
    H61      H        0.33970    0.51150    0.92490    1.000
    O36      O        0.61330    0.70640    0.53948    1.000
    O37      O        0.72188    0.69899    0.82647    1.000
    C71      C        0.47215    0.60951    0.84720    1.000
    O38      O        0.49117    0.72651    0.51788    1.000
    N6       N        0.45965    0.33830    0.63257    1.000
    C72      C        0.49162    0.60429    0.97704    1.000
    H62      H        0.51990    0.61800    0.01970    1.000
    C73      C        0.58280    0.64952    0.67879    1.000
    H63      H        0.63280    0.64330    0.66150    1.000
    C74      C        0.43886    0.67266    0.73080    1.000
    H64      H        0.38950    0.68140    0.74880    1.000
    C75      C        0.52818    0.68576    0.63600    1.000
    C76      C        0.51616    0.62777    0.90984    1.000
    C77      C        0.56525    0.62213    0.74678    1.000
    C78      C        0.42716    0.33482    0.70588    1.000
    H65      H        0.37330    0.35120    0.70320    1.000
    H66      H        0.42850    0.28320    0.72350    1.000
    C79      C        0.42652    0.56114    0.98288    1.000
    C80      C        0.47269    0.38429    0.75910    1.000
    H67      H        0.49260    0.35420    0.80030    1.000
    H68      H        0.43870    0.42270    0.77850    1.000
    C81      C        0.49276    0.63558    0.77421    1.000
    C82      C        0.81263    0.79387    0.82633    1.000
    C83      C        0.40602    0.56757    0.85392    1.000
    H69      H        0.37560    0.55630    0.81190    1.000
    C84      C        0.23426    0.97843    0.68876    1.000
    C85      C        0.50610    0.46496    0.66125    1.000
    H70      H        0.47370    0.50500    0.68000    1.000
    H71      H        0.54850    0.48800    0.63530    1.000
    C86      C        0.45548    0.69710    0.66215    1.000
    H72      H        0.41760    0.72150    0.63300    1.000
    C87      C        0.58636    0.36079    0.69289    1.000
    H73      H        0.63050    0.38320    0.66900    1.000
    H74      H        0.60610    0.32910    0.73300    1.000
    C88      C        0.54041    0.31375    0.63808    1.000
    H75      H        0.54250    0.26130    0.65320    1.000
    H76      H        0.56340    0.31770    0.59000    1.000
    C89      C        0.45840    0.41633    0.60833    1.000
    H77      H        0.47930    0.41980    0.55930    1.000
    H78      H        0.40510    0.43440    0.60570    1.000
    C90      C        0.92515    0.78352    0.75564    1.000
    C91      C        0.15952    0.94528    0.70820    1.000
    O39      O        0.96650    0.74230    0.70889    1.000
    H79      H        0.01100    0.73670    0.72610    1.000
    C92      C        0.94651    0.85462    0.77409    1.000
    C93      C        0.09311    0.98349    0.69464    1.000
    H80      H        0.09480    0.03040    0.67170    1.000
    C94      C        0.02035    0.88632    0.75005    1.000
    C95      C        0.02344    0.95450    0.71407    1.000
    C96      C        0.15748    0.87707    0.74340    1.000
    H81      H        0.20320    0.85040    0.75350    1.000
    C97      C        0.08815    0.84890    0.76330    1.000
    H82      H        0.08690    0.80230    0.78680    1.000
    O40      O        0.95740    0.99204    0.69680    1.000
    H83      H        0.95890    0.03390    0.71640    1.000
    C98      C        0.54432    0.70820    0.56007    1.000
    C99      C        0.74182    0.75918    0.85422    1.000
    C100     C        0.85853    0.75318    0.78182    1.000
    H84      H        0.84450    0.70410    0.76900    1.000
    C101     C        0.83287    0.86570    0.84329    1.000
    H85      H        0.80160    0.89480    0.87310    1.000
    C102     C        0.89912    0.89476    0.81642    1.000
    H86      H        0.91220    0.94440    0.82780    1.000
    O41      O        0.08960    0.78520    0.80800    1.000
    H87      H        0.11910    0.75360    0.79090    1.000
    O42      O        0.91440    0.96770    0.83210    1.000
    H88      H        0.89650    0.99450    0.79860    1.000
    H89      H        0.95610    0.75510    0.72490    1.000
    H90      H        0.97770    0.98090    0.70300    1.000
    Zn10     Zn       0.39796    0.97513    0.70083    1.000
    Zn11     Zn       0.39733    0.26729    0.56408    1.000
    Zn12     Zn       0.32041    0.10795    0.62431    1.000
    O43      O        0.38319    0.07899    0.71728    1.000
    O44      O        0.64504    0.98305    0.44238    1.000
    O45      O        0.41775    0.16654    0.59500    1.000
    O46      O        0.29334    0.29339    0.59681    1.000
    O47      O        0.56087    0.06024    0.38940    1.000
    N7       N        0.46262    0.92026    0.77752    1.000
    C103     C        0.59498    0.03220    0.44495    1.000
    O48      O        0.70656    0.43960    0.79479    1.000
    O49      O        0.76632    0.54072    0.84050    1.000
    C104     C        0.61634    0.04183    0.57869    1.000
    H91      H        0.66030    0.01150    0.57510    1.000
    O50      O        0.38670    0.20640    0.96052    1.000
    O51      O        0.27812    0.19899    0.67353    1.000
    C105     C        0.52785    0.10951    0.65280    1.000
    O52      O        0.50883    0.22651    0.98212    1.000
    N8       N        0.54035    0.83830    0.86743    1.000
    C106     C        0.50838    0.10429    0.52296    1.000
    H92      H        0.48010    0.11800    0.48030    1.000
    C107     C        0.41720    0.14952    0.82121    1.000
    H93      H        0.36720    0.14330    0.83850    1.000
    C108     C        0.56114    0.17266    0.76920    1.000
    H94      H        0.61050    0.18140    0.75120    1.000
    C109     C        0.47182    0.18576    0.86400    1.000
    C110     C        0.48384    0.12777    0.59016    1.000
    C111     C        0.43475    0.12213    0.75322    1.000
    C112     C        0.57284    0.83482    0.79412    1.000
    H95      H        0.62670    0.85120    0.79680    1.000
    H96      H        0.57150    0.78320    0.77650    1.000
    C113     C        0.57348    0.06114    0.51712    1.000
    C114     C        0.52731    0.88429    0.74090    1.000
    H97      H        0.50740    0.85420    0.69970    1.000
    H98      H        0.56130    0.92270    0.72150    1.000
    C115     C        0.50724    0.13558    0.72579    1.000
    C116     C        0.18737    0.29387    0.67367    1.000
    C117     C        0.59398    0.06757    0.64608    1.000
    H99      H        0.62440    0.05630    0.68810    1.000
    C118     C        0.76574    0.47843    0.81124    1.000
    C119     C        0.49390    0.96496    0.83875    1.000
    H100     H        0.52630    0.00500    0.82000    1.000
    H101     H        0.45150    0.98800    0.86470    1.000
    C120     C        0.54452    0.19710    0.83785    1.000
    H102     H        0.58240    0.22150    0.86700    1.000
    C121     C        0.41364    0.86079    0.80711    1.000
    H103     H        0.36950    0.88320    0.83100    1.000
    H104     H        0.39390    0.82910    0.76700    1.000
    C122     C        0.45959    0.81375    0.86192    1.000
    H105     H        0.45750    0.76130    0.84680    1.000
    H106     H        0.43660    0.81770    0.91000    1.000
    C123     C        0.54160    0.91633    0.89167    1.000
    H107     H        0.52070    0.91980    0.94070    1.000
    H108     H        0.59490    0.93440    0.89430    1.000
    C124     C        0.07485    0.28352    0.74436    1.000
    C125     C        0.84048    0.44528    0.79180    1.000
    O53      O        0.03350    0.24230    0.79111    1.000
    H109     H        0.98900    0.23670    0.77390    1.000
    C126     C        0.05349    0.35462    0.72591    1.000
    C127     C        0.90689    0.48349    0.80536    1.000
    H110     H        0.90520    0.53040    0.82830    1.000
    C128     C        0.97965    0.38632    0.74995    1.000
    C129     C        0.97656    0.45450    0.78593    1.000
    C130     C        0.84252    0.37707    0.75660    1.000
    H111     H        0.79680    0.35040    0.74650    1.000
    C131     C        0.91185    0.34890    0.73670    1.000
    H112     H        0.91310    0.30230    0.71320    1.000
    O54      O        0.04260    0.49204    0.80320    1.000
    H113     H        0.04110    0.53390    0.78360    1.000
    C132     C        0.45568    0.20820    0.93993    1.000
    C133     C        0.25818    0.25918    0.64578    1.000
    C134     C        0.14147    0.25318    0.71818    1.000
    H114     H        0.15550    0.20410    0.73100    1.000
    C135     C        0.16713    0.36570    0.65671    1.000
    H115     H        0.19840    0.39480    0.62690    1.000
    C136     C        0.10088    0.39476    0.68358    1.000
    H116     H        0.08780    0.44440    0.67220    1.000
    O55      O        0.91040    0.28520    0.69200    1.000
    H117     H        0.88090    0.25360    0.70910    1.000
    O56      O        0.08560    0.46770    0.66790    1.000
    H118     H        0.10350    0.49450    0.70140    1.000
    H119     H        0.04390    0.25510    0.77510    1.000
    H120     H        0.02230    0.48090    0.79700    1.000
