data_functionalizedCrystal
_audit_creation_method	'EQeq! by Chris Wilmer'
_symmetry_space_group_name_H-M	'P1'
_symmetry_Int_Tables_number	1
_symmetry_cell_setting	triclinic
loop_
_symmetry_equiv_pos_as_xyz
  x,y,z
_cell_length_a	29.7931
_cell_length_b	12.7929
_cell_length_c	13.7893
_cell_angle_alpha	90
_cell_angle_beta	95.185
_cell_angle_gamma	90
loop_
_atom_site_label
_atom_site_type_symbol
_atom_site_fract_x
_atom_site_fract_y
_atom_site_fract_z
_atom_site_charge
Mof_C 	C 	0.6032	0.2382	0.0371	0.326
Mof_C 	C 	0.5568	0.2582	0.0683	-0.108
Mof_C 	C 	0.5267	0.1748	0.0755	0.04
Mof_H 	H 	0.5354	0.1067	0.0631	0.023
Mof_C 	C 	0.4835	0.1957	0.1016	-0.137
Mof_H 	H 	0.4637	0.1407	0.1086	0.076
Mof_C 	C 	0.4699	0.2962	0.117	0.085
Mof_C 	C 	0.4995	0.3773	0.1123	-0.131
Mof_H 	H 	0.4906	0.4449	0.1262	0.083
Mof_C 	C 	0.5433	0.3586	0.0864	0.042
Mof_H 	H 	0.5632	0.414	0.0815	0.029
Mof_C 	C 	0.4221	0.3113	0.1373	-0.019
Mof_H 	H 	0.405	0.247	0.154	0.043
Mof_C 	C 	0.2556	0.5573	0.0522	0.442
Mof_C 	C 	0.2853	0.4864	0.112	-0.145
Mof_C 	C 	0.3317	0.481	0.1028	-0.026
Mof_H 	H 	0.3446	0.5251	0.0597	0.039
Mof_C 	C 	0.3584	0.4097	0.1581	0.049
Mof_C 	C 	0.3398	0.3481	0.2264	-0.023
Mof_H 	H 	0.358	0.3018	0.2642	0.059
Mof_C 	C 	0.2937	0.3546	0.2392	-0.132
Mof_C 	C 	0.2663	0.4215	0.1789	0.066
Mof_H 	H 	0.2354	0.4227	0.1834	0.025
Mof_C 	C 	0.2737	0.2918	0.3164	0.465
Mof_C 	C 	0.1124	0.5299	0.8193	0.03
Mof_H 	H 	0.0869	0.5634	0.8378	-0.003
Mof_C 	C 	0.1128	0.455	0.7474	-0.01
Mof_H 	H 	0.0881	0.432	0.707	0.044
Mof_C 	C 	0.1801	0.4764	0.8138	0.118
Mof_H 	H 	0.211	0.4676	0.8283	-0.012
Mof_N 	N 	0.4048	0.4032	0.143	-0.113
Mof_N 	N 	0.1547	0.5469	0.8585	-0.256
Mof_N 	N 	0.1552	0.4218	0.7468	-0.114
Mof_O 	O 	0.61637	0.1465	0.0298	-0.445
Mof_O 	O 	0.6271	0.3154	0.0173	-0.449
Mof_O 	O 	0.2149	0.536	0.0348	-0.479
Mof_O 	O 	0.27173	0.6426	0.0223	-0.632
Mof_O 	O 	0.29806	0.2265	0.3639	-0.492
Mof_O 	O 	0.2329	0.312	0.3293	-0.544
Mof_Eu	Eu	0.18658	0.69945	0.96209	2.184
Mof_C 	C 	0.1032	0.7382	0.0371	0.327
Mof_C 	C 	0.0568	0.7582	0.0683	-0.109
Mof_C 	C 	0.0267	0.6748	0.0755	0.043
Mof_H 	H 	0.0354	0.6067	0.0631	0.023
Mof_C 	C 	0.9835	0.6957	0.1016	-0.138
Mof_H 	H 	0.9637	0.6407	0.1086	0.077
Mof_C 	C 	0.9699	0.7962	0.117	0.088
Mof_C 	C 	0.9995	0.8773	0.1123	-0.133
Mof_H 	H 	0.9906	0.9449	0.1262	0.083
Mof_C 	C 	0.0433	0.8586	0.0864	0.045
Mof_H 	H 	0.0632	0.914	0.0815	0.029
Mof_C 	C 	0.9221	0.8113	0.1373	-0.02
Mof_H 	H 	0.905	0.747	0.154	0.043
Mof_C 	C 	0.7556	0.0573	0.0522	0.442
Mof_C 	C 	0.7853	0.9864	0.112	-0.146
Mof_C 	C 	0.8317	0.981	0.1028	-0.028
Mof_H 	H 	0.8446	0.0251	0.0597	0.041
Mof_C 	C 	0.8584	0.9097	0.1581	0.049
Mof_C 	C 	0.8398	0.8481	0.2264	-0.024
Mof_H 	H 	0.858	0.8018	0.2642	0.059
Mof_C 	C 	0.7937	0.8546	0.2392	-0.132
Mof_C 	C 	0.7663	0.9215	0.1789	0.066
Mof_H 	H 	0.7354	0.9227	0.1834	0.025
Mof_C 	C 	0.7737	0.7918	0.3164	0.465
Mof_C 	C 	0.6124	0.0299	0.8193	0.028
Mof_H 	H 	0.5869	0.0634	0.8378	-0.003
Mof_C 	C 	0.6128	0.955	0.7474	-0.009
Mof_H 	H 	0.5881	0.932	0.707	0.044
Mof_C 	C 	0.6801	0.9764	0.8138	0.119
Mof_H 	H 	0.711	0.9676	0.8283	-0.012
Mof_N 	N 	0.9048	0.9032	0.143	-0.114
Mof_N 	N 	0.6547	0.0469	0.8585	-0.256
Mof_N 	N 	0.6552	0.9218	0.7468	-0.115
Mof_O 	O 	0.11637	0.6465	0.0298	-0.446
Mof_O 	O 	0.1271	0.8154	0.0173	-0.45
Mof_O 	O 	0.7149	0.036	0.0348	-0.479
Mof_O 	O 	0.77173	0.1426	0.0223	-0.632
Mof_O 	O 	0.79806	0.7265	0.3639	-0.492
Mof_O 	O 	0.7329	0.812	0.3293	-0.544
Mof_Eu	Eu	0.68658	0.19945	0.96209	2.182
Mof_C 	C 	0.3968	0.2382	0.4629	0.327
Mof_C 	C 	0.4432	0.2582	0.4317	-0.107
Mof_C 	C 	0.4733	0.1748	0.4245	0.041
Mof_H 	H 	0.4646	0.1067	0.4369	0.023
Mof_C 	C 	0.5165	0.1957	0.3984	-0.136
Mof_H 	H 	0.5363	0.1407	0.3914	0.076
Mof_C 	C 	0.5301	0.2962	0.383	0.086
Mof_C 	C 	0.5005	0.3773	0.3877	-0.13
Mof_H 	H 	0.5094	0.4449	0.3738	0.083
Mof_C 	C 	0.4567	0.3586	0.4136	0.042
Mof_H 	H 	0.4368	0.414	0.4185	0.029
Mof_C 	C 	0.5779	0.3113	0.3627	-0.019
Mof_H 	H 	0.595	0.247	0.346	0.043
Mof_C 	C 	0.7444	0.5573	0.4478	0.442
Mof_C 	C 	0.7147	0.4864	0.388	-0.146
Mof_C 	C 	0.6683	0.481	0.3972	-0.026
Mof_H 	H 	0.6554	0.5251	0.4403	0.039
Mof_C 	C 	0.6416	0.4097	0.3419	0.049
Mof_C 	C 	0.6602	0.3481	0.2736	-0.023
Mof_H 	H 	0.642	0.3018	0.2358	0.059
Mof_C 	C 	0.7063	0.3546	0.2608	-0.132
Mof_C 	C 	0.7337	0.4215	0.3211	0.066
Mof_H 	H 	0.7646	0.4227	0.3166	0.025
Mof_C 	C 	0.7263	0.2918	0.1836	0.465
Mof_C 	C 	0.8876	0.5299	0.6807	0.03
Mof_H 	H 	0.9131	0.5634	0.6622	-0.003
Mof_C 	C 	0.8872	0.455	0.7526	-0.01
Mof_H 	H 	0.9119	0.432	0.793	0.044
Mof_C 	C 	0.8199	0.4764	0.6862	0.119
Mof_H 	H 	0.789	0.4676	0.6717	-0.012
Mof_N 	N 	0.5952	0.4032	0.357	-0.113
Mof_N 	N 	0.8453	0.5469	0.6415	-0.256
Mof_N 	N 	0.8448	0.4218	0.7532	-0.114
Mof_O 	O 	0.38363	0.1465	0.4702	-0.446
Mof_O 	O 	0.3729	0.3154	0.4827	-0.45
Mof_O 	O 	0.7851	0.536	0.4652	-0.479
Mof_O 	O 	0.72827	0.6426	0.4777	-0.633
Mof_O 	O 	0.70194	0.2265	0.1361	-0.491
Mof_O 	O 	0.7671	0.312	0.1707	-0.544
Mof_Eu	Eu	0.81342	0.69945	0.53791	2.184
Mof_C 	C 	0.8968	0.7382	0.4629	0.327
Mof_C 	C 	0.9432	0.7582	0.4317	-0.107
Mof_C 	C 	0.9733	0.6748	0.4245	0.04
Mof_H 	H 	0.9646	0.6067	0.4369	0.024
Mof_C 	C 	0.0165	0.6957	0.3984	-0.135
Mof_H 	H 	0.0363	0.6407	0.3914	0.076
Mof_C 	C 	0.0301	0.7962	0.383	0.086
Mof_C 	C 	0.0005	0.8773	0.3877	-0.129
Mof_H 	H 	0.0094	0.9449	0.3738	0.083
Mof_C 	C 	0.9567	0.8586	0.4136	0.042
Mof_H 	H 	0.9368	0.914	0.4185	0.029
Mof_C 	C 	0.0779	0.8113	0.3627	-0.019
Mof_H 	H 	0.095	0.747	0.346	0.043
Mof_C 	C 	0.2444	0.0573	0.4478	0.442
Mof_C 	C 	0.2147	0.9864	0.388	-0.146
Mof_C 	C 	0.1683	0.981	0.3972	-0.026
Mof_H 	H 	0.1554	0.0251	0.4403	0.039
Mof_C 	C 	0.1416	0.9097	0.3419	0.049
Mof_C 	C 	0.1602	0.8481	0.2736	-0.023
Mof_H 	H 	0.142	0.8018	0.2358	0.059
Mof_C 	C 	0.2063	0.8546	0.2608	-0.133
Mof_C 	C 	0.2337	0.9215	0.3211	0.066
Mof_H 	H 	0.2646	0.9227	0.3166	0.025
Mof_C 	C 	0.2263	0.7918	0.1836	0.465
Mof_C 	C 	0.3876	0.0299	0.6807	0.028
Mof_H 	H 	0.4131	0.0634	0.6622	-0.003
Mof_C 	C 	0.3872	0.955	0.7526	-0.009
Mof_H 	H 	0.4119	0.932	0.793	0.044
Mof_C 	C 	0.3199	0.9764	0.6862	0.119
Mof_H 	H 	0.289	0.9676	0.6717	-0.012
Mof_N 	N 	0.0952	0.9032	0.357	-0.113
Mof_N 	N 	0.3453	0.0469	0.6415	-0.256
Mof_N 	N 	0.3448	0.9218	0.7532	-0.114
Mof_O 	O 	0.88363	0.6465	0.4702	-0.446
Mof_O 	O 	0.8729	0.8154	0.4827	-0.45
Mof_O 	O 	0.2851	0.036	0.4652	-0.479
Mof_O 	O 	0.22827	0.1426	0.4777	-0.633
Mof_O 	O 	0.20194	0.7265	0.1361	-0.492
Mof_O 	O 	0.2671	0.812	0.1707	-0.544
Mof_Eu	Eu	0.31342	0.19945	0.53791	2.183
Mof_C 	C 	0.3968	0.7618	0.9629	0.327
Mof_C 	C 	0.4432	0.7418	0.9317	-0.107
Mof_C 	C 	0.4733	0.8252	0.9245	0.041
Mof_H 	H 	0.4646	0.8933	0.9369	0.024
Mof_C 	C 	0.5165	0.8043	0.8984	-0.136
Mof_H 	H 	0.5363	0.8593	0.8914	0.077
Mof_C 	C 	0.5301	0.7038	0.883	0.086
Mof_C 	C 	0.5005	0.6227	0.8877	-0.13
Mof_H 	H 	0.5094	0.5551	0.8738	0.083
Mof_C 	C 	0.4567	0.6414	0.9136	0.042
Mof_H 	H 	0.4368	0.586	0.9185	0.029
Mof_C 	C 	0.5779	0.6887	0.8627	-0.019
Mof_H 	H 	0.595	0.753	0.846	0.043
Mof_C 	C 	0.7444	0.4427	0.9478	0.442
Mof_C 	C 	0.7147	0.5136	0.888	-0.145
Mof_C 	C 	0.6683	0.519	0.8972	-0.026
Mof_H 	H 	0.6554	0.4749	0.9403	0.039
Mof_C 	C 	0.6416	0.5903	0.8419	0.049
Mof_C 	C 	0.6602	0.6519	0.7736	-0.023
Mof_H 	H 	0.642	0.6982	0.7358	0.059
Mof_C 	C 	0.7063	0.6454	0.7608	-0.132
Mof_C 	C 	0.7337	0.5785	0.8211	0.066
Mof_H 	H 	0.7646	0.5773	0.8166	0.025
Mof_C 	C 	0.7263	0.7082	0.6836	0.465
Mof_C 	C 	0.8876	0.4701	0.1807	0.03
Mof_H 	H 	0.9131	0.4366	0.1622	-0.003
Mof_C 	C 	0.8872	0.545	0.2526	-0.01
Mof_H 	H 	0.9119	0.568	0.293	0.044
Mof_C 	C 	0.8199	0.5236	0.1862	0.118
Mof_H 	H 	0.789	0.5324	0.1717	-0.012
Mof_N 	N 	0.5952	0.5968	0.857	-0.113
Mof_N 	N 	0.8453	0.4531	0.1415	-0.256
Mof_N 	N 	0.8448	0.5782	0.2532	-0.114
Mof_O 	O 	0.38363	0.8535	0.9702	-0.445
Mof_O 	O 	0.3729	0.6846	0.9827	-0.449
Mof_O 	O 	0.7851	0.464	0.9652	-0.479
Mof_O 	O 	0.72827	0.3574	0.9777	-0.632
Mof_O 	O 	0.70194	0.7735	0.6361	-0.492
Mof_O 	O 	0.7671	0.688	0.6707	-0.544
Mof_Eu	Eu	0.81342	0.30055	0.03791	2.184
Mof_C 	C 	0.8968	0.2618	0.9629	0.327
Mof_C 	C 	0.9432	0.2418	0.9317	-0.109
Mof_C 	C 	0.9733	0.3252	0.9245	0.043
Mof_H 	H 	0.9646	0.3933	0.9369	0.023
Mof_C 	C 	0.0165	0.3043	0.8984	-0.138
Mof_H 	H 	0.0363	0.3593	0.8914	0.077
Mof_C 	C 	0.0301	0.2038	0.883	0.088
Mof_C 	C 	0.0005	0.1227	0.8877	-0.133
Mof_H 	H 	0.0094	0.0551	0.8738	0.083
Mof_C 	C 	0.9567	0.1414	0.9136	0.045
Mof_H 	H 	0.9368	0.086	0.9185	0.029
Mof_C 	C 	0.0779	0.1887	0.8627	-0.02
Mof_H 	H 	0.095	0.253	0.846	0.043
Mof_C 	C 	0.2444	0.9427	0.9478	0.442
Mof_C 	C 	0.2147	0.0136	0.888	-0.146
Mof_C 	C 	0.1683	0.019	0.8972	-0.028
Mof_H 	H 	0.1554	0.9749	0.9403	0.041
Mof_C 	C 	0.1416	0.0903	0.8419	0.049
Mof_C 	C 	0.1602	0.1519	0.7736	-0.024
Mof_H 	H 	0.142	0.1982	0.7358	0.059
Mof_C 	C 	0.2063	0.1454	0.7608	-0.132
Mof_C 	C 	0.2337	0.0785	0.8211	0.066
Mof_H 	H 	0.2646	0.0773	0.8166	0.025
Mof_C 	C 	0.2263	0.2082	0.6836	0.465
Mof_C 	C 	0.3876	0.9701	0.1807	0.028
Mof_H 	H 	0.4131	0.9366	0.1622	-0.003
Mof_C 	C 	0.3872	0.045	0.2526	-0.009
Mof_H 	H 	0.4119	0.068	0.293	0.044
Mof_C 	C 	0.3199	0.0236	0.1862	0.119
Mof_H 	H 	0.289	0.0324	0.1717	-0.012
Mof_N 	N 	0.0952	0.0968	0.857	-0.114
Mof_N 	N 	0.3453	0.9531	0.1415	-0.256
Mof_N 	N 	0.3448	0.0782	0.2532	-0.115
Mof_O 	O 	0.88363	0.3535	0.9702	-0.446
Mof_O 	O 	0.8729	0.1846	0.9827	-0.45
Mof_O 	O 	0.2851	0.964	0.9652	-0.479
Mof_O 	O 	0.22827	0.8574	0.9777	-0.632
Mof_O 	O 	0.20194	0.2735	0.6361	-0.492
Mof_O 	O 	0.2671	0.188	0.6707	-0.544
Mof_Eu	Eu	0.31342	0.80055	0.03791	2.182
Mof_C 	C 	0.6032	0.7618	0.5371	0.327
Mof_C 	C 	0.5568	0.7418	0.5683	-0.107
Mof_C 	C 	0.5267	0.8252	0.5755	0.041
Mof_H 	H 	0.5354	0.8933	0.5631	0.023
Mof_C 	C 	0.4835	0.8043	0.6016	-0.136
Mof_H 	H 	0.4637	0.8593	0.6086	0.076
Mof_C 	C 	0.4699	0.7038	0.617	0.086
Mof_C 	C 	0.4995	0.6227	0.6123	-0.13
Mof_H 	H 	0.4906	0.5551	0.6262	0.083
Mof_C 	C 	0.5433	0.6414	0.5864	0.042
Mof_H 	H 	0.5632	0.586	0.5815	0.029
Mof_C 	C 	0.4221	0.6887	0.6373	-0.019
Mof_H 	H 	0.405	0.753	0.654	0.043
Mof_C 	C 	0.2556	0.4427	0.5522	0.442
Mof_C 	C 	0.2853	0.5136	0.612	-0.146
Mof_C 	C 	0.3317	0.519	0.6028	-0.026
Mof_H 	H 	0.3446	0.4749	0.5597	0.039
Mof_C 	C 	0.3584	0.5903	0.6581	0.049
Mof_C 	C 	0.3398	0.6519	0.7264	-0.023
Mof_H 	H 	0.358	0.6982	0.7642	0.059
Mof_C 	C 	0.2937	0.6454	0.7392	-0.132
Mof_C 	C 	0.2663	0.5785	0.6789	0.066
Mof_H 	H 	0.2354	0.5773	0.6834	0.025
Mof_C 	C 	0.2737	0.7082	0.8164	0.465
Mof_C 	C 	0.1124	0.4701	0.3193	0.03
Mof_H 	H 	0.0869	0.4366	0.3378	-0.003
Mof_C 	C 	0.1128	0.545	0.2474	-0.01
Mof_H 	H 	0.0881	0.568	0.207	0.044
Mof_C 	C 	0.1801	0.5236	0.3138	0.119
Mof_H 	H 	0.211	0.5324	0.3283	-0.012
Mof_N 	N 	0.4048	0.5968	0.643	-0.113
Mof_N 	N 	0.1547	0.4531	0.3585	-0.256
Mof_N 	N 	0.1552	0.5782	0.2468	-0.114
Mof_O 	O 	0.61637	0.8535	0.5298	-0.446
Mof_O 	O 	0.6271	0.6846	0.5173	-0.45
Mof_O 	O 	0.2149	0.464	0.5348	-0.479
Mof_O 	O 	0.27173	0.3574	0.5223	-0.633
Mof_O 	O 	0.29806	0.7735	0.8639	-0.491
Mof_O 	O 	0.2329	0.688	0.8293	-0.544
Mof_Eu	Eu	0.18658	0.30055	0.46209	2.184
Mof_C 	C 	0.1032	0.2618	0.5371	0.327
Mof_C 	C 	0.0568	0.2418	0.5683	-0.107
Mof_C 	C 	0.0267	0.3252	0.5755	0.04
Mof_H 	H 	0.0354	0.3933	0.5631	0.024
Mof_C 	C 	0.9835	0.3043	0.6016	-0.135
Mof_H 	H 	0.9637	0.3593	0.6086	0.076
Mof_C 	C 	0.9699	0.2038	0.617	0.086
Mof_C 	C 	0.9995	0.1227	0.6123	-0.129
Mof_H 	H 	0.9906	0.0551	0.6262	0.083
Mof_C 	C 	0.0433	0.1414	0.5864	0.042
Mof_H 	H 	0.0632	0.086	0.5815	0.029
Mof_C 	C 	0.9221	0.1887	0.6373	-0.019
Mof_H 	H 	0.905	0.253	0.654	0.043
Mof_C 	C 	0.7556	0.9427	0.5522	0.442
Mof_C 	C 	0.7853	0.0136	0.612	-0.146
Mof_C 	C 	0.8317	0.019	0.6028	-0.026
Mof_H 	H 	0.8446	0.9749	0.5597	0.039
Mof_C 	C 	0.8584	0.0903	0.6581	0.049
Mof_C 	C 	0.8398	0.1519	0.7264	-0.023
Mof_H 	H 	0.858	0.1982	0.7642	0.059
Mof_C 	C 	0.7937	0.1454	0.7392	-0.133
Mof_C 	C 	0.7663	0.0785	0.6789	0.066
Mof_H 	H 	0.7354	0.0773	0.6834	0.025
Mof_C 	C 	0.7737	0.2082	0.8164	0.465
Mof_C 	C 	0.6124	0.9701	0.3193	0.028
Mof_H 	H 	0.5869	0.9366	0.3378	-0.003
Mof_C 	C 	0.6128	0.045	0.2474	-0.009
Mof_H 	H 	0.5881	0.068	0.207	0.044
Mof_C 	C 	0.6801	0.0236	0.3138	0.119
Mof_H 	H 	0.711	0.0324	0.3283	-0.012
Mof_N 	N 	0.9048	0.0968	0.643	-0.113
Mof_N 	N 	0.6547	0.9531	0.3585	-0.256
Mof_N 	N 	0.6552	0.0782	0.2468	-0.114
Mof_O 	O 	0.11637	0.3535	0.5298	-0.446
Mof_O 	O 	0.1271	0.1846	0.5173	-0.45
Mof_O 	O 	0.7149	0.964	0.5348	-0.479
Mof_O 	O 	0.77173	0.8574	0.5223	-0.633
Mof_O 	O 	0.79806	0.2735	0.8639	-0.492
Mof_O 	O 	0.7329	0.188	0.8293	-0.544
Mof_Eu	Eu	0.68658	0.80055	0.46209	2.183
_end
