# CIF file generated by openbabel 3.1.0, see https://openbabel.org
data_I
_chemical_name_common 'TEBFUD_clean'
_cell_length_a 7.1491
_cell_length_b 10.7063
_cell_length_c 17.1197
_cell_angle_alpha 97.097
_cell_angle_beta 90
_cell_angle_gamma 90
_space_group_name_H-M_alt 'P 1'
_space_group_name_Hall 'P 1'
loop_
    _symmetry_equiv_pos_as_xyz
    x,y,z
loop_
    _atom_site_label
    _atom_site_type_symbol
    _atom_site_fract_x
    _atom_site_fract_y
    _atom_site_fract_z
    _atom_site_occupancy
    Dy1      Dy       0.02016    0.17632    0.74667    1.000
    Dy2      Dy       0.52016    0.32368    0.75333    1.000
    Dy3      Dy       0.97984    0.82368    0.25333    1.000
    Dy4      Dy       0.47984    0.67632    0.24667    1.000
    H1       H        0.17920    0.99500    0.52190    1.000
    H2       H        0.46160    0.69250    0.56340    1.000
    H3       H        0.15990    0.33720    0.55170    1.000
    H4       H        0.67920    0.50500    0.97810    1.000
    H5       H        0.96160    0.80750    0.93660    1.000
    H6       H        0.65990    0.16280    0.94830    1.000
    H7       H        0.82080    0.00500    0.47810    1.000
    H8       H        0.53840    0.30750    0.43660    1.000
    H9       H        0.84010    0.66280    0.44830    1.000
    H10      H        0.32080    0.49500    0.02190    1.000
    H11      H        0.03840    0.19250    0.06340    1.000
    H12      H        0.34010    0.83720    0.05170    1.000
    C1       C        0.32620    0.08500    0.64909    1.000
    C2       C        0.42510    0.04270    0.57364    1.000
    C3       C        0.30950    0.99410    0.51204    1.000
    C4       C        0.75230    0.09610    0.62582    1.000
    C5       C        0.61800    0.04860    0.56196    1.000
    C6       C        0.85240    0.39090    0.63480    1.000
    C7       C        0.92760    0.45260    0.56695    1.000
    C8       C        0.83950    0.55320    0.53699    1.000
    C9       C        0.67920    0.62160    0.57911    1.000
    C10      C        0.08920    0.40140    0.52972    1.000
    C11      C        0.82620    0.41500    0.85091    1.000
    C12      C        0.92510    0.45730    0.92636    1.000
    C13      C        0.80950    0.50590    0.98796    1.000
    C14      C        0.25230    0.40390    0.87418    1.000
    C15      C        0.11800    0.45140    0.93804    1.000
    C16      C        0.35240    0.10910    0.86520    1.000
    C17      C        0.42760    0.04740    0.93305    1.000
    C18      C        0.33950    0.94680    0.96301    1.000
    C19      C        0.17920    0.87840    0.92089    1.000
    C20      C        0.58920    0.09860    0.97028    1.000
    C21      C        0.67380    0.91500    0.35091    1.000
    C22      C        0.57490    0.95730    0.42636    1.000
    C23      C        0.69050    0.00590    0.48796    1.000
    C24      C        0.24770    0.90390    0.37418    1.000
    C25      C        0.38200    0.95140    0.43804    1.000
    C26      C        0.14760    0.60910    0.36520    1.000
    C27      C        0.07240    0.54740    0.43305    1.000
    C28      C        0.16050    0.44680    0.46301    1.000
    C29      C        0.32080    0.37840    0.42089    1.000
    C30      C        0.91080    0.59860    0.47028    1.000
    C31      C        0.17380    0.58500    0.14909    1.000
    C32      C        0.07490    0.54270    0.07364    1.000
    C33      C        0.19050    0.49410    0.01204    1.000
    C34      C        0.74770    0.59610    0.12582    1.000
    C35      C        0.88200    0.54860    0.06196    1.000
    C36      C        0.64760    0.89090    0.13480    1.000
    C37      C        0.57240    0.95260    0.06695    1.000
    C38      C        0.66050    0.05320    0.03699    1.000
    C39      C        0.82080    0.12160    0.07911    1.000
    C40      C        0.41080    0.90140    0.02972    1.000
    O1       O        0.97040    0.34474    0.67664    1.000
    O2       O        0.30770    0.20349    0.67092    1.000
    O3       O        0.69000    0.14503    0.69270    1.000
    O4       O        0.24550    0.00645    0.68509    1.000
    O5       O        0.92270    0.08483    0.61411    1.000
    O6       O        0.67840    0.38662    0.64399    1.000
    O7       O        0.68020    0.65253    0.65010    1.000
    O8       O        0.54500    0.64860    0.53277    1.000
    O9       O        0.47040    0.15526    0.82336    1.000
    O10      O        0.80770    0.29651    0.82908    1.000
    O11      O        0.19000    0.35497    0.80730    1.000
    O12      O        0.74550    0.49355    0.81491    1.000
    O13      O        0.42270    0.41517    0.88589    1.000
    O14      O        0.17840    0.11338    0.85601    1.000
    O15      O        0.18020    0.84747    0.84990    1.000
    O16      O        0.04500    0.85140    0.96723    1.000
    O17      O        0.02960    0.65526    0.32336    1.000
    O18      O        0.69230    0.79651    0.32908    1.000
    O19      O        0.31000    0.85497    0.30730    1.000
    O20      O        0.75450    0.99355    0.31491    1.000
    O21      O        0.07730    0.91517    0.38589    1.000
    O22      O        0.32160    0.61338    0.35601    1.000
    O23      O        0.31980    0.34747    0.34990    1.000
    O24      O        0.45500    0.35140    0.46723    1.000
    O25      O        0.52960    0.84474    0.17664    1.000
    O26      O        0.19230    0.70349    0.17092    1.000
    O27      O        0.81000    0.64503    0.19270    1.000
    O28      O        0.25450    0.50645    0.18509    1.000
    O29      O        0.57730    0.58483    0.11411    1.000
    O30      O        0.82160    0.88662    0.14399    1.000
    O31      O        0.81980    0.15253    0.15010    1.000
    O32      O        0.95500    0.14860    0.03277    1.000
