data_functionalizedCrystal
_audit_creation_method	'EQeq! by Chris Wilmer'
_symmetry_space_group_name_H-M	'P1'
_symmetry_Int_Tables_number	1
_symmetry_cell_setting	triclinic
loop_
_symmetry_equiv_pos_as_xyz
  x,y,z
_cell_length_a	14.5758
_cell_length_b	23.245
_cell_length_c	24.815
_cell_angle_alpha	90
_cell_angle_beta	102.904
_cell_angle_gamma	90
loop_
_atom_site_label
_atom_site_type_symbol
_atom_site_fract_x
_atom_site_fract_y
_atom_site_fract_z
_atom_site_charge
Mof_Eu	Eu	0.75625	0.74288	0.77122	2.398
Mof_Eu	Eu	0.26339	0.26554	0.07082	2.283
Mof_Eu	Eu	0.76125	0.7821	0.10669	2.09
Mof_Eu	Eu	0.24375	0.24288	0.72878	2.398
Mof_Eu	Eu	0.73661	0.76554	0.42918	2.283
Mof_Eu	Eu	0.23875	0.2821	0.39331	2.09
Mof_Eu	Eu	0.24375	0.25712	0.22878	2.398
Mof_Eu	Eu	0.73661	0.73446	0.92918	2.283
Mof_Eu	Eu	0.23875	0.2179	0.89331	2.09
Mof_Eu	Eu	0.75625	0.75712	0.27122	2.398
Mof_Eu	Eu	0.26339	0.23446	0.57082	2.283
Mof_Eu	Eu	0.76125	0.7179	0.60669	2.09
Mof_H 	H 	0.1447	0.5359	0.9339	0.1
Mof_H 	H 	0.1506	0.4409	0.9563	0.001
Mof_H 	H 	0.3709	0.4688	0.0827	0.008
Mof_H 	H 	0.3671	0.565	0.0617	0.105
Mof_H 	H 	0.4106	0.5993	0.9491	0.134
Mof_H 	H 	0.5487	0.6486	0.9667	-0.042
Mof_H 	H 	0.4382	0.7694	0.046	-0.016
Mof_H 	H 	0.2977	0.7184	0.0313	0.12
Mof_H 	H 	0.2324	0.7045	0.9105	0.107
Mof_H 	H 	0.0989	0.7506	0.8632	-0.007
Mof_H 	H 	0.9435	0.6543	0.9412	-0.009
Mof_H 	H 	0.0787	0.6093	0.9925	0.111
Mof_H 	H 	0.1134	0.571	0.8425	0.114
Mof_H 	H 	0.9705	0.612	0.8047	-0.017
Mof_H 	H 	0.0817	0.6812	0.6847	-0.014
Mof_H 	H 	0.2262	0.6378	0.7239	0.116
Mof_H 	H 	0.366	0.5076	0.8899	0.115
Mof_H 	H 	0.3693	0.4079	0.8988	-0.004
Mof_H 	H 	0.1531	0.3966	0.7665	-0.023
Mof_H 	H 	0.158	0.4953	0.7569	0.119
Mof_H 	H 	0.4211	0.527	0.7856	0.12
Mof_H 	H 	0.5617	0.5709	0.7855	-0.012
Mof_H 	H 	0.4667	0.7157	0.8398	-0.049
Mof_H 	H 	0.325	0.6759	0.836	0.128
Mof_H 	H 	0.6781	0.04	0.8095	0.121
Mof_H 	H 	0.6798	0.9444	0.7874	-0.023
Mof_H 	H 	0.8071	0.9087	0.9436	-0.03
Mof_H 	H 	0.8049	0.0051	0.9671	0.115
Mof_H 	H 	0.7224	0.1937	0.8517	0.113
Mof_H 	H 	0.5821	0.2415	0.817	-0.006
Mof_H 	H 	0.4395	0.1187	0.8751	-0.036
Mof_H 	H 	0.5781	0.0699	0.91	0.11
Mof_H 	H 	0.9122	0.0646	0.889	0.134
Mof_H 	H 	0.0567	0.1077	0.9239	-0.056
Mof_H 	H 	0.9326	0.2269	0.9965	-0.031
Mof_H 	H 	0.7915	0.1846	0.964	0.134
Mof_H 	H 	0.8553	0.0359	0.5661	0.1
Mof_H 	H 	0.8494	0.9409	0.5437	0
Mof_H 	H 	0.6291	0.9688	0.4173	0.008
Mof_H 	H 	0.6329	0.065	0.4383	0.105
Mof_H 	H 	0.5894	0.0993	0.5509	0.134
Mof_H 	H 	0.4513	0.1486	0.5333	-0.042
Mof_H 	H 	0.5618	0.2694	0.454	-0.016
Mof_H 	H 	0.7023	0.2184	0.4687	0.12
Mof_H 	H 	0.7676	0.2045	0.5895	0.107
Mof_H 	H 	0.9011	0.2506	0.6368	-0.006
Mof_H 	H 	0.0565	0.1543	0.5588	-0.009
Mof_H 	H 	0.9213	0.1093	0.5075	0.111
Mof_H 	H 	0.8866	0.071	0.6575	0.114
Mof_H 	H 	0.0295	0.112	0.6953	-0.018
Mof_H 	H 	0.9183	0.1812	0.8153	-0.014
Mof_H 	H 	0.7738	0.1378	0.7761	0.116
Mof_H 	H 	0.634	0.0076	0.6101	0.114
Mof_H 	H 	0.6307	0.9079	0.6012	-0.004
Mof_H 	H 	0.8469	0.8966	0.7335	-0.023
Mof_H 	H 	0.842	0.9953	0.7431	0.119
Mof_H 	H 	0.5789	0.027	0.7144	0.12
Mof_H 	H 	0.4383	0.0709	0.7145	-0.012
Mof_H 	H 	0.5333	0.2157	0.6602	-0.049
Mof_H 	H 	0.675	0.1759	0.664	0.128
Mof_H 	H 	0.3219	0.54	0.6905	0.121
Mof_H 	H 	0.3202	0.4444	0.7126	-0.023
Mof_H 	H 	0.1929	0.4087	0.5564	-0.03
Mof_H 	H 	0.1951	0.5051	0.5329	0.116
Mof_H 	H 	0.2776	0.6937	0.6483	0.113
Mof_H 	H 	0.4179	0.7415	0.683	-0.006
Mof_H 	H 	0.5605	0.6187	0.6249	-0.035
Mof_H 	H 	0.4219	0.5699	0.59	0.11
Mof_H 	H 	0.0878	0.5646	0.611	0.134
Mof_H 	H 	0.9433	0.6077	0.5761	-0.056
Mof_H 	H 	0.0674	0.7269	0.5035	-0.031
Mof_H 	H 	0.2085	0.6846	0.536	0.134
Mof_H 	H 	0.8553	0.4641	0.0661	0.1
Mof_H 	H 	0.8494	0.5591	0.0437	0.001
Mof_H 	H 	0.6291	0.5312	0.9173	0.008
Mof_H 	H 	0.6329	0.435	0.9383	0.105
Mof_H 	H 	0.5894	0.4007	0.0509	0.134
Mof_H 	H 	0.4513	0.3514	0.0333	-0.042
Mof_H 	H 	0.5618	0.2306	0.954	-0.016
Mof_H 	H 	0.7023	0.2816	0.9687	0.12
Mof_H 	H 	0.7676	0.2955	0.0895	0.107
Mof_H 	H 	0.9011	0.2494	0.1368	-0.007
Mof_H 	H 	0.0565	0.3457	0.0588	-0.009
Mof_H 	H 	0.9213	0.3907	0.0075	0.111
Mof_H 	H 	0.8866	0.429	0.1575	0.114
Mof_H 	H 	0.0295	0.388	0.1953	-0.017
Mof_H 	H 	0.9183	0.3188	0.3153	-0.014
Mof_H 	H 	0.7738	0.3622	0.2761	0.116
Mof_H 	H 	0.634	0.4924	0.1101	0.115
Mof_H 	H 	0.6307	0.5921	0.1012	-0.004
Mof_H 	H 	0.8469	0.6034	0.2335	-0.023
Mof_H 	H 	0.842	0.5047	0.2431	0.119
Mof_H 	H 	0.5789	0.473	0.2144	0.12
Mof_H 	H 	0.4383	0.4291	0.2145	-0.012
Mof_H 	H 	0.5333	0.2843	0.1602	-0.049
Mof_H 	H 	0.675	0.3241	0.164	0.128
Mof_H 	H 	0.3219	0.96	0.1905	0.121
Mof_H 	H 	0.3202	0.0556	0.2126	-0.023
Mof_H 	H 	0.1929	0.0913	0.0564	-0.03
Mof_H 	H 	0.1951	0.9949	0.0329	0.115
Mof_H 	H 	0.2776	0.8063	0.1483	0.113
Mof_H 	H 	0.4179	0.7585	0.183	-0.006
Mof_H 	H 	0.5605	0.8813	0.1249	-0.036
Mof_H 	H 	0.4219	0.9301	0.09	0.11
Mof_H 	H 	0.0878	0.9354	0.111	0.134
Mof_H 	H 	0.9433	0.8923	0.0761	-0.056
Mof_H 	H 	0.0674	0.7731	0.0035	-0.031
Mof_H 	H 	0.2085	0.8154	0.036	0.134
Mof_H 	H 	0.1447	0.9641	0.4339	0.1
Mof_H 	H 	0.1506	0.0591	0.4563	0
Mof_H 	H 	0.3709	0.0312	0.5827	0.008
Mof_H 	H 	0.3671	0.935	0.5617	0.105
Mof_H 	H 	0.4106	0.9007	0.4491	0.134
Mof_H 	H 	0.5487	0.8514	0.4667	-0.042
Mof_H 	H 	0.4382	0.7306	0.546	-0.016
Mof_H 	H 	0.2977	0.7816	0.5313	0.12
Mof_H 	H 	0.2324	0.7955	0.4105	0.107
Mof_H 	H 	0.0989	0.7494	0.3632	-0.006
Mof_H 	H 	0.9435	0.8457	0.4412	-0.009
Mof_H 	H 	0.0787	0.8907	0.4925	0.111
Mof_H 	H 	0.1134	0.929	0.3425	0.114
Mof_H 	H 	0.9705	0.888	0.3047	-0.018
Mof_H 	H 	0.0817	0.8188	0.1847	-0.014
Mof_H 	H 	0.2262	0.8622	0.2239	0.116
Mof_H 	H 	0.366	0.9924	0.3899	0.114
Mof_H 	H 	0.3693	0.0921	0.3988	-0.004
Mof_H 	H 	0.1531	0.1034	0.2665	-0.023
Mof_H 	H 	0.158	0.0047	0.2569	0.119
Mof_H 	H 	0.4211	0.973	0.2856	0.12
Mof_H 	H 	0.5617	0.9291	0.2855	-0.012
Mof_H 	H 	0.4667	0.7843	0.3398	-0.049
Mof_H 	H 	0.325	0.8241	0.336	0.128
Mof_H 	H 	0.6781	0.46	0.3095	0.121
Mof_H 	H 	0.6798	0.5556	0.2874	-0.023
Mof_H 	H 	0.8071	0.5913	0.4436	-0.03
Mof_H 	H 	0.8049	0.4949	0.4671	0.116
Mof_H 	H 	0.7224	0.3063	0.3517	0.113
Mof_H 	H 	0.5821	0.2585	0.317	-0.006
Mof_H 	H 	0.4395	0.3813	0.3751	-0.035
Mof_H 	H 	0.5781	0.4301	0.41	0.11
Mof_H 	H 	0.9122	0.4354	0.389	0.134
Mof_H 	H 	0.0567	0.3923	0.4239	-0.056
Mof_H 	H 	0.9326	0.2731	0.4965	-0.031
Mof_H 	H 	0.7915	0.3154	0.464	0.134
Mof_C 	C 	0.2561	0.5619	0.9954	0.167
Mof_C 	C 	0.19	0.5227	0.9639	-0.2
Mof_C 	C 	0.1933	0.466	0.9778	0.105
Mof_C 	C 	0.2586	0.4439	0.0234	-0.163
Mof_C 	C 	0.3248	0.4825	0.0533	0.101
Mof_C 	C 	0.3233	0.5403	0.0404	-0.2
Mof_C 	C 	0.2561	0.384	0.0398	0.363
Mof_C 	C 	0.4168	0.6329	0.97	-0.292
Mof_C 	C 	0.4981	0.6626	0.9799	0.202
Mof_C 	C 	0.5079	0.7126	0.0087	-0.249
Mof_C 	C 	0.4325	0.7343	0.0275	0.164
Mof_C 	C 	0.349	0.7044	0.0188	-0.257
Mof_C 	C 	0.3443	0.6522	0.9906	0.215
Mof_C 	C 	0.5985	0.7473	0.0231	0.446
Mof_C 	C 	0.1696	0.6495	0.9535	0.18
Mof_C 	C 	0.1741	0.6933	0.9163	-0.223
Mof_C 	C 	0.0935	0.7209	0.8874	0.135
Mof_C 	C 	0.0057	0.7051	0.8939	-0.202
Mof_C 	C 	0.0018	0.6638	0.9343	0.132
Mof_C 	C 	0.083	0.6359	0.9652	-0.221
Mof_C 	C 	0.9164	0.728	0.8611	0.44
Mof_C 	C 	0.1845	0.5998	0.7859	0.197
Mof_C 	C 	0.1065	0.5928	0.8104	-0.237
Mof_C 	C 	0.0212	0.6172	0.7882	0.156
Mof_C 	C 	0.0116	0.6499	0.7404	-0.228
Mof_C 	C 	0.088	0.6585	0.7162	0.144
Mof_C 	C 	0.175	0.6325	0.74	-0.244
Mof_C 	C 	0.9163	0.6755	0.7144	0.506
Mof_C 	C 	0.2654	0.5109	0.8204	0.207
Mof_C 	C 	0.3253	0.4851	0.8641	-0.238
Mof_C 	C 	0.3261	0.4252	0.8701	0.138
Mof_C 	C 	0.2627	0.3917	0.8334	-0.213
Mof_C 	C 	0.1977	0.4183	0.7908	0.154
Mof_C 	C 	0.2011	0.4776	0.7854	-0.249
Mof_C 	C 	0.2648	0.3282	0.8409	0.423
Mof_C 	C 	0.3579	0.5979	0.8112	0.208
Mof_C 	C 	0.4305	0.5654	0.7957	-0.253
Mof_C 	C 	0.514	0.5915	0.7961	0.161
Mof_C 	C 	0.5289	0.6483	0.8121	-0.215
Mof_C 	C 	0.4564	0.6778	0.8278	0.186
Mof_C 	C 	0.3728	0.6543	0.8265	-0.282
Mof_C 	C 	0.6215	0.676	0.8116	0.403
Mof_C 	C 	0.7435	0.034	0.8906	0.198
Mof_C 	C 	0.7048	0.0137	0.8368	-0.255
Mof_C 	C 	0.7052	0.9564	0.8234	0.176
Mof_C 	C 	0.7433	0.9167	0.8634	-0.273
Mof_C 	C 	0.7809	0.9355	0.9166	0.171
Mof_C 	C 	0.7805	0.9936	0.9308	-0.255
Mof_C 	C 	0.7459	0.8542	0.8495	0.553
Mof_C 	C 	0.6658	0.1267	0.8827	0.198
Mof_C 	C 	0.6659	0.1779	0.8561	-0.242
Mof_C 	C 	0.5813	0.2067	0.8354	0.137
Mof_C 	C 	0.4963	0.1844	0.8419	-0.204
Mof_C 	C 	0.4961	0.1336	0.8699	0.161
Mof_C 	C 	0.579	0.1042	0.8908	-0.238
Mof_C 	C 	0.4073	0.2162	0.8165	0.43
Mof_C 	C 	0.8356	0.1204	0.9234	0.24
Mof_C 	C 	0.9159	0.0974	0.9108	-0.291
Mof_C 	C 	0.0029	0.1242	0.9315	0.215
Mof_C 	C 	0.0122	0.1728	0.9618	-0.292
Mof_C 	C 	0.9294	0.1943	0.9744	0.21
Mof_C 	C 	0.8448	0.1687	0.9552	-0.303
Mof_C 	C 	0.1079	0.1974	0.9833	0.516
Mof_C 	C 	0.7439	0.0619	0.5046	0.168
Mof_C 	C 	0.81	0.0227	0.5361	-0.201
Mof_C 	C 	0.8067	0.966	0.5222	0.106
Mof_C 	C 	0.7414	0.9439	0.4766	-0.164
Mof_C 	C 	0.6752	0.9825	0.4467	0.102
Mof_C 	C 	0.6767	0.0403	0.4596	-0.201
Mof_C 	C 	0.7439	0.884	0.4602	0.363
Mof_C 	C 	0.5832	0.1329	0.53	-0.292
Mof_C 	C 	0.5019	0.1626	0.5201	0.202
Mof_C 	C 	0.4921	0.2126	0.4913	-0.249
Mof_C 	C 	0.5675	0.2343	0.4725	0.164
Mof_C 	C 	0.651	0.2044	0.4812	-0.257
Mof_C 	C 	0.6557	0.1522	0.5094	0.215
Mof_C 	C 	0.4015	0.2473	0.4769	0.446
Mof_C 	C 	0.8304	0.1495	0.5465	0.18
Mof_C 	C 	0.8259	0.1933	0.5837	-0.223
Mof_C 	C 	0.9065	0.2209	0.6126	0.135
Mof_C 	C 	0.9943	0.2051	0.6061	-0.202
Mof_C 	C 	0.9982	0.1638	0.5657	0.133
Mof_C 	C 	0.917	0.1359	0.5348	-0.221
Mof_C 	C 	0.0836	0.228	0.6389	0.44
Mof_C 	C 	0.8155	0.0998	0.7141	0.197
Mof_C 	C 	0.8935	0.0928	0.6896	-0.237
Mof_C 	C 	0.9788	0.1172	0.7118	0.157
Mof_C 	C 	0.9884	0.1499	0.7596	-0.228
Mof_C 	C 	0.912	0.1585	0.7838	0.145
Mof_C 	C 	0.825	0.1325	0.76	-0.244
Mof_C 	C 	0.0837	0.1755	0.7856	0.505
Mof_C 	C 	0.7346	0.0109	0.6796	0.206
Mof_C 	C 	0.6747	0.9851	0.6359	-0.237
Mof_C 	C 	0.6739	0.9252	0.6299	0.137
Mof_C 	C 	0.7373	0.8917	0.6666	-0.212
Mof_C 	C 	0.8023	0.9183	0.7092	0.153
Mof_C 	C 	0.7989	0.9776	0.7146	-0.249
Mof_C 	C 	0.7352	0.8282	0.6591	0.423
Mof_C 	C 	0.6421	0.0979	0.6888	0.208
Mof_C 	C 	0.5695	0.0654	0.7043	-0.253
Mof_C 	C 	0.486	0.0915	0.7039	0.161
Mof_C 	C 	0.4711	0.1483	0.6879	-0.215
Mof_C 	C 	0.5436	0.1778	0.6722	0.186
Mof_C 	C 	0.6272	0.1543	0.6735	-0.282
Mof_C 	C 	0.3785	0.176	0.6884	0.403
Mof_C 	C 	0.2565	0.534	0.6094	0.199
Mof_C 	C 	0.2952	0.5137	0.6632	-0.254
Mof_C 	C 	0.2948	0.4564	0.6766	0.176
Mof_C 	C 	0.2567	0.4167	0.6366	-0.273
Mof_C 	C 	0.2191	0.4355	0.5834	0.171
Mof_C 	C 	0.2195	0.4936	0.5692	-0.256
Mof_C 	C 	0.2541	0.3542	0.6505	0.553
Mof_C 	C 	0.3342	0.6267	0.6173	0.198
Mof_C 	C 	0.3341	0.6779	0.6439	-0.242
Mof_C 	C 	0.4187	0.7067	0.6646	0.137
Mof_C 	C 	0.5037	0.6844	0.6581	-0.204
Mof_C 	C 	0.5039	0.6336	0.6301	0.161
Mof_C 	C 	0.421	0.6042	0.6092	-0.238
Mof_C 	C 	0.5927	0.7162	0.6835	0.43
Mof_C 	C 	0.1644	0.6204	0.5766	0.24
Mof_C 	C 	0.0841	0.5974	0.5892	-0.291
Mof_C 	C 	0.9971	0.6242	0.5685	0.216
Mof_C 	C 	0.9878	0.6728	0.5382	-0.291
Mof_C 	C 	0.0706	0.6943	0.5256	0.209
Mof_C 	C 	0.1552	0.6687	0.5448	-0.303
Mof_C 	C 	0.8921	0.6974	0.5167	0.517
Mof_C 	C 	0.7439	0.4381	0.0046	0.167
Mof_C 	C 	0.81	0.4773	0.0361	-0.2
Mof_C 	C 	0.8067	0.534	0.0222	0.105
Mof_C 	C 	0.7414	0.5561	0.9766	-0.163
Mof_C 	C 	0.6752	0.5175	0.9467	0.101
Mof_C 	C 	0.6767	0.4597	0.9596	-0.2
Mof_C 	C 	0.7439	0.616	0.9602	0.363
Mof_C 	C 	0.5832	0.3671	0.03	-0.292
Mof_C 	C 	0.5019	0.3374	0.0201	0.202
Mof_C 	C 	0.4921	0.2874	0.9913	-0.249
Mof_C 	C 	0.5675	0.2657	0.9725	0.164
Mof_C 	C 	0.651	0.2956	0.9812	-0.257
Mof_C 	C 	0.6557	0.3478	0.0094	0.215
Mof_C 	C 	0.4015	0.2527	0.9769	0.446
Mof_C 	C 	0.8304	0.3505	0.0465	0.18
Mof_C 	C 	0.8259	0.3067	0.0837	-0.223
Mof_C 	C 	0.9065	0.2791	0.1126	0.135
Mof_C 	C 	0.9943	0.2949	0.1061	-0.202
Mof_C 	C 	0.9982	0.3362	0.0657	0.132
Mof_C 	C 	0.917	0.3641	0.0348	-0.221
Mof_C 	C 	0.0836	0.272	0.1389	0.44
Mof_C 	C 	0.8155	0.4002	0.2141	0.197
Mof_C 	C 	0.8935	0.4072	0.1896	-0.237
Mof_C 	C 	0.9788	0.3828	0.2118	0.156
Mof_C 	C 	0.9884	0.3501	0.2596	-0.228
Mof_C 	C 	0.912	0.3415	0.2838	0.144
Mof_C 	C 	0.825	0.3675	0.26	-0.244
Mof_C 	C 	0.0837	0.3245	0.2856	0.506
Mof_C 	C 	0.7346	0.4891	0.1796	0.207
Mof_C 	C 	0.6747	0.5149	0.1359	-0.238
Mof_C 	C 	0.6739	0.5748	0.1299	0.138
Mof_C 	C 	0.7373	0.6083	0.1666	-0.213
Mof_C 	C 	0.8023	0.5817	0.2092	0.154
Mof_C 	C 	0.7989	0.5224	0.2146	-0.249
Mof_C 	C 	0.7352	0.6718	0.1591	0.423
Mof_C 	C 	0.6421	0.4021	0.1888	0.208
Mof_C 	C 	0.5695	0.4346	0.2043	-0.253
Mof_C 	C 	0.486	0.4085	0.2039	0.161
Mof_C 	C 	0.4711	0.3517	0.1879	-0.215
Mof_C 	C 	0.5436	0.3222	0.1722	0.186
Mof_C 	C 	0.6272	0.3457	0.1735	-0.282
Mof_C 	C 	0.3785	0.324	0.1884	0.403
Mof_C 	C 	0.2565	0.966	0.1094	0.198
Mof_C 	C 	0.2952	0.9863	0.1632	-0.255
Mof_C 	C 	0.2948	0.0436	0.1766	0.176
Mof_C 	C 	0.2567	0.0833	0.1366	-0.273
Mof_C 	C 	0.2191	0.0645	0.0834	0.171
Mof_C 	C 	0.2195	0.0064	0.0692	-0.255
Mof_C 	C 	0.2541	0.1458	0.1505	0.553
Mof_C 	C 	0.3342	0.8733	0.1173	0.198
Mof_C 	C 	0.3341	0.8221	0.1439	-0.242
Mof_C 	C 	0.4187	0.7933	0.1646	0.137
Mof_C 	C 	0.5037	0.8156	0.1581	-0.204
Mof_C 	C 	0.5039	0.8664	0.1301	0.161
Mof_C 	C 	0.421	0.8958	0.1092	-0.238
Mof_C 	C 	0.5927	0.7838	0.1835	0.43
Mof_C 	C 	0.1644	0.8796	0.0766	0.24
Mof_C 	C 	0.0841	0.9026	0.0892	-0.291
Mof_C 	C 	0.9971	0.8758	0.0685	0.215
Mof_C 	C 	0.9878	0.8272	0.0382	-0.292
Mof_C 	C 	0.0706	0.8057	0.0256	0.21
Mof_C 	C 	0.1552	0.8313	0.0448	-0.303
Mof_C 	C 	0.8921	0.8026	0.0167	0.516
Mof_C 	C 	0.2561	0.9381	0.4954	0.168
Mof_C 	C 	0.19	0.9773	0.4639	-0.201
Mof_C 	C 	0.1933	0.034	0.4778	0.106
Mof_C 	C 	0.2586	0.0561	0.5234	-0.164
Mof_C 	C 	0.3248	0.0175	0.5533	0.102
Mof_C 	C 	0.3233	0.9597	0.5404	-0.201
Mof_C 	C 	0.2561	0.116	0.5398	0.363
Mof_C 	C 	0.4168	0.8671	0.47	-0.292
Mof_C 	C 	0.4981	0.8374	0.4799	0.202
Mof_C 	C 	0.5079	0.7874	0.5087	-0.249
Mof_C 	C 	0.4325	0.7657	0.5275	0.164
Mof_C 	C 	0.349	0.7956	0.5188	-0.257
Mof_C 	C 	0.3443	0.8478	0.4906	0.215
Mof_C 	C 	0.5985	0.7527	0.5231	0.446
Mof_C 	C 	0.1696	0.8505	0.4535	0.18
Mof_C 	C 	0.1741	0.8067	0.4163	-0.223
Mof_C 	C 	0.0935	0.7791	0.3874	0.135
Mof_C 	C 	0.0057	0.7949	0.3939	-0.202
Mof_C 	C 	0.0018	0.8362	0.4343	0.133
Mof_C 	C 	0.083	0.8641	0.4652	-0.221
Mof_C 	C 	0.9164	0.772	0.3611	0.44
Mof_C 	C 	0.1845	0.9002	0.2859	0.197
Mof_C 	C 	0.1065	0.9072	0.3104	-0.237
Mof_C 	C 	0.0212	0.8828	0.2882	0.157
Mof_C 	C 	0.0116	0.8501	0.2404	-0.228
Mof_C 	C 	0.088	0.8415	0.2162	0.145
Mof_C 	C 	0.175	0.8675	0.24	-0.244
Mof_C 	C 	0.9163	0.8245	0.2144	0.505
Mof_C 	C 	0.2654	0.9891	0.3204	0.206
Mof_C 	C 	0.3253	0.0149	0.3641	-0.237
Mof_C 	C 	0.3261	0.0748	0.3701	0.137
Mof_C 	C 	0.2627	0.1083	0.3334	-0.212
Mof_C 	C 	0.1977	0.0817	0.2908	0.153
Mof_C 	C 	0.2011	0.0224	0.2854	-0.249
Mof_C 	C 	0.2648	0.1718	0.3409	0.423
Mof_C 	C 	0.3579	0.9021	0.3112	0.208
Mof_C 	C 	0.4305	0.9346	0.2957	-0.253
Mof_C 	C 	0.514	0.9085	0.2961	0.161
Mof_C 	C 	0.5289	0.8517	0.3121	-0.215
Mof_C 	C 	0.4564	0.8222	0.3278	0.186
Mof_C 	C 	0.3728	0.8457	0.3265	-0.282
Mof_C 	C 	0.6215	0.824	0.3116	0.403
Mof_C 	C 	0.7435	0.466	0.3906	0.199
Mof_C 	C 	0.7048	0.4863	0.3368	-0.254
Mof_C 	C 	0.7052	0.5436	0.3234	0.176
Mof_C 	C 	0.7433	0.5833	0.3634	-0.273
Mof_C 	C 	0.7809	0.5645	0.4166	0.171
Mof_C 	C 	0.7805	0.5064	0.4308	-0.256
Mof_C 	C 	0.7459	0.6458	0.3495	0.553
Mof_C 	C 	0.6658	0.3733	0.3827	0.198
Mof_C 	C 	0.6659	0.3221	0.3561	-0.242
Mof_C 	C 	0.5813	0.2933	0.3354	0.137
Mof_C 	C 	0.4963	0.3156	0.3419	-0.204
Mof_C 	C 	0.4961	0.3664	0.3699	0.161
Mof_C 	C 	0.579	0.3958	0.3908	-0.238
Mof_C 	C 	0.4073	0.2838	0.3165	0.43
Mof_C 	C 	0.8356	0.3796	0.4234	0.24
Mof_C 	C 	0.9159	0.4026	0.4108	-0.291
Mof_C 	C 	0.0029	0.3758	0.4315	0.216
Mof_C 	C 	0.0122	0.3272	0.4618	-0.291
Mof_C 	C 	0.9294	0.3057	0.4744	0.209
Mof_C 	C 	0.8448	0.3313	0.4552	-0.303
Mof_C 	C 	0.1079	0.3026	0.4833	0.517
Mof_N 	N 	0.2545	0.6203	0.9809	-0.195
Mof_N 	N 	0.7471	0.0943	0.9027	-0.214
Mof_N 	N 	0.2699	0.5705	0.8111	-0.207
Mof_N 	N 	0.7455	0.1203	0.5191	-0.195
Mof_N 	N 	0.2529	0.5943	0.5973	-0.214
Mof_N 	N 	0.7301	0.0705	0.6889	-0.207
Mof_N 	N 	0.7455	0.3797	0.0191	-0.195
Mof_N 	N 	0.2529	0.9057	0.0973	-0.214
Mof_N 	N 	0.7301	0.4295	0.1889	-0.207
Mof_N 	N 	0.2545	0.8797	0.4809	-0.195
Mof_N 	N 	0.7471	0.4057	0.4027	-0.214
Mof_N 	N 	0.2699	0.9295	0.3111	-0.207
Mof_O 	O 	0.1912	0.351	0.0147	-0.447
Mof_O 	O 	0.3177	0.3641	0.0799	-0.476
Mof_O 	O 	0.6699	0.7266	0.008	-0.639
Mof_O 	O 	0.6042	0.7915	0.0512	-0.527
Mof_O 	O 	0.8384	0.7078	0.8661	-0.652
Mof_O 	O 	0.92	0.764	0.8237	-0.48
Mof_O 	O 	0.8568	0.6761	0.7435	-0.594
Mof_O 	O 	0.9051	0.6946	0.6653	-0.585
Mof_O 	O 	0.2103	0.2969	0.8041	-0.614
Mof_O 	O 	0.3185	0.3062	0.881	-0.5
Mof_O 	O 	0.6432	0.7249	0.8349	-0.655
Mof_O 	O 	0.675	0.6529	0.7833	-0.468
Mof_O 	O 	0.7668	0.8209	0.8905	-0.628
Mof_O 	O 	0.7288	0.8381	0.8009	-0.577
Mof_O 	O 	0.4061	0.2555	0.7824	-0.487
Mof_O 	O 	0.3298	0.1955	0.8255	-0.61
Mof_O 	O 	0.1754	0.1821	0.9649	-0.645
Mof_O 	O 	0.1121	0.2355	0.0207	-0.542
Mof_O 	O 	0.8088	0.851	0.4853	-0.447
Mof_O 	O 	0.6823	0.8641	0.4201	-0.476
Mof_O 	O 	0.3301	0.2266	0.492	-0.638
Mof_O 	O 	0.3958	0.2915	0.4488	-0.527
Mof_O 	O 	0.1616	0.2078	0.6339	-0.652
Mof_O 	O 	0.08	0.264	0.6763	-0.48
Mof_O 	O 	0.1432	0.1761	0.7565	-0.594
Mof_O 	O 	0.0949	0.1946	0.8347	-0.585
Mof_O 	O 	0.7897	0.7969	0.6959	-0.614
Mof_O 	O 	0.6815	0.8062	0.619	-0.5
Mof_O 	O 	0.3568	0.2249	0.6651	-0.655
Mof_O 	O 	0.325	0.1529	0.7167	-0.468
Mof_O 	O 	0.2332	0.3209	0.6095	-0.629
Mof_O 	O 	0.2712	0.3381	0.6991	-0.577
Mof_O 	O 	0.5939	0.7555	0.7176	-0.487
Mof_O 	O 	0.6702	0.6955	0.6745	-0.61
Mof_O 	O 	0.8246	0.6821	0.5351	-0.645
Mof_O 	O 	0.8879	0.7355	0.4793	-0.542
Mof_O 	O 	0.8088	0.649	0.9853	-0.447
Mof_O 	O 	0.6823	0.6359	0.9201	-0.476
Mof_O 	O 	0.3301	0.2734	0.992	-0.639
Mof_O 	O 	0.3958	0.2085	0.9488	-0.527
Mof_O 	O 	0.1616	0.2922	0.1339	-0.652
Mof_O 	O 	0.08	0.236	0.1763	-0.48
Mof_O 	O 	0.1432	0.3239	0.2565	-0.594
Mof_O 	O 	0.0949	0.3054	0.3347	-0.585
Mof_O 	O 	0.7897	0.7031	0.1959	-0.614
Mof_O 	O 	0.6815	0.6938	0.119	-0.5
Mof_O 	O 	0.3568	0.2751	0.1651	-0.655
Mof_O 	O 	0.325	0.3471	0.2167	-0.468
Mof_O 	O 	0.2332	0.1791	0.1095	-0.628
Mof_O 	O 	0.2712	0.1619	0.1991	-0.577
Mof_O 	O 	0.5939	0.7445	0.2176	-0.487
Mof_O 	O 	0.6702	0.8045	0.1745	-0.61
Mof_O 	O 	0.8246	0.8179	0.0351	-0.645
Mof_O 	O 	0.8879	0.7645	0.9793	-0.542
Mof_O 	O 	0.1912	0.149	0.5147	-0.447
Mof_O 	O 	0.3177	0.1359	0.5799	-0.476
Mof_O 	O 	0.6699	0.7734	0.508	-0.638
Mof_O 	O 	0.6042	0.7085	0.5512	-0.527
Mof_O 	O 	0.8384	0.7922	0.3661	-0.652
Mof_O 	O 	0.92	0.736	0.3237	-0.48
Mof_O 	O 	0.8568	0.8239	0.2435	-0.594
Mof_O 	O 	0.9051	0.8054	0.1653	-0.585
Mof_O 	O 	0.2103	0.2031	0.3041	-0.614
Mof_O 	O 	0.3185	0.1938	0.381	-0.5
Mof_O 	O 	0.6432	0.7751	0.3349	-0.655
Mof_O 	O 	0.675	0.8471	0.2833	-0.468
Mof_O 	O 	0.7668	0.6791	0.3905	-0.629
Mof_O 	O 	0.7288	0.6619	0.3009	-0.577
Mof_O 	O 	0.4061	0.2445	0.2824	-0.487
Mof_O 	O 	0.3298	0.3045	0.3255	-0.61
Mof_O 	O 	0.1754	0.3179	0.4649	-0.645
Mof_O 	O 	0.1121	0.2645	0.5207	-0.542
_end
