data_functionalizedCrystal
_audit_creation_method	'EQeq! by Chris Wilmer'
_symmetry_space_group_name_H-M	'P1'
_symmetry_Int_Tables_number	1
_symmetry_cell_setting	triclinic
loop_
_symmetry_equiv_pos_as_xyz
  x,y,z
_cell_length_a	10.399
_cell_length_b	10.606
_cell_length_c	11.3
_cell_angle_alpha	83.5
_cell_angle_beta	75.15
_cell_angle_gamma	69.62
loop_
_atom_site_label
_atom_site_type_symbol
_atom_site_fract_x
_atom_site_fract_y
_atom_site_fract_z
_atom_site_charge
Mof_Er	Er	0.58641	0.5963	0.63277	1.821
Mof_O 	O 	0.3955	0.6155	0.4059	-0.535
Mof_O 	O 	0.4717	0.7396	0.4991	-0.507
Mof_O 	O 	0.2867	0.2483	0.4368	-0.47
Mof_O 	O 	0.054	0.3181	0.4545	-0.44
Mof_O 	O 	0.8707	0.0627	0.2629	-0.112
Mof_O 	O 	0.9496	0.8486	0.2735	-0.098
Mof_O 	O 	0.0011	0.4427	0.6706	-0.45
Mof_O 	O 	0.7689	0.4977	0.72	-0.543
Mof_O 	O 	0.5277	0.4832	0.1646	-0.366
Mof_O 	O 	0.6571	0.394	0.2987	-0.402
Mof_O 	O 	0.1751	0.2462	0.16	-0.134
Mof_O 	O 	0.2715	0.2331	0.9682	-0.108
Mof_N 	N 	0.9577	0.9569	0.2857	0.01
Mof_N 	N 	0.1688	0.2617	0.0528	-0.005
Mof_C 	C 	0.2818	0.851	0.4071	-0.131
Mof_C 	C 	0.2838	0.9765	0.4316	0.058
Mof_H 	H 	0.3567	0.9815	0.4622	0.042
Mof_C 	C 	0.177	0.0944	0.4107	-0.08
Mof_C 	C 	0.0692	0.0861	0.3645	-0.081
Mof_H 	H 	0.9956	0.1633	0.3528	0.12
Mof_C 	C 	0.0728	0.9618	0.3361	0.055
Mof_C 	C 	0.1765	0.8439	0.357	-0.006
Mof_H 	H 	0.1755	0.7613	0.3378	0.05
Mof_C 	C 	0.3913	0.7256	0.4387	0.497
Mof_C 	C 	0.1749	0.2306	0.4358	0.427
Mof_C 	C 	0.8927	0.4195	0.8773	-0.063
Mof_C 	C 	0.7699	0.4458	0.9699	0.024
Mof_H 	H 	0.6825	0.4865	0.9508	0.056
Mof_C 	C 	0.7777	0.4115	0.091	-0.051
Mof_C 	C 	0.9093	0.3504	0.1195	-0.01
Mof_H 	H 	0.9162	0.3275	0.2	0.08
Mof_C 	C 	0.029	0.3249	0.0247	0.054
Mof_C 	C 	0.0244	0.3575	0.9051	-0.063
Mof_H 	H 	0.1068	0.339	0.8436	0.094
Mof_C 	C 	0.8861	0.4563	0.7463	0.49
Mof_C 	C 	0.6462	0.4331	0.1906	0.302
Mof_Er	Er	0.41359	0.4037	0.36723	1.809
Mof_O 	O 	0.6045	0.3845	0.5941	-0.535
Mof_O 	O 	0.5283	0.2604	0.5009	-0.508
Mof_O 	O 	0.7133	0.7517	0.5632	-0.473
Mof_O 	O 	0.946	0.6819	0.5455	-0.41
Mof_O 	O 	0.1293	0.9373	0.7371	-0.123
Mof_O 	O 	0.0504	0.1514	0.7265	-0.12
Mof_O 	O 	0.9989	0.5573	0.3294	-0.378
Mof_O 	O 	0.2311	0.5023	0.28	-0.529
Mof_O 	O 	0.4723	0.5168	0.8354	-0.364
Mof_O 	O 	0.3429	0.606	0.7013	-0.403
Mof_O 	O 	0.8249	0.7538	0.84	-0.119
Mof_O 	O 	0.7285	0.7669	0.0318	-0.107
Mof_N 	N 	0.0423	0.0431	0.7143	-0.01
Mof_N 	N 	0.8312	0.7383	0.9472	-0.011
Mof_C 	C 	0.7182	0.149	0.5929	-0.149
Mof_C 	C 	0.7162	0.0235	0.5684	0.093
Mof_H 	H 	0.6433	0.0185	0.5378	0.031
Mof_C 	C 	0.823	0.9056	0.5893	-0.134
Mof_C 	C 	0.9308	0.9139	0.6355	0.071
Mof_H 	H 	0.0044	0.8367	0.6472	0.02
Mof_C 	C 	0.9272	0.0382	0.6639	0.055
Mof_C 	C 	0.8235	0.1561	0.643	0.016
Mof_H 	H 	0.8245	0.2387	0.6622	0.057
Mof_C 	C 	0.6087	0.2744	0.5613	0.505
Mof_C 	C 	0.8251	0.7694	0.5642	0.446
Mof_C 	C 	0.1073	0.5805	0.1227	-0.11
Mof_C 	C 	0.2301	0.5542	0.0301	0.017
Mof_H 	H 	0.3175	0.5135	0.0492	0.059
Mof_C 	C 	0.2223	0.5885	0.909	-0.026
Mof_C 	C 	0.0907	0.6496	0.8805	-0.113
Mof_H 	H 	0.0838	0.6725	0.8	0.099
Mof_C 	C 	0.971	0.6751	0.9753	0.128
Mof_C 	C 	0.9756	0.6425	0.0949	-0.006
Mof_H 	H 	0.8932	0.661	0.1564	0.082
Mof_C 	C 	0.1139	0.5437	0.2537	0.416
Mof_C 	C 	0.3538	0.5669	0.8094	0.291
Mof_Cu	Cu	-2.67507e-17	0.5	0.5	0.908
_end
