# CIF file generated by openbabel 3.1.0, see https://openbabel.org
data_I
_chemical_name_common 'image0'
_cell_length_a 12.232
_cell_length_b 12.268
_cell_length_c 16.392
_cell_angle_alpha 90
_cell_angle_beta 90
_cell_angle_gamma 90
_space_group_name_H-M_alt 'P 1'
_space_group_name_Hall 'P 1'
loop_
    _symmetry_equiv_pos_as_xyz
    x,y,z
loop_
    _atom_site_label
    _atom_site_type_symbol
    _atom_site_fract_x
    _atom_site_fract_y
    _atom_site_fract_z
    _atom_site_occupancy
    Ga1      Ga       0.17248    0.47635    0.25406    1.000
    Ga2      Ga       0.13311    0.45979    0.90095    1.000
    P1       P        0.12554    0.56249    0.07852    1.000
    P2       P        0.41065    0.55761    0.23754    1.000
    F1       F        0.21270    0.49490    0.36710    1.000
    F2       F        0.18280    0.64150    0.25850    1.000
    O1       O        0.38720    0.66910    0.19940    1.000
    O2       O        0.19180    0.66360    0.09720    1.000
    O3       O        0.17450    0.51380    0.00000    1.000
    O4       O        0.52080    0.51520    0.20390    1.000
    O5       O        0.32490    0.31710    0.37800    1.000
    O6       O        0.41510    0.57020    0.33130    1.000
    O7       O        0.13060    0.47580    0.14430    1.000
    O8       O        0.32490    0.47220    0.21790    1.000
    O9       O        0.17650    0.32120    0.26840    1.000
    O10      O        0.00560    0.59700    0.06330    1.000
    Ga3      Ga       0.32752    0.02365    0.25406    1.000
    Ga4      Ga       0.36689    0.04021    0.90095    1.000
    P3       P        0.37446    0.93751    0.07852    1.000
    P4       P        0.08935    0.94239    0.23754    1.000
    F3       F        0.28730    0.00510    0.36710    1.000
    F4       F        0.31720    0.85850    0.25850    1.000
    O11      O        0.11280    0.83090    0.19940    1.000
    O12      O        0.30820    0.83640    0.09720    1.000
    O13      O        0.32550    0.98620    0.00000    1.000
    O14      O        0.97920    0.98480    0.20390    1.000
    O15      O        0.17510    0.18290    0.37800    1.000
    O16      O        0.08490    0.92980    0.33130    1.000
    O17      O        0.36940    0.02420    0.14430    1.000
    O18      O        0.17510    0.02780    0.21790    1.000
    O19      O        0.32350    0.17880    0.26840    1.000
    O20      O        0.49440    0.90300    0.06330    1.000
    Ga5      Ga       0.82752    0.97635    0.24594    1.000
    Ga6      Ga       0.86689    0.95979    0.59905    1.000
    P5       P        0.87446    0.06249    0.42148    1.000
    P6       P        0.58935    0.05761    0.26246    1.000
    F5       F        0.78730    0.99490    0.13290    1.000
    F6       F        0.81720    0.14150    0.24150    1.000
    O21      O        0.61280    0.16910    0.30060    1.000
    O22      O        0.80820    0.16360    0.40280    1.000
    O23      O        0.82550    0.01380    0.50000    1.000
    O24      O        0.47920    0.01520    0.29610    1.000
    O25      O        0.67510    0.81710    0.12200    1.000
    O26      O        0.58490    0.07020    0.16870    1.000
    O27      O        0.86940    0.97580    0.35570    1.000
    O28      O        0.67510    0.97220    0.28210    1.000
    O29      O        0.82350    0.82120    0.23160    1.000
    O30      O        0.99440    0.09700    0.43670    1.000
    Ga7      Ga       0.67248    0.52365    0.24594    1.000
    Ga8      Ga       0.63311    0.54021    0.59905    1.000
    P7       P        0.62554    0.43751    0.42148    1.000
    P8       P        0.91065    0.44239    0.26246    1.000
    F7       F        0.71270    0.50510    0.13290    1.000
    F8       F        0.68280    0.35850    0.24150    1.000
    O31      O        0.88720    0.33090    0.30060    1.000
    O32      O        0.69180    0.33640    0.40280    1.000
    O33      O        0.67450    0.48620    0.50000    1.000
    O34      O        0.02080    0.48480    0.29610    1.000
    O35      O        0.82490    0.68290    0.12200    1.000
    O36      O        0.91510    0.42980    0.16870    1.000
    O37      O        0.63060    0.52420    0.35570    1.000
    O38      O        0.82490    0.52780    0.28210    1.000
    O39      O        0.67650    0.67880    0.23160    1.000
    O40      O        0.50560    0.40300    0.43670    1.000
    Ga9      Ga       0.82752    0.52365    0.74594    1.000
    Ga10     Ga       0.86689    0.54021    0.09905    1.000
    P9       P        0.87446    0.43751    0.92148    1.000
    P10      P        0.58935    0.44239    0.76246    1.000
    F9       F        0.78730    0.50510    0.63290    1.000
    F10      F        0.81720    0.35850    0.74150    1.000
    O41      O        0.61280    0.33090    0.80060    1.000
    O42      O        0.80820    0.33640    0.90280    1.000
    O43      O        0.82550    0.48620    0.00000    1.000
    O44      O        0.47920    0.48480    0.79610    1.000
    O45      O        0.67510    0.68290    0.62200    1.000
    O46      O        0.58490    0.42980    0.66870    1.000
    O47      O        0.86940    0.52420    0.85570    1.000
    O48      O        0.67510    0.52780    0.78210    1.000
    O49      O        0.82350    0.67880    0.73160    1.000
    O50      O        0.99440    0.40300    0.93670    1.000
    Ga11     Ga       0.67248    0.97635    0.74594    1.000
    Ga12     Ga       0.63311    0.95979    0.09905    1.000
    P11      P        0.62554    0.06249    0.92148    1.000
    P12      P        0.91065    0.05761    0.76246    1.000
    F11      F        0.71270    0.99490    0.63290    1.000
    F12      F        0.68280    0.14150    0.74150    1.000
    O51      O        0.88720    0.16910    0.80060    1.000
    O52      O        0.69180    0.16360    0.90280    1.000
    O53      O        0.67450    0.01380    0.00000    1.000
    O54      O        0.02080    0.01520    0.79610    1.000
    O55      O        0.82490    0.81710    0.62200    1.000
    O56      O        0.91510    0.07020    0.66870    1.000
    O57      O        0.63060    0.97580    0.85570    1.000
    O58      O        0.82490    0.97220    0.78210    1.000
    O59      O        0.67650    0.82120    0.73160    1.000
    O60      O        0.50560    0.09700    0.93670    1.000
    Ga13     Ga       0.17248    0.02365    0.75406    1.000
    Ga14     Ga       0.13311    0.04021    0.40095    1.000
    P13      P        0.12554    0.93751    0.57852    1.000
    P14      P        0.41065    0.94239    0.73754    1.000
    F13      F        0.21270    0.00510    0.86710    1.000
    F14      F        0.18280    0.85850    0.75850    1.000
    O61      O        0.38720    0.83090    0.69940    1.000
    O62      O        0.19180    0.83640    0.59720    1.000
    O63      O        0.17450    0.98620    0.50000    1.000
    O64      O        0.52080    0.98480    0.70390    1.000
    O65      O        0.32490    0.18290    0.87800    1.000
    O66      O        0.41510    0.92980    0.83130    1.000
    O67      O        0.13060    0.02420    0.64430    1.000
    O68      O        0.32490    0.02780    0.71790    1.000
    O69      O        0.17650    0.17880    0.76840    1.000
    O70      O        0.00560    0.90300    0.56330    1.000
    Ga15     Ga       0.32752    0.47635    0.75406    1.000
    Ga16     Ga       0.36689    0.45979    0.40095    1.000
    P15      P        0.37446    0.56249    0.57852    1.000
    P16      P        0.08935    0.55761    0.73754    1.000
    F15      F        0.28730    0.49490    0.86710    1.000
    F16      F        0.31720    0.64150    0.75850    1.000
    O71      O        0.11280    0.66910    0.69940    1.000
    O72      O        0.30820    0.66360    0.59720    1.000
    O73      O        0.32550    0.51380    0.50000    1.000
    O74      O        0.97920    0.51520    0.70390    1.000
    O75      O        0.17510    0.31710    0.87800    1.000
    O76      O        0.08490    0.57020    0.83130    1.000
    O77      O        0.36940    0.47580    0.64430    1.000
    O78      O        0.17510    0.47220    0.71790    1.000
    O79      O        0.32350    0.32120    0.76840    1.000
    O80      O        0.49440    0.59700    0.56330    1.000
    Ga17     Ga       0.25000    0.75000    0.18389    1.000
    Ga18     Ga       0.75000    0.25000    0.31611    1.000
    Ga19     Ga       0.75000    0.25000    0.81611    1.000
    Ga20     Ga       0.25000    0.75000    0.68389    1.000
    P17      P        0.25000    0.25000    0.32105    1.000
    P18      P        0.75000    0.75000    0.17895    1.000
    P19      P        0.75000    0.75000    0.67895    1.000
    P20      P        0.25000    0.25000    0.82105    1.000
