# CIF file generated by openbabel 3.1.0, see https://openbabel.org
data_I
_chemical_name_common 'OKIJUO_charged'
_cell_length_a 9.549
_cell_length_b 12.141
_cell_length_c 26.717
_cell_angle_alpha 90
_cell_angle_beta 90
_cell_angle_gamma 90
_space_group_name_H-M_alt 'P 1'
_space_group_name_Hall 'P 1'
loop_
    _symmetry_equiv_pos_as_xyz
    x,y,z
loop_
    _atom_site_label
    _atom_site_type_symbol
    _atom_site_fract_x
    _atom_site_fract_y
    _atom_site_fract_z
    _atom_site_occupancy
    Ag1      Ag       0.78419    0.28030    0.99395    1.000
    Ag2      Ag       0.21581    0.28030    0.00605    1.000
    Ag3      Ag       0.78419    0.78030    0.50605    1.000
    Ag4      Ag       0.21581    0.78030    0.49395    1.000
    H1       H        0.79310    0.45670    0.18000    1.000
    H2       H        0.79900    0.45240    0.26790    1.000
    H3       H        0.68790    0.13440    0.26430    1.000
    H4       H        0.67150    0.14270    0.17790    1.000
    H5       H        0.97310    0.20520    0.30290    1.000
    H6       H        0.10650    0.07850    0.34400    1.000
    H7       H        0.80730    0.05850    0.45220    1.000
    H8       H        0.68990    0.19430    0.41230    1.000
    H9       H        0.49470    0.37440    0.30820    1.000
    H10      H        0.37160    0.51110    0.35020    1.000
    H11      H        0.68250    0.52880    0.45120    1.000
    H12      H        0.79910    0.39210    0.40860    1.000
    H13      H        0.20690    0.45670    0.82000    1.000
    H14      H        0.20100    0.45240    0.73210    1.000
    H15      H        0.31210    0.13440    0.73570    1.000
    H16      H        0.32850    0.14270    0.82210    1.000
    H17      H        0.02690    0.20520    0.69710    1.000
    H18      H        0.89350    0.07850    0.65600    1.000
    H19      H        0.19270    0.05850    0.54780    1.000
    H20      H        0.31010    0.19430    0.58770    1.000
    H21      H        0.50530    0.37440    0.69180    1.000
    H22      H        0.62840    0.51110    0.64980    1.000
    H23      H        0.31750    0.52880    0.54880    1.000
    H24      H        0.20090    0.39210    0.59140    1.000
    H25      H        0.79310    0.95670    0.32000    1.000
    H26      H        0.79900    0.95240    0.23210    1.000
    H27      H        0.68790    0.63440    0.23570    1.000
    H28      H        0.67150    0.64270    0.32210    1.000
    H29      H        0.97310    0.70520    0.19710    1.000
    H30      H        0.10650    0.57850    0.15600    1.000
    H31      H        0.80730    0.55850    0.04780    1.000
    H32      H        0.68990    0.69430    0.08770    1.000
    H33      H        0.49470    0.87440    0.19180    1.000
    H34      H        0.37160    0.01110    0.14980    1.000
    H35      H        0.68250    0.02880    0.04880    1.000
    H36      H        0.79910    0.89210    0.09140    1.000
    H37      H        0.20690    0.95670    0.68000    1.000
    H38      H        0.20100    0.95240    0.76790    1.000
    H39      H        0.31210    0.63440    0.76430    1.000
    H40      H        0.32850    0.64270    0.67790    1.000
    H41      H        0.02690    0.70520    0.80290    1.000
    H42      H        0.89350    0.57850    0.84400    1.000
    H43      H        0.19270    0.55850    0.95220    1.000
    H44      H        0.31010    0.69430    0.91230    1.000
    H45      H        0.50530    0.87440    0.80820    1.000
    H46      H        0.62840    0.01110    0.85020    1.000
    H47      H        0.31750    0.02880    0.95120    1.000
    H48      H        0.20090    0.89210    0.90860    1.000
    C1       C        0.74390    0.30620    0.11690    1.000
    C2       C        0.73940    0.30150    0.17150    1.000
    C3       C        0.77190    0.39200    0.19700    1.000
    C4       C        0.77400    0.39020    0.24970    1.000
    C5       C        0.73750    0.29220    0.27370    1.000
    C6       C        0.70590    0.20010    0.24750    1.000
    C7       C        0.70050    0.20390    0.19610    1.000
    C8       C        0.81590    0.21470    0.35340    1.000
    C9       C        0.94270    0.17750    0.33340    1.000
    C10      C        0.02200    0.10240    0.35750    1.000
    C11      C        0.97080    0.05890    0.40610    1.000
    C12      C        0.05380    0.98390    0.43010    1.000
    C13      C        0.84460    0.09040    0.42350    1.000
    C14      C        0.77320    0.16910    0.39840    1.000
    C15      C        0.65800    0.37540    0.35300    1.000
    C16      C        0.53270    0.40660    0.33670    1.000
    C17      C        0.45800    0.48800    0.36240    1.000
    C18      C        0.50940    0.53300    0.40430    1.000
    C19      C        0.42960    0.61690    0.43340    1.000
    C20      C        0.64400    0.49780    0.42250    1.000
    C21      C        0.71370    0.41810    0.39670    1.000
    C22      C        0.25610    0.30620    0.88310    1.000
    C23      C        0.26060    0.30150    0.82850    1.000
    C24      C        0.22810    0.39200    0.80300    1.000
    C25      C        0.22600    0.39020    0.75030    1.000
    C26      C        0.26250    0.29220    0.72630    1.000
    C27      C        0.29410    0.20010    0.75250    1.000
    C28      C        0.29950    0.20390    0.80390    1.000
    C29      C        0.18410    0.21470    0.64660    1.000
    C30      C        0.05730    0.17750    0.66660    1.000
    C31      C        0.97800    0.10240    0.64250    1.000
    C32      C        0.02920    0.05890    0.59390    1.000
    C33      C        0.94620    0.98390    0.56990    1.000
    C34      C        0.15540    0.09040    0.57650    1.000
    C35      C        0.22680    0.16910    0.60160    1.000
    C36      C        0.34200    0.37540    0.64700    1.000
    C37      C        0.46730    0.40660    0.66330    1.000
    C38      C        0.54200    0.48800    0.63760    1.000
    C39      C        0.49060    0.53300    0.59570    1.000
    C40      C        0.57040    0.61690    0.56660    1.000
    C41      C        0.35600    0.49780    0.57750    1.000
    C42      C        0.28630    0.41810    0.60330    1.000
    C43      C        0.74390    0.80620    0.38310    1.000
    C44      C        0.73940    0.80150    0.32850    1.000
    C45      C        0.77190    0.89200    0.30300    1.000
    C46      C        0.77400    0.89020    0.25030    1.000
    C47      C        0.73750    0.79220    0.22630    1.000
    C48      C        0.70590    0.70010    0.25250    1.000
    C49      C        0.70050    0.70390    0.30390    1.000
    C50      C        0.81590    0.71470    0.14660    1.000
    C51      C        0.94270    0.67750    0.16660    1.000
    C52      C        0.02200    0.60240    0.14250    1.000
    C53      C        0.97080    0.55890    0.09390    1.000
    C54      C        0.05380    0.48390    0.06990    1.000
    C55      C        0.84460    0.59040    0.07650    1.000
    C56      C        0.77320    0.66910    0.10160    1.000
    C57      C        0.65800    0.87540    0.14700    1.000
    C58      C        0.53270    0.90660    0.16330    1.000
    C59      C        0.45800    0.98800    0.13760    1.000
    C60      C        0.50940    0.03300    0.09570    1.000
    C61      C        0.42960    0.11690    0.06660    1.000
    C62      C        0.64400    0.99780    0.07750    1.000
    C63      C        0.71370    0.91810    0.10330    1.000
    C64      C        0.25610    0.80620    0.61690    1.000
    C65      C        0.26060    0.80150    0.67150    1.000
    C66      C        0.22810    0.89200    0.69700    1.000
    C67      C        0.22600    0.89020    0.74970    1.000
    C68      C        0.26250    0.79220    0.77370    1.000
    C69      C        0.29410    0.70010    0.74750    1.000
    C70      C        0.29950    0.70390    0.69610    1.000
    C71      C        0.18410    0.71470    0.85340    1.000
    C72      C        0.05730    0.67750    0.83340    1.000
    C73      C        0.97800    0.60240    0.85750    1.000
    C74      C        0.02920    0.55890    0.90610    1.000
    C75      C        0.94620    0.48390    0.93010    1.000
    C76      C        0.15540    0.59040    0.92350    1.000
    C77      C        0.22680    0.66910    0.89840    1.000
    C78      C        0.34200    0.87540    0.85300    1.000
    C79      C        0.46730    0.90660    0.83670    1.000
    C80      C        0.54200    0.98800    0.86240    1.000
    C81      C        0.49060    0.03300    0.90430    1.000
    C82      C        0.57040    0.11690    0.93340    1.000
    C83      C        0.35600    0.99780    0.92250    1.000
    C84      C        0.28630    0.91810    0.89670    1.000
    N1       N        0.74190    0.30880    0.07550    1.000
    N2       N        0.73330    0.29560    0.32740    1.000
    N3       N        0.12140    0.91900    0.45350    1.000
    N4       N        0.36410    0.67390    0.45470    1.000
    N5       N        0.25810    0.30880    0.92450    1.000
    N6       N        0.26670    0.29560    0.67260    1.000
    N7       N        0.87860    0.91900    0.54650    1.000
    N8       N        0.63590    0.67390    0.54530    1.000
    N9       N        0.74190    0.80880    0.42450    1.000
    N10      N        0.73330    0.79560    0.17260    1.000
    N11      N        0.12140    0.41900    0.04650    1.000
    N12      N        0.36410    0.17390    0.04530    1.000
    N13      N        0.25810    0.80880    0.57550    1.000
    N14      N        0.26670    0.79560    0.82740    1.000
    N15      N        0.87860    0.41900    0.95350    1.000
    N16      N        0.63590    0.17390    0.95470    1.000
    B1       B        0.95800    0.04750    0.86950    1.000
    F1       F        0.84670    0.10880    0.85560    1.000
    F2       F        0.04170    0.10810    0.89960    1.000
    F3       F        0.91600    0.95760    0.89460    1.000
    F4       F        0.03140    0.01900    0.82860    1.000
    B2       B        0.04200    0.04750    0.13050    1.000
    F5       F        0.15330    0.10880    0.14440    1.000
    F6       F        0.95830    0.10810    0.10040    1.000
    F7       F        0.08400    0.95760    0.10540    1.000
    F8       F        0.96860    0.01900    0.17140    1.000
    B3       B        0.95800    0.54750    0.63050    1.000
    F9       F        0.84670    0.60880    0.64440    1.000
    F10      F        0.04170    0.60810    0.60040    1.000
    F11      F        0.91600    0.45760    0.60540    1.000
    F12      F        0.03140    0.51900    0.67140    1.000
    B4       B        0.04200    0.54750    0.36950    1.000
    F13      F        0.15330    0.60880    0.35560    1.000
    F14      F        0.95830    0.60810    0.39960    1.000
    F15      F        0.08400    0.45760    0.39460    1.000
    F16      F        0.96860    0.51900    0.32860    1.000
