data_functionalizedCrystal
_audit_creation_method	'EQeq! by Chris Wilmer'
_symmetry_space_group_name_H-M	'P1'
_symmetry_Int_Tables_number	1
_symmetry_cell_setting	triclinic
loop_
_symmetry_equiv_pos_as_xyz
  x,y,z
_cell_length_a	22.0058
_cell_length_b	22.0058
_cell_length_c	72.831
_cell_angle_alpha	90
_cell_angle_beta	90
_cell_angle_gamma	90
loop_
_atom_site_label
_atom_site_type_symbol
_atom_site_fract_x
_atom_site_fract_y
_atom_site_fract_z
_atom_site_charge
Mof_Co	Co	0.47966	0.90163	0.50949	1.067
Mof_Co	Co	0.40162	0.02015	0.50163	1.066
Mof_Co	Co	0.62008	0.89051	0.5354	1.125
Mof_Co	Co	0.39029	0.87943	0.47578	1.12
Mof_O 	O 	0.39517	0.92908	0.50039	-0.767
Mof_H 	H 	0.3631	0.9146	0.5091	0.152
Mof_O 	O 	0.57229	0.89401	0.51127	-0.76
Mof_H 	H 	0.5871	0.8617	0.5027	0.156
Mof_O 	O 	0.46628	0.92488	0.53717	-0.527
Mof_O 	O 	0.54598	0.8929	0.55257	-0.478
Mof_O 	O 	0.42723	0.03632	0.47423	-0.509
Mof_O 	O 	0.70132	0.89048	0.52077	-0.463
Mof_O 	O 	0.39296	0.79917	0.4904	-0.479
Mof_O 	O 	0.6858	0.95522	0.49666	-0.448
Mof_N 	N 	0.29262	0.8789	0.47531	-0.229
Mof_N 	N 	0.17329	0.89888	0.70081	-0.255
Mof_N 	N 	0.3759	0.20597	0.53586	-0.228
Mof_C 	C 	0.7183	0.9192	0.50705	0.34
Mof_C 	C 	0.4228	0.781	0.50438	0.413
Mof_C 	C 	0.4135	0.7172	0.50906	-0.158
Mof_C 	C 	0.4906	0.9073	0.55174	0.424
Mof_C 	C 	0.413	0.0062	0.45937	0.391
Mof_C 	C 	0.4229	0.6356	0.5319	-0.119
Mof_H 	H 	0.4339	0.6236	0.544	0.064
Mof_C 	C 	0.3864	0.3328	0.5312	0.063
Mof_C 	C 	0.2471	0.9048	0.66893	0.081
Mof_C 	C 	0.3492	0.2996	0.52054	-0.118
Mof_H 	H 	0.3301	0.3184	0.5103	0.064
Mof_C 	C 	0.4224	0.3023	0.54327	-0.136
Mof_H 	H 	0.451	0.3232	0.5507	0.073
Mof_C 	C 	0.2625	0.8529	0.48997	-0.001
Mof_H 	H 	0.2863	0.8346	0.4993	0.013
Mof_C 	C 	0.48326	0.92843	0.58599	0.067
Mof_H 	H 	0.5253	0.9381	0.5866	0.01
Mof_C 	C 	0.45627	0.9156	0.56918	-0.166
Mof_C 	C 	0.39476	0.9015	0.56834	0.058
Mof_H 	H 	0.3763	0.8927	0.5569	0.001
Mof_C 	C 	0.36024	0.90024	0.58432	-0.124
Mof_H 	H 	0.3182	0.8906	0.5838	0.064
Mof_C 	C 	0.38723	0.91307	0.60113	0.049
Mof_C 	C 	0.44874	0.92717	0.60197	-0.126
Mof_H 	H 	0.4672	0.9359	0.6135	0.066
Mof_C 	C 	0.2587	0.9026	0.46226	0.041
Mof_H 	H 	0.2777	0.9199	0.4518	0.006
Mof_C 	C 	0.41991	0.14067	0.42564	-0.121
Mof_H 	H 	0.4254	0.1835	0.4258	0.064
Mof_C 	C 	0.41629	0.10853	0.44203	0.048
Mof_H 	H 	0.4193	0.1294	0.4534	0.002
Mof_C 	C 	0.40821	0.04589	0.44176	-0.128
Mof_C 	C 	0.40375	0.01539	0.4251	0.044
Mof_H 	H 	0.3982	0.9726	0.4249	0.022
Mof_C 	C 	0.4074	0.04753	0.40871	-0.116
Mof_H 	H 	0.4043	0.0267	0.3973	0.064
Mof_C 	C 	0.41544	0.11017	0.40898	0.057
Mof_C 	C 	0.2028	0.8517	0.49182	-0.023
Mof_H 	H 	0.185	0.8326	0.5022	0.026
Mof_C 	C 	0.1655	0.8785	0.47845	0.063
Mof_C 	C 	0.3371	0.2348	0.52426	0.037
Mof_H 	H 	0.3038	0.2142	0.5188	0.015
Mof_C 	C 	0.3782	0.6143	0.5014	-0.113
Mof_H 	H 	0.3605	0.5872	0.4928	0.063
Mof_C 	C 	0.4068	0.4843	0.50761	-0.037
Mof_H 	H 	0.4179	0.5003	0.496	0.037
Mof_C 	C 	0.3774	0.5073	0.54005	-0.044
Mof_H 	H 	0.3703	0.5348	0.5499	0.039
Mof_C 	C 	0.3759	0.4429	0.54314	-0.035
Mof_H 	H 	0.3676	0.4276	0.5551	0.038
Mof_C 	C 	0.4066	0.4204	0.51078	-0.047
Mof_H 	H 	0.4187	0.392	0.5017	0.04
Mof_C 	C 	0.1962	0.9027	0.46355	-0.083
Mof_H 	H 	0.1733	0.9201	0.4538	0.051
Mof_C 	C 	0.39483	0.15812	0.35961	-0.048
Mof_H 	H 	0.3838	0.1392	0.3484	0.04
Mof_C 	C 	0.4082	0.21984	0.36001	-0.002
Mof_C 	C 	0.4244	0.24751	0.37645	-0.049
Mof_H 	H 	0.4335	0.2897	0.3767	0.039
Mof_C 	C 	0.4272	0.2135	0.3925	-0.052
Mof_H 	H 	0.4382	0.2324	0.4037	0.037
Mof_C 	C 	0.4138	0.1517	0.39211	-0.004
Mof_C 	C 	0.3977	0.12406	0.37566	-0.048
Mof_H 	H 	0.3885	0.0819	0.3754	0.041
Mof_C 	C 	0.3859	0.6777	0.4972	0.052
Mof_H 	H 	0.3712	0.6927	0.4858	0.019
Mof_C 	C 	0.3982	0.5928	0.51916	0.04
Mof_O 	O 	0.39471	0.9547	0.45821	-0.482
Mof_C 	C 	0.4162	0.2394	0.54435	0.078
Mof_H 	H 	0.4441	0.2186	0.5521	0.002
Mof_C 	C 	0.41384	0.35142	0.32592	0.033
Mof_H 	H 	0.4229	0.3936	0.326	0.015
Mof_C 	C 	0.418	0.31797	0.34206	-0.107
Mof_H 	H 	0.4299	0.3373	0.3532	0.06
Mof_C 	C 	0.4048	0.2562	0.34197	0.054
Mof_C 	C 	0.3874	0.22788	0.32573	-0.114
Mof_H 	H 	0.3784	0.1857	0.3257	0.063
Mof_C 	C 	0.3833	0.26134	0.3096	0.044
Mof_H 	H 	0.3714	0.242	0.2985	0.013
Mof_N 	N 	0.39645	0.32311	0.30969	-0.221
Mof_O 	O 	0.45575	0.81267	0.5137	-0.485
Mof_C 	C 	0.1902	0.8758	0.66877	0.056
Mof_H 	H 	0.1752	0.858	0.6578	0.003
Mof_C 	C 	0.4305	0.6952	0.52614	0.057
Mof_H 	H 	0.4487	0.7229	0.5345	0.02
Mof_C 	C 	0.2287	0.922	0.70038	-0.162
Mof_H 	H 	0.2454	0.9353	0.7117	0.066
Mof_C 	C 	0.2643	0.9285	0.68503	0.079
Mof_H 	H 	0.3017	0.95	0.6859	-0.006
Mof_C 	C 	0.1559	0.8733	0.68473	-0.128
Mof_H 	H 	0.1182	0.8524	0.6844	0.068
Mof_C 	C 	0.3247	0.8622	0.64802	-0.028
Mof_H 	H 	0.3274	0.8285	0.6561	0.031
Mof_C 	C 	0.2872	0.9111	0.65234	-0.01
Mof_C 	C 	0.2833	0.9604	0.64048	-0.035
Mof_H 	H 	0.2577	0.9938	0.6434	0.038
Mof_C 	C 	0.3168	0.9609	0.62429	-0.038
Mof_H 	H 	0.3141	0.9946	0.6162	0.037
Mof_C 	C 	0.3542	0.912	0.61997	0.028
Mof_C 	C 	0.3581	0.8627	0.63184	-0.048
Mof_H 	H 	0.3837	0.8293	0.6289	0.043
Mof_C 	C 	0.8025	0.90434	0.48314	0.014
Mof_H 	H 	0.773	0.9017	0.4736	0.028
Mof_C 	C 	0.8639	0.8987	0.47901	-0.07
Mof_H 	H 	0.8764	0.8922	0.4667	0.047
Mof_C 	C 	0.9069	0.9026	0.49292	0.067
Mof_C 	C 	0.8886	0.9121	0.51096	-0.082
Mof_H 	H 	0.918	0.9147	0.5205	0.051
Mof_C 	C 	0.8272	0.9177	0.51508	0.023
Mof_H 	H 	0.8146	0.9242	0.5274	0.019
Mof_C 	C 	0.7841	0.9138	0.50117	-0.109
Mof_C 	C 	0.0772	0.87497	0.49989	-0.046
Mof_H 	H 	0.1043	0.863	0.5094	0.039
Mof_C 	C 	0.0993	0.8857	0.48231	-0.012
Mof_C 	C 	0.0597	0.9033	0.4684	-0.048
Mof_H 	H 	0.0748	0.9106	0.4564	0.04
Mof_C 	C 	0.9981	0.91	0.47209	-0.048
Mof_H 	H 	0.9711	0.922	0.4626	0.04
Mof_C 	C 	0.9761	0.8992	0.48968	-0.008
Mof_C 	C 	0.0156	0.8817	0.50358	-0.048
Mof_H 	H 	0.0006	0.8743	0.5156	0.039
Mof_C 	C 	0.3886	0.5277	0.52364	0.018
Mof_C 	C 	0.3868	0.4025	0.52859	0.009
Mof_C 	C 	0.1624	0.9349	0.68808	0.229
Mof_H 	H 	0.1292	0.962	0.6897	-0.066
Mof_C 	C 	0.2225	0.8652	0.69885	0.223
Mof_H 	H 	0.2322	0.8376	0.7084	-0.06
Mof_C 	C 	0.2616	0.867	0.68355	-0.232
Mof_H 	H 	0.2974	0.8428	0.6832	0.101
Mof_C 	C 	0.1949	0.939	0.67162	-0.236
Mof_H 	H 	0.1811	0.9655	0.6622	0.107
Mof_C 	C 	0.2011	0.9316	0.47912	-0.067
Mof_H 	H 	0.1821	0.9693	0.4818	0.046
Mof_C 	C 	0.2033	0.8256	0.48114	-0.103
Mof_H 	H 	0.1876	0.7908	0.4872	0.058
Mof_C 	C 	0.2619	0.9304	0.47611	0.017
Mof_H 	H 	0.283	0.9677	0.4745	0.017
Mof_C 	C 	0.2605	0.8258	0.47504	0.049
Mof_H 	H 	0.2786	0.7895	0.4706	0.008
Mof_C 	C 	0.3336	0.4977	0.52627	-0.039
Mof_H 	H 	0.2967	0.5201	0.5264	0.039
Mof_C 	C 	0.4426	0.495	0.5235	-0.043
Mof_H 	H 	0.4802	0.5155	0.5217	0.037
Mof_C 	C 	0.4418	0.4324	0.52597	-0.032
Mof_H 	H 	0.4787	0.4101	0.5259	0.04
Mof_C 	C 	0.3328	0.4351	0.52874	-0.04
Mof_H 	H 	0.2952	0.4146	0.5305	0.039
Mof_C 	C 	0.3024	0.8788	0.61901	-0.052
Mof_H 	H 	0.2889	0.8614	0.6078	0.042
Mof_C 	C 	0.2656	0.8703	0.63747	-0.038
Mof_H 	H 	0.2332	0.8422	0.6389	0.038
Mof_C 	C 	0.333	0.9462	0.65023	-0.022
Mof_H 	H 	0.3442	0.9726	0.66	0.029
Mof_C 	C 	0.3671	0.9469	0.63405	-0.051
Mof_H 	H 	0.4009	0.9736	0.6332	0.038
Mof_C 	C 	0.8168	0.8616	0.50865	-0.008
Mof_H 	H 	0.7974	0.8327	0.5164	0.037
Mof_C 	C 	0.8149	0.9573	0.49081	0.015
Mof_H 	H 	0.7949	0.9935	0.4872	0.018
Mof_C 	C 	0.873	0.9478	0.48602	-0.07
Mof_H 	H 	0.891	0.9744	0.4773	0.05
Mof_C 	C 	0.8763	0.8566	0.50394	-0.055
Mof_H 	H 	0.8987	0.8221	0.5079	0.043
Mof_Co	Co	0.97966	0.40163	0.00949	1.066
Mof_Co	Co	0.90162	0.52015	0.00163	1.064
Mof_Co	Co	0.12008	0.39051	0.0354	1.124
Mof_Co	Co	0.89029	0.37943	0.97578	1.119
Mof_O 	O 	0.89517	0.42908	0.00039	-0.767
Mof_H 	H 	0.8631	0.4146	0.0091	0.152
Mof_O 	O 	0.07229	0.39401	0.01127	-0.76
Mof_H 	H 	0.0871	0.3617	0.0027	0.156
Mof_O 	O 	0.96628	0.42488	0.03717	-0.527
Mof_O 	O 	0.04598	0.3929	0.05257	-0.478
Mof_O 	O 	0.92723	0.53632	0.97423	-0.509
Mof_O 	O 	0.20132	0.39048	0.02077	-0.463
Mof_O 	O 	0.89296	0.29917	0.9904	-0.479
Mof_O 	O 	0.1858	0.45522	0.99666	-0.448
Mof_N 	N 	0.79262	0.3789	0.97531	-0.229
Mof_N 	N 	0.67329	0.39888	0.20081	-0.255
Mof_N 	N 	0.8759	0.70597	0.03586	-0.228
Mof_C 	C 	0.2183	0.4192	0.00705	0.34
Mof_C 	C 	0.9228	0.281	0.00438	0.413
Mof_C 	C 	0.9135	0.2172	0.00906	-0.158
Mof_C 	C 	0.9906	0.4073	0.05174	0.424
Mof_C 	C 	0.913	0.5062	0.95937	0.391
Mof_C 	C 	0.9229	0.1356	0.0319	-0.119
Mof_H 	H 	0.9339	0.1236	0.044	0.064
Mof_C 	C 	0.8864	0.8328	0.0312	0.063
Mof_C 	C 	0.7471	0.4048	0.16893	0.081
Mof_C 	C 	0.8492	0.7996	0.02054	-0.118
Mof_H 	H 	0.8301	0.8184	0.0103	0.064
Mof_C 	C 	0.9224	0.8023	0.04327	-0.136
Mof_H 	H 	0.951	0.8232	0.0507	0.073
Mof_C 	C 	0.7625	0.3529	0.98997	-0.001
Mof_H 	H 	0.7863	0.3346	0.9993	0.013
Mof_C 	C 	0.98326	0.42843	0.08599	0.067
Mof_H 	H 	0.0253	0.4381	0.0866	0.01
Mof_C 	C 	0.95627	0.4156	0.06918	-0.166
Mof_C 	C 	0.89476	0.4015	0.06834	0.058
Mof_H 	H 	0.8763	0.3927	0.0569	0.001
Mof_C 	C 	0.86024	0.40024	0.08432	-0.124
Mof_H 	H 	0.8182	0.3906	0.0838	0.064
Mof_C 	C 	0.88723	0.41307	0.10113	0.049
Mof_C 	C 	0.94874	0.42717	0.10197	-0.126
Mof_H 	H 	0.9672	0.4359	0.1135	0.066
Mof_C 	C 	0.7587	0.4026	0.96226	0.041
Mof_H 	H 	0.7777	0.4199	0.9518	0.006
Mof_C 	C 	0.91991	0.64067	0.92564	-0.121
Mof_H 	H 	0.9254	0.6835	0.9258	0.064
Mof_C 	C 	0.91629	0.60853	0.94203	0.048
Mof_H 	H 	0.9193	0.6294	0.9534	0.002
Mof_C 	C 	0.90821	0.54589	0.94176	-0.128
Mof_C 	C 	0.90375	0.51539	0.9251	0.044
Mof_H 	H 	0.8982	0.4726	0.9249	0.022
Mof_C 	C 	0.9074	0.54753	0.90871	-0.116
Mof_H 	H 	0.9043	0.5267	0.8973	0.064
Mof_C 	C 	0.91544	0.61017	0.90898	0.057
Mof_C 	C 	0.7028	0.3517	0.99182	-0.023
Mof_H 	H 	0.685	0.3326	0.0022	0.026
Mof_C 	C 	0.6655	0.3785	0.97845	0.063
Mof_C 	C 	0.8371	0.7348	0.02426	0.037
Mof_H 	H 	0.8038	0.7142	0.0188	0.015
Mof_C 	C 	0.8782	0.1143	0.0014	-0.113
Mof_H 	H 	0.8605	0.0872	0.9928	0.063
Mof_C 	C 	0.9068	0.9843	0.00761	-0.037
Mof_H 	H 	0.9179	0.0003	0.996	0.037
Mof_C 	C 	0.8774	0.0073	0.04005	-0.045
Mof_H 	H 	0.8703	0.0348	0.0499	0.04
Mof_C 	C 	0.8759	0.9429	0.04314	-0.034
Mof_H 	H 	0.8676	0.9276	0.0551	0.037
Mof_C 	C 	0.9066	0.9204	0.01078	-0.046
Mof_H 	H 	0.9187	0.892	0.0017	0.04
Mof_C 	C 	0.6962	0.4027	0.96355	-0.083
Mof_H 	H 	0.6733	0.4201	0.9538	0.051
Mof_C 	C 	0.89483	0.65812	0.85961	-0.048
Mof_H 	H 	0.8838	0.6392	0.8484	0.04
Mof_C 	C 	0.9082	0.71984	0.86001	-0.002
Mof_C 	C 	0.9244	0.74751	0.87645	-0.049
Mof_H 	H 	0.9335	0.7897	0.8767	0.039
Mof_C 	C 	0.9272	0.7135	0.8925	-0.052
Mof_H 	H 	0.9382	0.7324	0.9037	0.037
Mof_C 	C 	0.9138	0.6517	0.89211	-0.004
Mof_C 	C 	0.8977	0.62406	0.87566	-0.048
Mof_H 	H 	0.8885	0.5819	0.8754	0.041
Mof_C 	C 	0.8859	0.1777	0.9972	0.053
Mof_H 	H 	0.8712	0.1927	0.9858	0.019
Mof_C 	C 	0.8982	0.0928	0.01916	0.04
Mof_O 	O 	0.89471	0.4547	0.95821	-0.482
Mof_C 	C 	0.9162	0.7394	0.04435	0.078
Mof_H 	H 	0.9441	0.7186	0.0521	0.002
Mof_C 	C 	0.91384	0.85142	0.82592	0.033
Mof_H 	H 	0.9229	0.8936	0.826	0.015
Mof_C 	C 	0.918	0.81797	0.84206	-0.107
Mof_H 	H 	0.9299	0.8373	0.8532	0.06
Mof_C 	C 	0.9048	0.7562	0.84197	0.054
Mof_C 	C 	0.8874	0.72788	0.82573	-0.114
Mof_H 	H 	0.8784	0.6857	0.8257	0.063
Mof_C 	C 	0.8833	0.76134	0.8096	0.044
Mof_H 	H 	0.8714	0.742	0.7985	0.013
Mof_N 	N 	0.89645	0.82311	0.80969	-0.221
Mof_O 	O 	0.95575	0.31267	0.0137	-0.485
Mof_C 	C 	0.6902	0.3758	0.16877	0.056
Mof_H 	H 	0.6752	0.358	0.1578	0.003
Mof_C 	C 	0.9305	0.1952	0.02614	0.057
Mof_H 	H 	0.9487	0.2229	0.0345	0.02
Mof_C 	C 	0.7287	0.422	0.20038	-0.162
Mof_H 	H 	0.7454	0.4353	0.2117	0.066
Mof_C 	C 	0.7643	0.4285	0.18503	0.079
Mof_H 	H 	0.8017	0.45	0.1859	-0.006
Mof_C 	C 	0.6559	0.3733	0.18473	-0.128
Mof_H 	H 	0.6182	0.3524	0.1844	0.068
Mof_C 	C 	0.8247	0.3622	0.14802	-0.028
Mof_H 	H 	0.8274	0.3285	0.1561	0.031
Mof_C 	C 	0.7872	0.4111	0.15234	-0.01
Mof_C 	C 	0.7833	0.4604	0.14048	-0.035
Mof_H 	H 	0.7577	0.4938	0.1434	0.038
Mof_C 	C 	0.8168	0.4609	0.12429	-0.038
Mof_H 	H 	0.8141	0.4946	0.1162	0.037
Mof_C 	C 	0.8542	0.412	0.11997	0.028
Mof_C 	C 	0.8581	0.3627	0.13184	-0.048
Mof_H 	H 	0.8837	0.3293	0.1289	0.043
Mof_C 	C 	0.3025	0.40434	0.98314	0.013
Mof_H 	H 	0.273	0.4017	0.9736	0.028
Mof_C 	C 	0.3639	0.3987	0.97901	-0.07
Mof_H 	H 	0.3764	0.3922	0.9667	0.046
Mof_C 	C 	0.4069	0.4026	0.99292	0.067
Mof_C 	C 	0.3886	0.4121	0.01096	-0.082
Mof_H 	H 	0.418	0.4147	0.0205	0.051
Mof_C 	C 	0.3272	0.4177	0.01508	0.023
Mof_H 	H 	0.3146	0.4242	0.0274	0.019
Mof_C 	C 	0.2841	0.4138	0.00117	-0.109
Mof_C 	C 	0.5772	0.37497	0.99989	-0.046
Mof_H 	H 	0.6043	0.363	0.0094	0.039
Mof_C 	C 	0.5993	0.3857	0.98231	-0.012
Mof_C 	C 	0.5597	0.4033	0.9684	-0.048
Mof_H 	H 	0.5748	0.4106	0.9564	0.04
Mof_C 	C 	0.4981	0.41	0.97209	-0.048
Mof_H 	H 	0.4711	0.422	0.9626	0.04
Mof_C 	C 	0.4761	0.3992	0.98968	-0.008
Mof_C 	C 	0.5156	0.3817	0.00358	-0.048
Mof_H 	H 	0.5006	0.3743	0.0156	0.039
Mof_C 	C 	0.8886	0.0277	0.02364	0.017
Mof_C 	C 	0.8868	0.9025	0.02859	0.009
Mof_C 	C 	0.6624	0.4349	0.18808	0.229
Mof_H 	H 	0.6292	0.462	0.1897	-0.066
Mof_C 	C 	0.7225	0.3652	0.19885	0.223
Mof_H 	H 	0.7322	0.3376	0.2084	-0.06
Mof_C 	C 	0.7616	0.367	0.18355	-0.233
Mof_H 	H 	0.7974	0.3428	0.1832	0.101
Mof_C 	C 	0.6949	0.439	0.17162	-0.236
Mof_H 	H 	0.6811	0.4655	0.1622	0.107
Mof_C 	C 	0.7011	0.4316	0.97912	-0.067
Mof_H 	H 	0.6821	0.4693	0.9818	0.046
Mof_C 	C 	0.7033	0.3256	0.98114	-0.103
Mof_H 	H 	0.6876	0.2908	0.9872	0.058
Mof_C 	C 	0.7619	0.4304	0.97611	0.017
Mof_H 	H 	0.783	0.4677	0.9745	0.017
Mof_C 	C 	0.7605	0.3258	0.97504	0.049
Mof_H 	H 	0.7786	0.2895	0.9706	0.008
Mof_C 	C 	0.8336	0.9977	0.02627	-0.038
Mof_H 	H 	0.7967	0.0201	0.0264	0.039
Mof_C 	C 	0.9426	0.995	0.0235	-0.042
Mof_H 	H 	0.9802	0.0155	0.0217	0.037
Mof_C 	C 	0.9418	0.9324	0.02597	-0.033
Mof_H 	H 	0.9787	0.9101	0.0259	0.04
Mof_C 	C 	0.8328	0.9351	0.02874	-0.041
Mof_H 	H 	0.7952	0.9146	0.0305	0.04
Mof_C 	C 	0.8024	0.3788	0.11901	-0.052
Mof_H 	H 	0.7889	0.3614	0.1078	0.042
Mof_C 	C 	0.7656	0.3703	0.13747	-0.038
Mof_H 	H 	0.7332	0.3422	0.1389	0.038
Mof_C 	C 	0.833	0.4462	0.15023	-0.022
Mof_H 	H 	0.8442	0.4726	0.16	0.029
Mof_C 	C 	0.8671	0.4469	0.13405	-0.051
Mof_H 	H 	0.9009	0.4736	0.1332	0.038
Mof_C 	C 	0.3168	0.3616	0.00865	-0.008
Mof_H 	H 	0.2974	0.3327	0.0164	0.037
Mof_C 	C 	0.3149	0.4573	0.99081	0.015
Mof_H 	H 	0.2949	0.4935	0.9872	0.018
Mof_C 	C 	0.373	0.4478	0.98602	-0.07
Mof_H 	H 	0.391	0.4744	0.9773	0.05
Mof_C 	C 	0.3763	0.3566	0.00394	-0.055
Mof_H 	H 	0.3987	0.3221	0.0079	0.043
Mof_Co	Co	0.02034	0.59837	0.00949	1.066
Mof_Co	Co	0.09838	0.47985	0.00163	1.064
Mof_Co	Co	0.87992	0.60949	0.0354	1.124
Mof_Co	Co	0.10971	0.62057	0.97578	1.119
Mof_O 	O 	0.10483	0.57092	0.00039	-0.767
Mof_H 	H 	0.1369	0.5854	0.0091	0.152
Mof_O 	O 	0.92771	0.60599	0.01127	-0.76
Mof_H 	H 	0.9129	0.6383	0.0027	0.156
Mof_O 	O 	0.03372	0.57512	0.03717	-0.527
Mof_O 	O 	0.95402	0.6071	0.05257	-0.478
Mof_O 	O 	0.07277	0.46368	0.97423	-0.509
Mof_O 	O 	0.79868	0.60952	0.02077	-0.463
Mof_O 	O 	0.10704	0.70083	0.9904	-0.479
Mof_O 	O 	0.8142	0.54478	0.99666	-0.448
Mof_N 	N 	0.20738	0.6211	0.97531	-0.229
Mof_N 	N 	0.32671	0.60112	0.20081	-0.255
Mof_N 	N 	0.1241	0.29403	0.03586	-0.228
Mof_C 	C 	0.7817	0.5808	0.00705	0.34
Mof_C 	C 	0.0772	0.719	0.00438	0.413
Mof_C 	C 	0.0865	0.7828	0.00906	-0.158
Mof_C 	C 	0.0094	0.5927	0.05174	0.424
Mof_C 	C 	0.087	0.4938	0.95937	0.391
Mof_C 	C 	0.0771	0.8644	0.0319	-0.119
Mof_H 	H 	0.0661	0.8764	0.044	0.064
Mof_C 	C 	0.1136	0.1672	0.0312	0.063
Mof_C 	C 	0.2529	0.5952	0.16893	0.081
Mof_C 	C 	0.1508	0.2004	0.02054	-0.118
Mof_H 	H 	0.1699	0.1816	0.0103	0.064
Mof_C 	C 	0.0776	0.1977	0.04327	-0.136
Mof_H 	H 	0.049	0.1768	0.0507	0.073
Mof_C 	C 	0.2375	0.6471	0.98997	-0.001
Mof_H 	H 	0.2137	0.6654	0.9993	0.013
Mof_C 	C 	0.01674	0.57157	0.08599	0.067
Mof_H 	H 	0.9747	0.5619	0.0866	0.01
Mof_C 	C 	0.04373	0.5844	0.06918	-0.166
Mof_C 	C 	0.10524	0.5985	0.06834	0.058
Mof_H 	H 	0.1237	0.6073	0.0569	0.001
Mof_C 	C 	0.13976	0.59976	0.08432	-0.124
Mof_H 	H 	0.1818	0.6094	0.0838	0.064
Mof_C 	C 	0.11277	0.58693	0.10113	0.049
Mof_C 	C 	0.05126	0.57283	0.10197	-0.126
Mof_H 	H 	0.0328	0.5641	0.1135	0.066
Mof_C 	C 	0.2413	0.5974	0.96226	0.041
Mof_H 	H 	0.2223	0.5801	0.9518	0.006
Mof_C 	C 	0.08009	0.35933	0.92564	-0.121
Mof_H 	H 	0.0746	0.3165	0.9258	0.064
Mof_C 	C 	0.08371	0.39147	0.94203	0.048
Mof_H 	H 	0.0807	0.3706	0.9534	0.002
Mof_C 	C 	0.09179	0.45411	0.94176	-0.128
Mof_C 	C 	0.09625	0.48461	0.9251	0.044
Mof_H 	H 	0.1018	0.5274	0.9249	0.022
Mof_C 	C 	0.0926	0.45247	0.90871	-0.116
Mof_H 	H 	0.0957	0.4733	0.8973	0.064
Mof_C 	C 	0.08456	0.38983	0.90898	0.057
Mof_C 	C 	0.2972	0.6483	0.99182	-0.023
Mof_H 	H 	0.315	0.6674	0.0022	0.026
Mof_C 	C 	0.3345	0.6215	0.97845	0.063
Mof_C 	C 	0.1629	0.2652	0.02426	0.037
Mof_H 	H 	0.1962	0.2858	0.0188	0.015
Mof_C 	C 	0.1218	0.8857	0.0014	-0.113
Mof_H 	H 	0.1395	0.9128	0.9928	0.063
Mof_C 	C 	0.0932	0.0157	0.00761	-0.037
Mof_H 	H 	0.0821	0.9997	0.996	0.037
Mof_C 	C 	0.1226	0.9927	0.04005	-0.045
Mof_H 	H 	0.1297	0.9652	0.0499	0.04
Mof_C 	C 	0.1241	0.0571	0.04314	-0.034
Mof_H 	H 	0.1324	0.0724	0.0551	0.037
Mof_C 	C 	0.0934	0.0796	0.01078	-0.046
Mof_H 	H 	0.0813	0.108	0.0017	0.04
Mof_C 	C 	0.3038	0.5973	0.96355	-0.083
Mof_H 	H 	0.3267	0.5799	0.9538	0.051
Mof_C 	C 	0.10517	0.34188	0.85961	-0.048
Mof_H 	H 	0.1162	0.3608	0.8484	0.04
Mof_C 	C 	0.0918	0.28016	0.86001	-0.002
Mof_C 	C 	0.0756	0.25249	0.87645	-0.049
Mof_H 	H 	0.0665	0.2103	0.8767	0.039
Mof_C 	C 	0.0728	0.2865	0.8925	-0.052
Mof_H 	H 	0.0618	0.2676	0.9037	0.037
Mof_C 	C 	0.0862	0.3483	0.89211	-0.004
Mof_C 	C 	0.1023	0.37594	0.87566	-0.048
Mof_H 	H 	0.1115	0.4181	0.8754	0.041
Mof_C 	C 	0.1141	0.8223	0.9972	0.053
Mof_H 	H 	0.1288	0.8073	0.9858	0.019
Mof_C 	C 	0.1018	0.9072	0.01916	0.04
Mof_O 	O 	0.10529	0.5453	0.95821	-0.482
Mof_C 	C 	0.0838	0.2606	0.04435	0.078
Mof_H 	H 	0.0559	0.2814	0.0521	0.002
Mof_C 	C 	0.08616	0.14858	0.82592	0.033
Mof_H 	H 	0.0771	0.1064	0.826	0.015
Mof_C 	C 	0.082	0.18203	0.84206	-0.107
Mof_H 	H 	0.0701	0.1627	0.8532	0.06
Mof_C 	C 	0.0952	0.2438	0.84197	0.054
Mof_C 	C 	0.1126	0.27212	0.82573	-0.114
Mof_H 	H 	0.1216	0.3143	0.8257	0.063
Mof_C 	C 	0.1167	0.23866	0.8096	0.044
Mof_H 	H 	0.1286	0.258	0.7985	0.013
Mof_N 	N 	0.10355	0.17689	0.80969	-0.221
Mof_O 	O 	0.04425	0.68733	0.0137	-0.485
Mof_C 	C 	0.3098	0.6242	0.16877	0.056
Mof_H 	H 	0.3248	0.642	0.1578	0.003
Mof_C 	C 	0.0695	0.8048	0.02614	0.057
Mof_H 	H 	0.0513	0.7771	0.0345	0.02
Mof_C 	C 	0.2713	0.578	0.20038	-0.162
Mof_H 	H 	0.2546	0.5647	0.2117	0.066
Mof_C 	C 	0.2357	0.5715	0.18503	0.079
Mof_H 	H 	0.1983	0.55	0.1859	-0.006
Mof_C 	C 	0.3441	0.6267	0.18473	-0.128
Mof_H 	H 	0.3818	0.6476	0.1844	0.068
Mof_C 	C 	0.1753	0.6378	0.14802	-0.028
Mof_H 	H 	0.1726	0.6715	0.1561	0.031
Mof_C 	C 	0.2128	0.5889	0.15234	-0.01
Mof_C 	C 	0.2167	0.5396	0.14048	-0.035
Mof_H 	H 	0.2423	0.5062	0.1434	0.038
Mof_C 	C 	0.1832	0.5391	0.12429	-0.038
Mof_H 	H 	0.1859	0.5054	0.1162	0.037
Mof_C 	C 	0.1458	0.588	0.11997	0.028
Mof_C 	C 	0.1419	0.6373	0.13184	-0.048
Mof_H 	H 	0.1163	0.6707	0.1289	0.043
Mof_C 	C 	0.6975	0.59566	0.98314	0.013
Mof_H 	H 	0.727	0.5983	0.9736	0.028
Mof_C 	C 	0.6361	0.6013	0.97901	-0.07
Mof_H 	H 	0.6236	0.6078	0.9667	0.046
Mof_C 	C 	0.5931	0.5974	0.99292	0.067
Mof_C 	C 	0.6114	0.5879	0.01096	-0.082
Mof_H 	H 	0.582	0.5853	0.0205	0.051
Mof_C 	C 	0.6728	0.5823	0.01508	0.023
Mof_H 	H 	0.6854	0.5758	0.0274	0.019
Mof_C 	C 	0.7159	0.5862	0.00117	-0.109
Mof_C 	C 	0.4228	0.62503	0.99989	-0.046
Mof_H 	H 	0.3957	0.637	0.0094	0.039
Mof_C 	C 	0.4007	0.6143	0.98231	-0.012
Mof_C 	C 	0.4403	0.5967	0.9684	-0.048
Mof_H 	H 	0.4252	0.5894	0.9564	0.04
Mof_C 	C 	0.5019	0.59	0.97209	-0.048
Mof_H 	H 	0.5289	0.578	0.9626	0.04
Mof_C 	C 	0.5239	0.6008	0.98968	-0.008
Mof_C 	C 	0.4844	0.6183	0.00358	-0.048
Mof_H 	H 	0.4994	0.6257	0.0156	0.039
Mof_C 	C 	0.1114	0.9723	0.02364	0.017
Mof_C 	C 	0.1132	0.0975	0.02859	0.009
Mof_C 	C 	0.3376	0.5651	0.18808	0.229
Mof_H 	H 	0.3708	0.538	0.1897	-0.066
Mof_C 	C 	0.2775	0.6348	0.19885	0.223
Mof_H 	H 	0.2678	0.6624	0.2084	-0.06
Mof_C 	C 	0.2384	0.633	0.18355	-0.233
Mof_H 	H 	0.2026	0.6572	0.1832	0.101
Mof_C 	C 	0.3051	0.561	0.17162	-0.236
Mof_H 	H 	0.3189	0.5345	0.1622	0.107
Mof_C 	C 	0.2989	0.5684	0.97912	-0.067
Mof_H 	H 	0.3179	0.5307	0.9818	0.046
Mof_C 	C 	0.2967	0.6744	0.98114	-0.103
Mof_H 	H 	0.3124	0.7092	0.9872	0.058
Mof_C 	C 	0.2381	0.5696	0.97611	0.017
Mof_H 	H 	0.217	0.5323	0.9745	0.017
Mof_C 	C 	0.2395	0.6742	0.97504	0.049
Mof_H 	H 	0.2214	0.7105	0.9706	0.008
Mof_C 	C 	0.1664	0.0023	0.02627	-0.038
Mof_H 	H 	0.2033	0.9799	0.0264	0.039
Mof_C 	C 	0.0574	0.005	0.0235	-0.042
Mof_H 	H 	0.0198	0.9845	0.0217	0.037
Mof_C 	C 	0.0582	0.0676	0.02597	-0.033
Mof_H 	H 	0.0213	0.0899	0.0259	0.04
Mof_C 	C 	0.1672	0.0649	0.02874	-0.041
Mof_H 	H 	0.2048	0.0854	0.0305	0.04
Mof_C 	C 	0.1976	0.6212	0.11901	-0.052
Mof_H 	H 	0.2111	0.6386	0.1078	0.042
Mof_C 	C 	0.2344	0.6297	0.13747	-0.038
Mof_H 	H 	0.2668	0.6578	0.1389	0.038
Mof_C 	C 	0.167	0.5538	0.15023	-0.022
Mof_H 	H 	0.1558	0.5274	0.16	0.029
Mof_C 	C 	0.1329	0.5531	0.13405	-0.051
Mof_H 	H 	0.0991	0.5264	0.1332	0.038
Mof_C 	C 	0.6832	0.6384	0.00865	-0.008
Mof_H 	H 	0.7026	0.6673	0.0164	0.037
Mof_C 	C 	0.6851	0.5427	0.99081	0.015
Mof_H 	H 	0.7051	0.5065	0.9872	0.018
Mof_C 	C 	0.627	0.5522	0.98602	-0.07
Mof_H 	H 	0.609	0.5256	0.9773	0.05
Mof_C 	C 	0.6237	0.6434	0.00394	-0.055
Mof_H 	H 	0.6013	0.6779	0.0079	0.043
Mof_Co	Co	0.52034	0.09837	0.50949	1.066
Mof_Co	Co	0.59838	0.97985	0.50163	1.065
Mof_Co	Co	0.37992	0.10949	0.5354	1.124
Mof_Co	Co	0.60971	0.12057	0.47578	1.119
Mof_O 	O 	0.60483	0.07092	0.50039	-0.767
Mof_H 	H 	0.6369	0.0854	0.5091	0.152
Mof_O 	O 	0.42771	0.10599	0.51127	-0.76
Mof_H 	H 	0.4129	0.1383	0.5027	0.156
Mof_O 	O 	0.53372	0.07512	0.53717	-0.527
Mof_O 	O 	0.45402	0.1071	0.55257	-0.478
Mof_O 	O 	0.57277	0.96368	0.47423	-0.509
Mof_O 	O 	0.29868	0.10952	0.52077	-0.463
Mof_O 	O 	0.60704	0.20083	0.4904	-0.479
Mof_O 	O 	0.3142	0.04478	0.49666	-0.448
Mof_N 	N 	0.70738	0.1211	0.47531	-0.229
Mof_N 	N 	0.82671	0.10112	0.70081	-0.255
Mof_N 	N 	0.6241	0.79403	0.53586	-0.228
Mof_C 	C 	0.2817	0.0808	0.50705	0.34
Mof_C 	C 	0.5772	0.219	0.50438	0.413
Mof_C 	C 	0.5865	0.2828	0.50906	-0.158
Mof_C 	C 	0.5094	0.0927	0.55174	0.424
Mof_C 	C 	0.587	0.9938	0.45937	0.391
Mof_C 	C 	0.5771	0.3644	0.5319	-0.119
Mof_H 	H 	0.5661	0.3764	0.544	0.064
Mof_C 	C 	0.6136	0.6672	0.5312	0.063
Mof_C 	C 	0.7529	0.0952	0.66893	0.081
Mof_C 	C 	0.6508	0.7004	0.52054	-0.118
Mof_H 	H 	0.6699	0.6816	0.5103	0.064
Mof_C 	C 	0.5776	0.6977	0.54327	-0.136
Mof_H 	H 	0.549	0.6768	0.5507	0.073
Mof_C 	C 	0.7375	0.1471	0.48997	-0.001
Mof_H 	H 	0.7137	0.1654	0.4993	0.013
Mof_C 	C 	0.51674	0.07157	0.58599	0.067
Mof_H 	H 	0.4747	0.0619	0.5866	0.01
Mof_C 	C 	0.54373	0.0844	0.56918	-0.166
Mof_C 	C 	0.60524	0.0985	0.56834	0.058
Mof_H 	H 	0.6237	0.1073	0.5569	0.001
Mof_C 	C 	0.63976	0.09976	0.58432	-0.124
Mof_H 	H 	0.6818	0.1094	0.5838	0.064
Mof_C 	C 	0.61277	0.08693	0.60113	0.049
Mof_C 	C 	0.55126	0.07283	0.60197	-0.126
Mof_H 	H 	0.5328	0.0641	0.6135	0.066
Mof_C 	C 	0.7413	0.0974	0.46226	0.041
Mof_H 	H 	0.7223	0.0801	0.4518	0.006
Mof_C 	C 	0.58009	0.85933	0.42564	-0.121
Mof_H 	H 	0.5746	0.8165	0.4258	0.064
Mof_C 	C 	0.58371	0.89147	0.44203	0.048
Mof_H 	H 	0.5807	0.8706	0.4534	0.002
Mof_C 	C 	0.59179	0.95411	0.44176	-0.128
Mof_C 	C 	0.59625	0.98461	0.4251	0.044
Mof_H 	H 	0.6018	0.0274	0.4249	0.022
Mof_C 	C 	0.5926	0.95247	0.40871	-0.116
Mof_H 	H 	0.5957	0.9733	0.3973	0.064
Mof_C 	C 	0.58456	0.88983	0.40898	0.057
Mof_C 	C 	0.7972	0.1483	0.49182	-0.023
Mof_H 	H 	0.815	0.1674	0.5022	0.026
Mof_C 	C 	0.8345	0.1215	0.47845	0.063
Mof_C 	C 	0.6629	0.7652	0.52426	0.037
Mof_H 	H 	0.6962	0.7858	0.5188	0.015
Mof_C 	C 	0.6218	0.3857	0.5014	-0.113
Mof_H 	H 	0.6395	0.4128	0.4928	0.063
Mof_C 	C 	0.5932	0.5157	0.50761	-0.037
Mof_H 	H 	0.5821	0.4997	0.496	0.037
Mof_C 	C 	0.6226	0.4927	0.54005	-0.044
Mof_H 	H 	0.6297	0.4652	0.5499	0.039
Mof_C 	C 	0.6241	0.5571	0.54314	-0.035
Mof_H 	H 	0.6324	0.5724	0.5551	0.038
Mof_C 	C 	0.5934	0.5796	0.51078	-0.047
Mof_H 	H 	0.5813	0.608	0.5017	0.04
Mof_C 	C 	0.8038	0.0973	0.46355	-0.083
Mof_H 	H 	0.8267	0.0799	0.4538	0.051
Mof_C 	C 	0.60517	0.84188	0.35961	-0.048
Mof_H 	H 	0.6162	0.8608	0.3484	0.04
Mof_C 	C 	0.5918	0.78016	0.36001	-0.002
Mof_C 	C 	0.5756	0.75249	0.37645	-0.049
Mof_H 	H 	0.5665	0.7103	0.3767	0.039
Mof_C 	C 	0.5728	0.7865	0.3925	-0.052
Mof_H 	H 	0.5618	0.7676	0.4037	0.037
Mof_C 	C 	0.5862	0.8483	0.39211	-0.004
Mof_C 	C 	0.6023	0.87594	0.37566	-0.048
Mof_H 	H 	0.6115	0.9181	0.3754	0.041
Mof_C 	C 	0.6141	0.3223	0.4972	0.052
Mof_H 	H 	0.6288	0.3073	0.4858	0.019
Mof_C 	C 	0.6018	0.4072	0.51916	0.04
Mof_O 	O 	0.60529	0.0453	0.45821	-0.482
Mof_C 	C 	0.5838	0.7606	0.54435	0.078
Mof_H 	H 	0.5559	0.7814	0.5521	0.002
Mof_C 	C 	0.58616	0.64858	0.32592	0.033
Mof_H 	H 	0.5771	0.6064	0.326	0.015
Mof_C 	C 	0.582	0.68203	0.34206	-0.107
Mof_H 	H 	0.5701	0.6627	0.3532	0.06
Mof_C 	C 	0.5952	0.7438	0.34197	0.054
Mof_C 	C 	0.6126	0.77212	0.32573	-0.114
Mof_H 	H 	0.6216	0.8143	0.3257	0.063
Mof_C 	C 	0.6167	0.73866	0.3096	0.044
Mof_H 	H 	0.6286	0.758	0.2985	0.013
Mof_N 	N 	0.60355	0.67689	0.30969	-0.221
Mof_O 	O 	0.54425	0.18733	0.5137	-0.485
Mof_C 	C 	0.8098	0.1242	0.66877	0.056
Mof_H 	H 	0.8248	0.142	0.6578	0.003
Mof_C 	C 	0.5695	0.3048	0.52614	0.057
Mof_H 	H 	0.5513	0.2771	0.5345	0.02
Mof_C 	C 	0.7713	0.078	0.70038	-0.162
Mof_H 	H 	0.7546	0.0647	0.7117	0.066
Mof_C 	C 	0.7357	0.0715	0.68503	0.079
Mof_H 	H 	0.6983	0.05	0.6859	-0.006
Mof_C 	C 	0.8441	0.1267	0.68473	-0.128
Mof_H 	H 	0.8818	0.1476	0.6844	0.068
Mof_C 	C 	0.6753	0.1378	0.64802	-0.028
Mof_H 	H 	0.6726	0.1715	0.6561	0.031
Mof_C 	C 	0.7128	0.0889	0.65234	-0.01
Mof_C 	C 	0.7167	0.0396	0.64048	-0.035
Mof_H 	H 	0.7423	0.0062	0.6434	0.038
Mof_C 	C 	0.6832	0.0391	0.62429	-0.038
Mof_H 	H 	0.6859	0.0054	0.6162	0.037
Mof_C 	C 	0.6458	0.088	0.61997	0.028
Mof_C 	C 	0.6419	0.1373	0.63184	-0.048
Mof_H 	H 	0.6163	0.1707	0.6289	0.043
Mof_C 	C 	0.1975	0.09566	0.48314	0.014
Mof_H 	H 	0.227	0.0983	0.4736	0.028
Mof_C 	C 	0.1361	0.1013	0.47901	-0.07
Mof_H 	H 	0.1236	0.1078	0.4667	0.047
Mof_C 	C 	0.0931	0.0974	0.49292	0.067
Mof_C 	C 	0.1114	0.0879	0.51096	-0.082
Mof_H 	H 	0.082	0.0853	0.5205	0.051
Mof_C 	C 	0.1728	0.0823	0.51508	0.023
Mof_H 	H 	0.1854	0.0758	0.5274	0.019
Mof_C 	C 	0.2159	0.0862	0.50117	-0.109
Mof_C 	C 	0.9228	0.12503	0.49989	-0.046
Mof_H 	H 	0.8957	0.137	0.5094	0.039
Mof_C 	C 	0.9007	0.1143	0.48231	-0.012
Mof_C 	C 	0.9403	0.0967	0.4684	-0.048
Mof_H 	H 	0.9252	0.0894	0.4564	0.04
Mof_C 	C 	0.0019	0.09	0.47209	-0.048
Mof_H 	H 	0.0289	0.078	0.4626	0.04
Mof_C 	C 	0.0239	0.1008	0.48968	-0.008
Mof_C 	C 	0.9844	0.1183	0.50358	-0.048
Mof_H 	H 	0.9994	0.1257	0.5156	0.039
Mof_C 	C 	0.6114	0.4723	0.52364	0.018
Mof_C 	C 	0.6132	0.5975	0.52859	0.009
Mof_C 	C 	0.8376	0.0651	0.68808	0.229
Mof_H 	H 	0.8708	0.038	0.6897	-0.066
Mof_C 	C 	0.7775	0.1348	0.69885	0.223
Mof_H 	H 	0.7678	0.1624	0.7084	-0.06
Mof_C 	C 	0.7384	0.133	0.68355	-0.232
Mof_H 	H 	0.7026	0.1572	0.6832	0.101
Mof_C 	C 	0.8051	0.061	0.67162	-0.236
Mof_H 	H 	0.8189	0.0345	0.6622	0.107
Mof_C 	C 	0.7989	0.0684	0.47912	-0.067
Mof_H 	H 	0.8179	0.0307	0.4818	0.046
Mof_C 	C 	0.7967	0.1744	0.48114	-0.103
Mof_H 	H 	0.8124	0.2092	0.4872	0.058
Mof_C 	C 	0.7381	0.0696	0.47611	0.017
Mof_H 	H 	0.717	0.0323	0.4745	0.017
Mof_C 	C 	0.7395	0.1742	0.47504	0.049
Mof_H 	H 	0.7214	0.2105	0.4706	0.008
Mof_C 	C 	0.6664	0.5023	0.52627	-0.039
Mof_H 	H 	0.7033	0.4799	0.5264	0.039
Mof_C 	C 	0.5574	0.505	0.5235	-0.043
Mof_H 	H 	0.5198	0.4845	0.5217	0.037
Mof_C 	C 	0.5582	0.5676	0.52597	-0.032
Mof_H 	H 	0.5213	0.5899	0.5259	0.04
Mof_C 	C 	0.6672	0.5649	0.52874	-0.04
Mof_H 	H 	0.7048	0.5854	0.5305	0.039
Mof_C 	C 	0.6976	0.1212	0.61901	-0.052
Mof_H 	H 	0.7111	0.1386	0.6078	0.042
Mof_C 	C 	0.7344	0.1297	0.63747	-0.038
Mof_H 	H 	0.7668	0.1578	0.6389	0.038
Mof_C 	C 	0.667	0.0538	0.65023	-0.022
Mof_H 	H 	0.6558	0.0274	0.66	0.029
Mof_C 	C 	0.6329	0.0531	0.63405	-0.051
Mof_H 	H 	0.5991	0.0264	0.6332	0.038
Mof_C 	C 	0.1832	0.1384	0.50865	-0.008
Mof_H 	H 	0.2026	0.1673	0.5164	0.037
Mof_C 	C 	0.1851	0.0427	0.49081	0.015
Mof_H 	H 	0.2051	0.0065	0.4872	0.018
Mof_C 	C 	0.127	0.0522	0.48602	-0.07
Mof_H 	H 	0.109	0.0256	0.4773	0.05
Mof_C 	C 	0.1237	0.1434	0.50394	-0.055
Mof_H 	H 	0.1013	0.1779	0.5079	0.043
Mof_Co	Co	0.09837	0.97966	0.75949	1.066
Mof_Co	Co	0.97985	0.90162	0.75163	1.065
Mof_Co	Co	0.10949	0.12008	0.7854	1.124
Mof_Co	Co	0.12057	0.89029	0.72578	1.119
Mof_O 	O 	0.07092	0.89517	0.75039	-0.767
Mof_H 	H 	0.0854	0.8631	0.7591	0.152
Mof_O 	O 	0.10599	0.07229	0.76127	-0.76
Mof_H 	H 	0.1383	0.0871	0.7527	0.156
Mof_O 	O 	0.07512	0.96628	0.78717	-0.527
Mof_O 	O 	0.1071	0.04598	0.80257	-0.478
Mof_O 	O 	0.96368	0.92723	0.72423	-0.509
Mof_O 	O 	0.10952	0.20132	0.77077	-0.463
Mof_O 	O 	0.20083	0.89296	0.7404	-0.479
Mof_O 	O 	0.04478	0.1858	0.74666	-0.448
Mof_N 	N 	0.1211	0.79262	0.72531	-0.229
Mof_N 	N 	0.10112	0.67329	0.95081	-0.255
Mof_N 	N 	0.79403	0.8759	0.78586	-0.228
Mof_C 	C 	0.0808	0.2183	0.75705	0.34
Mof_C 	C 	0.219	0.9228	0.75438	0.413
Mof_C 	C 	0.2828	0.9135	0.75906	-0.158
Mof_C 	C 	0.0927	0.9906	0.80174	0.424
Mof_C 	C 	0.9938	0.913	0.70937	0.391
Mof_C 	C 	0.3644	0.9229	0.7819	-0.119
Mof_H 	H 	0.3764	0.9339	0.794	0.064
Mof_C 	C 	0.6672	0.8864	0.7812	0.063
Mof_C 	C 	0.0952	0.7471	0.91893	0.081
Mof_C 	C 	0.7004	0.8492	0.77054	-0.118
Mof_H 	H 	0.6816	0.8301	0.7603	0.064
Mof_C 	C 	0.6977	0.9224	0.79327	-0.136
Mof_H 	H 	0.6768	0.951	0.8007	0.073
Mof_C 	C 	0.1471	0.7625	0.73997	-0.001
Mof_H 	H 	0.1654	0.7863	0.7493	0.013
Mof_C 	C 	0.07157	0.98326	0.83599	0.067
Mof_H 	H 	0.0619	0.0253	0.8366	0.01
Mof_C 	C 	0.0844	0.95627	0.81918	-0.166
Mof_C 	C 	0.0985	0.89476	0.81834	0.058
Mof_H 	H 	0.1073	0.8763	0.8069	0.001
Mof_C 	C 	0.09976	0.86024	0.83432	-0.124
Mof_H 	H 	0.1094	0.8182	0.8338	0.064
Mof_C 	C 	0.08693	0.88723	0.85113	0.049
Mof_C 	C 	0.07283	0.94874	0.85197	-0.125
Mof_H 	H 	0.0641	0.9672	0.8635	0.066
Mof_C 	C 	0.0974	0.7587	0.71226	0.041
Mof_H 	H 	0.0801	0.7777	0.7018	0.006
Mof_C 	C 	0.85933	0.91991	0.67564	-0.121
Mof_H 	H 	0.8165	0.9254	0.6758	0.064
Mof_C 	C 	0.89147	0.91629	0.69203	0.048
Mof_H 	H 	0.8706	0.9193	0.7034	0.002
Mof_C 	C 	0.95411	0.90821	0.69176	-0.128
Mof_C 	C 	0.98461	0.90375	0.6751	0.044
Mof_H 	H 	0.0274	0.8982	0.6749	0.022
Mof_C 	C 	0.95247	0.9074	0.65871	-0.116
Mof_H 	H 	0.9733	0.9043	0.6473	0.064
Mof_C 	C 	0.88983	0.91544	0.65898	0.057
Mof_C 	C 	0.1483	0.7028	0.74182	-0.023
Mof_H 	H 	0.1674	0.685	0.7522	0.026
Mof_C 	C 	0.1215	0.6655	0.72845	0.063
Mof_C 	C 	0.7652	0.8371	0.77426	0.037
Mof_H 	H 	0.7858	0.8038	0.7688	0.015
Mof_C 	C 	0.3857	0.8782	0.7514	-0.113
Mof_H 	H 	0.4128	0.8605	0.7428	0.063
Mof_C 	C 	0.5157	0.9068	0.75761	-0.037
Mof_H 	H 	0.4997	0.9179	0.746	0.037
Mof_C 	C 	0.4927	0.8774	0.79005	-0.044
Mof_H 	H 	0.4652	0.8703	0.7999	0.039
Mof_C 	C 	0.5571	0.8759	0.79314	-0.035
Mof_H 	H 	0.5724	0.8676	0.8051	0.038
Mof_C 	C 	0.5796	0.9066	0.76078	-0.047
Mof_H 	H 	0.608	0.9187	0.7517	0.04
Mof_C 	C 	0.0973	0.6962	0.71355	-0.083
Mof_H 	H 	0.0799	0.6733	0.7038	0.051
Mof_C 	C 	0.84188	0.89483	0.60961	-0.048
Mof_H 	H 	0.8608	0.8838	0.5984	0.041
Mof_C 	C 	0.78016	0.9082	0.61001	-0.002
Mof_C 	C 	0.75249	0.9244	0.62645	-0.049
Mof_H 	H 	0.7103	0.9335	0.6267	0.039
Mof_C 	C 	0.7865	0.9272	0.6425	-0.052
Mof_H 	H 	0.7676	0.9382	0.6537	0.037
Mof_C 	C 	0.8483	0.9138	0.64211	-0.004
Mof_C 	C 	0.87594	0.8977	0.62566	-0.048
Mof_H 	H 	0.9181	0.8885	0.6254	0.041
Mof_C 	C 	0.3223	0.8859	0.7472	0.052
Mof_H 	H 	0.3073	0.8712	0.7358	0.019
Mof_C 	C 	0.4072	0.8982	0.76916	0.04
Mof_O 	O 	0.0453	0.89471	0.70821	-0.482
Mof_C 	C 	0.7606	0.9162	0.79435	0.078
Mof_H 	H 	0.7814	0.9441	0.8021	0.002
Mof_C 	C 	0.64858	0.91384	0.57592	0.033
Mof_H 	H 	0.6064	0.9229	0.576	0.015
Mof_C 	C 	0.68203	0.918	0.59206	-0.107
Mof_H 	H 	0.6627	0.9299	0.6032	0.06
Mof_C 	C 	0.7438	0.9048	0.59197	0.054
Mof_C 	C 	0.77212	0.8874	0.57573	-0.114
Mof_H 	H 	0.8143	0.8784	0.5757	0.063
Mof_C 	C 	0.73866	0.8833	0.5596	0.044
Mof_H 	H 	0.758	0.8714	0.5485	0.013
Mof_N 	N 	0.67689	0.89645	0.55969	-0.221
Mof_O 	O 	0.18733	0.95575	0.7637	-0.485
Mof_C 	C 	0.1242	0.6902	0.91877	0.056
Mof_H 	H 	0.142	0.6752	0.9078	0.003
Mof_C 	C 	0.3048	0.9305	0.77614	0.057
Mof_H 	H 	0.2771	0.9487	0.7845	0.02
Mof_C 	C 	0.078	0.7287	0.95038	-0.162
Mof_H 	H 	0.0647	0.7454	0.9617	0.066
Mof_C 	C 	0.0715	0.7643	0.93503	0.079
Mof_H 	H 	0.05	0.8017	0.9359	-0.006
Mof_C 	C 	0.1267	0.6559	0.93473	-0.127
Mof_H 	H 	0.1476	0.6182	0.9344	0.068
Mof_C 	C 	0.1378	0.8247	0.89802	-0.028
Mof_H 	H 	0.1715	0.8274	0.9061	0.031
Mof_C 	C 	0.0889	0.7872	0.90234	-0.01
Mof_C 	C 	0.0396	0.7833	0.89048	-0.035
Mof_H 	H 	0.0062	0.7577	0.8934	0.038
Mof_C 	C 	0.0391	0.8168	0.87429	-0.038
Mof_H 	H 	0.0054	0.8141	0.8662	0.037
Mof_C 	C 	0.088	0.8542	0.86997	0.029
Mof_C 	C 	0.1373	0.8581	0.88184	-0.048
Mof_H 	H 	0.1707	0.8837	0.8789	0.043
Mof_C 	C 	0.09566	0.3025	0.73314	0.014
Mof_H 	H 	0.0983	0.273	0.7236	0.028
Mof_C 	C 	0.1013	0.3639	0.72901	-0.07
Mof_H 	H 	0.1078	0.3764	0.7167	0.047
Mof_C 	C 	0.0974	0.4069	0.74292	0.067
Mof_C 	C 	0.0879	0.3886	0.76096	-0.082
Mof_H 	H 	0.0853	0.418	0.7705	0.051
Mof_C 	C 	0.0823	0.3272	0.76508	0.023
Mof_H 	H 	0.0758	0.3146	0.7774	0.019
Mof_C 	C 	0.0862	0.2841	0.75117	-0.109
Mof_C 	C 	0.12503	0.5772	0.74989	-0.046
Mof_H 	H 	0.137	0.6043	0.7594	0.039
Mof_C 	C 	0.1143	0.5993	0.73231	-0.012
Mof_C 	C 	0.0967	0.5597	0.7184	-0.048
Mof_H 	H 	0.0894	0.5748	0.7064	0.04
Mof_C 	C 	0.09	0.4981	0.72209	-0.048
Mof_H 	H 	0.078	0.4711	0.7126	0.04
Mof_C 	C 	0.1008	0.4761	0.73968	-0.008
Mof_C 	C 	0.1183	0.5156	0.75358	-0.048
Mof_H 	H 	0.1257	0.5006	0.7656	0.039
Mof_C 	C 	0.4723	0.8886	0.77364	0.018
Mof_C 	C 	0.5975	0.8868	0.77859	0.009
Mof_C 	C 	0.0651	0.6624	0.93808	0.229
Mof_H 	H 	0.038	0.6292	0.9397	-0.066
Mof_C 	C 	0.1348	0.7225	0.94885	0.223
Mof_H 	H 	0.1624	0.7322	0.9584	-0.06
Mof_C 	C 	0.133	0.7616	0.93355	-0.232
Mof_H 	H 	0.1572	0.7974	0.9332	0.101
Mof_C 	C 	0.061	0.6949	0.92162	-0.236
Mof_H 	H 	0.0345	0.6811	0.9122	0.107
Mof_C 	C 	0.0684	0.7011	0.72912	-0.067
Mof_H 	H 	0.0307	0.6821	0.7318	0.046
Mof_C 	C 	0.1744	0.7033	0.73114	-0.103
Mof_H 	H 	0.2092	0.6876	0.7372	0.058
Mof_C 	C 	0.0696	0.7619	0.72611	0.017
Mof_H 	H 	0.0323	0.783	0.7245	0.017
Mof_C 	C 	0.1742	0.7605	0.72504	0.049
Mof_H 	H 	0.2105	0.7786	0.7206	0.008
Mof_C 	C 	0.5023	0.8336	0.77627	-0.039
Mof_H 	H 	0.4799	0.7967	0.7764	0.039
Mof_C 	C 	0.505	0.9426	0.7735	-0.043
Mof_H 	H 	0.4845	0.9802	0.7717	0.037
Mof_C 	C 	0.5676	0.9418	0.77597	-0.032
Mof_H 	H 	0.5899	0.9787	0.7759	0.04
Mof_C 	C 	0.5649	0.8328	0.77874	-0.04
Mof_H 	H 	0.5854	0.7952	0.7805	0.039
Mof_C 	C 	0.1212	0.8024	0.86901	-0.052
Mof_H 	H 	0.1386	0.7889	0.8578	0.042
Mof_C 	C 	0.1297	0.7656	0.88747	-0.038
Mof_H 	H 	0.1578	0.7332	0.8889	0.038
Mof_C 	C 	0.0538	0.833	0.90023	-0.022
Mof_H 	H 	0.0274	0.8442	0.91	0.029
Mof_C 	C 	0.0531	0.8671	0.88405	-0.051
Mof_H 	H 	0.0264	0.9009	0.8832	0.038
Mof_C 	C 	0.1384	0.3168	0.75865	-0.008
Mof_H 	H 	0.1673	0.2974	0.7664	0.037
Mof_C 	C 	0.0427	0.3149	0.74081	0.015
Mof_H 	H 	0.0065	0.2949	0.7372	0.018
Mof_C 	C 	0.0522	0.373	0.73602	-0.07
Mof_H 	H 	0.0256	0.391	0.7273	0.05
Mof_C 	C 	0.1434	0.3763	0.75394	-0.055
Mof_H 	H 	0.1779	0.3987	0.7579	0.043
Mof_Co	Co	0.59837	0.47966	0.25949	1.066
Mof_Co	Co	0.47985	0.40162	0.25163	1.064
Mof_Co	Co	0.60949	0.62008	0.2854	1.124
Mof_Co	Co	0.62057	0.39029	0.22578	1.119
Mof_O 	O 	0.57092	0.39517	0.25039	-0.767
Mof_H 	H 	0.5854	0.3631	0.2591	0.152
Mof_O 	O 	0.60599	0.57229	0.26127	-0.76
Mof_H 	H 	0.6383	0.5871	0.2527	0.156
Mof_O 	O 	0.57512	0.46628	0.28717	-0.527
Mof_O 	O 	0.6071	0.54598	0.30257	-0.478
Mof_O 	O 	0.46368	0.42723	0.22423	-0.509
Mof_O 	O 	0.60952	0.70132	0.27077	-0.463
Mof_O 	O 	0.70083	0.39296	0.2404	-0.479
Mof_O 	O 	0.54478	0.6858	0.24666	-0.448
Mof_N 	N 	0.6211	0.29262	0.22531	-0.229
Mof_N 	N 	0.60112	0.17329	0.45081	-0.255
Mof_N 	N 	0.29403	0.3759	0.28586	-0.228
Mof_C 	C 	0.5808	0.7183	0.25705	0.34
Mof_C 	C 	0.719	0.4228	0.25438	0.413
Mof_C 	C 	0.7828	0.4135	0.25906	-0.158
Mof_C 	C 	0.5927	0.4906	0.30174	0.424
Mof_C 	C 	0.4938	0.413	0.20937	0.391
Mof_C 	C 	0.8644	0.4229	0.2819	-0.119
Mof_H 	H 	0.8764	0.4339	0.294	0.064
Mof_C 	C 	0.1672	0.3864	0.2812	0.063
Mof_C 	C 	0.5952	0.2471	0.41893	0.081
Mof_C 	C 	0.2004	0.3492	0.27054	-0.118
Mof_H 	H 	0.1816	0.3301	0.2603	0.064
Mof_C 	C 	0.1977	0.4224	0.29327	-0.136
Mof_H 	H 	0.1768	0.451	0.3007	0.073
Mof_C 	C 	0.6471	0.2625	0.23997	-0.001
Mof_H 	H 	0.6654	0.2863	0.2493	0.013
Mof_C 	C 	0.57157	0.48326	0.33599	0.067
Mof_H 	H 	0.5619	0.5253	0.3366	0.01
Mof_C 	C 	0.5844	0.45627	0.31918	-0.166
Mof_C 	C 	0.5985	0.39476	0.31834	0.058
Mof_H 	H 	0.6073	0.3763	0.3069	0.001
Mof_C 	C 	0.59976	0.36024	0.33432	-0.124
Mof_H 	H 	0.6094	0.3182	0.3338	0.064
Mof_C 	C 	0.58693	0.38723	0.35113	0.049
Mof_C 	C 	0.57283	0.44874	0.35197	-0.126
Mof_H 	H 	0.5641	0.4672	0.3635	0.066
Mof_C 	C 	0.5974	0.2587	0.21226	0.041
Mof_H 	H 	0.5801	0.2777	0.2018	0.006
Mof_C 	C 	0.35933	0.41991	0.17564	-0.121
Mof_H 	H 	0.3165	0.4254	0.1758	0.064
Mof_C 	C 	0.39147	0.41629	0.19203	0.048
Mof_H 	H 	0.3706	0.4193	0.2034	0.002
Mof_C 	C 	0.45411	0.40821	0.19176	-0.128
Mof_C 	C 	0.48461	0.40375	0.1751	0.044
Mof_H 	H 	0.5274	0.3982	0.1749	0.022
Mof_C 	C 	0.45247	0.4074	0.15871	-0.116
Mof_H 	H 	0.4733	0.4043	0.1473	0.064
Mof_C 	C 	0.38983	0.41544	0.15898	0.056
Mof_C 	C 	0.6483	0.2028	0.24182	-0.023
Mof_H 	H 	0.6674	0.185	0.2522	0.026
Mof_C 	C 	0.6215	0.1655	0.22845	0.063
Mof_C 	C 	0.2652	0.3371	0.27426	0.037
Mof_H 	H 	0.2858	0.3038	0.2688	0.015
Mof_C 	C 	0.8857	0.3782	0.2514	-0.113
Mof_H 	H 	0.9128	0.3605	0.2428	0.063
Mof_C 	C 	0.0157	0.4068	0.25761	-0.037
Mof_H 	H 	0.9997	0.4179	0.246	0.037
Mof_C 	C 	0.9927	0.3774	0.29005	-0.044
Mof_H 	H 	0.9652	0.3703	0.2999	0.04
Mof_C 	C 	0.0571	0.3759	0.29314	-0.034
Mof_H 	H 	0.0724	0.3676	0.3051	0.038
Mof_C 	C 	0.0796	0.4066	0.26078	-0.047
Mof_H 	H 	0.108	0.4187	0.2517	0.04
Mof_C 	C 	0.5973	0.1962	0.21355	-0.083
Mof_H 	H 	0.5799	0.1733	0.2038	0.051
Mof_C 	C 	0.34188	0.39483	0.10961	-0.048
Mof_H 	H 	0.3608	0.3838	0.0984	0.04
Mof_C 	C 	0.28016	0.4082	0.11001	-0.002
Mof_C 	C 	0.25249	0.4244	0.12645	-0.049
Mof_H 	H 	0.2103	0.4335	0.1267	0.039
Mof_C 	C 	0.2865	0.4272	0.1425	-0.052
Mof_H 	H 	0.2676	0.4382	0.1537	0.037
Mof_C 	C 	0.3483	0.4138	0.14211	-0.004
Mof_C 	C 	0.37594	0.3977	0.12566	-0.048
Mof_H 	H 	0.4181	0.3885	0.1254	0.041
Mof_C 	C 	0.8223	0.3859	0.2472	0.052
Mof_H 	H 	0.8073	0.3712	0.2358	0.019
Mof_C 	C 	0.9072	0.3982	0.26916	0.04
Mof_O 	O 	0.5453	0.39471	0.20821	-0.482
Mof_C 	C 	0.2606	0.4162	0.29435	0.078
Mof_H 	H 	0.2814	0.4441	0.3021	0.002
Mof_C 	C 	0.14858	0.41384	0.07592	0.033
Mof_H 	H 	0.1064	0.4229	0.076	0.015
Mof_C 	C 	0.18203	0.418	0.09206	-0.107
Mof_H 	H 	0.1627	0.4299	0.1032	0.06
Mof_C 	C 	0.2438	0.4048	0.09197	0.054
Mof_C 	C 	0.27212	0.3874	0.07573	-0.114
Mof_H 	H 	0.3143	0.3784	0.0757	0.063
Mof_C 	C 	0.23866	0.3833	0.0596	0.044
Mof_H 	H 	0.258	0.3714	0.0485	0.013
Mof_N 	N 	0.17689	0.39645	0.05969	-0.221
Mof_O 	O 	0.68733	0.45575	0.2637	-0.485
Mof_C 	C 	0.6242	0.1902	0.41877	0.056
Mof_H 	H 	0.642	0.1752	0.4078	0.003
Mof_C 	C 	0.8048	0.4305	0.27614	0.057
Mof_H 	H 	0.7771	0.4487	0.2845	0.02
Mof_C 	C 	0.578	0.2287	0.45038	-0.162
Mof_H 	H 	0.5647	0.2454	0.4617	0.066
Mof_C 	C 	0.5715	0.2643	0.43503	0.079
Mof_H 	H 	0.55	0.3017	0.4359	-0.007
Mof_C 	C 	0.6267	0.1559	0.43473	-0.128
Mof_H 	H 	0.6476	0.1182	0.4344	0.068
Mof_C 	C 	0.6378	0.3247	0.39802	-0.028
Mof_H 	H 	0.6715	0.3274	0.4061	0.031
Mof_C 	C 	0.5889	0.2872	0.40234	-0.01
Mof_C 	C 	0.5396	0.2833	0.39048	-0.035
Mof_H 	H 	0.5062	0.2577	0.3934	0.038
Mof_C 	C 	0.5391	0.3168	0.37429	-0.038
Mof_H 	H 	0.5054	0.3141	0.3662	0.037
Mof_C 	C 	0.588	0.3542	0.36997	0.028
Mof_C 	C 	0.6373	0.3581	0.38184	-0.048
Mof_H 	H 	0.6707	0.3837	0.3789	0.043
Mof_C 	C 	0.59566	0.8025	0.23314	0.013
Mof_H 	H 	0.5983	0.773	0.2236	0.028
Mof_C 	C 	0.6013	0.8639	0.22901	-0.07
Mof_H 	H 	0.6078	0.8764	0.2167	0.046
Mof_C 	C 	0.5974	0.9069	0.24292	0.067
Mof_C 	C 	0.5879	0.8886	0.26096	-0.082
Mof_H 	H 	0.5853	0.918	0.2705	0.051
Mof_C 	C 	0.5823	0.8272	0.26508	0.023
Mof_H 	H 	0.5758	0.8146	0.2774	0.019
Mof_C 	C 	0.5862	0.7841	0.25117	-0.109
Mof_C 	C 	0.62503	0.0772	0.24989	-0.046
Mof_H 	H 	0.637	0.1043	0.2594	0.039
Mof_C 	C 	0.6143	0.0993	0.23231	-0.012
Mof_C 	C 	0.5967	0.0597	0.2184	-0.048
Mof_H 	H 	0.5894	0.0748	0.2064	0.04
Mof_C 	C 	0.59	0.9981	0.22209	-0.048
Mof_H 	H 	0.578	0.9711	0.2126	0.04
Mof_C 	C 	0.6008	0.9761	0.23968	-0.008
Mof_C 	C 	0.6183	0.0156	0.25358	-0.048
Mof_H 	H 	0.6257	0.0006	0.2656	0.039
Mof_C 	C 	0.9723	0.3886	0.27364	0.018
Mof_C 	C 	0.0975	0.3868	0.27859	0.009
Mof_C 	C 	0.5651	0.1624	0.43808	0.229
Mof_H 	H 	0.538	0.1292	0.4397	-0.066
Mof_C 	C 	0.6348	0.2225	0.44885	0.223
Mof_H 	H 	0.6624	0.2322	0.4584	-0.06
Mof_C 	C 	0.633	0.2616	0.43355	-0.233
Mof_H 	H 	0.6572	0.2974	0.4332	0.101
Mof_C 	C 	0.561	0.1949	0.42162	-0.236
Mof_H 	H 	0.5345	0.1811	0.4122	0.107
Mof_C 	C 	0.5684	0.2011	0.22912	-0.067
Mof_H 	H 	0.5307	0.1821	0.2318	0.046
Mof_C 	C 	0.6744	0.2033	0.23114	-0.103
Mof_H 	H 	0.7092	0.1876	0.2372	0.058
Mof_C 	C 	0.5696	0.2619	0.22611	0.017
Mof_H 	H 	0.5323	0.283	0.2245	0.017
Mof_C 	C 	0.6742	0.2605	0.22504	0.049
Mof_H 	H 	0.7105	0.2786	0.2206	0.008
Mof_C 	C 	0.0023	0.3336	0.27627	-0.039
Mof_H 	H 	0.9799	0.2967	0.2764	0.039
Mof_C 	C 	0.005	0.4426	0.2735	-0.042
Mof_H 	H 	0.9845	0.4802	0.2717	0.037
Mof_C 	C 	0.0676	0.4418	0.27597	-0.032
Mof_H 	H 	0.0899	0.4787	0.2759	0.04
Mof_C 	C 	0.0649	0.3328	0.27874	-0.041
Mof_H 	H 	0.0854	0.2952	0.2805	0.039
Mof_C 	C 	0.6212	0.3024	0.36901	-0.052
Mof_H 	H 	0.6386	0.2889	0.3578	0.042
Mof_C 	C 	0.6297	0.2656	0.38747	-0.038
Mof_H 	H 	0.6578	0.2332	0.3889	0.038
Mof_C 	C 	0.5538	0.333	0.40023	-0.022
Mof_H 	H 	0.5274	0.3442	0.41	0.029
Mof_C 	C 	0.5531	0.3671	0.38405	-0.051
Mof_H 	H 	0.5264	0.4009	0.3832	0.038
Mof_C 	C 	0.6384	0.8168	0.25865	-0.008
Mof_H 	H 	0.6673	0.7974	0.2664	0.037
Mof_C 	C 	0.5427	0.8149	0.24081	0.015
Mof_H 	H 	0.5065	0.7949	0.2372	0.018
Mof_C 	C 	0.5522	0.873	0.23602	-0.07
Mof_H 	H 	0.5256	0.891	0.2273	0.05
Mof_C 	C 	0.6434	0.8763	0.25394	-0.055
Mof_H 	H 	0.6779	0.8987	0.2579	0.043
Mof_Co	Co	0.40163	0.52034	0.25949	1.066
Mof_Co	Co	0.52015	0.59838	0.25163	1.064
Mof_Co	Co	0.39051	0.37992	0.2854	1.124
Mof_Co	Co	0.37943	0.60971	0.22578	1.119
Mof_O 	O 	0.42908	0.60483	0.25039	-0.767
Mof_H 	H 	0.4146	0.6369	0.2591	0.152
Mof_O 	O 	0.39401	0.42771	0.26127	-0.76
Mof_H 	H 	0.3617	0.4129	0.2527	0.156
Mof_O 	O 	0.42488	0.53372	0.28717	-0.527
Mof_O 	O 	0.3929	0.45402	0.30257	-0.478
Mof_O 	O 	0.53632	0.57277	0.22423	-0.509
Mof_O 	O 	0.39048	0.29868	0.27077	-0.463
Mof_O 	O 	0.29917	0.60704	0.2404	-0.479
Mof_O 	O 	0.45522	0.3142	0.24666	-0.448
Mof_N 	N 	0.3789	0.70738	0.22531	-0.229
Mof_N 	N 	0.39888	0.82671	0.45081	-0.255
Mof_N 	N 	0.70597	0.6241	0.28586	-0.228
Mof_C 	C 	0.4192	0.2817	0.25705	0.34
Mof_C 	C 	0.281	0.5772	0.25438	0.413
Mof_C 	C 	0.2172	0.5865	0.25906	-0.158
Mof_C 	C 	0.4073	0.5094	0.30174	0.424
Mof_C 	C 	0.5062	0.587	0.20937	0.391
Mof_C 	C 	0.1356	0.5771	0.2819	-0.119
Mof_H 	H 	0.1236	0.5661	0.294	0.064
Mof_C 	C 	0.8328	0.6136	0.2812	0.063
Mof_C 	C 	0.4048	0.7529	0.41893	0.081
Mof_C 	C 	0.7996	0.6508	0.27054	-0.118
Mof_H 	H 	0.8184	0.6699	0.2603	0.064
Mof_C 	C 	0.8023	0.5776	0.29327	-0.136
Mof_H 	H 	0.8232	0.549	0.3007	0.073
Mof_C 	C 	0.3529	0.7375	0.23997	-0.001
Mof_H 	H 	0.3346	0.7137	0.2493	0.013
Mof_C 	C 	0.42843	0.51674	0.33599	0.067
Mof_H 	H 	0.4381	0.4747	0.3366	0.01
Mof_C 	C 	0.4156	0.54373	0.31918	-0.166
Mof_C 	C 	0.4015	0.60524	0.31834	0.058
Mof_H 	H 	0.3927	0.6237	0.3069	0.001
Mof_C 	C 	0.40024	0.63976	0.33432	-0.124
Mof_H 	H 	0.3906	0.6818	0.3338	0.064
Mof_C 	C 	0.41307	0.61277	0.35113	0.049
Mof_C 	C 	0.42717	0.55126	0.35197	-0.126
Mof_H 	H 	0.4359	0.5328	0.3635	0.066
Mof_C 	C 	0.4026	0.7413	0.21226	0.041
Mof_H 	H 	0.4199	0.7223	0.2018	0.006
Mof_C 	C 	0.64067	0.58009	0.17564	-0.121
Mof_H 	H 	0.6835	0.5746	0.1758	0.064
Mof_C 	C 	0.60853	0.58371	0.19203	0.048
Mof_H 	H 	0.6294	0.5807	0.2034	0.002
Mof_C 	C 	0.54589	0.59179	0.19176	-0.128
Mof_C 	C 	0.51539	0.59625	0.1751	0.044
Mof_H 	H 	0.4726	0.6018	0.1749	0.022
Mof_C 	C 	0.54753	0.5926	0.15871	-0.116
Mof_H 	H 	0.5267	0.5957	0.1473	0.064
Mof_C 	C 	0.61017	0.58456	0.15898	0.056
Mof_C 	C 	0.3517	0.7972	0.24182	-0.023
Mof_H 	H 	0.3326	0.815	0.2522	0.026
Mof_C 	C 	0.3785	0.8345	0.22845	0.063
Mof_C 	C 	0.7348	0.6629	0.27426	0.037
Mof_H 	H 	0.7142	0.6962	0.2688	0.015
Mof_C 	C 	0.1143	0.6218	0.2514	-0.113
Mof_H 	H 	0.0872	0.6395	0.2428	0.063
Mof_C 	C 	0.9843	0.5932	0.25761	-0.037
Mof_H 	H 	0.0003	0.5821	0.246	0.037
Mof_C 	C 	0.0073	0.6226	0.29005	-0.044
Mof_H 	H 	0.0348	0.6297	0.2999	0.04
Mof_C 	C 	0.9429	0.6241	0.29314	-0.034
Mof_H 	H 	0.9276	0.6324	0.3051	0.038
Mof_C 	C 	0.9204	0.5934	0.26078	-0.047
Mof_H 	H 	0.892	0.5813	0.2517	0.04
Mof_C 	C 	0.4027	0.8038	0.21355	-0.083
Mof_H 	H 	0.4201	0.8267	0.2038	0.051
Mof_C 	C 	0.65812	0.60517	0.10961	-0.048
Mof_H 	H 	0.6392	0.6162	0.0984	0.04
Mof_C 	C 	0.71984	0.5918	0.11001	-0.002
Mof_C 	C 	0.74751	0.5756	0.12645	-0.049
Mof_H 	H 	0.7897	0.5665	0.1267	0.039
Mof_C 	C 	0.7135	0.5728	0.1425	-0.052
Mof_H 	H 	0.7324	0.5618	0.1537	0.037
Mof_C 	C 	0.6517	0.5862	0.14211	-0.004
Mof_C 	C 	0.62406	0.6023	0.12566	-0.048
Mof_H 	H 	0.5819	0.6115	0.1254	0.041
Mof_C 	C 	0.1777	0.6141	0.2472	0.052
Mof_H 	H 	0.1927	0.6288	0.2358	0.019
Mof_C 	C 	0.0928	0.6018	0.26916	0.04
Mof_O 	O 	0.4547	0.60529	0.20821	-0.482
Mof_C 	C 	0.7394	0.5838	0.29435	0.078
Mof_H 	H 	0.7186	0.5559	0.3021	0.002
Mof_C 	C 	0.85142	0.58616	0.07592	0.033
Mof_H 	H 	0.8936	0.5771	0.076	0.015
Mof_C 	C 	0.81797	0.582	0.09206	-0.107
Mof_H 	H 	0.8373	0.5701	0.1032	0.06
Mof_C 	C 	0.7562	0.5952	0.09197	0.054
Mof_C 	C 	0.72788	0.6126	0.07573	-0.114
Mof_H 	H 	0.6857	0.6216	0.0757	0.063
Mof_C 	C 	0.76134	0.6167	0.0596	0.044
Mof_H 	H 	0.742	0.6286	0.0485	0.013
Mof_N 	N 	0.82311	0.60355	0.05969	-0.221
Mof_O 	O 	0.31267	0.54425	0.2637	-0.485
Mof_C 	C 	0.3758	0.8098	0.41877	0.056
Mof_H 	H 	0.358	0.8248	0.4078	0.003
Mof_C 	C 	0.1952	0.5695	0.27614	0.057
Mof_H 	H 	0.2229	0.5513	0.2845	0.02
Mof_C 	C 	0.422	0.7713	0.45038	-0.162
Mof_H 	H 	0.4353	0.7546	0.4617	0.066
Mof_C 	C 	0.4285	0.7357	0.43503	0.079
Mof_H 	H 	0.45	0.6983	0.4359	-0.007
Mof_C 	C 	0.3733	0.8441	0.43473	-0.128
Mof_H 	H 	0.3524	0.8818	0.4344	0.068
Mof_C 	C 	0.3622	0.6753	0.39802	-0.028
Mof_H 	H 	0.3285	0.6726	0.4061	0.031
Mof_C 	C 	0.4111	0.7128	0.40234	-0.01
Mof_C 	C 	0.4604	0.7167	0.39048	-0.035
Mof_H 	H 	0.4938	0.7423	0.3934	0.038
Mof_C 	C 	0.4609	0.6832	0.37429	-0.038
Mof_H 	H 	0.4946	0.6859	0.3662	0.037
Mof_C 	C 	0.412	0.6458	0.36997	0.028
Mof_C 	C 	0.3627	0.6419	0.38184	-0.048
Mof_H 	H 	0.3293	0.6163	0.3789	0.043
Mof_C 	C 	0.40434	0.1975	0.23314	0.013
Mof_H 	H 	0.4017	0.227	0.2236	0.028
Mof_C 	C 	0.3987	0.1361	0.22901	-0.07
Mof_H 	H 	0.3922	0.1236	0.2167	0.046
Mof_C 	C 	0.4026	0.0931	0.24292	0.067
Mof_C 	C 	0.4121	0.1114	0.26096	-0.082
Mof_H 	H 	0.4147	0.082	0.2705	0.051
Mof_C 	C 	0.4177	0.1728	0.26508	0.023
Mof_H 	H 	0.4242	0.1854	0.2774	0.019
Mof_C 	C 	0.4138	0.2159	0.25117	-0.109
Mof_C 	C 	0.37497	0.9228	0.24989	-0.046
Mof_H 	H 	0.363	0.8957	0.2594	0.039
Mof_C 	C 	0.3857	0.9007	0.23231	-0.012
Mof_C 	C 	0.4033	0.9403	0.2184	-0.048
Mof_H 	H 	0.4106	0.9252	0.2064	0.04
Mof_C 	C 	0.41	0.0019	0.22209	-0.048
Mof_H 	H 	0.422	0.0289	0.2126	0.04
Mof_C 	C 	0.3992	0.0239	0.23968	-0.008
Mof_C 	C 	0.3817	0.9844	0.25358	-0.048
Mof_H 	H 	0.3743	0.9994	0.2656	0.039
Mof_C 	C 	0.0277	0.6114	0.27364	0.018
Mof_C 	C 	0.9025	0.6132	0.27859	0.009
Mof_C 	C 	0.4349	0.8376	0.43808	0.229
Mof_H 	H 	0.462	0.8708	0.4397	-0.066
Mof_C 	C 	0.3652	0.7775	0.44885	0.223
Mof_H 	H 	0.3376	0.7678	0.4584	-0.06
Mof_C 	C 	0.367	0.7384	0.43355	-0.233
Mof_H 	H 	0.3428	0.7026	0.4332	0.101
Mof_C 	C 	0.439	0.8051	0.42162	-0.236
Mof_H 	H 	0.4655	0.8189	0.4122	0.107
Mof_C 	C 	0.4316	0.7989	0.22912	-0.067
Mof_H 	H 	0.4693	0.8179	0.2318	0.046
Mof_C 	C 	0.3256	0.7967	0.23114	-0.103
Mof_H 	H 	0.2908	0.8124	0.2372	0.058
Mof_C 	C 	0.4304	0.7381	0.22611	0.017
Mof_H 	H 	0.4677	0.717	0.2245	0.017
Mof_C 	C 	0.3258	0.7395	0.22504	0.049
Mof_H 	H 	0.2895	0.7214	0.2206	0.008
Mof_C 	C 	0.9977	0.6664	0.27627	-0.039
Mof_H 	H 	0.0201	0.7033	0.2764	0.039
Mof_C 	C 	0.995	0.5574	0.2735	-0.042
Mof_H 	H 	0.0155	0.5198	0.2717	0.037
Mof_C 	C 	0.9324	0.5582	0.27597	-0.032
Mof_H 	H 	0.9101	0.5213	0.2759	0.04
Mof_C 	C 	0.9351	0.6672	0.27874	-0.041
Mof_H 	H 	0.9146	0.7048	0.2805	0.039
Mof_C 	C 	0.3788	0.6976	0.36901	-0.052
Mof_H 	H 	0.3614	0.7111	0.3578	0.042
Mof_C 	C 	0.3703	0.7344	0.38747	-0.038
Mof_H 	H 	0.3422	0.7668	0.3889	0.038
Mof_C 	C 	0.4462	0.667	0.40023	-0.022
Mof_H 	H 	0.4726	0.6558	0.41	0.029
Mof_C 	C 	0.4469	0.6329	0.38405	-0.051
Mof_H 	H 	0.4736	0.5991	0.3832	0.038
Mof_C 	C 	0.3616	0.1832	0.25865	-0.008
Mof_H 	H 	0.3327	0.2026	0.2664	0.037
Mof_C 	C 	0.4573	0.1851	0.24081	0.015
Mof_H 	H 	0.4935	0.2051	0.2372	0.018
Mof_C 	C 	0.4478	0.127	0.23602	-0.07
Mof_H 	H 	0.4744	0.109	0.2273	0.05
Mof_C 	C 	0.3566	0.1237	0.25394	-0.055
Mof_H 	H 	0.3221	0.1013	0.2579	0.043
Mof_Co	Co	0.90163	0.02034	0.75949	1.066
Mof_Co	Co	0.02015	0.09838	0.75163	1.065
Mof_Co	Co	0.89051	0.87992	0.7854	1.124
Mof_Co	Co	0.87943	0.10971	0.72578	1.119
Mof_O 	O 	0.92908	0.10483	0.75039	-0.767
Mof_H 	H 	0.9146	0.1369	0.7591	0.152
Mof_O 	O 	0.89401	0.92771	0.76127	-0.76
Mof_H 	H 	0.8617	0.9129	0.7527	0.156
Mof_O 	O 	0.92488	0.03372	0.78717	-0.527
Mof_O 	O 	0.8929	0.95402	0.80257	-0.478
Mof_O 	O 	0.03632	0.07277	0.72423	-0.509
Mof_O 	O 	0.89048	0.79868	0.77077	-0.463
Mof_O 	O 	0.79917	0.10704	0.7404	-0.479
Mof_O 	O 	0.95522	0.8142	0.74666	-0.448
Mof_N 	N 	0.8789	0.20738	0.72531	-0.229
Mof_N 	N 	0.89888	0.32671	0.95081	-0.255
Mof_N 	N 	0.20597	0.1241	0.78586	-0.228
Mof_C 	C 	0.9192	0.7817	0.75705	0.34
Mof_C 	C 	0.781	0.0772	0.75438	0.413
Mof_C 	C 	0.7172	0.0865	0.75906	-0.158
Mof_C 	C 	0.9073	0.0094	0.80174	0.424
Mof_C 	C 	0.0062	0.087	0.70937	0.391
Mof_C 	C 	0.6356	0.0771	0.7819	-0.119
Mof_H 	H 	0.6236	0.0661	0.794	0.064
Mof_C 	C 	0.3328	0.1136	0.7812	0.063
Mof_C 	C 	0.9048	0.2529	0.91893	0.081
Mof_C 	C 	0.2996	0.1508	0.77054	-0.118
Mof_H 	H 	0.3184	0.1699	0.7603	0.064
Mof_C 	C 	0.3023	0.0776	0.79327	-0.136
Mof_H 	H 	0.3232	0.049	0.8007	0.073
Mof_C 	C 	0.8529	0.2375	0.73997	-0.001
Mof_H 	H 	0.8346	0.2137	0.7493	0.013
Mof_C 	C 	0.92843	0.01674	0.83599	0.067
Mof_H 	H 	0.9381	0.9747	0.8366	0.01
Mof_C 	C 	0.9156	0.04373	0.81918	-0.166
Mof_C 	C 	0.9015	0.10524	0.81834	0.058
Mof_H 	H 	0.8927	0.1237	0.8069	0.001
Mof_C 	C 	0.90024	0.13976	0.83432	-0.124
Mof_H 	H 	0.8906	0.1818	0.8338	0.064
Mof_C 	C 	0.91307	0.11277	0.85113	0.049
Mof_C 	C 	0.92717	0.05126	0.85197	-0.125
Mof_H 	H 	0.9359	0.0328	0.8635	0.066
Mof_C 	C 	0.9026	0.2413	0.71226	0.041
Mof_H 	H 	0.9199	0.2223	0.7018	0.006
Mof_C 	C 	0.14067	0.08009	0.67564	-0.121
Mof_H 	H 	0.1835	0.0746	0.6758	0.064
Mof_C 	C 	0.10853	0.08371	0.69203	0.048
Mof_H 	H 	0.1294	0.0807	0.7034	0.002
Mof_C 	C 	0.04589	0.09179	0.69176	-0.128
Mof_C 	C 	0.01539	0.09625	0.6751	0.044
Mof_H 	H 	0.9726	0.1018	0.6749	0.022
Mof_C 	C 	0.04753	0.0926	0.65871	-0.116
Mof_H 	H 	0.0267	0.0957	0.6473	0.064
Mof_C 	C 	0.11017	0.08456	0.65898	0.057
Mof_C 	C 	0.8517	0.2972	0.74182	-0.023
Mof_H 	H 	0.8326	0.315	0.7522	0.026
Mof_C 	C 	0.8785	0.3345	0.72845	0.063
Mof_C 	C 	0.2348	0.1629	0.77426	0.037
Mof_H 	H 	0.2142	0.1962	0.7688	0.015
Mof_C 	C 	0.6143	0.1218	0.7514	-0.113
Mof_H 	H 	0.5872	0.1395	0.7428	0.063
Mof_C 	C 	0.4843	0.0932	0.75761	-0.037
Mof_H 	H 	0.5003	0.0821	0.746	0.037
Mof_C 	C 	0.5073	0.1226	0.79005	-0.044
Mof_H 	H 	0.5348	0.1297	0.7999	0.039
Mof_C 	C 	0.4429	0.1241	0.79314	-0.035
Mof_H 	H 	0.4276	0.1324	0.8051	0.038
Mof_C 	C 	0.4204	0.0934	0.76078	-0.047
Mof_H 	H 	0.392	0.0813	0.7517	0.04
Mof_C 	C 	0.9027	0.3038	0.71355	-0.083
Mof_H 	H 	0.9201	0.3267	0.7038	0.051
Mof_C 	C 	0.15812	0.10517	0.60961	-0.048
Mof_H 	H 	0.1392	0.1162	0.5984	0.041
Mof_C 	C 	0.21984	0.0918	0.61001	-0.002
Mof_C 	C 	0.24751	0.0756	0.62645	-0.049
Mof_H 	H 	0.2897	0.0665	0.6267	0.039
Mof_C 	C 	0.2135	0.0728	0.6425	-0.052
Mof_H 	H 	0.2324	0.0618	0.6537	0.037
Mof_C 	C 	0.1517	0.0862	0.64211	-0.004
Mof_C 	C 	0.12406	0.1023	0.62566	-0.048
Mof_H 	H 	0.0819	0.1115	0.6254	0.041
Mof_C 	C 	0.6777	0.1141	0.7472	0.052
Mof_H 	H 	0.6927	0.1288	0.7358	0.019
Mof_C 	C 	0.5928	0.1018	0.76916	0.04
Mof_O 	O 	0.9547	0.10529	0.70821	-0.482
Mof_C 	C 	0.2394	0.0838	0.79435	0.078
Mof_H 	H 	0.2186	0.0559	0.8021	0.002
Mof_C 	C 	0.35142	0.08616	0.57592	0.033
Mof_H 	H 	0.3936	0.0771	0.576	0.015
Mof_C 	C 	0.31797	0.082	0.59206	-0.107
Mof_H 	H 	0.3373	0.0701	0.6032	0.06
Mof_C 	C 	0.2562	0.0952	0.59197	0.054
Mof_C 	C 	0.22788	0.1126	0.57573	-0.114
Mof_H 	H 	0.1857	0.1216	0.5757	0.063
Mof_C 	C 	0.26134	0.1167	0.5596	0.044
Mof_H 	H 	0.242	0.1286	0.5485	0.013
Mof_N 	N 	0.32311	0.10355	0.55969	-0.221
Mof_O 	O 	0.81267	0.04425	0.7637	-0.485
Mof_C 	C 	0.8758	0.3098	0.91877	0.056
Mof_H 	H 	0.858	0.3248	0.9078	0.003
Mof_C 	C 	0.6952	0.0695	0.77614	0.057
Mof_H 	H 	0.7229	0.0513	0.7845	0.02
Mof_C 	C 	0.922	0.2713	0.95038	-0.162
Mof_H 	H 	0.9353	0.2546	0.9617	0.066
Mof_C 	C 	0.9285	0.2357	0.93503	0.079
Mof_H 	H 	0.95	0.1983	0.9359	-0.006
Mof_C 	C 	0.8733	0.3441	0.93473	-0.127
Mof_H 	H 	0.8524	0.3818	0.9344	0.068
Mof_C 	C 	0.8622	0.1753	0.89802	-0.028
Mof_H 	H 	0.8285	0.1726	0.9061	0.031
Mof_C 	C 	0.9111	0.2128	0.90234	-0.01
Mof_C 	C 	0.9604	0.2167	0.89048	-0.035
Mof_H 	H 	0.9938	0.2423	0.8934	0.038
Mof_C 	C 	0.9609	0.1832	0.87429	-0.038
Mof_H 	H 	0.9946	0.1859	0.8662	0.037
Mof_C 	C 	0.912	0.1458	0.86997	0.029
Mof_C 	C 	0.8627	0.1419	0.88184	-0.048
Mof_H 	H 	0.8293	0.1163	0.8789	0.043
Mof_C 	C 	0.90434	0.6975	0.73314	0.014
Mof_H 	H 	0.9017	0.727	0.7236	0.028
Mof_C 	C 	0.8987	0.6361	0.72901	-0.07
Mof_H 	H 	0.8922	0.6236	0.7167	0.047
Mof_C 	C 	0.9026	0.5931	0.74292	0.067
Mof_C 	C 	0.9121	0.6114	0.76096	-0.082
Mof_H 	H 	0.9147	0.582	0.7705	0.051
Mof_C 	C 	0.9177	0.6728	0.76508	0.023
Mof_H 	H 	0.9242	0.6854	0.7774	0.019
Mof_C 	C 	0.9138	0.7159	0.75117	-0.109
Mof_C 	C 	0.87497	0.4228	0.74989	-0.046
Mof_H 	H 	0.863	0.3957	0.7594	0.039
Mof_C 	C 	0.8857	0.4007	0.73231	-0.012
Mof_C 	C 	0.9033	0.4403	0.7184	-0.048
Mof_H 	H 	0.9106	0.4252	0.7064	0.04
Mof_C 	C 	0.91	0.5019	0.72209	-0.048
Mof_H 	H 	0.922	0.5289	0.7126	0.04
Mof_C 	C 	0.8992	0.5239	0.73968	-0.008
Mof_C 	C 	0.8817	0.4844	0.75358	-0.048
Mof_H 	H 	0.8743	0.4994	0.7656	0.039
Mof_C 	C 	0.5277	0.1114	0.77364	0.018
Mof_C 	C 	0.4025	0.1132	0.77859	0.009
Mof_C 	C 	0.9349	0.3376	0.93808	0.229
Mof_H 	H 	0.962	0.3708	0.9397	-0.066
Mof_C 	C 	0.8652	0.2775	0.94885	0.223
Mof_H 	H 	0.8376	0.2678	0.9584	-0.06
Mof_C 	C 	0.867	0.2384	0.93355	-0.232
Mof_H 	H 	0.8428	0.2026	0.9332	0.101
Mof_C 	C 	0.939	0.3051	0.92162	-0.236
Mof_H 	H 	0.9655	0.3189	0.9122	0.107
Mof_C 	C 	0.9316	0.2989	0.72912	-0.067
Mof_H 	H 	0.9693	0.3179	0.7318	0.046
Mof_C 	C 	0.8256	0.2967	0.73114	-0.103
Mof_H 	H 	0.7908	0.3124	0.7372	0.058
Mof_C 	C 	0.9304	0.2381	0.72611	0.017
Mof_H 	H 	0.9677	0.217	0.7245	0.017
Mof_C 	C 	0.8258	0.2395	0.72504	0.049
Mof_H 	H 	0.7895	0.2214	0.7206	0.008
Mof_C 	C 	0.4977	0.1664	0.77627	-0.039
Mof_H 	H 	0.5201	0.2033	0.7764	0.039
Mof_C 	C 	0.495	0.0574	0.7735	-0.043
Mof_H 	H 	0.5155	0.0198	0.7717	0.037
Mof_C 	C 	0.4324	0.0582	0.77597	-0.032
Mof_H 	H 	0.4101	0.0213	0.7759	0.04
Mof_C 	C 	0.4351	0.1672	0.77874	-0.04
Mof_H 	H 	0.4146	0.2048	0.7805	0.039
Mof_C 	C 	0.8788	0.1976	0.86901	-0.052
Mof_H 	H 	0.8614	0.2111	0.8578	0.042
Mof_C 	C 	0.8703	0.2344	0.88747	-0.038
Mof_H 	H 	0.8422	0.2668	0.8889	0.038
Mof_C 	C 	0.9462	0.167	0.90023	-0.022
Mof_H 	H 	0.9726	0.1558	0.91	0.029
Mof_C 	C 	0.9469	0.1329	0.88405	-0.051
Mof_H 	H 	0.9736	0.0991	0.8832	0.038
Mof_C 	C 	0.8616	0.6832	0.75865	-0.008
Mof_H 	H 	0.8327	0.7026	0.7664	0.037
Mof_C 	C 	0.9573	0.6851	0.74081	0.015
Mof_H 	H 	0.9935	0.7051	0.7372	0.018
Mof_C 	C 	0.9478	0.627	0.73602	-0.07
Mof_H 	H 	0.9744	0.609	0.7273	0.05
Mof_C 	C 	0.8566	0.6237	0.75394	-0.055
Mof_H 	H 	0.8221	0.6013	0.7579	0.043
_end
