data_functionalizedCrystal
_audit_creation_method	'EQeq! by Chris Wilmer'
_symmetry_space_group_name_H-M	'P1'
_symmetry_Int_Tables_number	1
_symmetry_cell_setting	triclinic
loop_
_symmetry_equiv_pos_as_xyz
  x,y,z
_cell_length_a	7.8999
_cell_length_b	13.7505
_cell_length_c	7.3829
_cell_angle_alpha	90
_cell_angle_beta	90
_cell_angle_gamma	90
loop_
_atom_site_label
_atom_site_type_symbol
_atom_site_fract_x
_atom_site_fract_y
_atom_site_fract_z
_atom_site_charge
Mof_Mg	Mg	0.22098	0.16484	0.26001	1.479
Mof_O 	O 	0.10328	0.26967	0.10864	-0.454
Mof_O 	O 	0.92776	0.3337	0.90761	-0.455
Mof_O 	O 	0.30787	0.28667	0.40332	-0.414
Mof_O 	O 	0.50494	0.35375	0.57942	-0.423
Mof_O 	O 	0.11756	0.04786	0.11992	-0.42
Mof_O 	O 	0.13469	0.92785	0.91934	-0.428
Mof_C 	C 	0.98721	0.26418	0.9953	0.51
Mof_H 	H 	0.9399	0.2017	0.9737	-0.117
Mof_C 	C 	0.44413	0.28509	0.4922	0.459
Mof_H 	H 	0.5059	0.2258	0.4923	-0.104
Mof_C 	C 	0.19567	0.99715	0.0055	0.462
Mof_H 	H 	0.3108	0.0131	0.9831	-0.1
Mof_Mg	Mg	0.27902	0.83516	0.76001	1.48
Mof_O 	O 	0.39672	0.73033	0.60864	-0.455
Mof_O 	O 	0.57224	0.6663	0.40761	-0.454
Mof_O 	O 	0.19213	0.71333	0.90332	-0.413
Mof_O 	O 	0.99506	0.64625	0.07942	-0.421
Mof_O 	O 	0.38244	0.95214	0.61992	-0.423
Mof_O 	O 	0.36531	0.07215	0.41934	-0.433
Mof_C 	C 	0.51279	0.73582	0.4953	0.515
Mof_H 	H 	0.5601	0.7983	0.4737	-0.117
Mof_C 	C 	0.05587	0.71491	0.9922	0.456
Mof_H 	H 	0.9941	0.7742	0.9923	-0.102
Mof_C 	C 	0.30433	0.00285	0.5055	0.471
Mof_H 	H 	0.1892	0.9869	0.4831	-0.103
Mof_Mg	Mg	0.77902	0.66484	0.23999	1.48
Mof_O 	O 	0.89672	0.76967	0.39136	-0.452
Mof_O 	O 	0.07224	0.8337	0.59239	-0.453
Mof_O 	O 	0.69213	0.78667	0.09668	-0.413
Mof_O 	O 	0.49506	0.85375	0.92058	-0.42
Mof_O 	O 	0.88244	0.54786	0.38008	-0.424
Mof_O 	O 	0.86531	0.42785	0.58066	-0.433
Mof_C 	C 	0.01279	0.76418	0.5047	0.509
Mof_H 	H 	0.0601	0.7017	0.5263	-0.116
Mof_C 	C 	0.55587	0.78509	0.0078	0.456
Mof_H 	H 	0.4941	0.7258	0.0077	-0.103
Mof_C 	C 	0.80433	0.49715	0.4945	0.474
Mof_H 	H 	0.6892	0.5131	0.5169	-0.103
Mof_Mg	Mg	0.72098	0.33516	0.73999	1.48
Mof_O 	O 	0.60328	0.23033	0.89136	-0.457
Mof_O 	O 	0.42776	0.1663	0.09239	-0.454
Mof_O 	O 	0.80787	0.21333	0.59668	-0.413
Mof_O 	O 	0.00494	0.14625	0.42058	-0.42
Mof_O 	O 	0.61756	0.45214	0.88008	-0.424
Mof_O 	O 	0.63469	0.57215	0.08066	-0.432
Mof_C 	C 	0.48721	0.23582	0.0047	0.518
Mof_H 	H 	0.4399	0.2983	0.0263	-0.117
Mof_C 	C 	0.94413	0.21491	0.5078	0.452
Mof_H 	H 	0.0059	0.2742	0.5077	-0.101
Mof_C 	C 	0.69567	0.50285	0.9945	0.471
Mof_H 	H 	0.8108	0.4869	0.0169	-0.101
_end
