data_functionalizedCrystal
_audit_creation_method	'EQeq! by Chris Wilmer'
_symmetry_space_group_name_H-M	'P1'
_symmetry_Int_Tables_number	1
_symmetry_cell_setting	triclinic
loop_
_symmetry_equiv_pos_as_xyz
  x,y,z
_cell_length_a	20.5732
_cell_length_b	20.5732
_cell_length_c	20.5732
_cell_angle_alpha	104.409
_cell_angle_beta	104.409
_cell_angle_gamma	104.409
loop_
_atom_site_label
_atom_site_type_symbol
_atom_site_fract_x
_atom_site_fract_y
_atom_site_fract_z
_atom_site_charge
Mof_Nd	Nd	0.78139	0.47732	0.31855	2.398
Mof_Nd	Nd	0.31855	0.78139	0.47732	2.398
Mof_Nd	Nd	0.47732	0.31855	0.78139	2.398
Mof_Nd	Nd	0.97732	0.28139	0.81855	2.313
Mof_Nd	Nd	0.28139	0.81855	0.97732	2.313
Mof_Nd	Nd	0.81855	0.97732	0.28139	2.313
Mof_Re	Re	0.56097	0.1036	0.02223	0.317
Mof_Re	Re	0.6768	0.21641	0.08117	0.279
Mof_Re	Re	0.61974	0.04379	0.93492	0.287
Mof_Re	Re	0.61177	0.17111	0.94292	0.231
Mof_Re	Re	0.68497	0.08894	0.07339	0.296
Mof_Re	Re	0.73589	0.15634	0.99437	0.259
Mof_Re	Re	0.02223	0.56097	0.1036	0.317
Mof_Re	Re	0.08117	0.6768	0.21641	0.279
Mof_Re	Re	0.93492	0.61974	0.04379	0.287
Mof_Re	Re	0.94292	0.61177	0.17111	0.231
Mof_Re	Re	0.07339	0.68497	0.08894	0.296
Mof_Re	Re	0.99437	0.73589	0.15634	0.259
Mof_Re	Re	0.1036	0.02223	0.56097	0.317
Mof_Re	Re	0.21641	0.08117	0.6768	0.279
Mof_Re	Re	0.04379	0.93492	0.61974	0.287
Mof_Re	Re	0.17111	0.94292	0.61177	0.231
Mof_Re	Re	0.08894	0.07339	0.68497	0.296
Mof_Re	Re	0.15634	0.99437	0.73589	0.259
Mof_Re	Re	0.6036	0.06097	0.52223	0.304
Mof_Re	Re	0.71641	0.1768	0.58117	0.273
Mof_Re	Re	0.54379	0.11974	0.43492	0.276
Mof_Re	Re	0.67111	0.11177	0.44292	0.261
Mof_Re	Re	0.58894	0.18497	0.57339	0.265
Mof_Re	Re	0.65634	0.23589	0.49437	0.291
Mof_Re	Re	0.06097	0.52223	0.6036	0.304
Mof_Re	Re	0.1768	0.58117	0.71641	0.273
Mof_Re	Re	0.11974	0.43492	0.54379	0.276
Mof_Re	Re	0.11177	0.44292	0.67111	0.261
Mof_Re	Re	0.18497	0.57339	0.58894	0.265
Mof_Re	Re	0.23589	0.49437	0.65634	0.291
Mof_Re	Re	0.52223	0.6036	0.06097	0.304
Mof_Re	Re	0.58117	0.71641	0.1768	0.273
Mof_Re	Re	0.43492	0.54379	0.11974	0.276
Mof_Re	Re	0.44292	0.67111	0.11177	0.261
Mof_Re	Re	0.57339	0.58894	0.18497	0.265
Mof_Re	Re	0.49437	0.65634	0.23589	0.291
Mof_H 	H 	0.8412	0.3991	0.1911	-0.088
Mof_H 	H 	0.8891	0.3564	0.1103	0.138
Mof_H 	H 	0.9312	0.3072	0.1348	0.154
Mof_H 	H 	0.9732	0.3861	0.1429	0.141
Mof_H 	H 	0.962	0.413	0.3192	0.17
Mof_H 	H 	0.0229	0.4255	0.2848	0.188
Mof_H 	H 	0.9845	0.3482	0.2838	0.161
Mof_H 	H 	0.9624	0.5662	0.366	-0.113
Mof_H 	H 	0.0758	0.6513	0.4006	0.098
Mof_H 	H 	0.1057	0.6805	0.4849	0.092
Mof_H 	H 	0.0816	0.7296	0.4422	0.1
Mof_H 	H 	0.9325	0.67	0.5021	0.172
Mof_H 	H 	0.9912	0.74	0.5087	0.145
Mof_H 	H 	0.0127	0.6878	0.5484	0.175
Mof_H 	H 	0.1911	0.8412	0.3991	-0.088
Mof_H 	H 	0.1103	0.8891	0.3564	0.138
Mof_H 	H 	0.1348	0.9312	0.3072	0.154
Mof_H 	H 	0.1429	0.9732	0.3861	0.141
Mof_H 	H 	0.3192	0.962	0.413	0.17
Mof_H 	H 	0.2848	0.0229	0.4255	0.188
Mof_H 	H 	0.2838	0.9845	0.3482	0.161
Mof_H 	H 	0.366	0.9624	0.5662	-0.113
Mof_H 	H 	0.4006	0.0758	0.6513	0.098
Mof_H 	H 	0.4849	0.1057	0.6805	0.092
Mof_H 	H 	0.4422	0.0816	0.7296	0.1
Mof_H 	H 	0.5021	0.9325	0.67	0.172
Mof_H 	H 	0.5087	0.9912	0.74	0.145
Mof_H 	H 	0.5484	0.0127	0.6878	0.175
Mof_H 	H 	0.3991	0.1911	0.8412	-0.088
Mof_H 	H 	0.3564	0.1103	0.8891	0.138
Mof_H 	H 	0.3072	0.1348	0.9312	0.154
Mof_H 	H 	0.3861	0.1429	0.9732	0.141
Mof_H 	H 	0.413	0.3192	0.962	0.17
Mof_H 	H 	0.4255	0.2848	0.0229	0.188
Mof_H 	H 	0.3482	0.2838	0.9845	0.161
Mof_H 	H 	0.5662	0.366	0.9624	-0.113
Mof_H 	H 	0.6513	0.4006	0.0758	0.098
Mof_H 	H 	0.6805	0.4849	0.1057	0.092
Mof_H 	H 	0.7296	0.4422	0.0816	0.1
Mof_H 	H 	0.67	0.5021	0.9325	0.172
Mof_H 	H 	0.74	0.5087	0.9912	0.145
Mof_H 	H 	0.6878	0.5484	0.0127	0.175
Mof_H 	H 	0.8991	0.3412	0.6911	-0.09
Mof_H 	H 	0.8564	0.3891	0.6103	0.129
Mof_H 	H 	0.8072	0.4312	0.6348	0.147
Mof_H 	H 	0.8861	0.4732	0.6429	0.139
Mof_H 	H 	0.913	0.462	0.8192	0.143
Mof_H 	H 	0.9255	0.5229	0.7848	0.131
Mof_H 	H 	0.8482	0.4845	0.7838	0.137
Mof_H 	H 	0.0662	0.4624	0.866	-0.096
Mof_H 	H 	0.1513	0.5758	0.9006	0.099
Mof_H 	H 	0.1805	0.6057	0.9849	0.085
Mof_H 	H 	0.2296	0.5816	0.9422	0.094
Mof_H 	H 	0.17	0.4325	0.0021	0.149
Mof_H 	H 	0.24	0.4912	0.0087	0.125
Mof_H 	H 	0.1878	0.5127	0.0484	0.124
Mof_H 	H 	0.3412	0.6911	0.8991	-0.09
Mof_H 	H 	0.3891	0.6103	0.8564	0.129
Mof_H 	H 	0.4312	0.6348	0.8072	0.147
Mof_H 	H 	0.4732	0.6429	0.8861	0.139
Mof_H 	H 	0.462	0.8192	0.913	0.143
Mof_H 	H 	0.5229	0.7848	0.9255	0.131
Mof_H 	H 	0.4845	0.7838	0.8482	0.137
Mof_H 	H 	0.4624	0.866	0.0662	-0.096
Mof_H 	H 	0.5758	0.9006	0.1513	0.099
Mof_H 	H 	0.6057	0.9849	0.1805	0.085
Mof_H 	H 	0.5816	0.9422	0.2296	0.094
Mof_H 	H 	0.4325	0.0021	0.17	0.149
Mof_H 	H 	0.4912	0.0087	0.24	0.125
Mof_H 	H 	0.5127	0.0484	0.1878	0.124
Mof_H 	H 	0.6911	0.8991	0.3412	-0.09
Mof_H 	H 	0.6103	0.8564	0.3891	0.129
Mof_H 	H 	0.6348	0.8072	0.4312	0.147
Mof_H 	H 	0.6429	0.8861	0.4732	0.139
Mof_H 	H 	0.8192	0.913	0.462	0.143
Mof_H 	H 	0.7848	0.9255	0.5229	0.131
Mof_H 	H 	0.7838	0.8482	0.4845	0.137
Mof_H 	H 	0.866	0.0662	0.4624	-0.096
Mof_H 	H 	0.9006	0.1513	0.5758	0.099
Mof_H 	H 	0.9849	0.1805	0.6057	0.085
Mof_H 	H 	0.9422	0.2296	0.5816	0.094
Mof_H 	H 	0.0021	0.17	0.4325	0.149
Mof_H 	H 	0.0087	0.24	0.4912	0.125
Mof_H 	H 	0.0484	0.1878	0.5127	0.124
Mof_C 	C 	0.4648	0.0783	0.0408	-0.033
Mof_C 	C 	0.7073	0.3138	0.1637	-0.017
Mof_C 	C 	0.5884	0.9464	0.8502	-0.045
Mof_C 	C 	0.5666	0.2219	0.8689	0.034
Mof_C 	C 	0.7312	0.0437	0.1483	0.024
Mof_C 	C 	0.8327	0.1838	0.9823	-0.038
Mof_C 	C 	0.8812	0.4063	0.2297	0.287
Mof_C 	C 	0.9301	0.3554	0.145	-0.356
Mof_C 	C 	0.978	0.393	0.28	-0.429
Mof_C 	C 	0.9466	0.5924	0.3994	0.398
Mof_C 	C 	0.0718	0.6813	0.443	-0.245
Mof_C 	C 	0.982	0.691	0.506	-0.397
Mof_C 	C 	0.85	0.352	0.386	0.195
Mof_C 	C 	0.886	0.246	0.378	0.012
Mof_C 	C 	0.767	0.233	0.294	0.027
Mof_C 	C 	0.0408	0.4648	0.0783	-0.033
Mof_C 	C 	0.1637	0.7073	0.3138	-0.017
Mof_C 	C 	0.8502	0.5884	0.9464	-0.045
Mof_C 	C 	0.8689	0.5666	0.2219	0.034
Mof_C 	C 	0.1483	0.7312	0.0437	0.024
Mof_C 	C 	0.9823	0.8327	0.1838	-0.038
Mof_C 	C 	0.2297	0.8812	0.4063	0.287
Mof_C 	C 	0.145	0.9301	0.3554	-0.356
Mof_C 	C 	0.28	0.978	0.393	-0.429
Mof_C 	C 	0.3994	0.9466	0.5924	0.398
Mof_C 	C 	0.443	0.0718	0.6813	-0.245
Mof_C 	C 	0.506	0.982	0.691	-0.397
Mof_C 	C 	0.386	0.85	0.352	0.195
Mof_C 	C 	0.378	0.886	0.246	0.012
Mof_C 	C 	0.294	0.767	0.233	0.027
Mof_C 	C 	0.0783	0.0408	0.4648	-0.033
Mof_C 	C 	0.3138	0.1637	0.7073	-0.017
Mof_C 	C 	0.9464	0.8502	0.5884	-0.045
Mof_C 	C 	0.2219	0.8689	0.5666	0.034
Mof_C 	C 	0.0437	0.1483	0.7312	0.024
Mof_C 	C 	0.1838	0.9823	0.8327	-0.038
Mof_C 	C 	0.4063	0.2297	0.8812	0.287
Mof_C 	C 	0.3554	0.145	0.9301	-0.356
Mof_C 	C 	0.393	0.28	0.978	-0.429
Mof_C 	C 	0.5924	0.3994	0.9466	0.398
Mof_C 	C 	0.6813	0.443	0.0718	-0.245
Mof_C 	C 	0.691	0.506	0.982	-0.397
Mof_C 	C 	0.352	0.386	0.85	0.195
Mof_C 	C 	0.246	0.378	0.886	0.012
Mof_C 	C 	0.233	0.294	0.767	0.027
Mof_C 	C 	0.5783	0.9648	0.5408	-0.073
Mof_C 	C 	0.8138	0.2073	0.6637	-0.016
Mof_C 	C 	0.4464	0.0884	0.3502	-0.012
Mof_C 	C 	0.7219	0.0666	0.3689	0.04
Mof_C 	C 	0.5437	0.2312	0.6483	0.016
Mof_C 	C 	0.6838	0.3327	0.4823	-0.031
Mof_C 	C 	0.9063	0.3812	0.7297	0.287
Mof_C 	C 	0.8554	0.4301	0.645	-0.339
Mof_C 	C 	0.893	0.478	0.78	-0.329
Mof_C 	C 	0.0924	0.4466	0.8994	0.393
Mof_C 	C 	0.1813	0.5718	0.943	-0.261
Mof_C 	C 	0.191	0.482	0.006	-0.269
Mof_C 	C 	0.852	0.35	0.886	0.188
Mof_C 	C 	0.746	0.386	0.878	0.013
Mof_C 	C 	0.733	0.267	0.794	0.026
Mof_C 	C 	0.9648	0.5408	0.5783	-0.073
Mof_C 	C 	0.2073	0.6637	0.8138	-0.016
Mof_C 	C 	0.0884	0.3502	0.4464	-0.012
Mof_C 	C 	0.0666	0.3689	0.7219	0.04
Mof_C 	C 	0.2312	0.6483	0.5437	0.016
Mof_C 	C 	0.3327	0.4823	0.6838	-0.031
Mof_C 	C 	0.3812	0.7297	0.9063	0.287
Mof_C 	C 	0.4301	0.645	0.8554	-0.339
Mof_C 	C 	0.478	0.78	0.893	-0.329
Mof_C 	C 	0.4466	0.8994	0.0924	0.393
Mof_C 	C 	0.5718	0.943	0.1813	-0.261
Mof_C 	C 	0.482	0.006	0.191	-0.269
Mof_C 	C 	0.35	0.886	0.852	0.188
Mof_C 	C 	0.386	0.878	0.746	0.013
Mof_C 	C 	0.267	0.794	0.733	0.026
Mof_C 	C 	0.5408	0.5783	0.9648	-0.073
Mof_C 	C 	0.6637	0.8138	0.2073	-0.016
Mof_C 	C 	0.3502	0.4464	0.0884	-0.012
Mof_C 	C 	0.3689	0.7219	0.0666	0.04
Mof_C 	C 	0.6483	0.5437	0.2312	0.016
Mof_C 	C 	0.4823	0.6838	0.3327	-0.031
Mof_C 	C 	0.7297	0.9063	0.3812	0.287
Mof_C 	C 	0.645	0.8554	0.4301	-0.339
Mof_C 	C 	0.78	0.893	0.478	-0.329
Mof_C 	C 	0.8994	0.0924	0.4466	0.393
Mof_C 	C 	0.943	0.1813	0.5718	-0.261
Mof_C 	C 	0.006	0.191	0.482	-0.269
Mof_C 	C 	0.886	0.852	0.35	0.188
Mof_C 	C 	0.878	0.746	0.386	0.013
Mof_C 	C 	0.794	0.733	0.267	0.026
Mof_Se	Se	0.79436	0.19813	0.12772	-0.142
Mof_Se	Se	0.66942	0.11139	0.86165	-0.148
Mof_Se	Se	0.72515	0.27703	0.00199	-0.134
Mof_Se	Se	0.55685	0.22685	0.0288	-0.152
Mof_Se	Se	0.57216	0.98255	0.01335	-0.189
Mof_Se	Se	0.62729	0.14814	0.15431	-0.172
Mof_Se	Se	0.50188	0.06231	0.88957	-0.183
Mof_Se	Se	0.74006	0.03353	0.98713	-0.148
Mof_Se	Se	0.12772	0.79436	0.19813	-0.142
Mof_Se	Se	0.86165	0.66942	0.11139	-0.148
Mof_Se	Se	0.00199	0.72515	0.27703	-0.134
Mof_Se	Se	0.0288	0.55685	0.22685	-0.152
Mof_Se	Se	0.01335	0.57216	0.98255	-0.189
Mof_Se	Se	0.15431	0.62729	0.14814	-0.172
Mof_Se	Se	0.88957	0.50188	0.06231	-0.183
Mof_Se	Se	0.98713	0.74006	0.03353	-0.148
Mof_Se	Se	0.19813	0.12772	0.79436	-0.142
Mof_Se	Se	0.11139	0.86165	0.66942	-0.148
Mof_Se	Se	0.27703	0.00199	0.72515	-0.134
Mof_Se	Se	0.22685	0.0288	0.55685	-0.152
Mof_Se	Se	0.98255	0.01335	0.57216	-0.189
Mof_Se	Se	0.14814	0.15431	0.62729	-0.172
Mof_Se	Se	0.06231	0.88957	0.50188	-0.183
Mof_Se	Se	0.03353	0.98713	0.74006	-0.148
Mof_Se	Se	0.69813	0.29436	0.62772	-0.153
Mof_Se	Se	0.61139	0.16942	0.36165	-0.154
Mof_Se	Se	0.77703	0.22515	0.50199	-0.174
Mof_Se	Se	0.72685	0.05685	0.5288	-0.157
Mof_Se	Se	0.48255	0.07216	0.51335	-0.163
Mof_Se	Se	0.64814	0.12729	0.65431	-0.168
Mof_Se	Se	0.56231	0.00188	0.38957	-0.162
Mof_Se	Se	0.53353	0.24006	0.48713	-0.139
Mof_Se	Se	0.29436	0.62772	0.69813	-0.153
Mof_Se	Se	0.16942	0.36165	0.61139	-0.154
Mof_Se	Se	0.22515	0.50199	0.77703	-0.174
Mof_Se	Se	0.05685	0.5288	0.72685	-0.157
Mof_Se	Se	0.07216	0.51335	0.48255	-0.163
Mof_Se	Se	0.12729	0.65431	0.64814	-0.168
Mof_Se	Se	0.00188	0.38957	0.56231	-0.162
Mof_Se	Se	0.24006	0.48713	0.53353	-0.139
Mof_Se	Se	0.62772	0.69813	0.29436	-0.153
Mof_Se	Se	0.36165	0.61139	0.16942	-0.154
Mof_Se	Se	0.50199	0.77703	0.22515	-0.174
Mof_Se	Se	0.5288	0.72685	0.05685	-0.157
Mof_Se	Se	0.51335	0.48255	0.07216	-0.163
Mof_Se	Se	0.65431	0.64814	0.12729	-0.168
Mof_Se	Se	0.38957	0.56231	0.00188	-0.162
Mof_Se	Se	0.48713	0.53353	0.24006	-0.139
Mof_N 	N 	0.4138	0.0597	0.0519	-0.073
Mof_N 	N 	0.7256	0.375	0.2054	-0.274
Mof_N 	N 	0.5762	0.9011	0.8108	-0.1
Mof_N 	N 	0.539	0.2397	0.8304	-0.28
Mof_N 	N 	0.7576	0.0186	0.1866	-0.258
Mof_N 	N 	0.8855	0.1958	0.9757	-0.081
Mof_N 	N 	0.9256	0.3795	0.2133	-0.074
Mof_N 	N 	0.9944	0.6525	0.4451	-0.124
Mof_N 	N 	0.8318	0.2859	0.3542	-0.149
Mof_N 	N 	0.0519	0.4138	0.0597	-0.073
Mof_N 	N 	0.2054	0.7256	0.375	-0.274
Mof_N 	N 	0.8108	0.5762	0.9011	-0.1
Mof_N 	N 	0.8304	0.539	0.2397	-0.28
Mof_N 	N 	0.1866	0.7576	0.0186	-0.258
Mof_N 	N 	0.9757	0.8855	0.1958	-0.081
Mof_N 	N 	0.2133	0.9256	0.3795	-0.074
Mof_N 	N 	0.4451	0.9944	0.6525	-0.124
Mof_N 	N 	0.3542	0.8318	0.2859	-0.149
Mof_N 	N 	0.0597	0.0519	0.4138	-0.073
Mof_N 	N 	0.375	0.2054	0.7256	-0.274
Mof_N 	N 	0.9011	0.8108	0.5762	-0.1
Mof_N 	N 	0.2397	0.8304	0.539	-0.28
Mof_N 	N 	0.0186	0.1866	0.7576	-0.258
Mof_N 	N 	0.1958	0.9757	0.8855	-0.081
Mof_N 	N 	0.3795	0.2133	0.9256	-0.074
Mof_N 	N 	0.6525	0.4451	0.9944	-0.124
Mof_N 	N 	0.2859	0.3542	0.8318	-0.149
Mof_N 	N 	0.5597	0.9138	0.5519	-0.083
Mof_N 	N 	0.875	0.2256	0.7054	-0.27
Mof_N 	N 	0.4011	0.0762	0.3108	-0.097
Mof_N 	N 	0.7397	0.039	0.3304	-0.267
Mof_N 	N 	0.5186	0.2576	0.6866	-0.273
Mof_N 	N 	0.6958	0.3855	0.4757	-0.073
Mof_N 	N 	0.8795	0.4256	0.7133	-0.088
Mof_N 	N 	0.1525	0.4944	0.9451	-0.135
Mof_N 	N 	0.7859	0.3318	0.8542	-0.149
Mof_N 	N 	0.9138	0.5519	0.5597	-0.083
Mof_N 	N 	0.2256	0.7054	0.875	-0.27
Mof_N 	N 	0.0762	0.3108	0.4011	-0.097
Mof_N 	N 	0.039	0.3304	0.7397	-0.267
Mof_N 	N 	0.2576	0.6866	0.5186	-0.273
Mof_N 	N 	0.3855	0.4757	0.6958	-0.073
Mof_N 	N 	0.4256	0.7133	0.8795	-0.088
Mof_N 	N 	0.4944	0.9451	0.1525	-0.135
Mof_N 	N 	0.3318	0.8542	0.7859	-0.149
Mof_N 	N 	0.5519	0.5597	0.9138	-0.083
Mof_N 	N 	0.7054	0.875	0.2256	-0.27
Mof_N 	N 	0.3108	0.4011	0.0762	-0.097
Mof_N 	N 	0.3304	0.7397	0.039	-0.267
Mof_N 	N 	0.6866	0.5186	0.2576	-0.273
Mof_N 	N 	0.4757	0.6958	0.3855	-0.073
Mof_N 	N 	0.7133	0.8795	0.4256	-0.088
Mof_N 	N 	0.9451	0.1525	0.4944	-0.135
Mof_N 	N 	0.8542	0.7859	0.3318	-0.149
Mof_O 	O 	0.8811	0.4417	0.2901	-0.466
Mof_O 	O 	0.6591	0.4052	0.3227	-0.305
Mof_O 	O 	0.8867	0.5668	0.3949	-0.554
Mof_O 	O 	0.7782	0.5059	0.4428	-0.3
Mof_O 	O 	0.7983	0.3817	0.366	-0.408
Mof_O 	O 	0.76	0.5987	0.3793	-0.271
Mof_O 	O 	0.2901	0.8811	0.4417	-0.466
Mof_O 	O 	0.3227	0.6591	0.4052	-0.305
Mof_O 	O 	0.3949	0.8867	0.5668	-0.554
Mof_O 	O 	0.4428	0.7782	0.5059	-0.3
Mof_O 	O 	0.366	0.7983	0.3817	-0.408
Mof_O 	O 	0.3793	0.76	0.5987	-0.271
Mof_O 	O 	0.4417	0.2901	0.8811	-0.466
Mof_O 	O 	0.4052	0.3227	0.6591	-0.305
Mof_O 	O 	0.5668	0.3949	0.8867	-0.554
Mof_O 	O 	0.5059	0.4428	0.7782	-0.3
Mof_O 	O 	0.3817	0.366	0.7983	-0.408
Mof_O 	O 	0.5987	0.3793	0.76	-0.271
Mof_O 	O 	0.9417	0.3811	0.7901	-0.465
Mof_O 	O 	0.9052	0.1591	0.8227	-0.306
Mof_O 	O 	0.0668	0.3867	0.8949	-0.538
Mof_O 	O 	0.0059	0.2782	0.9428	-0.282
Mof_O 	O 	0.8817	0.2983	0.866	-0.406
Mof_O 	O 	0.0987	0.26	0.8793	-0.262
Mof_O 	O 	0.3811	0.7901	0.9417	-0.465
Mof_O 	O 	0.1591	0.8227	0.9052	-0.306
Mof_O 	O 	0.3867	0.8949	0.0668	-0.538
Mof_O 	O 	0.2782	0.9428	0.0059	-0.282
Mof_O 	O 	0.2983	0.866	0.8817	-0.406
Mof_O 	O 	0.26	0.8793	0.0987	-0.262
Mof_O 	O 	0.7901	0.9417	0.3811	-0.465
Mof_O 	O 	0.8227	0.9052	0.1591	-0.306
Mof_O 	O 	0.8949	0.0668	0.3867	-0.538
Mof_O 	O 	0.9428	0.0059	0.2782	-0.282
Mof_O 	O 	0.866	0.8817	0.2983	-0.406
Mof_O 	O 	0.8793	0.0987	0.26	-0.262
_end
