data_functionalizedCrystal
_audit_creation_method	'EQeq! by Chris Wilmer'
_symmetry_space_group_name_H-M	'P1'
_symmetry_Int_Tables_number	1
_symmetry_cell_setting	triclinic
loop_
_symmetry_equiv_pos_as_xyz
  x,y,z
_cell_length_a	41.09
_cell_length_b	41.09
_cell_length_c	17.747
_cell_angle_alpha	90
_cell_angle_beta	90
_cell_angle_gamma	120
loop_
_atom_site_label
_atom_site_type_symbol
_atom_site_fract_x
_atom_site_fract_y
_atom_site_fract_z
_atom_site_charge
Mof_Zn	Zn	0.39958	0.3728	0.16187	1.224
Mof_O 	O 	0.385	0.3339	0.0934	-0.477
Mof_O 	O 	0.4098	0.3005	0.1544	-0.52
Mof_C 	C 	0.3963	0.3086	0.0975	0.322
Mof_C 	C 	0.3903	0.2854	0.0212	-0.078
Mof_C 	C 	0.3689	0.2909	0.9649	0.052
Mof_C 	C 	0.3653	0.2705	0.8948	-0.098
Mof_H 	H 	0.3535	0.2737	0.8523	0.064
Mof_C 	C 	0.3799	0.2461	0.8924	0.024
Mof_C 	C 	0.4042	0.2455	0.9524	-0.078
Mof_H 	H 	0.4196	0.235	0.9431	0.057
Mof_C 	C 	0.4045	0.2609	0.026	-0.001
Mof_H 	H 	0.413	0.2552	0.0706	0.042
Mof_C 	C 	0.3769	0.2262	0.8131	0.059
Mof_C 	C 	0.3777	0.1925	0.818	-0.122
Mof_H 	H 	0.379	0.1824	0.8646	0.07
Mof_C 	C 	0.3708	0.1195	0.8096	-0.09
Mof_H 	H 	0.3606	0.1255	0.851	0.06
Mof_C 	C 	0.3791	0.0884	0.8172	-0.003
Mof_H 	H 	0.3878	0.082	0.8605	0.041
Mof_O 	O 	0.3719	0.0172	0.8127	-0.502
Mof_O 	O 	0.4334	0.415	0.1023	-0.516
Mof_O 	O 	0.4888	0.4443	0.1644	-0.493
Mof_C 	C 	0.467	0.4385	0.1123	0.388
Mof_C 	C 	0.4818	0.4647	0.0395	0.053
Mof_C 	C 	0.5194	0.4918	0.0482	-0.103
Mof_C 	C 	0.462	0.4822	0.0086	0.14
Mof_C 	C 	0.481	0.4832	0.0742	-0.141
Mof_C 	C 	0.5186	0.5103	0.083	0.145
Mof_C 	C 	0.4628	0.4637	0.9739	-0.125
Mof_Zn	Zn	0.6272	0.02678	0.16187	1.225
Mof_O 	O 	0.6661	0.0511	0.0934	-0.476
Mof_O 	O 	0.6995	0.1093	0.1544	-0.52
Mof_C 	C 	0.6914	0.0877	0.0975	0.323
Mof_C 	C 	0.7146	0.1049	0.0212	-0.077
Mof_C 	C 	0.7091	0.078	0.9649	0.053
Mof_C 	C 	0.7295	0.0948	0.8948	-0.097
Mof_H 	H 	0.7263	0.0798	0.8523	0.065
Mof_C 	C 	0.7539	0.1338	0.8924	0.025
Mof_C 	C 	0.7545	0.1587	0.9524	-0.077
Mof_H 	H 	0.765	0.1846	0.9431	0.058
Mof_C 	C 	0.7391	0.1436	0.026	0
Mof_H 	H 	0.7448	0.1578	0.0706	0.043
Mof_C 	C 	0.7738	0.1507	0.8131	0.06
Mof_C 	C 	0.8075	0.1852	0.818	-0.121
Mof_H 	H 	0.8176	0.1966	0.8646	0.071
Mof_C 	C 	0.8805	0.2513	0.8096	-0.089
Mof_H 	H 	0.8745	0.2351	0.851	0.062
Mof_C 	C 	0.9116	0.2907	0.8172	-0.002
Mof_H 	H 	0.918	0.3058	0.8605	0.042
Mof_O 	O 	0.9828	0.3547	0.8127	-0.502
Mof_O 	O 	0.585	0.0184	0.1023	-0.516
Mof_O 	O 	0.5557	0.0445	0.1644	-0.493
Mof_C 	C 	0.5615	0.0285	0.1123	0.388
Mof_C 	C 	0.5353	0.0171	0.0395	0.053
Mof_C 	C 	0.5082	0.0276	0.0482	-0.103
Mof_C 	C 	0.5178	0.9798	0.0086	0.14
Mof_C 	C 	0.5168	0.9978	0.0742	-0.141
Mof_C 	C 	0.4897	0.0083	0.083	0.145
Mof_C 	C 	0.5363	0.9991	0.9739	-0.126
Mof_Zn	Zn	0.97322	0.60042	0.16187	1.225
Mof_O 	O 	0.9489	0.615	0.0934	-0.476
Mof_O 	O 	0.8907	0.5902	0.1544	-0.519
Mof_C 	C 	0.9123	0.6037	0.0975	0.323
Mof_C 	C 	0.8951	0.6097	0.0212	-0.077
Mof_C 	C 	0.922	0.6311	0.9649	0.053
Mof_C 	C 	0.9052	0.6347	0.8948	-0.097
Mof_H 	H 	0.9202	0.6465	0.8523	0.065
Mof_C 	C 	0.8662	0.6201	0.8924	0.025
Mof_C 	C 	0.8413	0.5958	0.9524	-0.077
Mof_H 	H 	0.8154	0.5804	0.9431	0.058
Mof_C 	C 	0.8564	0.5955	0.026	0
Mof_H 	H 	0.8422	0.587	0.0706	0.043
Mof_C 	C 	0.8493	0.6231	0.8131	0.06
Mof_C 	C 	0.8148	0.6223	0.818	-0.121
Mof_H 	H 	0.8034	0.621	0.8646	0.071
Mof_C 	C 	0.7487	0.6292	0.8096	-0.089
Mof_H 	H 	0.7649	0.6394	0.851	0.061
Mof_C 	C 	0.7093	0.6209	0.8172	-0.002
Mof_H 	H 	0.6942	0.6122	0.8605	0.042
Mof_O 	O 	0.6453	0.6281	0.8127	-0.502
Mof_O 	O 	0.9816	0.5666	0.1023	-0.516
Mof_O 	O 	0.9555	0.5112	0.1644	-0.493
Mof_C 	C 	0.9715	0.533	0.1123	0.388
Mof_C 	C 	0.9829	0.5182	0.0395	0.052
Mof_C 	C 	0.9724	0.4806	0.0482	-0.103
Mof_C 	C 	0.0202	0.538	0.0086	0.14
Mof_C 	C 	0.0022	0.519	0.0742	-0.141
Mof_C 	C 	0.9917	0.4814	0.083	0.144
Mof_C 	C 	0.0009	0.5372	0.9739	-0.125
Mof_Zn	Zn	0.60042	0.6272	0.66187	1.225
Mof_O 	O 	0.615	0.6661	0.5934	-0.476
Mof_O 	O 	0.5902	0.6995	0.6544	-0.519
Mof_C 	C 	0.6037	0.6914	0.5975	0.323
Mof_C 	C 	0.6097	0.7146	0.5212	-0.077
Mof_C 	C 	0.6311	0.7091	0.4649	0.053
Mof_C 	C 	0.6347	0.7295	0.3948	-0.097
Mof_H 	H 	0.6465	0.7263	0.3523	0.065
Mof_C 	C 	0.6201	0.7539	0.3924	0.025
Mof_C 	C 	0.5958	0.7545	0.4524	-0.077
Mof_H 	H 	0.5804	0.765	0.4431	0.058
Mof_C 	C 	0.5955	0.7391	0.526	0
Mof_H 	H 	0.587	0.7448	0.5706	0.043
Mof_C 	C 	0.6231	0.7738	0.3131	0.06
Mof_C 	C 	0.6223	0.8075	0.318	-0.121
Mof_H 	H 	0.621	0.8176	0.3646	0.071
Mof_C 	C 	0.6292	0.8805	0.3096	-0.089
Mof_H 	H 	0.6394	0.8745	0.351	0.062
Mof_C 	C 	0.6209	0.9116	0.3172	-0.002
Mof_H 	H 	0.6122	0.918	0.3605	0.042
Mof_O 	O 	0.6281	0.9828	0.3127	-0.502
Mof_O 	O 	0.5666	0.585	0.6023	-0.516
Mof_O 	O 	0.5112	0.5557	0.6644	-0.493
Mof_C 	C 	0.533	0.5615	0.6123	0.388
Mof_C 	C 	0.5182	0.5353	0.5395	0.053
Mof_C 	C 	0.4806	0.5082	0.5482	-0.103
Mof_C 	C 	0.538	0.5178	0.5086	0.14
Mof_C 	C 	0.519	0.5168	0.5742	-0.141
Mof_C 	C 	0.4814	0.4897	0.583	0.145
Mof_C 	C 	0.5372	0.5363	0.4739	-0.125
Mof_Zn	Zn	0.3728	0.97322	0.66187	1.225
Mof_O 	O 	0.3339	0.9489	0.5934	-0.476
Mof_O 	O 	0.3005	0.8907	0.6544	-0.519
Mof_C 	C 	0.3086	0.9123	0.5975	0.323
Mof_C 	C 	0.2854	0.8951	0.5212	-0.077
Mof_C 	C 	0.2909	0.922	0.4649	0.053
Mof_C 	C 	0.2705	0.9052	0.3948	-0.097
Mof_H 	H 	0.2737	0.9202	0.3523	0.065
Mof_C 	C 	0.2461	0.8662	0.3924	0.025
Mof_C 	C 	0.2455	0.8413	0.4524	-0.077
Mof_H 	H 	0.235	0.8154	0.4431	0.058
Mof_C 	C 	0.2609	0.8564	0.526	0
Mof_H 	H 	0.2552	0.8422	0.5706	0.043
Mof_C 	C 	0.2262	0.8493	0.3131	0.06
Mof_C 	C 	0.1925	0.8148	0.318	-0.121
Mof_H 	H 	0.1824	0.8034	0.3646	0.071
Mof_C 	C 	0.1195	0.7487	0.3096	-0.089
Mof_H 	H 	0.1255	0.7649	0.351	0.062
Mof_C 	C 	0.0884	0.7093	0.3172	-0.002
Mof_H 	H 	0.082	0.6942	0.3605	0.042
Mof_O 	O 	0.0172	0.6453	0.3127	-0.502
Mof_O 	O 	0.415	0.9816	0.6023	-0.516
Mof_O 	O 	0.4443	0.9555	0.6644	-0.493
Mof_C 	C 	0.4385	0.9715	0.6123	0.388
Mof_C 	C 	0.4647	0.9829	0.5395	0.053
Mof_C 	C 	0.4918	0.9724	0.5482	-0.103
Mof_C 	C 	0.4822	0.0202	0.5086	0.14
Mof_C 	C 	0.4832	0.0022	0.5742	-0.142
Mof_C 	C 	0.5103	0.9917	0.583	0.145
Mof_C 	C 	0.4637	0.0009	0.4739	-0.125
Mof_Zn	Zn	0.02678	0.39958	0.66187	1.225
Mof_O 	O 	0.0511	0.385	0.5934	-0.476
Mof_O 	O 	0.1093	0.4098	0.6544	-0.519
Mof_C 	C 	0.0877	0.3963	0.5975	0.323
Mof_C 	C 	0.1049	0.3903	0.5212	-0.077
Mof_C 	C 	0.078	0.3689	0.4649	0.053
Mof_C 	C 	0.0948	0.3653	0.3948	-0.097
Mof_H 	H 	0.0798	0.3535	0.3523	0.065
Mof_C 	C 	0.1338	0.3799	0.3924	0.025
Mof_C 	C 	0.1587	0.4042	0.4524	-0.077
Mof_H 	H 	0.1846	0.4196	0.4431	0.058
Mof_C 	C 	0.1436	0.4045	0.526	0
Mof_H 	H 	0.1578	0.413	0.5706	0.043
Mof_C 	C 	0.1507	0.3769	0.3131	0.06
Mof_C 	C 	0.1852	0.3777	0.318	-0.121
Mof_H 	H 	0.1966	0.379	0.3646	0.071
Mof_C 	C 	0.2513	0.3708	0.3096	-0.089
Mof_H 	H 	0.2351	0.3606	0.351	0.062
Mof_C 	C 	0.2907	0.3791	0.3172	-0.002
Mof_H 	H 	0.3058	0.3878	0.3605	0.042
Mof_O 	O 	0.3547	0.3719	0.3127	-0.502
Mof_O 	O 	0.0184	0.4334	0.6023	-0.516
Mof_O 	O 	0.0445	0.4888	0.6644	-0.493
Mof_C 	C 	0.0285	0.467	0.6123	0.388
Mof_C 	C 	0.0171	0.4818	0.5395	0.053
Mof_C 	C 	0.0276	0.5194	0.5482	-0.103
Mof_C 	C 	0.9798	0.462	0.5086	0.14
Mof_C 	C 	0.9978	0.481	0.5742	-0.142
Mof_C 	C 	0.0083	0.5186	0.583	0.145
Mof_C 	C 	0.9991	0.4628	0.4739	-0.125
Mof_Zn	Zn	0.60042	0.6272	0.83813	1.225
Mof_O 	O 	0.615	0.6661	0.9066	-0.476
Mof_O 	O 	0.5902	0.6995	0.8456	-0.519
Mof_C 	C 	0.6037	0.6914	0.9025	0.323
Mof_C 	C 	0.6097	0.7146	0.9788	-0.077
Mof_C 	C 	0.6311	0.7091	0.0351	0.053
Mof_C 	C 	0.6347	0.7295	0.1052	-0.097
Mof_H 	H 	0.6465	0.7263	0.1477	0.065
Mof_C 	C 	0.6201	0.7539	0.1076	0.025
Mof_C 	C 	0.5958	0.7545	0.0476	-0.077
Mof_H 	H 	0.5804	0.765	0.0569	0.058
Mof_C 	C 	0.5955	0.7391	0.974	0
Mof_H 	H 	0.587	0.7448	0.9294	0.043
Mof_C 	C 	0.6231	0.7738	0.1869	0.06
Mof_C 	C 	0.6223	0.8075	0.182	-0.121
Mof_H 	H 	0.621	0.8176	0.1354	0.071
Mof_C 	C 	0.6292	0.8805	0.1904	-0.089
Mof_H 	H 	0.6394	0.8745	0.149	0.061
Mof_C 	C 	0.6209	0.9116	0.1828	-0.002
Mof_H 	H 	0.6122	0.918	0.1395	0.042
Mof_O 	O 	0.6281	0.9828	0.1873	-0.502
Mof_O 	O 	0.5666	0.585	0.8977	-0.516
Mof_O 	O 	0.5112	0.5557	0.8356	-0.493
Mof_C 	C 	0.533	0.5615	0.8877	0.388
Mof_C 	C 	0.5182	0.5353	0.9605	0.053
Mof_C 	C 	0.4806	0.5082	0.9518	-0.103
Mof_C 	C 	0.538	0.5178	0.9914	0.14
Mof_C 	C 	0.519	0.5168	0.9258	-0.141
Mof_C 	C 	0.4814	0.4897	0.917	0.145
Mof_C 	C 	0.5372	0.5363	0.0261	-0.125
Mof_Zn	Zn	0.3728	0.97322	0.83813	1.225
Mof_O 	O 	0.3339	0.9489	0.9066	-0.476
Mof_O 	O 	0.3005	0.8907	0.8456	-0.52
Mof_C 	C 	0.3086	0.9123	0.9025	0.323
Mof_C 	C 	0.2854	0.8951	0.9788	-0.077
Mof_C 	C 	0.2909	0.922	0.0351	0.053
Mof_C 	C 	0.2705	0.9052	0.1052	-0.097
Mof_H 	H 	0.2737	0.9202	0.1477	0.065
Mof_C 	C 	0.2461	0.8662	0.1076	0.025
Mof_C 	C 	0.2455	0.8413	0.0476	-0.077
Mof_H 	H 	0.235	0.8154	0.0569	0.058
Mof_C 	C 	0.2609	0.8564	0.974	0
Mof_H 	H 	0.2552	0.8422	0.9294	0.043
Mof_C 	C 	0.2262	0.8493	0.1869	0.06
Mof_C 	C 	0.1925	0.8148	0.182	-0.121
Mof_H 	H 	0.1824	0.8034	0.1354	0.071
Mof_C 	C 	0.1195	0.7487	0.1904	-0.089
Mof_H 	H 	0.1255	0.7649	0.149	0.062
Mof_C 	C 	0.0884	0.7093	0.1828	-0.002
Mof_H 	H 	0.082	0.6942	0.1395	0.042
Mof_O 	O 	0.0172	0.6453	0.1873	-0.502
Mof_O 	O 	0.415	0.9816	0.8977	-0.516
Mof_O 	O 	0.4443	0.9555	0.8356	-0.493
Mof_C 	C 	0.4385	0.9715	0.8877	0.388
Mof_C 	C 	0.4647	0.9829	0.9605	0.053
Mof_C 	C 	0.4918	0.9724	0.9518	-0.103
Mof_C 	C 	0.4822	0.0202	0.9914	0.14
Mof_C 	C 	0.4832	0.0022	0.9258	-0.141
Mof_C 	C 	0.5103	0.9917	0.917	0.145
Mof_C 	C 	0.4637	0.0009	0.0261	-0.126
Mof_Zn	Zn	0.02678	0.39958	0.83813	1.225
Mof_O 	O 	0.0511	0.385	0.9066	-0.476
Mof_O 	O 	0.1093	0.4098	0.8456	-0.519
Mof_C 	C 	0.0877	0.3963	0.9025	0.323
Mof_C 	C 	0.1049	0.3903	0.9788	-0.077
Mof_C 	C 	0.078	0.3689	0.0351	0.053
Mof_C 	C 	0.0948	0.3653	0.1052	-0.097
Mof_H 	H 	0.0798	0.3535	0.1477	0.065
Mof_C 	C 	0.1338	0.3799	0.1076	0.025
Mof_C 	C 	0.1587	0.4042	0.0476	-0.077
Mof_H 	H 	0.1846	0.4196	0.0569	0.058
Mof_C 	C 	0.1436	0.4045	0.974	0
Mof_H 	H 	0.1578	0.413	0.9294	0.043
Mof_C 	C 	0.1507	0.3769	0.1869	0.06
Mof_C 	C 	0.1852	0.3777	0.182	-0.121
Mof_H 	H 	0.1966	0.379	0.1354	0.071
Mof_C 	C 	0.2513	0.3708	0.1904	-0.089
Mof_H 	H 	0.2351	0.3606	0.149	0.061
Mof_C 	C 	0.2907	0.3791	0.1828	-0.002
Mof_H 	H 	0.3058	0.3878	0.1395	0.042
Mof_O 	O 	0.3547	0.3719	0.1873	-0.502
Mof_O 	O 	0.0184	0.4334	0.8977	-0.516
Mof_O 	O 	0.0445	0.4888	0.8356	-0.493
Mof_C 	C 	0.0285	0.467	0.8877	0.388
Mof_C 	C 	0.0171	0.4818	0.9605	0.052
Mof_C 	C 	0.0276	0.5194	0.9518	-0.103
Mof_C 	C 	0.9798	0.462	0.9914	0.14
Mof_C 	C 	0.9978	0.481	0.9258	-0.141
Mof_C 	C 	0.0083	0.5186	0.917	0.144
Mof_C 	C 	0.9991	0.4628	0.0261	-0.125
Mof_Zn	Zn	0.39958	0.3728	0.33813	1.225
Mof_O 	O 	0.385	0.3339	0.4066	-0.476
Mof_O 	O 	0.4098	0.3005	0.3456	-0.519
Mof_C 	C 	0.3963	0.3086	0.4025	0.323
Mof_C 	C 	0.3903	0.2854	0.4788	-0.077
Mof_C 	C 	0.3689	0.2909	0.5351	0.053
Mof_C 	C 	0.3653	0.2705	0.6052	-0.097
Mof_H 	H 	0.3535	0.2737	0.6477	0.065
Mof_C 	C 	0.3799	0.2461	0.6076	0.025
Mof_C 	C 	0.4042	0.2455	0.5476	-0.077
Mof_H 	H 	0.4196	0.235	0.5569	0.058
Mof_C 	C 	0.4045	0.2609	0.474	0
Mof_H 	H 	0.413	0.2552	0.4294	0.043
Mof_C 	C 	0.3769	0.2262	0.6869	0.06
Mof_C 	C 	0.3777	0.1925	0.682	-0.121
Mof_H 	H 	0.379	0.1824	0.6354	0.071
Mof_C 	C 	0.3708	0.1195	0.6904	-0.089
Mof_H 	H 	0.3606	0.1255	0.649	0.062
Mof_C 	C 	0.3791	0.0884	0.6828	-0.002
Mof_H 	H 	0.3878	0.082	0.6395	0.042
Mof_O 	O 	0.3719	0.0172	0.6873	-0.502
Mof_O 	O 	0.4334	0.415	0.3977	-0.516
Mof_O 	O 	0.4888	0.4443	0.3356	-0.493
Mof_C 	C 	0.467	0.4385	0.3877	0.388
Mof_C 	C 	0.4818	0.4647	0.4605	0.053
Mof_C 	C 	0.5194	0.4918	0.4518	-0.103
Mof_C 	C 	0.462	0.4822	0.4914	0.14
Mof_C 	C 	0.481	0.4832	0.4258	-0.141
Mof_C 	C 	0.5186	0.5103	0.417	0.145
Mof_C 	C 	0.4628	0.4637	0.5261	-0.125
Mof_Zn	Zn	0.6272	0.02678	0.33813	1.225
Mof_O 	O 	0.6661	0.0511	0.4066	-0.476
Mof_O 	O 	0.6995	0.1093	0.3456	-0.519
Mof_C 	C 	0.6914	0.0877	0.4025	0.323
Mof_C 	C 	0.7146	0.1049	0.4788	-0.077
Mof_C 	C 	0.7091	0.078	0.5351	0.053
Mof_C 	C 	0.7295	0.0948	0.6052	-0.097
Mof_H 	H 	0.7263	0.0798	0.6477	0.065
Mof_C 	C 	0.7539	0.1338	0.6076	0.025
Mof_C 	C 	0.7545	0.1587	0.5476	-0.077
Mof_H 	H 	0.765	0.1846	0.5569	0.058
Mof_C 	C 	0.7391	0.1436	0.474	0
Mof_H 	H 	0.7448	0.1578	0.4294	0.043
Mof_C 	C 	0.7738	0.1507	0.6869	0.06
Mof_C 	C 	0.8075	0.1852	0.682	-0.121
Mof_H 	H 	0.8176	0.1966	0.6354	0.071
Mof_C 	C 	0.8805	0.2513	0.6904	-0.089
Mof_H 	H 	0.8745	0.2351	0.649	0.062
Mof_C 	C 	0.9116	0.2907	0.6828	-0.002
Mof_H 	H 	0.918	0.3058	0.6395	0.042
Mof_O 	O 	0.9828	0.3547	0.6873	-0.502
Mof_O 	O 	0.585	0.0184	0.3977	-0.516
Mof_O 	O 	0.5557	0.0445	0.3356	-0.493
Mof_C 	C 	0.5615	0.0285	0.3877	0.388
Mof_C 	C 	0.5353	0.0171	0.4605	0.053
Mof_C 	C 	0.5082	0.0276	0.4518	-0.103
Mof_C 	C 	0.5178	0.9798	0.4914	0.14
Mof_C 	C 	0.5168	0.9978	0.4258	-0.142
Mof_C 	C 	0.4897	0.0083	0.417	0.145
Mof_C 	C 	0.5363	0.9991	0.5261	-0.125
Mof_Zn	Zn	0.97322	0.60042	0.33813	1.225
Mof_O 	O 	0.9489	0.615	0.4066	-0.476
Mof_O 	O 	0.8907	0.5902	0.3456	-0.519
Mof_C 	C 	0.9123	0.6037	0.4025	0.323
Mof_C 	C 	0.8951	0.6097	0.4788	-0.077
Mof_C 	C 	0.922	0.6311	0.5351	0.053
Mof_C 	C 	0.9052	0.6347	0.6052	-0.097
Mof_H 	H 	0.9202	0.6465	0.6477	0.065
Mof_C 	C 	0.8662	0.6201	0.6076	0.025
Mof_C 	C 	0.8413	0.5958	0.5476	-0.077
Mof_H 	H 	0.8154	0.5804	0.5569	0.058
Mof_C 	C 	0.8564	0.5955	0.474	0
Mof_H 	H 	0.8422	0.587	0.4294	0.043
Mof_C 	C 	0.8493	0.6231	0.6869	0.06
Mof_C 	C 	0.8148	0.6223	0.682	-0.121
Mof_H 	H 	0.8034	0.621	0.6354	0.071
Mof_C 	C 	0.7487	0.6292	0.6904	-0.089
Mof_H 	H 	0.7649	0.6394	0.649	0.062
Mof_C 	C 	0.7093	0.6209	0.6828	-0.002
Mof_H 	H 	0.6942	0.6122	0.6395	0.042
Mof_O 	O 	0.6453	0.6281	0.6873	-0.502
Mof_O 	O 	0.9816	0.5666	0.3977	-0.516
Mof_O 	O 	0.9555	0.5112	0.3356	-0.493
Mof_C 	C 	0.9715	0.533	0.3877	0.388
Mof_C 	C 	0.9829	0.5182	0.4605	0.053
Mof_C 	C 	0.9724	0.4806	0.4518	-0.103
Mof_C 	C 	0.0202	0.538	0.4914	0.14
Mof_C 	C 	0.0022	0.519	0.4258	-0.142
Mof_C 	C 	0.9917	0.4814	0.417	0.145
Mof_C 	C 	0.0009	0.5372	0.5261	-0.125
Mof_Zn	Zn	0.42228	0.31999	0.25	1.224
Mof_Zn	Zn	0.47598	0.40932	0.25	1.211
Mof_O 	O 	0.4232	0.3687	0.25	-0.958
Mof_O 	O 	0.5122	0.3933	0.25	-0.495
Mof_O 	O 	0.4764	0.336	0.25	-0.549
Mof_C 	C 	0.5082	0.3589	0.25	0.487
Mof_C 	C 	0.5425	0.3569	0.25	-0.218
Mof_C 	C 	0.5794	0.3865	0.25	0.121
Mof_H 	H 	0.5843	0.4115	0.25	0.003
Mof_C 	C 	0.609	0.3793	0.25	-0.173
Mof_H 	H 	0.6339	0.3993	0.25	0.092
Mof_C 	C 	0.6017	0.3424	0.25	0.109
Mof_C 	C 	0.5649	0.3128	0.25	-0.167
Mof_H 	H 	0.56	0.2879	0.25	0.089
Mof_C 	C 	0.5353	0.3201	0.25	0.107
Mof_H 	H 	0.5103	0.3	0.25	0.002
Mof_C 	C 	0.6364	0.3358	0.25	-0.043
Mof_C 	C 	0.6699	0.3689	0.25	0.008
Mof_Zn	Zn	0.68001	0.10229	0.25	1.224
Mof_Zn	Zn	0.59068	0.06666	0.25	1.211
Mof_O 	O 	0.6313	0.0545	0.25	-0.958
Mof_O 	O 	0.6067	0.1189	0.25	-0.495
Mof_O 	O 	0.664	0.1404	0.25	-0.549
Mof_C 	C 	0.6411	0.1493	0.25	0.487
Mof_C 	C 	0.6431	0.1856	0.25	-0.218
Mof_C 	C 	0.6135	0.1929	0.25	0.121
Mof_H 	H 	0.5885	0.1728	0.25	0.003
Mof_C 	C 	0.6207	0.2297	0.25	-0.173
Mof_H 	H 	0.6007	0.2346	0.25	0.092
Mof_C 	C 	0.6576	0.2593	0.25	0.109
Mof_C 	C 	0.6872	0.2521	0.25	-0.167
Mof_H 	H 	0.7121	0.2721	0.25	0.089
Mof_C 	C 	0.6799	0.2152	0.25	0.107
Mof_H 	H 	0.7	0.2103	0.25	0.002
Mof_C 	C 	0.6642	0.3006	0.25	-0.043
Mof_C 	C 	0.6311	0.301	0.25	0.008
Mof_Zn	Zn	0.89771	0.57772	0.25	1.224
Mof_Zn	Zn	0.93334	0.52402	0.25	1.211
Mof_O 	O 	0.9455	0.5768	0.25	-0.958
Mof_O 	O 	0.8811	0.4878	0.25	-0.495
Mof_O 	O 	0.8596	0.5236	0.25	-0.549
Mof_C 	C 	0.8507	0.4918	0.25	0.487
Mof_C 	C 	0.8144	0.4575	0.25	-0.218
Mof_C 	C 	0.8071	0.4206	0.25	0.121
Mof_H 	H 	0.8272	0.4157	0.25	0.003
Mof_C 	C 	0.7703	0.391	0.25	-0.173
Mof_H 	H 	0.7654	0.3661	0.25	0.092
Mof_C 	C 	0.7407	0.3983	0.25	0.109
Mof_C 	C 	0.7479	0.4351	0.25	-0.167
Mof_H 	H 	0.7279	0.44	0.25	0.089
Mof_C 	C 	0.7848	0.4647	0.25	0.107
Mof_H 	H 	0.7897	0.4897	0.25	0.002
Mof_C 	C 	0.6994	0.3636	0.25	-0.043
Mof_C 	C 	0.699	0.3301	0.25	0.008
Mof_Zn	Zn	0.57772	0.68001	0.75	1.224
Mof_Zn	Zn	0.52402	0.59068	0.75	1.211
Mof_O 	O 	0.5768	0.6313	0.75	-0.958
Mof_O 	O 	0.4878	0.6067	0.75	-0.495
Mof_O 	O 	0.5236	0.664	0.75	-0.549
Mof_C 	C 	0.4918	0.6411	0.75	0.487
Mof_C 	C 	0.4575	0.6431	0.75	-0.218
Mof_C 	C 	0.4206	0.6135	0.75	0.121
Mof_H 	H 	0.4157	0.5885	0.75	0.003
Mof_C 	C 	0.391	0.6207	0.75	-0.173
Mof_H 	H 	0.3661	0.6007	0.75	0.092
Mof_C 	C 	0.3983	0.6576	0.75	0.109
Mof_C 	C 	0.4351	0.6872	0.75	-0.167
Mof_H 	H 	0.44	0.7121	0.75	0.089
Mof_C 	C 	0.4647	0.6799	0.75	0.107
Mof_H 	H 	0.4897	0.7	0.75	0.002
Mof_C 	C 	0.3636	0.6642	0.75	-0.043
Mof_C 	C 	0.3301	0.6311	0.75	0.008
Mof_Zn	Zn	0.31999	0.89771	0.75	1.224
Mof_Zn	Zn	0.40932	0.93334	0.75	1.211
Mof_O 	O 	0.3687	0.9455	0.75	-0.958
Mof_O 	O 	0.3933	0.8811	0.75	-0.495
Mof_O 	O 	0.336	0.8596	0.75	-0.549
Mof_C 	C 	0.3589	0.8507	0.75	0.487
Mof_C 	C 	0.3569	0.8144	0.75	-0.218
Mof_C 	C 	0.3865	0.8071	0.75	0.121
Mof_H 	H 	0.4115	0.8272	0.75	0.003
Mof_C 	C 	0.3793	0.7703	0.75	-0.173
Mof_H 	H 	0.3993	0.7654	0.75	0.092
Mof_C 	C 	0.3424	0.7407	0.75	0.109
Mof_C 	C 	0.3128	0.7479	0.75	-0.167
Mof_H 	H 	0.2879	0.7279	0.75	0.089
Mof_C 	C 	0.3201	0.7848	0.75	0.107
Mof_H 	H 	0.3	0.7897	0.75	0.002
Mof_C 	C 	0.3358	0.6994	0.75	-0.043
Mof_C 	C 	0.3689	0.699	0.75	0.008
Mof_Zn	Zn	0.10229	0.42228	0.75	1.224
Mof_Zn	Zn	0.06666	0.47598	0.75	1.211
Mof_O 	O 	0.0545	0.4232	0.75	-0.958
Mof_O 	O 	0.1189	0.5122	0.75	-0.495
Mof_O 	O 	0.1404	0.4764	0.75	-0.549
Mof_C 	C 	0.1493	0.5082	0.75	0.487
Mof_C 	C 	0.1856	0.5425	0.75	-0.218
Mof_C 	C 	0.1929	0.5794	0.75	0.121
Mof_H 	H 	0.1728	0.5843	0.75	0.003
Mof_C 	C 	0.2297	0.609	0.75	-0.173
Mof_H 	H 	0.2346	0.6339	0.75	0.092
Mof_C 	C 	0.2593	0.6017	0.75	0.109
Mof_C 	C 	0.2521	0.5649	0.75	-0.167
Mof_H 	H 	0.2721	0.56	0.75	0.089
Mof_C 	C 	0.2152	0.5353	0.75	0.107
Mof_H 	H 	0.2103	0.5103	0.75	0.002
Mof_C 	C 	0.3006	0.6364	0.75	-0.043
Mof_C 	C 	0.301	0.6699	0.75	0.008
Mof_C 	C 	0.3758	0.2453	0.75	-0.129
Mof_H 	H 	0.3746	0.2676	0.75	0.074
Mof_C 	C 	0.3764	0.1747	0.75	0.048
Mof_C 	C 	0.377	0.1379	0.75	0.044
Mof_C 	C 	0.3715	0.0712	0.75	-0.062
Mof_C 	C 	0.3768	0.0342	0.75	0.351
Mof_C 	C 	0.7547	0.1305	0.75	-0.129
Mof_H 	H 	0.7324	0.107	0.75	0.074
Mof_C 	C 	0.8253	0.2017	0.75	0.048
Mof_C 	C 	0.8621	0.2391	0.75	0.044
Mof_C 	C 	0.9288	0.3003	0.75	-0.062
Mof_C 	C 	0.9658	0.3426	0.75	0.351
Mof_C 	C 	0.8695	0.6242	0.75	-0.129
Mof_H 	H 	0.893	0.6254	0.75	0.074
Mof_C 	C 	0.7983	0.6236	0.75	0.048
Mof_C 	C 	0.7609	0.623	0.75	0.044
Mof_C 	C 	0.6997	0.6285	0.75	-0.062
Mof_C 	C 	0.6574	0.6232	0.75	0.351
Mof_C 	C 	0.6242	0.7547	0.25	-0.129
Mof_H 	H 	0.6254	0.7324	0.25	0.074
Mof_C 	C 	0.6236	0.8253	0.25	0.048
Mof_C 	C 	0.623	0.8621	0.25	0.044
Mof_C 	C 	0.6285	0.9288	0.25	-0.062
Mof_C 	C 	0.6232	0.9658	0.25	0.351
Mof_C 	C 	0.2453	0.8695	0.25	-0.129
Mof_H 	H 	0.2676	0.893	0.25	0.074
Mof_C 	C 	0.1747	0.7983	0.25	0.048
Mof_C 	C 	0.1379	0.7609	0.25	0.044
Mof_C 	C 	0.0712	0.6997	0.25	-0.062
Mof_C 	C 	0.0342	0.6574	0.25	0.351
Mof_C 	C 	0.1305	0.3758	0.25	-0.129
Mof_H 	H 	0.107	0.3746	0.25	0.074
Mof_C 	C 	0.2017	0.3764	0.25	0.048
Mof_C 	C 	0.2391	0.377	0.25	0.044
Mof_C 	C 	0.3003	0.3715	0.25	-0.062
Mof_C 	C 	0.3426	0.3768	0.25	0.351
_end
