# CIF file generated by openbabel 3.1.0, see https://openbabel.org
data_I
_chemical_name_common 'image0'
_cell_length_a 24.3226
_cell_length_b 18.4617
_cell_length_c 8.8768
_cell_angle_alpha 90
_cell_angle_beta 108.493
_cell_angle_gamma 90
_space_group_name_H-M_alt 'P 1'
_space_group_name_Hall 'P 1'
loop_
    _symmetry_equiv_pos_as_xyz
    x,y,z
loop_
    _atom_site_label
    _atom_site_type_symbol
    _atom_site_fract_x
    _atom_site_fract_y
    _atom_site_fract_z
    _atom_site_occupancy
    O1       O        0.46390    0.78350    0.92910    1.000
    N1       N        0.43940    0.70220    0.62440    1.000
    N2       N        0.56260    0.86070    0.87470    1.000
    C1       C        0.41370    0.65600    0.69500    1.000
    C2       C        0.42020    0.70510    0.46490    1.000
    Cr1      Cr       0.55656    0.79404    0.41660    1.000
    C3       C        0.36770    0.61290    0.61230    1.000
    H1       H        0.42751    0.65245    0.80759    1.000
    H2       H        0.43828    0.73776    0.41242    1.000
    C4       C        0.37540    0.66250    0.37450    1.000
    H3       H        0.35040    0.58050    0.66718    1.000
    C5       C        0.34670    0.61750    0.44500    1.000
    H4       H        0.36440    0.66460    0.26190    1.000
    C6       C        0.29590    0.57420    0.35000    1.000
    C7       C        0.29510    0.49940    0.37760    1.000
    C8       C        0.24930    0.60600    0.23580    1.000
    H5       H        0.32675    0.47825    0.45781    1.000
    C9       C        0.24970    0.45490    0.29160    1.000
    C10      C        0.20360    0.56150    0.15000    1.000
    C11      C        0.24350    0.68800    0.20670    1.000
    C12      C        0.20360    0.48750    0.17420    1.000
    C13      C        0.25170    0.37580    0.32370    1.000
    H6       H        0.17135    0.58278    0.07226    1.000
    H7       H        0.25325    0.71340    0.30879    1.000
    H8       H        0.20353    0.69959    0.14317    1.000
    H9       H        0.26996    0.70347    0.14955    1.000
    C14      C        0.15470    0.44400    0.07440    1.000
    H10      H        0.21504    0.36044    0.33743    1.000
    H11      H        0.28371    0.36527    0.42075    1.000
    H12      H        0.25772    0.34966    0.23418    1.000
    C15      C        0.09710    0.45580    0.07200    1.000
    C16      C        0.16380    0.39190    0.97340    1.000
    C17      C        0.05270    0.41250    0.96950    1.000
    H13      H        0.08828    0.49184    0.13731    1.000
    C18      C        0.11890    0.35300    0.87660    1.000
    H14      H        0.20205    0.38306    0.97133    1.000
    H15      H        0.01395    0.42049    0.96762    1.000
    H16      H        0.12700    0.31871    0.80662    1.000
    O2       O        0.96390    0.28350    0.92910    1.000
    N3       N        0.93940    0.20220    0.62440    1.000
    N4       N        0.06260    0.36070    0.87470    1.000
    C19      C        0.91370    0.15600    0.69500    1.000
    C20      C        0.92020    0.20510    0.46490    1.000
    Cr2      Cr       0.05656    0.29404    0.41660    1.000
    C21      C        0.86770    0.11290    0.61230    1.000
    H17      H        0.92751    0.15245    0.80759    1.000
    H18      H        0.93828    0.23776    0.41242    1.000
    C22      C        0.87540    0.16250    0.37450    1.000
    H19      H        0.85040    0.08050    0.66718    1.000
    C23      C        0.84670    0.11750    0.44500    1.000
    H20      H        0.86440    0.16460    0.26190    1.000
    C24      C        0.79590    0.07420    0.35000    1.000
    C25      C        0.79510    0.99940    0.37760    1.000
    C26      C        0.74930    0.10600    0.23580    1.000
    H21      H        0.82675    0.97825    0.45781    1.000
    C27      C        0.74970    0.95490    0.29160    1.000
    C28      C        0.70360    0.06150    0.15000    1.000
    C29      C        0.74350    0.18800    0.20670    1.000
    C30      C        0.70360    0.98750    0.17420    1.000
    C31      C        0.75170    0.87580    0.32370    1.000
    H22      H        0.67135    0.08278    0.07226    1.000
    H23      H        0.75325    0.21340    0.30879    1.000
    H24      H        0.70353    0.19959    0.14317    1.000
    H25      H        0.76996    0.20347    0.14955    1.000
    C32      C        0.65470    0.94400    0.07440    1.000
    H26      H        0.71504    0.86044    0.33743    1.000
    H27      H        0.78371    0.86527    0.42075    1.000
    H28      H        0.75772    0.84966    0.23418    1.000
    C33      C        0.59710    0.95580    0.07200    1.000
    C34      C        0.66380    0.89190    0.97340    1.000
    C35      C        0.55270    0.91250    0.96950    1.000
    H29      H        0.58828    0.99184    0.13731    1.000
    C36      C        0.61890    0.85300    0.87660    1.000
    H30      H        0.70205    0.88306    0.97133    1.000
    H31      H        0.51395    0.92049    0.96762    1.000
    H32      H        0.62700    0.81871    0.80662    1.000
    O3       O        0.53610    0.78350    0.57090    1.000
    N5       N        0.56060    0.70220    0.87560    1.000
    N6       N        0.43740    0.86070    0.62530    1.000
    C37      C        0.58630    0.65600    0.80500    1.000
    C38      C        0.57980    0.70510    0.03510    1.000
    Cr3      Cr       0.44344    0.79404    0.08340    1.000
    C39      C        0.63230    0.61290    0.88770    1.000
    H33      H        0.57249    0.65245    0.69241    1.000
    H34      H        0.56172    0.73776    0.08758    1.000
    C40      C        0.62460    0.66250    0.12550    1.000
    H35      H        0.64960    0.58050    0.83282    1.000
    C41      C        0.65330    0.61750    0.05500    1.000
    H36      H        0.63560    0.66460    0.23810    1.000
    C42      C        0.70410    0.57420    0.15000    1.000
    C43      C        0.70490    0.49940    0.12240    1.000
    C44      C        0.75070    0.60600    0.26420    1.000
    H37      H        0.67325    0.47825    0.04219    1.000
    C45      C        0.75030    0.45490    0.20840    1.000
    C46      C        0.79640    0.56150    0.35000    1.000
    C47      C        0.75650    0.68800    0.29330    1.000
    C48      C        0.79640    0.48750    0.32580    1.000
    C49      C        0.74830    0.37580    0.17630    1.000
    H38      H        0.82865    0.58278    0.42774    1.000
    H39      H        0.74675    0.71340    0.19121    1.000
    H40      H        0.79647    0.69959    0.35683    1.000
    H41      H        0.73004    0.70347    0.35045    1.000
    C50      C        0.84530    0.44400    0.42560    1.000
    H42      H        0.78496    0.36044    0.16257    1.000
    H43      H        0.71629    0.36527    0.07925    1.000
    H44      H        0.74228    0.34966    0.26582    1.000
    C51      C        0.90290    0.45580    0.42800    1.000
    C52      C        0.83620    0.39190    0.52660    1.000
    C53      C        0.94730    0.41250    0.53050    1.000
    H45      H        0.91172    0.49184    0.36269    1.000
    C54      C        0.88110    0.35300    0.62340    1.000
    H46      H        0.79795    0.38306    0.52867    1.000
    H47      H        0.98605    0.42049    0.53238    1.000
    H48      H        0.87300    0.31871    0.69338    1.000
    O4       O        0.03610    0.28350    0.57090    1.000
    N7       N        0.06060    0.20220    0.87560    1.000
    N8       N        0.93740    0.36070    0.62530    1.000
    C55      C        0.08630    0.15600    0.80500    1.000
    C56      C        0.07980    0.20510    0.03510    1.000
    Cr4      Cr       0.94344    0.29404    0.08340    1.000
    C57      C        0.13230    0.11290    0.88770    1.000
    H49      H        0.07249    0.15245    0.69241    1.000
    H50      H        0.06172    0.23776    0.08758    1.000
    C58      C        0.12460    0.16250    0.12550    1.000
    H51      H        0.14960    0.08050    0.83282    1.000
    C59      C        0.15330    0.11750    0.05500    1.000
    H52      H        0.13560    0.16460    0.23810    1.000
    C60      C        0.20410    0.07420    0.15000    1.000
    C61      C        0.20490    0.99940    0.12240    1.000
    C62      C        0.25070    0.10600    0.26420    1.000
    H53      H        0.17325    0.97825    0.04219    1.000
    C63      C        0.25030    0.95490    0.20840    1.000
    C64      C        0.29640    0.06150    0.35000    1.000
    C65      C        0.25650    0.18800    0.29330    1.000
    C66      C        0.29640    0.98750    0.32580    1.000
    C67      C        0.24830    0.87580    0.17630    1.000
    H54      H        0.32865    0.08278    0.42774    1.000
    H55      H        0.24675    0.21340    0.19121    1.000
    H56      H        0.29647    0.19959    0.35683    1.000
    H57      H        0.23004    0.20347    0.35045    1.000
    C68      C        0.34530    0.94400    0.42560    1.000
    H58      H        0.28496    0.86044    0.16257    1.000
    H59      H        0.21629    0.86527    0.07925    1.000
    H60      H        0.24228    0.84966    0.26582    1.000
    C69      C        0.40290    0.95580    0.42800    1.000
    C70      C        0.33620    0.89190    0.52660    1.000
    C71      C        0.44730    0.91250    0.53050    1.000
    H61      H        0.41172    0.99184    0.36269    1.000
    C72      C        0.38110    0.85300    0.62340    1.000
    H62      H        0.29795    0.88306    0.52867    1.000
    H63      H        0.48605    0.92049    0.53238    1.000
    H64      H        0.37300    0.81871    0.69338    1.000
    Co1      Co       0.50000    0.78312    0.75000    1.000
    Co2      Co       0.00000    0.28312    0.75000    1.000
    O5       O        0.50000    0.76250    0.25000    1.000
    O6       O        0.00000    0.26250    0.25000    1.000
    O7       O        0.53610    0.21650    0.07090    1.000
    N9       N        0.56060    0.29780    0.37560    1.000
    N10      N        0.43740    0.13930    0.12530    1.000
    C73      C        0.58630    0.34400    0.30500    1.000
    C74      C        0.57980    0.29490    0.53510    1.000
    Cr5      Cr       0.44344    0.20596    0.58340    1.000
    C75      C        0.63230    0.38710    0.38770    1.000
    H65      H        0.57249    0.34755    0.19241    1.000
    H66      H        0.56172    0.26224    0.58758    1.000
    C76      C        0.62460    0.33750    0.62550    1.000
    H67      H        0.64960    0.41950    0.33282    1.000
    C77      C        0.65330    0.38250    0.55500    1.000
    H68      H        0.63560    0.33540    0.73810    1.000
    C78      C        0.70410    0.42580    0.65000    1.000
    C79      C        0.70490    0.50060    0.62240    1.000
    C80      C        0.75070    0.39400    0.76420    1.000
    H69      H        0.67325    0.52175    0.54219    1.000
    C81      C        0.75030    0.54510    0.70840    1.000
    C82      C        0.79640    0.43850    0.85000    1.000
    C83      C        0.75650    0.31200    0.79330    1.000
    C84      C        0.79640    0.51250    0.82580    1.000
    C85      C        0.74830    0.62420    0.67630    1.000
    H70      H        0.82865    0.41722    0.92774    1.000
    H71      H        0.74675    0.28660    0.69121    1.000
    H72      H        0.79647    0.30041    0.85683    1.000
    H73      H        0.73004    0.29653    0.85045    1.000
    C86      C        0.84530    0.55600    0.92560    1.000
    H74      H        0.78496    0.63956    0.66257    1.000
    H75      H        0.71629    0.63473    0.57925    1.000
    H76      H        0.74228    0.65034    0.76582    1.000
    C87      C        0.90290    0.54420    0.92800    1.000
    C88      C        0.83620    0.60810    0.02660    1.000
    C89      C        0.94730    0.58750    0.03050    1.000
    H77      H        0.91172    0.50816    0.86269    1.000
    C90      C        0.88110    0.64700    0.12340    1.000
    H78      H        0.79795    0.61694    0.02867    1.000
    H79      H        0.98605    0.57951    0.03238    1.000
    H80      H        0.87300    0.68129    0.19338    1.000
    O8       O        0.03610    0.71650    0.07090    1.000
    N11      N        0.06060    0.79780    0.37560    1.000
    N12      N        0.93740    0.63930    0.12530    1.000
    C91      C        0.08630    0.84400    0.30500    1.000
    C92      C        0.07980    0.79490    0.53510    1.000
    Cr6      Cr       0.94344    0.70596    0.58340    1.000
    C93      C        0.13230    0.88710    0.38770    1.000
    H81      H        0.07249    0.84755    0.19241    1.000
    H82      H        0.06172    0.76224    0.58758    1.000
    C94      C        0.12460    0.83750    0.62550    1.000
    H83      H        0.14960    0.91950    0.33282    1.000
    C95      C        0.15330    0.88250    0.55500    1.000
    H84      H        0.13560    0.83540    0.73810    1.000
    C96      C        0.20410    0.92580    0.65000    1.000
    C97      C        0.20490    0.00060    0.62240    1.000
    C98      C        0.25070    0.89400    0.76420    1.000
    H85      H        0.17325    0.02175    0.54219    1.000
    C99      C        0.25030    0.04510    0.70840    1.000
    C100     C        0.29640    0.93850    0.85000    1.000
    C101     C        0.25650    0.81200    0.79330    1.000
    C102     C        0.29640    0.01250    0.82580    1.000
    C103     C        0.24830    0.12420    0.67630    1.000
    H86      H        0.32865    0.91722    0.92774    1.000
    H87      H        0.24675    0.78660    0.69121    1.000
    H88      H        0.29647    0.80041    0.85683    1.000
    H89      H        0.23004    0.79653    0.85045    1.000
    C104     C        0.34530    0.05600    0.92560    1.000
    H90      H        0.28496    0.13956    0.66257    1.000
    H91      H        0.21629    0.13473    0.57925    1.000
    H92      H        0.24228    0.15034    0.76582    1.000
    C105     C        0.40290    0.04420    0.92800    1.000
    C106     C        0.33620    0.10810    0.02660    1.000
    C107     C        0.44730    0.08750    0.03050    1.000
    H93      H        0.41172    0.00816    0.86269    1.000
    C108     C        0.38110    0.14700    0.12340    1.000
    H94      H        0.29795    0.11694    0.02867    1.000
    H95      H        0.48605    0.07951    0.03238    1.000
    H96      H        0.37300    0.18129    0.19338    1.000
    O9       O        0.46390    0.21650    0.42910    1.000
    N13      N        0.43940    0.29780    0.12440    1.000
    N14      N        0.56260    0.13930    0.37470    1.000
    C109     C        0.41370    0.34400    0.19500    1.000
    C110     C        0.42020    0.29490    0.96490    1.000
    Cr7      Cr       0.55656    0.20596    0.91660    1.000
    C111     C        0.36770    0.38710    0.11230    1.000
    H97      H        0.42751    0.34755    0.30759    1.000
    H98      H        0.43828    0.26224    0.91242    1.000
    C112     C        0.37540    0.33750    0.87450    1.000
    H99      H        0.35040    0.41950    0.16718    1.000
    C113     C        0.34670    0.38250    0.94500    1.000
    H100     H        0.36440    0.33540    0.76190    1.000
    C114     C        0.29590    0.42580    0.85000    1.000
    C115     C        0.29510    0.50060    0.87760    1.000
    C116     C        0.24930    0.39400    0.73580    1.000
    H101     H        0.32675    0.52175    0.95781    1.000
    C117     C        0.24970    0.54510    0.79160    1.000
    C118     C        0.20360    0.43850    0.65000    1.000
    C119     C        0.24350    0.31200    0.70670    1.000
    C120     C        0.20360    0.51250    0.67420    1.000
    C121     C        0.25170    0.62420    0.82370    1.000
    H102     H        0.17135    0.41722    0.57226    1.000
    H103     H        0.25325    0.28660    0.80879    1.000
    H104     H        0.20353    0.30041    0.64317    1.000
    H105     H        0.26996    0.29653    0.64955    1.000
    C122     C        0.15470    0.55600    0.57440    1.000
    H106     H        0.21504    0.63956    0.83743    1.000
    H107     H        0.28371    0.63473    0.92075    1.000
    H108     H        0.25772    0.65034    0.73418    1.000
    C123     C        0.09710    0.54420    0.57200    1.000
    C124     C        0.16380    0.60810    0.47340    1.000
    C125     C        0.05270    0.58750    0.46950    1.000
    H109     H        0.08828    0.50816    0.63731    1.000
    C126     C        0.11890    0.64700    0.37660    1.000
    H110     H        0.20205    0.61694    0.47133    1.000
    H111     H        0.01395    0.57951    0.46762    1.000
    H112     H        0.12700    0.68129    0.30662    1.000
    O10      O        0.96390    0.71650    0.42910    1.000
    N15      N        0.93940    0.79780    0.12440    1.000
    N16      N        0.06260    0.63930    0.37470    1.000
    C127     C        0.91370    0.84400    0.19500    1.000
    C128     C        0.92020    0.79490    0.96490    1.000
    Cr8      Cr       0.05656    0.70596    0.91660    1.000
    C129     C        0.86770    0.88710    0.11230    1.000
    H113     H        0.92751    0.84755    0.30759    1.000
    H114     H        0.93828    0.76224    0.91242    1.000
    C130     C        0.87540    0.83750    0.87450    1.000
    H115     H        0.85040    0.91950    0.16718    1.000
    C131     C        0.84670    0.88250    0.94500    1.000
    H116     H        0.86440    0.83540    0.76190    1.000
    C132     C        0.79590    0.92580    0.85000    1.000
    C133     C        0.79510    0.00060    0.87760    1.000
    C134     C        0.74930    0.89400    0.73580    1.000
    H117     H        0.82675    0.02175    0.95781    1.000
    C135     C        0.74970    0.04510    0.79160    1.000
    C136     C        0.70360    0.93850    0.65000    1.000
    C137     C        0.74350    0.81200    0.70670    1.000
    C138     C        0.70360    0.01250    0.67420    1.000
    C139     C        0.75170    0.12420    0.82370    1.000
    H118     H        0.67135    0.91722    0.57226    1.000
    H119     H        0.75325    0.78660    0.80879    1.000
    H120     H        0.70353    0.80041    0.64317    1.000
    H121     H        0.76996    0.79653    0.64955    1.000
    C140     C        0.65470    0.05600    0.57440    1.000
    H122     H        0.71504    0.13956    0.83743    1.000
    H123     H        0.78371    0.13473    0.92075    1.000
    H124     H        0.75772    0.15034    0.73418    1.000
    C141     C        0.59710    0.04420    0.57200    1.000
    C142     C        0.66380    0.10810    0.47340    1.000
    C143     C        0.55270    0.08750    0.46950    1.000
    H125     H        0.58828    0.00816    0.63731    1.000
    C144     C        0.61890    0.14700    0.37660    1.000
    H126     H        0.70205    0.11694    0.47133    1.000
    H127     H        0.51395    0.07951    0.46762    1.000
    H128     H        0.62700    0.18129    0.30662    1.000
    Co3      Co       0.50000    0.21688    0.25000    1.000
    Co4      Co       0.00000    0.71688    0.25000    1.000
    O11      O        0.50000    0.23750    0.75000    1.000
    O12      O        0.00000    0.73750    0.75000    1.000
