data_functionalizedCrystal
_audit_creation_method	'EQeq! by Chris Wilmer'
_symmetry_space_group_name_H-M	'P1'
_symmetry_Int_Tables_number	1
_symmetry_cell_setting	triclinic
loop_
_symmetry_equiv_pos_as_xyz
  x,y,z
_cell_length_a	13.5204
_cell_length_b	10.7639
_cell_length_c	14.6348
_cell_angle_alpha	90
_cell_angle_beta	110.532
_cell_angle_gamma	90
loop_
_atom_site_label
_atom_site_type_symbol
_atom_site_fract_x
_atom_site_fract_y
_atom_site_fract_z
_atom_site_charge
Mof_Ni	Ni	0.4106	0.90524	0.46182	1.101
Mof_Ni	Ni	0.50346	0.01181	0.29197	1.117
Mof_O 	O 	0.30576	0.0326	0.3752	-0.404
Mof_O 	O 	0.39079	0.1364	0.2915	-0.411
Mof_O 	O 	0.38686	0.4056	0.23922	-0.38
Mof_O 	O 	0.3137	0.285	0.10846	-0.252
Mof_O 	O 	0.61929	0.1468	0.33959	-0.411
Mof_O 	O 	0.71288	0.1513	0.50044	-0.399
Mof_O 	O 	0.63474	0.2786	0.15272	-0.393
Mof_O 	O 	0.62787	0.397	0.27729	-0.38
Mof_O 	O 	0.53693	0.96086	0.43051	-0.563
Mof_C 	C 	0.3137	0.1184	0.3202	0.347
Mof_C 	C 	0.2256	0.2103	0.2862	-0.036
Mof_C 	C 	0.1407	0.1963	0.3186	-0.048
Mof_H 	H 	0.1412	0.1307	0.3601	0.068
Mof_C 	C 	0.0553	0.2775	0.2907	0.024
Mof_C 	C 	0.0578	0.376	0.2294	-0.072
Mof_H 	H 	0.0023	0.4326	0.2103	0.063
Mof_C 	C 	0.1415	0.3905	0.1968	0
Mof_H 	H 	0.141	0.4565	0.1556	0.04
Mof_C 	C 	0.2263	0.3086	0.2243	-0.044
Mof_C 	C 	0.317	0.3328	0.1876	0.335
Mof_C 	C 	0.9654	0.259	0.3262	0.041
Mof_C 	C 	0.9818	0.203	0.4168	-0.098
Mof_H 	H 	0.0499	0.1825	0.4571	0.075
Mof_C 	C 	0.8975	0.1779	0.447	0.023
Mof_H 	H 	0.9096	0.14	0.507	0.036
Mof_C 	C 	0.7956	0.2086	0.3887	-0.074
Mof_C 	C 	0.7786	0.2712	0.3006	-0.013
Mof_C 	C 	0.863	0.2943	0.2696	-0.069
Mof_H 	H 	0.851	0.334	0.2102	0.073
Mof_C 	C 	0.7016	0.1651	0.4118	0.362
Mof_C 	C 	0.6707	0.3176	0.2389	0.34
Mof_Ni	Ni	0.5894	0.40524	0.03818	1.099
Mof_Ni	Ni	0.49654	0.51181	0.20803	1.116
Mof_O 	O 	0.69424	0.5326	0.1248	-0.404
Mof_O 	O 	0.60921	0.6364	0.2085	-0.411
Mof_O 	O 	0.61314	0.9056	0.26078	-0.379
Mof_O 	O 	0.6863	0.785	0.39154	-0.252
Mof_O 	O 	0.38071	0.6468	0.16041	-0.411
Mof_O 	O 	0.28712	0.6513	0.99956	-0.4
Mof_O 	O 	0.36526	0.7786	0.34728	-0.392
Mof_O 	O 	0.37213	0.897	0.22271	-0.379
Mof_O 	O 	0.46307	0.46086	0.06949	-0.564
Mof_C 	C 	0.6863	0.6184	0.1798	0.347
Mof_C 	C 	0.7744	0.7103	0.2138	-0.037
Mof_C 	C 	0.8593	0.6963	0.1814	-0.047
Mof_H 	H 	0.8588	0.6307	0.1399	0.068
Mof_C 	C 	0.9447	0.7775	0.2093	0.023
Mof_C 	C 	0.9422	0.876	0.2706	-0.071
Mof_H 	H 	0.9977	0.9326	0.2897	0.063
Mof_C 	C 	0.8585	0.8905	0.3032	-0
Mof_H 	H 	0.859	0.9565	0.3444	0.041
Mof_C 	C 	0.7737	0.8086	0.2757	-0.043
Mof_C 	C 	0.683	0.8328	0.3124	0.335
Mof_C 	C 	0.0346	0.759	0.1738	0.043
Mof_C 	C 	0.0182	0.703	0.0832	-0.099
Mof_H 	H 	0.9501	0.6825	0.0429	0.075
Mof_C 	C 	0.1025	0.6779	0.053	0.026
Mof_H 	H 	0.0904	0.64	0.993	0.034
Mof_C 	C 	0.2044	0.7086	0.1113	-0.075
Mof_C 	C 	0.2214	0.7712	0.1994	-0.011
Mof_C 	C 	0.137	0.7943	0.2304	-0.069
Mof_H 	H 	0.149	0.834	0.2898	0.074
Mof_C 	C 	0.2984	0.6651	0.0882	0.364
Mof_C 	C 	0.3293	0.8176	0.2611	0.339
Mof_Ni	Ni	0.5894	0.09476	0.53818	1.1
Mof_Ni	Ni	0.49654	0.98819	0.70803	1.116
Mof_O 	O 	0.69424	0.9674	0.6248	-0.404
Mof_O 	O 	0.60921	0.8636	0.7085	-0.411
Mof_O 	O 	0.61314	0.5944	0.76078	-0.38
Mof_O 	O 	0.6863	0.715	0.89154	-0.252
Mof_O 	O 	0.38071	0.8532	0.66041	-0.411
Mof_O 	O 	0.28712	0.8487	0.49956	-0.399
Mof_O 	O 	0.36526	0.7214	0.84728	-0.393
Mof_O 	O 	0.37213	0.603	0.72271	-0.38
Mof_O 	O 	0.46307	0.03914	0.56949	-0.563
Mof_C 	C 	0.6863	0.8816	0.6798	0.347
Mof_C 	C 	0.7744	0.7897	0.7138	-0.036
Mof_C 	C 	0.8593	0.8037	0.6814	-0.048
Mof_H 	H 	0.8588	0.8693	0.6399	0.068
Mof_C 	C 	0.9447	0.7225	0.7093	0.024
Mof_C 	C 	0.9422	0.624	0.7706	-0.072
Mof_H 	H 	0.9977	0.5674	0.7897	0.063
Mof_C 	C 	0.8585	0.6095	0.8032	0
Mof_H 	H 	0.859	0.5435	0.8444	0.04
Mof_C 	C 	0.7737	0.6914	0.7757	-0.044
Mof_C 	C 	0.683	0.6672	0.8124	0.335
Mof_C 	C 	0.0346	0.741	0.6738	0.041
Mof_C 	C 	0.0182	0.797	0.5832	-0.098
Mof_H 	H 	0.9501	0.8175	0.5429	0.075
Mof_C 	C 	0.1025	0.8221	0.553	0.023
Mof_H 	H 	0.0904	0.86	0.493	0.036
Mof_C 	C 	0.2044	0.7914	0.6113	-0.074
Mof_C 	C 	0.2214	0.7288	0.6994	-0.013
Mof_C 	C 	0.137	0.7057	0.7304	-0.069
Mof_H 	H 	0.149	0.666	0.7898	0.073
Mof_C 	C 	0.2984	0.8349	0.5882	0.362
Mof_C 	C 	0.3293	0.6824	0.7611	0.34
Mof_Ni	Ni	0.4106	0.59476	0.96182	1.099
Mof_Ni	Ni	0.50346	0.48819	0.79197	1.116
Mof_O 	O 	0.30576	0.4674	0.8752	-0.404
Mof_O 	O 	0.39079	0.3636	0.7915	-0.411
Mof_O 	O 	0.38686	0.0944	0.73922	-0.379
Mof_O 	O 	0.3137	0.215	0.60846	-0.252
Mof_O 	O 	0.61929	0.3532	0.83959	-0.411
Mof_O 	O 	0.71288	0.3487	0.00044	-0.4
Mof_O 	O 	0.63474	0.2214	0.65272	-0.392
Mof_O 	O 	0.62787	0.103	0.77729	-0.379
Mof_O 	O 	0.53693	0.53914	0.93051	-0.564
Mof_C 	C 	0.3137	0.3816	0.8202	0.347
Mof_C 	C 	0.2256	0.2897	0.7862	-0.037
Mof_C 	C 	0.1407	0.3037	0.8186	-0.047
Mof_H 	H 	0.1412	0.3693	0.8601	0.068
Mof_C 	C 	0.0553	0.2225	0.7907	0.023
Mof_C 	C 	0.0578	0.124	0.7294	-0.071
Mof_H 	H 	0.0023	0.0674	0.7103	0.063
Mof_C 	C 	0.1415	0.1095	0.6968	-0
Mof_H 	H 	0.141	0.0435	0.6556	0.041
Mof_C 	C 	0.2263	0.1914	0.7243	-0.043
Mof_C 	C 	0.317	0.1672	0.6876	0.335
Mof_C 	C 	0.9654	0.241	0.8262	0.043
Mof_C 	C 	0.9818	0.297	0.9168	-0.099
Mof_H 	H 	0.0499	0.3175	0.9571	0.075
Mof_C 	C 	0.8975	0.3221	0.947	0.026
Mof_H 	H 	0.9096	0.36	0.007	0.034
Mof_C 	C 	0.7956	0.2914	0.8887	-0.075
Mof_C 	C 	0.7786	0.2288	0.8006	-0.011
Mof_C 	C 	0.863	0.2057	0.7696	-0.069
Mof_H 	H 	0.851	0.166	0.7102	0.074
Mof_C 	C 	0.7016	0.3349	0.9118	0.364
Mof_C 	C 	0.6707	0.1824	0.7389	0.339
_end
