data_functionalizedCrystal
_audit_creation_method	'EQeq! by Chris Wilmer'
_symmetry_space_group_name_H-M	'P1'
_symmetry_Int_Tables_number	1
_symmetry_cell_setting	triclinic
loop_
_symmetry_equiv_pos_as_xyz
  x,y,z
_cell_length_a	8.3328
_cell_length_b	17.5089
_cell_length_c	7.9384
_cell_angle_alpha	90
_cell_angle_beta	109.247
_cell_angle_gamma	90
loop_
_atom_site_label
_atom_site_type_symbol
_atom_site_fract_x
_atom_site_fract_y
_atom_site_fract_z
_atom_site_charge
Mof_Sm	Sm	0.28088	0.52218	0.2568	2.277
Mof_N 	N 	0.968	0.7651	0.11	-0.054
Mof_N 	N 	0.8763	0.8291	0.0779	-0.13
Mof_H 	H 	0.9093	0.8726	0.1278	0.056
Mof_O 	O 	0.0852	0.6186	0.1248	-0.607
Mof_O 	O 	0.8482	0.5811	0.9229	-0.635
Mof_O 	O 	0.615	0.9359	0.9978	-0.647
Mof_O 	O 	0.4692	0.8682	0.7634	-0.493
Mof_O 	O 	0.5213	0.458	0.2046	-0.473
Mof_O 	O 	0.7001	0.4571	0.0471	-0.445
Mof_C 	C 	0.9389	0.6297	0.0176	0.57
Mof_C 	C 	0.8729	0.7085	0.0098	-0.13
Mof_C 	C 	0.7152	0.739	0.9099	0.077
Mof_H 	H 	0.6242	0.7131	0.8301	0.01
Mof_C 	C 	0.7227	0.8148	0.9541	-0.091
Mof_C 	C 	0.5937	0.8765	0.9022	0.426
Mof_C 	C 	0.5652	0.4749	0.072	0.282
Mof_Sm	Sm	0.71912	0.02218	0.2432	2.273
Mof_N 	N 	0.032	0.2651	0.39	-0.051
Mof_N 	N 	0.1237	0.3291	0.4221	-0.128
Mof_H 	H 	0.0907	0.3726	0.3722	0.057
Mof_O 	O 	0.9148	0.1186	0.3752	-0.614
Mof_O 	O 	0.1518	0.0811	0.5771	-0.638
Mof_O 	O 	0.385	0.4359	0.5022	-0.648
Mof_O 	O 	0.5308	0.3682	0.7366	-0.493
Mof_O 	O 	0.4787	0.958	0.2954	-0.47
Mof_O 	O 	0.2999	0.9571	0.4529	-0.442
Mof_C 	C 	0.0611	0.1297	0.4824	0.585
Mof_C 	C 	0.1271	0.2085	0.4902	-0.13
Mof_C 	C 	0.2848	0.239	0.5901	0.075
Mof_H 	H 	0.3758	0.2131	0.6699	0.011
Mof_C 	C 	0.2773	0.3148	0.5459	-0.092
Mof_C 	C 	0.4063	0.3765	0.5978	0.427
Mof_C 	C 	0.4348	0.9749	0.428	0.282
Mof_Sm	Sm	0.71912	0.47782	0.7432	2.278
Mof_N 	N 	0.032	0.2349	0.89	-0.053
Mof_N 	N 	0.1237	0.1709	0.9221	-0.129
Mof_H 	H 	0.0907	0.1274	0.8722	0.057
Mof_O 	O 	0.9148	0.3814	0.8752	-0.606
Mof_O 	O 	0.1518	0.4189	0.0771	-0.634
Mof_O 	O 	0.385	0.0641	0.0022	-0.647
Mof_O 	O 	0.5308	0.1318	0.2366	-0.493
Mof_O 	O 	0.4787	0.542	0.7954	-0.473
Mof_O 	O 	0.2999	0.5429	0.9529	-0.445
Mof_C 	C 	0.0611	0.3703	0.9824	0.57
Mof_C 	C 	0.1271	0.2915	0.9902	-0.13
Mof_C 	C 	0.2848	0.261	0.0901	0.077
Mof_H 	H 	0.3758	0.2869	0.1699	0.01
Mof_C 	C 	0.2773	0.1852	0.0459	-0.091
Mof_C 	C 	0.4063	0.1235	0.0978	0.426
Mof_C 	C 	0.4348	0.5251	0.928	0.282
Mof_Sm	Sm	0.28088	0.97782	0.7568	2.273
Mof_N 	N 	0.968	0.7349	0.61	-0.051
Mof_N 	N 	0.8763	0.6709	0.5779	-0.128
Mof_H 	H 	0.9093	0.6274	0.6278	0.057
Mof_O 	O 	0.0852	0.8814	0.6248	-0.614
Mof_O 	O 	0.8482	0.9189	0.4229	-0.638
Mof_O 	O 	0.615	0.5641	0.4978	-0.648
Mof_O 	O 	0.4692	0.6318	0.2634	-0.493
Mof_O 	O 	0.5213	0.042	0.7046	-0.47
Mof_O 	O 	0.7001	0.0429	0.5471	-0.442
Mof_C 	C 	0.9389	0.8703	0.5176	0.585
Mof_C 	C 	0.8729	0.7915	0.5098	-0.13
Mof_C 	C 	0.7152	0.761	0.4099	0.075
Mof_H 	H 	0.6242	0.7869	0.3301	0.011
Mof_C 	C 	0.7227	0.6852	0.4541	-0.092
Mof_C 	C 	0.5937	0.6235	0.4022	0.427
Mof_C 	C 	0.5652	0.0251	0.572	0.282
_end
