data_functionalizedCrystal
_audit_creation_method	'EQeq! by Chris Wilmer'
_symmetry_space_group_name_H-M	'P1'
_symmetry_Int_Tables_number	1
_symmetry_cell_setting	triclinic
loop_
_symmetry_equiv_pos_as_xyz
  x,y,z
_cell_length_a	11.862
_cell_length_b	12.013
_cell_length_c	13.685
_cell_angle_alpha	102.81
_cell_angle_beta	100.06
_cell_angle_gamma	98.87
loop_
_atom_site_label
_atom_site_type_symbol
_atom_site_fract_x
_atom_site_fract_y
_atom_site_fract_z
_atom_site_charge
Mof_Co	Co	0.25342	0.97299	0.10743	1.176
Mof_Co	Co	0.13028	0.27979	0.1822	1.147
Mof_O 	O 	0.38679	0.09596	0.08828	-0.381
Mof_O 	O 	0.38818	0.0886	0.24694	-0.346
Mof_O 	O 	0.38129	0.48739	0.2545	-0.287
Mof_O 	O 	0.30757	0.29832	0.20359	-0.422
Mof_N 	N 	0.14436	0.28661	0.3428	-0.244
Mof_N 	N 	0.32615	0.82512	0.0831	-0.252
Mof_O 	O 	0.94748	0.23491	0.13894	-0.438
Mof_O 	O 	0.85099	0.0661	0.02981	-0.438
Mof_O 	O 	0.12829	0.09808	0.15271	-0.468
Mof_O 	O 	0.13646	0.93506	0.19704	-0.396
Mof_N 	N 	0.12486	0.28565	0.02652	-0.242
Mof_S 	S 	0.65748	0.07569	0.17563	-0.036
Mof_C 	C 	0.4253	0.8219	0.0491	0.105
Mof_H 	H 	0.4668	0.8908	0.0419	-0.001
Mof_C 	C 	0.4689	0.7223	0.0244	-0.179
Mof_H 	H 	0.5383	0.7248	0.0014	0.106
Mof_C 	C 	0.4088	0.6176	0.0339	0.132
Mof_C 	C 	0.3043	0.6205	0.066	-0.175
Mof_H 	H 	0.2594	0.5523	0.0713	0.091
Mof_C 	C 	0.2671	0.7239	0.0899	0.105
Mof_H 	H 	0.1972	0.7236	0.1119	-0.015
Mof_C 	C 	0.4504	0.5078	0.0123	-0.086
Mof_H 	H 	0.4007	0.4419	0.0165	0.066
Mof_C 	C 	0.4266	0.1367	0.18378	0.308
Mof_C 	C 	0.6404	0.2194	0.2259	0.06
Mof_C 	C 	0.5274	0.2402	0.22051	-0.065
Mof_C 	C 	0.5117	0.3552	0.2488	-0.033
Mof_C 	C 	0.3913	0.3836	0.2357	0.33
Mof_C 	C 	0.6089	0.4449	0.2867	-0.048
Mof_H 	H 	0.599	0.5213	0.3066	0.063
Mof_C 	C 	0.72	0.4223	0.2954	0.002
Mof_H 	H 	0.7844	0.483	0.3233	0.031
Mof_C 	C 	0.7359	0.3104	0.263	-0.098
Mof_H 	H 	0.811	0.2959	0.266	0.073
Mof_C 	C 	0.7946	0.0653	0.2472	0.071
Mof_C 	C 	0.7974	0.0306	0.3377	-0.105
Mof_H 	H 	0.7322	0.0282	0.3669	0.073
Mof_C 	C 	0.8964	0.9999	0.3843	0
Mof_H 	H 	0.9	0.9819	0.4473	0.031
Mof_C 	C 	0.9904	0.9958	0.3373	-0.054
Mof_H 	H 	0.0538	0.9674	0.3651	0.06
Mof_C 	C 	0.9903	0.0341	0.24878	-0.027
Mof_C 	C 	0.8943	0.0747	0.20556	-0.122
Mof_C 	C 	0.09078	0.0228	0.1968	0.317
Mof_C 	C 	0.8981	0.1298	0.1167	0.403
Mof_C 	C 	0.0667	0.3239	0.3956	0.1
Mof_H 	H 	0.0056	0.351	0.3622	-0.025
Mof_C 	C 	0.0727	0.324	0.4976	-0.178
Mof_H 	H 	0.0161	0.3501	0.5309	0.09
Mof_C 	C 	0.164	0.2849	0.55002	0.125
Mof_C 	C 	0.244	0.2472	0.4954	-0.178
Mof_H 	H 	0.3067	0.2207	0.5272	0.097
Mof_C 	C 	0.2316	0.2484	0.3937	0.096
Mof_H 	H 	0.2864	0.2215	0.3585	0.009
Mof_C 	C 	0.1778	0.2801	0.6582	-0.096
Mof_H 	H 	0.2404	0.25	0.6853	0.065
Mof_C 	C 	0.1091	0.3147	0.7195	-0.082
Mof_H 	H 	0.0487	0.3481	0.6933	0.054
Mof_C 	C 	0.1194	0.3053	0.82569	0.125
Mof_C 	C 	0.0501	0.3587	0.8848	-0.173
Mof_H 	H 	0.0004	0.4027	0.8583	0.083
Mof_C 	C 	0.0548	0.3467	0.9832	0.1
Mof_H 	H 	0.0068	0.3828	0.0214	-0.026
Mof_C 	C 	0.1924	0.2334	0.96974	0.101
Mof_H 	H 	0.2415	0.1903	0.9984	-0.003
Mof_C 	C 	0.1922	0.2409	0.8704	-0.171
Mof_H 	H 	0.2403	0.2033	0.8335	0.097
Mof_Co	Co	0.74658	0.02701	0.89257	1.175
Mof_Co	Co	0.86972	0.72021	0.8178	1.146
Mof_O 	O 	0.61321	0.90404	0.91172	-0.382
Mof_O 	O 	0.61182	0.9114	0.75306	-0.347
Mof_O 	O 	0.61871	0.51261	0.7455	-0.287
Mof_O 	O 	0.69243	0.70168	0.79641	-0.422
Mof_N 	N 	0.85564	0.71339	0.6572	-0.244
Mof_N 	N 	0.67385	0.17488	0.9169	-0.252
Mof_O 	O 	0.05252	0.76509	0.86106	-0.438
Mof_O 	O 	0.14901	0.9339	0.97019	-0.438
Mof_O 	O 	0.87171	0.90192	0.84729	-0.468
Mof_O 	O 	0.86354	0.06494	0.80296	-0.396
Mof_N 	N 	0.87514	0.71435	0.97348	-0.242
Mof_S 	S 	0.34252	0.92431	0.82437	-0.036
Mof_C 	C 	0.5747	0.1781	0.9509	0.105
Mof_H 	H 	0.5332	0.1092	0.9581	-0.001
Mof_C 	C 	0.5311	0.2777	0.9756	-0.179
Mof_H 	H 	0.4617	0.2752	0.9986	0.106
Mof_C 	C 	0.5912	0.3824	0.9661	0.132
Mof_C 	C 	0.6957	0.3795	0.934	-0.175
Mof_H 	H 	0.7406	0.4477	0.9287	0.091
Mof_C 	C 	0.7329	0.2761	0.9101	0.105
Mof_H 	H 	0.8028	0.2764	0.8881	-0.015
Mof_C 	C 	0.5496	0.4922	0.9877	-0.086
Mof_H 	H 	0.5993	0.5581	0.9835	0.066
Mof_C 	C 	0.5734	0.8633	0.81622	0.308
Mof_C 	C 	0.3596	0.7806	0.7741	0.06
Mof_C 	C 	0.4726	0.7598	0.77949	-0.065
Mof_C 	C 	0.4883	0.6448	0.7512	-0.033
Mof_C 	C 	0.6087	0.6164	0.7643	0.33
Mof_C 	C 	0.3911	0.5551	0.7133	-0.048
Mof_H 	H 	0.401	0.4787	0.6934	0.063
Mof_C 	C 	0.28	0.5777	0.7046	0.002
Mof_H 	H 	0.2156	0.517	0.6767	0.031
Mof_C 	C 	0.2641	0.6896	0.737	-0.098
Mof_H 	H 	0.189	0.7041	0.734	0.073
Mof_C 	C 	0.2054	0.9347	0.7528	0.071
Mof_C 	C 	0.2026	0.9694	0.6623	-0.105
Mof_H 	H 	0.2678	0.9718	0.6331	0.073
Mof_C 	C 	0.1036	0.0001	0.6157	0
Mof_H 	H 	0.1	0.0181	0.5527	0.031
Mof_C 	C 	0.0096	0.0042	0.6627	-0.054
Mof_H 	H 	0.9462	0.0326	0.6349	0.06
Mof_C 	C 	0.0097	0.9659	0.75122	-0.027
Mof_C 	C 	0.1057	0.9253	0.79444	-0.122
Mof_C 	C 	0.90922	0.9772	0.8032	0.317
Mof_C 	C 	0.1019	0.8702	0.8833	0.403
Mof_C 	C 	0.9333	0.6761	0.6044	0.1
Mof_H 	H 	0.9944	0.649	0.6378	-0.025
Mof_C 	C 	0.9273	0.676	0.5024	-0.178
Mof_H 	H 	0.9839	0.6499	0.4691	0.09
Mof_C 	C 	0.836	0.7151	0.44998	0.125
Mof_C 	C 	0.756	0.7528	0.5046	-0.178
Mof_H 	H 	0.6933	0.7793	0.4728	0.097
Mof_C 	C 	0.7684	0.7516	0.6063	0.096
Mof_H 	H 	0.7136	0.7785	0.6415	0.009
Mof_C 	C 	0.8222	0.7199	0.3418	-0.096
Mof_H 	H 	0.7596	0.75	0.3147	0.065
Mof_C 	C 	0.8909	0.6853	0.2805	-0.082
Mof_H 	H 	0.9513	0.6519	0.3067	0.054
Mof_C 	C 	0.8806	0.6947	0.17431	0.125
Mof_C 	C 	0.9499	0.6413	0.1152	-0.173
Mof_H 	H 	0.9996	0.5973	0.1417	0.083
Mof_C 	C 	0.9452	0.6533	0.0168	0.1
Mof_H 	H 	0.9932	0.6172	0.9786	-0.026
Mof_C 	C 	0.8076	0.7666	0.03026	0.101
Mof_H 	H 	0.7585	0.8097	0.0016	-0.003
Mof_C 	C 	0.8078	0.7591	0.1296	-0.171
Mof_H 	H 	0.7597	0.7967	0.1665	0.097
_end
