data_functionalizedCrystal
_audit_creation_method	'EQeq! by Chris Wilmer'
_symmetry_space_group_name_H-M	'P1'
_symmetry_Int_Tables_number	1
_symmetry_cell_setting	triclinic
loop_
_symmetry_equiv_pos_as_xyz
  x,y,z
_cell_length_a	9.1686
_cell_length_b	11.1145
_cell_length_c	11.1899
_cell_angle_alpha	77.156
_cell_angle_beta	68.195
_cell_angle_gamma	78.35
loop_
_atom_site_label
_atom_site_type_symbol
_atom_site_fract_x
_atom_site_fract_y
_atom_site_fract_z
_atom_site_charge
Mof_Eu	Eu	0.72641	0.51635	0.52012	2.111
Mof_S 	S 	0.0778	0.76299	0.06503	0.055
Mof_O 	O 	0.8619	0.6744	0.3489	-0.563
Mof_C 	C 	0.0055	0.6736	0.3319	0.567
Mof_S 	S 	0.3059	0.3792	0.00618	0.044
Mof_O 	O 	0.0721	0.605	0.4057	-0.628
Mof_C 	C 	0.1034	0.7583	0.2172	-0.449
Mof_H 	H 	0.2144	0.7318	0.2065	0.164
Mof_H 	H 	0.0772	0.8421	0.2376	0.153
Mof_S 	S 	0.8485	0.0555	0.3754	0.019
Mof_O 	O 	0.4259	0.4532	0.6215	-0.651
Mof_C 	C 	0.1148	0.6006	0.0514	-0.143
Mof_H 	H 	0.052	0.5554	0.133	0.071
Mof_H 	H 	0.0774	0.5907	0.9841	0.06
Mof_O 	O 	0.5679	0.4315	0.7449	-0.54
Mof_C 	C 	0.2861	0.5404	0.0198	-0.126
Mof_H 	H 	0.3243	0.5468	0.0879	0.062
Mof_H 	H 	0.3508	0.5846	0.9383	0.055
Mof_O 	O 	0.7292	0.2986	0.4852	-0.454
Mof_C 	C 	0.2939	0.398	0.8471	-0.43
Mof_H 	H 	0.2649	0.3218	0.8389	0.154
Mof_H 	H 	0.2081	0.4638	0.8414	0.151
Mof_O 	O 	0.9131	0.4055	0.3367	-0.46
Mof_C 	C 	0.4389	0.4279	0.7327	0.521
Mof_C 	C 	0.8455	0.3076	0.382	0.37
Mof_C 	C 	0.9159	0.2001	0.3027	-0.322
Mof_H 	H 	0.03	0.1885	0.2813	0.112
Mof_H 	H 	0.8951	0.2256	0.2212	0.113
Mof_C 	C 	0.9135	0.0144	0.5177	-0.118
Mof_H 	H 	0.8768	0.0832	0.5665	0.062
Mof_H 	H 	0.865	0.9428	0.5742	0.042
Mof_Eu	Eu	0.27359	0.48365	0.47988	2.11
Mof_S 	S 	0.9222	0.23701	0.93497	0.054
Mof_O 	O 	0.1381	0.3256	0.6511	-0.564
Mof_C 	C 	0.9945	0.3264	0.6681	0.566
Mof_S 	S 	0.6941	0.6208	0.99382	0.044
Mof_O 	O 	0.9279	0.395	0.5943	-0.628
Mof_C 	C 	0.8966	0.2417	0.7828	-0.449
Mof_H 	H 	0.7856	0.2682	0.7935	0.164
Mof_H 	H 	0.9228	0.1579	0.7624	0.153
Mof_S 	S 	0.1515	0.9445	0.6246	0.019
Mof_O 	O 	0.5741	0.5468	0.3785	-0.651
Mof_C 	C 	0.8852	0.3994	0.9486	-0.143
Mof_H 	H 	0.948	0.4446	0.867	0.071
Mof_H 	H 	0.9226	0.4093	0.0159	0.06
Mof_O 	O 	0.4321	0.5685	0.2551	-0.54
Mof_C 	C 	0.7139	0.4596	0.9802	-0.126
Mof_H 	H 	0.6757	0.4532	0.9121	0.062
Mof_H 	H 	0.6492	0.4154	0.0617	0.055
Mof_O 	O 	0.2708	0.7014	0.5148	-0.454
Mof_C 	C 	0.7061	0.602	0.1529	-0.43
Mof_H 	H 	0.7351	0.6782	0.1611	0.154
Mof_H 	H 	0.7919	0.5362	0.1586	0.151
Mof_O 	O 	0.0869	0.5945	0.6633	-0.46
Mof_C 	C 	0.5611	0.5721	0.2673	0.521
Mof_C 	C 	0.1545	0.6924	0.618	0.37
Mof_C 	C 	0.0841	0.7999	0.6973	-0.322
Mof_H 	H 	0.97	0.8115	0.7187	0.112
Mof_H 	H 	0.1049	0.7744	0.7788	0.113
Mof_C 	C 	0.0865	0.9856	0.4823	-0.118
Mof_H 	H 	0.1232	0.9168	0.4335	0.062
Mof_H 	H 	0.135	0.0572	0.4258	0.042
_end
