# CIF file generated by openbabel 3.1.0, see https://openbabel.org
data_I
_chemical_name_common 'MAYYAN_clean'
_cell_length_a 6.1008
_cell_length_b 7.5802
_cell_length_c 28.044
_cell_angle_alpha 90
_cell_angle_beta 90
_cell_angle_gamma 90
_space_group_name_H-M_alt 'P 1'
_space_group_name_Hall 'P 1'
loop_
    _symmetry_equiv_pos_as_xyz
    x,y,z
loop_
    _atom_site_label
    _atom_site_type_symbol
    _atom_site_fract_x
    _atom_site_fract_y
    _atom_site_fract_z
    _atom_site_occupancy
    Pr1      Pr       0.56822    0.90185    0.66889    1.000
    Pr2      Pr       0.56822    0.09815    0.33111    1.000
    Pr3      Pr       0.43178    0.59815    0.16889    1.000
    Pr4      Pr       0.43178    0.40185    0.83111    1.000
    H1       H        0.47160    0.53820    0.63570    1.000
    H2       H        0.14590    0.46700    0.64520    1.000
    H3       H        0.28510    0.62720    0.75110    1.000
    H4       H        0.04590    0.37100    0.71900    1.000
    H5       H        0.70330    0.84410    0.49990    1.000
    H6       H        0.44120    0.84300    0.49920    1.000
    H7       H        0.47160    0.46180    0.36430    1.000
    H8       H        0.14590    0.53300    0.35480    1.000
    H9       H        0.28510    0.37280    0.24890    1.000
    H10      H        0.04590    0.62900    0.28100    1.000
    H11      H        0.70330    0.15590    0.50010    1.000
    H12      H        0.44120    0.15700    0.50080    1.000
    H13      H        0.52840    0.96180    0.13570    1.000
    H14      H        0.85410    0.03300    0.14520    1.000
    H15      H        0.71490    0.87280    0.25110    1.000
    H16      H        0.95410    0.12900    0.21900    1.000
    H17      H        0.29670    0.65590    0.99990    1.000
    H18      H        0.55880    0.65700    0.99920    1.000
    H19      H        0.52840    0.03820    0.86430    1.000
    H20      H        0.85410    0.96700    0.85480    1.000
    H21      H        0.71490    0.12720    0.74890    1.000
    H22      H        0.95410    0.87100    0.78100    1.000
    H23      H        0.29670    0.34410    0.00010    1.000
    H24      H        0.55880    0.34300    0.00080    1.000
    C1       C        0.07170    0.71060    0.67520    1.000
    C2       C        0.20500    0.54000    0.67200    1.000
    C3       C        0.19090    0.43250    0.71810    1.000
    C4       C        0.37280    0.29320    0.71680    1.000
    C5       C        0.56820    0.91000    0.56460    1.000
    C6       C        0.57100    0.90810    0.51080    1.000
    C7       C        0.07170    0.28940    0.32480    1.000
    C8       C        0.20500    0.46000    0.32800    1.000
    C9       C        0.19090    0.56750    0.28190    1.000
    C10      C        0.37280    0.70680    0.28320    1.000
    C11      C        0.56820    0.09000    0.43540    1.000
    C12      C        0.57100    0.09190    0.48920    1.000
    C13      C        0.92830    0.78940    0.17520    1.000
    C14      C        0.79500    0.96000    0.17200    1.000
    C15      C        0.80910    0.06750    0.21810    1.000
    C16      C        0.62720    0.20680    0.21680    1.000
    C17      C        0.43180    0.59000    0.06460    1.000
    C18      C        0.42900    0.59190    0.01080    1.000
    C19      C        0.92830    0.21060    0.82480    1.000
    C20      C        0.79500    0.04000    0.82800    1.000
    C21      C        0.80910    0.93250    0.78190    1.000
    C22      C        0.62720    0.79320    0.78320    1.000
    C23      C        0.43180    0.41000    0.93540    1.000
    C24      C        0.42900    0.40810    0.98920    1.000
    O1       O        0.17240    0.85400    0.67160    1.000
    O2       O        0.86740    0.69530    0.68090    1.000
    O3       O        0.42680    0.58760    0.66111    1.000
    O4       O        0.21250    0.53700    0.75972    1.000
    O5       O        0.37450    0.18600    0.68284    1.000
    O6       O        0.50900    0.29400    0.75060    1.000
    O7       O        0.67870    0.79580    0.58620    1.000
    O8       O        0.45300    0.02250    0.58660    1.000
    O9       O        0.17240    0.14600    0.32840    1.000
    O10      O        0.86740    0.30470    0.31910    1.000
    O11      O        0.42680    0.41240    0.33889    1.000
    O12      O        0.21250    0.46300    0.24028    1.000
    O13      O        0.37450    0.81400    0.31716    1.000
    O14      O        0.50900    0.70600    0.24940    1.000
    O15      O        0.67870    0.20420    0.41380    1.000
    O16      O        0.45300    0.97750    0.41340    1.000
    O17      O        0.82760    0.64600    0.17160    1.000
    O18      O        0.13260    0.80470    0.18090    1.000
    O19      O        0.57320    0.91240    0.16111    1.000
    O20      O        0.78750    0.96300    0.25972    1.000
    O21      O        0.62550    0.31400    0.18284    1.000
    O22      O        0.49100    0.20600    0.25060    1.000
    O23      O        0.32130    0.70420    0.08620    1.000
    O24      O        0.54700    0.47750    0.08660    1.000
    O25      O        0.82760    0.35400    0.82840    1.000
    O26      O        0.13260    0.19530    0.81910    1.000
    O27      O        0.57320    0.08760    0.83889    1.000
    O28      O        0.78750    0.03700    0.74028    1.000
    O29      O        0.62550    0.68600    0.81716    1.000
    O30      O        0.49100    0.79400    0.74940    1.000
    O31      O        0.32130    0.29580    0.91380    1.000
    O32      O        0.54700    0.52250    0.91340    1.000
