data_functionalizedCrystal
_audit_creation_method	'EQeq! by Chris Wilmer'
_symmetry_space_group_name_H-M	'P1'
_symmetry_Int_Tables_number	1
_symmetry_cell_setting	triclinic
loop_
_symmetry_equiv_pos_as_xyz
  x,y,z
_cell_length_a	11.078
_cell_length_b	16.012
_cell_length_c	23.804
_cell_angle_alpha	90
_cell_angle_beta	95.333
_cell_angle_gamma	90
loop_
_atom_site_label
_atom_site_type_symbol
_atom_site_fract_x
_atom_site_fract_y
_atom_site_fract_z
_atom_site_charge
Mof_Zn	Zn	0.9527	0.48228	0.15296	1.243
Mof_Zn	Zn	0.15349	0.34211	0.24084	1.177
Mof_O 	O 	0.1526	0.1686	0.65738	-0.511
Mof_O 	O 	0.0752	0.0616	0.60483	-0.458
Mof_O 	O 	0.0364	0.8464	0.26529	-0.503
Mof_O 	O 	0.15	0.886	0.3418	-0.474
Mof_O 	O 	0.1801	0.4671	0.24693	-0.531
Mof_O 	O 	0.0381	0.5519	0.20811	-0.511
Mof_O 	O 	0.1314	0.0521	0.40342	-0.465
Mof_O 	O 	0.1999	0.1604	0.3622	-0.341
Mof_C 	C 	0.301	0.4932	0.4381	-0.051
Mof_H 	H 	0.2311	0.5049	0.4147	0.043
Mof_C 	C 	0.308	0.4216	0.4657	-0.056
Mof_H 	H 	0.2442	0.384	0.46	0.046
Mof_C 	C 	0.4103	0.3998	0.5041	-0.001
Mof_C 	C 	0.4974	0.5393	0.4841	-0.002
Mof_C 	C 	0.3986	0.5547	0.44289	-0.005
Mof_C 	C 	0.3959	0.6294	0.4121	0.021
Mof_C 	C 	0.4874	0.6866	0.4249	-0.096
Mof_H 	H 	0.4859	0.7359	0.4041	0.065
Mof_C 	C 	0.418	0.3248	0.5329	0.018
Mof_C 	C 	0.3294	0.2562	0.5232	-0.023
Mof_C 	C 	0.2975	0.2237	0.4702	-0
Mof_H 	H 	0.3289	0.2472	0.4389	0.033
Mof_C 	C 	0.218	0.1555	0.463	-0.118
Mof_C 	C 	0.1663	0.1237	0.5094	0.063
Mof_H 	H 	0.1116	0.0796	0.5048	0.041
Mof_C 	C 	0.1954	0.1568	0.5615	-0.129
Mof_C 	C 	0.277	0.2232	0.5683	0.007
Mof_H 	H 	0.2963	0.2456	0.6041	0.029
Mof_C 	C 	0.3	0.6476	0.3648	-0.033
Mof_C 	C 	0.2525	0.7268	0.358	0.011
Mof_H 	H 	0.2762	0.7682	0.3841	0.043
Mof_C 	C 	0.1678	0.7456	0.3116	-0.145
Mof_C 	C 	0.1294	0.6847	0.2755	0.083
Mof_H 	H 	0.0698	0.6964	0.2464	0.001
Mof_C 	C 	0.1765	0.605	0.2807	-0.152
Mof_C 	C 	0.266	0.5872	0.3248	0.015
Mof_H 	H 	0.3026	0.5349	0.3271	0.024
Mof_C 	C 	0.1289	0.5349	0.2422	0.447
Mof_C 	C 	0.1361	0.1278	0.6118	0.41
Mof_C 	C 	0.1148	0.832	0.3054	0.392
Mof_C 	C 	0.1844	0.1205	0.4044	0.402
Mof_Zn	Zn	0.0473	0.98228	0.34704	1.241
Mof_Zn	Zn	0.84651	0.84211	0.25916	1.176
Mof_O 	O 	0.8474	0.6686	0.84262	-0.512
Mof_O 	O 	0.9248	0.5616	0.89517	-0.46
Mof_O 	O 	0.9636	0.3464	0.23471	-0.504
Mof_O 	O 	0.85	0.386	0.1582	-0.475
Mof_O 	O 	0.8199	0.9671	0.25307	-0.53
Mof_O 	O 	0.9619	0.0519	0.29189	-0.511
Mof_O 	O 	0.8686	0.5521	0.09658	-0.466
Mof_O 	O 	0.8001	0.6604	0.1378	-0.342
Mof_C 	C 	0.699	0.9932	0.0619	-0.046
Mof_H 	H 	0.7689	0.0049	0.0853	0.041
Mof_C 	C 	0.692	0.9216	0.0343	-0.059
Mof_H 	H 	0.7558	0.884	0.04	0.047
Mof_C 	C 	0.5897	0.8998	0.9959	0
Mof_C 	C 	0.5026	0.0393	0.0159	-0.002
Mof_C 	C 	0.6014	0.0547	0.05711	-0.007
Mof_C 	C 	0.6041	0.1294	0.0879	0.022
Mof_C 	C 	0.5126	0.1866	0.0751	-0.096
Mof_H 	H 	0.5141	0.2359	0.0959	0.065
Mof_C 	C 	0.582	0.8248	0.9671	0.017
Mof_C 	C 	0.6706	0.7562	0.9768	-0.023
Mof_C 	C 	0.7025	0.7237	0.0298	-0.001
Mof_H 	H 	0.6711	0.7472	0.0611	0.033
Mof_C 	C 	0.782	0.6555	0.037	-0.119
Mof_C 	C 	0.8337	0.6237	0.9906	0.064
Mof_H 	H 	0.8884	0.5796	0.9952	0.04
Mof_C 	C 	0.8046	0.6568	0.9385	-0.129
Mof_C 	C 	0.723	0.7232	0.9317	0.007
Mof_H 	H 	0.7037	0.7456	0.8959	0.029
Mof_C 	C 	0.7	0.1476	0.1352	-0.033
Mof_C 	C 	0.7475	0.2268	0.142	0.011
Mof_H 	H 	0.7238	0.2682	0.1159	0.043
Mof_C 	C 	0.8322	0.2456	0.1884	-0.145
Mof_C 	C 	0.8706	0.1847	0.2245	0.082
Mof_H 	H 	0.9302	0.1964	0.2536	0.001
Mof_C 	C 	0.8235	0.105	0.2193	-0.152
Mof_C 	C 	0.734	0.0872	0.1752	0.015
Mof_H 	H 	0.6974	0.0349	0.1729	0.024
Mof_C 	C 	0.8711	0.0349	0.2578	0.445
Mof_C 	C 	0.8639	0.6278	0.8882	0.41
Mof_C 	C 	0.8852	0.332	0.1946	0.391
Mof_C 	C 	0.8156	0.6205	0.0956	0.402
Mof_Zn	Zn	0.0473	0.51772	0.84704	1.242
Mof_Zn	Zn	0.84651	0.65789	0.75916	1.176
Mof_O 	O 	0.8474	0.8314	0.34262	-0.512
Mof_O 	O 	0.9248	0.9384	0.39517	-0.459
Mof_O 	O 	0.9636	0.1536	0.73471	-0.504
Mof_O 	O 	0.85	0.114	0.6582	-0.475
Mof_O 	O 	0.8199	0.5329	0.75307	-0.531
Mof_O 	O 	0.9619	0.4481	0.79189	-0.511
Mof_O 	O 	0.8686	0.9479	0.59658	-0.465
Mof_O 	O 	0.8001	0.8396	0.6378	-0.341
Mof_C 	C 	0.699	0.5068	0.5619	-0.051
Mof_H 	H 	0.7689	0.4951	0.5853	0.043
Mof_C 	C 	0.692	0.5784	0.5343	-0.056
Mof_H 	H 	0.7558	0.616	0.54	0.046
Mof_C 	C 	0.5897	0.6002	0.4959	-0.001
Mof_C 	C 	0.5026	0.4607	0.5159	-0.002
Mof_C 	C 	0.6014	0.4453	0.55711	-0.005
Mof_C 	C 	0.6041	0.3706	0.5879	0.021
Mof_C 	C 	0.5126	0.3134	0.5751	-0.096
Mof_H 	H 	0.5141	0.2641	0.5959	0.065
Mof_C 	C 	0.582	0.6752	0.4671	0.018
Mof_C 	C 	0.6706	0.7438	0.4768	-0.023
Mof_C 	C 	0.7025	0.7763	0.5298	-0
Mof_H 	H 	0.6711	0.7528	0.5611	0.033
Mof_C 	C 	0.782	0.8445	0.537	-0.118
Mof_C 	C 	0.8337	0.8763	0.4906	0.063
Mof_H 	H 	0.8884	0.9204	0.4952	0.041
Mof_C 	C 	0.8046	0.8432	0.4385	-0.129
Mof_C 	C 	0.723	0.7768	0.4317	0.007
Mof_H 	H 	0.7037	0.7544	0.3959	0.029
Mof_C 	C 	0.7	0.3524	0.6352	-0.033
Mof_C 	C 	0.7475	0.2732	0.642	0.011
Mof_H 	H 	0.7238	0.2318	0.6159	0.043
Mof_C 	C 	0.8322	0.2544	0.6884	-0.145
Mof_C 	C 	0.8706	0.3153	0.7245	0.083
Mof_H 	H 	0.9302	0.3036	0.7536	0.001
Mof_C 	C 	0.8235	0.395	0.7193	-0.152
Mof_C 	C 	0.734	0.4128	0.6752	0.015
Mof_H 	H 	0.6974	0.4651	0.6729	0.024
Mof_C 	C 	0.8711	0.4651	0.7578	0.447
Mof_C 	C 	0.8639	0.8722	0.3882	0.41
Mof_C 	C 	0.8852	0.168	0.6946	0.392
Mof_C 	C 	0.8156	0.8795	0.5956	0.402
Mof_Zn	Zn	0.9527	0.01772	0.65296	1.241
Mof_Zn	Zn	0.15349	0.15789	0.74084	1.176
Mof_O 	O 	0.1526	0.3314	0.15738	-0.512
Mof_O 	O 	0.0752	0.4384	0.10483	-0.46
Mof_O 	O 	0.0364	0.6536	0.76529	-0.504
Mof_O 	O 	0.15	0.614	0.8418	-0.475
Mof_O 	O 	0.1801	0.0329	0.74693	-0.53
Mof_O 	O 	0.0381	0.9481	0.70811	-0.511
Mof_O 	O 	0.1314	0.4479	0.90342	-0.466
Mof_O 	O 	0.1999	0.3396	0.8622	-0.342
Mof_C 	C 	0.301	0.0068	0.9381	-0.046
Mof_H 	H 	0.2311	0.9951	0.9147	0.041
Mof_C 	C 	0.308	0.0784	0.9657	-0.059
Mof_H 	H 	0.2442	0.116	0.96	0.047
Mof_C 	C 	0.4103	0.1002	0.0041	0
Mof_C 	C 	0.4974	0.9607	0.9841	-0.002
Mof_C 	C 	0.3986	0.9453	0.94289	-0.007
Mof_C 	C 	0.3959	0.8706	0.9121	0.022
Mof_C 	C 	0.4874	0.8134	0.9249	-0.096
Mof_H 	H 	0.4859	0.7641	0.9041	0.065
Mof_C 	C 	0.418	0.1752	0.0329	0.017
Mof_C 	C 	0.3294	0.2438	0.0232	-0.023
Mof_C 	C 	0.2975	0.2763	0.9702	-0.001
Mof_H 	H 	0.3289	0.2528	0.9389	0.033
Mof_C 	C 	0.218	0.3445	0.963	-0.119
Mof_C 	C 	0.1663	0.3763	0.0094	0.064
Mof_H 	H 	0.1116	0.4204	0.0048	0.04
Mof_C 	C 	0.1954	0.3432	0.0615	-0.129
Mof_C 	C 	0.277	0.2768	0.0683	0.007
Mof_H 	H 	0.2963	0.2544	0.1041	0.029
Mof_C 	C 	0.3	0.8524	0.8648	-0.033
Mof_C 	C 	0.2525	0.7732	0.858	0.011
Mof_H 	H 	0.2762	0.7318	0.8841	0.043
Mof_C 	C 	0.1678	0.7544	0.8116	-0.145
Mof_C 	C 	0.1294	0.8153	0.7755	0.082
Mof_H 	H 	0.0698	0.8036	0.7464	0.001
Mof_C 	C 	0.1765	0.895	0.7807	-0.152
Mof_C 	C 	0.266	0.9128	0.8248	0.015
Mof_H 	H 	0.3026	0.9651	0.8271	0.024
Mof_C 	C 	0.1289	0.9651	0.7422	0.445
Mof_C 	C 	0.1361	0.3722	0.1118	0.41
Mof_C 	C 	0.1148	0.668	0.8054	0.391
Mof_C 	C 	0.1844	0.3795	0.9044	0.402
_end
