data_functionalizedCrystal
_audit_creation_method	'EQeq! by Chris Wilmer'
_symmetry_space_group_name_H-M	'P1'
_symmetry_Int_Tables_number	1
_symmetry_cell_setting	triclinic
loop_
_symmetry_equiv_pos_as_xyz
  x,y,z
_cell_length_a	9.2761
_cell_length_b	11.5506
_cell_length_c	17.2671
_cell_angle_alpha	104.827
_cell_angle_beta	90
_cell_angle_gamma	113.675
loop_
_atom_site_label
_atom_site_type_symbol
_atom_site_fract_x
_atom_site_fract_y
_atom_site_fract_z
_atom_site_charge
Mof_Nd	Nd	0.67054	0.97294	0.92694	2.619
Mof_Nd	Nd	0.6976	0.02706	0.57306	2.654
Mof_Nd	Nd	0.32946	0.02706	0.07306	2.619
Mof_Nd	Nd	0.3024	0.97294	0.42694	2.654
Mof_Cu	Cu	0.09411	0.32844	0.13452	0.843
Mof_Cu	Cu	0.76567	0.67156	0.36548	0.845
Mof_Cu	Cu	0.90589	0.67156	0.86548	0.843
Mof_Cu	Cu	0.23433	0.32844	0.63452	0.845
Mof_H 	H 	0.5621	0.1968	0.7793	0.038
Mof_H 	H 	0.5032	0.2974	0.6926	-0.016
Mof_H 	H 	0.0889	0.2272	0.7656	0.01
Mof_H 	H 	0.1391	0.1316	0.8574	0.036
Mof_H 	H 	0.1825	0.7186	0.0546	0.012
Mof_H 	H 	0.0814	0.563	0.1231	-0.003
Mof_H 	H 	0.2795	0.3522	0.9963	0.012
Mof_H 	H 	0.3899	0.5046	0.9256	0.039
Mof_H 	H 	0.3653	0.8032	0.7207	0.034
Mof_H 	H 	0.2058	0.7026	0.8074	-0.014
Mof_H 	H 	0.8617	0.7728	0.7344	0.019
Mof_H 	H 	0.0075	0.8684	0.6426	0.03
Mof_H 	H 	0.4639	0.2814	0.4454	0.012
Mof_H 	H 	0.5184	0.437	0.3769	-0.002
Mof_H 	H 	0.9273	0.6478	0.5037	0.004
Mof_H 	H 	0.8853	0.4954	0.5744	0.042
Mof_H 	H 	0.4379	0.8032	0.2207	0.038
Mof_H 	H 	0.4968	0.7026	0.3074	-0.016
Mof_H 	H 	0.9111	0.7728	0.2344	0.01
Mof_H 	H 	0.8609	0.8684	0.1426	0.036
Mof_H 	H 	0.8175	0.2814	0.9454	0.012
Mof_H 	H 	0.9186	0.437	0.8769	-0.003
Mof_H 	H 	0.7205	0.6478	0.0037	0.012
Mof_H 	H 	0.6101	0.4954	0.0744	0.039
Mof_H 	H 	0.6347	0.1968	0.2793	0.034
Mof_H 	H 	0.7942	0.2974	0.1926	-0.014
Mof_H 	H 	0.1383	0.2272	0.2656	0.019
Mof_H 	H 	0.9925	0.1316	0.3574	0.03
Mof_H 	H 	0.5361	0.7186	0.5546	0.012
Mof_H 	H 	0.4816	0.563	0.6231	-0.002
Mof_H 	H 	0.0727	0.3522	0.4963	0.004
Mof_H 	H 	0.1147	0.5046	0.4256	0.042
Mof_C 	C 	0.38944	0.08068	0.8829	0.513
Mof_C 	C 	0.35464	0.14988	0.82688	-0.124
Mof_C 	C 	0.4645	0.2016	0.7774	-0.014
Mof_C 	C 	0.4276	0.2608	0.725	0.017
Mof_C 	C 	0.1853	0.2206	0.7682	0.012
Mof_C 	C 	0.214	0.1622	0.8232	-0.011
Mof_C 	C 	0.39389	0.74438	0.94961	0.415
Mof_C 	C 	0.30578	0.63336	0.9858	-0.119
Mof_C 	C 	0.2078	0.6462	0.043	-0.006
Mof_C 	C 	0.1466	0.5518	0.0836	0.006
Mof_C 	C 	0.2628	0.4288	0.0097	0.018
Mof_C 	C 	0.3296	0.52	0.9668	-0.028
Mof_C 	C 	0.98031	0.92802	0.97648	0.266
Mof_C 	C 	0.7066	0.9252	0.73212	0.265
Mof_C 	C 	0.30876	0.91932	0.6171	0.521
Mof_C 	C 	0.20476	0.85012	0.67312	-0.136
Mof_C 	C 	0.2629	0.7984	0.7226	-0.005
Mof_C 	C 	0.1668	0.7392	0.775	0.012
Mof_C 	C 	0.9647	0.7794	0.7318	-0.013
Mof_C 	C 	0.0518	0.8378	0.6768	0.012
Mof_C 	C 	0.64951	0.25562	0.55039	0.416
Mof_C 	C 	0.67242	0.36664	0.5142	-0.116
Mof_C 	C 	0.5616	0.3538	0.457	-0.007
Mof_C 	C 	0.5948	0.4482	0.4164	0.007
Mof_C 	C 	0.834	0.5712	0.4903	0.031
Mof_C 	C 	0.8096	0.48	0.5332	-0.037
Mof_C 	C 	0.05229	0.07198	0.52352	0.273
Mof_C 	C 	0.7814	0.0748	0.76788	0.278
Mof_C 	C 	0.61056	0.91932	0.1171	0.513
Mof_C 	C 	0.64536	0.85012	0.17312	-0.124
Mof_C 	C 	0.5355	0.7984	0.2226	-0.014
Mof_C 	C 	0.5724	0.7392	0.275	0.017
Mof_C 	C 	0.8147	0.7794	0.2318	0.012
Mof_C 	C 	0.786	0.8378	0.1768	-0.011
Mof_C 	C 	0.60611	0.25562	0.05039	0.415
Mof_C 	C 	0.69422	0.36664	0.0142	-0.119
Mof_C 	C 	0.7922	0.3538	0.957	-0.006
Mof_C 	C 	0.8534	0.4482	0.9164	0.006
Mof_C 	C 	0.7372	0.5712	0.9903	0.018
Mof_C 	C 	0.6704	0.48	0.0332	-0.028
Mof_C 	C 	0.01969	0.07198	0.02352	0.266
Mof_C 	C 	0.2934	0.0748	0.26788	0.265
Mof_C 	C 	0.69124	0.08068	0.3829	0.521
Mof_C 	C 	0.79524	0.14988	0.32688	-0.136
Mof_C 	C 	0.7371	0.2016	0.2774	-0.005
Mof_C 	C 	0.8332	0.2608	0.225	0.012
Mof_C 	C 	0.0353	0.2206	0.2682	-0.013
Mof_C 	C 	0.9482	0.1622	0.3232	0.012
Mof_C 	C 	0.35049	0.74438	0.44961	0.416
Mof_C 	C 	0.32758	0.63336	0.4858	-0.116
Mof_C 	C 	0.4384	0.6462	0.543	-0.007
Mof_C 	C 	0.4052	0.5518	0.5836	0.007
Mof_C 	C 	0.166	0.4288	0.5097	0.031
Mof_C 	C 	0.1904	0.52	0.4668	-0.037
Mof_C 	C 	0.94771	0.92802	0.47648	0.273
Mof_C 	C 	0.2186	0.9252	0.23212	0.278
Mof_N 	N 	0.28848	0.26776	0.7188	-0.243
Mof_N 	N 	0.1765	0.4452	0.0688	-0.241
Mof_N 	N 	0.02072	0.73224	0.7812	-0.234
Mof_N 	N 	0.7313	0.5548	0.4312	-0.242
Mof_N 	N 	0.71152	0.73224	0.2812	-0.243
Mof_N 	N 	0.8235	0.5548	0.9312	-0.241
Mof_N 	N 	0.97928	0.26776	0.2188	-0.234
Mof_N 	N 	0.2687	0.4452	0.5688	-0.242
Mof_O 	O 	0.49051	0.03542	0.86444	-0.59
Mof_O 	O 	0.31593	0.07726	0.9436	-0.571
Mof_O 	O 	0.48982	0.73204	0.90114	-0.515
Mof_O 	O 	0.37545	0.8501	0.97312	-0.658
Mof_O 	O 	0.86335	0.8709	0.92316	-0.544
Mof_O 	O 	0.06628	0.87736	0.99582	-0.513
Mof_O 	O 	0.65502	0.85744	0.7806	-0.47
Mof_O 	O 	0.70662	0.88324	0.6577	-0.472
Mof_O 	O 	0.45509	0.96458	0.63556	-0.599
Mof_O 	O 	0.23867	0.92274	0.5564	-0.578
Mof_O 	O 	0.75778	0.26796	0.59886	-0.518
Mof_O 	O 	0.52535	0.1499	0.52688	-0.663
Mof_O 	O 	0.99245	0.1291	0.57684	-0.541
Mof_O 	O 	0.18892	0.12264	0.50418	-0.526
Mof_O 	O 	0.79758	0.14256	0.7194	-0.474
Mof_O 	O 	0.82338	0.11676	0.8423	-0.468
Mof_O 	O 	0.50949	0.96458	0.13556	-0.59
Mof_O 	O 	0.68407	0.92274	0.0564	-0.571
Mof_O 	O 	0.51018	0.26796	0.09886	-0.515
Mof_O 	O 	0.62455	0.1499	0.02688	-0.658
Mof_O 	O 	0.13665	0.1291	0.07684	-0.544
Mof_O 	O 	0.93372	0.12264	0.00418	-0.513
Mof_O 	O 	0.34498	0.14256	0.2194	-0.47
Mof_O 	O 	0.29338	0.11676	0.3423	-0.472
Mof_O 	O 	0.54491	0.03542	0.36444	-0.599
Mof_O 	O 	0.76133	0.07726	0.4436	-0.578
Mof_O 	O 	0.24222	0.73204	0.40114	-0.518
Mof_O 	O 	0.47465	0.8501	0.47312	-0.663
Mof_O 	O 	0.00755	0.8709	0.42316	-0.541
Mof_O 	O 	0.81108	0.87736	0.49582	-0.526
Mof_O 	O 	0.20242	0.85744	0.2806	-0.474
Mof_O 	O 	0.17662	0.88324	0.1577	-0.468
_end
