data_functionalizedCrystal
_audit_creation_method	'EQeq! by Chris Wilmer'
_symmetry_space_group_name_H-M	'P1'
_symmetry_Int_Tables_number	1
_symmetry_cell_setting	triclinic
loop_
_symmetry_equiv_pos_as_xyz
  x,y,z
_cell_length_a	13.5642
_cell_length_b	13.5642
_cell_length_c	15.6425
_cell_angle_alpha	90
_cell_angle_beta	90
_cell_angle_gamma	90
loop_
_atom_site_label
_atom_site_type_symbol
_atom_site_fract_x
_atom_site_fract_y
_atom_site_fract_z
_atom_site_charge
Mof_S 	S 	0.7236	0.7847	0.8921	0.114
Mof_O 	O 	0.621	0.9513	0.9855	-0.417
Mof_O 	O 	0.5272	0.997	0.8786	-0.487
Mof_O 	O 	0.8074	0.6066	0.7085	-0.525
Mof_O 	O 	0.8523	0.6143	0.8422	-0.461
Mof_C 	C 	0.7989	0.6445	0.7824	0.335
Mof_C 	C 	0.5938	0.9421	0.91	0.322
Mof_C 	C 	0.6368	0.8648	0.8543	-0.071
Mof_C 	C 	0.7309	0.727	0.7949	-0.083
Mof_C 	C 	0.6678	0.7658	0.7372	-0.009
Mof_H 	H 	0.6598	0.7421	0.6818	0.064
Mof_C 	C 	0.6155	0.8471	0.7713	-0.009
Mof_H 	H 	0.5709	0.8845	0.7398	0.065
Mof_S 	S 	0.2764	0.2153	0.3921	0.097
Mof_O 	O 	0.379	0.0487	0.4855	-0.448
Mof_O 	O 	0.4728	0.003	0.3786	-0.507
Mof_O 	O 	0.1926	0.3934	0.2085	-0.532
Mof_O 	O 	0.1477	0.3857	0.3422	-0.467
Mof_C 	C 	0.2011	0.3555	0.2824	0.334
Mof_C 	C 	0.4062	0.0579	0.41	0.322
Mof_C 	C 	0.3632	0.1352	0.3543	-0.071
Mof_C 	C 	0.2691	0.273	0.2949	-0.086
Mof_C 	C 	0.3322	0.2342	0.2372	-0.008
Mof_H 	H 	0.3402	0.2579	0.1818	0.058
Mof_C 	C 	0.3845	0.1529	0.2713	-0.014
Mof_H 	H 	0.4291	0.1155	0.2398	0.068
Mof_S 	S 	0.2153	0.7236	0.6421	0.101
Mof_O 	O 	0.0487	0.621	0.7355	-0.447
Mof_O 	O 	0.003	0.5272	0.6286	-0.509
Mof_O 	O 	0.3934	0.8074	0.4585	-0.525
Mof_O 	O 	0.3857	0.8523	0.5922	-0.465
Mof_C 	C 	0.3555	0.7989	0.5324	0.333
Mof_C 	C 	0.0579	0.5938	0.66	0.323
Mof_C 	C 	0.1352	0.6368	0.6043	-0.072
Mof_C 	C 	0.273	0.7309	0.5449	-0.083
Mof_C 	C 	0.2342	0.6678	0.4872	-0.01
Mof_H 	H 	0.2579	0.6598	0.4318	0.063
Mof_C 	C 	0.1529	0.6155	0.5213	-0.011
Mof_H 	H 	0.1155	0.5709	0.4898	0.066
Mof_S 	S 	0.7847	0.2764	0.1421	0.09
Mof_O 	O 	0.9513	0.379	0.2355	-0.445
Mof_O 	O 	0.997	0.4728	0.1286	-0.505
Mof_O 	O 	0.6066	0.1926	0.9585	-0.463
Mof_O 	O 	0.6143	0.1477	0.0922	-0.454
Mof_C 	C 	0.6445	0.2011	0.0324	0.31
Mof_C 	C 	0.9421	0.4062	0.16	0.282
Mof_C 	C 	0.8648	0.3632	0.1043	0.019
Mof_C 	C 	0.727	0.2691	0.0449	-0.198
Mof_C 	C 	0.7658	0.3322	0.9872	0.253
Mof_H 	H 	0.7421	0.3402	0.9318	-0.019
Mof_C 	C 	0.8471	0.3845	0.0213	-0.29
Mof_H 	H 	0.8845	0.4291	0.9898	0.196
Mof_S 	S 	0.2764	0.7847	0.1079	0.073
Mof_O 	O 	0.379	0.9513	0.0145	-0.465
Mof_O 	O 	0.4728	0.997	0.1214	-0.506
Mof_O 	O 	0.1926	0.6066	0.2915	-0.526
Mof_O 	O 	0.1477	0.6143	0.1578	-0.473
Mof_C 	C 	0.2011	0.6445	0.2176	0.331
Mof_C 	C 	0.4062	0.9421	0.09	0.322
Mof_C 	C 	0.3632	0.8648	0.1457	-0.077
Mof_C 	C 	0.2691	0.727	0.2051	-0.08
Mof_C 	C 	0.3322	0.7658	0.2628	-0.015
Mof_H 	H 	0.3402	0.7421	0.3182	0.064
Mof_C 	C 	0.3845	0.8471	0.2287	-0.01
Mof_H 	H 	0.4291	0.8845	0.2602	0.063
Mof_S 	S 	0.7236	0.2153	0.6079	0.096
Mof_O 	O 	0.621	0.0487	0.5145	-0.449
Mof_O 	O 	0.5272	0.003	0.6214	-0.504
Mof_O 	O 	0.8074	0.3934	0.7915	-0.519
Mof_O 	O 	0.8523	0.3857	0.6578	-0.465
Mof_C 	C 	0.7989	0.3555	0.7176	0.333
Mof_C 	C 	0.5938	0.0579	0.59	0.323
Mof_C 	C 	0.6368	0.1352	0.6457	-0.071
Mof_C 	C 	0.7309	0.273	0.7051	-0.078
Mof_C 	C 	0.6678	0.2342	0.7628	-0.01
Mof_H 	H 	0.6598	0.2579	0.8182	0.07
Mof_C 	C 	0.6155	0.1529	0.7287	-0.009
Mof_H 	H 	0.5709	0.1155	0.7602	0.07
Mof_S 	S 	0.7847	0.7236	0.3579	0.088
Mof_O 	O 	0.9513	0.621	0.2645	-0.457
Mof_O 	O 	0.997	0.5272	0.3714	-0.512
Mof_O 	O 	0.6066	0.8074	0.5415	-0.524
Mof_O 	O 	0.6143	0.8523	0.4078	-0.468
Mof_C 	C 	0.6445	0.7989	0.4676	0.332
Mof_C 	C 	0.9421	0.5938	0.34	0.324
Mof_C 	C 	0.8648	0.6368	0.3957	-0.073
Mof_C 	C 	0.727	0.7309	0.4551	-0.081
Mof_C 	C 	0.7658	0.6678	0.5128	-0.012
Mof_H 	H 	0.7421	0.6598	0.5682	0.064
Mof_C 	C 	0.8471	0.6155	0.4787	-0.01
Mof_H 	H 	0.8845	0.5709	0.5102	0.065
Mof_S 	S 	0.2153	0.2764	0.8579	0.105
Mof_O 	O 	0.0487	0.379	0.7645	-0.46
Mof_O 	O 	0.003	0.4728	0.8714	-0.513
Mof_O 	O 	0.3934	0.1926	0.0415	-0.545
Mof_O 	O 	0.3857	0.1477	0.9078	-0.437
Mof_C 	C 	0.3555	0.2011	0.9676	0.348
Mof_C 	C 	0.0579	0.4062	0.84	0.372
Mof_C 	C 	0.1352	0.3632	0.8957	-0.179
Mof_C 	C 	0.273	0.2691	0.9551	0.056
Mof_C 	C 	0.2342	0.3322	0.0128	-0.316
Mof_H 	H 	0.2579	0.3402	0.0682	0.161
Mof_C 	C 	0.1529	0.3845	0.9787	0.318
Mof_H 	H 	0.1155	0.4291	0.0102	-0.087
Mof_In	In	0.5	0.0766	-0	2.356
Mof_In	In	0.5	0.9234	0.5	2.481
Mof_In	In	0.9234	0.5	0.75	2.495
Mof_In	In	0.0766	0.5	0.25	2.497
_end
