# CIF file generated by openbabel 3.1.0, see https://openbabel.org
data_I
_chemical_name_common 'image0'
_cell_length_a 10.281
_cell_length_b 13.844
_cell_length_c 17.064
_cell_angle_alpha 90
_cell_angle_beta 90
_cell_angle_gamma 90
_space_group_name_H-M_alt 'P 1'
_space_group_name_Hall 'P 1'
loop_
    _symmetry_equiv_pos_as_xyz
    x,y,z
loop_
    _atom_site_label
    _atom_site_type_symbol
    _atom_site_fract_x
    _atom_site_fract_y
    _atom_site_fract_z
    _atom_site_occupancy
    P1       P        0.36760    0.25328    0.20387    1.000
    P2       P        0.12630    0.46013    0.33711    1.000
    P3       P        0.37070    0.56668    0.58027    1.000
    Al1      Al       0.32980    0.47890    0.19812    1.000
    Al2      Al       0.37490    0.56170    0.39344    1.000
    Al3      Al       0.12190    0.24140    0.30632    1.000
    O1       O        0.32700    0.35310    0.17740    1.000
    O2       O        0.11820    0.35120    0.35550    1.000
    O3       O        0.40360    0.51820    0.28920    1.000
    O4       O        0.35870    0.18570    0.13500    1.000
    O5       O        0.22040    0.50240    0.39590    1.000
    O6       O        0.16850    0.47630    0.25300    1.000
    O7       O        0.46670    0.48330    0.58450    1.000
    O8       O        0.42290    0.65290    0.62740    1.000
    O9       O        0.35020    0.59910    0.49670    1.000
    O10      O        0.23940    0.53750    0.61490    1.000
    O11      O        0.27790    0.21930    0.27030    1.000
    O12      O        0.99460    0.50470    0.35130    1.000
    O13      O        0.50760    0.25500    0.23250    1.000
    H1       H        0.50190    0.52960    0.28620    1.000
    P4       P        0.63240    0.24672    0.70387    1.000
    P5       P        0.87370    0.03987    0.83711    1.000
    P6       P        0.62930    0.93332    0.08027    1.000
    Al4      Al       0.67020    0.02110    0.69812    1.000
    Al5      Al       0.62510    0.93830    0.89344    1.000
    Al6      Al       0.87810    0.25860    0.80632    1.000
    O14      O        0.67300    0.14690    0.67740    1.000
    O15      O        0.88180    0.14880    0.85550    1.000
    O16      O        0.59640    0.98180    0.78920    1.000
    O17      O        0.64130    0.31430    0.63500    1.000
    O18      O        0.77960    0.99760    0.89590    1.000
    O19      O        0.83150    0.02370    0.75300    1.000
    O20      O        0.53330    0.01670    0.08450    1.000
    O21      O        0.57710    0.84710    0.12740    1.000
    O22      O        0.64980    0.90090    0.99670    1.000
    O23      O        0.76060    0.96250    0.11490    1.000
    O24      O        0.72210    0.28070    0.77030    1.000
    O25      O        0.00540    0.99530    0.85130    1.000
    O26      O        0.49240    0.24500    0.73250    1.000
    H2       H        0.49810    0.97040    0.78620    1.000
    P7       P        0.86760    0.74672    0.29613    1.000
    P8       P        0.62630    0.53987    0.16289    1.000
    P9       P        0.87070    0.43332    0.91973    1.000
    Al7      Al       0.82980    0.52110    0.30188    1.000
    Al8      Al       0.87490    0.43830    0.10656    1.000
    Al9      Al       0.62190    0.75860    0.19368    1.000
    O27      O        0.82700    0.64690    0.32260    1.000
    O28      O        0.61820    0.64880    0.14450    1.000
    O29      O        0.90360    0.48180    0.21080    1.000
    O30      O        0.85870    0.81430    0.36500    1.000
    O31      O        0.72040    0.49760    0.10410    1.000
    O32      O        0.66850    0.52370    0.24700    1.000
    O33      O        0.96670    0.51670    0.91550    1.000
    O34      O        0.92290    0.34710    0.87260    1.000
    O35      O        0.85020    0.40090    0.00330    1.000
    O36      O        0.73940    0.46250    0.88510    1.000
    O37      O        0.77790    0.78070    0.22970    1.000
    O38      O        0.49460    0.49530    0.14870    1.000
    O39      O        0.00760    0.74500    0.26750    1.000
    H3       H        0.00190    0.47040    0.21380    1.000
    P10      P        0.13240    0.75328    0.79613    1.000
    P11      P        0.37370    0.96013    0.66289    1.000
    P12      P        0.12930    0.06668    0.41973    1.000
    Al10     Al       0.17020    0.97890    0.80188    1.000
    Al11     Al       0.12510    0.06170    0.60656    1.000
    Al12     Al       0.37810    0.74140    0.69368    1.000
    O40      O        0.17300    0.85310    0.82260    1.000
    O41      O        0.38180    0.85120    0.64450    1.000
    O42      O        0.09640    0.01820    0.71080    1.000
    O43      O        0.14130    0.68570    0.86500    1.000
    O44      O        0.27960    0.00240    0.60410    1.000
    O45      O        0.33150    0.97630    0.74700    1.000
    O46      O        0.03330    0.98330    0.41550    1.000
    O47      O        0.07710    0.15290    0.37260    1.000
    O48      O        0.14980    0.09910    0.50330    1.000
    O49      O        0.26060    0.03750    0.38510    1.000
    O50      O        0.22210    0.71930    0.72970    1.000
    O51      O        0.50540    0.00470    0.64870    1.000
    O52      O        0.99240    0.75500    0.76750    1.000
    H4       H        0.99810    0.02960    0.71380    1.000
    P13      P        0.63240    0.74672    0.79613    1.000
    P14      P        0.87370    0.53987    0.66289    1.000
    P15      P        0.62930    0.43332    0.41973    1.000
    Al13     Al       0.67020    0.52110    0.80188    1.000
    Al14     Al       0.62510    0.43830    0.60656    1.000
    Al15     Al       0.87810    0.75860    0.69368    1.000
    O53      O        0.67300    0.64690    0.82260    1.000
    O54      O        0.88180    0.64880    0.64450    1.000
    O55      O        0.59640    0.48180    0.71080    1.000
    O56      O        0.64130    0.81430    0.86500    1.000
    O57      O        0.77960    0.49760    0.60410    1.000
    O58      O        0.83150    0.52370    0.74700    1.000
    O59      O        0.53330    0.51670    0.41550    1.000
    O60      O        0.57710    0.34710    0.37260    1.000
    O61      O        0.64980    0.40090    0.50330    1.000
    O62      O        0.76060    0.46250    0.38510    1.000
    O63      O        0.72210    0.78070    0.72970    1.000
    O64      O        0.00540    0.49530    0.64870    1.000
    O65      O        0.49240    0.74500    0.76750    1.000
    H5       H        0.49810    0.47040    0.71380    1.000
    P16      P        0.36760    0.75328    0.29613    1.000
    P17      P        0.12630    0.96013    0.16289    1.000
    P18      P        0.37070    0.06668    0.91973    1.000
    Al16     Al       0.32980    0.97890    0.30188    1.000
    Al17     Al       0.37490    0.06170    0.10656    1.000
    Al18     Al       0.12190    0.74140    0.19368    1.000
    O66      O        0.32700    0.85310    0.32260    1.000
    O67      O        0.11820    0.85120    0.14450    1.000
    O68      O        0.40360    0.01820    0.21080    1.000
    O69      O        0.35870    0.68570    0.36500    1.000
    O70      O        0.22040    0.00240    0.10410    1.000
    O71      O        0.16850    0.97630    0.24700    1.000
    O72      O        0.46670    0.98330    0.91550    1.000
    O73      O        0.42290    0.15290    0.87260    1.000
    O74      O        0.35020    0.09910    0.00330    1.000
    O75      O        0.23940    0.03750    0.88510    1.000
    O76      O        0.27790    0.71930    0.22970    1.000
    O77      O        0.99460    0.00470    0.14870    1.000
    O78      O        0.50760    0.75500    0.26750    1.000
    H6       H        0.50190    0.02960    0.21380    1.000
    P19      P        0.13240    0.25328    0.70387    1.000
    P20      P        0.37370    0.46013    0.83711    1.000
    P21      P        0.12930    0.56668    0.08027    1.000
    Al19     Al       0.17020    0.47890    0.69812    1.000
    Al20     Al       0.12510    0.56170    0.89344    1.000
    Al21     Al       0.37810    0.24140    0.80632    1.000
    O79      O        0.17300    0.35310    0.67740    1.000
    O80      O        0.38180    0.35120    0.85550    1.000
    O81      O        0.09640    0.51820    0.78920    1.000
    O82      O        0.14130    0.18570    0.63500    1.000
    O83      O        0.27960    0.50240    0.89590    1.000
    O84      O        0.33150    0.47630    0.75300    1.000
    O85      O        0.03330    0.48330    0.08450    1.000
    O86      O        0.07710    0.65290    0.12740    1.000
    O87      O        0.14980    0.59910    0.99670    1.000
    O88      O        0.26060    0.53750    0.11490    1.000
    O89      O        0.22210    0.21930    0.77030    1.000
    O90      O        0.50540    0.50470    0.85130    1.000
    O91      O        0.99240    0.25500    0.73250    1.000
    H7       H        0.99810    0.52960    0.78620    1.000
    P22      P        0.86760    0.24672    0.20387    1.000
    P23      P        0.62630    0.03987    0.33711    1.000
    P24      P        0.87070    0.93332    0.58027    1.000
    Al22     Al       0.82980    0.02110    0.19812    1.000
    Al23     Al       0.87490    0.93830    0.39344    1.000
    Al24     Al       0.62190    0.25860    0.30632    1.000
    O92      O        0.82700    0.14690    0.17740    1.000
    O93      O        0.61820    0.14880    0.35550    1.000
    O94      O        0.90360    0.98180    0.28920    1.000
    O95      O        0.85870    0.31430    0.13500    1.000
    O96      O        0.72040    0.99760    0.39590    1.000
    O97      O        0.66850    0.02370    0.25300    1.000
    O98      O        0.96670    0.01670    0.58450    1.000
    O99      O        0.92290    0.84710    0.62740    1.000
    O100     O        0.85020    0.90090    0.49670    1.000
    O101     O        0.73940    0.96250    0.61490    1.000
    O102     O        0.77790    0.28070    0.27030    1.000
    O103     O        0.49460    0.99530    0.35130    1.000
    O104     O        0.00760    0.24500    0.23250    1.000
    H8       H        0.00190    0.97040    0.28620    1.000
