# CIF file generated by openbabel 3.1.0, see https://openbabel.org
data_I
_chemical_name_common 'image0'
_cell_length_a 8.502
_cell_length_b 9.431
_cell_length_c 12.93
_cell_angle_alpha 90
_cell_angle_beta 104.77
_cell_angle_gamma 90
_space_group_name_H-M_alt 'P 1'
_space_group_name_Hall 'P 1'
loop_
    _symmetry_equiv_pos_as_xyz
    x,y,z
loop_
    _atom_site_label
    _atom_site_type_symbol
    _atom_site_fract_x
    _atom_site_fract_y
    _atom_site_fract_z
    _atom_site_occupancy
    N1       N        0.71850    0.12950    0.99810    1.000
    N2       N        0.55040    0.04630    0.17500    1.000
    N3       N        0.33730    0.18980    0.95970    1.000
    N4       N        0.21850    0.62950    0.99810    1.000
    N5       N        0.05040    0.54630    0.17500    1.000
    N6       N        0.83730    0.68980    0.95970    1.000
    N7       N        0.28150    0.12950    0.50190    1.000
    N8       N        0.44960    0.04630    0.32500    1.000
    N9       N        0.66270    0.18980    0.54030    1.000
    N10      N        0.78150    0.62950    0.50190    1.000
    N11      N        0.94960    0.54630    0.32500    1.000
    N12      N        0.16270    0.68980    0.54030    1.000
    N13      N        0.28150    0.87050    0.00190    1.000
    N14      N        0.44960    0.95370    0.82500    1.000
    N15      N        0.66270    0.81020    0.04030    1.000
    N16      N        0.78150    0.37050    0.00190    1.000
    N17      N        0.94960    0.45370    0.82500    1.000
    N18      N        0.16270    0.31020    0.04030    1.000
    N19      N        0.71850    0.87050    0.49810    1.000
    N20      N        0.55040    0.95370    0.67500    1.000
    N21      N        0.33730    0.81020    0.45970    1.000
    N22      N        0.21850    0.37050    0.49810    1.000
    N23      N        0.05040    0.45370    0.67500    1.000
    N24      N        0.83730    0.31020    0.45970    1.000
    Mn1      Mn       0.50000    0.00000    0.00000    1.000
    Mn2      Mn       0.00000    0.50000    0.00000    1.000
    Mn3      Mn       0.50000    0.00000    0.50000    1.000
    Mn4      Mn       0.00000    0.50000    0.50000    1.000
    N25      N        0.50000    0.04360    0.25000    1.000
    N26      N        0.00000    0.54360    0.25000    1.000
    N27      N        0.50000    0.95640    0.75000    1.000
    N28      N        0.00000    0.45640    0.75000    1.000
    N29      N        0.75000    0.25000    0.00000    1.000
    N30      N        0.25000    0.25000    0.50000    1.000
    N31      N        0.25000    0.75000    0.00000    1.000
    N32      N        0.75000    0.75000    0.50000    1.000
    N33      N        0.25000    0.25000    0.00000    1.000
    N34      N        0.75000    0.25000    0.50000    1.000
    N35      N        0.75000    0.75000    0.00000    1.000
    N36      N        0.25000    0.75000    0.50000    1.000
