data_functionalizedCrystal
_audit_creation_method	'EQeq! by Chris Wilmer'
_symmetry_space_group_name_H-M	'P1'
_symmetry_Int_Tables_number	1
_symmetry_cell_setting	triclinic
loop_
_symmetry_equiv_pos_as_xyz
  x,y,z
_cell_length_a	24.0569
_cell_length_b	16.084
_cell_length_c	16.5679
_cell_angle_alpha	90
_cell_angle_beta	132.762
_cell_angle_gamma	90
loop_
_atom_site_label
_atom_site_type_symbol
_atom_site_fract_x
_atom_site_fract_y
_atom_site_fract_z
_atom_site_charge
Mof_C 	C 	0.0087	0.8561	0.3583	0.025
Mof_H 	H 	0.0576	0.8466	0.4287	0.02
Mof_C 	C 	0.9856	0.8059	0.2736	-0.108
Mof_H 	H 	0.0173	0.7626	0.2855	0.056
Mof_C 	C 	0.9146	0.8197	0.1695	0.159
Mof_C 	C 	0.8711	0.8833	0.1574	-0.185
Mof_H 	H 	0.8228	0.8956	0.0875	0.092
Mof_C 	C 	0.8993	0.929	0.2492	0.094
Mof_H 	H 	0.8683	0.9715	0.2408	-0.001
Mof_C 	C 	0.0369	0.6778	0.1089	0.121
Mof_H 	H 	0.088	0.6891	0.1451	-0.017
Mof_C 	C 	0.0003	0.7355	0.1184	-0.241
Mof_H 	H 	0.0244	0.7861	0.1569	0.104
Mof_C 	C 	0.9258	0.7182	0.0696	0.214
Mof_C 	C 	0.8926	0.645	0.0074	-0.198
Mof_H 	H 	0.8413	0.6323	0.9692	0.073
Mof_C 	C 	0.9346	0.592	0.0021	0.168
Mof_H 	H 	0.9111	0.5424	0.9604	-0.039
Mof_C 	C 	0.9508	0.1504	0.3447	0.106
Mof_H 	H 	0.9971	0.1379	0.3637	0.003
Mof_C 	C 	0.9101	0.2196	0.2799	-0.203
Mof_H 	H 	0.9283	0.2533	0.2548	0.095
Mof_C 	C 	0.8426	0.2393	0.2518	0.195
Mof_C 	C 	0.8185	0.1869	0.2899	-0.212
Mof_H 	H 	0.7727	0.1978	0.2727	0.096
Mof_C 	C 	0.8614	0.1202	0.3517	0.117
Mof_H 	H 	0.8432	0.0849	0.3754	-0.018
Mof_C 	C 	0.6414	0.4455	0.0205	0.165
Mof_H 	H 	0.6195	0.4839	0.9621	-0.043
Mof_C 	C 	0.7056	0.404	0.0594	-0.234
Mof_H 	H 	0.7266	0.4134	0.028	0.11
Mof_C 	C 	0.7396	0.3474	0.1468	0.21
Mof_C 	C 	0.7062	0.3384	0.1892	-0.223
Mof_H 	H 	0.7271	0.3022	0.2493	0.097
Mof_C 	C 	0.6417	0.384	0.1409	0.128
Mof_H 	H 	0.6196	0.3768	0.1709	-0.02
Mof_C 	C 	0.1961	0.572	0.0487	0.081
Mof_H 	H 	0.2262	0.5267	0.0962	0.003
Mof_C 	C 	0.2235	0.62	0.0126	-0.147
Mof_H 	H 	0.2702	0.607	0.0331	0.081
Mof_C 	C 	0.1801	0.6882	0.9449	0.137
Mof_C 	C 	0.1133	0.704	0.9193	-0.177
Mof_H 	H 	0.0834	0.7508	0.8752	0.081
Mof_C 	C 	0.0901	0.6526	0.9573	0.057
Mof_H 	H 	0.0436	0.6649	0.9376	-0.002
Mof_C 	C 	0.1541	0.8992	0.7136	0.103
Mof_H 	H 	0.1783	0.9436	0.7099	-0.005
Mof_C 	C 	0.1977	0.8514	0.8067	-0.202
Mof_H 	H 	0.2501	0.8626	0.8648	0.085
Mof_C 	C 	0.1638	0.7866	0.8147	0.165
Mof_C 	C 	0.0865	0.7721	0.724	-0.18
Mof_H 	H 	0.0608	0.7277	0.7246	0.08
Mof_C 	C 	0.0493	0.8236	0.6347	0.06
Mof_H 	H 	0.9974	0.8122	0.5732	0.015
Mof_C 	C 	0.2143	0.3571	0.2085	0.109
Mof_H 	H 	0.2229	0.38	0.269	-0.016
Mof_C 	C 	0.2582	0.2893	0.2293	-0.207
Mof_H 	H 	0.2943	0.266	0.3008	0.095
Mof_C 	C 	0.2477	0.2572	0.1434	0.183
Mof_C 	C 	0.1927	0.2936	0.0388	-0.181
Mof_H 	H 	0.1842	0.2728	0.9774	0.061
Mof_C 	C 	0.1526	0.3582	0.0276	0.139
Mof_H 	H 	0.1155	0.3819	0.9565	-0.037
Mof_C 	C 	0.4684	0.1459	0.4317	0.098
Mof_H 	H 	0.5026	0.1722	0.5015	-0.007
Mof_C 	C 	0.4053	0.1895	0.3451	-0.204
Mof_H 	H 	0.3979	0.2452	0.3552	0.097
Mof_C 	C 	0.3529	0.1518	0.2434	0.191
Mof_C 	C 	0.3714	0.0724	0.2327	-0.211
Mof_H 	H 	0.3396	0.0461	0.1628	0.097
Mof_C 	C 	0.4345	0.033	0.3219	0.116
Mof_H 	H 	0.4438	0.9781	0.3123	-0.012
Mof_Cd	Cd	0.00275	0.99065	0.49744	0.308
Mof_Cd	Cd	0.08613	0.50076	0.08056	0.331
Mof_N 	N 	0.0066	0.6057	0.0521	-0.191
Mof_N 	N 	0.8855	0.7712	0.0784	-0.244
Mof_H 	H 	0.8365	0.775	0.021	0.126
Mof_N 	N 	0.9675	0.9168	0.349	-0.145
Mof_N 	N 	0.9275	0.0998	0.3822	-0.169
Mof_N 	N 	0.8046	0.3089	0.1852	-0.25
Mof_H 	H 	0.826	0.3324	0.164	0.124
Mof_N 	N 	0.6074	0.4359	0.0586	-0.18
Mof_N 	N 	0.1294	0.5852	0.0211	-0.149
Mof_N 	N 	0.2071	0.736	0.9084	-0.236
Mof_H 	H 	0.2562	0.7346	0.9478	0.108
Mof_N 	N 	0.0803	0.8882	0.6276	-0.169
Mof_N 	N 	0.1613	0.3923	0.111	-0.178
Mof_N 	N 	0.287	0.189	0.1506	-0.245
Mof_H 	H 	0.267	0.1665	0.0875	0.126
Mof_N 	N 	0.4845	0.0665	0.4227	-0.171
Mof_C 	C 	0.5087	0.6439	0.8583	0.115
Mof_H 	H 	0.5576	0.6534	0.9287	-0.015
Mof_C 	C 	0.4856	0.6941	0.7736	-0.217
Mof_H 	H 	0.5173	0.7374	0.7855	0.101
Mof_C 	C 	0.4146	0.6803	0.6695	0.194
Mof_C 	C 	0.3711	0.6167	0.6574	-0.214
Mof_H 	H 	0.3228	0.6044	0.5875	0.096
Mof_C 	C 	0.3993	0.571	0.7492	0.109
Mof_H 	H 	0.3683	0.5285	0.7408	-0.008
Mof_C 	C 	0.5369	0.8222	0.6089	0.106
Mof_H 	H 	0.588	0.8109	0.6451	-0.015
Mof_C 	C 	0.5003	0.7645	0.6184	-0.208
Mof_H 	H 	0.5244	0.7139	0.6569	0.094
Mof_C 	C 	0.4258	0.7818	0.5696	0.186
Mof_C 	C 	0.3926	0.855	0.5074	-0.206
Mof_H 	H 	0.3413	0.8677	0.4692	0.091
Mof_C 	C 	0.4346	0.908	0.5021	0.108
Mof_H 	H 	0.4111	0.9576	0.4604	-0.008
Mof_C 	C 	0.4508	0.3496	0.8447	0.1
Mof_H 	H 	0.4971	0.3621	0.8637	-0.009
Mof_C 	C 	0.4101	0.2804	0.7799	-0.206
Mof_H 	H 	0.4283	0.2467	0.7548	0.088
Mof_C 	C 	0.3426	0.2607	0.7518	0.189
Mof_C 	C 	0.3185	0.3131	0.7899	-0.213
Mof_H 	H 	0.2727	0.3022	0.7727	0.093
Mof_C 	C 	0.3614	0.3798	0.8517	0.112
Mof_H 	H 	0.3432	0.4151	0.8754	-0.024
Mof_C 	C 	0.1414	0.0545	0.5205	0.107
Mof_H 	H 	0.1195	0.0161	0.4621	-0.011
Mof_C 	C 	0.2056	0.096	0.5594	-0.207
Mof_H 	H 	0.2266	0.0866	0.528	0.092
Mof_C 	C 	0.2396	0.1526	0.6468	0.192
Mof_C 	C 	0.2062	0.1616	0.6892	-0.215
Mof_H 	H 	0.2271	0.1978	0.7493	0.091
Mof_C 	C 	0.1417	0.116	0.6409	0.118
Mof_H 	H 	0.1196	0.1232	0.6709	-0.023
Mof_C 	C 	0.6961	0.928	0.5487	0.1
Mof_H 	H 	0.7262	0.9733	0.5962	-0.005
Mof_C 	C 	0.7235	0.88	0.5126	-0.202
Mof_H 	H 	0.7702	0.893	0.5331	0.093
Mof_C 	C 	0.6801	0.8118	0.4449	0.189
Mof_C 	C 	0.6133	0.796	0.4193	-0.211
Mof_H 	H 	0.5834	0.7492	0.3752	0.1
Mof_C 	C 	0.5901	0.8474	0.4573	0.106
Mof_H 	H 	0.5436	0.8351	0.4376	-0.004
Mof_C 	C 	0.6541	0.6008	0.2136	0.114
Mof_H 	H 	0.6783	0.5564	0.2099	-0.005
Mof_C 	C 	0.6977	0.6486	0.3067	-0.213
Mof_H 	H 	0.7501	0.6374	0.3648	0.094
Mof_C 	C 	0.6638	0.7134	0.3147	0.184
Mof_C 	C 	0.5865	0.7279	0.224	-0.208
Mof_H 	H 	0.5608	0.7723	0.2246	0.095
Mof_C 	C 	0.5493	0.6764	0.1347	0.111
Mof_H 	H 	0.4974	0.6878	0.0732	-0.011
Mof_C 	C 	0.7143	0.1429	0.7085	0.112
Mof_H 	H 	0.7229	0.12	0.769	-0.019
Mof_C 	C 	0.7582	0.2107	0.7293	-0.212
Mof_H 	H 	0.7943	0.234	0.8008	0.095
Mof_C 	C 	0.7477	0.2428	0.6434	0.192
Mof_C 	C 	0.6927	0.2064	0.5388	-0.213
Mof_H 	H 	0.6842	0.2272	0.4774	0.09
Mof_C 	C 	0.6526	0.1418	0.5276	0.112
Mof_H 	H 	0.6155	0.1181	0.4565	-0.009
Mof_C 	C 	0.9684	0.3541	0.9317	0.091
Mof_H 	H 	0.0026	0.3278	0.0015	-0.002
Mof_C 	C 	0.9053	0.3105	0.8451	-0.199
Mof_H 	H 	0.8979	0.2548	0.8552	0.094
Mof_C 	C 	0.8529	0.3482	0.7434	0.188
Mof_C 	C 	0.8714	0.4276	0.7327	-0.207
Mof_H 	H 	0.8396	0.4539	0.6628	0.093
Mof_C 	C 	0.9345	0.467	0.8219	0.115
Mof_H 	H 	0.9438	0.5219	0.8123	-0.009
Mof_Cd	Cd	0.50275	0.50935	0.99744	0.306
Mof_Cd	Cd	0.58613	0.99924	0.58056	0.326
Mof_N 	N 	0.5066	0.8943	0.5521	-0.174
Mof_N 	N 	0.3855	0.7288	0.5784	-0.249
Mof_H 	H 	0.3365	0.725	0.521	0.119
Mof_N 	N 	0.4675	0.5832	0.849	-0.178
Mof_N 	N 	0.4275	0.4002	0.8822	-0.176
Mof_N 	N 	0.3046	0.1911	0.6852	-0.247
Mof_H 	H 	0.326	0.1676	0.664	0.119
Mof_N 	N 	0.1074	0.0641	0.5586	-0.179
Mof_N 	N 	0.6294	0.9148	0.5211	-0.171
Mof_N 	N 	0.7071	0.764	0.4084	-0.247
Mof_H 	H 	0.7562	0.7654	0.4478	0.12
Mof_N 	N 	0.5803	0.6118	0.1276	-0.171
Mof_N 	N 	0.6613	0.1077	0.611	-0.176
Mof_N 	N 	0.787	0.311	0.6506	-0.246
Mof_H 	H 	0.767	0.3335	0.5875	0.12
Mof_N 	N 	0.9845	0.4335	0.9227	-0.169
Mof_C 	C 	0.5087	0.3561	0.3583	0.116
Mof_H 	H 	0.5576	0.3466	0.4287	-0.009
Mof_C 	C 	0.4856	0.3059	0.2736	-0.217
Mof_H 	H 	0.5173	0.2626	0.2855	0.103
Mof_C 	C 	0.4146	0.3197	0.1695	0.197
Mof_C 	C 	0.3711	0.3833	0.1574	-0.215
Mof_H 	H 	0.3228	0.3956	0.0875	0.101
Mof_C 	C 	0.3993	0.429	0.2492	0.111
Mof_H 	H 	0.3683	0.4715	0.2408	-0.008
Mof_C 	C 	0.5369	0.1778	0.1089	0.107
Mof_H 	H 	0.588	0.1891	0.1451	-0.011
Mof_C 	C 	0.5003	0.2355	0.1184	-0.202
Mof_H 	H 	0.5244	0.2861	0.1569	0.096
Mof_C 	C 	0.4258	0.2182	0.0696	0.181
Mof_C 	C 	0.3926	0.145	0.0074	-0.172
Mof_H 	H 	0.3413	0.1323	0.9692	0.063
Mof_C 	C 	0.4346	0.092	0.0021	0.136
Mof_H 	H 	0.4111	0.0424	0.9604	-0.032
Mof_C 	C 	0.4508	0.6504	0.3447	0.104
Mof_H 	H 	0.4971	0.6379	0.3637	-0.005
Mof_C 	C 	0.4101	0.7196	0.2799	-0.205
Mof_H 	H 	0.4283	0.7533	0.2548	0.091
Mof_C 	C 	0.3426	0.7393	0.2518	0.194
Mof_C 	C 	0.3185	0.6869	0.2899	-0.213
Mof_H 	H 	0.2727	0.6978	0.2727	0.096
Mof_C 	C 	0.3614	0.6202	0.3517	0.116
Mof_H 	H 	0.3432	0.5849	0.3754	-0.02
Mof_C 	C 	0.1414	0.9455	0.0205	0.165
Mof_H 	H 	0.1195	0.9839	0.9621	-0.046
Mof_C 	C 	0.2056	0.904	0.0594	-0.235
Mof_H 	H 	0.2266	0.9134	0.028	0.11
Mof_C 	C 	0.2396	0.8474	0.1468	0.209
Mof_C 	C 	0.2062	0.8384	0.1892	-0.224
Mof_H 	H 	0.2271	0.8022	0.2493	0.097
Mof_C 	C 	0.1417	0.884	0.1409	0.127
Mof_H 	H 	0.1196	0.8768	0.1709	-0.021
Mof_C 	C 	0.6961	0.072	0.0487	0.083
Mof_H 	H 	0.7262	0.0267	0.0962	0.003
Mof_C 	C 	0.7235	0.12	0.0126	-0.15
Mof_H 	H 	0.7702	0.107	0.0331	0.083
Mof_C 	C 	0.6801	0.1882	0.9449	0.142
Mof_C 	C 	0.6133	0.204	0.9193	-0.179
Mof_H 	H 	0.5834	0.2508	0.8752	0.086
Mof_C 	C 	0.5901	0.1526	0.9573	0.062
Mof_H 	H 	0.5436	0.1649	0.9376	0.003
Mof_C 	C 	0.6541	0.3992	0.7136	0.11
Mof_H 	H 	0.6783	0.4436	0.7099	-0.007
Mof_C 	C 	0.6977	0.3514	0.8067	-0.211
Mof_H 	H 	0.7501	0.3626	0.8648	0.089
Mof_C 	C 	0.6638	0.2866	0.8147	0.178
Mof_C 	C 	0.5865	0.2721	0.724	-0.206
Mof_H 	H 	0.5608	0.2277	0.7246	0.093
Mof_C 	C 	0.5493	0.3236	0.6347	0.109
Mof_H 	H 	0.4974	0.3122	0.5732	-0.018
Mof_C 	C 	0.7143	0.8571	0.2085	0.109
Mof_H 	H 	0.7229	0.88	0.269	-0.016
Mof_C 	C 	0.7582	0.7893	0.2293	-0.208
Mof_H 	H 	0.7943	0.766	0.3008	0.096
Mof_C 	C 	0.7477	0.7572	0.1434	0.184
Mof_C 	C 	0.6927	0.7936	0.0388	-0.182
Mof_H 	H 	0.6842	0.7728	0.9774	0.064
Mof_C 	C 	0.6526	0.8582	0.0276	0.136
Mof_H 	H 	0.6155	0.8819	0.9565	-0.032
Mof_C 	C 	0.9684	0.6459	0.4317	0.146
Mof_H 	H 	0.0026	0.6722	0.5015	-0.037
Mof_C 	C 	0.9053	0.6895	0.3451	-0.228
Mof_H 	H 	0.8979	0.7452	0.3552	0.108
Mof_C 	C 	0.8529	0.6518	0.2434	0.202
Mof_C 	C 	0.8714	0.5724	0.2327	-0.217
Mof_H 	H 	0.8396	0.5461	0.1628	0.099
Mof_C 	C 	0.9345	0.533	0.3219	0.122
Mof_H 	H 	0.9438	0.4781	0.3123	-0.008
Mof_Cd	Cd	0.50275	0.49065	0.49744	0.328
Mof_Cd	Cd	0.58613	0.00076	0.08056	0.34
Mof_N 	N 	0.5066	0.1057	0.0521	-0.174
Mof_N 	N 	0.3855	0.2712	0.0784	-0.247
Mof_H 	H 	0.3365	0.275	0.021	0.127
Mof_N 	N 	0.4675	0.4168	0.349	-0.177
Mof_N 	N 	0.4275	0.5998	0.3822	-0.174
Mof_N 	N 	0.3046	0.8089	0.1852	-0.25
Mof_H 	H 	0.326	0.8324	0.164	0.123
Mof_N 	N 	0.1074	0.9359	0.0586	-0.182
Mof_N 	N 	0.6294	0.0852	0.0211	-0.15
Mof_N 	N 	0.7071	0.236	0.9084	-0.239
Mof_H 	H 	0.7562	0.2346	0.9478	0.11
Mof_N 	N 	0.5803	0.3882	0.6276	-0.177
Mof_N 	N 	0.6613	0.8923	0.111	-0.177
Mof_N 	N 	0.787	0.689	0.1506	-0.247
Mof_H 	H 	0.767	0.6665	0.0875	0.127
Mof_N 	N 	0.9845	0.5665	0.4227	-0.171
Mof_C 	C 	0.0087	0.1439	0.8583	0.016
Mof_H 	H 	0.0576	0.1534	0.9287	0.014
Mof_C 	C 	0.9856	0.1941	0.7736	-0.102
Mof_H 	H 	0.0173	0.2374	0.7855	0.049
Mof_C 	C 	0.9146	0.1803	0.6695	0.153
Mof_C 	C 	0.8711	0.1167	0.6574	-0.182
Mof_H 	H 	0.8228	0.1044	0.5875	0.087
Mof_C 	C 	0.8993	0.071	0.7492	0.091
Mof_H 	H 	0.8683	0.0285	0.7408	-0.001
Mof_C 	C 	0.0369	0.3222	0.6089	0.122
Mof_H 	H 	0.088	0.3109	0.6451	-0.021
Mof_C 	C 	0.0003	0.2645	0.6184	-0.251
Mof_H 	H 	0.0244	0.2139	0.6569	0.104
Mof_C 	C 	0.9258	0.2818	0.5696	0.223
Mof_C 	C 	0.8926	0.355	0.5074	-0.232
Mof_H 	H 	0.8413	0.3677	0.4692	0.1
Mof_C 	C 	0.9346	0.408	0.5021	0.145
Mof_H 	H 	0.9111	0.4576	0.4604	-0.017
Mof_C 	C 	0.9508	0.8496	0.8447	0.103
Mof_H 	H 	0.9971	0.8621	0.8637	0
Mof_C 	C 	0.9101	0.7804	0.7799	-0.204
Mof_H 	H 	0.9283	0.7467	0.7548	0.093
Mof_C 	C 	0.8426	0.7607	0.7518	0.19
Mof_C 	C 	0.8185	0.8131	0.7899	-0.212
Mof_H 	H 	0.7727	0.8022	0.7727	0.093
Mof_C 	C 	0.8614	0.8798	0.8517	0.113
Mof_H 	H 	0.8432	0.9151	0.8754	-0.021
Mof_C 	C 	0.6414	0.5545	0.5205	0.109
Mof_H 	H 	0.6195	0.5161	0.4621	-0.009
Mof_C 	C 	0.7056	0.596	0.5594	-0.207
Mof_H 	H 	0.7266	0.5866	0.528	0.093
Mof_C 	C 	0.7396	0.6526	0.6468	0.193
Mof_C 	C 	0.7062	0.6616	0.6892	-0.215
Mof_H 	H 	0.7271	0.6978	0.7493	0.092
Mof_C 	C 	0.6417	0.616	0.6409	0.119
Mof_H 	H 	0.6196	0.6232	0.6709	-0.021
Mof_C 	C 	0.1961	0.428	0.5487	0.098
Mof_H 	H 	0.2262	0.4733	0.5962	-0.005
Mof_C 	C 	0.2235	0.38	0.5126	-0.201
Mof_H 	H 	0.2702	0.393	0.5331	0.092
Mof_C 	C 	0.1801	0.3118	0.4449	0.187
Mof_C 	C 	0.1133	0.296	0.4193	-0.21
Mof_H 	H 	0.0834	0.2492	0.3752	0.096
Mof_C 	C 	0.0901	0.3474	0.4573	0.104
Mof_H 	H 	0.0436	0.3351	0.4376	-0.01
Mof_C 	C 	0.1541	0.1008	0.2136	0.108
Mof_H 	H 	0.1783	0.0564	0.2099	-0.003
Mof_C 	C 	0.1977	0.1486	0.3067	-0.204
Mof_H 	H 	0.2501	0.1374	0.3648	0.091
Mof_C 	C 	0.1638	0.2134	0.3147	0.173
Mof_C 	C 	0.0865	0.2279	0.224	-0.184
Mof_H 	H 	0.0608	0.2723	0.2246	0.083
Mof_C 	C 	0.0493	0.1764	0.1347	0.067
Mof_H 	H 	0.9974	0.1878	0.0732	0.019
Mof_C 	C 	0.2143	0.6429	0.7085	0.111
Mof_H 	H 	0.2229	0.62	0.769	-0.019
Mof_C 	C 	0.2582	0.7107	0.7293	-0.212
Mof_H 	H 	0.2943	0.734	0.8008	0.094
Mof_C 	C 	0.2477	0.7428	0.6434	0.191
Mof_C 	C 	0.1927	0.7064	0.5388	-0.214
Mof_H 	H 	0.1842	0.7272	0.4774	0.09
Mof_C 	C 	0.1526	0.6418	0.5276	0.112
Mof_H 	H 	0.1155	0.6181	0.4565	-0.012
Mof_C 	C 	0.4684	0.8541	0.9317	0.045
Mof_H 	H 	0.5026	0.8278	0.0015	0.026
Mof_C 	C 	0.4053	0.8105	0.8451	-0.176
Mof_H 	H 	0.3979	0.7548	0.8552	0.083
Mof_C 	C 	0.3529	0.8482	0.7434	0.177
Mof_C 	C 	0.3714	0.9276	0.7327	-0.201
Mof_H 	H 	0.3396	0.9539	0.6628	0.09
Mof_C 	C 	0.4345	0.967	0.8219	0.109
Mof_H 	H 	0.4438	0.0219	0.8123	-0.013
Mof_Cd	Cd	0.00275	0.00935	0.99744	0.285
Mof_Cd	Cd	0.08613	0.49924	0.58056	0.317
Mof_N 	N 	0.0066	0.3943	0.5521	-0.193
Mof_N 	N 	0.8855	0.2288	0.5784	-0.246
Mof_H 	H 	0.8365	0.225	0.521	0.119
Mof_N 	N 	0.9675	0.0832	0.849	-0.144
Mof_N 	N 	0.9275	0.9002	0.8822	-0.17
Mof_N 	N 	0.8046	0.6911	0.6852	-0.247
Mof_H 	H 	0.826	0.6676	0.664	0.12
Mof_N 	N 	0.6074	0.5641	0.5586	-0.178
Mof_N 	N 	0.1294	0.4148	0.5211	-0.171
Mof_N 	N 	0.2071	0.264	0.4084	-0.245
Mof_H 	H 	0.2562	0.2654	0.4478	0.118
Mof_N 	N 	0.0803	0.1118	0.1276	-0.163
Mof_N 	N 	0.1613	0.6077	0.611	-0.177
Mof_N 	N 	0.287	0.811	0.6506	-0.244
Mof_H 	H 	0.267	0.8335	0.5875	0.119
Mof_N 	N 	0.4845	0.9335	0.9227	-0.169
_end
