data_functionalizedCrystal
_audit_creation_method	'EQeq! by Chris Wilmer'
_symmetry_space_group_name_H-M	'P1'
_symmetry_Int_Tables_number	1
_symmetry_cell_setting	triclinic
loop_
_symmetry_equiv_pos_as_xyz
  x,y,z
_cell_length_a	14.395
_cell_length_b	15.203
_cell_length_c	33.371
_cell_angle_alpha	90
_cell_angle_beta	90
_cell_angle_gamma	90
loop_
_atom_site_label
_atom_site_type_symbol
_atom_site_fract_x
_atom_site_fract_y
_atom_site_fract_z
_atom_site_charge
Mof_K 	K 	0.68597	0.28411	0.04592	3.05
Mof_K 	K 	0.68597	0.28411	0.45408	3.051
Mof_K 	K 	0.18597	0.21589	0.95408	3.039
Mof_K 	K 	0.19068	0.23297	0.14305	3.183
Mof_K 	K 	0.80932	0.76703	0.85695	3.183
Mof_K 	K 	0.18597	0.21589	0.54592	3.041
Mof_K 	K 	0.18531	0.2425	0.75	3.126
Mof_K 	K 	0.69068	0.26703	0.64305	3.19
Mof_K 	K 	0.81403	0.78411	0.04592	3.038
Mof_K 	K 	0.68531	0.2575	0.25	3.134
Mof_K 	K 	0.30932	0.73297	0.14305	3.189
Mof_K 	K 	0.80932	0.76703	0.64305	3.182
Mof_K 	K 	0.81469	0.7575	0.25	3.125
Mof_K 	K 	0.31469	0.7425	0.75	3.134
Mof_K 	K 	0.31403	0.71589	0.95408	3.049
Mof_K 	K 	0.31403	0.71589	0.54592	3.05
Mof_K 	K 	0.19068	0.23297	0.35695	3.182
Mof_K 	K 	0.81403	0.78411	0.45408	3.04
Mof_K 	K 	0.69068	0.26703	0.85695	3.189
Mof_K 	K 	0.30932	0.73297	0.35695	3.189
Mof_Ho	Ho	0.87044	0.30395	0.1508	1.471
Mof_Ho	Ho	0.37044	0.19605	0.8492	1.468
Mof_Ho	Ho	0.1124	0.70201	0.05105	1.333
Mof_Ho	Ho	0.8876	0.29799	0.55105	1.332
Mof_Ho	Ho	0.64009	0.82088	0.75	1.468
Mof_Ho	Ho	0.87044	0.30395	0.3492	1.471
Mof_Ho	Ho	0.14009	0.67912	0.25	1.471
Mof_Ho	Ho	0.85991	0.32088	0.75	1.471
Mof_Ho	Ho	0.37044	0.19605	0.6508	1.468
Mof_Ho	Ho	0.6124	0.79799	0.94895	1.328
Mof_Ho	Ho	0.62956	0.80395	0.1508	1.468
Mof_Ho	Ho	0.6124	0.79799	0.55105	1.328
Mof_Ho	Ho	0.62956	0.80395	0.3492	1.468
Mof_Ho	Ho	0.12956	0.69605	0.8492	1.471
Mof_Ho	Ho	0.35991	0.17912	0.25	1.468
Mof_Ho	Ho	0.8876	0.29799	0.94895	1.333
Mof_Ho	Ho	0.3876	0.20201	0.05105	1.328
Mof_Ho	Ho	0.1124	0.70201	0.44895	1.332
Mof_Ho	Ho	0.3876	0.20201	0.44895	1.328
Mof_Ho	Ho	0.12956	0.69605	0.6508	1.471
Mof_C 	C 	0.8375	0.5415	0.75	-0.001
Mof_C 	C 	0.1715	0.4867	0.44922	-0.016
Mof_C 	C 	0.0082	0.5076	0.6498	-0.028
Mof_C 	C 	0.0166	0.5911	0.75	-0.063
Mof_C 	C 	0.1381	0.3721	0.25	-0.198
Mof_C 	C 	0.2791	0.818	0.64684	0.531
Mof_C 	C 	0.0029	0.411	0.04976	-0.063
Mof_C 	C 	0.489	0.0819	0.35064	-0.059
Mof_C 	C 	0.9929	0.5019	0.75	-0.02
Mof_C 	C 	0.3841	0.1241	0.75	0.398
Mof_C 	C 	0.1077	0.6232	0.15029	0.4
Mof_C 	C 	0.9324	0.5678	0.04813	0.419
Mof_C 	C 	0.5632	0.0817	0.85042	0.399
Mof_C 	C 	0.146	0.3892	0.64726	-0.174
Mof_C 	C 	0.6626	0.1038	0.94933	-0.171
Mof_C 	C 	0.1626	0.3962	0.05067	-0.169
Mof_C 	C 	0.7378	0.4623	0.9504	0.327
Mof_C 	C 	0.1626	0.3962	0.44933	-0.169
Mof_C 	C 	0.5676	0.0678	0.04813	0.42
Mof_C 	C 	0.9368	0.5817	0.85042	0.4
Mof_C 	C 	0.0599	0.4239	0.75	0.387
Mof_C 	C 	0.2926	0.7966	0.25	0.6
Mof_C 	C 	0.3354	0.9786	0.64751	-0.005
Mof_C 	C 	0.9834	0.4089	0.25	-0.063
Mof_C 	C 	0.2622	0.5377	0.4504	0.327
Mof_C 	C 	0.5082	0.9924	0.3502	-0.028
Mof_C 	C 	0.2425	0.3318	0.0501	0.469
Mof_C 	C 	0.8374	0.6038	0.94933	-0.169
Mof_C 	C 	0.7791	0.682	0.14684	0.529
Mof_C 	C 	0.7926	0.7034	0.75	0.599
Mof_C 	C 	0.8285	0.5133	0.55078	-0.016
Mof_C 	C 	0.2389	0.0199	0.64486	0.314
Mof_C 	C 	0.4401	0.9239	0.75	0.388
Mof_C 	C 	0.5116	0.9982	0.54929	-0.04
Mof_C 	C 	0.7425	0.1682	0.9499	0.47
Mof_C 	C 	0.0082	0.5076	0.8502	-0.029
Mof_C 	C 	0.6381	0.1279	0.75	-0.198
Mof_C 	C 	0.3285	0.9867	0.44922	-0.012
Mof_C 	C 	0.4107	0.1387	0.95044	0.407
Mof_C 	C 	0.7611	0.9801	0.35514	0.314
Mof_C 	C 	0.8285	0.5133	0.94922	-0.016
Mof_C 	C 	0.3619	0.8721	0.25	-0.198
Mof_C 	C 	0.2391	0.9963	0.25	0.323
Mof_C 	C 	0.7391	0.5037	0.75	0.321
Mof_C 	C 	0.2609	0.4963	0.25	0.321
Mof_C 	C 	0.5599	0.0761	0.25	0.388
Mof_C 	C 	0.6715	0.0133	0.94922	-0.012
Mof_C 	C 	0.9324	0.5678	0.45187	0.42
Mof_C 	C 	0.5166	0.9089	0.25	-0.064
Mof_C 	C 	0.0676	0.4322	0.95187	0.419
Mof_C 	C 	0.2611	0.5199	0.64486	0.325
Mof_C 	C 	0.7209	0.182	0.35316	0.531
Mof_C 	C 	0.9107	0.3613	0.45044	0.409
Mof_C 	C 	0.489	0.0819	0.14936	-0.059
Mof_C 	C 	0.5632	0.0817	0.64958	0.399
Mof_C 	C 	0.5893	0.8613	0.45044	0.407
Mof_C 	C 	0.6646	0.0214	0.14751	-0.005
Mof_C 	C 	0.0116	0.5018	0.04929	-0.037
Mof_C 	C 	0.6625	0.0415	0.75	-0.001
Mof_C 	C 	0.0029	0.411	0.45024	-0.063
Mof_C 	C 	0.6159	0.8759	0.25	0.398
Mof_C 	C 	0.4884	0.0018	0.45071	-0.04
Mof_C 	C 	0.4971	0.911	0.45024	-0.061
Mof_C 	C 	0.0893	0.6387	0.54956	0.409
Mof_C 	C 	0.2425	0.3318	0.4499	0.469
Mof_C 	C 	0.7622	0.9623	0.5496	0.318
Mof_C 	C 	0.854	0.6108	0.35274	-0.174
Mof_C 	C 	0.0071	0.4981	0.25	-0.02
Mof_C 	C 	0.2378	0.0377	0.4504	0.318
Mof_C 	C 	0.9368	0.5817	0.64958	0.4
Mof_C 	C 	0.989	0.4181	0.64936	-0.057
Mof_C 	C 	0.8619	0.6279	0.75	-0.198
Mof_C 	C 	0.2209	0.318	0.64684	0.53
Mof_C 	C 	0.854	0.6108	0.14726	-0.174
Mof_C 	C 	0.2378	0.0377	0.0496	0.318
Mof_C 	C 	0.146	0.3892	0.85274	-0.174
Mof_C 	C 	0.9107	0.3613	0.04956	0.409
Mof_C 	C 	0.7611	0.9801	0.14486	0.314
Mof_C 	C 	0.1625	0.4585	0.25	-0.001
Mof_C 	C 	0.2209	0.318	0.85316	0.529
Mof_C 	C 	0.2611	0.5199	0.85514	0.325
Mof_C 	C 	0.3285	0.9867	0.05078	-0.012
Mof_C 	C 	0.6077	0.8768	0.84971	0.399
Mof_C 	C 	0.1077	0.6232	0.34971	0.4
Mof_C 	C 	0.7209	0.182	0.14684	0.531
Mof_C 	C 	0.1646	0.4786	0.64751	-0.011
Mof_C 	C 	0.4929	0.9981	0.25	-0.022
Mof_C 	C 	0.7791	0.682	0.35316	0.53
Mof_C 	C 	0.7575	0.6682	0.9499	0.469
Mof_C 	C 	0.9918	0.4924	0.1498	-0.029
Mof_C 	C 	0.4324	0.9322	0.54813	0.42
Mof_C 	C 	0.511	0.9181	0.64936	-0.059
Mof_C 	C 	0.9971	0.589	0.54976	-0.063
Mof_C 	C 	0.8923	0.3768	0.84971	0.4
Mof_C 	C 	0.2575	0.8318	0.4499	0.47
Mof_C 	C 	0.1715	0.4867	0.05078	-0.016
Mof_C 	C 	0.8923	0.3768	0.65029	0.4
Mof_C 	C 	0.4918	0.0076	0.6498	-0.028
Mof_C 	C 	0.4971	0.911	0.04976	-0.061
Mof_C 	C 	0.0632	0.4183	0.35042	0.4
Mof_C 	C 	0.5029	0.089	0.95024	-0.061
Mof_C 	C 	0.646	0.1108	0.14726	-0.176
Mof_C 	C 	0.7389	0.4801	0.35514	0.325
Mof_C 	C 	0.6715	0.0133	0.55078	-0.012
Mof_C 	C 	0.3923	0.1232	0.15029	0.399
Mof_C 	C 	0.4368	0.9183	0.35042	0.399
Mof_C 	C 	0.4107	0.1387	0.54956	0.407
Mof_C 	C 	0.0116	0.5018	0.45071	-0.038
Mof_C 	C 	0.4918	0.0076	0.8502	-0.028
Mof_C 	C 	0.354	0.8892	0.64726	-0.176
Mof_C 	C 	0.511	0.9181	0.85064	-0.059
Mof_C 	C 	0.2791	0.818	0.85316	0.531
Mof_C 	C 	0.2575	0.8318	0.0501	0.47
Mof_C 	C 	0.6077	0.8768	0.65029	0.399
Mof_C 	C 	0.4324	0.9322	0.95187	0.42
Mof_C 	C 	0.3374	0.8962	0.44933	-0.171
Mof_C 	C 	0.2074	0.2966	0.25	0.599
Mof_C 	C 	0.8841	0.3759	0.25	0.399
Mof_C 	C 	0.9971	0.589	0.95024	-0.063
Mof_C 	C 	0.7378	0.4623	0.5496	0.327
Mof_C 	C 	0.5082	0.9924	0.1498	-0.028
Mof_C 	C 	0.0676	0.4322	0.54813	0.42
Mof_C 	C 	0.5071	0.0019	0.75	-0.022
Mof_C 	C 	0.4834	0.0911	0.75	-0.064
Mof_C 	C 	0.4368	0.9183	0.14958	0.399
Mof_C 	C 	0.7389	0.4801	0.14486	0.325
Mof_C 	C 	0.011	0.5819	0.35064	-0.057
Mof_C 	C 	0.989	0.4181	0.85064	-0.056
Mof_C 	C 	0.0893	0.6387	0.95044	0.409
Mof_C 	C 	0.2622	0.5377	0.0496	0.327
Mof_C 	C 	0.0632	0.4183	0.14958	0.4
Mof_C 	C 	0.3923	0.1232	0.34971	0.399
Mof_C 	C 	0.5676	0.0678	0.45187	0.42
Mof_C 	C 	0.1646	0.4786	0.85249	-0.011
Mof_C 	C 	0.8374	0.6038	0.55067	-0.169
Mof_C 	C 	0.6626	0.1038	0.55067	-0.171
Mof_C 	C 	0.6646	0.0214	0.35249	-0.005
Mof_C 	C 	0.7074	0.2034	0.75	0.6
Mof_C 	C 	0.354	0.8892	0.85274	-0.176
Mof_C 	C 	0.8354	0.5214	0.35249	-0.011
Mof_C 	C 	0.5029	0.089	0.54976	-0.061
Mof_C 	C 	0.9918	0.4924	0.3502	-0.028
Mof_C 	C 	0.7425	0.1682	0.5501	0.47
Mof_C 	C 	0.3374	0.8962	0.05067	-0.171
Mof_C 	C 	0.9884	0.4982	0.95071	-0.037
Mof_C 	C 	0.1159	0.6241	0.75	0.399
Mof_C 	C 	0.646	0.1108	0.35274	-0.176
Mof_C 	C 	0.3354	0.9786	0.85249	-0.005
Mof_C 	C 	0.7609	0.0037	0.75	0.323
Mof_C 	C 	0.9884	0.4982	0.54929	-0.038
Mof_C 	C 	0.011	0.5819	0.14936	-0.056
Mof_C 	C 	0.9401	0.5761	0.25	0.387
Mof_C 	C 	0.5116	0.9982	0.95071	-0.04
Mof_C 	C 	0.7575	0.6682	0.5501	0.469
Mof_C 	C 	0.8354	0.5214	0.14751	-0.011
Mof_C 	C 	0.2389	0.0199	0.85514	0.314
Mof_C 	C 	0.4884	0.0018	0.04929	-0.04
Mof_C 	C 	0.3375	0.9585	0.25	-0.001
Mof_C 	C 	0.5893	0.8613	0.04956	0.407
Mof_C 	C 	0.7622	0.9623	0.9504	0.318
Mof_N 	N 	0.0582	0.3583	0.64781	-0.199
Mof_N 	N 	0.596	0.9614	0.94976	-0.176
Mof_N 	N 	0.0582	0.3583	0.85219	-0.2
Mof_N 	N 	0.9418	0.6417	0.35219	-0.199
Mof_N 	N 	0.0964	0.5363	0.85137	-0.186
Mof_N 	N 	0.5582	0.1417	0.35219	-0.198
Mof_N 	N 	0.5964	0.9637	0.14863	-0.188
Mof_N 	N 	0.0479	0.3465	0.25	-0.184
Mof_N 	N 	0.0784	0.3586	0.05021	-0.212
Mof_N 	N 	0.9418	0.6417	0.14781	-0.2
Mof_N 	N 	0.5784	0.1414	0.55021	-0.212
Mof_N 	N 	0.5784	0.1414	0.94979	-0.212
Mof_N 	N 	0.404	0.0386	0.05024	-0.176
Mof_N 	N 	0.096	0.5386	0.05024	-0.175
Mof_N 	N 	0.9216	0.6414	0.55021	-0.212
Mof_N 	N 	0.9216	0.6414	0.94979	-0.212
Mof_N 	N 	0.4418	0.8583	0.64781	-0.198
Mof_N 	N 	0.9521	0.6535	0.75	-0.184
Mof_N 	N 	0.5962	0.978	0.75	-0.187
Mof_N 	N 	0.904	0.4614	0.94976	-0.175
Mof_N 	N 	0.4418	0.8583	0.85219	-0.198
Mof_N 	N 	0.4036	0.0363	0.85137	-0.188
Mof_N 	N 	0.9038	0.478	0.75	-0.186
Mof_N 	N 	0.4216	0.8586	0.44979	-0.212
Mof_N 	N 	0.4036	0.0363	0.64863	-0.188
Mof_N 	N 	0.0964	0.5363	0.64863	-0.186
Mof_N 	N 	0.904	0.4614	0.55024	-0.175
Mof_N 	N 	0.5479	0.1535	0.75	-0.184
Mof_N 	N 	0.0784	0.3586	0.44979	-0.212
Mof_N 	N 	0.4216	0.8586	0.05021	-0.212
Mof_N 	N 	0.5964	0.9637	0.35137	-0.188
Mof_N 	N 	0.0962	0.522	0.25	-0.186
Mof_N 	N 	0.5582	0.1417	0.14781	-0.198
Mof_N 	N 	0.4521	0.8465	0.25	-0.184
Mof_N 	N 	0.4038	0.022	0.25	-0.187
Mof_N 	N 	0.9036	0.4637	0.35137	-0.186
Mof_N 	N 	0.404	0.0386	0.44976	-0.176
Mof_N 	N 	0.9036	0.4637	0.14863	-0.186
Mof_N 	N 	0.096	0.5386	0.44976	-0.175
Mof_N 	N 	0.596	0.9614	0.55024	-0.176
Mof_O 	O 	0.1216	0.659	0.51617	-0.689
Mof_O 	O 	0.2579	0.7835	0.61445	-0.862
Mof_O 	O 	0.7551	0.2056	0.32052	-0.889
Mof_O 	O 	0.5213	0.151	0.25	-0.796
Mof_O 	O 	0.1475	0.4611	0.9527	-0.453
Mof_O 	O 	0.7613	0.8968	0.35546	-0.603
Mof_O 	O 	0.3473	0.1408	0.78333	-0.703
Mof_O 	O 	0.1702	0.9715	0.6429	-0.493
Mof_O 	O 	0.1227	0.6587	0.58267	-0.686
Mof_O 	O 	0.1527	0.6408	0.71667	-0.703
Mof_O 	O 	0.6702	0.5285	0.3571	-0.498
Mof_O 	O 	0.3632	0.1511	0.38273	-0.733
Mof_O 	O 	0.3784	0.159	0.51617	-0.689
Mof_O 	O 	0.2158	0.8131	0.41798	-0.834
Mof_O 	O 	0.0213	0.349	0.75	-0.797
Mof_O 	O 	0.7158	0.6869	0.91798	-0.833
Mof_O 	O 	0.7387	0.3968	0.14454	-0.605
Mof_O 	O 	0.2421	0.2835	0.61445	-0.86
Mof_O 	O 	0.8525	0.5389	0.4527	-0.453
Mof_O 	O 	0.6527	0.8592	0.28333	-0.703
Mof_O 	O 	0.2412	0.7935	0.482	-0.836
Mof_O 	O 	0.2842	0.3131	0.08202	-0.833
Mof_O 	O 	0.1487	0.6263	0.31714	-0.671
Mof_O 	O 	0.4579	0.8519	0.95172	-0.75
Mof_O 	O 	0.6227	0.8413	0.41733	-0.685
Mof_O 	O 	0.0421	0.3519	0.95172	-0.751
Mof_O 	O 	0.6216	0.841	0.01617	-0.689
Mof_O 	O 	0.2663	0.767	0.28256	-0.926
Mof_O 	O 	0.2328	0.0788	0.25	-0.557
Mof_O 	O 	0.8298	0.0285	0.1429	-0.493
Mof_O 	O 	0.6648	0.5044	0.5487	-0.52
Mof_O 	O 	0.2449	0.7944	0.82052	-0.889
Mof_O 	O 	0.1702	0.9715	0.8571	-0.493
Mof_O 	O 	0.7337	0.233	0.78256	-0.926
Mof_O 	O 	0.3525	0.9611	0.5473	-0.453
Mof_O 	O 	0.8567	0.5595	0.25	-0.54
Mof_O 	O 	0.7337	0.233	0.71744	-0.926
Mof_O 	O 	0.6527	0.8592	0.21667	-0.703
Mof_O 	O 	0.7842	0.1869	0.91798	-0.834
Mof_O 	O 	0.7663	0.733	0.71744	-0.926
Mof_O 	O 	0.2421	0.2835	0.88555	-0.86
Mof_O 	O 	0.1368	0.6511	0.38273	-0.733
Mof_O 	O 	0.6368	0.8489	0.88273	-0.733
Mof_O 	O 	0.854	0.5624	0.85266	-0.517
Mof_O 	O 	0.854	0.5624	0.64734	-0.517
Mof_O 	O 	0.6227	0.8413	0.08267	-0.685
Mof_O 	O 	0.7328	0.4212	0.75	-0.554
Mof_O 	O 	0.8513	0.3737	0.68286	-0.671
Mof_O 	O 	0.8632	0.3489	0.88273	-0.733
Mof_O 	O 	0.2842	0.3131	0.41798	-0.833
Mof_O 	O 	0.3525	0.9611	0.9527	-0.453
Mof_O 	O 	0.9714	0.6583	0.84947	-0.793
Mof_O 	O 	0.6487	0.8737	0.81714	-0.671
Mof_O 	O 	0.7663	0.733	0.78256	-0.926
Mof_O 	O 	0.2387	0.1032	0.85546	-0.603
Mof_O 	O 	0.2453	0.1203	0.04971	-0.65
Mof_O 	O 	0.5286	0.1583	0.65053	-0.792
Mof_O 	O 	0.8352	0.0044	0.9513	-0.515
Mof_O 	O 	0.7449	0.7056	0.32052	-0.888
Mof_O 	O 	0.4579	0.8519	0.54828	-0.75
Mof_O 	O 	0.3473	0.1408	0.71667	-0.703
Mof_O 	O 	0.9579	0.6481	0.45172	-0.75
Mof_O 	O 	0.7158	0.6869	0.58202	-0.833
Mof_O 	O 	0.8773	0.3413	0.41733	-0.686
Mof_O 	O 	0.7579	0.7165	0.38555	-0.86
Mof_O 	O 	0.1487	0.6263	0.18286	-0.671
Mof_O 	O 	0.0421	0.3519	0.54828	-0.75
Mof_O 	O 	0.7412	0.7065	0.518	-0.835
Mof_O 	O 	0.7412	0.7065	0.982	-0.834
Mof_O 	O 	0.1475	0.4611	0.5473	-0.453
Mof_O 	O 	0.146	0.4376	0.35266	-0.517
Mof_O 	O 	0.7449	0.7056	0.17948	-0.887
Mof_O 	O 	0.4714	0.8417	0.15053	-0.792
Mof_O 	O 	0.6487	0.8737	0.68286	-0.671
Mof_O 	O 	0.1527	0.6408	0.78333	-0.703
Mof_O 	O 	0.7421	0.2165	0.11445	-0.862
Mof_O 	O 	0.8473	0.3592	0.28333	-0.703
Mof_O 	O 	0.7588	0.2065	0.518	-0.836
Mof_O 	O 	0.2551	0.2944	0.82052	-0.887
Mof_O 	O 	0.2387	0.1032	0.64454	-0.603
Mof_O 	O 	0.2551	0.2944	0.67948	-0.888
Mof_O 	O 	0.3352	0.4956	0.0487	-0.52
Mof_O 	O 	0.7842	0.1869	0.58202	-0.834
Mof_O 	O 	0.2453	0.1203	0.45029	-0.651
Mof_O 	O 	0.6475	0.0389	0.4527	-0.453
Mof_O 	O 	0.0286	0.3417	0.15053	-0.793
Mof_O 	O 	0.7547	0.8797	0.95029	-0.65
Mof_O 	O 	0.8473	0.3592	0.21667	-0.703
Mof_O 	O 	0.2579	0.7835	0.88555	-0.862
Mof_O 	O 	0.8784	0.341	0.48383	-0.689
Mof_O 	O 	0.7421	0.2165	0.38555	-0.862
Mof_O 	O 	0.8784	0.341	0.01617	-0.69
Mof_O 	O 	0.3298	0.4715	0.6429	-0.498
Mof_O 	O 	0.1227	0.6587	0.91733	-0.686
Mof_O 	O 	0.354	0.9376	0.35266	-0.517
Mof_O 	O 	0.7579	0.7165	0.11445	-0.86
Mof_O 	O 	0.1368	0.6511	0.11727	-0.733
Mof_O 	O 	0.6648	0.5044	0.9513	-0.52
Mof_O 	O 	0.7672	0.9212	0.75	-0.557
Mof_O 	O 	0.2588	0.2935	0.482	-0.835
Mof_O 	O 	0.646	0.0624	0.64734	-0.517
Mof_O 	O 	0.8513	0.3737	0.81714	-0.671
Mof_O 	O 	0.0286	0.3417	0.34947	-0.793
Mof_O 	O 	0.3632	0.1511	0.11727	-0.733
Mof_O 	O 	0.8773	0.3413	0.08267	-0.686
Mof_O 	O 	0.2337	0.267	0.21744	-0.926
Mof_O 	O 	0.9787	0.651	0.25	-0.797
Mof_O 	O 	0.8525	0.5389	0.0473	-0.453
Mof_O 	O 	0.3773	0.1587	0.58267	-0.685
Mof_O 	O 	0.3352	0.4956	0.4513	-0.52
Mof_O 	O 	0.4787	0.849	0.75	-0.796
Mof_O 	O 	0.6475	0.0389	0.0473	-0.453
Mof_O 	O 	0.2412	0.7935	0.018	-0.835
Mof_O 	O 	0.1737	0.9423	0.25	-0.49
Mof_O 	O 	0.1648	0.9956	0.0487	-0.515
Mof_O 	O 	0.7387	0.3968	0.35546	-0.605
Mof_O 	O 	0.8263	0.0577	0.75	-0.49
Mof_O 	O 	0.3263	0.4423	0.25	-0.49
Mof_O 	O 	0.9579	0.6481	0.04828	-0.751
Mof_O 	O 	0.2588	0.2935	0.018	-0.834
Mof_O 	O 	0.5421	0.1481	0.45172	-0.75
Mof_O 	O 	0.8632	0.3489	0.61727	-0.733
Mof_O 	O 	0.2613	0.6032	0.64454	-0.605
Mof_O 	O 	0.7453	0.3797	0.95029	-0.653
Mof_O 	O 	0.6702	0.5285	0.1429	-0.498
Mof_O 	O 	0.5286	0.1583	0.84947	-0.792
Mof_O 	O 	0.1216	0.659	0.98383	-0.69
Mof_O 	O 	0.7551	0.2056	0.17948	-0.889
Mof_O 	O 	0.8352	0.0044	0.5487	-0.516
Mof_O 	O 	0.2672	0.5788	0.25	-0.554
Mof_O 	O 	0.8298	0.0285	0.3571	-0.493
Mof_O 	O 	0.3298	0.4715	0.8571	-0.498
Mof_O 	O 	0.7613	0.8968	0.14454	-0.603
Mof_O 	O 	0.2337	0.267	0.28256	-0.926
Mof_O 	O 	0.2547	0.6203	0.04971	-0.653
Mof_O 	O 	0.3513	0.1263	0.31714	-0.671
Mof_O 	O 	0.3513	0.1263	0.18286	-0.671
Mof_O 	O 	0.6216	0.841	0.48383	-0.689
Mof_O 	O 	0.2158	0.8131	0.08202	-0.834
Mof_O 	O 	0.5421	0.1481	0.04828	-0.75
Mof_O 	O 	0.3567	0.9405	0.75	-0.54
Mof_O 	O 	0.6433	0.0595	0.25	-0.54
Mof_O 	O 	0.1648	0.9956	0.4513	-0.516
Mof_O 	O 	0.2613	0.6032	0.85546	-0.605
Mof_O 	O 	0.7547	0.8797	0.54971	-0.651
Mof_O 	O 	0.7588	0.2065	0.982	-0.835
Mof_O 	O 	0.646	0.0624	0.85266	-0.517
Mof_O 	O 	0.6368	0.8489	0.61727	-0.733
Mof_O 	O 	0.354	0.9376	0.14734	-0.517
Mof_O 	O 	0.3773	0.1587	0.91733	-0.685
Mof_O 	O 	0.4714	0.8417	0.34947	-0.792
Mof_O 	O 	0.2547	0.6203	0.45029	-0.653
Mof_O 	O 	0.2449	0.7944	0.67948	-0.889
Mof_O 	O 	0.1433	0.4405	0.75	-0.54
Mof_O 	O 	0.2663	0.767	0.21744	-0.926
Mof_O 	O 	0.3784	0.159	0.98383	-0.689
Mof_O 	O 	0.7453	0.3797	0.54971	-0.653
Mof_O 	O 	0.146	0.4376	0.14734	-0.517
Mof_O 	O 	0.9714	0.6583	0.65053	-0.793
Mof_O 	O 	0.6737	0.5577	0.75	-0.49
_end
