# CIF file generated by openbabel 3.1.0, see https://openbabel.org
data_I
_chemical_name_common 'image0'
_cell_length_a 35.5387
_cell_length_b 35.5387
_cell_length_c 53.2607
_cell_angle_alpha 90
_cell_angle_beta 90
_cell_angle_gamma 90
_space_group_name_H-M_alt 'P 1'
_space_group_name_Hall 'P 1'
loop_
    _symmetry_equiv_pos_as_xyz
    x,y,z
loop_
    _atom_site_label
    _atom_site_type_symbol
    _atom_site_fract_x
    _atom_site_fract_y
    _atom_site_fract_z
    _atom_site_occupancy
    Cd1      Cd       0.19870    0.07812    0.14955    1.000
    Cd2      Cd       0.12509    0.99128    0.15900    1.000
    Cd3      Cd       0.08943    0.10622    0.16931    1.000
    Cd4      Cd       0.16802    0.05573    0.22100    1.000
    Cd5      Cd       0.97798    0.06007    0.16386    1.000
    Cd6      Cd       0.09950    0.91172    0.21577    1.000
    Cd7      Cd       0.05355    0.02219    0.21910    1.000
    Cd8      Cd       0.13089    0.98961    0.27757    1.000
    Cd9      Cd       0.00505    0.13376    0.21666    1.000
    Cd10     Cd       0.09279    0.09592    0.27512    1.000
    Cd11     Cd       0.92863    0.16112    0.27146    1.000
    Cd12     Cd       0.97965    0.05427    0.27322    1.000
    Cd13     Cd       0.90944    0.08543    0.33270    1.000
    Cd14     Cd       0.94172    0.97486    0.32958    1.000
    Cd15     Cd       0.01861    0.13484    0.32646    1.000
    Cd16     Cd       0.92638    0.19705    0.34567    1.000
    Se1      Se       0.11045    0.04422    0.19187    1.000
    Se2      Se       0.07827    0.96633    0.24628    1.000
    Se3      Se       0.03438    0.08089    0.24568    1.000
    Se4      Se       0.95949    0.11135    0.30112    1.000
    Se5      Se       0.95042    0.11775    0.18644    1.000
    Se6      Se       0.11802    0.04626    0.30631    1.000
    S1       S        0.89670    0.25160    0.36940    1.000
    S2       S        0.17770    0.01660    0.13132    1.000
    S3       S        0.14710    0.12700    0.14607    1.000
    S4       S        0.22460    0.07400    0.19362    1.000
    S5       S        0.93050    0.02820    0.13353    1.000
    S6       S        0.15260    0.94350    0.18987    1.000
    S7       S        0.03890    0.07790    0.14053    1.000
    S8       S        0.18780    0.00280    0.24889    1.000
    S9       S        0.05990    0.16010    0.19100    1.000
    S10      S        0.14120    0.11440    0.24213    1.000
    S11      S        0.87360    0.13680    0.24725    1.000
    S12      S        0.85720    0.07330    0.30064    1.000
    S13      S        0.98660    0.18580    0.24757    1.000
    S14      S        0.06990    0.15520    0.29813    1.000
    S15      S        0.91150    0.21540    0.30081    1.000
    S16      S        0.93160    0.03130    0.35920    1.000
    S17      S        0.89050    0.14050    0.35956    1.000
    S18      S        0.03060    0.08070    0.35512    1.000
    S19      S        0.99690    0.19230    0.35189    1.000
    C1       C        0.16010    0.03370    0.10290    1.000
    C2       C        0.18910    0.03950    0.08460    1.000
    C3       C        0.17480    0.05550    0.06100    1.000
    C4       C        0.13140    0.06510    0.05600    1.000
    C5       C        0.10920    0.05700    0.07710    1.000
    C6       C        0.12320    0.04470    0.10270    1.000
    C7       C        0.90980    0.06490    0.11380    1.000
    C8       C        0.90880    0.05800    0.08810    1.000
    C9       C        0.89190    0.08380    0.07210    1.000
    C10      C        0.87610    0.11650    0.08170    1.000
    C11      C        0.87700    0.12340    0.10740    1.000
    C12      C        0.89390    0.09760    0.12340    1.000
    C13      C        0.17720    0.91110    0.17140    1.000
    C14      C        0.16600    0.87050    0.17710    1.000
    C15      C        0.19200    0.83910    0.16140    1.000
    C16      C        0.22000    0.85180    0.14530    1.000
    C17      C        0.22610    0.90130    0.14870    1.000
    C18      C        0.20460    0.92420    0.15690    1.000
    C19      C        0.02690    0.11280    0.12050    1.000
    C20      C        0.99020    0.12510    0.11680    1.000
    C21      C        0.98180    0.14900    0.09690    1.000
    C22      C        0.01010    0.16060    0.08070    1.000
    C23      C        0.04690    0.14830    0.08440    1.000
    C24      C        0.05520    0.12440    0.10420    1.000
    C25      C        0.85190    0.17610    0.23180    1.000
    C26      C        0.86950    0.19670    0.21560    1.000
    C27      C        0.96960    0.22670    0.23270    1.000
    C28      C        0.95750    0.25540    0.24820    1.000
    C29      C        0.94260    0.28920    0.23550    1.000
    C30      C        0.94810    0.28750    0.20790    1.000
    C31      C        0.95680    0.25900    0.19090    1.000
    C32      C        0.97370    0.22960    0.20540    1.000
    C33      C        0.85960    0.21920    0.29880    1.000
    C34      C        0.83570    0.18690    0.30200    1.000
    C35      C        0.79620    0.18970    0.30100    1.000
    C36      C        0.78470    0.22530    0.29550    1.000
    C37      C        0.80830    0.25300    0.28590    1.000
    C38      C        0.84450    0.25680    0.28970    1.000
    C39      C        0.88780    0.02590    0.38090    1.000
    C40      C        0.85660    0.01490    0.36950    1.000
    C41      C        0.90660    0.12880    0.39300    1.000
    C42      C        0.06420    0.09780    0.37980    1.000
    C43      C        0.10150    0.07220    0.38050    1.000
    C44      C        0.01850    0.23080    0.33400    1.000
    C45      C        0.01090    0.23460    0.30860    1.000
    C46      C        0.02500    0.26520    0.29530    1.000
    C47      C        0.04680    0.29200    0.30760    1.000
    C48      C        0.05450    0.28820    0.33310    1.000
    C49      C        0.04030    0.25760    0.34630    1.000
    Cd17     Cd       0.69870    0.57812    0.64955    1.000
    Cd18     Cd       0.62509    0.49128    0.65900    1.000
    Cd19     Cd       0.58943    0.60622    0.66931    1.000
    Cd20     Cd       0.66802    0.55573    0.72100    1.000
    Cd21     Cd       0.47798    0.56007    0.66386    1.000
    Cd22     Cd       0.59950    0.41172    0.71577    1.000
    Cd23     Cd       0.55355    0.52219    0.71910    1.000
    Cd24     Cd       0.63089    0.48961    0.77757    1.000
    Cd25     Cd       0.50505    0.63376    0.71666    1.000
    Cd26     Cd       0.59279    0.59592    0.77512    1.000
    Cd27     Cd       0.42863    0.66112    0.77146    1.000
    Cd28     Cd       0.47965    0.55427    0.77322    1.000
    Cd29     Cd       0.40944    0.58543    0.83270    1.000
    Cd30     Cd       0.44172    0.47486    0.82958    1.000
    Cd31     Cd       0.51861    0.63484    0.82646    1.000
    Cd32     Cd       0.42638    0.69705    0.84567    1.000
    Se7      Se       0.61045    0.54422    0.69187    1.000
    Se8      Se       0.57827    0.46633    0.74628    1.000
    Se9      Se       0.53438    0.58089    0.74568    1.000
    Se10     Se       0.45949    0.61135    0.80112    1.000
    Se11     Se       0.45042    0.61775    0.68644    1.000
    Se12     Se       0.61802    0.54626    0.80631    1.000
    S20      S        0.39670    0.75160    0.86940    1.000
    S21      S        0.67770    0.51660    0.63132    1.000
    S22      S        0.64710    0.62700    0.64607    1.000
    S23      S        0.72460    0.57400    0.69362    1.000
    S24      S        0.43050    0.52820    0.63353    1.000
    S25      S        0.65260    0.44350    0.68987    1.000
    S26      S        0.53890    0.57790    0.64053    1.000
    S27      S        0.68780    0.50280    0.74889    1.000
    S28      S        0.55990    0.66010    0.69100    1.000
    S29      S        0.64120    0.61440    0.74213    1.000
    S30      S        0.37360    0.63680    0.74725    1.000
    S31      S        0.35720    0.57330    0.80064    1.000
    S32      S        0.48660    0.68580    0.74757    1.000
    S33      S        0.56990    0.65520    0.79813    1.000
    S34      S        0.41150    0.71540    0.80081    1.000
    S35      S        0.43160    0.53130    0.85920    1.000
    S36      S        0.39050    0.64050    0.85956    1.000
    S37      S        0.53060    0.58070    0.85512    1.000
    S38      S        0.49690    0.69230    0.85189    1.000
    C50      C        0.66010    0.53370    0.60290    1.000
    C51      C        0.68910    0.53950    0.58460    1.000
    C52      C        0.67480    0.55550    0.56100    1.000
    C53      C        0.63140    0.56510    0.55600    1.000
    C54      C        0.60920    0.55700    0.57710    1.000
    C55      C        0.62320    0.54470    0.60270    1.000
    C56      C        0.40980    0.56490    0.61380    1.000
    C57      C        0.40880    0.55800    0.58810    1.000
    C58      C        0.39190    0.58380    0.57210    1.000
    C59      C        0.37610    0.61650    0.58170    1.000
    C60      C        0.37700    0.62340    0.60740    1.000
    C61      C        0.39390    0.59760    0.62340    1.000
    C62      C        0.67720    0.41110    0.67140    1.000
    C63      C        0.66600    0.37050    0.67710    1.000
    C64      C        0.69200    0.33910    0.66140    1.000
    C65      C        0.72000    0.35180    0.64530    1.000
    C66      C        0.72610    0.40130    0.64870    1.000
    C67      C        0.70460    0.42420    0.65690    1.000
    C68      C        0.52690    0.61280    0.62050    1.000
    C69      C        0.49020    0.62510    0.61680    1.000
    C70      C        0.48180    0.64900    0.59690    1.000
    C71      C        0.51010    0.66060    0.58070    1.000
    C72      C        0.54690    0.64830    0.58440    1.000
    C73      C        0.55520    0.62440    0.60420    1.000
    C74      C        0.35190    0.67610    0.73180    1.000
    C75      C        0.36950    0.69670    0.71560    1.000
    C76      C        0.46960    0.72670    0.73270    1.000
    C77      C        0.45750    0.75540    0.74820    1.000
    C78      C        0.44260    0.78920    0.73550    1.000
    C79      C        0.44810    0.78750    0.70790    1.000
    C80      C        0.45680    0.75900    0.69090    1.000
    C81      C        0.47370    0.72960    0.70540    1.000
    C82      C        0.35960    0.71920    0.79880    1.000
    C83      C        0.33570    0.68690    0.80200    1.000
    C84      C        0.29620    0.68970    0.80100    1.000
    C85      C        0.28470    0.72530    0.79550    1.000
    C86      C        0.30830    0.75300    0.78590    1.000
    C87      C        0.34450    0.75680    0.78970    1.000
    C88      C        0.38780    0.52590    0.88090    1.000
    C89      C        0.35660    0.51490    0.86950    1.000
    C90      C        0.40660    0.62880    0.89300    1.000
    C91      C        0.56420    0.59780    0.87980    1.000
    C92      C        0.60150    0.57220    0.88050    1.000
    C93      C        0.51850    0.73080    0.83400    1.000
    C94      C        0.51090    0.73460    0.80860    1.000
    C95      C        0.52500    0.76520    0.79530    1.000
    C96      C        0.54680    0.79200    0.80760    1.000
    C97      C        0.55450    0.78820    0.83310    1.000
    C98      C        0.54030    0.75760    0.84630    1.000
    Cd33     Cd       0.80130    0.92188    0.14955    1.000
    Cd34     Cd       0.87491    0.00872    0.15900    1.000
    Cd35     Cd       0.91057    0.89378    0.16931    1.000
    Cd36     Cd       0.83198    0.94427    0.22100    1.000
    Cd37     Cd       0.02202    0.93993    0.16386    1.000
    Cd38     Cd       0.90050    0.08828    0.21577    1.000
    Cd39     Cd       0.94645    0.97781    0.21910    1.000
    Cd40     Cd       0.86911    0.01039    0.27757    1.000
    Cd41     Cd       0.99495    0.86624    0.21666    1.000
    Cd42     Cd       0.90721    0.90408    0.27512    1.000
    Cd43     Cd       0.07137    0.83888    0.27146    1.000
    Cd44     Cd       0.02035    0.94573    0.27322    1.000
    Cd45     Cd       0.09056    0.91457    0.33270    1.000
    Cd46     Cd       0.05828    0.02514    0.32958    1.000
    Cd47     Cd       0.98139    0.86516    0.32646    1.000
    Cd48     Cd       0.07362    0.80295    0.34567    1.000
    Se13     Se       0.88955    0.95578    0.19187    1.000
    Se14     Se       0.92173    0.03367    0.24628    1.000
    Se15     Se       0.96562    0.91911    0.24568    1.000
    Se16     Se       0.04051    0.88865    0.30112    1.000
    Se17     Se       0.04958    0.88225    0.18644    1.000
    Se18     Se       0.88198    0.95374    0.30631    1.000
    S39      S        0.10330    0.74840    0.36940    1.000
    S40      S        0.82230    0.98340    0.13132    1.000
    S41      S        0.85290    0.87300    0.14607    1.000
    S42      S        0.77540    0.92600    0.19362    1.000
    S43      S        0.06950    0.97180    0.13353    1.000
    S44      S        0.84740    0.05650    0.18987    1.000
    S45      S        0.96110    0.92210    0.14053    1.000
    S46      S        0.81220    0.99720    0.24889    1.000
    S47      S        0.94010    0.83990    0.19100    1.000
    S48      S        0.85880    0.88560    0.24213    1.000
    S49      S        0.12640    0.86320    0.24725    1.000
    S50      S        0.14280    0.92670    0.30064    1.000
    S51      S        0.01340    0.81420    0.24757    1.000
    S52      S        0.93010    0.84480    0.29813    1.000
    S53      S        0.08850    0.78460    0.30081    1.000
    S54      S        0.06840    0.96870    0.35920    1.000
    S55      S        0.10950    0.85950    0.35956    1.000
    S56      S        0.96940    0.91930    0.35512    1.000
    S57      S        0.00310    0.80770    0.35189    1.000
    C99      C        0.83990    0.96630    0.10290    1.000
    C100     C        0.81090    0.96050    0.08460    1.000
    C101     C        0.82520    0.94450    0.06100    1.000
    C102     C        0.86860    0.93490    0.05600    1.000
    C103     C        0.89080    0.94300    0.07710    1.000
    C104     C        0.87680    0.95530    0.10270    1.000
    C105     C        0.09020    0.93510    0.11380    1.000
    C106     C        0.09120    0.94200    0.08810    1.000
    C107     C        0.10810    0.91620    0.07210    1.000
    C108     C        0.12390    0.88350    0.08170    1.000
    C109     C        0.12300    0.87660    0.10740    1.000
    C110     C        0.10610    0.90240    0.12340    1.000
    C111     C        0.82280    0.08890    0.17140    1.000
    C112     C        0.83400    0.12950    0.17710    1.000
    C113     C        0.80800    0.16090    0.16140    1.000
    C114     C        0.78000    0.14820    0.14530    1.000
    C115     C        0.77390    0.09870    0.14870    1.000
    C116     C        0.79540    0.07580    0.15690    1.000
    C117     C        0.97310    0.88720    0.12050    1.000
    C118     C        0.00980    0.87490    0.11680    1.000
    C119     C        0.01820    0.85100    0.09690    1.000
    C120     C        0.98990    0.83940    0.08070    1.000
    C121     C        0.95310    0.85170    0.08440    1.000
    C122     C        0.94480    0.87560    0.10420    1.000
    C123     C        0.14810    0.82390    0.23180    1.000
    C124     C        0.13050    0.80330    0.21560    1.000
    C125     C        0.03040    0.77330    0.23270    1.000
    C126     C        0.04250    0.74460    0.24820    1.000
    C127     C        0.05740    0.71080    0.23550    1.000
    C128     C        0.05190    0.71250    0.20790    1.000
    C129     C        0.04320    0.74100    0.19090    1.000
    C130     C        0.02630    0.77040    0.20540    1.000
    C131     C        0.14040    0.78080    0.29880    1.000
    C132     C        0.16430    0.81310    0.30200    1.000
    C133     C        0.20380    0.81030    0.30100    1.000
    C134     C        0.21530    0.77470    0.29550    1.000
    C135     C        0.19170    0.74700    0.28590    1.000
    C136     C        0.15550    0.74320    0.28970    1.000
    C137     C        0.11220    0.97410    0.38090    1.000
    C138     C        0.14340    0.98510    0.36950    1.000
    C139     C        0.09340    0.87120    0.39300    1.000
    C140     C        0.93580    0.90220    0.37980    1.000
    C141     C        0.89850    0.92780    0.38050    1.000
    C142     C        0.98150    0.76920    0.33400    1.000
    C143     C        0.98910    0.76540    0.30860    1.000
    C144     C        0.97500    0.73480    0.29530    1.000
    C145     C        0.95320    0.70800    0.30760    1.000
    C146     C        0.94550    0.71180    0.33310    1.000
    C147     C        0.95970    0.74240    0.34630    1.000
    Cd49     Cd       0.30130    0.42188    0.64955    1.000
    Cd50     Cd       0.37491    0.50872    0.65900    1.000
    Cd51     Cd       0.41057    0.39378    0.66931    1.000
    Cd52     Cd       0.33198    0.44427    0.72100    1.000
    Cd53     Cd       0.52202    0.43993    0.66386    1.000
    Cd54     Cd       0.40050    0.58828    0.71577    1.000
    Cd55     Cd       0.44645    0.47781    0.71910    1.000
    Cd56     Cd       0.36911    0.51039    0.77757    1.000
    Cd57     Cd       0.49495    0.36624    0.71666    1.000
    Cd58     Cd       0.40721    0.40408    0.77512    1.000
    Cd59     Cd       0.57137    0.33888    0.77146    1.000
    Cd60     Cd       0.52035    0.44573    0.77322    1.000
    Cd61     Cd       0.59056    0.41457    0.83270    1.000
    Cd62     Cd       0.55828    0.52514    0.82958    1.000
    Cd63     Cd       0.48139    0.36516    0.82646    1.000
    Cd64     Cd       0.57362    0.30295    0.84567    1.000
    Se19     Se       0.38955    0.45578    0.69187    1.000
    Se20     Se       0.42173    0.53367    0.74628    1.000
    Se21     Se       0.46562    0.41911    0.74568    1.000
    Se22     Se       0.54051    0.38865    0.80112    1.000
    Se23     Se       0.54958    0.38225    0.68644    1.000
    Se24     Se       0.38198    0.45374    0.80631    1.000
    S58      S        0.60330    0.24840    0.86940    1.000
    S59      S        0.32230    0.48340    0.63132    1.000
    S60      S        0.35290    0.37300    0.64607    1.000
    S61      S        0.27540    0.42600    0.69362    1.000
    S62      S        0.56950    0.47180    0.63353    1.000
    S63      S        0.34740    0.55650    0.68987    1.000
    S64      S        0.46110    0.42210    0.64053    1.000
    S65      S        0.31220    0.49720    0.74889    1.000
    S66      S        0.44010    0.33990    0.69100    1.000
    S67      S        0.35880    0.38560    0.74213    1.000
    S68      S        0.62640    0.36320    0.74725    1.000
    S69      S        0.64280    0.42670    0.80064    1.000
    S70      S        0.51340    0.31420    0.74757    1.000
    S71      S        0.43010    0.34480    0.79813    1.000
    S72      S        0.58850    0.28460    0.80081    1.000
    S73      S        0.56840    0.46870    0.85920    1.000
    S74      S        0.60950    0.35950    0.85956    1.000
    S75      S        0.46940    0.41930    0.85512    1.000
    S76      S        0.50310    0.30770    0.85189    1.000
    C148     C        0.33990    0.46630    0.60290    1.000
    C149     C        0.31090    0.46050    0.58460    1.000
    C150     C        0.32520    0.44450    0.56100    1.000
    C151     C        0.36860    0.43490    0.55600    1.000
    C152     C        0.39080    0.44300    0.57710    1.000
    C153     C        0.37680    0.45530    0.60270    1.000
    C154     C        0.59020    0.43510    0.61380    1.000
    C155     C        0.59120    0.44200    0.58810    1.000
    C156     C        0.60810    0.41620    0.57210    1.000
    C157     C        0.62390    0.38350    0.58170    1.000
    C158     C        0.62300    0.37660    0.60740    1.000
    C159     C        0.60610    0.40240    0.62340    1.000
    C160     C        0.32280    0.58890    0.67140    1.000
    C161     C        0.33400    0.62950    0.67710    1.000
    C162     C        0.30800    0.66090    0.66140    1.000
    C163     C        0.28000    0.64820    0.64530    1.000
    C164     C        0.27390    0.59870    0.64870    1.000
    C165     C        0.29540    0.57580    0.65690    1.000
    C166     C        0.47310    0.38720    0.62050    1.000
    C167     C        0.50980    0.37490    0.61680    1.000
    C168     C        0.51820    0.35100    0.59690    1.000
    C169     C        0.48990    0.33940    0.58070    1.000
    C170     C        0.45310    0.35170    0.58440    1.000
    C171     C        0.44480    0.37560    0.60420    1.000
    C172     C        0.64810    0.32390    0.73180    1.000
    C173     C        0.63050    0.30330    0.71560    1.000
    C174     C        0.53040    0.27330    0.73270    1.000
    C175     C        0.54250    0.24460    0.74820    1.000
    C176     C        0.55740    0.21080    0.73550    1.000
    C177     C        0.55190    0.21250    0.70790    1.000
    C178     C        0.54320    0.24100    0.69090    1.000
    C179     C        0.52630    0.27040    0.70540    1.000
    C180     C        0.64040    0.28080    0.79880    1.000
    C181     C        0.66430    0.31310    0.80200    1.000
    C182     C        0.70380    0.31030    0.80100    1.000
    C183     C        0.71530    0.27470    0.79550    1.000
    C184     C        0.69170    0.24700    0.78590    1.000
    C185     C        0.65550    0.24320    0.78970    1.000
    C186     C        0.61220    0.47410    0.88090    1.000
    C187     C        0.64340    0.48510    0.86950    1.000
    C188     C        0.59340    0.37120    0.89300    1.000
    C189     C        0.43580    0.40220    0.87980    1.000
    C190     C        0.39850    0.42780    0.88050    1.000
    C191     C        0.48150    0.26920    0.83400    1.000
    C192     C        0.48910    0.26540    0.80860    1.000
    C193     C        0.47500    0.23480    0.79530    1.000
    C194     C        0.45320    0.20800    0.80760    1.000
    C195     C        0.44550    0.21180    0.83310    1.000
    C196     C        0.45970    0.24240    0.84630    1.000
    Cd65     Cd       0.42188    0.80130    0.89955    1.000
    Cd66     Cd       0.50872    0.87491    0.90900    1.000
    Cd67     Cd       0.39378    0.91057    0.91931    1.000
    Cd68     Cd       0.44427    0.83198    0.97100    1.000
    Cd69     Cd       0.43993    0.02202    0.91386    1.000
    Cd70     Cd       0.58828    0.90050    0.96577    1.000
    Cd71     Cd       0.47781    0.94645    0.96910    1.000
    Cd72     Cd       0.51039    0.86911    0.02757    1.000
    Cd73     Cd       0.36624    0.99495    0.96666    1.000
    Cd74     Cd       0.40408    0.90721    0.02512    1.000
    Cd75     Cd       0.33888    0.07137    0.02146    1.000
    Cd76     Cd       0.44573    0.02035    0.02322    1.000
    Cd77     Cd       0.41457    0.09056    0.08270    1.000
    Cd78     Cd       0.52514    0.05828    0.07958    1.000
    Cd79     Cd       0.36516    0.98139    0.07646    1.000
    Cd80     Cd       0.30295    0.07362    0.09567    1.000
    Se25     Se       0.45578    0.88955    0.94187    1.000
    Se26     Se       0.53367    0.92173    0.99628    1.000
    Se27     Se       0.41911    0.96562    0.99568    1.000
    Se28     Se       0.38865    0.04051    0.05112    1.000
    Se29     Se       0.38225    0.04958    0.93644    1.000
    Se30     Se       0.45374    0.88198    0.05631    1.000
    S77      S        0.24840    0.10330    0.11940    1.000
    S78      S        0.48340    0.82230    0.88132    1.000
    S79      S        0.37300    0.85290    0.89607    1.000
    S80      S        0.42600    0.77540    0.94362    1.000
    S81      S        0.47180    0.06950    0.88353    1.000
    S82      S        0.55650    0.84740    0.93987    1.000
    S83      S        0.42210    0.96110    0.89053    1.000
    S84      S        0.49720    0.81220    0.99889    1.000
    S85      S        0.33990    0.94010    0.94100    1.000
    S86      S        0.38560    0.85880    0.99213    1.000
    S87      S        0.36320    0.12640    0.99725    1.000
    S88      S        0.42670    0.14280    0.05064    1.000
    S89      S        0.31420    0.01340    0.99757    1.000
    S90      S        0.34480    0.93010    0.04813    1.000
    S91      S        0.28460    0.08850    0.05081    1.000
    S92      S        0.46870    0.06840    0.10920    1.000
    S93      S        0.35950    0.10950    0.10956    1.000
    S94      S        0.41930    0.96940    0.10512    1.000
    S95      S        0.30770    0.00310    0.10189    1.000
    C197     C        0.46630    0.83990    0.85290    1.000
    C198     C        0.46050    0.81090    0.83460    1.000
    C199     C        0.44450    0.82520    0.81100    1.000
    C200     C        0.43490    0.86860    0.80600    1.000
    C201     C        0.44300    0.89080    0.82710    1.000
    C202     C        0.45530    0.87680    0.85270    1.000
    C203     C        0.43510    0.09020    0.86380    1.000
    C204     C        0.44200    0.09120    0.83810    1.000
    C205     C        0.41620    0.10810    0.82210    1.000
    C206     C        0.38350    0.12390    0.83170    1.000
    C207     C        0.37660    0.12300    0.85740    1.000
    C208     C        0.40240    0.10610    0.87340    1.000
    C209     C        0.58890    0.82280    0.92140    1.000
    C210     C        0.62950    0.83400    0.92710    1.000
    C211     C        0.66090    0.80800    0.91140    1.000
    C212     C        0.64820    0.78000    0.89530    1.000
    C213     C        0.59870    0.77390    0.89870    1.000
    C214     C        0.57580    0.79540    0.90690    1.000
    C215     C        0.38720    0.97310    0.87050    1.000
    C216     C        0.37490    0.00980    0.86680    1.000
    C217     C        0.35100    0.01820    0.84690    1.000
    C218     C        0.33940    0.98990    0.83070    1.000
    C219     C        0.35170    0.95310    0.83440    1.000
    C220     C        0.37560    0.94480    0.85420    1.000
    C221     C        0.32390    0.14810    0.98180    1.000
    C222     C        0.30330    0.13050    0.96560    1.000
    C223     C        0.27330    0.03040    0.98270    1.000
    C224     C        0.24460    0.04250    0.99820    1.000
    C225     C        0.21080    0.05740    0.98550    1.000
    C226     C        0.21250    0.05190    0.95790    1.000
    C227     C        0.24100    0.04320    0.94090    1.000
    C228     C        0.27040    0.02630    0.95540    1.000
    C229     C        0.28080    0.14040    0.04880    1.000
    C230     C        0.31310    0.16430    0.05200    1.000
    C231     C        0.31030    0.20380    0.05100    1.000
    C232     C        0.27470    0.21530    0.04550    1.000
    C233     C        0.24700    0.19170    0.03590    1.000
    C234     C        0.24320    0.15550    0.03970    1.000
    C235     C        0.47410    0.11220    0.13090    1.000
    C236     C        0.48510    0.14340    0.11950    1.000
    C237     C        0.37120    0.09340    0.14300    1.000
    C238     C        0.40220    0.93580    0.12980    1.000
    C239     C        0.42780    0.89850    0.13050    1.000
    C240     C        0.26920    0.98150    0.08400    1.000
    C241     C        0.26540    0.98910    0.05860    1.000
    C242     C        0.23480    0.97500    0.04530    1.000
    C243     C        0.20800    0.95320    0.05760    1.000
    C244     C        0.21180    0.94550    0.08310    1.000
    C245     C        0.24240    0.95970    0.09630    1.000
    Cd81     Cd       0.92188    0.30130    0.39955    1.000
    Cd82     Cd       0.00872    0.37491    0.40900    1.000
    Cd83     Cd       0.89378    0.41057    0.41931    1.000
    Cd84     Cd       0.94427    0.33198    0.47100    1.000
    Cd85     Cd       0.93993    0.52202    0.41386    1.000
    Cd86     Cd       0.08828    0.40050    0.46577    1.000
    Cd87     Cd       0.97781    0.44645    0.46910    1.000
    Cd88     Cd       0.01039    0.36911    0.52757    1.000
    Cd89     Cd       0.86624    0.49495    0.46666    1.000
    Cd90     Cd       0.90408    0.40721    0.52512    1.000
    Cd91     Cd       0.83888    0.57137    0.52146    1.000
    Cd92     Cd       0.94573    0.52035    0.52322    1.000
    Cd93     Cd       0.91457    0.59056    0.58270    1.000
    Cd94     Cd       0.02514    0.55828    0.57958    1.000
    Cd95     Cd       0.86516    0.48139    0.57646    1.000
    Cd96     Cd       0.80295    0.57362    0.59567    1.000
    Se31     Se       0.95578    0.38955    0.44187    1.000
    Se32     Se       0.03367    0.42173    0.49628    1.000
    Se33     Se       0.91911    0.46562    0.49568    1.000
    Se34     Se       0.88865    0.54051    0.55112    1.000
    Se35     Se       0.88225    0.54958    0.43644    1.000
    Se36     Se       0.95374    0.38198    0.55631    1.000
    S96      S        0.74840    0.60330    0.61940    1.000
    S97      S        0.98340    0.32230    0.38132    1.000
    S98      S        0.87300    0.35290    0.39607    1.000
    S99      S        0.92600    0.27540    0.44362    1.000
    S100     S        0.97180    0.56950    0.38353    1.000
    S101     S        0.05650    0.34740    0.43987    1.000
    S102     S        0.92210    0.46110    0.39053    1.000
    S103     S        0.99720    0.31220    0.49889    1.000
    S104     S        0.83990    0.44010    0.44100    1.000
    S105     S        0.88560    0.35880    0.49213    1.000
    S106     S        0.86320    0.62640    0.49725    1.000
    S107     S        0.92670    0.64280    0.55064    1.000
    S108     S        0.81420    0.51340    0.49757    1.000
    S109     S        0.84480    0.43010    0.54813    1.000
    S110     S        0.78460    0.58850    0.55081    1.000
    S111     S        0.96870    0.56840    0.60920    1.000
    S112     S        0.85950    0.60950    0.60956    1.000
    S113     S        0.91930    0.46940    0.60512    1.000
    S114     S        0.80770    0.50310    0.60189    1.000
    C246     C        0.96630    0.33990    0.35290    1.000
    C247     C        0.96050    0.31090    0.33460    1.000
    C248     C        0.94450    0.32520    0.31100    1.000
    C249     C        0.93490    0.36860    0.30600    1.000
    C250     C        0.94300    0.39080    0.32710    1.000
    C251     C        0.95530    0.37680    0.35270    1.000
    C252     C        0.93510    0.59020    0.36380    1.000
    C253     C        0.94200    0.59120    0.33810    1.000
    C254     C        0.91620    0.60810    0.32210    1.000
    C255     C        0.88350    0.62390    0.33170    1.000
    C256     C        0.87660    0.62300    0.35740    1.000
    C257     C        0.90240    0.60610    0.37340    1.000
    C258     C        0.08890    0.32280    0.42140    1.000
    C259     C        0.12950    0.33400    0.42710    1.000
    C260     C        0.16090    0.30800    0.41140    1.000
    C261     C        0.14820    0.28000    0.39530    1.000
    C262     C        0.09870    0.27390    0.39870    1.000
    C263     C        0.07580    0.29540    0.40690    1.000
    C264     C        0.88720    0.47310    0.37050    1.000
    C265     C        0.87490    0.50980    0.36680    1.000
    C266     C        0.85100    0.51820    0.34690    1.000
    C267     C        0.83940    0.48990    0.33070    1.000
    C268     C        0.85170    0.45310    0.33440    1.000
    C269     C        0.87560    0.44480    0.35420    1.000
    C270     C        0.82390    0.64810    0.48180    1.000
    C271     C        0.80330    0.63050    0.46560    1.000
    C272     C        0.77330    0.53040    0.48270    1.000
    C273     C        0.74460    0.54250    0.49820    1.000
    C274     C        0.71080    0.55740    0.48550    1.000
    C275     C        0.71250    0.55190    0.45790    1.000
    C276     C        0.74100    0.54320    0.44090    1.000
    C277     C        0.77040    0.52630    0.45540    1.000
    C278     C        0.78080    0.64040    0.54880    1.000
    C279     C        0.81310    0.66430    0.55200    1.000
    C280     C        0.81030    0.70380    0.55100    1.000
    C281     C        0.77470    0.71530    0.54550    1.000
    C282     C        0.74700    0.69170    0.53590    1.000
    C283     C        0.74320    0.65550    0.53970    1.000
    C284     C        0.97410    0.61220    0.63090    1.000
    C285     C        0.98510    0.64340    0.61950    1.000
    C286     C        0.87120    0.59340    0.64300    1.000
    C287     C        0.90220    0.43580    0.62980    1.000
    C288     C        0.92780    0.39850    0.63050    1.000
    C289     C        0.76920    0.48150    0.58400    1.000
    C290     C        0.76540    0.48910    0.55860    1.000
    C291     C        0.73480    0.47500    0.54530    1.000
    C292     C        0.70800    0.45320    0.55760    1.000
    C293     C        0.71180    0.44550    0.58310    1.000
    C294     C        0.74240    0.45970    0.59630    1.000
    Cd97     Cd       0.57812    0.19870    0.89955    1.000
    Cd98     Cd       0.49128    0.12509    0.90900    1.000
    Cd99     Cd       0.60622    0.08943    0.91931    1.000
    Cd100    Cd       0.55573    0.16802    0.97100    1.000
    Cd101    Cd       0.56007    0.97798    0.91386    1.000
    Cd102    Cd       0.41172    0.09950    0.96577    1.000
    Cd103    Cd       0.52219    0.05355    0.96910    1.000
    Cd104    Cd       0.48961    0.13089    0.02757    1.000
    Cd105    Cd       0.63376    0.00505    0.96666    1.000
    Cd106    Cd       0.59592    0.09279    0.02512    1.000
    Cd107    Cd       0.66112    0.92863    0.02146    1.000
    Cd108    Cd       0.55427    0.97965    0.02322    1.000
    Cd109    Cd       0.58543    0.90944    0.08270    1.000
    Cd110    Cd       0.47486    0.94172    0.07958    1.000
    Cd111    Cd       0.63484    0.01861    0.07646    1.000
    Cd112    Cd       0.69705    0.92638    0.09567    1.000
    Se37     Se       0.54422    0.11045    0.94187    1.000
    Se38     Se       0.46633    0.07827    0.99628    1.000
    Se39     Se       0.58089    0.03438    0.99568    1.000
    Se40     Se       0.61135    0.95949    0.05112    1.000
    Se41     Se       0.61775    0.95042    0.93644    1.000
    Se42     Se       0.54626    0.11802    0.05631    1.000
    S115     S        0.75160    0.89670    0.11940    1.000
    S116     S        0.51660    0.17770    0.88132    1.000
    S117     S        0.62700    0.14710    0.89607    1.000
    S118     S        0.57400    0.22460    0.94362    1.000
    S119     S        0.52820    0.93050    0.88353    1.000
    S120     S        0.44350    0.15260    0.93987    1.000
    S121     S        0.57790    0.03890    0.89053    1.000
    S122     S        0.50280    0.18780    0.99889    1.000
    S123     S        0.66010    0.05990    0.94100    1.000
    S124     S        0.61440    0.14120    0.99213    1.000
    S125     S        0.63680    0.87360    0.99725    1.000
    S126     S        0.57330    0.85720    0.05064    1.000
    S127     S        0.68580    0.98660    0.99757    1.000
    S128     S        0.65520    0.06990    0.04813    1.000
    S129     S        0.71540    0.91150    0.05081    1.000
    S130     S        0.53130    0.93160    0.10920    1.000
    S131     S        0.64050    0.89050    0.10956    1.000
    S132     S        0.58070    0.03060    0.10512    1.000
    S133     S        0.69230    0.99690    0.10189    1.000
    C295     C        0.53370    0.16010    0.85290    1.000
    C296     C        0.53950    0.18910    0.83460    1.000
    C297     C        0.55550    0.17480    0.81100    1.000
    C298     C        0.56510    0.13140    0.80600    1.000
    C299     C        0.55700    0.10920    0.82710    1.000
    C300     C        0.54470    0.12320    0.85270    1.000
    C301     C        0.56490    0.90980    0.86380    1.000
    C302     C        0.55800    0.90880    0.83810    1.000
    C303     C        0.58380    0.89190    0.82210    1.000
    C304     C        0.61650    0.87610    0.83170    1.000
    C305     C        0.62340    0.87700    0.85740    1.000
    C306     C        0.59760    0.89390    0.87340    1.000
    C307     C        0.41110    0.17720    0.92140    1.000
    C308     C        0.37050    0.16600    0.92710    1.000
    C309     C        0.33910    0.19200    0.91140    1.000
    C310     C        0.35180    0.22000    0.89530    1.000
    C311     C        0.40130    0.22610    0.89870    1.000
    C312     C        0.42420    0.20460    0.90690    1.000
    C313     C        0.61280    0.02690    0.87050    1.000
    C314     C        0.62510    0.99020    0.86680    1.000
    C315     C        0.64900    0.98180    0.84690    1.000
    C316     C        0.66060    0.01010    0.83070    1.000
    C317     C        0.64830    0.04690    0.83440    1.000
    C318     C        0.62440    0.05520    0.85420    1.000
    C319     C        0.67610    0.85190    0.98180    1.000
    C320     C        0.69670    0.86950    0.96560    1.000
    C321     C        0.72670    0.96960    0.98270    1.000
    C322     C        0.75540    0.95750    0.99820    1.000
    C323     C        0.78920    0.94260    0.98550    1.000
    C324     C        0.78750    0.94810    0.95790    1.000
    C325     C        0.75900    0.95680    0.94090    1.000
    C326     C        0.72960    0.97370    0.95540    1.000
    C327     C        0.71920    0.85960    0.04880    1.000
    C328     C        0.68690    0.83570    0.05200    1.000
    C329     C        0.68970    0.79620    0.05100    1.000
    C330     C        0.72530    0.78470    0.04550    1.000
    C331     C        0.75300    0.80830    0.03590    1.000
    C332     C        0.75680    0.84450    0.03970    1.000
    C333     C        0.52590    0.88780    0.13090    1.000
    C334     C        0.51490    0.85660    0.11950    1.000
    C335     C        0.62880    0.90660    0.14300    1.000
    C336     C        0.59780    0.06420    0.12980    1.000
    C337     C        0.57220    0.10150    0.13050    1.000
    C338     C        0.73080    0.01850    0.08400    1.000
    C339     C        0.73460    0.01090    0.05860    1.000
    C340     C        0.76520    0.02500    0.04530    1.000
    C341     C        0.79200    0.04680    0.05760    1.000
    C342     C        0.78820    0.05450    0.08310    1.000
    C343     C        0.75760    0.04030    0.09630    1.000
    Cd113    Cd       0.07812    0.69870    0.39955    1.000
    Cd114    Cd       0.99128    0.62509    0.40900    1.000
    Cd115    Cd       0.10622    0.58943    0.41931    1.000
    Cd116    Cd       0.05573    0.66802    0.47100    1.000
    Cd117    Cd       0.06007    0.47798    0.41386    1.000
    Cd118    Cd       0.91172    0.59950    0.46577    1.000
    Cd119    Cd       0.02219    0.55355    0.46910    1.000
    Cd120    Cd       0.98961    0.63089    0.52757    1.000
    Cd121    Cd       0.13376    0.50505    0.46666    1.000
    Cd122    Cd       0.09592    0.59279    0.52512    1.000
    Cd123    Cd       0.16112    0.42863    0.52146    1.000
    Cd124    Cd       0.05427    0.47965    0.52322    1.000
    Cd125    Cd       0.08543    0.40944    0.58270    1.000
    Cd126    Cd       0.97486    0.44172    0.57958    1.000
    Cd127    Cd       0.13484    0.51861    0.57646    1.000
    Cd128    Cd       0.19705    0.42638    0.59567    1.000
    Se43     Se       0.04422    0.61045    0.44187    1.000
    Se44     Se       0.96633    0.57827    0.49628    1.000
    Se45     Se       0.08089    0.53438    0.49568    1.000
    Se46     Se       0.11135    0.45949    0.55112    1.000
    Se47     Se       0.11775    0.45042    0.43644    1.000
    Se48     Se       0.04626    0.61802    0.55631    1.000
    S134     S        0.25160    0.39670    0.61940    1.000
    S135     S        0.01660    0.67770    0.38132    1.000
    S136     S        0.12700    0.64710    0.39607    1.000
    S137     S        0.07400    0.72460    0.44362    1.000
    S138     S        0.02820    0.43050    0.38353    1.000
    S139     S        0.94350    0.65260    0.43987    1.000
    S140     S        0.07790    0.53890    0.39053    1.000
    S141     S        0.00280    0.68780    0.49889    1.000
    S142     S        0.16010    0.55990    0.44100    1.000
    S143     S        0.11440    0.64120    0.49213    1.000
    S144     S        0.13680    0.37360    0.49725    1.000
    S145     S        0.07330    0.35720    0.55064    1.000
    S146     S        0.18580    0.48660    0.49757    1.000
    S147     S        0.15520    0.56990    0.54813    1.000
    S148     S        0.21540    0.41150    0.55081    1.000
    S149     S        0.03130    0.43160    0.60920    1.000
    S150     S        0.14050    0.39050    0.60956    1.000
    S151     S        0.08070    0.53060    0.60512    1.000
    S152     S        0.19230    0.49690    0.60189    1.000
    C344     C        0.03370    0.66010    0.35290    1.000
    C345     C        0.03950    0.68910    0.33460    1.000
    C346     C        0.05550    0.67480    0.31100    1.000
    C347     C        0.06510    0.63140    0.30600    1.000
    C348     C        0.05700    0.60920    0.32710    1.000
    C349     C        0.04470    0.62320    0.35270    1.000
    C350     C        0.06490    0.40980    0.36380    1.000
    C351     C        0.05800    0.40880    0.33810    1.000
    C352     C        0.08380    0.39190    0.32210    1.000
    C353     C        0.11650    0.37610    0.33170    1.000
    C354     C        0.12340    0.37700    0.35740    1.000
    C355     C        0.09760    0.39390    0.37340    1.000
    C356     C        0.91110    0.67720    0.42140    1.000
    C357     C        0.87050    0.66600    0.42710    1.000
    C358     C        0.83910    0.69200    0.41140    1.000
    C359     C        0.85180    0.72000    0.39530    1.000
    C360     C        0.90130    0.72610    0.39870    1.000
    C361     C        0.92420    0.70460    0.40690    1.000
    C362     C        0.11280    0.52690    0.37050    1.000
    C363     C        0.12510    0.49020    0.36680    1.000
    C364     C        0.14900    0.48180    0.34690    1.000
    C365     C        0.16060    0.51010    0.33070    1.000
    C366     C        0.14830    0.54690    0.33440    1.000
    C367     C        0.12440    0.55520    0.35420    1.000
    C368     C        0.17610    0.35190    0.48180    1.000
    C369     C        0.19670    0.36950    0.46560    1.000
    C370     C        0.22670    0.46960    0.48270    1.000
    C371     C        0.25540    0.45750    0.49820    1.000
    C372     C        0.28920    0.44260    0.48550    1.000
    C373     C        0.28750    0.44810    0.45790    1.000
    C374     C        0.25900    0.45680    0.44090    1.000
    C375     C        0.22960    0.47370    0.45540    1.000
    C376     C        0.21920    0.35960    0.54880    1.000
    C377     C        0.18690    0.33570    0.55200    1.000
    C378     C        0.18970    0.29620    0.55100    1.000
    C379     C        0.22530    0.28470    0.54550    1.000
    C380     C        0.25300    0.30830    0.53590    1.000
    C381     C        0.25680    0.34450    0.53970    1.000
    C382     C        0.02590    0.38780    0.63090    1.000
    C383     C        0.01490    0.35660    0.61950    1.000
    C384     C        0.12880    0.40660    0.64300    1.000
    C385     C        0.09780    0.56420    0.62980    1.000
    C386     C        0.07220    0.60150    0.63050    1.000
    C387     C        0.23080    0.51850    0.58400    1.000
    C388     C        0.23460    0.51090    0.55860    1.000
    C389     C        0.26520    0.52500    0.54530    1.000
    C390     C        0.29200    0.54680    0.55760    1.000
    C391     C        0.28820    0.55450    0.58310    1.000
    C392     C        0.25760    0.54030    0.59630    1.000
    Se49     Se       0.00000    0.00000    0.18918    1.000
    Se50     Se       0.00000    0.00000    0.30337    1.000
    Se51     Se       0.50000    0.50000    0.68918    1.000
    Se52     Se       0.50000    0.50000    0.80337    1.000
    Se53     Se       0.50000    0.00000    0.93918    1.000
    Se54     Se       0.50000    0.00000    0.05337    1.000
    Se55     Se       0.00000    0.50000    0.43918    1.000
    Se56     Se       0.00000    0.50000    0.55337    1.000
    Cd129    Cd       0.07812    0.80130    0.85045    1.000
    Cd130    Cd       0.99128    0.87491    0.84100    1.000
    Cd131    Cd       0.10622    0.91057    0.83069    1.000
    Cd132    Cd       0.05573    0.83198    0.77900    1.000
    Cd133    Cd       0.06007    0.02202    0.83614    1.000
    Cd134    Cd       0.91172    0.90050    0.78423    1.000
    Cd135    Cd       0.02219    0.94645    0.78090    1.000
    Cd136    Cd       0.98961    0.86911    0.72243    1.000
    Cd137    Cd       0.13376    0.99495    0.78334    1.000
    Cd138    Cd       0.09592    0.90721    0.72488    1.000
    Cd139    Cd       0.16112    0.07137    0.72854    1.000
    Cd140    Cd       0.05427    0.02035    0.72678    1.000
    Cd141    Cd       0.08543    0.09056    0.66730    1.000
    Cd142    Cd       0.97486    0.05828    0.67042    1.000
    Cd143    Cd       0.13484    0.98139    0.67354    1.000
    Cd144    Cd       0.19705    0.07362    0.65433    1.000
    Se57     Se       0.04422    0.88955    0.80813    1.000
    Se58     Se       0.96633    0.92173    0.75372    1.000
    Se59     Se       0.08089    0.96562    0.75432    1.000
    Se60     Se       0.11135    0.04051    0.69888    1.000
    Se61     Se       0.11775    0.04958    0.81356    1.000
    Se62     Se       0.04626    0.88198    0.69369    1.000
    S153     S        0.25160    0.10330    0.63060    1.000
    S154     S        0.01660    0.82230    0.86868    1.000
    S155     S        0.12700    0.85290    0.85393    1.000
    S156     S        0.07400    0.77540    0.80638    1.000
    S157     S        0.02820    0.06950    0.86647    1.000
    S158     S        0.94350    0.84740    0.81013    1.000
    S159     S        0.07790    0.96110    0.85947    1.000
    S160     S        0.00280    0.81220    0.75111    1.000
    S161     S        0.16010    0.94010    0.80900    1.000
    S162     S        0.11440    0.85880    0.75787    1.000
    S163     S        0.13680    0.12640    0.75275    1.000
    S164     S        0.07330    0.14280    0.69936    1.000
    S165     S        0.18580    0.01340    0.75243    1.000
    S166     S        0.15520    0.93010    0.70187    1.000
    S167     S        0.21540    0.08850    0.69919    1.000
    S168     S        0.03130    0.06840    0.64080    1.000
    S169     S        0.14050    0.10950    0.64044    1.000
    S170     S        0.08070    0.96940    0.64488    1.000
    S171     S        0.19230    0.00310    0.64811    1.000
    C393     C        0.03370    0.83990    0.89710    1.000
    C394     C        0.03950    0.81090    0.91540    1.000
    C395     C        0.05550    0.82520    0.93900    1.000
    C396     C        0.06510    0.86860    0.94400    1.000
    C397     C        0.05700    0.89080    0.92290    1.000
    C398     C        0.04470    0.87680    0.89730    1.000
    C399     C        0.06490    0.09020    0.88620    1.000
    C400     C        0.05800    0.09120    0.91190    1.000
    C401     C        0.08380    0.10810    0.92790    1.000
    C402     C        0.11650    0.12390    0.91830    1.000
    C403     C        0.12340    0.12300    0.89260    1.000
    C404     C        0.09760    0.10610    0.87660    1.000
    C405     C        0.91110    0.82280    0.82860    1.000
    C406     C        0.87050    0.83400    0.82290    1.000
    C407     C        0.83910    0.80800    0.83860    1.000
    C408     C        0.85180    0.78000    0.85470    1.000
    C409     C        0.90130    0.77390    0.85130    1.000
    C410     C        0.92420    0.79540    0.84310    1.000
    C411     C        0.11280    0.97310    0.87950    1.000
    C412     C        0.12510    0.00980    0.88320    1.000
    C413     C        0.14900    0.01820    0.90310    1.000
    C414     C        0.16060    0.98990    0.91930    1.000
    C415     C        0.14830    0.95310    0.91560    1.000
    C416     C        0.12440    0.94480    0.89580    1.000
    C417     C        0.17610    0.14810    0.76820    1.000
    C418     C        0.19670    0.13050    0.78440    1.000
    C419     C        0.22670    0.03040    0.76730    1.000
    C420     C        0.25540    0.04250    0.75180    1.000
    C421     C        0.28920    0.05740    0.76450    1.000
    C422     C        0.28750    0.05190    0.79210    1.000
    C423     C        0.25900    0.04320    0.80910    1.000
    C424     C        0.22960    0.02630    0.79460    1.000
    C425     C        0.21920    0.14040    0.70120    1.000
    C426     C        0.18690    0.16430    0.69800    1.000
    C427     C        0.18970    0.20380    0.69900    1.000
    C428     C        0.22530    0.21530    0.70450    1.000
    C429     C        0.25300    0.19170    0.71410    1.000
    C430     C        0.25680    0.15550    0.71030    1.000
    C431     C        0.02590    0.11220    0.61910    1.000
    C432     C        0.01490    0.14340    0.63050    1.000
    C433     C        0.12880    0.09340    0.60700    1.000
    C434     C        0.09780    0.93580    0.62020    1.000
    C435     C        0.07220    0.89850    0.61950    1.000
    C436     C        0.23080    0.98150    0.66600    1.000
    C437     C        0.23460    0.98910    0.69140    1.000
    C438     C        0.26520    0.97500    0.70470    1.000
    C439     C        0.29200    0.95320    0.69240    1.000
    C440     C        0.28820    0.94550    0.66690    1.000
    C441     C        0.25760    0.95970    0.65370    1.000
    Cd145    Cd       0.57812    0.30130    0.35045    1.000
    Cd146    Cd       0.49128    0.37491    0.34100    1.000
    Cd147    Cd       0.60622    0.41057    0.33069    1.000
    Cd148    Cd       0.55573    0.33198    0.27900    1.000
    Cd149    Cd       0.56007    0.52202    0.33614    1.000
    Cd150    Cd       0.41172    0.40050    0.28423    1.000
    Cd151    Cd       0.52219    0.44645    0.28090    1.000
    Cd152    Cd       0.48961    0.36911    0.22243    1.000
    Cd153    Cd       0.63376    0.49495    0.28334    1.000
    Cd154    Cd       0.59592    0.40721    0.22488    1.000
    Cd155    Cd       0.66112    0.57137    0.22854    1.000
    Cd156    Cd       0.55427    0.52035    0.22678    1.000
    Cd157    Cd       0.58543    0.59056    0.16730    1.000
    Cd158    Cd       0.47486    0.55828    0.17042    1.000
    Cd159    Cd       0.63484    0.48139    0.17354    1.000
    Cd160    Cd       0.69705    0.57362    0.15433    1.000
    Se63     Se       0.54422    0.38955    0.30813    1.000
    Se64     Se       0.46633    0.42173    0.25372    1.000
    Se65     Se       0.58089    0.46562    0.25432    1.000
    Se66     Se       0.61135    0.54051    0.19888    1.000
    Se67     Se       0.61775    0.54958    0.31356    1.000
    Se68     Se       0.54626    0.38198    0.19369    1.000
    S172     S        0.75160    0.60330    0.13060    1.000
    S173     S        0.51660    0.32230    0.36868    1.000
    S174     S        0.62700    0.35290    0.35393    1.000
    S175     S        0.57400    0.27540    0.30638    1.000
    S176     S        0.52820    0.56950    0.36647    1.000
    S177     S        0.44350    0.34740    0.31013    1.000
    S178     S        0.57790    0.46110    0.35947    1.000
    S179     S        0.50280    0.31220    0.25111    1.000
    S180     S        0.66010    0.44010    0.30900    1.000
    S181     S        0.61440    0.35880    0.25787    1.000
    S182     S        0.63680    0.62640    0.25275    1.000
    S183     S        0.57330    0.64280    0.19936    1.000
    S184     S        0.68580    0.51340    0.25243    1.000
    S185     S        0.65520    0.43010    0.20187    1.000
    S186     S        0.71540    0.58850    0.19919    1.000
    S187     S        0.53130    0.56840    0.14080    1.000
    S188     S        0.64050    0.60950    0.14044    1.000
    S189     S        0.58070    0.46940    0.14488    1.000
    S190     S        0.69230    0.50310    0.14811    1.000
    C442     C        0.53370    0.33990    0.39710    1.000
    C443     C        0.53950    0.31090    0.41540    1.000
    C444     C        0.55550    0.32520    0.43900    1.000
    C445     C        0.56510    0.36860    0.44400    1.000
    C446     C        0.55700    0.39080    0.42290    1.000
    C447     C        0.54470    0.37680    0.39730    1.000
    C448     C        0.56490    0.59020    0.38620    1.000
    C449     C        0.55800    0.59120    0.41190    1.000
    C450     C        0.58380    0.60810    0.42790    1.000
    C451     C        0.61650    0.62390    0.41830    1.000
    C452     C        0.62340    0.62300    0.39260    1.000
    C453     C        0.59760    0.60610    0.37660    1.000
    C454     C        0.41110    0.32280    0.32860    1.000
    C455     C        0.37050    0.33400    0.32290    1.000
    C456     C        0.33910    0.30800    0.33860    1.000
    C457     C        0.35180    0.28000    0.35470    1.000
    C458     C        0.40130    0.27390    0.35130    1.000
    C459     C        0.42420    0.29540    0.34310    1.000
    C460     C        0.61280    0.47310    0.37950    1.000
    C461     C        0.62510    0.50980    0.38320    1.000
    C462     C        0.64900    0.51820    0.40310    1.000
    C463     C        0.66060    0.48990    0.41930    1.000
    C464     C        0.64830    0.45310    0.41560    1.000
    C465     C        0.62440    0.44480    0.39580    1.000
    C466     C        0.67610    0.64810    0.26820    1.000
    C467     C        0.69670    0.63050    0.28440    1.000
    C468     C        0.72670    0.53040    0.26730    1.000
    C469     C        0.75540    0.54250    0.25180    1.000
    C470     C        0.78920    0.55740    0.26450    1.000
    C471     C        0.78750    0.55190    0.29210    1.000
    C472     C        0.75900    0.54320    0.30910    1.000
    C473     C        0.72960    0.52630    0.29460    1.000
    C474     C        0.71920    0.64040    0.20120    1.000
    C475     C        0.68690    0.66430    0.19800    1.000
    C476     C        0.68970    0.70380    0.19900    1.000
    C477     C        0.72530    0.71530    0.20450    1.000
    C478     C        0.75300    0.69170    0.21410    1.000
    C479     C        0.75680    0.65550    0.21030    1.000
    C480     C        0.52590    0.61220    0.11910    1.000
    C481     C        0.51490    0.64340    0.13050    1.000
    C482     C        0.62880    0.59340    0.10700    1.000
    C483     C        0.59780    0.43580    0.12020    1.000
    C484     C        0.57220    0.39850    0.11950    1.000
    C485     C        0.73080    0.48150    0.16600    1.000
    C486     C        0.73460    0.48910    0.19140    1.000
    C487     C        0.76520    0.47500    0.20470    1.000
    C488     C        0.79200    0.45320    0.19240    1.000
    C489     C        0.78820    0.44550    0.16690    1.000
    C490     C        0.75760    0.45970    0.15370    1.000
    Cd161    Cd       0.92188    0.19870    0.85045    1.000
    Cd162    Cd       0.00872    0.12509    0.84100    1.000
    Cd163    Cd       0.89378    0.08943    0.83069    1.000
    Cd164    Cd       0.94427    0.16802    0.77900    1.000
    Cd165    Cd       0.93993    0.97798    0.83614    1.000
    Cd166    Cd       0.08828    0.09950    0.78423    1.000
    Cd167    Cd       0.97781    0.05355    0.78090    1.000
    Cd168    Cd       0.01039    0.13089    0.72243    1.000
    Cd169    Cd       0.86624    0.00505    0.78334    1.000
    Cd170    Cd       0.90408    0.09279    0.72488    1.000
    Cd171    Cd       0.83888    0.92863    0.72854    1.000
    Cd172    Cd       0.94573    0.97965    0.72678    1.000
    Cd173    Cd       0.91457    0.90944    0.66730    1.000
    Cd174    Cd       0.02514    0.94172    0.67042    1.000
    Cd175    Cd       0.86516    0.01861    0.67354    1.000
    Cd176    Cd       0.80295    0.92638    0.65433    1.000
    Se69     Se       0.95578    0.11045    0.80813    1.000
    Se70     Se       0.03367    0.07827    0.75372    1.000
    Se71     Se       0.91911    0.03438    0.75432    1.000
    Se72     Se       0.88865    0.95949    0.69888    1.000
    Se73     Se       0.88225    0.95042    0.81356    1.000
    Se74     Se       0.95374    0.11802    0.69369    1.000
    S191     S        0.74840    0.89670    0.63060    1.000
    S192     S        0.98340    0.17770    0.86868    1.000
    S193     S        0.87300    0.14710    0.85393    1.000
    S194     S        0.92600    0.22460    0.80638    1.000
    S195     S        0.97180    0.93050    0.86647    1.000
    S196     S        0.05650    0.15260    0.81013    1.000
    S197     S        0.92210    0.03890    0.85947    1.000
    S198     S        0.99720    0.18780    0.75111    1.000
    S199     S        0.83990    0.05990    0.80900    1.000
    S200     S        0.88560    0.14120    0.75787    1.000
    S201     S        0.86320    0.87360    0.75275    1.000
    S202     S        0.92670    0.85720    0.69936    1.000
    S203     S        0.81420    0.98660    0.75243    1.000
    S204     S        0.84480    0.06990    0.70187    1.000
    S205     S        0.78460    0.91150    0.69919    1.000
    S206     S        0.96870    0.93160    0.64080    1.000
    S207     S        0.85950    0.89050    0.64044    1.000
    S208     S        0.91930    0.03060    0.64488    1.000
    S209     S        0.80770    0.99690    0.64811    1.000
    C491     C        0.96630    0.16010    0.89710    1.000
    C492     C        0.96050    0.18910    0.91540    1.000
    C493     C        0.94450    0.17480    0.93900    1.000
    C494     C        0.93490    0.13140    0.94400    1.000
    C495     C        0.94300    0.10920    0.92290    1.000
    C496     C        0.95530    0.12320    0.89730    1.000
    C497     C        0.93510    0.90980    0.88620    1.000
    C498     C        0.94200    0.90880    0.91190    1.000
    C499     C        0.91620    0.89190    0.92790    1.000
    C500     C        0.88350    0.87610    0.91830    1.000
    C501     C        0.87660    0.87700    0.89260    1.000
    C502     C        0.90240    0.89390    0.87660    1.000
    C503     C        0.08890    0.17720    0.82860    1.000
    C504     C        0.12950    0.16600    0.82290    1.000
    C505     C        0.16090    0.19200    0.83860    1.000
    C506     C        0.14820    0.22000    0.85470    1.000
    C507     C        0.09870    0.22610    0.85130    1.000
    C508     C        0.07580    0.20460    0.84310    1.000
    C509     C        0.88720    0.02690    0.87950    1.000
    C510     C        0.87490    0.99020    0.88320    1.000
    C511     C        0.85100    0.98180    0.90310    1.000
    C512     C        0.83940    0.01010    0.91930    1.000
    C513     C        0.85170    0.04690    0.91560    1.000
    C514     C        0.87560    0.05520    0.89580    1.000
    C515     C        0.82390    0.85190    0.76820    1.000
    C516     C        0.80330    0.86950    0.78440    1.000
    C517     C        0.77330    0.96960    0.76730    1.000
    C518     C        0.74460    0.95750    0.75180    1.000
    C519     C        0.71080    0.94260    0.76450    1.000
    C520     C        0.71250    0.94810    0.79210    1.000
    C521     C        0.74100    0.95680    0.80910    1.000
    C522     C        0.77040    0.97370    0.79460    1.000
    C523     C        0.78080    0.85960    0.70120    1.000
    C524     C        0.81310    0.83570    0.69800    1.000
    C525     C        0.81030    0.79620    0.69900    1.000
    C526     C        0.77470    0.78470    0.70450    1.000
    C527     C        0.74700    0.80830    0.71410    1.000
    C528     C        0.74320    0.84450    0.71030    1.000
    C529     C        0.97410    0.88780    0.61910    1.000
    C530     C        0.98510    0.85660    0.63050    1.000
    C531     C        0.87120    0.90660    0.60700    1.000
    C532     C        0.90220    0.06420    0.62020    1.000
    C533     C        0.92780    0.10150    0.61950    1.000
    C534     C        0.76920    0.01850    0.66600    1.000
    C535     C        0.76540    0.01090    0.69140    1.000
    C536     C        0.73480    0.02500    0.70470    1.000
    C537     C        0.70800    0.04680    0.69240    1.000
    C538     C        0.71180    0.05450    0.66690    1.000
    C539     C        0.74240    0.04030    0.65370    1.000
    Cd177    Cd       0.42188    0.69870    0.35045    1.000
    Cd178    Cd       0.50872    0.62509    0.34100    1.000
    Cd179    Cd       0.39378    0.58943    0.33069    1.000
    Cd180    Cd       0.44427    0.66802    0.27900    1.000
    Cd181    Cd       0.43993    0.47798    0.33614    1.000
    Cd182    Cd       0.58828    0.59950    0.28423    1.000
    Cd183    Cd       0.47781    0.55355    0.28090    1.000
    Cd184    Cd       0.51039    0.63089    0.22243    1.000
    Cd185    Cd       0.36624    0.50505    0.28334    1.000
    Cd186    Cd       0.40408    0.59279    0.22488    1.000
    Cd187    Cd       0.33888    0.42863    0.22854    1.000
    Cd188    Cd       0.44573    0.47965    0.22678    1.000
    Cd189    Cd       0.41457    0.40944    0.16730    1.000
    Cd190    Cd       0.52514    0.44172    0.17042    1.000
    Cd191    Cd       0.36516    0.51861    0.17354    1.000
    Cd192    Cd       0.30295    0.42638    0.15433    1.000
    Se75     Se       0.45578    0.61045    0.30813    1.000
    Se76     Se       0.53367    0.57827    0.25372    1.000
    Se77     Se       0.41911    0.53438    0.25432    1.000
    Se78     Se       0.38865    0.45949    0.19888    1.000
    Se79     Se       0.38225    0.45042    0.31356    1.000
    Se80     Se       0.45374    0.61802    0.19369    1.000
    S210     S        0.24840    0.39670    0.13060    1.000
    S211     S        0.48340    0.67770    0.36868    1.000
    S212     S        0.37300    0.64710    0.35393    1.000
    S213     S        0.42600    0.72460    0.30638    1.000
    S214     S        0.47180    0.43050    0.36647    1.000
    S215     S        0.55650    0.65260    0.31013    1.000
    S216     S        0.42210    0.53890    0.35947    1.000
    S217     S        0.49720    0.68780    0.25111    1.000
    S218     S        0.33990    0.55990    0.30900    1.000
    S219     S        0.38560    0.64120    0.25787    1.000
    S220     S        0.36320    0.37360    0.25275    1.000
    S221     S        0.42670    0.35720    0.19936    1.000
    S222     S        0.31420    0.48660    0.25243    1.000
    S223     S        0.34480    0.56990    0.20187    1.000
    S224     S        0.28460    0.41150    0.19919    1.000
    S225     S        0.46870    0.43160    0.14080    1.000
    S226     S        0.35950    0.39050    0.14044    1.000
    S227     S        0.41930    0.53060    0.14488    1.000
    S228     S        0.30770    0.49690    0.14811    1.000
    C540     C        0.46630    0.66010    0.39710    1.000
    C541     C        0.46050    0.68910    0.41540    1.000
    C542     C        0.44450    0.67480    0.43900    1.000
    C543     C        0.43490    0.63140    0.44400    1.000
    C544     C        0.44300    0.60920    0.42290    1.000
    C545     C        0.45530    0.62320    0.39730    1.000
    C546     C        0.43510    0.40980    0.38620    1.000
    C547     C        0.44200    0.40880    0.41190    1.000
    C548     C        0.41620    0.39190    0.42790    1.000
    C549     C        0.38350    0.37610    0.41830    1.000
    C550     C        0.37660    0.37700    0.39260    1.000
    C551     C        0.40240    0.39390    0.37660    1.000
    C552     C        0.58890    0.67720    0.32860    1.000
    C553     C        0.62950    0.66600    0.32290    1.000
    C554     C        0.66090    0.69200    0.33860    1.000
    C555     C        0.64820    0.72000    0.35470    1.000
    C556     C        0.59870    0.72610    0.35130    1.000
    C557     C        0.57580    0.70460    0.34310    1.000
    C558     C        0.38720    0.52690    0.37950    1.000
    C559     C        0.37490    0.49020    0.38320    1.000
    C560     C        0.35100    0.48180    0.40310    1.000
    C561     C        0.33940    0.51010    0.41930    1.000
    C562     C        0.35170    0.54690    0.41560    1.000
    C563     C        0.37560    0.55520    0.39580    1.000
    C564     C        0.32390    0.35190    0.26820    1.000
    C565     C        0.30330    0.36950    0.28440    1.000
    C566     C        0.27330    0.46960    0.26730    1.000
    C567     C        0.24460    0.45750    0.25180    1.000
    C568     C        0.21080    0.44260    0.26450    1.000
    C569     C        0.21250    0.44810    0.29210    1.000
    C570     C        0.24100    0.45680    0.30910    1.000
    C571     C        0.27040    0.47370    0.29460    1.000
    C572     C        0.28080    0.35960    0.20120    1.000
    C573     C        0.31310    0.33570    0.19800    1.000
    C574     C        0.31030    0.29620    0.19900    1.000
    C575     C        0.27470    0.28470    0.20450    1.000
    C576     C        0.24700    0.30830    0.21410    1.000
    C577     C        0.24320    0.34450    0.21030    1.000
    C578     C        0.47410    0.38780    0.11910    1.000
    C579     C        0.48510    0.35660    0.13050    1.000
    C580     C        0.37120    0.40660    0.10700    1.000
    C581     C        0.40220    0.56420    0.12020    1.000
    C582     C        0.42780    0.60150    0.11950    1.000
    C583     C        0.26920    0.51850    0.16600    1.000
    C584     C        0.26540    0.51090    0.19140    1.000
    C585     C        0.23480    0.52500    0.20470    1.000
    C586     C        0.20800    0.54680    0.19240    1.000
    C587     C        0.21180    0.55450    0.16690    1.000
    C588     C        0.24240    0.54030    0.15370    1.000
    Cd193    Cd       0.30130    0.07812    0.60045    1.000
    Cd194    Cd       0.37491    0.99128    0.59100    1.000
    Cd195    Cd       0.41057    0.10622    0.58069    1.000
    Cd196    Cd       0.33198    0.05573    0.52900    1.000
    Cd197    Cd       0.52202    0.06007    0.58614    1.000
    Cd198    Cd       0.40050    0.91172    0.53423    1.000
    Cd199    Cd       0.44645    0.02219    0.53090    1.000
    Cd200    Cd       0.36911    0.98961    0.47243    1.000
    Cd201    Cd       0.49495    0.13376    0.53334    1.000
    Cd202    Cd       0.40721    0.09592    0.47488    1.000
    Cd203    Cd       0.57137    0.16112    0.47854    1.000
    Cd204    Cd       0.52035    0.05427    0.47678    1.000
    Cd205    Cd       0.59056    0.08543    0.41730    1.000
    Cd206    Cd       0.55828    0.97486    0.42042    1.000
    Cd207    Cd       0.48139    0.13484    0.42354    1.000
    Cd208    Cd       0.57362    0.19705    0.40433    1.000
    Se81     Se       0.38955    0.04422    0.55813    1.000
    Se82     Se       0.42173    0.96633    0.50372    1.000
    Se83     Se       0.46562    0.08089    0.50432    1.000
    Se84     Se       0.54051    0.11135    0.44888    1.000
    Se85     Se       0.54958    0.11775    0.56356    1.000
    Se86     Se       0.38198    0.04626    0.44369    1.000
    S229     S        0.60330    0.25160    0.38060    1.000
    S230     S        0.32230    0.01660    0.61868    1.000
    S231     S        0.35290    0.12700    0.60393    1.000
    S232     S        0.27540    0.07400    0.55638    1.000
    S233     S        0.56950    0.02820    0.61647    1.000
    S234     S        0.34740    0.94350    0.56013    1.000
    S235     S        0.46110    0.07790    0.60947    1.000
    S236     S        0.31220    0.00280    0.50111    1.000
    S237     S        0.44010    0.16010    0.55900    1.000
    S238     S        0.35880    0.11440    0.50787    1.000
    S239     S        0.62640    0.13680    0.50275    1.000
    S240     S        0.64280    0.07330    0.44936    1.000
    S241     S        0.51340    0.18580    0.50243    1.000
    S242     S        0.43010    0.15520    0.45187    1.000
    S243     S        0.58850    0.21540    0.44919    1.000
    S244     S        0.56840    0.03130    0.39080    1.000
    S245     S        0.60950    0.14050    0.39044    1.000
    S246     S        0.46940    0.08070    0.39488    1.000
    S247     S        0.50310    0.19230    0.39811    1.000
    C589     C        0.33990    0.03370    0.64710    1.000
    C590     C        0.31090    0.03950    0.66540    1.000
    C591     C        0.32520    0.05550    0.68900    1.000
    C592     C        0.36860    0.06510    0.69400    1.000
    C593     C        0.39080    0.05700    0.67290    1.000
    C594     C        0.37680    0.04470    0.64730    1.000
    C595     C        0.59020    0.06490    0.63620    1.000
    C596     C        0.59120    0.05800    0.66190    1.000
    C597     C        0.60810    0.08380    0.67790    1.000
    C598     C        0.62390    0.11650    0.66830    1.000
    C599     C        0.62300    0.12340    0.64260    1.000
    C600     C        0.60610    0.09760    0.62660    1.000
    C601     C        0.32280    0.91110    0.57860    1.000
    C602     C        0.33400    0.87050    0.57290    1.000
    C603     C        0.30800    0.83910    0.58860    1.000
    C604     C        0.28000    0.85180    0.60470    1.000
    C605     C        0.27390    0.90130    0.60130    1.000
    C606     C        0.29540    0.92420    0.59310    1.000
    C607     C        0.47310    0.11280    0.62950    1.000
    C608     C        0.50980    0.12510    0.63320    1.000
    C609     C        0.51820    0.14900    0.65310    1.000
    C610     C        0.48990    0.16060    0.66930    1.000
    C611     C        0.45310    0.14830    0.66560    1.000
    C612     C        0.44480    0.12440    0.64580    1.000
    C613     C        0.64810    0.17610    0.51820    1.000
    C614     C        0.63050    0.19670    0.53440    1.000
    C615     C        0.53040    0.22670    0.51730    1.000
    C616     C        0.54250    0.25540    0.50180    1.000
    C617     C        0.55740    0.28920    0.51450    1.000
    C618     C        0.55190    0.28750    0.54210    1.000
    C619     C        0.54320    0.25900    0.55910    1.000
    C620     C        0.52630    0.22960    0.54460    1.000
    C621     C        0.64040    0.21920    0.45120    1.000
    C622     C        0.66430    0.18690    0.44800    1.000
    C623     C        0.70380    0.18970    0.44900    1.000
    C624     C        0.71530    0.22530    0.45450    1.000
    C625     C        0.69170    0.25300    0.46410    1.000
    C626     C        0.65550    0.25680    0.46030    1.000
    C627     C        0.61220    0.02590    0.36910    1.000
    C628     C        0.64340    0.01490    0.38050    1.000
    C629     C        0.59340    0.12880    0.35700    1.000
    C630     C        0.43580    0.09780    0.37020    1.000
    C631     C        0.39850    0.07220    0.36950    1.000
    C632     C        0.48150    0.23080    0.41600    1.000
    C633     C        0.48910    0.23460    0.44140    1.000
    C634     C        0.47500    0.26520    0.45470    1.000
    C635     C        0.45320    0.29200    0.44240    1.000
    C636     C        0.44550    0.28820    0.41690    1.000
    C637     C        0.45970    0.25760    0.40370    1.000
    Cd209    Cd       0.80130    0.57812    0.10045    1.000
    Cd210    Cd       0.87491    0.49128    0.09100    1.000
    Cd211    Cd       0.91057    0.60622    0.08069    1.000
    Cd212    Cd       0.83198    0.55573    0.02900    1.000
    Cd213    Cd       0.02202    0.56007    0.08614    1.000
    Cd214    Cd       0.90050    0.41172    0.03423    1.000
    Cd215    Cd       0.94645    0.52219    0.03090    1.000
    Cd216    Cd       0.86911    0.48961    0.97243    1.000
    Cd217    Cd       0.99495    0.63376    0.03334    1.000
    Cd218    Cd       0.90721    0.59592    0.97488    1.000
    Cd219    Cd       0.07137    0.66112    0.97854    1.000
    Cd220    Cd       0.02035    0.55427    0.97678    1.000
    Cd221    Cd       0.09056    0.58543    0.91730    1.000
    Cd222    Cd       0.05828    0.47486    0.92042    1.000
    Cd223    Cd       0.98139    0.63484    0.92354    1.000
    Cd224    Cd       0.07362    0.69705    0.90433    1.000
    Se87     Se       0.88955    0.54422    0.05813    1.000
    Se88     Se       0.92173    0.46633    0.00372    1.000
    Se89     Se       0.96562    0.58089    0.00432    1.000
    Se90     Se       0.04051    0.61135    0.94888    1.000
    Se91     Se       0.04958    0.61775    0.06356    1.000
    Se92     Se       0.88198    0.54626    0.94369    1.000
    S248     S        0.10330    0.75160    0.88060    1.000
    S249     S        0.82230    0.51660    0.11868    1.000
    S250     S        0.85290    0.62700    0.10393    1.000
    S251     S        0.77540    0.57400    0.05638    1.000
    S252     S        0.06950    0.52820    0.11647    1.000
    S253     S        0.84740    0.44350    0.06013    1.000
    S254     S        0.96110    0.57790    0.10947    1.000
    S255     S        0.81220    0.50280    0.00111    1.000
    S256     S        0.94010    0.66010    0.05900    1.000
    S257     S        0.85880    0.61440    0.00787    1.000
    S258     S        0.12640    0.63680    0.00275    1.000
    S259     S        0.14280    0.57330    0.94936    1.000
    S260     S        0.01340    0.68580    0.00243    1.000
    S261     S        0.93010    0.65520    0.95187    1.000
    S262     S        0.08850    0.71540    0.94919    1.000
    S263     S        0.06840    0.53130    0.89080    1.000
    S264     S        0.10950    0.64050    0.89044    1.000
    S265     S        0.96940    0.58070    0.89488    1.000
    S266     S        0.00310    0.69230    0.89811    1.000
    C638     C        0.83990    0.53370    0.14710    1.000
    C639     C        0.81090    0.53950    0.16540    1.000
    C640     C        0.82520    0.55550    0.18900    1.000
    C641     C        0.86860    0.56510    0.19400    1.000
    C642     C        0.89080    0.55700    0.17290    1.000
    C643     C        0.87680    0.54470    0.14730    1.000
    C644     C        0.09020    0.56490    0.13620    1.000
    C645     C        0.09120    0.55800    0.16190    1.000
    C646     C        0.10810    0.58380    0.17790    1.000
    C647     C        0.12390    0.61650    0.16830    1.000
    C648     C        0.12300    0.62340    0.14260    1.000
    C649     C        0.10610    0.59760    0.12660    1.000
    C650     C        0.82280    0.41110    0.07860    1.000
    C651     C        0.83400    0.37050    0.07290    1.000
    C652     C        0.80800    0.33910    0.08860    1.000
    C653     C        0.78000    0.35180    0.10470    1.000
    C654     C        0.77390    0.40130    0.10130    1.000
    C655     C        0.79540    0.42420    0.09310    1.000
    C656     C        0.97310    0.61280    0.12950    1.000
    C657     C        0.00980    0.62510    0.13320    1.000
    C658     C        0.01820    0.64900    0.15310    1.000
    C659     C        0.98990    0.66060    0.16930    1.000
    C660     C        0.95310    0.64830    0.16560    1.000
    C661     C        0.94480    0.62440    0.14580    1.000
    C662     C        0.14810    0.67610    0.01820    1.000
    C663     C        0.13050    0.69670    0.03440    1.000
    C664     C        0.03040    0.72670    0.01730    1.000
    C665     C        0.04250    0.75540    0.00180    1.000
    C666     C        0.05740    0.78920    0.01450    1.000
    C667     C        0.05190    0.78750    0.04210    1.000
    C668     C        0.04320    0.75900    0.05910    1.000
    C669     C        0.02630    0.72960    0.04460    1.000
    C670     C        0.14040    0.71920    0.95120    1.000
    C671     C        0.16430    0.68690    0.94800    1.000
    C672     C        0.20380    0.68970    0.94900    1.000
    C673     C        0.21530    0.72530    0.95450    1.000
    C674     C        0.19170    0.75300    0.96410    1.000
    C675     C        0.15550    0.75680    0.96030    1.000
    C676     C        0.11220    0.52590    0.86910    1.000
    C677     C        0.14340    0.51490    0.88050    1.000
    C678     C        0.09340    0.62880    0.85700    1.000
    C679     C        0.93580    0.59780    0.87020    1.000
    C680     C        0.89850    0.57220    0.86950    1.000
    C681     C        0.98150    0.73080    0.91600    1.000
    C682     C        0.98910    0.73460    0.94140    1.000
    C683     C        0.97500    0.76520    0.95470    1.000
    C684     C        0.95320    0.79200    0.94240    1.000
    C685     C        0.94550    0.78820    0.91690    1.000
    C686     C        0.95970    0.75760    0.90370    1.000
    Cd225    Cd       0.69870    0.92188    0.60045    1.000
    Cd226    Cd       0.62509    0.00872    0.59100    1.000
    Cd227    Cd       0.58943    0.89378    0.58069    1.000
    Cd228    Cd       0.66802    0.94427    0.52900    1.000
    Cd229    Cd       0.47798    0.93993    0.58614    1.000
    Cd230    Cd       0.59950    0.08828    0.53423    1.000
    Cd231    Cd       0.55355    0.97781    0.53090    1.000
    Cd232    Cd       0.63089    0.01039    0.47243    1.000
    Cd233    Cd       0.50505    0.86624    0.53334    1.000
    Cd234    Cd       0.59279    0.90408    0.47488    1.000
    Cd235    Cd       0.42863    0.83888    0.47854    1.000
    Cd236    Cd       0.47965    0.94573    0.47678    1.000
    Cd237    Cd       0.40944    0.91457    0.41730    1.000
    Cd238    Cd       0.44172    0.02514    0.42042    1.000
    Cd239    Cd       0.51861    0.86516    0.42354    1.000
    Cd240    Cd       0.42638    0.80295    0.40433    1.000
    Se93     Se       0.61045    0.95578    0.55813    1.000
    Se94     Se       0.57827    0.03367    0.50372    1.000
    Se95     Se       0.53438    0.91911    0.50432    1.000
    Se96     Se       0.45949    0.88865    0.44888    1.000
    Se97     Se       0.45042    0.88225    0.56356    1.000
    Se98     Se       0.61802    0.95374    0.44369    1.000
    S267     S        0.39670    0.74840    0.38060    1.000
    S268     S        0.67770    0.98340    0.61868    1.000
    S269     S        0.64710    0.87300    0.60393    1.000
    S270     S        0.72460    0.92600    0.55638    1.000
    S271     S        0.43050    0.97180    0.61647    1.000
    S272     S        0.65260    0.05650    0.56013    1.000
    S273     S        0.53890    0.92210    0.60947    1.000
    S274     S        0.68780    0.99720    0.50111    1.000
    S275     S        0.55990    0.83990    0.55900    1.000
    S276     S        0.64120    0.88560    0.50787    1.000
    S277     S        0.37360    0.86320    0.50275    1.000
    S278     S        0.35720    0.92670    0.44936    1.000
    S279     S        0.48660    0.81420    0.50243    1.000
    S280     S        0.56990    0.84480    0.45187    1.000
    S281     S        0.41150    0.78460    0.44919    1.000
    S282     S        0.43160    0.96870    0.39080    1.000
    S283     S        0.39050    0.85950    0.39044    1.000
    S284     S        0.53060    0.91930    0.39488    1.000
    S285     S        0.49690    0.80770    0.39811    1.000
    C687     C        0.66010    0.96630    0.64710    1.000
    C688     C        0.68910    0.96050    0.66540    1.000
    C689     C        0.67480    0.94450    0.68900    1.000
    C690     C        0.63140    0.93490    0.69400    1.000
    C691     C        0.60920    0.94300    0.67290    1.000
    C692     C        0.62320    0.95530    0.64730    1.000
    C693     C        0.40980    0.93510    0.63620    1.000
    C694     C        0.40880    0.94200    0.66190    1.000
    C695     C        0.39190    0.91620    0.67790    1.000
    C696     C        0.37610    0.88350    0.66830    1.000
    C697     C        0.37700    0.87660    0.64260    1.000
    C698     C        0.39390    0.90240    0.62660    1.000
    C699     C        0.67720    0.08890    0.57860    1.000
    C700     C        0.66600    0.12950    0.57290    1.000
    C701     C        0.69200    0.16090    0.58860    1.000
    C702     C        0.72000    0.14820    0.60470    1.000
    C703     C        0.72610    0.09870    0.60130    1.000
    C704     C        0.70460    0.07580    0.59310    1.000
    C705     C        0.52690    0.88720    0.62950    1.000
    C706     C        0.49020    0.87490    0.63320    1.000
    C707     C        0.48180    0.85100    0.65310    1.000
    C708     C        0.51010    0.83940    0.66930    1.000
    C709     C        0.54690    0.85170    0.66560    1.000
    C710     C        0.55520    0.87560    0.64580    1.000
    C711     C        0.35190    0.82390    0.51820    1.000
    C712     C        0.36950    0.80330    0.53440    1.000
    C713     C        0.46960    0.77330    0.51730    1.000
    C714     C        0.45750    0.74460    0.50180    1.000
    C715     C        0.44260    0.71080    0.51450    1.000
    C716     C        0.44810    0.71250    0.54210    1.000
    C717     C        0.45680    0.74100    0.55910    1.000
    C718     C        0.47370    0.77040    0.54460    1.000
    C719     C        0.35960    0.78080    0.45120    1.000
    C720     C        0.33570    0.81310    0.44800    1.000
    C721     C        0.29620    0.81030    0.44900    1.000
    C722     C        0.28470    0.77470    0.45450    1.000
    C723     C        0.30830    0.74700    0.46410    1.000
    C724     C        0.34450    0.74320    0.46030    1.000
    C725     C        0.38780    0.97410    0.36910    1.000
    C726     C        0.35660    0.98510    0.38050    1.000
    C727     C        0.40660    0.87120    0.35700    1.000
    C728     C        0.56420    0.90220    0.37020    1.000
    C729     C        0.60150    0.92780    0.36950    1.000
    C730     C        0.51850    0.76920    0.41600    1.000
    C731     C        0.51090    0.76540    0.44140    1.000
    C732     C        0.52500    0.73480    0.45470    1.000
    C733     C        0.54680    0.70800    0.44240    1.000
    C734     C        0.55450    0.71180    0.41690    1.000
    C735     C        0.54030    0.74240    0.40370    1.000
    Cd241    Cd       0.19870    0.42188    0.10045    1.000
    Cd242    Cd       0.12509    0.50872    0.09100    1.000
    Cd243    Cd       0.08943    0.39378    0.08069    1.000
    Cd244    Cd       0.16802    0.44427    0.02900    1.000
    Cd245    Cd       0.97798    0.43993    0.08614    1.000
    Cd246    Cd       0.09950    0.58828    0.03423    1.000
    Cd247    Cd       0.05355    0.47781    0.03090    1.000
    Cd248    Cd       0.13089    0.51039    0.97243    1.000
    Cd249    Cd       0.00505    0.36624    0.03334    1.000
    Cd250    Cd       0.09279    0.40408    0.97488    1.000
    Cd251    Cd       0.92863    0.33888    0.97854    1.000
    Cd252    Cd       0.97965    0.44573    0.97678    1.000
    Cd253    Cd       0.90944    0.41457    0.91730    1.000
    Cd254    Cd       0.94172    0.52514    0.92042    1.000
    Cd255    Cd       0.01861    0.36516    0.92354    1.000
    Cd256    Cd       0.92638    0.30295    0.90433    1.000
    Se99     Se       0.11045    0.45578    0.05813    1.000
    Se100    Se       0.07827    0.53367    0.00372    1.000
    Se101    Se       0.03438    0.41911    0.00432    1.000
    Se102    Se       0.95949    0.38865    0.94888    1.000
    Se103    Se       0.95042    0.38225    0.06356    1.000
    Se104    Se       0.11802    0.45374    0.94369    1.000
    S286     S        0.89670    0.24840    0.88060    1.000
    S287     S        0.17770    0.48340    0.11868    1.000
    S288     S        0.14710    0.37300    0.10393    1.000
    S289     S        0.22460    0.42600    0.05638    1.000
    S290     S        0.93050    0.47180    0.11647    1.000
    S291     S        0.15260    0.55650    0.06013    1.000
    S292     S        0.03890    0.42210    0.10947    1.000
    S293     S        0.18780    0.49720    0.00111    1.000
    S294     S        0.05990    0.33990    0.05900    1.000
    S295     S        0.14120    0.38560    0.00787    1.000
    S296     S        0.87360    0.36320    0.00275    1.000
    S297     S        0.85720    0.42670    0.94936    1.000
    S298     S        0.98660    0.31420    0.00243    1.000
    S299     S        0.06990    0.34480    0.95187    1.000
    S300     S        0.91150    0.28460    0.94919    1.000
    S301     S        0.93160    0.46870    0.89080    1.000
    S302     S        0.89050    0.35950    0.89044    1.000
    S303     S        0.03060    0.41930    0.89488    1.000
    S304     S        0.99690    0.30770    0.89811    1.000
    C736     C        0.16010    0.46630    0.14710    1.000
    C737     C        0.18910    0.46050    0.16540    1.000
    C738     C        0.17480    0.44450    0.18900    1.000
    C739     C        0.13140    0.43490    0.19400    1.000
    C740     C        0.10920    0.44300    0.17290    1.000
    C741     C        0.12320    0.45530    0.14730    1.000
    C742     C        0.90980    0.43510    0.13620    1.000
    C743     C        0.90880    0.44200    0.16190    1.000
    C744     C        0.89190    0.41620    0.17790    1.000
    C745     C        0.87610    0.38350    0.16830    1.000
    C746     C        0.87700    0.37660    0.14260    1.000
    C747     C        0.89390    0.40240    0.12660    1.000
    C748     C        0.17720    0.58890    0.07860    1.000
    C749     C        0.16600    0.62950    0.07290    1.000
    C750     C        0.19200    0.66090    0.08860    1.000
    C751     C        0.22000    0.64820    0.10470    1.000
    C752     C        0.22610    0.59870    0.10130    1.000
    C753     C        0.20460    0.57580    0.09310    1.000
    C754     C        0.02690    0.38720    0.12950    1.000
    C755     C        0.99020    0.37490    0.13320    1.000
    C756     C        0.98180    0.35100    0.15310    1.000
    C757     C        0.01010    0.33940    0.16930    1.000
    C758     C        0.04690    0.35170    0.16560    1.000
    C759     C        0.05520    0.37560    0.14580    1.000
    C760     C        0.85190    0.32390    0.01820    1.000
    C761     C        0.86950    0.30330    0.03440    1.000
    C762     C        0.96960    0.27330    0.01730    1.000
    C763     C        0.95750    0.24460    0.00180    1.000
    C764     C        0.94260    0.21080    0.01450    1.000
    C765     C        0.94810    0.21250    0.04210    1.000
    C766     C        0.95680    0.24100    0.05910    1.000
    C767     C        0.97370    0.27040    0.04460    1.000
    C768     C        0.85960    0.28080    0.95120    1.000
    C769     C        0.83570    0.31310    0.94800    1.000
    C770     C        0.79620    0.31030    0.94900    1.000
    C771     C        0.78470    0.27470    0.95450    1.000
    C772     C        0.80830    0.24700    0.96410    1.000
    C773     C        0.84450    0.24320    0.96030    1.000
    C774     C        0.88780    0.47410    0.86910    1.000
    C775     C        0.85660    0.48510    0.88050    1.000
    C776     C        0.90660    0.37120    0.85700    1.000
    C777     C        0.06420    0.40220    0.87020    1.000
    C778     C        0.10150    0.42780    0.86950    1.000
    C779     C        0.01850    0.26920    0.91600    1.000
    C780     C        0.01090    0.26540    0.94140    1.000
    C781     C        0.02500    0.23480    0.95470    1.000
    C782     C        0.04680    0.20800    0.94240    1.000
    C783     C        0.05450    0.21180    0.91690    1.000
    C784     C        0.04030    0.24240    0.90370    1.000
    Se105    Se       0.00000    0.00000    0.81082    1.000
    Se106    Se       0.00000    0.00000    0.69663    1.000
    Se107    Se       0.50000    0.50000    0.31082    1.000
    Se108    Se       0.50000    0.50000    0.19663    1.000
    Se109    Se       0.50000    0.00000    0.56082    1.000
    Se110    Se       0.50000    0.00000    0.44663    1.000
    Se111    Se       0.00000    0.50000    0.06082    1.000
    Se112    Se       0.00000    0.50000    0.94663    1.000
