# CIF file generated by openbabel 3.1.0, see https://openbabel.org
data_I
_chemical_name_common 'image0'
_cell_length_a 11.1637
_cell_length_b 13.4231
_cell_length_c 19.713
_cell_angle_alpha 71.964
_cell_angle_beta 74.613
_cell_angle_gamma 75.764
_space_group_name_H-M_alt 'P 1'
_space_group_name_Hall 'P 1'
loop_
    _symmetry_equiv_pos_as_xyz
    x,y,z
loop_
    _atom_site_label
    _atom_site_type_symbol
    _atom_site_fract_x
    _atom_site_fract_y
    _atom_site_fract_z
    _atom_site_occupancy
    Tb1      Tb       0.49274    0.10327    0.07806    1.000
    Co1      Co       0.78619    0.51451    0.42130    1.000
    S1       S        0.70025    0.32025    0.01753    1.000
    S2       S        0.46843    0.83002    0.11823    1.000
    S3       S        0.80489    0.83438    0.78272    1.000
    S4       S        0.34486    0.99025    0.76084    1.000
    O1       O        0.66570    0.21270    0.04270    1.000
    O2       O        0.60920    0.40340    0.98176    1.000
    O3       O        0.82840    0.31530    0.97309    1.000
    O4       O        0.47070    0.83650    0.04353    1.000
    O5       O        0.57510    0.76250    0.14150    1.000
    O6       O        0.45100    0.94400    0.12332    1.000
    O7       O        0.85920    0.91620    0.74310    1.000
    O8       O        0.87600    0.75730    0.83480    1.000
    O9       O        0.67830    0.87290    0.81540    1.000
    O10      O        0.38140    0.90740    0.71610    1.000
    O11      O        0.21310    0.02670    0.77850    1.000
    O12      O        0.40350    0.95300    0.82243    1.000
    O13      O        0.67660    0.99680    0.03810    1.000
    O14      O        0.40400    0.29820    0.05170    1.000
    O15      O        0.30170    0.11090    0.04644    1.000
    N1       N        0.70130    0.40700    0.41390    1.000
    N2       N        0.85560    0.54490    0.31582    1.000
    N3       N        0.88490    0.61120    0.43040    1.000
    N4       N        0.70840    0.49100    0.52463    1.000
    C1       C        0.74670    0.43370    0.28242    1.000
    C2       C        0.82120    0.50930    0.26567    1.000
    C3       C        0.88790    0.55400    0.19403    1.000
    H1       H        0.87980    0.54390    0.15100    1.000
    C4       C        0.96250    0.61140    0.19960    1.000
    H2       H        0.01670    0.64880    0.16110    1.000
    C5       C        0.94620    0.60690    0.27508    1.000
    C6       C        0.01260    0.65330    0.30529    1.000
    C7       C        0.98250    0.65500    0.37650    1.000
    C8       C        0.03640    0.71090    0.40620    1.000
    H3       H        0.10550    0.74420    0.38210    1.000
    C9       C        0.97230    0.70930    0.47620    1.000
    H4       H        0.98650    0.74260    0.50750    1.000
    C10      C        0.87770    0.64450    0.49046    1.000
    C11      C        0.79230    0.62210    0.55724    1.000
    C12      C        0.71300    0.55030    0.57152    1.000
    C13      C        0.63290    0.51360    0.64128    1.000
    H5       H        0.61800    0.53980    0.68180    1.000
    C14      C        0.58550    0.43700    0.63688    1.000
    H6       H        0.53020    0.39950    0.67450    1.000
    C15      C        0.63000    0.41890    0.56674    1.000
    C16      C        0.60320    0.33870    0.54376    1.000
    C17      C        0.63790    0.33320    0.47131    1.000
    C18      C        0.60230    0.26680    0.44260    1.000
    H7       H        0.56020    0.21060    0.46960    1.000
    C19      C        0.63630    0.29420    0.37190    1.000
    H8       H        0.62050    0.26200    0.34040    1.000
    C20      C        0.70090    0.38070    0.35070    1.000
    C21      C        0.72850    0.40050    0.21928    1.000
    C22      C        0.79060    0.30760    0.20256    1.000
    H9       H        0.84370    0.26010    0.23210    1.000
    C23      C        0.77640    0.28290    0.14320    1.000
    H10      H        0.81870    0.21810    0.13380    1.000
    C24      C        0.70130    0.35120    0.09718    1.000
    C25      C        0.64240    0.44530    0.11190    1.000
    H11      H        0.59690    0.49530    0.07910    1.000
    C26      C        0.64780    0.46970    0.17500    1.000
    H12      H        0.59850    0.53100    0.18710    1.000
    C27      C        0.11600    0.70420    0.25434    1.000
    C28      C        0.22060    0.64500    0.22080    1.000
    H13      H        0.21980    0.57330    0.22840    1.000
    C29      C        0.32290    0.68250    0.17830    1.000
    H14      H        0.39060    0.63760    0.15760    1.000
    C30      C        0.32710    0.78930    0.16520    1.000
    C31      C        0.22240    0.85370    0.19730    1.000
    H15      H        0.22320    0.92560    0.18910    1.000
    C32      C        0.11520    0.81070    0.24230    1.000
    H16      H        0.04560    0.85380    0.26320    1.000
    C33      C        0.79000    0.67180    0.61422    1.000
    C34      C        0.89050    0.64580    0.64863    1.000
    H17      H        0.95740    0.59300    0.63670    1.000
    C35      C        0.89670    0.69280    0.69850    1.000
    H18      H        0.96860    0.67500    0.71810    1.000
    C36      C        0.79640    0.76750    0.72050    1.000
    C37      C        0.68910    0.78730    0.69300    1.000
    H19      H        0.61760    0.83290    0.70960    1.000
    C38      C        0.68800    0.73920    0.64090    1.000
    H20      H        0.61470    0.75320    0.62310    1.000
    C39      C        0.53670    0.25790    0.59808    1.000
    C40      C        0.59420    0.18420    0.65190    1.000
    H21      H        0.67520    0.18800    0.65390    1.000
    C41      C        0.53460    0.10510    0.70260    1.000
    H22      H        0.57670    0.05500    0.73700    1.000
    C42      C        0.41630    0.10050    0.70210    1.000
    C43      C        0.35350    0.17330    0.65290    1.000
    H23      H        0.27090    0.17030    0.65340    1.000
    C44      C        0.41350    0.25270    0.60150    1.000
    H24      H        0.36920    0.30370    0.56850    1.000
    Tb2      Tb       0.49872    0.11545    0.08896    1.000
    Tb3      Tb       0.47090    0.15059    0.08564    1.000
    S5       S        0.41800    0.89480    0.08620    1.000
    Tb4      Tb       0.50726    0.89673    0.92194    1.000
    Co2      Co       0.21381    0.48549    0.57870    1.000
    S6       S        0.29975    0.67975    0.98247    1.000
    S7       S        0.53157    0.16998    0.88177    1.000
    S8       S        0.19511    0.16562    0.21728    1.000
    S9       S        0.65514    0.00975    0.23916    1.000
    O16      O        0.33430    0.78730    0.95730    1.000
    O17      O        0.39080    0.59660    0.01824    1.000
    O18      O        0.17160    0.68470    0.02691    1.000
    O19      O        0.52930    0.16350    0.95647    1.000
    O20      O        0.42490    0.23750    0.85850    1.000
    O21      O        0.54900    0.05600    0.87668    1.000
    O22      O        0.14080    0.08380    0.25690    1.000
    O23      O        0.12400    0.24270    0.16520    1.000
    O24      O        0.32170    0.12710    0.18460    1.000
    O25      O        0.61860    0.09260    0.28390    1.000
    O26      O        0.78690    0.97330    0.22150    1.000
    O27      O        0.59650    0.04700    0.17757    1.000
    O28      O        0.32340    0.00320    0.96190    1.000
    O29      O        0.59600    0.70180    0.94830    1.000
    O30      O        0.69830    0.88910    0.95356    1.000
    N5       N        0.29870    0.59300    0.58610    1.000
    N6       N        0.14440    0.45510    0.68418    1.000
    N7       N        0.11510    0.38880    0.56960    1.000
    N8       N        0.29160    0.50900    0.47537    1.000
    C45      C        0.25330    0.56630    0.71758    1.000
    C46      C        0.17880    0.49070    0.73433    1.000
    C47      C        0.11210    0.44600    0.80597    1.000
    H25      H        0.12020    0.45610    0.84900    1.000
    C48      C        0.03750    0.38860    0.80040    1.000
    H26      H        0.98330    0.35120    0.83890    1.000
    C49      C        0.05380    0.39310    0.72492    1.000
    C50      C        0.98740    0.34670    0.69471    1.000
    C51      C        0.01750    0.34500    0.62350    1.000
    C52      C        0.96360    0.28910    0.59380    1.000
    H27      H        0.89450    0.25580    0.61790    1.000
    C53      C        0.02770    0.29070    0.52380    1.000
    H28      H        0.01350    0.25740    0.49250    1.000
    C54      C        0.12230    0.35550    0.50954    1.000
    C55      C        0.20770    0.37790    0.44276    1.000
    C56      C        0.28700    0.44970    0.42848    1.000
    C57      C        0.36710    0.48640    0.35872    1.000
    H29      H        0.38200    0.46020    0.31820    1.000
    C58      C        0.41450    0.56300    0.36312    1.000
    H30      H        0.46980    0.60050    0.32550    1.000
    C59      C        0.37000    0.58110    0.43326    1.000
    C60      C        0.39680    0.66130    0.45624    1.000
    C61      C        0.36210    0.66680    0.52869    1.000
    C62      C        0.39770    0.73320    0.55740    1.000
    H31      H        0.43980    0.78940    0.53040    1.000
    C63      C        0.36370    0.70580    0.62810    1.000
    H32      H        0.37950    0.73800    0.65960    1.000
    C64      C        0.29910    0.61930    0.64930    1.000
    C65      C        0.27150    0.59950    0.78072    1.000
    C66      C        0.20940    0.69240    0.79744    1.000
    H33      H        0.15630    0.73990    0.76790    1.000
    C67      C        0.22360    0.71710    0.85680    1.000
    H34      H        0.18130    0.78190    0.86620    1.000
    C68      C        0.29870    0.64880    0.90282    1.000
    C69      C        0.35760    0.55470    0.88810    1.000
    H35      H        0.40310    0.50470    0.92090    1.000
    C70      C        0.35220    0.53030    0.82500    1.000
    H36      H        0.40150    0.46900    0.81290    1.000
    C71      C        0.88400    0.29580    0.74566    1.000
    C72      C        0.77940    0.35500    0.77920    1.000
    H37      H        0.78020    0.42670    0.77160    1.000
    C73      C        0.67710    0.31750    0.82170    1.000
    H38      H        0.60940    0.36240    0.84240    1.000
    C74      C        0.67290    0.21070    0.83480    1.000
    C75      C        0.77760    0.14630    0.80270    1.000
    H39      H        0.77680    0.07440    0.81090    1.000
    C76      C        0.88480    0.18930    0.75770    1.000
    H40      H        0.95440    0.14620    0.73680    1.000
    C77      C        0.21000    0.32820    0.38578    1.000
    C78      C        0.10950    0.35420    0.35137    1.000
    H41      H        0.04260    0.40700    0.36330    1.000
    C79      C        0.10330    0.30720    0.30150    1.000
    H42      H        0.03140    0.32500    0.28190    1.000
    C80      C        0.20360    0.23250    0.27950    1.000
    C81      C        0.31090    0.21270    0.30700    1.000
    H43      H        0.38240    0.16710    0.29040    1.000
    C82      C        0.31200    0.26080    0.35910    1.000
    H44      H        0.38530    0.24680    0.37690    1.000
    C83      C        0.46330    0.74210    0.40192    1.000
    C84      C        0.40580    0.81580    0.34810    1.000
    H45      H        0.32480    0.81200    0.34610    1.000
    C85      C        0.46540    0.89490    0.29740    1.000
    H46      H        0.42330    0.94500    0.26300    1.000
    C86      C        0.58370    0.89950    0.29790    1.000
    C87      C        0.64650    0.82670    0.34710    1.000
    H47      H        0.72910    0.82970    0.34660    1.000
    C88      C        0.58650    0.74730    0.39850    1.000
    H48      H        0.63080    0.69630    0.43150    1.000
    Tb5      Tb       0.50128    0.88455    0.91104    1.000
    Tb6      Tb       0.52910    0.84941    0.91436    1.000
    S10      S        0.58200    0.10520    0.91380    1.000
