data_functionalizedCrystal
_audit_creation_method	'EQeq! by Chris Wilmer'
_symmetry_space_group_name_H-M	'P1'
_symmetry_Int_Tables_number	1
_symmetry_cell_setting	triclinic
loop_
_symmetry_equiv_pos_as_xyz
  x,y,z
_cell_length_a	11.6531
_cell_length_b	21.9875
_cell_length_c	15.3104
_cell_angle_alpha	90
_cell_angle_beta	110.029
_cell_angle_gamma	90
loop_
_atom_site_label
_atom_site_type_symbol
_atom_site_fract_x
_atom_site_fract_y
_atom_site_fract_z
_atom_site_charge
Mof_Cu	Cu	0.69515	0.16599	0.70722	0.851
Mof_Cu	Cu	0.15121	0.19202	0.10725	0.854
Mof_C 	C 	0.3842	0.1501	0.2186	0.022
Mof_C 	C 	0.9417	0.1846	0.8264	0.023
Mof_C 	C 	0.4667	0.1106	0.2675	-0.029
Mof_H 	H 	0.5479	0.1216	0.2803	0.028
Mof_C 	C 	0.0443	0.188	0.9047	-0.034
Mof_H 	H 	0.1133	0.2086	0.9031	0.006
Mof_C 	C 	0.2414	0.0791	0.2216	0.277
Mof_C 	C 	0.8487	0.1268	0.9068	0.276
Mof_C 	C 	0.1136	0.0574	0.1953	-0.767
Mof_H 	H 	0.0591	0.0887	0.1613	0.218
Mof_H 	H 	0.1032	0.0218	0.1571	0.242
Mof_H 	H 	0.0956	0.0477	0.2504	0.24
Mof_C 	C 	0.7401	0.0929	0.9098	-0.756
Mof_H 	H 	0.6764	0.0952	0.8503	0.212
Mof_H 	H 	0.712	0.1103	0.9563	0.231
Mof_H 	H 	0.7617	0.051	0.9249	0.236
Mof_C 	C 	0.411	0.2106	0.189	0.017
Mof_C 	C 	0.936	0.2119	0.7352	0.024
Mof_C 	C 	0.5594	0.0153	0.5246	0.061
Mof_C 	C 	0.5256	0.2356	0.2142	-0.025
Mof_H 	H 	0.5938	0.2133	0.2491	-0
Mof_C 	C 	0.0332	0.2386	0.7207	-0.029
Mof_H 	H 	0.1074	0.2409	0.7695	0.007
Mof_C 	C 	0.5665	0.0629	0.5841	-0.019
Mof_H 	H 	0.496	0.0757	0.5941	0.031
Mof_C 	C 	0.3309	0.2977	0.1131	0.277
Mof_C 	C 	0.8238	0.2291	0.5832	0.299
Mof_C 	C 	0.7611	0.025	0.5565	0.292
Mof_C 	C 	0.2247	0.3358	0.0607	-0.763
Mof_H 	H 	0.1512	0.3122	0.046	0.216
Mof_H 	H 	0.2197	0.3702	0.0979	0.237
Mof_H 	H 	0.2345	0.3497	0.0042	0.24
Mof_C 	C 	0.7111	0.2217	0.5035	-0.806
Mof_H 	H 	0.6494	0.2037	0.5237	0.236
Mof_H 	H 	0.7263	0.1958	0.4582	0.257
Mof_H 	H 	0.6836	0.2607	0.4763	0.248
Mof_C 	C 	0.8755	0.0039	0.5435	-0.735
Mof_H 	H 	0.8577	0.97	0.5014	0.224
Mof_H 	H 	0.9332	0.9916	0.6024	0.22
Mof_H 	H 	0.9096	0.0364	0.5184	0.227
Mof_N 	N 	0.2658	0.1336	0.1934	-0.274
Mof_N 	N 	0.8402	0.1565	0.8276	-0.265
Mof_N 	N 	0.447	0.0568	0.3007	-0.081
Mof_N 	N 	0.0439	0.1611	0.9841	-0.184
Mof_N 	N 	0.3243	0.0381	0.2707	-0.139
Mof_N 	N 	0.9469	0.1291	0.9823	-0.163
Mof_N 	N 	0.3108	0.2403	0.1355	-0.264
Mof_N 	N 	0.829	0.2085	0.668	-0.261
Mof_N 	N 	0.6571	0.9961	0.5096	-0.176
Mof_N 	N 	0.5373	0.2084	0.6881	-0.197
Mof_N 	N 	0.0242	0.2614	0.6384	-0.192
Mof_N 	N 	0.6695	0.0908	0.6271	-0.18
Mof_N 	N 	0.4407	0.325	0.1389	-0.163
Mof_N 	N 	0.9177	0.2544	0.5668	-0.163
Mof_N 	N 	0.7703	0.0711	0.6116	-0.161
Mof_Cu	Cu	0.30485	0.66599	0.79278	0.85
Mof_Cu	Cu	0.84879	0.69202	0.39275	0.853
Mof_C 	C 	0.6158	0.6501	0.2814	0.021
Mof_C 	C 	0.0583	0.6846	0.6736	0.025
Mof_C 	C 	0.5333	0.6106	0.2325	-0.029
Mof_H 	H 	0.4521	0.6216	0.2197	0.027
Mof_C 	C 	0.9557	0.688	0.5953	-0.038
Mof_H 	H 	0.8867	0.7086	0.5969	0.006
Mof_C 	C 	0.7586	0.5791	0.2784	0.278
Mof_C 	C 	0.1513	0.6268	0.5932	0.276
Mof_C 	C 	0.8864	0.5574	0.3047	-0.77
Mof_H 	H 	0.9409	0.5887	0.3387	0.219
Mof_H 	H 	0.8968	0.5218	0.3429	0.244
Mof_H 	H 	0.9044	0.5477	0.2496	0.241
Mof_C 	C 	0.2599	0.5929	0.5902	-0.756
Mof_H 	H 	0.3236	0.5952	0.6497	0.211
Mof_H 	H 	0.288	0.6103	0.5437	0.231
Mof_H 	H 	0.2383	0.551	0.5751	0.236
Mof_C 	C 	0.589	0.7106	0.311	0.017
Mof_C 	C 	0.064	0.7119	0.7648	0.027
Mof_C 	C 	0.4406	0.5153	0.9754	0.061
Mof_C 	C 	0.4744	0.7356	0.2858	-0.026
Mof_H 	H 	0.4062	0.7133	0.2509	-0
Mof_C 	C 	0.9668	0.7386	0.7793	-0.033
Mof_H 	H 	0.8926	0.7409	0.7305	0.008
Mof_C 	C 	0.4335	0.5629	0.9159	-0.019
Mof_H 	H 	0.504	0.5757	0.9059	0.031
Mof_C 	C 	0.6691	0.7977	0.3869	0.278
Mof_C 	C 	0.1762	0.7291	0.9168	0.295
Mof_C 	C 	0.2389	0.525	0.9435	0.296
Mof_C 	C 	0.7753	0.8358	0.4393	-0.767
Mof_H 	H 	0.8488	0.8122	0.454	0.218
Mof_H 	H 	0.7803	0.8702	0.4021	0.238
Mof_H 	H 	0.7655	0.8497	0.4958	0.241
Mof_C 	C 	0.2889	0.7217	0.9965	-0.788
Mof_H 	H 	0.3506	0.7037	0.9763	0.231
Mof_H 	H 	0.2737	0.6958	0.0418	0.25
Mof_H 	H 	0.3164	0.7607	0.0237	0.242
Mof_C 	C 	0.1245	0.5039	0.9565	-0.752
Mof_H 	H 	0.1423	0.47	0.9986	0.231
Mof_H 	H 	0.0668	0.4916	0.8976	0.227
Mof_H 	H 	0.0904	0.5364	0.9816	0.232
Mof_N 	N 	0.7342	0.6336	0.3066	-0.275
Mof_N 	N 	0.1598	0.6565	0.6724	-0.265
Mof_N 	N 	0.553	0.5568	0.1993	-0.081
Mof_N 	N 	0.9561	0.6611	0.5159	-0.184
Mof_N 	N 	0.6757	0.5381	0.2293	-0.139
Mof_N 	N 	0.0531	0.6291	0.5177	-0.162
Mof_N 	N 	0.6892	0.7403	0.3645	-0.265
Mof_N 	N 	0.171	0.7085	0.832	-0.261
Mof_N 	N 	0.3429	0.4961	0.9904	-0.177
Mof_N 	N 	0.4627	0.7084	0.8119	-0.197
Mof_N 	N 	0.9758	0.7614	0.8616	-0.193
Mof_N 	N 	0.3305	0.5908	0.8729	-0.18
Mof_N 	N 	0.5593	0.825	0.3611	-0.163
Mof_N 	N 	0.0823	0.7544	0.9332	-0.16
Mof_N 	N 	0.2297	0.5711	0.8884	-0.162
Mof_Cu	Cu	0.30485	0.83401	0.29278	0.85
Mof_Cu	Cu	0.84879	0.80798	0.89275	0.853
Mof_C 	C 	0.6158	0.8499	0.7814	0.021
Mof_C 	C 	0.0583	0.8154	0.1736	0.022
Mof_C 	C 	0.5333	0.8894	0.7325	-0.029
Mof_H 	H 	0.4521	0.8784	0.7197	0.028
Mof_C 	C 	0.9557	0.812	0.0953	-0.034
Mof_H 	H 	0.8867	0.7914	0.0969	0.006
Mof_C 	C 	0.7586	0.9209	0.7784	0.277
Mof_C 	C 	0.1513	0.8732	0.0932	0.276
Mof_C 	C 	0.8864	0.9426	0.8047	-0.767
Mof_H 	H 	0.9409	0.9113	0.8387	0.218
Mof_H 	H 	0.8968	0.9782	0.8429	0.242
Mof_H 	H 	0.9044	0.9523	0.7496	0.24
Mof_C 	C 	0.2599	0.9071	0.0902	-0.756
Mof_H 	H 	0.3236	0.9048	0.1497	0.212
Mof_H 	H 	0.288	0.8897	0.0437	0.231
Mof_H 	H 	0.2383	0.949	0.0751	0.236
Mof_C 	C 	0.589	0.7894	0.811	0.017
Mof_C 	C 	0.064	0.7881	0.2648	0.024
Mof_C 	C 	0.4406	0.9847	0.4754	0.061
Mof_C 	C 	0.4744	0.7644	0.7858	-0.025
Mof_H 	H 	0.4062	0.7867	0.7509	-0
Mof_C 	C 	0.9668	0.7614	0.2793	-0.029
Mof_H 	H 	0.8926	0.7591	0.2305	0.007
Mof_C 	C 	0.4335	0.9371	0.4159	-0.019
Mof_H 	H 	0.504	0.9243	0.4059	0.031
Mof_C 	C 	0.6691	0.7023	0.8869	0.277
Mof_C 	C 	0.1762	0.7709	0.4168	0.299
Mof_C 	C 	0.2389	0.975	0.4435	0.292
Mof_C 	C 	0.7753	0.6642	0.9393	-0.763
Mof_H 	H 	0.8488	0.6878	0.954	0.216
Mof_H 	H 	0.7803	0.6298	0.9021	0.237
Mof_H 	H 	0.7655	0.6503	0.9958	0.24
Mof_C 	C 	0.2889	0.7783	0.4965	-0.806
Mof_H 	H 	0.3506	0.7963	0.4763	0.236
Mof_H 	H 	0.2737	0.8042	0.5418	0.257
Mof_H 	H 	0.3164	0.7393	0.5237	0.248
Mof_C 	C 	0.1245	0.9961	0.4565	-0.735
Mof_H 	H 	0.1423	0.03	0.4986	0.224
Mof_H 	H 	0.0668	0.0084	0.3976	0.22
Mof_H 	H 	0.0904	0.9636	0.4816	0.227
Mof_N 	N 	0.7342	0.8664	0.8066	-0.274
Mof_N 	N 	0.1598	0.8435	0.1724	-0.265
Mof_N 	N 	0.553	0.9432	0.6993	-0.081
Mof_N 	N 	0.9561	0.8389	0.0159	-0.184
Mof_N 	N 	0.6757	0.9619	0.7293	-0.139
Mof_N 	N 	0.0531	0.8709	0.0177	-0.163
Mof_N 	N 	0.6892	0.7597	0.8645	-0.264
Mof_N 	N 	0.171	0.7915	0.332	-0.261
Mof_N 	N 	0.3429	0.0039	0.4904	-0.176
Mof_N 	N 	0.4627	0.7916	0.3119	-0.197
Mof_N 	N 	0.9758	0.7386	0.3616	-0.192
Mof_N 	N 	0.3305	0.9092	0.3729	-0.18
Mof_N 	N 	0.5593	0.675	0.8611	-0.163
Mof_N 	N 	0.0823	0.7456	0.4332	-0.163
Mof_N 	N 	0.2297	0.9289	0.3884	-0.161
Mof_Cu	Cu	0.69515	0.33401	0.20722	0.85
Mof_Cu	Cu	0.15121	0.30798	0.60725	0.853
Mof_C 	C 	0.3842	0.3499	0.7186	0.021
Mof_C 	C 	0.9417	0.3154	0.3264	0.025
Mof_C 	C 	0.4667	0.3894	0.7675	-0.029
Mof_H 	H 	0.5479	0.3784	0.7803	0.027
Mof_C 	C 	0.0443	0.312	0.4047	-0.038
Mof_H 	H 	0.1133	0.2914	0.4031	0.006
Mof_C 	C 	0.2414	0.4209	0.7216	0.278
Mof_C 	C 	0.8487	0.3732	0.4068	0.276
Mof_C 	C 	0.1136	0.4426	0.6953	-0.77
Mof_H 	H 	0.0591	0.4113	0.6613	0.219
Mof_H 	H 	0.1032	0.4782	0.6571	0.244
Mof_H 	H 	0.0956	0.4523	0.7504	0.241
Mof_C 	C 	0.7401	0.4071	0.4098	-0.756
Mof_H 	H 	0.6764	0.4048	0.3503	0.211
Mof_H 	H 	0.712	0.3897	0.4563	0.231
Mof_H 	H 	0.7617	0.449	0.4249	0.236
Mof_C 	C 	0.411	0.2894	0.689	0.017
Mof_C 	C 	0.936	0.2881	0.2352	0.027
Mof_C 	C 	0.5594	0.4847	0.0246	0.061
Mof_C 	C 	0.5256	0.2644	0.7142	-0.026
Mof_H 	H 	0.5938	0.2867	0.7491	-0
Mof_C 	C 	0.0332	0.2614	0.2207	-0.033
Mof_H 	H 	0.1074	0.2591	0.2695	0.008
Mof_C 	C 	0.5665	0.4371	0.0841	-0.019
Mof_H 	H 	0.496	0.4243	0.0941	0.031
Mof_C 	C 	0.3309	0.2023	0.6131	0.278
Mof_C 	C 	0.8238	0.2709	0.0832	0.295
Mof_C 	C 	0.7611	0.475	0.0565	0.296
Mof_C 	C 	0.2247	0.1642	0.5607	-0.767
Mof_H 	H 	0.1512	0.1878	0.546	0.218
Mof_H 	H 	0.2197	0.1298	0.5979	0.238
Mof_H 	H 	0.2345	0.1503	0.5042	0.241
Mof_C 	C 	0.7111	0.2783	0.0035	-0.788
Mof_H 	H 	0.6494	0.2963	0.0237	0.231
Mof_H 	H 	0.7263	0.3042	0.9582	0.25
Mof_H 	H 	0.6836	0.2393	0.9763	0.242
Mof_C 	C 	0.8755	0.4961	0.0435	-0.752
Mof_H 	H 	0.8577	0.53	0.0014	0.231
Mof_H 	H 	0.9332	0.5084	0.1024	0.227
Mof_H 	H 	0.9096	0.4636	0.0184	0.232
Mof_N 	N 	0.2658	0.3664	0.6934	-0.275
Mof_N 	N 	0.8402	0.3435	0.3276	-0.265
Mof_N 	N 	0.447	0.4432	0.8007	-0.081
Mof_N 	N 	0.0439	0.3389	0.4841	-0.184
Mof_N 	N 	0.3243	0.4619	0.7707	-0.139
Mof_N 	N 	0.9469	0.3709	0.4823	-0.162
Mof_N 	N 	0.3108	0.2597	0.6355	-0.265
Mof_N 	N 	0.829	0.2915	0.168	-0.261
Mof_N 	N 	0.6571	0.5039	0.0096	-0.177
Mof_N 	N 	0.5373	0.2916	0.1881	-0.197
Mof_N 	N 	0.0242	0.2386	0.1384	-0.193
Mof_N 	N 	0.6695	0.4092	0.1271	-0.18
Mof_N 	N 	0.4407	0.175	0.6389	-0.163
Mof_N 	N 	0.9177	0.2456	0.0668	-0.16
Mof_N 	N 	0.7703	0.4289	0.1116	-0.162
_end
