# CIF file generated by openbabel 3.1.0, see https://openbabel.org
data_I
_chemical_name_common 'IKETOI_clean'
_cell_length_a 6.0922
_cell_length_b 9.9633
_cell_length_c 13.3598
_cell_angle_alpha 68.853
_cell_angle_beta 81.104
_cell_angle_gamma 76.848
_space_group_name_H-M_alt 'P 1'
_space_group_name_Hall 'P 1'
loop_
    _symmetry_equiv_pos_as_xyz
    x,y,z
loop_
    _atom_site_label
    _atom_site_type_symbol
    _atom_site_fract_x
    _atom_site_fract_y
    _atom_site_fract_z
    _atom_site_occupancy
    Gd1      Gd       0.83214    0.61429    0.19572    1.000
    Gd2      Gd       0.16786    0.38571    0.80429    1.000
    H1       H        0.32690    0.04710    0.02810    1.000
    H2       H        0.70400    0.32480    0.62970    1.000
    H3       H        0.67310    0.95290    0.97190    1.000
    H4       H        0.29600    0.67520    0.37030    1.000
    C1       C        0.28830    0.76610    0.14100    1.000
    C2       C        0.13400    0.89340    0.06870    1.000
    C3       C        0.19210    0.02980    0.01520    1.000
    C4       C        0.95070    0.38260    0.43950    1.000
    C5       C        0.71010    0.44410    0.47280    1.000
    C6       C        0.61720    0.39760    0.57760    1.000
    C7       C        0.08880    0.43990    0.03450    1.000
    C8       C        0.71170    0.23390    0.85900    1.000
    C9       C        0.86600    0.10660    0.93130    1.000
    C10      C        0.80790    0.97020    0.98480    1.000
    C11      C        0.04930    0.61740    0.56050    1.000
    C12      C        0.28990    0.55590    0.52720    1.000
    C13      C        0.38280    0.60240    0.42240    1.000
    C14      C        0.91120    0.56010    0.96550    1.000
    N1       N        0.94010    0.86370    0.05420    1.000
    N2       N        0.59340    0.54650    0.39330    1.000
    N3       N        0.05990    0.13630    0.94580    1.000
    N4       N        0.40660    0.45350    0.60670    1.000
    O1       O        0.21420    0.64930    0.18370    1.000
    O2       O        0.47990    0.78340    0.15140    1.000
    O3       O        0.01420    0.43150    0.34180    1.000
    O4       O        0.06910    0.29060    0.51020    1.000
    O5       O        0.08470    0.42950    0.13030    1.000
    O6       O        0.22300    0.36120    0.98730    1.000
    O7       O        0.78580    0.35070    0.81630    1.000
    O8       O        0.52010    0.21660    0.84860    1.000
    O9       O        0.98580    0.56850    0.65820    1.000
    O10      O        0.93090    0.70940    0.48980    1.000
    O11      O        0.91530    0.57050    0.86970    1.000
    O12      O        0.77700    0.63880    0.01270    1.000
