data_functionalizedCrystal
_audit_creation_method	'EQeq! by Chris Wilmer'
_symmetry_space_group_name_H-M	'P1'
_symmetry_Int_Tables_number	1
_symmetry_cell_setting	triclinic
loop_
_symmetry_equiv_pos_as_xyz
  x,y,z
_cell_length_a	15.3763
_cell_length_b	15.3763
_cell_length_c	9.8086
_cell_angle_alpha	90
_cell_angle_beta	90
_cell_angle_gamma	90
loop_
_atom_site_label
_atom_site_type_symbol
_atom_site_fract_x
_atom_site_fract_y
_atom_site_fract_z
_atom_site_charge
Mof_O 	O 	0.03119	0.87444	0.12234	-0.427
Mof_C 	C 	0.88692	0.74442	0.122	0.036
Mof_H 	H 	0.9121	0.7616	0.2039	0.074
Mof_C 	C 	0.81207	0.69471	0.1219	-0.102
Mof_H 	H 	0.7871	0.678	0.2042	0.083
Mof_O 	O 	0.96881	0.12556	0.12234	-0.426
Mof_C 	C 	0.11308	0.25558	0.122	0.252
Mof_H 	H 	0.0879	0.2384	0.2039	-0.062
Mof_C 	C 	0.18793	0.30529	0.1219	-0.284
Mof_H 	H 	0.2129	0.322	0.2042	0.135
Mof_O 	O 	0.12556	0.03119	0.12234	-0.489
Mof_C 	C 	0.25558	0.88692	0.122	0.033
Mof_H 	H 	0.2384	0.9121	0.2039	0.077
Mof_C 	C 	0.30529	0.81207	0.1219	-0.1
Mof_H 	H 	0.322	0.7871	0.2042	0.082
Mof_O 	O 	0.87444	0.96881	0.12234	-0.375
Mof_C 	C 	0.74442	0.11308	0.122	0.238
Mof_H 	H 	0.7616	0.0879	0.2039	-0.054
Mof_C 	C 	0.69471	0.18793	0.1219	-0.272
Mof_H 	H 	0.678	0.2129	0.2042	0.132
Mof_O 	O 	0.96881	0.87444	0.37766	-0.38
Mof_C 	C 	0.11308	0.74442	0.378	0.242
Mof_H 	H 	0.0879	0.7616	0.2961	-0.056
Mof_C 	C 	0.18793	0.69471	0.3781	-0.289
Mof_H 	H 	0.2129	0.678	0.2958	0.138
Mof_O 	O 	0.03119	0.12556	0.37766	-0.492
Mof_C 	C 	0.88692	0.25558	0.378	0.03
Mof_H 	H 	0.9121	0.2384	0.2961	0.078
Mof_C 	C 	0.81207	0.30529	0.3781	-0.112
Mof_H 	H 	0.7871	0.322	0.2958	0.086
Mof_O 	O 	0.87444	0.03119	0.37766	-0.43
Mof_C 	C 	0.74442	0.88692	0.378	0.033
Mof_H 	H 	0.7616	0.9121	0.2961	0.075
Mof_C 	C 	0.69471	0.81207	0.3781	-0.113
Mof_H 	H 	0.678	0.7871	0.2958	0.087
Mof_O 	O 	0.12556	0.96881	0.37766	-0.432
Mof_C 	C 	0.25558	0.11308	0.378	0.258
Mof_H 	H 	0.2384	0.0879	0.2961	-0.064
Mof_C 	C 	0.30529	0.18793	0.3781	-0.302
Mof_H 	H 	0.322	0.2129	0.2958	0.141
Mof_O 	O 	0.96881	0.12556	0.87766	-0.4
Mof_C 	C 	0.11308	0.25558	0.878	0.282
Mof_H 	H 	0.0879	0.2384	0.7961	-0.067
Mof_C 	C 	0.18793	0.30529	0.8781	-0.251
Mof_H 	H 	0.2129	0.322	0.7958	0.132
Mof_O 	O 	0.03119	0.87444	0.87766	-0.401
Mof_C 	C 	0.88692	0.74442	0.878	0.07
Mof_H 	H 	0.9121	0.7616	0.7961	0.068
Mof_C 	C 	0.81207	0.69471	0.8781	-0.067
Mof_H 	H 	0.7871	0.678	0.7958	0.079
Mof_O 	O 	0.87444	0.96881	0.87766	-0.347
Mof_C 	C 	0.74442	0.11308	0.878	0.269
Mof_H 	H 	0.7616	0.0879	0.7961	-0.06
Mof_C 	C 	0.69471	0.18793	0.8781	-0.238
Mof_H 	H 	0.678	0.2129	0.7958	0.129
Mof_O 	O 	0.12556	0.03119	0.87766	-0.465
Mof_C 	C 	0.25558	0.88692	0.878	0.065
Mof_H 	H 	0.2384	0.9121	0.7961	0.072
Mof_C 	C 	0.30529	0.81207	0.8781	-0.066
Mof_H 	H 	0.322	0.7871	0.7958	0.078
Mof_O 	O 	0.03119	0.12556	0.62234	-0.492
Mof_C 	C 	0.88692	0.25558	0.622	0.031
Mof_H 	H 	0.9121	0.2384	0.7039	0.083
Mof_C 	C 	0.81207	0.30529	0.6219	-0.111
Mof_H 	H 	0.7871	0.322	0.7042	0.094
Mof_O 	O 	0.96881	0.87444	0.62234	-0.379
Mof_C 	C 	0.11308	0.74442	0.622	0.244
Mof_H 	H 	0.0879	0.7616	0.7039	-0.052
Mof_C 	C 	0.18793	0.69471	0.6219	-0.289
Mof_H 	H 	0.2129	0.678	0.7042	0.146
Mof_O 	O 	0.12556	0.96881	0.62234	-0.431
Mof_C 	C 	0.25558	0.11308	0.622	0.259
Mof_H 	H 	0.2384	0.0879	0.7039	-0.06
Mof_C 	C 	0.30529	0.18793	0.6219	-0.301
Mof_H 	H 	0.322	0.2129	0.7042	0.149
Mof_O 	O 	0.87444	0.03119	0.62234	-0.43
Mof_C 	C 	0.74442	0.88692	0.622	0.034
Mof_H 	H 	0.7616	0.9121	0.7039	0.08
Mof_C 	C 	0.69471	0.81207	0.6219	-0.113
Mof_H 	H 	0.678	0.7871	0.7042	0.095
Mof_Dy	Dy	5.97939e-34	0	0.25	1.691
Mof_Dy	Dy	-3.64882e-33	-5.44264e-33	0.75	1.693
Mof_S 	S 	0.02606	0.82149	-0	0.487
Mof_O 	O 	0.08926	0.75239	-0	-0.302
Mof_N 	N 	0.53022	0.62971	-0	-0.117
Mof_C 	C 	0.92375	0.76825	-0	-0.051
Mof_C 	C 	0.7738	0.66945	-0	0.053
Mof_C 	C 	0.69119	0.61815	-0	-0.09
Mof_C 	C 	0.61317	0.66424	-0	0.106
Mof_C 	C 	0.60612	0.75807	-0	-0.091
Mof_H 	H 	0.652	0.7975	-0	0.093
Mof_C 	C 	0.5207	0.7777	-0	-0.07
Mof_H 	H 	0.4971	0.8334	-0	0.078
Mof_C 	C 	0.4725	0.69763	-0	0.105
Mof_S 	S 	0.97394	0.17851	-0	0.809
Mof_O 	O 	0.91074	0.24761	-0	-0.316
Mof_N 	N 	0.46978	0.37029	-0	-0.122
Mof_C 	C 	0.07625	0.23175	-0	-0.413
Mof_C 	C 	0.2262	0.33055	-0	0.175
Mof_C 	C 	0.30881	0.38185	-0	-0.141
Mof_C 	C 	0.38683	0.33576	-0	0.126
Mof_C 	C 	0.39388	0.24193	-0	-0.115
Mof_H 	H 	0.348	0.2025	-0	0.084
Mof_C 	C 	0.4793	0.2223	-0	-0.07
Mof_H 	H 	0.5029	0.1666	-0	0.041
Mof_C 	C 	0.5275	0.30237	-0	0.111
Mof_S 	S 	0.17851	0.02606	-0	0.496
Mof_O 	O 	0.24761	0.08926	-0	-0.306
Mof_N 	N 	0.37029	0.53022	-0	-0.12
Mof_C 	C 	0.23175	0.92375	-0	-0.038
Mof_C 	C 	0.33055	0.7738	-0	0.052
Mof_C 	C 	0.38185	0.69119	-0	-0.092
Mof_C 	C 	0.33576	0.61317	-0	0.106
Mof_C 	C 	0.24193	0.60612	-0	-0.102
Mof_H 	H 	0.2025	0.652	-0	0.078
Mof_C 	C 	0.2223	0.5207	-0	-0.078
Mof_H 	H 	0.1666	0.4971	-0	0.044
Mof_C 	C 	0.30237	0.4725	-0	0.115
Mof_S 	S 	0.82149	0.97394	-0	0.778
Mof_O 	O 	0.75239	0.91074	-0	-0.31
Mof_N 	N 	0.62971	0.46978	-0	-0.119
Mof_C 	C 	0.76825	0.07625	-0	-0.396
Mof_C 	C 	0.66945	0.2262	-0	0.165
Mof_C 	C 	0.61815	0.30881	-0	-0.135
Mof_C 	C 	0.66424	0.38683	-0	0.124
Mof_C 	C 	0.75807	0.39388	-0	-0.103
Mof_H 	H 	0.7975	0.348	-0	0.098
Mof_C 	C 	0.7777	0.4793	-0	-0.063
Mof_H 	H 	0.8334	0.5029	-0	0.076
Mof_C 	C 	0.69763	0.5275	-0	0.102
Mof_S 	S 	0.97394	0.82149	0.5	0.826
Mof_O 	O 	0.91074	0.75239	0.5	-0.306
Mof_N 	N 	0.46978	0.62971	0.5	-0.117
Mof_C 	C 	0.07625	0.76825	0.5	-0.373
Mof_C 	C 	0.2262	0.66945	0.5	0.214
Mof_C 	C 	0.30881	0.61815	0.5	-0.144
Mof_C 	C 	0.38683	0.66424	0.5	0.137
Mof_C 	C 	0.39388	0.75807	0.5	-0.099
Mof_H 	H 	0.348	0.7975	0.5	0.105
Mof_C 	C 	0.4793	0.7777	0.5	-0.06
Mof_H 	H 	0.5029	0.8334	0.5	0.084
Mof_C 	C 	0.5275	0.69763	0.5	0.116
Mof_S 	S 	0.02606	0.17851	0.5	0.526
Mof_O 	O 	0.08926	0.24761	0.5	-0.301
Mof_N 	N 	0.53022	0.37029	0.5	-0.117
Mof_C 	C 	0.92375	0.23175	0.5	-0.002
Mof_C 	C 	0.7738	0.33055	0.5	0.098
Mof_C 	C 	0.69119	0.38185	0.5	-0.1
Mof_C 	C 	0.61317	0.33576	0.5	0.118
Mof_C 	C 	0.60612	0.24193	0.5	-0.097
Mof_H 	H 	0.652	0.2025	0.5	0.084
Mof_C 	C 	0.5207	0.2223	0.5	-0.077
Mof_H 	H 	0.4971	0.1666	0.5	0.051
Mof_C 	C 	0.4725	0.30237	0.5	0.128
Mof_S 	S 	0.82149	0.02606	0.5	0.521
Mof_O 	O 	0.75239	0.08926	0.5	-0.297
Mof_N 	N 	0.62971	0.53022	0.5	-0.114
Mof_C 	C 	0.76825	0.92375	0.5	-0.012
Mof_C 	C 	0.66945	0.7738	0.5	0.1
Mof_C 	C 	0.61815	0.69119	0.5	-0.098
Mof_C 	C 	0.66424	0.61317	0.5	0.119
Mof_C 	C 	0.75807	0.60612	0.5	-0.087
Mof_H 	H 	0.7975	0.652	0.5	0.099
Mof_C 	C 	0.7777	0.5207	0.5	-0.067
Mof_H 	H 	0.8334	0.4971	0.5	0.087
Mof_C 	C 	0.69763	0.4725	0.5	0.118
Mof_S 	S 	0.17851	0.97394	0.5	0.855
Mof_O 	O 	0.24761	0.91074	0.5	-0.312
Mof_N 	N 	0.37029	0.46978	0.5	-0.119
Mof_C 	C 	0.23175	0.07625	0.5	-0.392
Mof_C 	C 	0.33055	0.2262	0.5	0.222
Mof_C 	C 	0.38185	0.30881	0.5	-0.15
Mof_C 	C 	0.33576	0.38683	0.5	0.138
Mof_C 	C 	0.24193	0.39388	0.5	-0.111
Mof_H 	H 	0.2025	0.348	0.5	0.089
Mof_C 	C 	0.2223	0.4793	0.5	-0.069
Mof_H 	H 	0.1666	0.5029	0.5	0.048
Mof_C 	C 	0.30237	0.5275	0.5	0.124
_end
