# CIF file generated by openbabel 3.1.0, see https://openbabel.org
data_I
_chemical_name_common 'MIDSEZ_clean'
_cell_length_a 9.0116
_cell_length_b 9.3401
_cell_length_c 23.211
_cell_angle_alpha 93.9271
_cell_angle_beta 95.2968
_cell_angle_gamma 105.618
_space_group_name_H-M_alt 'P 1'
_space_group_name_Hall 'P 1'
loop_
    _symmetry_equiv_pos_as_xyz
    x,y,z
loop_
    _atom_site_label
    _atom_site_type_symbol
    _atom_site_fract_x
    _atom_site_fract_y
    _atom_site_fract_z
    _atom_site_occupancy
    Ni1      Ni       0.19696    0.29571    0.78090    1.000
    Ni2      Ni       0.19818    0.55555    0.78687    1.000
    Ni3      Ni       0.80285    0.49129    0.29655    1.000
    Ni4      Ni       0.79114    0.74782    0.30998    1.000
    H1       H        0.22165    0.78015    0.69088    1.000
    H2       H        0.57454    0.36418    0.44101    1.000
    H3       H        0.98450    0.74332    0.82082    1.000
    H4       H        0.01102    0.17913    0.62525    1.000
    H5       H        0.20500    0.04142    0.68528    1.000
    H6       H        0.02189    0.31803    0.36599    1.000
    H7       H        0.72252    0.42871    0.11853    1.000
    H8       H        0.99968    0.38331    0.17065    1.000
    H9       H        0.43473    0.11536    0.75993    1.000
    H10      H        0.10994    0.87952    0.16766    1.000
    H11      H        0.85587    0.86089    0.51222    1.000
    H12      H        0.41308    0.79280    0.04595    1.000
    H13      H        0.40833    0.87229    0.84395    1.000
    H14      H        0.58063    0.18772    0.25686    1.000
    H15      H        0.59551    0.93771    0.34127    1.000
    H16      H        0.15397    0.85154    0.05678    1.000
    H17      H        0.67560    0.34075    0.90100    1.000
    H18      H        0.58524    0.91200    0.25930    1.000
    H19      H        0.23535    0.62553    0.59775    1.000
    H20      H        0.01286    0.25866    0.51919    1.000
    H21      H        0.56394    0.26141    0.54101    1.000
    H22      H        0.40617    0.12636    0.83640    1.000
    H23      H        0.11503    0.70398    0.96629    1.000
    H24      H        0.13190    0.22867    0.97020    1.000
    H25      H        0.02690    0.05404    0.37090    1.000
    H26      H        0.99620    0.98281    0.70471    1.000
    H27      H        0.79480    0.22778    0.21556    1.000
    H28      H        0.12874    0.07729    0.86643    1.000
    H29      H        0.77962    0.95896    0.21423    1.000
    H30      H        0.45508    0.27155    0.64442    1.000
    H31      H        0.81386    0.56006    0.67580    1.000
    H32      H        0.75794    0.34789    0.00996    1.000
    H33      H        0.00364    0.26886    0.25265    1.000
    H34      H        0.79558    0.74179    0.60981    1.000
    H35      H        0.06628    0.22733    0.07800    1.000
    H36      H        0.99049    0.01428    0.24745    1.000
    H37      H        0.43448    0.85124    0.76196    1.000
    H38      H        0.25201    0.72793    0.49706    1.000
    H39      H        0.46735    0.76069    0.15701    1.000
    H40      H        0.15266    0.82161    0.87552    1.000
    H41      H        0.57739    0.19148    0.33674    1.000
    H42      H        0.84568    0.26482    0.40482    1.000
    H43      H        0.98915    0.45319    0.45245    1.000
    H44      H        0.37682    0.73371    0.39719    1.000
    H45      H        0.41630    0.68489    0.93846    1.000
    H46      H        0.02248    0.72496    0.70939    1.000
    H47      H        0.96680    0.00181    0.80507    1.000
    H48      H        0.83659    0.00778    0.39874    1.000
    C1       C        0.35404    0.05411    0.79248    1.000
    C2       C        0.95237    0.36641    0.72166    1.000
    C3       C        0.08455    0.47561    0.08669    1.000
    C4       C        0.64468    0.16079    0.29885    1.000
    C5       C        0.66635    0.51202    0.09853    1.000
    C6       C        0.13877    0.81335    0.72129    1.000
    C7       C        0.84234    0.48218    0.64090    1.000
    C8       C        0.65892    0.60588    0.20322    1.000
    C9       C        0.05504    0.48756    0.14747    1.000
    C10      C        0.13500    0.43470    0.89467    1.000
    C11      C        0.69585    0.43530    0.99330    1.000
    C12      C        0.34306    0.44653    0.62216    1.000
    C13      C        0.89901    0.23414    0.36397    1.000
    C14      C        0.91509    0.64987    0.47117    1.000
    C15      C        0.30938    0.54719    0.58401    1.000
    C16      C        0.32697    0.64858    0.48531    1.000
    C17      C        0.95611    0.31216    0.55491    1.000
    C18      C        0.50393    0.44175    0.45683    1.000
    C19      C        0.06651    0.63095    0.17627    1.000
    C20      C        0.10018    0.76145    0.14421    1.000
    C21      C        0.62659    0.51248    0.03724    1.000
    C22      C        0.29259    0.44713    0.68407    1.000
    C23      C        0.48690    0.71259    0.06192    1.000
    C24      C        0.11694    0.45507    0.96034    1.000
    C25      C        0.87080    0.74353    0.51893    1.000
    C26      C        0.84498    0.52792    0.58262    1.000
    C27      C        0.10161    0.83682    0.82937    1.000
    C28      C        0.92593    0.67224    0.40710    1.000
    C29      C        0.01235    0.64578    0.23598    1.000
    C30      C        0.53081    0.51126    0.91362    1.000
    C31      C        0.49139    0.60977    0.95634    1.000
    C32      C        0.43312    0.34443    0.60947    1.000
    C33      C        0.36274    0.88755    0.79682    1.000
    C34      C        0.95284    0.27208    0.61179    1.000
    C35      C        0.45307    0.43759    0.51495    1.000
    C36      C        0.64676    0.98683    0.30079    1.000
    C37      C        0.46799    0.53805    0.41621    1.000
    C38      C        0.93853    0.51150    0.48586    1.000
    C39      C        0.87412    0.20394    0.25413    1.000
    C40      C        0.91555    0.45182    0.54047    1.000
    C41      C        0.08950    0.33774    0.05595    1.000
    C42      C        0.44498    0.49169    0.84878    1.000
    C43      C        0.55648    0.56509    0.36219    1.000
    C44      C        0.91229    0.36535    0.65677    1.000
    C45      C        0.10252    0.60153    0.05199    1.000
    C46      C        0.83037    0.67708    0.57003    1.000
    C47      C        0.87004    0.03523    0.25033    1.000
    C48      C        0.12389    0.97844    0.71702    1.000
    C49      C        0.09127    0.00158    0.82293    1.000
    C50      C        0.10565    0.59401    0.98814    1.000
    C51      C        0.35845    0.54189    0.52685    1.000
    C52      C        0.63572    0.41677    0.93443    1.000
    C53      C        0.11984    0.74613    0.08433    1.000
    C54      C        0.61791    0.60954    0.13941    1.000
    C55      C        0.53699    0.61723    0.01896    1.000
    C56      C        0.12066    0.33359    0.99672    1.000
    C57      C        0.52315    0.70825    0.12141    1.000
    C58      C        0.38713    0.65111    0.43111    1.000
    C59      C        0.90243    0.06581    0.36327    1.000
    C60      C        0.49285    0.34146    0.55621    1.000
    N1       N        0.18973    0.07112    0.77718    1.000
    N2       N        0.80955    0.26084    0.30731    1.000
    N3       N        0.81645    0.97616    0.30565    1.000
    N4       N        0.19734    0.78654    0.78328    1.000
    O1       O        0.41872    0.36115    0.81833    1.000
    O2       O        0.29258    0.57795    0.70986    1.000
    O3       O        0.89791    0.79130    0.38295    1.000
    O4       O        0.97498    0.50441    0.25269    1.000
    O5       O        0.66278    0.47721    0.22171    1.000
    O6       O        0.67027    0.73085    0.23713    1.000
    O7       O        0.40353    0.61182    0.82957    1.000
    O8       O        0.94024    0.55686    0.37637    1.000
    O9       O        0.16593    0.30896    0.87310    1.000
    O10      O        0.97809    0.49731    0.75427    1.000
    O11      O        0.98368    0.76245    0.25904    1.000
    O12      O        0.57780    0.70057    0.34582    1.000
    O13      O        0.27370    0.31590    0.70501    1.000
    O14      O        0.13084    0.54961    0.86586    1.000
    O15      O        0.61735    0.45982    0.33980    1.000
    O16      O        0.97696    0.24640    0.74632    1.000
