data_functionalizedCrystal
_audit_creation_method	'EQeq! by Chris Wilmer'
_symmetry_space_group_name_H-M	'P1'
_symmetry_Int_Tables_number	1
_symmetry_cell_setting	triclinic
loop_
_symmetry_equiv_pos_as_xyz
  x,y,z
_cell_length_a	6.6544
_cell_length_b	7.038
_cell_length_c	7.7938
_cell_angle_alpha	111.16
_cell_angle_beta	95.307
_cell_angle_gamma	90.59
loop_
_atom_site_label
_atom_site_type_symbol
_atom_site_fract_x
_atom_site_fract_y
_atom_site_fract_z
_atom_site_charge
Mof_Nd	Nd	0.86983	0.77765	0.06652	2.319
Mof_Nd	Nd	0.13017	0.22235	0.93348	2.319
Mof_P 	P 	0.32593	0.7479	0.97919	0.525
Mof_P 	P 	0.67407	0.2521	0.02081	0.525
Mof_H 	H 	0.3622	0.7204	0.7978	-0.109
Mof_H 	H 	0.6378	0.2796	0.2022	-0.109
Mof_C 	C 	0.062	0.9079	0.5001	0.266
Mof_C 	C 	0.938	0.0921	0.4999	0.266
Mof_O 	O 	0.1992	0.939	0.0347	-0.703
Mof_O 	O 	0.5217	0.7724	0.102	-0.57
Mof_O 	O 	0.1815	0.5731	0.9729	-0.722
Mof_O 	O 	0.0528	0.7591	0.3511	-0.503
Mof_O 	O 	0.841	0.0778	0.3505	-0.503
Mof_O 	O 	0.8008	0.061	0.9653	-0.703
Mof_O 	O 	0.4783	0.2276	0.898	-0.57
Mof_O 	O 	0.8185	0.4269	0.0271	-0.722
Mof_O 	O 	0.9472	0.2409	0.6489	-0.503
Mof_O 	O 	0.159	0.9222	0.6495	-0.503
_end
