data_functionalizedCrystal
_audit_creation_method	'EQeq! by Chris Wilmer'
_symmetry_space_group_name_H-M	'P1'
_symmetry_Int_Tables_number	1
_symmetry_cell_setting	triclinic
loop_
_symmetry_equiv_pos_as_xyz
  x,y,z
_cell_length_a	33.5106
_cell_length_b	33.5097
_cell_length_c	33.5065
_cell_angle_alpha	60.0042
_cell_angle_beta	60.0084
_cell_angle_gamma	59.9948
loop_
_atom_site_label
_atom_site_type_symbol
_atom_site_fract_x
_atom_site_fract_y
_atom_site_fract_z
_atom_site_charge
Mof_O 	O 	0.05543	0.41692	0.48752	-0.384
Mof_O 	O 	0.02093	0.54602	0.39282	-0.424
Mof_O 	O 	0.10269	0.46435	0.39273	-0.392
Mof_O 	O 	0.97367	0.4986	0.48761	-0.415
Mof_O 	O 	0.12982	0.49147	0.41977	-0.404
Mof_O 	O 	0.04806	0.57315	0.41986	-0.42
Mof_O 	O 	0.08256	0.44404	0.51456	-0.391
Mof_Cu	Cu	0.06779	0.51107	0.46968	0.932
Mof_Cu	Cu	0.0357	0.47899	0.4377	0.937
Mof_O 	O 	0.0008	0.52572	0.51465	-0.402
Mof_N 	N 	0.09036	0.53363	0.49217	-0.195
Mof_N 	N 	0.01314	0.45643	0.41521	-0.191
Mof_C 	C 	0.14303	0.72029	0.54474	0
Mof_C 	C 	0.14317	0.58625	0.67871	0.008
Mof_C 	C 	0.14304	0.58628	0.54474	0.05
Mof_C 	C 	0.27709	0.58631	0.54464	0.016
Mof_C 	C 	0.15779	0.67607	0.55946	0.008
Mof_C 	C 	0.15787	0.60101	0.63449	0.013
Mof_C 	C 	0.23287	0.60104	0.55941	0.012
Mof_C 	C 	0.1578	0.60102	0.55946	-0.002
Mof_C 	C 	0.12424	0.77658	0.52599	0.015
Mof_C 	C 	0.12426	0.56751	0.526	-0.035
Mof_C 	C 	0.17658	0.61978	0.57821	0.005
Mof_C 	C 	0.35894	0.60043	0.50151	0.048
Mof_C 	C 	0.4101	0.58339	0.48442	0.132
Mof_C 	C 	0.41014	0.5006	0.516	0.05
Mof_C 	C 	0.35897	0.51764	0.53308	-0.049
Mof_C 	C 	0.13655	0.80218	0.47569	0.087
Mof_C 	C 	0.11947	0.85335	0.45866	0.011
Mof_C 	C 	0.07776	0.85332	0.54222	0.171
Mof_C 	C 	0.09484	0.80215	0.55926	-0.087
Mof_C 	C 	0.07395	0.57986	0.5384	0.079
Mof_C 	C 	0.05688	0.5628	0.52135	0.118
Mof_C 	C 	0.14043	0.52105	0.47952	-0.009
Mof_C 	C 	0.1575	0.53811	0.49656	0.109
Mof_C 	C 	0.07416	0.57982	0.76062	-0.101
Mof_C 	C 	0.05715	0.56274	0.81179	0.178
Mof_C 	C 	0.14073	0.52099	0.81172	0.138
Mof_C 	C 	0.15774	0.53806	0.76055	0.041
Mof_C 	C 	0.12445	0.56748	0.735	0.04
Mof_C 	C 	0.33337	0.56756	0.52584	0.022
Mof_C 	C 	0.97939	0.42235	0.1703	-0.068
Mof_C 	C 	0.97906	0.2119	0.3809	-0.114
Mof_C 	C 	0.97909	0.42236	0.38099	-0.073
Mof_C 	C 	0.76866	0.42258	0.38059	-0.067
Mof_C 	C 	0.87027	0.38862	0.34687	0.076
Mof_C 	C 	0.94528	0.38854	0.34702	0.077
Mof_C 	C 	0.92655	0.3698	0.32819	-0.033
Mof_C 	C 	0.91238	0.28797	0.37124	0.036
Mof_C 	C 	0.9294	0.2368	0.38832	0.117
Mof_C 	C 	0.01219	0.23672	0.35687	0.174
Mof_C 	C 	0.99517	0.28789	0.3398	-0.109
Mof_C 	C 	0.84462	0.37629	0.39716	-0.086
Mof_C 	C 	0.79345	0.3934	0.41413	0.148
Mof_C 	C 	0.79358	0.43516	0.33053	0.017
Mof_C 	C 	0.84475	0.41805	0.31355	-0.056
Mof_C 	C 	0.93295	0.43884	0.33464	-0.097
Mof_C 	C 	0.94997	0.45587	0.35176	0.031
Mof_C 	C 	0.99166	0.3723	0.39361	0.142
Mof_C 	C 	0.97463	0.35526	0.3765	-0.117
Mof_C 	C 	0.93308	0.43883	0.2463	0.065
Mof_C 	C 	0.95021	0.45586	0.19513	0.082
Mof_C 	C 	0.99195	0.37228	0.19518	0.085
Mof_C 	C 	0.97483	0.35525	0.24635	0.059
Mof_C 	C 	0.94539	0.38853	0.27191	-0.026
Mof_C 	C 	0.94527	0.31351	0.34698	0.049
Mof_C 	C 	0.99788	0.44174	0.11403	0.136
Mof_C 	C 	0.99712	0.15562	0.39994	0.133
Mof_C 	C 	0.9975	0.44176	0.39947	0.122
Mof_C 	C 	0.71238	0.44172	0.3986	0.129
Mof_N 	N 	0.43497	0.53372	0.4919	-0.204
Mof_O 	O 	0.5912	0.52925	0.37515	-0.393
Mof_O 	O 	0.5914	0.43423	0.50412	-0.39
Mof_O 	O 	0.59131	0.43445	0.42233	-0.425
Mof_O 	O 	0.59128	0.52903	0.45694	-0.391
Mof_O 	O 	0.51002	0.46148	0.44951	-0.42
Mof_O 	O 	0.51011	0.46126	0.5313	-0.397
Mof_O 	O 	0.50991	0.55628	0.40233	-0.384
Mof_Cu	Cu	0.50259	0.51124	0.4693	0.934
Mof_Cu	Cu	0.59872	0.47927	0.43715	0.935
Mof_O 	O 	0.51	0.55606	0.48412	-0.38
Mof_N 	N 	0.66633	0.45679	0.41454	-0.198
Mof_N 	N 	0.09032	0.87819	0.49216	-0.204
Mof_O 	O 	0.97366	0.0345	0.48758	-0.383
Mof_O 	O 	0.10263	0.03454	0.39254	-0.377
Mof_O 	O 	0.0208	0.03451	0.39281	-0.403
Mof_O 	O 	0.05549	0.03454	0.48731	-0.4
Mof_O 	O 	0.04793	0.95321	0.4199	-0.419
Mof_O 	O 	0.12976	0.95325	0.41963	-0.394
Mof_O 	O 	0.00079	0.95321	0.51467	-0.379
Mof_Cu	Cu	0.06776	0.94581	0.46962	0.932
Mof_Cu	Cu	0.03566	0.04195	0.43759	0.937
Mof_O 	O 	0.08262	0.95325	0.5144	-0.403
Mof_N 	N 	0.01309	0.10956	0.41505	-0.194
Mof_N 	N 	0.09067	0.53358	0.83661	-0.219
Mof_O 	O 	0.08612	0.41694	0.99291	-0.411
Mof_O 	O 	0.99112	0.54595	0.99295	-0.385
Mof_O 	O 	0.99134	0.46414	0.99293	-0.408
Mof_O 	O 	0.0859	0.49875	0.99293	-0.406
Mof_O 	O 	0.01841	0.49125	0.91164	-0.395
Mof_O 	O 	0.01819	0.57306	0.91167	-0.373
Mof_O 	O 	0.11319	0.44405	0.91162	-0.397
Mof_Cu	Cu	0.06816	0.51103	0.90422	0.938
Mof_Cu	Cu	0.03615	0.47897	0.00035	0.93
Mof_O 	O 	0.11296	0.52586	0.91164	-0.411
Mof_N 	N 	0.01363	0.45641	0.06797	-0.192
Mof_C 	C 	0.03126	0.57586	0.39329	0.48
Mof_C 	C 	0.13251	0.47471	0.39318	0.373
Mof_C 	C 	0.07223	0.41421	0.51409	0.371
Mof_C 	C 	0.97098	0.51536	0.5142	0.464
Mof_C 	C 	0.55078	0.43466	0.53395	0.37
Mof_C 	C 	0.55067	0.43493	0.43267	0.482
Mof_C 	C 	0.55053	0.55585	0.37249	0.369
Mof_C 	C 	0.55064	0.55558	0.47378	0.367
Mof_C 	C 	0.13241	0.994	0.39296	0.355
Mof_C 	C 	0.03111	0.99386	0.39333	0.465
Mof_C 	C 	0.97098	0.99385	0.51421	0.343
Mof_C 	C 	0.07231	0.9939	0.51388	0.463
Mof_C 	C 	0.99157	0.57576	0.95232	0.355
Mof_C 	C 	0.99185	0.47445	0.95227	0.465
Mof_C 	C 	0.11273	0.41424	0.95226	0.478
Mof_C 	C 	0.11246	0.51556	0.95229	0.476
Mof_H 	H 	0.04705	0.60377	0.73982	0.072
Mof_O 	O 	0.85856	0.31561	0.37899	-0.208
Mof_H 	H 	0.84625	0.3058	0.36087	0.129
Mof_H 	H 	0.55063	0.58529	0.48118	-0.006
Mof_O 	O 	0.0215	0.62498	0.35389	-0.259
Mof_H 	H 	0.02577	0.62	0.32145	0.148
Mof_H 	H 	0.16937	0.99424	0.36305	-0.006
Mof_O 	O 	0.08215	0.9939	0.55321	-0.249
Mof_H 	H 	0.11997	0.99391	0.53921	0.144
Mof_O 	O 	0.00262	0.57612	0.53472	-0.199
Mof_H 	H 	0.99282	0.59642	0.50091	0.131
Mof_H 	H 	0.96175	0.61281	0.95233	-0.003
Mof_O 	O 	0.15181	0.52536	0.95228	-0.252
Mof_H 	H 	0.13783	0.56318	0.95229	0.147
Mof_O 	O 	0.02127	0.99385	0.354	-0.249
Mof_H 	H 	0.98345	0.99384	0.368	0.135
Mof_H 	H 	0.93394	0.99384	0.54405	-0.008
Mof_H 	H 	0.55083	0.40483	0.571	-0.007
Mof_O 	O 	0.0029	0.57607	0.83942	-0.211
Mof_H 	H 	0.98262	0.5994	0.81305	0.122
Mof_O 	O 	0.15225	0.36516	0.95224	-0.248
Mof_H 	H 	0.16261	0.3481	0.98537	0.156
Mof_O 	O 	0.95252	0.46466	0.95222	-0.249
Mof_H 	H 	0.96651	0.42685	0.95219	0.147
Mof_H 	H 	0.55047	0.58568	0.33545	-0.008
Mof_O 	O 	0.17664	0.48926	0.83927	-0.208
Mof_H 	H 	0.19994	0.50958	0.82943	0.134
Mof_O 	O 	0.21199	0.52475	0.73292	-0.201
Mof_H 	H 	0.23228	0.50143	0.75928	0.131
Mof_O 	O 	0.16826	0.7746	0.43981	-0.21
Mof_H 	H 	0.17808	0.73472	0.46011	0.127
Mof_O 	O 	0.03811	0.61156	0.57015	-0.207
Mof_H 	H 	0.00026	0.61728	0.5759	0.141
Mof_H 	H 	0.1675	0.4971	0.45556	0.061
Mof_O 	O 	0.89393	0.20925	0.41448	-0.214
Mof_H 	H 	0.91415	0.16937	0.42514	0.13
Mof_H 	H 	0.0796	0.37713	0.54384	-0.003
Mof_O 	O 	0.9881	0.301	0.27397	-0.223
Mof_H 	H 	0.97436	0.28426	0.26412	0.118
Mof_O 	O 	0.21176	0.52479	0.4832	-0.218
Mof_H 	H 	0.232	0.50147	0.45987	0.126
Mof_H 	H 	0.33816	0.49087	0.5529	0.062
Mof_H 	H 	0.43097	0.45995	0.52189	0.047
Mof_H 	H 	0.16957	0.46741	0.36339	-0.011
Mof_O 	O 	0.55069	0.39557	0.42286	-0.259
Mof_H 	H 	0.58385	0.36313	0.42708	0.149
Mof_H 	H 	0.02195	0.30868	0.32004	0.079
Mof_O 	O 	0.43769	0.61885	0.45818	-0.209
Mof_H 	H 	0.41129	0.65642	0.45601	0.118
Mof_O 	O 	0.92189	0.52502	0.55367	-0.251
Mof_H 	H 	0.89795	0.56282	0.5398	0.142
Mof_H 	H 	0.1295	0.87419	0.4177	0.066
Mof_O 	O 	0.33133	0.65428	0.4937	-0.201
Mof_H 	H 	0.3577	0.67427	0.47392	0.114
Mof_H 	H 	0.08481	0.78131	0.60022	0.072
Mof_O 	O 	0.04606	0.8809	0.5781	-0.219
Mof_H 	H 	0.01227	0.87107	0.60143	0.133
Mof_O 	O 	0.93692	0.51012	0.16752	-0.216
Mof_H 	H 	0.89659	0.52691	0.17727	0.118
Mof_O 	O 	0.90133	0.47472	0.27387	-0.277
Mof_H 	H 	0.89565	0.51256	0.24747	0.131
Mof_H 	H 	0.90905	0.46593	0.31063	0.134
Mof_O 	O 	0.0237	0.33639	0.16762	-0.204
Mof_H 	H 	0.02938	0.29855	0.19402	0.132
Mof_H 	H 	0.93993	0.49683	0.34169	0.038
Mof_H 	H 	0.98467	0.3143	0.38658	0.065
Mof_O 	O 	0.02332	0.33641	0.42541	-0.216
Mof_H 	H 	0.02902	0.29857	0.43114	0.127
Mof_O 	O 	0.06602	0.20907	0.34913	-0.223
Mof_H 	H 	0.08603	0.23543	0.32938	0.127
Mof_H 	H 	0.86539	0.35232	0.42429	0.07
Mof_H 	H 	0.77281	0.45912	0.3034	0.041
Mof_O 	O 	0.76579	0.3801	0.46838	-0.219
Mof_H 	H 	0.79213	0.35676	0.48869	0.128
Mof_H 	H 	0.86563	0.4281	0.2726	0.061
_end
