data_functionalizedCrystal
_audit_creation_method	'EQeq! by Chris Wilmer'
_symmetry_space_group_name_H-M	'P1'
_symmetry_Int_Tables_number	1
_symmetry_cell_setting	triclinic
loop_
_symmetry_equiv_pos_as_xyz
  x,y,z
_cell_length_a	12.4815
_cell_length_b	12.4815
_cell_length_c	12.4815
_cell_angle_alpha	90
_cell_angle_beta	90
_cell_angle_gamma	90
loop_
_atom_site_label
_atom_site_type_symbol
_atom_site_fract_x
_atom_site_fract_y
_atom_site_fract_z
_atom_site_charge
Mof_C 	C 	0.0488	0.3409	0.0681	-0.271
Mof_N 	N 	0.0742	0.2594	0.0882	-0.272
Mof_C 	C 	0.4512	0.6591	0.5681	-0.199
Mof_N 	N 	0.4258	0.7406	0.5882	-0.267
Mof_C 	C 	0.9512	0.8409	0.4319	-0.128
Mof_N 	N 	0.9258	0.7594	0.4118	-0.275
Mof_C 	C 	0.5488	0.1591	0.9319	-0.188
Mof_N 	N 	0.5742	0.2406	0.9118	-0.265
Mof_C 	C 	0.0681	0.0488	0.3409	-0.27
Mof_N 	N 	0.0882	0.0742	0.2594	-0.271
Mof_C 	C 	0.5681	0.4512	0.6591	-0.198
Mof_N 	N 	0.5882	0.4258	0.7406	-0.266
Mof_C 	C 	0.4319	0.9512	0.8409	-0.127
Mof_N 	N 	0.4118	0.9258	0.7594	-0.274
Mof_C 	C 	0.9319	0.5488	0.1591	-0.188
Mof_N 	N 	0.9118	0.5742	0.2406	-0.265
Mof_C 	C 	0.3409	0.0681	0.0488	-0.27
Mof_N 	N 	0.2594	0.0882	0.0742	-0.271
Mof_C 	C 	0.6591	0.5681	0.4512	-0.198
Mof_N 	N 	0.7406	0.5882	0.4258	-0.266
Mof_C 	C 	0.8409	0.4319	0.9512	-0.127
Mof_N 	N 	0.7594	0.4118	0.9258	-0.274
Mof_C 	C 	0.1591	0.9319	0.5488	-0.188
Mof_N 	N 	0.2406	0.9118	0.5742	-0.265
Mof_C 	C 	0.9512	0.6591	0.9319	-0.12
Mof_N 	N 	0.9258	0.7406	0.9118	-0.269
Mof_C 	C 	0.5488	0.3409	0.4319	-0.207
Mof_N 	N 	0.5742	0.2594	0.4118	-0.268
Mof_C 	C 	0.0488	0.1591	0.5681	-0.261
Mof_N 	N 	0.0742	0.2406	0.5882	-0.265
Mof_C 	C 	0.4512	0.8409	0.0681	-0.196
Mof_N 	N 	0.4258	0.7594	0.0882	-0.274
Mof_C 	C 	0.9319	0.9512	0.6591	-0.12
Mof_N 	N 	0.9118	0.9258	0.7406	-0.269
Mof_C 	C 	0.4319	0.5488	0.3409	-0.207
Mof_N 	N 	0.4118	0.5742	0.2594	-0.268
Mof_C 	C 	0.5681	0.0488	0.1591	-0.261
Mof_N 	N 	0.5882	0.0742	0.2406	-0.265
Mof_C 	C 	0.0681	0.4512	0.8409	-0.196
Mof_N 	N 	0.0882	0.4258	0.7594	-0.274
Mof_C 	C 	0.6591	0.9319	0.9512	-0.12
Mof_N 	N 	0.7406	0.9118	0.9258	-0.269
Mof_C 	C 	0.3409	0.4319	0.5488	-0.207
Mof_N 	N 	0.2594	0.4118	0.5742	-0.268
Mof_C 	C 	0.1591	0.5681	0.0488	-0.261
Mof_N 	N 	0.2406	0.5882	0.0742	-0.265
Mof_C 	C 	0.8409	0.0681	0.4512	-0.196
Mof_N 	N 	0.7594	0.0882	0.4258	-0.274
Mof_C 	C 	0.0262	0.0262	0.0262	-0.726
Mof_Zn	Zn	0.10819	0.10819	0.10819	1.176
Mof_C 	C 	0.4738	0.9738	0.5262	-0.195
Mof_Zn	Zn	0.39181	0.89181	0.60819	1.17
Mof_C 	C 	0.9738	0.5262	0.4738	-0.195
Mof_Zn	Zn	0.89181	0.60819	0.39181	1.17
Mof_C 	C 	0.5262	0.4738	0.9738	-0.195
Mof_Zn	Zn	0.60819	0.39181	0.89181	1.17
Mof_C 	C 	0.9738	0.9738	0.9738	0.062
Mof_Zn	Zn	0.89181	0.89181	0.89181	1.166
Mof_C 	C 	0.5262	0.0262	0.4738	-0.466
Mof_Zn	Zn	0.60819	0.10819	0.39181	1.173
Mof_C 	C 	0.0262	0.4738	0.5262	-0.466
Mof_Zn	Zn	0.10819	0.39181	0.60819	1.173
Mof_C 	C 	0.4738	0.5262	0.0262	-0.466
Mof_Zn	Zn	0.39181	0.60819	0.10819	1.173
Mof_Zn	Zn	0.5	0.5	0.5	1.142
Mof_Zn	Zn	-0	0.5	-0	1.099
Mof_Zn	Zn	0.5	0	-0	1.099
Mof_Zn	Zn	1.8747e-33	0	0.5	1.099
_end
