# CIF file generated by openbabel 3.1.0, see https://openbabel.org
data_I
_chemical_name_common 'image0'
_cell_length_a 24.038
_cell_length_b 23.217
_cell_length_c 15.263
_cell_angle_alpha 90
_cell_angle_beta 115.73
_cell_angle_gamma 90
_space_group_name_H-M_alt 'P 1'
_space_group_name_Hall 'P 1'
loop_
    _symmetry_equiv_pos_as_xyz
    x,y,z
loop_
    _atom_site_label
    _atom_site_type_symbol
    _atom_site_fract_x
    _atom_site_fract_y
    _atom_site_fract_z
    _atom_site_occupancy
    C1       C        0.73870    0.38020    0.28270    1.000
    C2       C        0.73270    0.41950    0.36020    1.000
    C3       C        0.76900    0.46760    0.39300    1.000
    H1       H        0.79700    0.47780    0.36670    1.000
    C4       C        0.76460    0.50170    0.46530    1.000
    C5       C        0.72110    0.48720    0.50160    1.000
    H2       H        0.71710    0.51110    0.54920    1.000
    C6       C        0.68520    0.43960    0.46930    1.000
    H3       H        0.65690    0.43010    0.49540    1.000
    C7       C        0.68930    0.40460    0.39810    1.000
    H4       H        0.66380    0.37150    0.37500    1.000
    C8       C        0.80120    0.55640    0.49820    1.000
    C9       C        0.85330    0.73920    0.83020    1.000
    C10      C        0.90620    0.76620    0.91700    1.000
    C11      C        0.96450    0.74140    0.95250    1.000
    H5       H        0.97000    0.70610    0.92570    1.000
    C12      C        0.01460    0.76770    0.02660    1.000
    C13      C        0.00480    0.81850    0.06710    1.000
    H6       H        0.03890    0.83740    0.11680    1.000
    C14      C        0.94630    0.84170    0.03640    1.000
    H7       H        0.94010    0.87500    0.06730    1.000
    C15      C        0.89690    0.81600    0.96020    1.000
    H8       H        0.85670    0.83220    0.93740    1.000
    C16      C        0.07870    0.74320    0.05570    1.000
    C17      C        0.61310    0.76200    0.36540    1.000
    C18      C        0.55490    0.73420    0.30330    1.000
    C19      C        0.55620    0.67450    0.25390    1.000
    H9       H        0.59670    0.66170    0.25690    1.000
    C20      C        0.50300    0.65050    0.18150    1.000
    H10      H        0.50540    0.61330    0.15740    1.000
    C21      C        0.55020    0.67750    0.35450    1.000
    H11      H        0.58480    0.66480    0.41700    1.000
    C22      C        0.95220    0.58680    0.81060    1.000
    H12      H        0.96550    0.62530    0.81120    1.000
    C23      C        0.99550    0.54500    0.86410    1.000
    H13      H        0.03780    0.55500    0.89900    1.000
    C24      C        0.97610    0.48830    0.86600    1.000
    C25      C        0.91570    0.47590    0.81490    1.000
    H14      H        0.90080    0.43810    0.81580    1.000
    C26      C        0.87600    0.51870    0.76140    1.000
    H15      H        0.83390    0.50860    0.72370    1.000
    C27      C        0.02090    0.44570    0.93190    1.000
    H16      H        0.05240    0.46570    0.98920    1.000
    H17      H        0.99910    0.41780    0.95510    1.000
    C28      C        0.05250    0.41360    0.87760    1.000
    H18      H        0.02120    0.39120    0.82320    1.000
    H19      H        0.07130    0.44180    0.84990    1.000
    C29      C        0.10280    0.37250    0.94660    1.000
    H20      H        0.08430    0.34440    0.97520    1.000
    H21      H        0.13470    0.39470    0.00030    1.000
    C30      C        0.13120    0.34170    0.89040    1.000
    C31      C        0.17760    0.36790    0.86800    1.000
    H22      H        0.19240    0.40530    0.89210    1.000
    C32      C        0.20130    0.33920    0.81160    1.000
    H23      H        0.23330    0.35700    0.80050    1.000
    C33      C        0.13570    0.26170    0.79270    1.000
    H24      H        0.12020    0.22480    0.76650    1.000
    C34      C        0.11170    0.28850    0.85150    1.000
    H25      H        0.08120    0.26920    0.86440    1.000
    Co1      Co       0.82369    0.63849    0.68548    1.000
    Co2      Co       0.71896    0.73913    0.68669    1.000
    Co3      Co       0.85174    0.65537    0.48761    1.000
    N1       N        0.89230    0.57390    0.75840    1.000
    N2       N        0.18020    0.28610    0.77130    1.000
    O1       O        0.74970    0.68960    0.59950    1.000
    O2       O        0.77450    0.69440    0.40690    1.000
    O3       O        0.76910    0.40400    0.23990    1.000
    O4       O        0.71400    0.33330    0.26750    1.000
    O5       O        0.79100    0.58670    0.56030    1.000
    O6       O        0.83760    0.57180    0.46190    1.000
    O7       O        0.86500    0.69080    0.80370    1.000
    O8       O        0.80450    0.76670    0.79050    1.000
    O9       O        0.12380    0.77690    0.08970    1.000
    O10      O        0.08090    0.68960    0.03950    1.000
    O11      O        0.65800    0.73020    0.40930    1.000
    O12      O        0.61391    0.81796    0.37220    1.000
    C35      C        0.23870    0.88020    0.28270    1.000
    C36      C        0.23270    0.91950    0.36020    1.000
    C37      C        0.26900    0.96760    0.39300    1.000
    H26      H        0.29700    0.97780    0.36670    1.000
    C38      C        0.26460    0.00170    0.46530    1.000
    C39      C        0.22110    0.98720    0.50160    1.000
    H27      H        0.21710    0.01110    0.54920    1.000
    C40      C        0.18520    0.93960    0.46930    1.000
    H28      H        0.15690    0.93010    0.49540    1.000
    C41      C        0.18930    0.90460    0.39810    1.000
    H29      H        0.16380    0.87150    0.37500    1.000
    C42      C        0.30120    0.05640    0.49820    1.000
    C43      C        0.35330    0.23920    0.83020    1.000
    C44      C        0.40620    0.26620    0.91700    1.000
    C45      C        0.46450    0.24140    0.95250    1.000
    H30      H        0.47000    0.20610    0.92570    1.000
    C46      C        0.51460    0.26770    0.02660    1.000
    C47      C        0.50480    0.31850    0.06710    1.000
    H31      H        0.53890    0.33740    0.11680    1.000
    C48      C        0.44630    0.34170    0.03640    1.000
    H32      H        0.44010    0.37500    0.06730    1.000
    C49      C        0.39690    0.31600    0.96020    1.000
    H33      H        0.35670    0.33220    0.93740    1.000
    C50      C        0.57870    0.24320    0.05570    1.000
    C51      C        0.11310    0.26200    0.36540    1.000
    C52      C        0.05490    0.23420    0.30330    1.000
    C53      C        0.05620    0.17450    0.25390    1.000
    H34      H        0.09670    0.16170    0.25690    1.000
    C54      C        0.00300    0.15050    0.18150    1.000
    H35      H        0.00540    0.11330    0.15740    1.000
    C55      C        0.05020    0.17750    0.35450    1.000
    H36      H        0.08480    0.16480    0.41700    1.000
    C56      C        0.45220    0.08680    0.81060    1.000
    H37      H        0.46550    0.12530    0.81120    1.000
    C57      C        0.49550    0.04500    0.86410    1.000
    H38      H        0.53780    0.05500    0.89900    1.000
    C58      C        0.47610    0.98830    0.86600    1.000
    C59      C        0.41570    0.97590    0.81490    1.000
    H39      H        0.40080    0.93810    0.81580    1.000
    C60      C        0.37600    0.01870    0.76140    1.000
    H40      H        0.33390    0.00860    0.72370    1.000
    C61      C        0.52090    0.94570    0.93190    1.000
    H41      H        0.55240    0.96570    0.98920    1.000
    H42      H        0.49910    0.91780    0.95510    1.000
    C62      C        0.55250    0.91360    0.87760    1.000
    H43      H        0.52120    0.89120    0.82320    1.000
    H44      H        0.57130    0.94180    0.84990    1.000
    C63      C        0.60280    0.87250    0.94660    1.000
    H45      H        0.58430    0.84440    0.97520    1.000
    H46      H        0.63470    0.89470    0.00030    1.000
    C64      C        0.63120    0.84170    0.89040    1.000
    C65      C        0.67760    0.86790    0.86800    1.000
    H47      H        0.69240    0.90530    0.89210    1.000
    C66      C        0.70130    0.83920    0.81160    1.000
    H48      H        0.73330    0.85700    0.80050    1.000
    C67      C        0.63570    0.76170    0.79270    1.000
    H49      H        0.62020    0.72480    0.76650    1.000
    C68      C        0.61170    0.78850    0.85150    1.000
    H50      H        0.58120    0.76920    0.86440    1.000
    Co4      Co       0.32369    0.13849    0.68548    1.000
    Co5      Co       0.21896    0.23913    0.68669    1.000
    Co6      Co       0.35174    0.15537    0.48761    1.000
    N3       N        0.39230    0.07390    0.75840    1.000
    N4       N        0.68020    0.78610    0.77130    1.000
    O13      O        0.24970    0.18960    0.59950    1.000
    O14      O        0.27450    0.19440    0.40690    1.000
    O15      O        0.26910    0.90400    0.23990    1.000
    O16      O        0.21400    0.83330    0.26750    1.000
    O17      O        0.29100    0.08670    0.56030    1.000
    O18      O        0.33760    0.07180    0.46190    1.000
    O19      O        0.36500    0.19080    0.80370    1.000
    O20      O        0.30450    0.26670    0.79050    1.000
    O21      O        0.62380    0.27690    0.08970    1.000
    O22      O        0.58090    0.18960    0.03950    1.000
    O23      O        0.15800    0.23020    0.40930    1.000
    O24      O        0.11391    0.31796    0.37220    1.000
    C69      C        0.26130    0.38020    0.21730    1.000
    C70      C        0.26730    0.41950    0.13980    1.000
    C71      C        0.23100    0.46760    0.10700    1.000
    H51      H        0.20300    0.47780    0.13330    1.000
    C72      C        0.23540    0.50170    0.03470    1.000
    C73      C        0.27890    0.48720    0.99840    1.000
    H52      H        0.28290    0.51110    0.95080    1.000
    C74      C        0.31480    0.43960    0.03070    1.000
    H53      H        0.34310    0.43010    0.00460    1.000
    C75      C        0.31070    0.40460    0.10190    1.000
    H54      H        0.33620    0.37150    0.12500    1.000
    C76      C        0.19880    0.55640    0.00180    1.000
    C77      C        0.14670    0.73920    0.66980    1.000
    C78      C        0.09380    0.76620    0.58300    1.000
    C79      C        0.03550    0.74140    0.54750    1.000
    H55      H        0.03000    0.70610    0.57430    1.000
    C80      C        0.98540    0.76770    0.47340    1.000
    C81      C        0.99520    0.81850    0.43290    1.000
    H56      H        0.96110    0.83740    0.38320    1.000
    C82      C        0.05370    0.84170    0.46360    1.000
    H57      H        0.05990    0.87500    0.43270    1.000
    C83      C        0.10310    0.81600    0.53980    1.000
    H58      H        0.14330    0.83220    0.56260    1.000
    C84      C        0.92130    0.74320    0.44430    1.000
    C85      C        0.38690    0.76200    0.13460    1.000
    C86      C        0.44510    0.73420    0.19670    1.000
    C87      C        0.44380    0.67450    0.24610    1.000
    H59      H        0.40330    0.66170    0.24310    1.000
    C88      C        0.49700    0.65050    0.31850    1.000
    H60      H        0.49460    0.61330    0.34260    1.000
    C89      C        0.44980    0.67750    0.14550    1.000
    H61      H        0.41520    0.66480    0.08300    1.000
    C90      C        0.04780    0.58680    0.68940    1.000
    H62      H        0.03450    0.62530    0.68880    1.000
    C91      C        0.00450    0.54500    0.63590    1.000
    H63      H        0.96220    0.55500    0.60100    1.000
    C92      C        0.02390    0.48830    0.63400    1.000
    C93      C        0.08430    0.47590    0.68510    1.000
    H64      H        0.09920    0.43810    0.68420    1.000
    C94      C        0.12400    0.51870    0.73860    1.000
    H65      H        0.16610    0.50860    0.77630    1.000
    C95      C        0.97910    0.44570    0.56810    1.000
    H66      H        0.94760    0.46570    0.51080    1.000
    H67      H        0.00090    0.41780    0.54490    1.000
    C96      C        0.94750    0.41360    0.62240    1.000
    H68      H        0.97880    0.39120    0.67680    1.000
    H69      H        0.92870    0.44180    0.65010    1.000
    C97      C        0.89720    0.37250    0.55340    1.000
    H70      H        0.91570    0.34440    0.52480    1.000
    H71      H        0.86530    0.39470    0.49970    1.000
    C98      C        0.86880    0.34170    0.60960    1.000
    C99      C        0.82240    0.36790    0.63200    1.000
    H72      H        0.80760    0.40530    0.60790    1.000
    C100     C        0.79870    0.33920    0.68840    1.000
    H73      H        0.76670    0.35700    0.69950    1.000
    C101     C        0.86430    0.26170    0.70730    1.000
    H74      H        0.87980    0.22480    0.73350    1.000
    C102     C        0.88830    0.28850    0.64850    1.000
    H75      H        0.91880    0.26920    0.63560    1.000
    Co7      Co       0.17631    0.63849    0.81452    1.000
    Co8      Co       0.28104    0.73913    0.81331    1.000
    Co9      Co       0.14826    0.65537    0.01239    1.000
    N5       N        0.10770    0.57390    0.74160    1.000
    N6       N        0.81980    0.28610    0.72870    1.000
    O25      O        0.25030    0.68960    0.90050    1.000
    O26      O        0.22550    0.69440    0.09310    1.000
    O27      O        0.23090    0.40400    0.26010    1.000
    O28      O        0.28600    0.33330    0.23250    1.000
    O29      O        0.20900    0.58670    0.93970    1.000
    O30      O        0.16240    0.57180    0.03810    1.000
    O31      O        0.13500    0.69080    0.69630    1.000
    O32      O        0.19550    0.76670    0.70950    1.000
    O33      O        0.87620    0.77690    0.41030    1.000
    O34      O        0.91910    0.68960    0.46050    1.000
    O35      O        0.34200    0.73020    0.09070    1.000
    O36      O        0.38609    0.81796    0.12780    1.000
    C103     C        0.76130    0.88020    0.21730    1.000
    C104     C        0.76730    0.91950    0.13980    1.000
    C105     C        0.73100    0.96760    0.10700    1.000
    H76      H        0.70300    0.97780    0.13330    1.000
    C106     C        0.73540    0.00170    0.03470    1.000
    C107     C        0.77890    0.98720    0.99840    1.000
    H77      H        0.78290    0.01110    0.95080    1.000
    C108     C        0.81480    0.93960    0.03070    1.000
    H78      H        0.84310    0.93010    0.00460    1.000
    C109     C        0.81070    0.90460    0.10190    1.000
    H79      H        0.83620    0.87150    0.12500    1.000
    C110     C        0.69880    0.05640    0.00180    1.000
    C111     C        0.64670    0.23920    0.66980    1.000
    C112     C        0.59380    0.26620    0.58300    1.000
    C113     C        0.53550    0.24140    0.54750    1.000
    H80      H        0.53000    0.20610    0.57430    1.000
    C114     C        0.48540    0.26770    0.47340    1.000
    C115     C        0.49520    0.31850    0.43290    1.000
    H81      H        0.46110    0.33740    0.38320    1.000
    C116     C        0.55370    0.34170    0.46360    1.000
    H82      H        0.55990    0.37500    0.43270    1.000
    C117     C        0.60310    0.31600    0.53980    1.000
    H83      H        0.64330    0.33220    0.56260    1.000
    C118     C        0.42130    0.24320    0.44430    1.000
    C119     C        0.88690    0.26200    0.13460    1.000
    C120     C        0.94510    0.23420    0.19670    1.000
    C121     C        0.94380    0.17450    0.24610    1.000
    H84      H        0.90330    0.16170    0.24310    1.000
    C122     C        0.99700    0.15050    0.31850    1.000
    H85      H        0.99460    0.11330    0.34260    1.000
    C123     C        0.94980    0.17750    0.14550    1.000
    H86      H        0.91520    0.16480    0.08300    1.000
    C124     C        0.54780    0.08680    0.68940    1.000
    H87      H        0.53450    0.12530    0.68880    1.000
    C125     C        0.50450    0.04500    0.63590    1.000
    H88      H        0.46220    0.05500    0.60100    1.000
    C126     C        0.52390    0.98830    0.63400    1.000
    C127     C        0.58430    0.97590    0.68510    1.000
    H89      H        0.59920    0.93810    0.68420    1.000
    C128     C        0.62400    0.01870    0.73860    1.000
    H90      H        0.66610    0.00860    0.77630    1.000
    C129     C        0.47910    0.94570    0.56810    1.000
    H91      H        0.44760    0.96570    0.51080    1.000
    H92      H        0.50090    0.91780    0.54490    1.000
    C130     C        0.44750    0.91360    0.62240    1.000
    H93      H        0.47880    0.89120    0.67680    1.000
    H94      H        0.42870    0.94180    0.65010    1.000
    C131     C        0.39720    0.87250    0.55340    1.000
    H95      H        0.41570    0.84440    0.52480    1.000
    H96      H        0.36530    0.89470    0.49970    1.000
    C132     C        0.36880    0.84170    0.60960    1.000
    C133     C        0.32240    0.86790    0.63200    1.000
    H97      H        0.30760    0.90530    0.60790    1.000
    C134     C        0.29870    0.83920    0.68840    1.000
    H98      H        0.26670    0.85700    0.69950    1.000
    C135     C        0.36430    0.76170    0.70730    1.000
    H99      H        0.37980    0.72480    0.73350    1.000
    C136     C        0.38830    0.78850    0.64850    1.000
    H100     H        0.41880    0.76920    0.63560    1.000
    Co10     Co       0.67631    0.13849    0.81452    1.000
    Co11     Co       0.78104    0.23913    0.81331    1.000
    Co12     Co       0.64826    0.15537    0.01239    1.000
    N7       N        0.60770    0.07390    0.74160    1.000
    N8       N        0.31980    0.78610    0.72870    1.000
    O37      O        0.75030    0.18960    0.90050    1.000
    O38      O        0.72550    0.19440    0.09310    1.000
    O39      O        0.73090    0.90400    0.26010    1.000
    O40      O        0.78600    0.83330    0.23250    1.000
    O41      O        0.70900    0.08670    0.93970    1.000
    O42      O        0.66240    0.07180    0.03810    1.000
    O43      O        0.63500    0.19080    0.69630    1.000
    O44      O        0.69550    0.26670    0.70950    1.000
    O45      O        0.37620    0.27690    0.41030    1.000
    O46      O        0.41910    0.18960    0.46050    1.000
    O47      O        0.84200    0.23020    0.09070    1.000
    O48      O        0.88609    0.31796    0.12780    1.000
    C137     C        0.26130    0.61980    0.71730    1.000
    C138     C        0.26730    0.58050    0.63980    1.000
    C139     C        0.23100    0.53240    0.60700    1.000
    H101     H        0.20300    0.52220    0.63330    1.000
    C140     C        0.23540    0.49830    0.53470    1.000
    C141     C        0.27890    0.51280    0.49840    1.000
    H102     H        0.28290    0.48890    0.45080    1.000
    C142     C        0.31480    0.56040    0.53070    1.000
    H103     H        0.34310    0.56990    0.50460    1.000
    C143     C        0.31070    0.59540    0.60190    1.000
    H104     H        0.33620    0.62850    0.62500    1.000
    C144     C        0.19880    0.44360    0.50180    1.000
    C145     C        0.14670    0.26080    0.16980    1.000
    C146     C        0.09380    0.23380    0.08300    1.000
    C147     C        0.03550    0.25860    0.04750    1.000
    H105     H        0.03000    0.29390    0.07430    1.000
    C148     C        0.98540    0.23230    0.97340    1.000
    C149     C        0.99520    0.18150    0.93290    1.000
    H106     H        0.96110    0.16260    0.88320    1.000
    C150     C        0.05370    0.15830    0.96360    1.000
    H107     H        0.05990    0.12500    0.93270    1.000
    C151     C        0.10310    0.18400    0.03980    1.000
    H108     H        0.14330    0.16780    0.06260    1.000
    C152     C        0.92130    0.25680    0.94430    1.000
    C153     C        0.38690    0.23800    0.63460    1.000
    C154     C        0.44510    0.26580    0.69670    1.000
    C155     C        0.44380    0.32550    0.74610    1.000
    H109     H        0.40330    0.33830    0.74310    1.000
    C156     C        0.49700    0.34950    0.81850    1.000
    H110     H        0.49460    0.38670    0.84260    1.000
    C157     C        0.44980    0.32250    0.64550    1.000
    H111     H        0.41520    0.33520    0.58300    1.000
    C158     C        0.04780    0.41320    0.18940    1.000
    H112     H        0.03450    0.37470    0.18880    1.000
    C159     C        0.00450    0.45500    0.13590    1.000
    H113     H        0.96220    0.44500    0.10100    1.000
    C160     C        0.02390    0.51170    0.13400    1.000
    C161     C        0.08430    0.52410    0.18510    1.000
    H114     H        0.09920    0.56190    0.18420    1.000
    C162     C        0.12400    0.48130    0.23860    1.000
    H115     H        0.16610    0.49140    0.27630    1.000
    C163     C        0.97910    0.55430    0.06810    1.000
    H116     H        0.94760    0.53430    0.01080    1.000
    H117     H        0.00090    0.58220    0.04490    1.000
    C164     C        0.94750    0.58640    0.12240    1.000
    H118     H        0.97880    0.60880    0.17680    1.000
    H119     H        0.92870    0.55820    0.15010    1.000
    C165     C        0.89720    0.62750    0.05340    1.000
    H120     H        0.91570    0.65560    0.02480    1.000
    H121     H        0.86530    0.60530    0.99970    1.000
    C166     C        0.86880    0.65830    0.10960    1.000
    C167     C        0.82240    0.63210    0.13200    1.000
    H122     H        0.80760    0.59470    0.10790    1.000
    C168     C        0.79870    0.66080    0.18840    1.000
    H123     H        0.76670    0.64300    0.19950    1.000
    C169     C        0.86430    0.73830    0.20730    1.000
    H124     H        0.87980    0.77520    0.23350    1.000
    C170     C        0.88830    0.71150    0.14850    1.000
    H125     H        0.91880    0.73080    0.13560    1.000
    Co13     Co       0.17631    0.36151    0.31452    1.000
    Co14     Co       0.28104    0.26087    0.31331    1.000
    Co15     Co       0.14826    0.34463    0.51239    1.000
    N9       N        0.10770    0.42610    0.24160    1.000
    N10      N        0.81980    0.71390    0.22870    1.000
    O49      O        0.25030    0.31040    0.40050    1.000
    O50      O        0.22550    0.30560    0.59310    1.000
    O51      O        0.23090    0.59600    0.76010    1.000
    O52      O        0.28600    0.66670    0.73250    1.000
    O53      O        0.20900    0.41330    0.43970    1.000
    O54      O        0.16240    0.42820    0.53810    1.000
    O55      O        0.13500    0.30920    0.19630    1.000
    O56      O        0.19550    0.23330    0.20950    1.000
    O57      O        0.87620    0.22310    0.91030    1.000
    O58      O        0.91910    0.31040    0.96050    1.000
    O59      O        0.34200    0.26980    0.59070    1.000
    O60      O        0.38609    0.18204    0.62780    1.000
    C171     C        0.76130    0.11980    0.71730    1.000
    C172     C        0.76730    0.08050    0.63980    1.000
    C173     C        0.73100    0.03240    0.60700    1.000
    H126     H        0.70300    0.02220    0.63330    1.000
    C174     C        0.73540    0.99830    0.53470    1.000
    C175     C        0.77890    0.01280    0.49840    1.000
    H127     H        0.78290    0.98890    0.45080    1.000
    C176     C        0.81480    0.06040    0.53070    1.000
    H128     H        0.84310    0.06990    0.50460    1.000
    C177     C        0.81070    0.09540    0.60190    1.000
    H129     H        0.83620    0.12850    0.62500    1.000
    C178     C        0.69880    0.94360    0.50180    1.000
    C179     C        0.64670    0.76080    0.16980    1.000
    C180     C        0.59380    0.73380    0.08300    1.000
    C181     C        0.53550    0.75860    0.04750    1.000
    H130     H        0.53000    0.79390    0.07430    1.000
    C182     C        0.48540    0.73230    0.97340    1.000
    C183     C        0.49520    0.68150    0.93290    1.000
    H131     H        0.46110    0.66260    0.88320    1.000
    C184     C        0.55370    0.65830    0.96360    1.000
    H132     H        0.55990    0.62500    0.93270    1.000
    C185     C        0.60310    0.68400    0.03980    1.000
    H133     H        0.64330    0.66780    0.06260    1.000
    C186     C        0.42130    0.75680    0.94430    1.000
    C187     C        0.88690    0.73800    0.63460    1.000
    C188     C        0.94510    0.76580    0.69670    1.000
    C189     C        0.94380    0.82550    0.74610    1.000
    H134     H        0.90330    0.83830    0.74310    1.000
    C190     C        0.99700    0.84950    0.81850    1.000
    H135     H        0.99460    0.88670    0.84260    1.000
    C191     C        0.94980    0.82250    0.64550    1.000
    H136     H        0.91520    0.83520    0.58300    1.000
    C192     C        0.54780    0.91320    0.18940    1.000
    H137     H        0.53450    0.87470    0.18880    1.000
    C193     C        0.50450    0.95500    0.13590    1.000
    H138     H        0.46220    0.94500    0.10100    1.000
    C194     C        0.52390    0.01170    0.13400    1.000
    C195     C        0.58430    0.02410    0.18510    1.000
    H139     H        0.59920    0.06190    0.18420    1.000
    C196     C        0.62400    0.98130    0.23860    1.000
    H140     H        0.66610    0.99140    0.27630    1.000
    C197     C        0.47910    0.05430    0.06810    1.000
    H141     H        0.44760    0.03430    0.01080    1.000
    H142     H        0.50090    0.08220    0.04490    1.000
    C198     C        0.44750    0.08640    0.12240    1.000
    H143     H        0.47880    0.10880    0.17680    1.000
    H144     H        0.42870    0.05820    0.15010    1.000
    C199     C        0.39720    0.12750    0.05340    1.000
    H145     H        0.41570    0.15560    0.02480    1.000
    H146     H        0.36530    0.10530    0.99970    1.000
    C200     C        0.36880    0.15830    0.10960    1.000
    C201     C        0.32240    0.13210    0.13200    1.000
    H147     H        0.30760    0.09470    0.10790    1.000
    C202     C        0.29870    0.16080    0.18840    1.000
    H148     H        0.26670    0.14300    0.19950    1.000
    C203     C        0.36430    0.23830    0.20730    1.000
    H149     H        0.37980    0.27520    0.23350    1.000
    C204     C        0.38830    0.21150    0.14850    1.000
    H150     H        0.41880    0.23080    0.13560    1.000
    Co16     Co       0.67631    0.86151    0.31452    1.000
    Co17     Co       0.78104    0.76087    0.31331    1.000
    Co18     Co       0.64826    0.84463    0.51239    1.000
    N11      N        0.60770    0.92610    0.24160    1.000
    N12      N        0.31980    0.21390    0.22870    1.000
    O61      O        0.75030    0.81040    0.40050    1.000
    O62      O        0.72550    0.80560    0.59310    1.000
    O63      O        0.73090    0.09600    0.76010    1.000
    O64      O        0.78600    0.16670    0.73250    1.000
    O65      O        0.70900    0.91330    0.43970    1.000
    O66      O        0.66240    0.92820    0.53810    1.000
    O67      O        0.63500    0.80920    0.19630    1.000
    O68      O        0.69550    0.73330    0.20950    1.000
    O69      O        0.37620    0.72310    0.91030    1.000
    O70      O        0.41910    0.81040    0.96050    1.000
    O71      O        0.84200    0.76980    0.59070    1.000
    O72      O        0.88609    0.68204    0.62780    1.000
    C205     C        0.73870    0.61980    0.78270    1.000
    C206     C        0.73270    0.58050    0.86020    1.000
    C207     C        0.76900    0.53240    0.89300    1.000
    H151     H        0.79700    0.52220    0.86670    1.000
    C208     C        0.76460    0.49830    0.96530    1.000
    C209     C        0.72110    0.51280    0.00160    1.000
    H152     H        0.71710    0.48890    0.04920    1.000
    C210     C        0.68520    0.56040    0.96930    1.000
    H153     H        0.65690    0.56990    0.99540    1.000
    C211     C        0.68930    0.59540    0.89810    1.000
    H154     H        0.66380    0.62850    0.87500    1.000
    C212     C        0.80120    0.44360    0.99820    1.000
    C213     C        0.85330    0.26080    0.33020    1.000
    C214     C        0.90620    0.23380    0.41700    1.000
    C215     C        0.96450    0.25860    0.45250    1.000
    H155     H        0.97000    0.29390    0.42570    1.000
    C216     C        0.01460    0.23230    0.52660    1.000
    C217     C        0.00480    0.18150    0.56710    1.000
    H156     H        0.03890    0.16260    0.61680    1.000
    C218     C        0.94630    0.15830    0.53640    1.000
    H157     H        0.94010    0.12500    0.56730    1.000
    C219     C        0.89690    0.18400    0.46020    1.000
    H158     H        0.85670    0.16780    0.43740    1.000
    C220     C        0.07870    0.25680    0.55570    1.000
    C221     C        0.61310    0.23800    0.86540    1.000
    C222     C        0.55490    0.26580    0.80330    1.000
    C223     C        0.55620    0.32550    0.75390    1.000
    H159     H        0.59670    0.33830    0.75690    1.000
    C224     C        0.50300    0.34950    0.68150    1.000
    H160     H        0.50540    0.38670    0.65740    1.000
    C225     C        0.55020    0.32250    0.85450    1.000
    H161     H        0.58480    0.33520    0.91700    1.000
    C226     C        0.95220    0.41320    0.31060    1.000
    H162     H        0.96550    0.37470    0.31120    1.000
    C227     C        0.99550    0.45500    0.36410    1.000
    H163     H        0.03780    0.44500    0.39900    1.000
    C228     C        0.97610    0.51170    0.36600    1.000
    C229     C        0.91570    0.52410    0.31490    1.000
    H164     H        0.90080    0.56190    0.31580    1.000
    C230     C        0.87600    0.48130    0.26140    1.000
    H165     H        0.83390    0.49140    0.22370    1.000
    C231     C        0.02090    0.55430    0.43190    1.000
    H166     H        0.05240    0.53430    0.48920    1.000
    H167     H        0.99910    0.58220    0.45510    1.000
    C232     C        0.05250    0.58640    0.37760    1.000
    H168     H        0.02120    0.60880    0.32320    1.000
    H169     H        0.07130    0.55820    0.34990    1.000
    C233     C        0.10280    0.62750    0.44660    1.000
    H170     H        0.08430    0.65560    0.47520    1.000
    H171     H        0.13470    0.60530    0.50030    1.000
    C234     C        0.13120    0.65830    0.39040    1.000
    C235     C        0.17760    0.63210    0.36800    1.000
    H172     H        0.19240    0.59470    0.39210    1.000
    C236     C        0.20130    0.66080    0.31160    1.000
    H173     H        0.23330    0.64300    0.30050    1.000
    C237     C        0.13570    0.73830    0.29270    1.000
    H174     H        0.12020    0.77520    0.26650    1.000
    C238     C        0.11170    0.71150    0.35150    1.000
    H175     H        0.08120    0.73080    0.36440    1.000
    Co19     Co       0.82369    0.36151    0.18548    1.000
    Co20     Co       0.71896    0.26087    0.18669    1.000
    Co21     Co       0.85174    0.34463    0.98761    1.000
    N13      N        0.89230    0.42610    0.25840    1.000
    N14      N        0.18020    0.71390    0.27130    1.000
    O73      O        0.74970    0.31040    0.09950    1.000
    O74      O        0.77450    0.30560    0.90690    1.000
    O75      O        0.76910    0.59600    0.73990    1.000
    O76      O        0.71400    0.66670    0.76750    1.000
    O77      O        0.79100    0.41330    0.06030    1.000
    O78      O        0.83760    0.42820    0.96190    1.000
    O79      O        0.86500    0.30920    0.30370    1.000
    O80      O        0.80450    0.23330    0.29050    1.000
    O81      O        0.12380    0.22310    0.58970    1.000
    O82      O        0.08090    0.31040    0.53950    1.000
    O83      O        0.65800    0.26980    0.90930    1.000
    O84      O        0.61391    0.18204    0.87220    1.000
    C239     C        0.23870    0.11980    0.78270    1.000
    C240     C        0.23270    0.08050    0.86020    1.000
    C241     C        0.26900    0.03240    0.89300    1.000
    H176     H        0.29700    0.02220    0.86670    1.000
    C242     C        0.26460    0.99830    0.96530    1.000
    C243     C        0.22110    0.01280    0.00160    1.000
    H177     H        0.21710    0.98890    0.04920    1.000
    C244     C        0.18520    0.06040    0.96930    1.000
    H178     H        0.15690    0.06990    0.99540    1.000
    C245     C        0.18930    0.09540    0.89810    1.000
    H179     H        0.16380    0.12850    0.87500    1.000
    C246     C        0.30120    0.94360    0.99820    1.000
    C247     C        0.35330    0.76080    0.33020    1.000
    C248     C        0.40620    0.73380    0.41700    1.000
    C249     C        0.46450    0.75860    0.45250    1.000
    H180     H        0.47000    0.79390    0.42570    1.000
    C250     C        0.51460    0.73230    0.52660    1.000
    C251     C        0.50480    0.68150    0.56710    1.000
    H181     H        0.53890    0.66260    0.61680    1.000
    C252     C        0.44630    0.65830    0.53640    1.000
    H182     H        0.44010    0.62500    0.56730    1.000
    C253     C        0.39690    0.68400    0.46020    1.000
    H183     H        0.35670    0.66780    0.43740    1.000
    C254     C        0.57870    0.75680    0.55570    1.000
    C255     C        0.11310    0.73800    0.86540    1.000
    C256     C        0.05490    0.76580    0.80330    1.000
    C257     C        0.05620    0.82550    0.75390    1.000
    H184     H        0.09670    0.83830    0.75690    1.000
    C258     C        0.00300    0.84950    0.68150    1.000
    H185     H        0.00540    0.88670    0.65740    1.000
    C259     C        0.05020    0.82250    0.85450    1.000
    H186     H        0.08480    0.83520    0.91700    1.000
    C260     C        0.45220    0.91320    0.31060    1.000
    H187     H        0.46550    0.87470    0.31120    1.000
    C261     C        0.49550    0.95500    0.36410    1.000
    H188     H        0.53780    0.94500    0.39900    1.000
    C262     C        0.47610    0.01170    0.36600    1.000
    C263     C        0.41570    0.02410    0.31490    1.000
    H189     H        0.40080    0.06190    0.31580    1.000
    C264     C        0.37600    0.98130    0.26140    1.000
    H190     H        0.33390    0.99140    0.22370    1.000
    C265     C        0.52090    0.05430    0.43190    1.000
    H191     H        0.55240    0.03430    0.48920    1.000
    H192     H        0.49910    0.08220    0.45510    1.000
    C266     C        0.55250    0.08640    0.37760    1.000
    H193     H        0.52120    0.10880    0.32320    1.000
    H194     H        0.57130    0.05820    0.34990    1.000
    C267     C        0.60280    0.12750    0.44660    1.000
    H195     H        0.58430    0.15560    0.47520    1.000
    H196     H        0.63470    0.10530    0.50030    1.000
    C268     C        0.63120    0.15830    0.39040    1.000
    C269     C        0.67760    0.13210    0.36800    1.000
    H197     H        0.69240    0.09470    0.39210    1.000
    C270     C        0.70130    0.16080    0.31160    1.000
    H198     H        0.73330    0.14300    0.30050    1.000
    C271     C        0.63570    0.23830    0.29270    1.000
    H199     H        0.62020    0.27520    0.26650    1.000
    C272     C        0.61170    0.21150    0.35150    1.000
    H200     H        0.58120    0.23080    0.36440    1.000
    Co22     Co       0.32369    0.86151    0.18548    1.000
    Co23     Co       0.21896    0.76087    0.18669    1.000
    Co24     Co       0.35174    0.84463    0.98761    1.000
    N15      N        0.39230    0.92610    0.25840    1.000
    N16      N        0.68020    0.21390    0.27130    1.000
    O85      O        0.24970    0.81040    0.09950    1.000
    O86      O        0.27450    0.80560    0.90690    1.000
    O87      O        0.26910    0.09600    0.73990    1.000
    O88      O        0.21400    0.16670    0.76750    1.000
    O89      O        0.29100    0.91330    0.06030    1.000
    O90      O        0.33760    0.92820    0.96190    1.000
    O91      O        0.36500    0.80920    0.30370    1.000
    O92      O        0.30450    0.73330    0.29050    1.000
    O93      O        0.62380    0.72310    0.58970    1.000
    O94      O        0.58090    0.81040    0.53950    1.000
    O95      O        0.15800    0.76980    0.90930    1.000
    O96      O        0.11391    0.68204    0.87220    1.000
    C273     C        0.50000    0.76310    0.25000    1.000
    H201     H        0.50000    0.80400    0.25000    1.000
    C274     C        0.00000    0.26310    0.25000    1.000
    H202     H        0.00000    0.30400    0.25000    1.000
    C275     C        0.50000    0.23690    0.75000    1.000
    H203     H        0.50000    0.19600    0.75000    1.000
    C276     C        0.00000    0.73690    0.75000    1.000
    H204     H        0.00000    0.69600    0.75000    1.000
    Co25     Co       0.75000    0.75000    0.50000    1.000
    Co26     Co       0.25000    0.75000    0.00000    1.000
    Co27     Co       0.25000    0.25000    0.50000    1.000
    Co28     Co       0.75000    0.25000    0.00000    1.000
