data_functionalizedCrystal
_audit_creation_method	'EQeq! by Chris Wilmer'
_symmetry_space_group_name_H-M	'P1'
_symmetry_Int_Tables_number	1
_symmetry_cell_setting	triclinic
loop_
_symmetry_equiv_pos_as_xyz
  x,y,z
_cell_length_a	13.3413
_cell_length_b	16.8336
_cell_length_c	12.973
_cell_angle_alpha	90
_cell_angle_beta	90
_cell_angle_gamma	90
loop_
_atom_site_label
_atom_site_type_symbol
_atom_site_fract_x
_atom_site_fract_y
_atom_site_fract_z
_atom_site_charge
Mof_H 	H 	0.41028	0.45177	0.57492	0
Mof_H 	H 	0.40992	0.57365	0.46371	-0.002
Mof_H 	H 	0.09193	0.55086	0.42232	0.032
Mof_H 	H 	0.09224	0.42857	0.53324	0.009
Mof_H 	H 	0.40754	0.0723	0.53484	0.013
Mof_H 	H 	0.089	0.05069	0.57253	0.03
Mof_H 	H 	0.15709	0.07073	0.95813	0.006
Mof_H 	H 	0.34448	0.92508	0.03211	0.015
Mof_H 	H 	0.15748	0.94879	0.07039	0.012
Mof_H 	H 	0.34152	0.04649	0.91884	0.017
Mof_H 	H 	0.34214	0.42374	0.96709	-0.002
Mof_H 	H 	0.15993	0.45016	0.92225	-0
Mof_H 	H 	0.08919	0.9297	0.45912	0.016
Mof_H 	H 	0.40791	0.95102	0.42132	0.016
Mof_H 	H 	0.15966	0.57142	0.03465	0.014
Mof_H 	H 	0.33943	0.54559	0.07837	0.004
Mof_H 	H 	0.9072	0.45438	0.57661	-0.014
Mof_H 	H 	0.90435	0.57601	0.46422	0.001
Mof_H 	H 	0.58897	0.54324	0.41343	0.004
Mof_H 	H 	0.59175	0.42188	0.52567	-0.004
Mof_H 	H 	0.90735	0.07552	0.53166	-0.003
Mof_H 	H 	0.59119	0.04483	0.5788	0.015
Mof_H 	H 	0.65779	0.0772	0.96524	0.013
Mof_H 	H 	0.83898	0.92711	0.03154	-0.004
Mof_H 	H 	0.66081	0.95619	0.0788	0.002
Mof_H 	H 	0.83869	0.0487	0.91933	0.012
Mof_H 	H 	0.84189	0.42678	0.96378	-0.002
Mof_H 	H 	0.65765	0.45586	0.91614	0.002
Mof_H 	H 	0.59411	0.92296	0.46644	0.014
Mof_H 	H 	0.91027	0.954	0.41909	-0.01
Mof_H 	H 	0.65479	0.57798	0.02757	0.012
Mof_H 	H 	0.8416	0.54844	0.07591	0.033
Mof_C 	C 	0.41083	0.02604	0.95439	0.04
Mof_C 	C 	0.99783	0.06671	0.93269	-0.34
Mof_C 	C 	0.49773	0.14027	0.86793	1.036
Mof_C 	C 	0.09054	0.53929	0.01876	-0.002
Mof_C 	C 	0.1611	0.52849	0.45619	0.04
Mof_C 	C 	0.25085	0.56933	0.43653	-0.277
Mof_C 	C 	0.24982	0.64182	0.36967	0.998
Mof_C 	C 	0.33846	0.04046	0.51761	0.047
Mof_C 	C 	0.09078	0.47188	0.95681	0.059
Mof_C 	C 	0.50015	0.43237	0.93541	-0.288
Mof_C 	C 	0.00189	0.35872	0.8701	1.066
Mof_C 	C 	0.41249	0.95888	0.0168	0.046
Mof_C 	C 	0.33867	0.97338	0.45503	0.041
Mof_C 	C 	0.24863	0.93337	0.43389	-0.288
Mof_C 	C 	0.24946	0.86166	0.36613	1.037
Mof_C 	C 	0.16142	0.46068	0.51748	0.049
Mof_C 	C 	0.08826	0.97123	0.03674	0.082
Mof_C 	C 	0.50289	0.93343	0.06122	-0.293
Mof_C 	C 	0.99935	0.85875	0.12471	0.942
Mof_C 	C 	0.41019	0.45787	0.98068	0.039
Mof_C 	C 	0.34108	0.47363	0.5406	0.044
Mof_C 	C 	0.25141	0.43259	0.56	-0.29
Mof_C 	C 	0.25213	0.35983	0.6263	1.007
Mof_C 	C 	0.15845	0.9613	0.47611	0.044
Mof_C 	C 	0.40858	0.52563	0.04204	0.04
Mof_C 	C 	0.00056	0.56691	0.0617	-0.136
Mof_C 	C 	0.49533	0.64174	0.12537	0.995
Mof_C 	C 	0.08803	0.03869	0.97481	0.1
Mof_C 	C 	0.15819	0.02835	0.5387	0.052
Mof_C 	C 	0.24821	0.06834	0.5597	-0.288
Mof_C 	C 	0.24767	0.14012	0.6274	1.044
Mof_C 	C 	0.34079	0.54141	0.47925	0.036
Mof_C 	C 	0.90792	0.02636	0.9531	0.039
Mof_C 	C 	0.49949	0.06858	0.93578	-0.286
Mof_C 	C 	0.99735	0.13895	0.8657	0.967
Mof_C 	C 	0.58691	0.54363	0.01374	0.039
Mof_C 	C 	0.6581	0.52348	0.44998	0.039
Mof_C 	C 	0.74644	0.56681	0.43293	-0.29
Mof_C 	C 	0.74504	0.63909	0.36608	1.023
Mof_C 	C 	0.83938	0.04153	0.51692	0.036
Mof_C 	C 	0.58847	0.47583	0.95239	0.038
Mof_C 	C 	0.00107	0.43103	0.9371	-0.253
Mof_C 	C 	0.50203	0.35975	0.86886	0.999
Mof_C 	C 	0.90822	0.95893	0.01508	0.044
Mof_C 	C 	0.84096	0.97408	0.45497	0.035
Mof_C 	C 	0.75245	0.93116	0.43697	-0.283
Mof_C 	C 	0.754	0.85879	0.37007	0.992
Mof_C 	C 	0.65975	0.45601	0.51184	0.04
Mof_C 	C 	0.59148	0.97614	0.04284	0.046
Mof_C 	C 	0.99833	0.93087	0.05734	-0.328
Mof_C 	C 	0.50437	0.86144	0.12846	1.033
Mof_C 	C 	0.91105	0.45882	0.97985	0.007
Mof_C 	C 	0.83806	0.47421	0.54015	0.036
Mof_C 	C 	0.74974	0.43083	0.55732	-0.292
Mof_C 	C 	0.75174	0.35862	0.6245	0.995
Mof_C 	C 	0.66214	0.95685	0.48137	0.037
Mof_C 	C 	0.91074	0.52627	0.04177	-0.05
Mof_C 	C 	0.49687	0.56907	0.05888	-0.282
Mof_C 	C 	0.99975	0.63894	0.12903	0.878
Mof_C 	C 	0.58984	0.04329	0.98038	0.037
Mof_C 	C 	0.6605	0.02431	0.54331	0.042
Mof_C 	C 	0.74912	0.06703	0.56154	-0.289
Mof_C 	C 	0.74748	0.13912	0.6288	1.027
Mof_C 	C 	0.83651	0.54168	0.4783	0.036
Mof_O 	O 	0.08137	0.17181	0.84682	-1.384
Mof_O 	O 	0.40968	0.66516	0.15725	-1.426
Mof_O 	O 	0.33392	0.67507	0.35059	-1.416
Mof_O 	O 	0.16277	0.1637	0.66001	-1.445
Mof_O 	O 	0.4183	0.32621	0.84962	-1.417
Mof_O 	O 	0.08445	0.8357	0.15715	-1.365
Mof_O 	O 	0.16538	0.82856	0.34657	-1.446
Mof_O 	O 	0.33758	0.33549	0.65715	-1.432
Mof_O 	O 	0.42073	0.82857	0.14822	-1.426
Mof_O 	O 	0.0874	0.3347	0.83911	-1.443
Mof_O 	O 	0.16783	0.32765	0.64665	-1.411
Mof_O 	O 	0.33427	0.83851	0.33317	-1.432
Mof_O 	O 	0.08384	0.67207	0.14816	-1.379
Mof_O 	O 	0.41274	0.16237	0.83385	-1.441
Mof_O 	O 	0.33171	0.17263	0.647	-1.442
Mof_O 	O 	0.16474	0.66475	0.33716	-1.398
Mof_O 	O 	0.58114	0.17427	0.84964	-1.442
Mof_O 	O 	0.91496	0.66204	0.16198	-1.387
Mof_O 	O 	0.82874	0.67186	0.34655	-1.412
Mof_O 	O 	0.66261	0.16133	0.66313	-1.432
Mof_O 	O 	0.91766	0.32663	0.84935	-1.451
Mof_O 	O 	0.58978	0.83789	0.16083	-1.449
Mof_O 	O 	0.67032	0.82584	0.35047	-1.393
Mof_O 	O 	0.83742	0.33604	0.65679	-1.419
Mof_O 	O 	0.91523	0.82561	0.14435	-1.405
Mof_O 	O 	0.58765	0.33686	0.83666	-1.42
Mof_O 	O 	0.66809	0.32514	0.64415	-1.414
Mof_O 	O 	0.83964	0.83534	0.33804	-1.424
Mof_O 	O 	0.57903	0.67467	0.1447	-1.387
Mof_O 	O 	0.91253	0.16263	0.8329	-1.419
Mof_O 	O 	0.8309	0.17336	0.64642	-1.431
Mof_O 	O 	0.65965	0.66269	0.33389	-1.442
Mof_O 	O 	0.00017	0.25109	0.68429	-2.513
Mof_O 	O 	0.24964	0.75146	0.18386	-2.549
Mof_O 	O 	0.49956	0.75158	0.31064	-2.534
Mof_O 	O 	0.25025	0.2503	0.81042	-2.575
Mof_O 	O 	0.50032	0.25021	0.68461	-2.571
Mof_O 	O 	0.7498	0.74914	0.18419	-2.516
Mof_O 	O 	0.99971	0.74926	0.31106	-2.555
Mof_O 	O 	0.75024	0.2511	0.81047	-2.541
Mof_Al	Al	0.12495	0.24906	0.748	6.047
Mof_Al	Al	0.37461	0.75213	0.24721	5.992
Mof_Al	Al	0.37511	0.24884	0.74704	6.044
Mof_Al	Al	0.12463	0.75047	0.24731	6.046
Mof_Al	Al	0.62503	0.249	0.7482	6.016
Mof_Al	Al	0.87473	0.74879	0.24774	5.915
Mof_Al	Al	0.87488	0.24921	0.74658	5.899
Mof_Al	Al	0.62471	0.75048	0.2475	5.958
Mof_H 	H 	0.24966	0.72405	0.11816	0.6
Mof_H 	H 	0.7506	0.77684	0.11868	0.589
Mof_H 	H 	0.49883	0.72551	0.37725	0.598
Mof_H 	H 	0.99979	0.77823	0.37566	0.579
Mof_H 	H 	0.25074	0.27314	0.87895	0.617
Mof_H 	H 	0.75098	0.27624	0.87764	0.605
Mof_H 	H 	0.50088	0.27347	0.61632	0.614
Mof_H 	H 	0.00082	0.27594	0.61694	0.62
_end
