data_functionalizedCrystal
_audit_creation_method	'EQeq! by Chris Wilmer'
_symmetry_space_group_name_H-M	'P1'
_symmetry_Int_Tables_number	1
_symmetry_cell_setting	triclinic
loop_
_symmetry_equiv_pos_as_xyz
  x,y,z
_cell_length_a	7.4523
_cell_length_b	9.7764
_cell_length_c	9.8469
_cell_angle_alpha	118.255
_cell_angle_beta	102.118
_cell_angle_gamma	91.358
loop_
_atom_site_label
_atom_site_type_symbol
_atom_site_fract_x
_atom_site_fract_y
_atom_site_fract_z
_atom_site_charge
Mof_Cd	Cd	0.76214	0.02622	0.5157	0.452
Mof_Cd	Cd	0.23786	0.97378	0.4843	0.452
Mof_H 	H 	0.826	0.2003	0.1216	0.062
Mof_H 	H 	0.0686	0.825	0.0965	0.058
Mof_H 	H 	0.2737	0.3033	0.7853	0.06
Mof_H 	H 	0.8143	0.4856	0.0094	0.056
Mof_H 	H 	0.174	0.7997	0.8784	0.062
Mof_H 	H 	0.9314	0.175	0.9035	0.058
Mof_H 	H 	0.7263	0.6967	0.2147	0.06
Mof_H 	H 	0.1857	0.5144	0.9906	0.056
Mof_C 	C 	0.8735	0.0322	0.2713	0.28
Mof_C 	C 	0.937	0.0139	0.1291	-0.049
Mof_C 	C 	0.8963	0.119	0.0723	-0.02
Mof_C 	C 	0.0405	0.896	0.0573	-0.021
Mof_C 	C 	0.6136	0.2423	0.7457	0.287
Mof_C 	C 	0.5535	0.3742	0.8783	-0.05
Mof_C 	C 	0.3653	0.3829	0.8723	-0.02
Mof_C 	C 	0.6865	0.4916	0.0059	-0.017
Mof_C 	C 	0.1265	0.9678	0.7287	0.28
Mof_C 	C 	0.063	0.9861	0.8709	-0.049
Mof_C 	C 	0.1037	0.881	0.9277	-0.02
Mof_C 	C 	0.9595	0.104	0.9427	-0.021
Mof_C 	C 	0.3864	0.7577	0.2543	0.287
Mof_C 	C 	0.4465	0.6258	0.1217	-0.05
Mof_C 	C 	0.6347	0.6171	0.1277	-0.02
Mof_C 	C 	0.3135	0.5084	0.9941	-0.017
Mof_O 	O 	0.7679	0.129	0.328	-0.244
Mof_O 	O 	0.9304	0.9437	0.3296	-0.288
Mof_O 	O 	0.5207	0.1061	0.6729	-0.28
Mof_O 	O 	0.7591	0.2702	0.7126	-0.266
Mof_O 	O 	0.2321	0.871	0.672	-0.244
Mof_O 	O 	0.0696	0.0563	0.6704	-0.288
Mof_O 	O 	0.4793	0.8939	0.3271	-0.28
Mof_O 	O 	0.2409	0.7298	0.2874	-0.266
_end
