# CIF file generated by openbabel 3.1.0, see https://openbabel.org
data_I
_chemical_name_common 'image0'
_cell_length_a 12.251
_cell_length_b 18.631
_cell_length_c 20.976
_cell_angle_alpha 90
_cell_angle_beta 90
_cell_angle_gamma 90
_space_group_name_H-M_alt 'P 1'
_space_group_name_Hall 'P 1'
loop_
    _symmetry_equiv_pos_as_xyz
    x,y,z
loop_
    _atom_site_label
    _atom_site_type_symbol
    _atom_site_fract_x
    _atom_site_fract_y
    _atom_site_fract_z
    _atom_site_occupancy
    O1       O        0.88720    0.04705    0.43260    1.000
    O2       O        0.72250    0.08140    0.45590    1.000
    O3       O        0.10600    0.45780    0.81440    1.000
    O4       O        0.26650    0.42000    0.78880    1.000
    C1       C        0.82390    0.08450    0.46560    1.000
    C2       C        0.87110    0.13230    0.51510    1.000
    C3       C        0.97750    0.12550    0.54030    1.000
    H1       H        0.01970    0.08710    0.52650    1.000
    C4       C        0.02280    0.17160    0.58390    1.000
    H2       H        0.09250    0.16370    0.60000    1.000
    C5       C        0.96570    0.22650    0.60200    1.000
    C6       C        0.85930    0.23360    0.57640    1.000
    H3       H        0.81830    0.27310    0.58900    1.000
    C7       C        0.81210    0.18650    0.53440    1.000
    H4       H        0.74090    0.19290    0.52020    1.000
    C8       C        0.01610    0.27670    0.64760    1.000
    C9       C        0.12980    0.28570    0.64760    1.000
    H5       H        0.17260    0.26110    0.61820    1.000
    C10      C        0.17750    0.33100    0.69110    1.000
    H6       H        0.25320    0.33510    0.69260    1.000
    C11      C        0.11460    0.37030    0.73260    1.000
    C12      C        0.00340    0.36300    0.73250    1.000
    H7       H        0.96140    0.38950    0.76090    1.000
    C13      C        0.95300    0.31640    0.69020    1.000
    H8       H        0.87740    0.31160    0.69020    1.000
    C14      C        0.16520    0.41930    0.78080    1.000
    O5       O        0.61280    0.95295    0.43260    1.000
    O6       O        0.77750    0.91860    0.45590    1.000
    O7       O        0.39400    0.54220    0.81440    1.000
    O8       O        0.23350    0.58000    0.78880    1.000
    C15      C        0.67610    0.91550    0.46560    1.000
    C16      C        0.62890    0.86770    0.51510    1.000
    C17      C        0.52250    0.87450    0.54030    1.000
    H9       H        0.48030    0.91290    0.52650    1.000
    C18      C        0.47720    0.82840    0.58390    1.000
    H10      H        0.40750    0.83630    0.60000    1.000
    C19      C        0.53430    0.77350    0.60200    1.000
    C20      C        0.64070    0.76640    0.57640    1.000
    H11      H        0.68170    0.72690    0.58900    1.000
    C21      C        0.68790    0.81350    0.53440    1.000
    H12      H        0.75910    0.80710    0.52020    1.000
    C22      C        0.48390    0.72330    0.64760    1.000
    C23      C        0.37020    0.71430    0.64760    1.000
    H13      H        0.32740    0.73890    0.61820    1.000
    C24      C        0.32250    0.66900    0.69110    1.000
    H14      H        0.24680    0.66490    0.69260    1.000
    C25      C        0.38540    0.62970    0.73260    1.000
    C26      C        0.49660    0.63700    0.73250    1.000
    H15      H        0.53860    0.61050    0.76090    1.000
    C27      C        0.54700    0.68360    0.69020    1.000
    H16      H        0.62260    0.68840    0.69020    1.000
    C28      C        0.33480    0.58070    0.78080    1.000
    O9       O        0.38720    0.45295    0.93260    1.000
    O10      O        0.22250    0.41860    0.95590    1.000
    O11      O        0.60600    0.04220    0.31440    1.000
    O12      O        0.76650    0.08000    0.28880    1.000
    C29      C        0.32390    0.41550    0.96560    1.000
    C30      C        0.37110    0.36770    0.01510    1.000
    C31      C        0.47750    0.37450    0.04030    1.000
    H17      H        0.51970    0.41290    0.02650    1.000
    C32      C        0.52280    0.32840    0.08390    1.000
    H18      H        0.59250    0.33630    0.10000    1.000
    C33      C        0.46570    0.27350    0.10200    1.000
    C34      C        0.35930    0.26640    0.07640    1.000
    H19      H        0.31830    0.22690    0.08900    1.000
    C35      C        0.31210    0.31350    0.03440    1.000
    H20      H        0.24090    0.30710    0.02020    1.000
    C36      C        0.51610    0.22330    0.14760    1.000
    C37      C        0.62980    0.21430    0.14760    1.000
    H21      H        0.67260    0.23890    0.11820    1.000
    C38      C        0.67750    0.16900    0.19110    1.000
    H22      H        0.75320    0.16490    0.19260    1.000
    C39      C        0.61460    0.12970    0.23260    1.000
    C40      C        0.50340    0.13700    0.23250    1.000
    H23      H        0.46140    0.11050    0.26090    1.000
    C41      C        0.45300    0.18360    0.19020    1.000
    H24      H        0.37740    0.18840    0.19020    1.000
    C42      C        0.66520    0.08070    0.28080    1.000
    O13      O        0.11280    0.54705    0.93260    1.000
    O14      O        0.27750    0.58140    0.95590    1.000
    O15      O        0.89400    0.95780    0.31440    1.000
    O16      O        0.73350    0.92000    0.28880    1.000
    C43      C        0.17610    0.58450    0.96560    1.000
    C44      C        0.12890    0.63230    0.01510    1.000
    C45      C        0.02250    0.62550    0.04030    1.000
    H25      H        0.98030    0.58710    0.02650    1.000
    C46      C        0.97720    0.67160    0.08390    1.000
    H26      H        0.90750    0.66370    0.10000    1.000
    C47      C        0.03430    0.72650    0.10200    1.000
    C48      C        0.14070    0.73360    0.07640    1.000
    H27      H        0.18170    0.77310    0.08900    1.000
    C49      C        0.18790    0.68650    0.03440    1.000
    H28      H        0.25910    0.69290    0.02020    1.000
    C50      C        0.98390    0.77670    0.14760    1.000
    C51      C        0.87020    0.78570    0.14760    1.000
    H29      H        0.82740    0.76110    0.11820    1.000
    C52      C        0.82250    0.83100    0.19110    1.000
    H30      H        0.74680    0.83510    0.19260    1.000
    C53      C        0.88540    0.87030    0.23260    1.000
    C54      C        0.99660    0.86300    0.23250    1.000
    H31      H        0.03860    0.88950    0.26090    1.000
    C55      C        0.04700    0.81640    0.19020    1.000
    H32      H        0.12260    0.81160    0.19020    1.000
    C56      C        0.83480    0.91930    0.28080    1.000
    In1      In       0.75000    0.00000    0.37340    1.000
    In2      In       0.25000    0.50000    0.87340    1.000
    O17      O        0.61280    0.54705    0.06740    1.000
    O18      O        0.77750    0.58140    0.04410    1.000
    O19      O        0.39400    0.95780    0.68560    1.000
    O20      O        0.23350    0.92000    0.71120    1.000
    C57      C        0.67610    0.58450    0.03440    1.000
    C58      C        0.62890    0.63230    0.98490    1.000
    C59      C        0.52250    0.62550    0.95970    1.000
    H33      H        0.48030    0.58710    0.97350    1.000
    C60      C        0.47720    0.67160    0.91610    1.000
    H34      H        0.40750    0.66370    0.90000    1.000
    C61      C        0.53430    0.72650    0.89800    1.000
    C62      C        0.64070    0.73360    0.92360    1.000
    H35      H        0.68170    0.77310    0.91100    1.000
    C63      C        0.68790    0.68650    0.96560    1.000
    H36      H        0.75910    0.69290    0.97980    1.000
    C64      C        0.48390    0.77670    0.85240    1.000
    C65      C        0.37020    0.78570    0.85240    1.000
    H37      H        0.32740    0.76110    0.88180    1.000
    C66      C        0.32250    0.83100    0.80890    1.000
    H38      H        0.24680    0.83510    0.80740    1.000
    C67      C        0.38540    0.87030    0.76740    1.000
    C68      C        0.49660    0.86300    0.76750    1.000
    H39      H        0.53860    0.88950    0.73910    1.000
    C69      C        0.54700    0.81640    0.80980    1.000
    H40      H        0.62260    0.81160    0.80980    1.000
    C70      C        0.33480    0.91930    0.71920    1.000
    O21      O        0.88720    0.45295    0.06740    1.000
    O22      O        0.72250    0.41860    0.04410    1.000
    O23      O        0.10600    0.04220    0.68560    1.000
    O24      O        0.26650    0.08000    0.71120    1.000
    C71      C        0.82390    0.41550    0.03440    1.000
    C72      C        0.87110    0.36770    0.98490    1.000
    C73      C        0.97750    0.37450    0.95970    1.000
    H41      H        0.01970    0.41290    0.97350    1.000
    C74      C        0.02280    0.32840    0.91610    1.000
    H42      H        0.09250    0.33630    0.90000    1.000
    C75      C        0.96570    0.27350    0.89800    1.000
    C76      C        0.85930    0.26640    0.92360    1.000
    H43      H        0.81830    0.22690    0.91100    1.000
    C77      C        0.81210    0.31350    0.96560    1.000
    H44      H        0.74090    0.30710    0.97980    1.000
    C78      C        0.01610    0.22330    0.85240    1.000
    C79      C        0.12980    0.21430    0.85240    1.000
    H45      H        0.17260    0.23890    0.88180    1.000
    C80      C        0.17750    0.16900    0.80890    1.000
    H46      H        0.25320    0.16490    0.80740    1.000
    C81      C        0.11460    0.12970    0.76740    1.000
    C82      C        0.00340    0.13700    0.76750    1.000
    H47      H        0.96140    0.11050    0.73910    1.000
    C83      C        0.95300    0.18360    0.80980    1.000
    H48      H        0.87740    0.18840    0.80980    1.000
    C84      C        0.16520    0.08070    0.71920    1.000
    O25      O        0.11280    0.95295    0.56740    1.000
    O26      O        0.27750    0.91860    0.54410    1.000
    O27      O        0.89400    0.54220    0.18560    1.000
    O28      O        0.73350    0.58000    0.21120    1.000
    C85      C        0.17610    0.91550    0.53440    1.000
    C86      C        0.12890    0.86770    0.48490    1.000
    C87      C        0.02250    0.87450    0.45970    1.000
    H49      H        0.98030    0.91290    0.47350    1.000
    C88      C        0.97720    0.82840    0.41610    1.000
    H50      H        0.90750    0.83630    0.40000    1.000
    C89      C        0.03430    0.77350    0.39800    1.000
    C90      C        0.14070    0.76640    0.42360    1.000
    H51      H        0.18170    0.72690    0.41100    1.000
    C91      C        0.18790    0.81350    0.46560    1.000
    H52      H        0.25910    0.80710    0.47980    1.000
    C92      C        0.98390    0.72330    0.35240    1.000
    C93      C        0.87020    0.71430    0.35240    1.000
    H53      H        0.82740    0.73890    0.38180    1.000
    C94      C        0.82250    0.66900    0.30890    1.000
    H54      H        0.74680    0.66490    0.30740    1.000
    C95      C        0.88540    0.62970    0.26740    1.000
    C96      C        0.99660    0.63700    0.26750    1.000
    H55      H        0.03860    0.61050    0.23910    1.000
    C97      C        0.04700    0.68360    0.30980    1.000
    H56      H        0.12260    0.68840    0.30980    1.000
    C98      C        0.83480    0.58070    0.21920    1.000
    O29      O        0.38720    0.04705    0.56740    1.000
    O30      O        0.22250    0.08140    0.54410    1.000
    O31      O        0.60600    0.45780    0.18560    1.000
    O32      O        0.76650    0.42000    0.21120    1.000
    C99      C        0.32390    0.08450    0.53440    1.000
    C100     C        0.37110    0.13230    0.48490    1.000
    C101     C        0.47750    0.12550    0.45970    1.000
    H57      H        0.51970    0.08710    0.47350    1.000
    C102     C        0.52280    0.17160    0.41610    1.000
    H58      H        0.59250    0.16370    0.40000    1.000
    C103     C        0.46570    0.22650    0.39800    1.000
    C104     C        0.35930    0.23360    0.42360    1.000
    H59      H        0.31830    0.27310    0.41100    1.000
    C105     C        0.31210    0.18650    0.46560    1.000
    H60      H        0.24090    0.19290    0.47980    1.000
    C106     C        0.51610    0.27670    0.35240    1.000
    C107     C        0.62980    0.28570    0.35240    1.000
    H61      H        0.67260    0.26110    0.38180    1.000
    C108     C        0.67750    0.33100    0.30890    1.000
    H62      H        0.75320    0.33510    0.30740    1.000
    C109     C        0.61460    0.37030    0.26740    1.000
    C110     C        0.50340    0.36300    0.26750    1.000
    H63      H        0.46140    0.38950    0.23910    1.000
    C111     C        0.45300    0.31640    0.30980    1.000
    H64      H        0.37740    0.31160    0.30980    1.000
    C112     C        0.66520    0.41930    0.21920    1.000
    In3      In       0.75000    0.50000    0.12660    1.000
    In4      In       0.25000    0.00000    0.62660    1.000
