# CIF file generated by openbabel 3.1.0, see https://openbabel.org
data_I
_chemical_name_common 'MUBZOA'
_cell_length_a 22.071
_cell_length_b 22.071
_cell_length_c 22.071
_cell_angle_alpha 90
_cell_angle_beta 90
_cell_angle_gamma 90
_space_group_name_H-M_alt 'P 1'
_space_group_name_Hall 'P 1'
loop_
    _symmetry_equiv_pos_as_xyz
    x,y,z
loop_
    _atom_site_label
    _atom_site_type_symbol
    _atom_site_fract_x
    _atom_site_fract_y
    _atom_site_fract_z
    _atom_site_occupancy
    C1       C        0.49826    0.00048    0.33640    1.000
    X2       C        0.44337    0.00434    0.36827    1.000
    C3       C        0.44438    0.00585    0.43214    1.000
    C4       C        0.49963    0.00089    0.46537    1.000
    C5       C        0.55396    0.99572    0.43108    1.000
    X6       C        0.55358    0.99681    0.36741    1.000
    C7       C        0.50071    0.00090    0.53471    1.000
    C8       C        0.55595    0.00593    0.56794    1.000
    X9       C        0.55695    0.00445    0.63182    1.000
    C10      C        0.50207    0.00056    0.66368    1.000
    X11      C        0.44675    0.99682    0.63267    1.000
    C12      C        0.44638    0.99569    0.56900    1.000
    H13      H        0.49805    0.00029    0.28723    1.000
    H14      H        0.40145    0.01133    0.45479    1.000
    H15      H        0.59741    0.99034    0.45270    1.000
    H16      H        0.59887    0.01145    0.54528    1.000
    H17      H        0.50228    0.00040    0.71285    1.000
    H18      H        0.40294    0.99025    0.54739    1.000
    C19      C        0.33499    0.50032    0.00019    1.000
    X20      C        0.36671    0.44528    0.00366    1.000
    C21      C        0.43058    0.44605    0.00493    1.000
    C22      C        0.46409    0.50115    0.00029    1.000
    C23      C        0.42996    0.55574    0.99561    1.000
    X24      C        0.36614    0.55569    0.99678    1.000
    C25      C        0.53356    0.50170    0.00022    1.000
    C26      C        0.56717    0.55676    0.00482    1.000
    X27      C        0.63107    0.55737    0.00350    1.000
    C28      C        0.66263    0.50227    0.99999    1.000
    X29      C        0.63137    0.44705    0.99658    1.000
    C30      C        0.56763    0.44708    0.99548    1.000
    H31      H        0.28580    0.50007    0.00014    1.000
    H32      H        0.45303    0.40298    0.00999    1.000
    H33      H        0.45191    0.59908    0.99059    1.000
    H34      H        0.54480    0.59988    0.00988    1.000
    H35      H        0.71180    0.50223    0.99990    1.000
    H36      H        0.54582    0.40369    0.99046    1.000
    C37      C        0.00029    0.33393    0.50004    1.000
    X38      C        0.00399    0.36539    0.44488    1.000
    C39      C        0.00527    0.42919    0.44523    1.000
    C40      C        0.00022    0.46294    0.50002    1.000
    C41      C        0.99520    0.42920    0.55482    1.000
    X42      C        0.99656    0.36541    0.55519    1.000
    C43      C        0.00018    0.53228    0.50001    1.000
    C44      C        0.00532    0.56607    0.55479    1.000
    X45      C        0.00398    0.62982    0.55505    1.000
    C46      C        0.00009    0.66123    0.50000    1.000
    X47      C        0.99624    0.62981    0.44495    1.000
    C48      C        0.99499    0.56605    0.44523    1.000
    H49      H        0.00032    0.28474    0.50005    1.000
    H50      H        0.01068    0.45144    0.40207    1.000
    H51      H        0.98976    0.45145    0.59797    1.000
    H52      H        0.01084    0.54405    0.59801    1.000
    H53      H        0.00006    0.71037    0.49999    1.000
    H54      H        0.98950    0.54402    0.40200    1.000
    O55      O        0.84350    0.00275    0.91838    1.000
    O56      O        0.15686    0.99763    0.91910    1.000
    O57      O        0.99798    0.08141    0.84334    1.000
    O58      O        0.00258    0.91891    0.84340    1.000
    O59      O        0.00223    0.84399    0.91618    1.000
    O60      O        0.99817    0.15648    0.91598    1.000
    O61      O        0.08421    0.99794    0.84401    1.000
    O62      O        0.91637    0.00242    0.84356    1.000
    Zr63     Zr       0.00023    0.00023    0.89296    1.000
    O64      O        0.05509    0.94532    0.94523    1.000
    O65      O        0.94531    0.05531    0.94498    1.000
    X66      C        0.86005    0.00389    0.86201    1.000
    X67      C        0.14040    0.99630    0.86274    1.000
    X68      C        0.99669    0.13780    0.85974    1.000
    X69      C        0.00372    0.86254    0.85994    1.000
    H70      H        0.08097    0.08084    0.91947    1.000
    O71      O        0.05508    0.05500    0.94533    1.000
    H72      H        0.91944    0.91966    0.91916    1.000
    O73      O        0.94529    0.94548    0.94509    1.000
    O74      O        0.15684    0.00239    0.08164    1.000
    O75      O        0.84347    0.99785    0.08095    1.000
    O76      O        0.08155    0.15705    0.00229    1.000
    O77      O        0.08117    0.84351    0.99771    1.000
    O78      O        0.91854    0.84362    0.00206    1.000
    O79      O        0.91907    0.15705    0.99775    1.000
    O80      O        0.00246    0.08134    0.15674    1.000
    O81      O        0.99763    0.91886    0.15661    1.000
    O82      O        0.00243    0.15644    0.08412    1.000
    O83      O        0.99769    0.84397    0.08380    1.000
    O84      O        0.15654    0.08432    0.00229    1.000
    O85      O        0.84399    0.08441    0.99774    1.000
    O86      O        0.84367    0.91644    0.00174    1.000
    O87      O        0.15632    0.91610    0.99815    1.000
    O88      O        0.08397    0.00219    0.15646    1.000
    O89      O        0.91611    0.99802    0.15604    1.000
    Zr90     Zr       0.10732    0.00022    0.00027    1.000
    Zr91     Zr       0.89302    0.00036    0.99977    1.000
    Zr92     Zr       0.00029    0.10739    0.00004    1.000
    Zr93     Zr       0.99996    0.89317    0.00000    1.000
    Zr94     Zr       0.00009    0.00018    0.10708    1.000
    O95      O        0.94503    0.94536    0.05485    1.000
    O96      O        0.05515    0.05522    0.05511    1.000
    X97      C        0.14029    0.00353    0.13802    1.000
    X98      C        0.85993    0.99648    0.13731    1.000
    X99      C        0.13796    0.14064    0.00355    1.000
    X100     C        0.13759    0.85986    0.99660    1.000
    X101     C        0.86214    0.86012    0.00308    1.000
    X102     C        0.86267    0.14065    0.99646    1.000
    X103     C        0.00385    0.13774    0.14035    1.000
    X104     C        0.99632    0.86249    0.14005    1.000
    H105     H        0.91952    0.08091    0.08059    1.000
    O106     O        0.94537    0.05505    0.05471    1.000
    H107     H        0.08065    0.91947    0.08077    1.000
    O108     O        0.05486    0.94536    0.05487    1.000
    C109     C        0.29074    0.00768    0.26576    1.000
    C110     C        0.23104    0.00070    0.28713    1.000
    C111     C        0.18161    0.99998    0.24638    1.000
    X116     C        0.19109    0.00597    0.18344    1.000
    C113     C        0.25128    0.01354    0.16296    1.000
    C114     C        0.30013    0.01435    0.20344    1.000
    C115     C        0.34322    0.00701    0.30618    1.000
    X112     C        0.38936    0.00612    0.33659    1.000
    H117     H        0.22267    0.99542    0.33519    1.000
    H118     H        0.13622    0.99410    0.26403    1.000
    H119     H        0.26110    0.01869    0.11518    1.000
    H120     H        0.34563    0.01982    0.18581    1.000
    C121     C        0.70899    0.99205    0.26346    1.000
    C122     C        0.70056    0.98075    0.20172    1.000
    C123     C        0.74973    0.98138    0.16177    1.000
    X128     C        0.80913    0.99342    0.18233    1.000
    C125     C        0.81772    0.00369    0.24478    1.000
    C126     C        0.76796    0.00319    0.28499    1.000
    C127     C        0.65624    0.99332    0.30315    1.000
    X124     C        0.61018    0.99459    0.33340    1.000
    H129     H        0.65558    0.97194    0.18412    1.000
    H130     H        0.74082    0.97265    0.11432    1.000
    H131     H        0.86254    0.01311    0.26235    1.000
    H132     H        0.77543    0.01205    0.33267    1.000
    C133     C        0.70960    0.00807    0.73429    1.000
    C134     C        0.70030    0.01544    0.79655    1.000
    C135     C        0.74915    0.01467    0.83701    1.000
    X140     C        0.80927    0.00644    0.81659    1.000
    C137     C        0.81869    0.99981    0.75370    1.000
    C138     C        0.76924    0.00048    0.71296    1.000
    C139     C        0.65710    0.00729    0.69390    1.000
    X136     C        0.61096    0.00631    0.66349    1.000
    H141     H        0.65484    0.02140    0.81413    1.000
    H142     H        0.73941    0.02035    0.88475    1.000
    H143     H        0.86402    0.99340    0.73609    1.000
    H144     H        0.77755    0.99465    0.66496    1.000
    C145     C        0.29134    0.99192    0.73659    1.000
    C146     C        0.29973    0.98040    0.79830    1.000
    C147     C        0.25055    0.98100    0.83824    1.000
    X152     C        0.19119    0.99322    0.81771    1.000
    C149     C        0.18262    0.00370    0.75528    1.000
    C150     C        0.23239    0.00323    0.71508    1.000
    C151     C        0.34409    0.99325    0.69692    1.000
    X148     C        0.39015    0.99455    0.66667    1.000
    H153     H        0.34469    0.97146    0.81587    1.000
    H154     H        0.25944    0.97211    0.88567    1.000
    H155     H        0.13782    0.01327    0.73774    1.000
    H156     H        0.22494    0.01227    0.66743    1.000
    C157     C        0.26474    0.29208    0.00728    1.000
    C158     C        0.20248    0.30084    0.01525    1.000
    C159     C        0.16239    0.25166    0.01467    1.000
    X164     C        0.18315    0.19170    0.00602    1.000
    C161     C        0.24605    0.18281    0.99881    1.000
    C162     C        0.28643    0.23259    0.99930    1.000
    C163     C        0.30476    0.34493    0.00639    1.000
    X160     C        0.33496    0.39124    0.00540    1.000
    H165     H        0.18460    0.34613    0.02156    1.000
    H166     H        0.11463    0.26105    0.02083    1.000
    H167     H        0.26393    0.13763    0.99205    1.000
    H168     H        0.33444    0.22466    0.99302    1.000
    C169     C        0.26391    0.70843    0.99276    1.000
    C170     C        0.28561    0.76769    0.00209    1.000
    C171     C        0.24538    0.81752    0.00253    1.000
    X176     C        0.18265    0.80884    0.99393    1.000
    C173     C        0.16188    0.74912    0.98383    1.000
    C174     C        0.20185    0.69988    0.98330    1.000
    C175     C        0.30374    0.65557    0.99384    1.000
    X172     C        0.33399    0.60938    0.99494    1.000
    H177     H        0.33350    0.77537    0.00952    1.000
    H178     H        0.26320    0.86254    0.01042    1.000
    H179     H        0.11424    0.73998    0.97652    1.000
    H180     H        0.18402    0.65473    0.97591    1.000
    C181     C        0.73423    0.70967    0.00674    1.000
    C182     C        0.79662    0.70017    0.01271    1.000
    C183     C        0.83716    0.74899    0.01203    1.000
    X188     C        0.81670    0.80929    0.00529    1.000
    C185     C        0.75371    0.81888    0.99995    1.000
    C186     C        0.71290    0.76948    0.00056    1.000
    C187     C        0.69367    0.65726    0.00608    1.000
    X184     C        0.66306    0.61123    0.00520    1.000
    H189     H        0.81424    0.65460    0.01757    1.000
    H190     H        0.88498    0.73907    0.01662    1.000
    H191     H        0.73604    0.86434    0.99472    1.000
    H192     H        0.66480    0.77797    0.99583    1.000
    C193     C        0.73587    0.29159    0.99263    1.000
    C194     C        0.71426    0.23215    0.00084    1.000
    C195     C        0.75470    0.18250    0.00134    1.000
    X200     C        0.81753    0.19157    0.99393    1.000
    C197     C        0.83822    0.25150    0.98502    1.000
    C198     C        0.79805    0.30055    0.98442    1.000
    C199     C        0.69578    0.34422    0.99358    1.000
    X196     C        0.66533    0.39025    0.99462    1.000
    H201     H        0.66628    0.22416    0.00730    1.000
    H202     H        0.73693    0.13731    0.00830    1.000
    H203     H        0.88594    0.26093    0.97868    1.000
    H204     H        0.81580    0.34587    0.97794    1.000
    C205     C        0.00818    0.26385    0.29180    1.000
    C206     C        0.01853    0.20190    0.30015    1.000
    C207     C        0.01787    0.16202    0.25088    1.000
    X212     C        0.00676    0.18276    0.19134    1.000
    C209     C        0.99736    0.24539    0.18282    1.000
    C210     C        0.99790    0.28555    0.23270    1.000
    C211     C        0.00707    0.30351    0.34474    1.000
    X208     C        0.00593    0.33356    0.39104    1.000
    H213     H        0.02665    0.18410    0.34518    1.000
    H214     H        0.02588    0.11445    0.25984    1.000
    H215     H        0.98867    0.26316    0.13793    1.000
    H216     H        0.98977    0.33335    0.22520    1.000
    C217     C        0.99239    0.26391    0.70830    1.000
    C218     C        0.98193    0.20199    0.69996    1.000
    C219     C        0.98257    0.16211    0.74924    1.000
    X224     C        0.99379    0.18283    0.80877    1.000
    C221     C        0.00332    0.24544    0.81727    1.000
    C222     C        0.00279    0.28560    0.76738    1.000
    C223     C        0.99351    0.30356    0.65535    1.000
    X220     C        0.99464    0.33359    0.60904    1.000
    H225     H        0.97371    0.18419    0.65494    1.000
    H226     H        0.97446    0.11456    0.74029    1.000
    H227     H        0.01209    0.26320    0.86214    1.000
    H228     H        0.01101    0.33339    0.77487    1.000
    C229     C        0.00795    0.73483    0.70995    1.000
    C230     C        0.01560    0.79701    0.70046    1.000
    C231     C        0.01483    0.83754    0.74921    1.000
    X236     C        0.00632    0.81718    0.80929    1.000
    C233     C        0.99943    0.75437    0.81886    1.000
    C234     C        0.00011    0.71358    0.76955    1.000
    C235     C        0.00711    0.69437    0.65768    1.000
    X232     C        0.00607    0.66371    0.61183    1.000
    H237     H        0.02177    0.81446    0.65499    1.000
    H238     H        0.02073    0.88525    0.73942    1.000
    H239     H        0.99280    0.73687    0.86421    1.000
    H240     H        0.99406    0.66560    0.77790    1.000
    C241     C        0.99211    0.73479    0.29004    1.000
    C242     C        0.00017    0.71355    0.23046    1.000
    C243     C        0.00081    0.75434    0.18114    1.000
    X248     C        0.99369    0.81712    0.19069    1.000
    C245     C        0.98495    0.83746    0.25074    1.000
    C246     C        0.98421    0.79694    0.29949    1.000
    C247     C        0.99302    0.69434    0.34231    1.000
    X244     C        0.99410    0.66368    0.38817    1.000
    H249     H        0.00642    0.66560    0.22213    1.000
    H250     H        0.00764    0.73686    0.13582    1.000
    H251     H        0.97886    0.88515    0.26051    1.000
    H252     H        0.97787    0.81437    0.34495    1.000
