# CIF file generated by openbabel 3.1.0, see https://openbabel.org
data_I
_chemical_name_common 'image0'
_cell_length_a 15.3683
_cell_length_b 15.3683
_cell_length_c 9.895
_cell_angle_alpha 90
_cell_angle_beta 90
_cell_angle_gamma 90
_space_group_name_H-M_alt 'P 1'
_space_group_name_Hall 'P 1'
loop_
    _symmetry_equiv_pos_as_xyz
    x,y,z
loop_
    _atom_site_label
    _atom_site_type_symbol
    _atom_site_fract_x
    _atom_site_fract_y
    _atom_site_fract_z
    _atom_site_occupancy
    O1       O        0.12862    0.03213    0.12170    1.000
    C1       C        0.25741    0.88776    0.87770    1.000
    H1       H        0.24030    0.91290    0.79640    1.000
    C2       C        0.30617    0.81287    0.87930    1.000
    H2       H        0.32260    0.78760    0.79780    1.000
    O2       O        0.87138    0.96787    0.12170    1.000
    C3       C        0.74259    0.11224    0.87770    1.000
    H3       H        0.75970    0.08710    0.79640    1.000
    C4       C        0.69383    0.18713    0.87930    1.000
    H4       H        0.67740    0.21240    0.79780    1.000
    O3       O        0.96787    0.12862    0.12170    1.000
    C5       C        0.11224    0.25741    0.87770    1.000
    H5       H        0.08710    0.24030    0.79640    1.000
    C6       C        0.18713    0.30617    0.87930    1.000
    H6       H        0.21240    0.32260    0.79780    1.000
    O4       O        0.03213    0.87138    0.12170    1.000
    C7       C        0.88776    0.74259    0.87770    1.000
    H7       H        0.91290    0.75970    0.79640    1.000
    C8       C        0.81287    0.69383    0.87930    1.000
    H8       H        0.78760    0.67740    0.79780    1.000
    O5       O        0.87138    0.03213    0.37830    1.000
    C9       C        0.74259    0.88776    0.62230    1.000
    H9       H        0.75970    0.91290    0.70360    1.000
    C10      C        0.69383    0.81287    0.62070    1.000
    H10      H        0.67740    0.78760    0.70220    1.000
    O6       O        0.12862    0.96787    0.37830    1.000
    C11      C        0.25741    0.11224    0.62230    1.000
    H11      H        0.24030    0.08710    0.70360    1.000
    C12      C        0.30617    0.18713    0.62070    1.000
    H12      H        0.32260    0.21240    0.70220    1.000
    O7       O        0.03213    0.12862    0.37830    1.000
    C13      C        0.88776    0.25741    0.62230    1.000
    H13      H        0.91290    0.24030    0.70360    1.000
    C14      C        0.81287    0.30617    0.62070    1.000
    H14      H        0.78760    0.32260    0.70220    1.000
    O8       O        0.96787    0.87138    0.37830    1.000
    C15      C        0.11224    0.74259    0.62230    1.000
    H15      H        0.08710    0.75970    0.70360    1.000
    C16      C        0.18713    0.69383    0.62070    1.000
    H16      H        0.21240    0.67740    0.70220    1.000
    O9       O        0.87138    0.96787    0.87830    1.000
    C17      C        0.74259    0.11224    0.12230    1.000
    H17      H        0.75970    0.08710    0.20360    1.000
    C18      C        0.69383    0.18713    0.12070    1.000
    H18      H        0.67740    0.21240    0.20220    1.000
    O10      O        0.12862    0.03213    0.87830    1.000
    C19      C        0.25741    0.88776    0.12230    1.000
    H19      H        0.24030    0.91290    0.20360    1.000
    C20      C        0.30617    0.81287    0.12070    1.000
    H20      H        0.32260    0.78760    0.20220    1.000
    O11      O        0.03213    0.87138    0.87830    1.000
    C21      C        0.88776    0.74259    0.12230    1.000
    H21      H        0.91290    0.75970    0.20360    1.000
    C22      C        0.81287    0.69383    0.12070    1.000
    H22      H        0.78760    0.67740    0.20220    1.000
    O12      O        0.96787    0.12862    0.87830    1.000
    C23      C        0.11224    0.25741    0.12230    1.000
    H23      H        0.08710    0.24030    0.20360    1.000
    C24      C        0.18713    0.30617    0.12070    1.000
    H24      H        0.21240    0.32260    0.20220    1.000
    O13      O        0.12862    0.96787    0.62170    1.000
    C25      C        0.25741    0.11224    0.37770    1.000
    H25      H        0.24030    0.08710    0.29640    1.000
    C26      C        0.30617    0.18713    0.37930    1.000
    H26      H        0.32260    0.21240    0.29780    1.000
    O14      O        0.87138    0.03213    0.62170    1.000
    C27      C        0.74259    0.88776    0.37770    1.000
    H27      H        0.75970    0.91290    0.29640    1.000
    C28      C        0.69383    0.81287    0.37930    1.000
    H28      H        0.67740    0.78760    0.29780    1.000
    O15      O        0.96787    0.87138    0.62170    1.000
    C29      C        0.11224    0.74259    0.37770    1.000
    H29      H        0.08710    0.75970    0.29640    1.000
    C30      C        0.18713    0.69383    0.37930    1.000
    H30      H        0.21240    0.67740    0.29780    1.000
    O16      O        0.03213    0.12862    0.62170    1.000
    C31      C        0.88776    0.25741    0.37770    1.000
    H31      H        0.91290    0.24030    0.29640    1.000
    C32      C        0.81287    0.30617    0.37930    1.000
    H32      H        0.78760    0.32260    0.29780    1.000
    Sm1      Sm       0.00000    0.00000    0.25000    1.000
    Sm2      Sm       0.00000    0.00000    0.75000    1.000
    S1       S        0.18079    0.02778    0.00000    1.000
    O17      O        0.24849    0.09052    0.00000    1.000
    N1       N        0.36960    0.53100    0.00000    1.000
    C33      C        0.23430    0.92500    0.00000    1.000
    C34      C        0.33160    0.77390    0.00000    1.000
    C35      C        0.38320    0.69010    0.00000    1.000
    C36      C        0.33500    0.61360    0.00000    1.000
    C37      C        0.24180    0.60740    0.00000    1.000
    H33      H        0.20230    0.65330    0.00000    1.000
    C38      C        0.22260    0.52110    0.00000    1.000
    H34      H        0.16690    0.49740    0.00000    1.000
    C39      C        0.30170    0.47270    0.00000    1.000
    S2       S        0.81921    0.97222    0.00000    1.000
    O18      O        0.75151    0.90948    0.00000    1.000
    N2       N        0.63040    0.46900    0.00000    1.000
    C40      C        0.76570    0.07500    0.00000    1.000
    C41      C        0.66840    0.22610    0.00000    1.000
    C42      C        0.61680    0.30990    0.00000    1.000
    C43      C        0.66500    0.38640    0.00000    1.000
    C44      C        0.75820    0.39260    0.00000    1.000
    H35      H        0.79770    0.34670    0.00000    1.000
    C45      C        0.77740    0.47890    0.00000    1.000
    H36      H        0.83310    0.50260    0.00000    1.000
    C46      C        0.69830    0.52730    0.00000    1.000
    S3       S        0.97222    0.18079    0.00000    1.000
    O19      O        0.90948    0.24849    0.00000    1.000
    N3       N        0.46900    0.36960    0.00000    1.000
    C47      C        0.07500    0.23430    0.00000    1.000
    C48      C        0.22610    0.33160    0.00000    1.000
    C49      C        0.30990    0.38320    0.00000    1.000
    C50      C        0.38640    0.33500    0.00000    1.000
    C51      C        0.39260    0.24180    0.00000    1.000
    H37      H        0.34670    0.20230    0.00000    1.000
    C52      C        0.47890    0.22260    0.00000    1.000
    H38      H        0.50260    0.16690    0.00000    1.000
    C53      C        0.52730    0.30170    0.00000    1.000
    S4       S        0.02778    0.81921    0.00000    1.000
    O20      O        0.09052    0.75151    0.00000    1.000
    N4       N        0.53100    0.63040    0.00000    1.000
    C54      C        0.92500    0.76570    0.00000    1.000
    C55      C        0.77390    0.66840    0.00000    1.000
    C56      C        0.69010    0.61680    0.00000    1.000
    C57      C        0.61360    0.66500    0.00000    1.000
    C58      C        0.60740    0.75820    0.00000    1.000
    H39      H        0.65330    0.79770    0.00000    1.000
    C59      C        0.52110    0.77740    0.00000    1.000
    H40      H        0.49740    0.83310    0.00000    1.000
    C60      C        0.47270    0.69830    0.00000    1.000
    S5       S        0.81921    0.02778    0.50000    1.000
    O21      O        0.75151    0.09052    0.50000    1.000
    N5       N        0.63040    0.53100    0.50000    1.000
    C61      C        0.76570    0.92500    0.50000    1.000
    C62      C        0.66840    0.77390    0.50000    1.000
    C63      C        0.61680    0.69010    0.50000    1.000
    C64      C        0.66500    0.61360    0.50000    1.000
    C65      C        0.75820    0.60740    0.50000    1.000
    H41      H        0.79770    0.65330    0.50000    1.000
    C66      C        0.77740    0.52110    0.50000    1.000
    H42      H        0.83310    0.49740    0.50000    1.000
    C67      C        0.69830    0.47270    0.50000    1.000
    S6       S        0.18079    0.97222    0.50000    1.000
    O22      O        0.24849    0.90948    0.50000    1.000
    N6       N        0.36960    0.46900    0.50000    1.000
    C68      C        0.23430    0.07500    0.50000    1.000
    C69      C        0.33160    0.22610    0.50000    1.000
    C70      C        0.38320    0.30990    0.50000    1.000
    C71      C        0.33500    0.38640    0.50000    1.000
    C72      C        0.24180    0.39260    0.50000    1.000
    H43      H        0.20230    0.34670    0.50000    1.000
    C73      C        0.22260    0.47890    0.50000    1.000
    H44      H        0.16690    0.50260    0.50000    1.000
    C74      C        0.30170    0.52730    0.50000    1.000
    S7       S        0.02778    0.18079    0.50000    1.000
    O23      O        0.09052    0.24849    0.50000    1.000
    N7       N        0.53100    0.36960    0.50000    1.000
    C75      C        0.92500    0.23430    0.50000    1.000
    C76      C        0.77390    0.33160    0.50000    1.000
    C77      C        0.69010    0.38320    0.50000    1.000
    C78      C        0.61360    0.33500    0.50000    1.000
    C79      C        0.60740    0.24180    0.50000    1.000
    H45      H        0.65330    0.20230    0.50000    1.000
    C80      C        0.52110    0.22260    0.50000    1.000
    H46      H        0.49740    0.16690    0.50000    1.000
    C81      C        0.47270    0.30170    0.50000    1.000
    S8       S        0.97222    0.81921    0.50000    1.000
    O24      O        0.90948    0.75151    0.50000    1.000
    N8       N        0.46900    0.63040    0.50000    1.000
    C82      C        0.07500    0.76570    0.50000    1.000
    C83      C        0.22610    0.66840    0.50000    1.000
    C84      C        0.30990    0.61680    0.50000    1.000
    C85      C        0.38640    0.66500    0.50000    1.000
    C86      C        0.39260    0.75820    0.50000    1.000
    H47      H        0.34670    0.79770    0.50000    1.000
    C87      C        0.47890    0.77740    0.50000    1.000
    H48      H        0.50260    0.83310    0.50000    1.000
    C88      C        0.52730    0.69830    0.50000    1.000
