data_functionalizedCrystal
_audit_creation_method	'EQeq! by Chris Wilmer'
_symmetry_space_group_name_H-M	'P1'
_symmetry_Int_Tables_number	1
_symmetry_cell_setting	triclinic
loop_
_symmetry_equiv_pos_as_xyz
  x,y,z
_cell_length_a	27.908
_cell_length_b	13.845
_cell_length_c	44.236
_cell_angle_alpha	90
_cell_angle_beta	90
_cell_angle_gamma	90
loop_
_atom_site_label
_atom_site_type_symbol
_atom_site_fract_x
_atom_site_fract_y
_atom_site_fract_z
_atom_site_charge
Mof_Zn	Zn	0.45374	0.85923	0.08775	1.163
Mof_Zn	Zn	0.23999	0.18258	0.31968	1.164
Mof_Zn	Zn	0.47623	0.61954	0.91383	1.163
Mof_I 	I 	0.44572	0.67658	0.08409	-0.385
Mof_I 	I 	0.51783	0.94726	0.11766	-0.363
Mof_I 	I 	0.32878	0.18743	0.33249	-0.377
Mof_I 	I 	0.19487	0.34091	0.31181	-0.371
Mof_I 	I 	0.42807	0.70606	0.87375	-0.371
Mof_I 	I 	0.49372	0.69537	0.96553	-0.391
Mof_C 	C 	0.3169	0.8539	0.87428	0.074
Mof_H 	H 	0.3162	0.7854	0.8751	-0.012
Mof_C 	C 	0.3405	0.9038	0.8973	-0.115
Mof_H 	H 	0.355	0.87	0.9136	0.081
Mof_C 	C 	0.2976	0.9945	0.85032	0.079
Mof_H 	H 	0.2824	0.0268	0.8339	-0.016
Mof_C 	C 	0.3205	0.0491	0.8719	-0.126
Mof_H 	H 	0.3215	0.1175	0.8703	0.084
Mof_C 	C 	0.34214	0.0029	0.89588	0.065
Mof_C 	C 	0.36805	0.0582	0.91951	0.103
Mof_C 	C 	0.42657	0.4345	0.89968	0.075
Mof_H 	H 	0.4239	0.4635	0.8803	-0.007
Mof_C 	C 	0.4108	0.3414	0.90333	-0.13
Mof_H 	H 	0.3972	0.3072	0.8868	0.098
Mof_C 	C 	0.44947	0.4445	0.94955	0.075
Mof_H 	H 	0.463	0.4804	0.9657	-0.007
Mof_C 	C 	0.4345	0.3516	0.95498	-0.127
Mof_H 	H 	0.4376	0.3242	0.9746	0.091
Mof_C 	C 	0.41488	0.2982	0.9314	0.054
Mof_C 	C 	0.40161	0.1959	0.93609	0.088
Mof_C 	C 	0.45716	0.0127	0.04117	0.065
Mof_H 	H 	0.4718	0.0481	0.0571	-0.012
Mof_C 	C 	0.44512	0.0604	0.01502	-0.119
Mof_H 	H 	0.4514	0.1276	0.013	0.091
Mof_C 	C 	0.4308	0.8678	0.02194	0.067
Mof_H 	H 	0.4268	0.8	0.0241	-0.004
Mof_C 	C 	0.4173	0.91	0.99477	-0.112
Mof_H 	H 	0.4042	0.8723	0.9788	0.078
Mof_C 	C 	0.42367	0.0093	0.99159	0.05
Mof_C 	C 	0.40763	0.0599	0.96387	0.098
Mof_C 	C 	0.34732	0.8922	0.08989	0.071
Mof_H 	H 	0.3485	0.8717	0.0694	-0.014
Mof_C 	C 	0.30287	0.908	0.10286	-0.118
Mof_H 	H 	0.2742	0.8988	0.0916	0.078
Mof_C 	C 	0.38673	0.9365	0.13345	0.056
Mof_H 	H 	0.4158	0.9488	0.1439	-0.008
Mof_C 	C 	0.34411	0.9518	0.148	-0.113
Mof_H 	H 	0.3439	0.9721	0.1685	0.079
Mof_C 	C 	0.30151	0.9376	0.13289	0.051
Mof_C 	C 	0.25544	0.9516	0.14886	0.102
Mof_C 	C 	0.2683	0.0651	0.26668	0.059
Mof_H 	H 	0.2986	0.0651	0.2765	0.002
Mof_C 	C 	0.26508	0.0265	0.23802	-0.108
Mof_H 	H 	0.2928	0.0023	0.2281	0.079
Mof_C 	C 	0.1873	0.098	0.26769	0.06
Mof_H 	H 	0.1602	0.1231	0.2781	-0.007
Mof_C 	C 	0.1809	0.0579	0.23931	-0.11
Mof_H 	H 	0.1499	0.0541	0.2306	0.078
Mof_C 	C 	0.22074	0.0233	0.22379	0.045
Mof_C 	C 	0.21733	0.9891	0.1923	0.105
Mof_C 	C 	0.0428	0.9317	0.13585	0.073
Mof_H 	H 	0.0137	0.9351	0.1469	-0.01
Mof_C 	C 	0.0854	0.946	0.15111	-0.116
Mof_H 	H 	0.0854	0.9592	0.1722	0.081
Mof_C 	C 	0.08189	0.9103	0.09091	0.072
Mof_H 	H 	0.0808	0.8985	0.0698	-0.009
Mof_C 	C 	0.1262	0.9235	0.10467	-0.116
Mof_H 	H 	0.1548	0.9206	0.0931	0.081
Mof_C 	C 	0.12822	0.9409	0.13507	0.057
Mof_C 	C 	0.17486	0.9524	0.15045	0.1
Mof_N 	N 	0.29565	0.898	0.85139	-0.277
Mof_N 	N 	0.44568	0.4866	0.92235	-0.272
Mof_N 	N 	0.44898	0.9171	0.04512	-0.273
Mof_N 	N 	0.37569	0.1526	0.91496	-0.133
Mof_N 	N 	0.41855	0.1532	0.96118	-0.144
Mof_N 	N 	0.38294	0.0085	0.94371	-0.139
Mof_N 	N 	0.38872	0.9043	0.10468	-0.272
Mof_N 	N 	0.23058	0.1027	0.28109	-0.271
Mof_N 	N 	0.04079	0.9134	0.10634	-0.27
Mof_N 	N 	0.25876	0.976	0.17811	-0.141
Mof_N 	N 	0.17397	0.9782	0.1799	-0.138
Mof_N 	N 	0.21427	0.9385	0.13399	-0.139
Mof_Zn	Zn	0.04626	0.14077	0.58775	1.164
Mof_Zn	Zn	0.26001	0.81742	0.81968	1.165
Mof_Zn	Zn	0.02377	0.38046	0.41383	1.164
Mof_I 	I 	0.05428	0.32342	0.58409	-0.384
Mof_I 	I 	0.98217	0.05274	0.61766	-0.361
Mof_I 	I 	0.17122	0.81257	0.83249	-0.376
Mof_I 	I 	0.30513	0.65909	0.81181	-0.37
Mof_I 	I 	0.07193	0.29394	0.37375	-0.37
Mof_I 	I 	0.00628	0.30463	0.46553	-0.391
Mof_C 	C 	0.1831	0.1461	0.37428	0.074
Mof_H 	H 	0.1838	0.2146	0.3751	-0.012
Mof_C 	C 	0.1595	0.0962	0.3973	-0.116
Mof_H 	H 	0.145	0.13	0.4136	0.081
Mof_C 	C 	0.2024	0.0055	0.35032	0.076
Mof_H 	H 	0.2176	0.9732	0.3339	-0.014
Mof_C 	C 	0.1795	0.9509	0.3719	-0.124
Mof_H 	H 	0.1785	0.8825	0.3703	0.084
Mof_C 	C 	0.15786	0.9971	0.39588	0.065
Mof_C 	C 	0.13195	0.9418	0.41951	0.103
Mof_C 	C 	0.07343	0.5655	0.39968	0.075
Mof_H 	H 	0.0761	0.5365	0.3803	-0.007
Mof_C 	C 	0.0892	0.6586	0.40333	-0.13
Mof_H 	H 	0.1028	0.6928	0.3868	0.098
Mof_C 	C 	0.05053	0.5555	0.44955	0.075
Mof_H 	H 	0.037	0.5196	0.4657	-0.007
Mof_C 	C 	0.0655	0.6484	0.45498	-0.127
Mof_H 	H 	0.0624	0.6758	0.4746	0.091
Mof_C 	C 	0.08512	0.7018	0.4314	0.054
Mof_C 	C 	0.09839	0.8041	0.43609	0.088
Mof_C 	C 	0.04284	0.9873	0.54117	0.067
Mof_H 	H 	0.0282	0.9519	0.5571	-0.013
Mof_C 	C 	0.05488	0.9396	0.51502	-0.12
Mof_H 	H 	0.0486	0.8724	0.513	0.091
Mof_C 	C 	0.0692	0.1322	0.52194	0.067
Mof_H 	H 	0.0732	0.2	0.5241	-0.004
Mof_C 	C 	0.0827	0.09	0.49477	-0.114
Mof_H 	H 	0.0958	0.1277	0.4788	0.078
Mof_C 	C 	0.07633	0.9907	0.49159	0.052
Mof_C 	C 	0.09237	0.9401	0.46387	0.097
Mof_C 	C 	0.15268	0.1078	0.58989	0.071
Mof_H 	H 	0.1515	0.1283	0.5694	-0.014
Mof_C 	C 	0.19713	0.092	0.60286	-0.118
Mof_H 	H 	0.2258	0.1012	0.5916	0.078
Mof_C 	C 	0.11327	0.0635	0.63345	0.056
Mof_H 	H 	0.0842	0.0512	0.6439	-0.009
Mof_C 	C 	0.15589	0.0482	0.648	-0.113
Mof_H 	H 	0.1561	0.0279	0.6685	0.079
Mof_C 	C 	0.19849	0.0624	0.63289	0.051
Mof_C 	C 	0.24456	0.0484	0.64886	0.102
Mof_C 	C 	0.2317	0.9349	0.76668	0.059
Mof_H 	H 	0.2014	0.9349	0.7765	0.002
Mof_C 	C 	0.23492	0.9735	0.73802	-0.108
Mof_H 	H 	0.2072	0.9977	0.7281	0.08
Mof_C 	C 	0.3127	0.902	0.76769	0.061
Mof_H 	H 	0.3398	0.8769	0.7781	-0.007
Mof_C 	C 	0.3191	0.9421	0.73931	-0.111
Mof_H 	H 	0.3501	0.9459	0.7306	0.078
Mof_C 	C 	0.27926	0.9767	0.72379	0.046
Mof_C 	C 	0.28267	0.0109	0.6923	0.105
Mof_C 	C 	0.4572	0.0683	0.63585	0.073
Mof_H 	H 	0.4863	0.0649	0.6469	-0.01
Mof_C 	C 	0.4146	0.054	0.65111	-0.116
Mof_H 	H 	0.4146	0.0408	0.6722	0.081
Mof_C 	C 	0.41811	0.0897	0.59091	0.072
Mof_H 	H 	0.4192	0.1015	0.5698	-0.009
Mof_C 	C 	0.3738	0.0765	0.60467	-0.116
Mof_H 	H 	0.3452	0.0794	0.5931	0.08
Mof_C 	C 	0.37178	0.0591	0.63507	0.056
Mof_C 	C 	0.32514	0.0476	0.65045	0.1
Mof_N 	N 	0.20435	0.102	0.35139	-0.276
Mof_N 	N 	0.05432	0.5134	0.42235	-0.272
Mof_N 	N 	0.05102	0.0829	0.54512	-0.273
Mof_N 	N 	0.12431	0.8474	0.41496	-0.133
Mof_N 	N 	0.08145	0.8468	0.46118	-0.143
Mof_N 	N 	0.11706	0.9915	0.44371	-0.139
Mof_N 	N 	0.11128	0.0957	0.60468	-0.272
Mof_N 	N 	0.26942	0.8973	0.78109	-0.271
Mof_N 	N 	0.45921	0.0866	0.60634	-0.271
Mof_N 	N 	0.24124	0.024	0.67811	-0.141
Mof_N 	N 	0.32603	0.0218	0.6799	-0.138
Mof_N 	N 	0.28573	0.0615	0.63399	-0.139
Mof_Zn	Zn	0.54626	0.35923	0.41225	1.164
Mof_Zn	Zn	0.76001	0.68258	0.18032	1.165
Mof_Zn	Zn	0.52377	0.11954	0.58617	1.164
Mof_I 	I 	0.55428	0.17658	0.41591	-0.383
Mof_I 	I 	0.48217	0.44726	0.38234	-0.362
Mof_I 	I 	0.67122	0.68743	0.16751	-0.376
Mof_I 	I 	0.80513	0.84091	0.18819	-0.37
Mof_I 	I 	0.57193	0.20606	0.62625	-0.37
Mof_I 	I 	0.50628	0.19537	0.53447	-0.391
Mof_C 	C 	0.6831	0.3539	0.62572	0.074
Mof_H 	H 	0.6838	0.2854	0.6249	-0.012
Mof_C 	C 	0.6595	0.4038	0.6027	-0.115
Mof_H 	H 	0.645	0.37	0.5864	0.081
Mof_C 	C 	0.7024	0.4945	0.64968	0.078
Mof_H 	H 	0.7176	0.5268	0.6661	-0.015
Mof_C 	C 	0.6795	0.5491	0.6281	-0.125
Mof_H 	H 	0.6785	0.6175	0.6297	0.084
Mof_C 	C 	0.65786	0.5029	0.60412	0.065
Mof_C 	C 	0.63195	0.5582	0.58049	0.103
Mof_C 	C 	0.57343	0.9345	0.60032	0.075
Mof_H 	H 	0.5761	0.9635	0.6197	-0.007
Mof_C 	C 	0.5892	0.8414	0.59667	-0.13
Mof_H 	H 	0.6028	0.8072	0.6132	0.098
Mof_C 	C 	0.55053	0.9445	0.55045	0.075
Mof_H 	H 	0.537	0.9804	0.5343	-0.007
Mof_C 	C 	0.5655	0.8516	0.54502	-0.127
Mof_H 	H 	0.5624	0.8242	0.5254	0.091
Mof_C 	C 	0.58512	0.7982	0.5686	0.054
Mof_C 	C 	0.59839	0.6959	0.56391	0.088
Mof_C 	C 	0.54284	0.5127	0.45883	0.065
Mof_H 	H 	0.5282	0.5481	0.4429	-0.012
Mof_C 	C 	0.55488	0.5604	0.48498	-0.119
Mof_H 	H 	0.5486	0.6276	0.487	0.091
Mof_C 	C 	0.5692	0.3678	0.47806	0.067
Mof_H 	H 	0.5732	0.3	0.4759	-0.004
Mof_C 	C 	0.5827	0.41	0.50523	-0.113
Mof_H 	H 	0.5958	0.3723	0.5212	0.078
Mof_C 	C 	0.57633	0.5093	0.50841	0.051
Mof_C 	C 	0.59237	0.5599	0.53613	0.098
Mof_C 	C 	0.65268	0.3922	0.41011	0.071
Mof_H 	H 	0.6515	0.3717	0.4306	-0.014
Mof_C 	C 	0.69713	0.408	0.39714	-0.118
Mof_H 	H 	0.7258	0.3988	0.4084	0.078
Mof_C 	C 	0.61327	0.4365	0.36655	0.056
Mof_H 	H 	0.5842	0.4488	0.3561	-0.008
Mof_C 	C 	0.65589	0.4518	0.352	-0.113
Mof_H 	H 	0.6561	0.4721	0.3315	0.079
Mof_C 	C 	0.69849	0.4376	0.36711	0.051
Mof_C 	C 	0.74456	0.4516	0.35114	0.102
Mof_C 	C 	0.7317	0.5651	0.23332	0.059
Mof_H 	H 	0.7014	0.5651	0.2235	0.002
Mof_C 	C 	0.73492	0.5265	0.26198	-0.108
Mof_H 	H 	0.7072	0.5023	0.2719	0.08
Mof_C 	C 	0.8127	0.598	0.23231	0.06
Mof_H 	H 	0.8398	0.6231	0.2219	-0.007
Mof_C 	C 	0.8191	0.5579	0.26069	-0.11
Mof_H 	H 	0.8501	0.5541	0.2694	0.078
Mof_C 	C 	0.77926	0.5233	0.27621	0.045
Mof_C 	C 	0.78267	0.4891	0.3077	0.105
Mof_C 	C 	0.9572	0.4317	0.36415	0.073
Mof_H 	H 	0.9863	0.4351	0.3531	-0.01
Mof_C 	C 	0.9146	0.446	0.34889	-0.116
Mof_H 	H 	0.9146	0.4592	0.3278	0.081
Mof_C 	C 	0.91811	0.4103	0.40909	0.072
Mof_H 	H 	0.9192	0.3985	0.4302	-0.009
Mof_C 	C 	0.8738	0.4235	0.39533	-0.116
Mof_H 	H 	0.8452	0.4206	0.4069	0.081
Mof_C 	C 	0.87178	0.4409	0.36493	0.057
Mof_C 	C 	0.82514	0.4524	0.34955	0.1
Mof_N 	N 	0.70435	0.398	0.64861	-0.277
Mof_N 	N 	0.55432	0.9866	0.57765	-0.273
Mof_N 	N 	0.55102	0.4171	0.45488	-0.273
Mof_N 	N 	0.62431	0.6526	0.58504	-0.133
Mof_N 	N 	0.58145	0.6532	0.53882	-0.143
Mof_N 	N 	0.61706	0.5085	0.55629	-0.139
Mof_N 	N 	0.61128	0.4043	0.39532	-0.272
Mof_N 	N 	0.76942	0.6027	0.21891	-0.271
Mof_N 	N 	0.95921	0.4134	0.39366	-0.27
Mof_N 	N 	0.74124	0.476	0.32189	-0.141
Mof_N 	N 	0.82603	0.4782	0.3201	-0.138
Mof_N 	N 	0.78573	0.4385	0.36601	-0.139
Mof_Zn	Zn	0.95374	0.64077	0.91225	1.164
Mof_Zn	Zn	0.73999	0.31742	0.68032	1.165
Mof_Zn	Zn	0.97623	0.88046	0.08617	1.164
Mof_I 	I 	0.94572	0.82342	0.91591	-0.384
Mof_I 	I 	0.01783	0.55274	0.88234	-0.362
Mof_I 	I 	0.82878	0.31257	0.66751	-0.376
Mof_I 	I 	0.69487	0.15909	0.68819	-0.37
Mof_I 	I 	0.92807	0.79394	0.12625	-0.37
Mof_I 	I 	0.99372	0.80463	0.03447	-0.392
Mof_C 	C 	0.8169	0.6461	0.12572	0.074
Mof_H 	H 	0.8162	0.7146	0.1249	-0.012
Mof_C 	C 	0.8405	0.5962	0.1027	-0.115
Mof_H 	H 	0.855	0.63	0.0864	0.081
Mof_C 	C 	0.7976	0.5055	0.14968	0.078
Mof_H 	H 	0.7824	0.4732	0.1661	-0.015
Mof_C 	C 	0.8205	0.4509	0.1281	-0.125
Mof_H 	H 	0.8215	0.3825	0.1297	0.084
Mof_C 	C 	0.84214	0.4971	0.10412	0.065
Mof_C 	C 	0.86805	0.4418	0.08049	0.103
Mof_C 	C 	0.92657	0.0655	0.10032	0.075
Mof_H 	H 	0.9239	0.0365	0.1197	-0.007
Mof_C 	C 	0.9108	0.1586	0.09667	-0.13
Mof_H 	H 	0.8972	0.1928	0.1132	0.098
Mof_C 	C 	0.94947	0.0555	0.05045	0.075
Mof_H 	H 	0.963	0.0196	0.0343	-0.006
Mof_C 	C 	0.9345	0.1484	0.04502	-0.127
Mof_H 	H 	0.9376	0.1758	0.0254	0.091
Mof_C 	C 	0.91488	0.2018	0.0686	0.054
Mof_C 	C 	0.90161	0.3041	0.06391	0.088
Mof_C 	C 	0.95716	0.4873	0.95883	0.065
Mof_H 	H 	0.9718	0.4519	0.9429	-0.012
Mof_C 	C 	0.94512	0.4396	0.98498	-0.119
Mof_H 	H 	0.9514	0.3724	0.987	0.091
Mof_C 	C 	0.9308	0.6322	0.97806	0.067
Mof_H 	H 	0.9268	0.7	0.9759	-0.004
Mof_C 	C 	0.9173	0.59	0.00523	-0.113
Mof_H 	H 	0.9042	0.6277	0.0212	0.078
Mof_C 	C 	0.92367	0.4907	0.00841	0.051
Mof_C 	C 	0.90763	0.4401	0.03613	0.098
Mof_C 	C 	0.84732	0.6078	0.91011	0.071
Mof_H 	H 	0.8485	0.6283	0.9306	-0.014
Mof_C 	C 	0.80287	0.592	0.89714	-0.118
Mof_H 	H 	0.7742	0.6012	0.9084	0.078
Mof_C 	C 	0.88673	0.5635	0.86655	0.056
Mof_H 	H 	0.9158	0.5512	0.8561	-0.008
Mof_C 	C 	0.84411	0.5482	0.852	-0.113
Mof_H 	H 	0.8439	0.5279	0.8315	0.079
Mof_C 	C 	0.80151	0.5624	0.86711	0.051
Mof_C 	C 	0.75544	0.5484	0.85114	0.102
Mof_C 	C 	0.7683	0.4349	0.73332	0.059
Mof_H 	H 	0.7986	0.4349	0.7235	0.002
Mof_C 	C 	0.76508	0.4735	0.76198	-0.108
Mof_H 	H 	0.7928	0.4977	0.7719	0.08
Mof_C 	C 	0.6873	0.402	0.73231	0.06
Mof_H 	H 	0.6602	0.3769	0.7219	-0.007
Mof_C 	C 	0.6809	0.4421	0.76069	-0.11
Mof_H 	H 	0.6499	0.4459	0.7694	0.078
Mof_C 	C 	0.72074	0.4767	0.77621	0.045
Mof_C 	C 	0.71733	0.5109	0.8077	0.105
Mof_C 	C 	0.5428	0.5683	0.86415	0.073
Mof_H 	H 	0.5137	0.5649	0.8531	-0.01
Mof_C 	C 	0.5854	0.554	0.84889	-0.116
Mof_H 	H 	0.5854	0.5408	0.8278	0.081
Mof_C 	C 	0.58189	0.5897	0.90909	0.072
Mof_H 	H 	0.5808	0.6015	0.9302	-0.009
Mof_C 	C 	0.6262	0.5765	0.89533	-0.116
Mof_H 	H 	0.6548	0.5794	0.9069	0.081
Mof_C 	C 	0.62822	0.5591	0.86493	0.056
Mof_C 	C 	0.67486	0.5476	0.84955	0.1
Mof_N 	N 	0.79565	0.602	0.14861	-0.277
Mof_N 	N 	0.94568	0.0134	0.07765	-0.272
Mof_N 	N 	0.94898	0.5829	0.95488	-0.273
Mof_N 	N 	0.87569	0.3474	0.08504	-0.133
Mof_N 	N 	0.91855	0.3468	0.03882	-0.143
Mof_N 	N 	0.88294	0.4915	0.05629	-0.139
Mof_N 	N 	0.88872	0.5957	0.89532	-0.272
Mof_N 	N 	0.73058	0.3973	0.71891	-0.271
Mof_N 	N 	0.54079	0.5866	0.89366	-0.271
Mof_N 	N 	0.75876	0.524	0.82189	-0.141
Mof_N 	N 	0.67397	0.5218	0.8201	-0.138
Mof_N 	N 	0.71427	0.5615	0.86601	-0.139
Mof_Zn	Zn	0.54626	0.14077	0.91225	1.164
Mof_Zn	Zn	0.76001	0.81742	0.68032	1.165
Mof_Zn	Zn	0.52377	0.38046	0.08617	1.164
Mof_I 	I 	0.55428	0.32342	0.91591	-0.384
Mof_I 	I 	0.48217	0.05274	0.88234	-0.362
Mof_I 	I 	0.67122	0.81257	0.66751	-0.376
Mof_I 	I 	0.80513	0.65909	0.68819	-0.37
Mof_I 	I 	0.57193	0.29394	0.12625	-0.37
Mof_I 	I 	0.50628	0.30463	0.03447	-0.391
Mof_C 	C 	0.6831	0.1461	0.12572	0.074
Mof_H 	H 	0.6838	0.2146	0.1249	-0.012
Mof_C 	C 	0.6595	0.0962	0.1027	-0.115
Mof_H 	H 	0.645	0.13	0.0864	0.081
Mof_C 	C 	0.7024	0.0055	0.14968	0.079
Mof_H 	H 	0.7176	0.9732	0.1661	-0.016
Mof_C 	C 	0.6795	0.9509	0.1281	-0.126
Mof_H 	H 	0.6785	0.8825	0.1297	0.084
Mof_C 	C 	0.65786	0.9971	0.10412	0.065
Mof_C 	C 	0.63195	0.9418	0.08049	0.103
Mof_C 	C 	0.57343	0.5655	0.10032	0.075
Mof_H 	H 	0.5761	0.5365	0.1197	-0.007
Mof_C 	C 	0.5892	0.6586	0.09667	-0.13
Mof_H 	H 	0.6028	0.6928	0.1132	0.098
Mof_C 	C 	0.55053	0.5555	0.05045	0.075
Mof_H 	H 	0.537	0.5196	0.0343	-0.007
Mof_C 	C 	0.5655	0.6484	0.04502	-0.127
Mof_H 	H 	0.5624	0.6758	0.0254	0.091
Mof_C 	C 	0.58512	0.7018	0.0686	0.054
Mof_C 	C 	0.59839	0.8041	0.06391	0.088
Mof_C 	C 	0.54284	0.9873	0.95883	0.065
Mof_H 	H 	0.5282	0.9519	0.9429	-0.012
Mof_C 	C 	0.55488	0.9396	0.98498	-0.119
Mof_H 	H 	0.5486	0.8724	0.987	0.091
Mof_C 	C 	0.5692	0.1322	0.97806	0.067
Mof_H 	H 	0.5732	0.2	0.9759	-0.004
Mof_C 	C 	0.5827	0.09	0.00523	-0.112
Mof_H 	H 	0.5958	0.1277	0.0212	0.078
Mof_C 	C 	0.57633	0.9907	0.00841	0.05
Mof_C 	C 	0.59237	0.9401	0.03613	0.098
Mof_C 	C 	0.65268	0.1078	0.91011	0.071
Mof_H 	H 	0.6515	0.1283	0.9306	-0.014
Mof_C 	C 	0.69713	0.092	0.89714	-0.118
Mof_H 	H 	0.7258	0.1012	0.9084	0.078
Mof_C 	C 	0.61327	0.0635	0.86655	0.056
Mof_H 	H 	0.5842	0.0512	0.8561	-0.008
Mof_C 	C 	0.65589	0.0482	0.852	-0.113
Mof_H 	H 	0.6561	0.0279	0.8315	0.079
Mof_C 	C 	0.69849	0.0624	0.86711	0.051
Mof_C 	C 	0.74456	0.0484	0.85114	0.102
Mof_C 	C 	0.7317	0.9349	0.73332	0.059
Mof_H 	H 	0.7014	0.9349	0.7235	0.002
Mof_C 	C 	0.73492	0.9735	0.76198	-0.108
Mof_H 	H 	0.7072	0.9977	0.7719	0.079
Mof_C 	C 	0.8127	0.902	0.73231	0.06
Mof_H 	H 	0.8398	0.8769	0.7219	-0.007
Mof_C 	C 	0.8191	0.9421	0.76069	-0.11
Mof_H 	H 	0.8501	0.9459	0.7694	0.078
Mof_C 	C 	0.77926	0.9767	0.77621	0.045
Mof_C 	C 	0.78267	0.0109	0.8077	0.105
Mof_C 	C 	0.9572	0.0683	0.86415	0.073
Mof_H 	H 	0.9863	0.0649	0.8531	-0.01
Mof_C 	C 	0.9146	0.054	0.84889	-0.116
Mof_H 	H 	0.9146	0.0408	0.8278	0.081
Mof_C 	C 	0.91811	0.0897	0.90909	0.072
Mof_H 	H 	0.9192	0.1015	0.9302	-0.009
Mof_C 	C 	0.8738	0.0765	0.89533	-0.116
Mof_H 	H 	0.8452	0.0794	0.9069	0.081
Mof_C 	C 	0.87178	0.0591	0.86493	0.057
Mof_C 	C 	0.82514	0.0476	0.84955	0.1
Mof_N 	N 	0.70435	0.102	0.14861	-0.277
Mof_N 	N 	0.55432	0.5134	0.07765	-0.272
Mof_N 	N 	0.55102	0.0829	0.95488	-0.273
Mof_N 	N 	0.62431	0.8474	0.08504	-0.133
Mof_N 	N 	0.58145	0.8468	0.03882	-0.144
Mof_N 	N 	0.61706	0.9915	0.05629	-0.139
Mof_N 	N 	0.61128	0.0957	0.89532	-0.272
Mof_N 	N 	0.76942	0.8973	0.71891	-0.271
Mof_N 	N 	0.95921	0.0866	0.89366	-0.27
Mof_N 	N 	0.74124	0.024	0.82189	-0.141
Mof_N 	N 	0.82603	0.0218	0.8201	-0.138
Mof_N 	N 	0.78573	0.0615	0.86601	-0.139
Mof_Zn	Zn	0.95374	0.85923	0.41225	1.164
Mof_Zn	Zn	0.73999	0.18258	0.18032	1.165
Mof_Zn	Zn	0.97623	0.61954	0.58617	1.164
Mof_I 	I 	0.94572	0.67658	0.41591	-0.384
Mof_I 	I 	0.01783	0.94726	0.38234	-0.361
Mof_I 	I 	0.82878	0.18743	0.16751	-0.376
Mof_I 	I 	0.69487	0.34091	0.18819	-0.37
Mof_I 	I 	0.92807	0.70606	0.62625	-0.37
Mof_I 	I 	0.99372	0.69537	0.53447	-0.391
Mof_C 	C 	0.8169	0.8539	0.62572	0.074
Mof_H 	H 	0.8162	0.7854	0.6249	-0.012
Mof_C 	C 	0.8405	0.9038	0.6027	-0.116
Mof_H 	H 	0.855	0.87	0.5864	0.081
Mof_C 	C 	0.7976	0.9945	0.64968	0.076
Mof_H 	H 	0.7824	0.0268	0.6661	-0.014
Mof_C 	C 	0.8205	0.0491	0.6281	-0.124
Mof_H 	H 	0.8215	0.1175	0.6297	0.084
Mof_C 	C 	0.84214	0.0029	0.60412	0.065
Mof_C 	C 	0.86805	0.0582	0.58049	0.103
Mof_C 	C 	0.92657	0.4345	0.60032	0.075
Mof_H 	H 	0.9239	0.4635	0.6197	-0.007
Mof_C 	C 	0.9108	0.3414	0.59667	-0.13
Mof_H 	H 	0.8972	0.3072	0.6132	0.098
Mof_C 	C 	0.94947	0.4445	0.55045	0.075
Mof_H 	H 	0.963	0.4804	0.5343	-0.007
Mof_C 	C 	0.9345	0.3516	0.54502	-0.127
Mof_H 	H 	0.9376	0.3242	0.5254	0.091
Mof_C 	C 	0.91488	0.2982	0.5686	0.054
Mof_C 	C 	0.90161	0.1959	0.56391	0.088
Mof_C 	C 	0.95716	0.0127	0.45883	0.067
Mof_H 	H 	0.9718	0.0481	0.4429	-0.013
Mof_C 	C 	0.94512	0.0604	0.48498	-0.12
Mof_H 	H 	0.9514	0.1276	0.487	0.091
Mof_C 	C 	0.9308	0.8678	0.47806	0.067
Mof_H 	H 	0.9268	0.8	0.4759	-0.004
Mof_C 	C 	0.9173	0.91	0.50523	-0.114
Mof_H 	H 	0.9042	0.8723	0.5212	0.078
Mof_C 	C 	0.92367	0.0093	0.50841	0.052
Mof_C 	C 	0.90763	0.0599	0.53613	0.097
Mof_C 	C 	0.84732	0.8922	0.41011	0.071
Mof_H 	H 	0.8485	0.8717	0.4306	-0.014
Mof_C 	C 	0.80287	0.908	0.39714	-0.118
Mof_H 	H 	0.7742	0.8988	0.4084	0.078
Mof_C 	C 	0.88673	0.9365	0.36655	0.056
Mof_H 	H 	0.9158	0.9488	0.3561	-0.009
Mof_C 	C 	0.84411	0.9518	0.352	-0.113
Mof_H 	H 	0.8439	0.9721	0.3315	0.079
Mof_C 	C 	0.80151	0.9376	0.36711	0.051
Mof_C 	C 	0.75544	0.9516	0.35114	0.102
Mof_C 	C 	0.7683	0.0651	0.23332	0.059
Mof_H 	H 	0.7986	0.0651	0.2235	0.002
Mof_C 	C 	0.76508	0.0265	0.26198	-0.108
Mof_H 	H 	0.7928	0.0023	0.2719	0.08
Mof_C 	C 	0.6873	0.098	0.23231	0.061
Mof_H 	H 	0.6602	0.1231	0.2219	-0.007
Mof_C 	C 	0.6809	0.0579	0.26069	-0.111
Mof_H 	H 	0.6499	0.0541	0.2694	0.078
Mof_C 	C 	0.72074	0.0233	0.27621	0.046
Mof_C 	C 	0.71733	0.9891	0.3077	0.105
Mof_C 	C 	0.5428	0.9317	0.36415	0.073
Mof_H 	H 	0.5137	0.9351	0.3531	-0.01
Mof_C 	C 	0.5854	0.946	0.34889	-0.116
Mof_H 	H 	0.5854	0.9592	0.3278	0.081
Mof_C 	C 	0.58189	0.9103	0.40909	0.072
Mof_H 	H 	0.5808	0.8985	0.4302	-0.009
Mof_C 	C 	0.6262	0.9235	0.39533	-0.116
Mof_H 	H 	0.6548	0.9206	0.4069	0.08
Mof_C 	C 	0.62822	0.9409	0.36493	0.056
Mof_C 	C 	0.67486	0.9524	0.34955	0.1
Mof_N 	N 	0.79565	0.898	0.64861	-0.276
Mof_N 	N 	0.94568	0.4866	0.57765	-0.272
Mof_N 	N 	0.94898	0.9171	0.45488	-0.273
Mof_N 	N 	0.87569	0.1526	0.58504	-0.133
Mof_N 	N 	0.91855	0.1532	0.53882	-0.143
Mof_N 	N 	0.88294	0.0085	0.55629	-0.139
Mof_N 	N 	0.88872	0.9043	0.39532	-0.272
Mof_N 	N 	0.73058	0.1027	0.21891	-0.271
Mof_N 	N 	0.54079	0.9134	0.39366	-0.271
Mof_N 	N 	0.75876	0.976	0.32189	-0.141
Mof_N 	N 	0.67397	0.9782	0.3201	-0.138
Mof_N 	N 	0.71427	0.9385	0.36601	-0.139
Mof_Zn	Zn	0.45374	0.64077	0.58775	1.164
Mof_Zn	Zn	0.23999	0.31742	0.81968	1.165
Mof_Zn	Zn	0.47623	0.88046	0.41383	1.164
Mof_I 	I 	0.44572	0.82342	0.58409	-0.383
Mof_I 	I 	0.51783	0.55274	0.61766	-0.362
Mof_I 	I 	0.32878	0.31257	0.83249	-0.376
Mof_I 	I 	0.19487	0.15909	0.81181	-0.37
Mof_I 	I 	0.42807	0.79394	0.37375	-0.37
Mof_I 	I 	0.49372	0.80463	0.46553	-0.391
Mof_C 	C 	0.3169	0.6461	0.37428	0.074
Mof_H 	H 	0.3162	0.7146	0.3751	-0.012
Mof_C 	C 	0.3405	0.5962	0.3973	-0.115
Mof_H 	H 	0.355	0.63	0.4136	0.081
Mof_C 	C 	0.2976	0.5055	0.35032	0.078
Mof_H 	H 	0.2824	0.4732	0.3339	-0.015
Mof_C 	C 	0.3205	0.4509	0.3719	-0.125
Mof_H 	H 	0.3215	0.3825	0.3703	0.084
Mof_C 	C 	0.34214	0.4971	0.39588	0.065
Mof_C 	C 	0.36805	0.4418	0.41951	0.103
Mof_C 	C 	0.42657	0.0655	0.39968	0.075
Mof_H 	H 	0.4239	0.0365	0.3803	-0.007
Mof_C 	C 	0.4108	0.1586	0.40333	-0.13
Mof_H 	H 	0.3972	0.1928	0.3868	0.098
Mof_C 	C 	0.44947	0.0555	0.44955	0.075
Mof_H 	H 	0.463	0.0196	0.4657	-0.007
Mof_C 	C 	0.4345	0.1484	0.45498	-0.127
Mof_H 	H 	0.4376	0.1758	0.4746	0.091
Mof_C 	C 	0.41488	0.2018	0.4314	0.054
Mof_C 	C 	0.40161	0.3041	0.43609	0.088
Mof_C 	C 	0.45716	0.4873	0.54117	0.065
Mof_H 	H 	0.4718	0.4519	0.5571	-0.012
Mof_C 	C 	0.44512	0.4396	0.51502	-0.119
Mof_H 	H 	0.4514	0.3724	0.513	0.091
Mof_C 	C 	0.4308	0.6322	0.52194	0.067
Mof_H 	H 	0.4268	0.7	0.5241	-0.004
Mof_C 	C 	0.4173	0.59	0.49477	-0.113
Mof_H 	H 	0.4042	0.6277	0.4788	0.078
Mof_C 	C 	0.42367	0.4907	0.49159	0.051
Mof_C 	C 	0.40763	0.4401	0.46387	0.098
Mof_C 	C 	0.34732	0.6078	0.58989	0.071
Mof_H 	H 	0.3485	0.6283	0.5694	-0.014
Mof_C 	C 	0.30287	0.592	0.60286	-0.118
Mof_H 	H 	0.2742	0.6012	0.5916	0.078
Mof_C 	C 	0.38673	0.5635	0.63345	0.056
Mof_H 	H 	0.4158	0.5512	0.6439	-0.008
Mof_C 	C 	0.34411	0.5482	0.648	-0.113
Mof_H 	H 	0.3439	0.5279	0.6685	0.079
Mof_C 	C 	0.30151	0.5624	0.63289	0.051
Mof_C 	C 	0.25544	0.5484	0.64886	0.102
Mof_C 	C 	0.2683	0.4349	0.76668	0.059
Mof_H 	H 	0.2986	0.4349	0.7765	0.002
Mof_C 	C 	0.26508	0.4735	0.73802	-0.108
Mof_H 	H 	0.2928	0.4977	0.7281	0.08
Mof_C 	C 	0.1873	0.402	0.76769	0.06
Mof_H 	H 	0.1602	0.3769	0.7781	-0.007
Mof_C 	C 	0.1809	0.4421	0.73931	-0.11
Mof_H 	H 	0.1499	0.4459	0.7306	0.078
Mof_C 	C 	0.22074	0.4767	0.72379	0.045
Mof_C 	C 	0.21733	0.5109	0.6923	0.105
Mof_C 	C 	0.0428	0.5683	0.63585	0.073
Mof_H 	H 	0.0137	0.5649	0.6469	-0.01
Mof_C 	C 	0.0854	0.554	0.65111	-0.116
Mof_H 	H 	0.0854	0.5408	0.6722	0.081
Mof_C 	C 	0.08189	0.5897	0.59091	0.072
Mof_H 	H 	0.0808	0.6015	0.5698	-0.009
Mof_C 	C 	0.1262	0.5765	0.60467	-0.116
Mof_H 	H 	0.1548	0.5794	0.5931	0.081
Mof_C 	C 	0.12822	0.5591	0.63507	0.057
Mof_C 	C 	0.17486	0.5476	0.65045	0.1
Mof_N 	N 	0.29565	0.602	0.35139	-0.277
Mof_N 	N 	0.44568	0.0134	0.42235	-0.273
Mof_N 	N 	0.44898	0.5829	0.54512	-0.273
Mof_N 	N 	0.37569	0.3474	0.41496	-0.133
Mof_N 	N 	0.41855	0.3468	0.46118	-0.143
Mof_N 	N 	0.38294	0.4915	0.44371	-0.139
Mof_N 	N 	0.38872	0.5957	0.60468	-0.272
Mof_N 	N 	0.23058	0.3973	0.78109	-0.271
Mof_N 	N 	0.04079	0.5866	0.60634	-0.27
Mof_N 	N 	0.25876	0.524	0.67811	-0.141
Mof_N 	N 	0.17397	0.5218	0.6799	-0.138
Mof_N 	N 	0.21427	0.5615	0.63399	-0.139
Mof_Zn	Zn	0.04626	0.35923	0.08775	1.164
Mof_Zn	Zn	0.26001	0.68258	0.31968	1.165
Mof_Zn	Zn	0.02377	0.11954	0.91383	1.164
Mof_I 	I 	0.05428	0.17658	0.08409	-0.384
Mof_I 	I 	0.98217	0.44726	0.11766	-0.362
Mof_I 	I 	0.17122	0.68743	0.33249	-0.376
Mof_I 	I 	0.30513	0.84091	0.31181	-0.37
Mof_I 	I 	0.07193	0.20606	0.87375	-0.37
Mof_I 	I 	0.00628	0.19537	0.96553	-0.392
Mof_C 	C 	0.1831	0.3539	0.87428	0.074
Mof_H 	H 	0.1838	0.2854	0.8751	-0.012
Mof_C 	C 	0.1595	0.4038	0.8973	-0.115
Mof_H 	H 	0.145	0.37	0.9136	0.081
Mof_C 	C 	0.2024	0.4945	0.85032	0.078
Mof_H 	H 	0.2176	0.5268	0.8339	-0.015
Mof_C 	C 	0.1795	0.5491	0.8719	-0.125
Mof_H 	H 	0.1785	0.6175	0.8703	0.084
Mof_C 	C 	0.15786	0.5029	0.89588	0.065
Mof_C 	C 	0.13195	0.5582	0.91951	0.103
Mof_C 	C 	0.07343	0.9345	0.89968	0.075
Mof_H 	H 	0.0761	0.9635	0.8803	-0.007
Mof_C 	C 	0.0892	0.8414	0.90333	-0.13
Mof_H 	H 	0.1028	0.8072	0.8868	0.098
Mof_C 	C 	0.05053	0.9445	0.94955	0.075
Mof_H 	H 	0.037	0.9804	0.9657	-0.006
Mof_C 	C 	0.0655	0.8516	0.95498	-0.127
Mof_H 	H 	0.0624	0.8242	0.9746	0.091
Mof_C 	C 	0.08512	0.7982	0.9314	0.054
Mof_C 	C 	0.09839	0.6959	0.93609	0.088
Mof_C 	C 	0.04284	0.5127	0.04117	0.065
Mof_H 	H 	0.0282	0.5481	0.0571	-0.012
Mof_C 	C 	0.05488	0.5604	0.01502	-0.119
Mof_H 	H 	0.0486	0.6276	0.013	0.091
Mof_C 	C 	0.0692	0.3678	0.02194	0.067
Mof_H 	H 	0.0732	0.3	0.0241	-0.004
Mof_C 	C 	0.0827	0.41	0.99477	-0.113
Mof_H 	H 	0.0958	0.3723	0.9788	0.078
Mof_C 	C 	0.07633	0.5093	0.99159	0.051
Mof_C 	C 	0.09237	0.5599	0.96387	0.098
Mof_C 	C 	0.15268	0.3922	0.08989	0.071
Mof_H 	H 	0.1515	0.3717	0.0694	-0.014
Mof_C 	C 	0.19713	0.408	0.10286	-0.118
Mof_H 	H 	0.2258	0.3988	0.0916	0.078
Mof_C 	C 	0.11327	0.4365	0.13345	0.056
Mof_H 	H 	0.0842	0.4488	0.1439	-0.008
Mof_C 	C 	0.15589	0.4518	0.148	-0.113
Mof_H 	H 	0.1561	0.4721	0.1685	0.079
Mof_C 	C 	0.19849	0.4376	0.13289	0.051
Mof_C 	C 	0.24456	0.4516	0.14886	0.102
Mof_C 	C 	0.2317	0.5651	0.26668	0.059
Mof_H 	H 	0.2014	0.5651	0.2765	0.002
Mof_C 	C 	0.23492	0.5265	0.23802	-0.108
Mof_H 	H 	0.2072	0.5023	0.2281	0.08
Mof_C 	C 	0.3127	0.598	0.26769	0.06
Mof_H 	H 	0.3398	0.6231	0.2781	-0.007
Mof_C 	C 	0.3191	0.5579	0.23931	-0.11
Mof_H 	H 	0.3501	0.5541	0.2306	0.078
Mof_C 	C 	0.27926	0.5233	0.22379	0.045
Mof_C 	C 	0.28267	0.4891	0.1923	0.105
Mof_C 	C 	0.4572	0.4317	0.13585	0.073
Mof_H 	H 	0.4863	0.4351	0.1469	-0.01
Mof_C 	C 	0.4146	0.446	0.15111	-0.116
Mof_H 	H 	0.4146	0.4592	0.1722	0.081
Mof_C 	C 	0.41811	0.4103	0.09091	0.072
Mof_H 	H 	0.4192	0.3985	0.0698	-0.009
Mof_C 	C 	0.3738	0.4235	0.10467	-0.116
Mof_H 	H 	0.3452	0.4206	0.0931	0.081
Mof_C 	C 	0.37178	0.4409	0.13507	0.056
Mof_C 	C 	0.32514	0.4524	0.15045	0.1
Mof_N 	N 	0.20435	0.398	0.85139	-0.277
Mof_N 	N 	0.05432	0.9866	0.92235	-0.272
Mof_N 	N 	0.05102	0.4171	0.04512	-0.273
Mof_N 	N 	0.12431	0.6526	0.91496	-0.133
Mof_N 	N 	0.08145	0.6532	0.96118	-0.143
Mof_N 	N 	0.11706	0.5085	0.94371	-0.139
Mof_N 	N 	0.11128	0.4043	0.10468	-0.272
Mof_N 	N 	0.26942	0.6027	0.28109	-0.271
Mof_N 	N 	0.45921	0.4134	0.10634	-0.271
Mof_N 	N 	0.24124	0.476	0.17811	-0.141
Mof_N 	N 	0.32603	0.4782	0.1799	-0.138
Mof_N 	N 	0.28573	0.4385	0.13399	-0.139
_end
