# CIF file generated by openbabel 3.1.0, see https://openbabel.org
data_I
_chemical_name_common 'image0'
_cell_length_a 9.7111
_cell_length_b 16.7387
_cell_length_c 18.0226
_cell_angle_alpha 90
_cell_angle_beta 90.29
_cell_angle_gamma 90
_space_group_name_H-M_alt 'P 1'
_space_group_name_Hall 'P 1'
loop_
    _symmetry_equiv_pos_as_xyz
    x,y,z
loop_
    _atom_site_label
    _atom_site_type_symbol
    _atom_site_fract_x
    _atom_site_fract_y
    _atom_site_fract_z
    _atom_site_occupancy
    U1       U        0.88808    0.71409    0.50330    1.000
    U2       U        0.39974    0.70951    0.78784    1.000
    P1       P        0.58690    0.64918    0.61129    1.000
    P2       P        0.52320    0.68719    0.45171    1.000
    P3       P        0.02080    0.74901    0.80997    1.000
    P4       P        0.08990    0.64997    0.67464    1.000
    O1       O        0.67400    0.71320    0.44570    1.000
    O2       O        0.01760    0.69430    0.61450    1.000
    O3       O        0.92690    0.75140    0.87590    1.000
    O4       O        0.73190    0.68210    0.60190    1.000
    O5       O        0.53130    0.66470    0.68860    1.000
    O6       O        0.43070    0.74150    0.40540    1.000
    O7       O        0.23340    0.67970    0.69210    1.000
    O8       O        0.17290    0.75010    0.82900    1.000
    O9       O        0.57480    0.56280    0.59050    1.000
    O10      O        0.10200    0.55930    0.65500    1.000
    H1       H        0.04300    0.54750    0.62420    1.000
    O11      O        0.50200    0.60060    0.43430    1.000
    O12      O        0.99300    0.81990    0.75490    1.000
    H2       H        0.91030    0.82990    0.75400    1.000
    O13      O        0.33830    0.68280    0.55840    1.000
    H3       H        0.32470    0.67240    0.60220    1.000
    O14      O        0.84420    0.65160    0.73850    1.000
    H4       H        0.83520    0.62190    0.70260    1.000
    C1       C        0.47820    0.70810    0.54900    1.000
    C2       C        0.48750    0.79770    0.56510    1.000
    H5       H        0.42160    0.82570    0.53500    1.000
    H6       H        0.57850    0.81640    0.55390    1.000
    H7       H        0.46830    0.80710    0.61660    1.000
    C3       C        0.98650    0.65530    0.75950    1.000
    C4       C        0.01760    0.58640    0.81270    1.000
    H8       H        0.96160    0.59150    0.85610    1.000
    H9       H        0.11310    0.58790    0.82670    1.000
    H10      H        0.99780    0.53650    0.78850    1.000
    U3       U        0.11192    0.21409    0.99670    1.000
    U4       U        0.60026    0.20951    0.71216    1.000
    P5       P        0.41310    0.14918    0.88871    1.000
    P6       P        0.47680    0.18719    0.04829    1.000
    P7       P        0.97920    0.24901    0.69003    1.000
    P8       P        0.91010    0.14997    0.82536    1.000
    O15      O        0.32600    0.21320    0.05430    1.000
    O16      O        0.98240    0.19430    0.88550    1.000
    O17      O        0.07310    0.25140    0.62410    1.000
    O18      O        0.26810    0.18210    0.89810    1.000
    O19      O        0.46870    0.16470    0.81140    1.000
    O20      O        0.56930    0.24150    0.09460    1.000
    O21      O        0.76660    0.17970    0.80790    1.000
    O22      O        0.82710    0.25010    0.67100    1.000
    O23      O        0.42520    0.06280    0.90950    1.000
    O24      O        0.89800    0.05930    0.84500    1.000
    H11      H        0.95700    0.04750    0.87580    1.000
    O25      O        0.49800    0.10060    0.06570    1.000
    O26      O        0.00700    0.31990    0.74510    1.000
    H12      H        0.08970    0.32990    0.74600    1.000
    O27      O        0.66170    0.18280    0.94160    1.000
    H13      H        0.67530    0.17240    0.89780    1.000
    O28      O        0.15580    0.15160    0.76150    1.000
    H14      H        0.16480    0.12190    0.79740    1.000
    C5       C        0.52180    0.20810    0.95100    1.000
    C6       C        0.51250    0.29770    0.93490    1.000
    H15      H        0.57840    0.32570    0.96500    1.000
    H16      H        0.42150    0.31640    0.94610    1.000
    H17      H        0.53170    0.30710    0.88340    1.000
    C7       C        0.01350    0.15530    0.74050    1.000
    C8       C        0.98240    0.08640    0.68730    1.000
    H18      H        0.03840    0.09150    0.64390    1.000
    H19      H        0.88690    0.08790    0.67330    1.000
    H20      H        0.00220    0.03650    0.71150    1.000
    U5       U        0.11192    0.28591    0.49670    1.000
    U6       U        0.60026    0.29049    0.21216    1.000
    P9       P        0.41310    0.35082    0.38871    1.000
    P10      P        0.47680    0.31281    0.54829    1.000
    P11      P        0.97920    0.25099    0.19003    1.000
    P12      P        0.91010    0.35003    0.32536    1.000
    O29      O        0.32600    0.28680    0.55430    1.000
    O30      O        0.98240    0.30570    0.38550    1.000
    O31      O        0.07310    0.24860    0.12410    1.000
    O32      O        0.26810    0.31790    0.39810    1.000
    O33      O        0.46870    0.33530    0.31140    1.000
    O34      O        0.56930    0.25850    0.59460    1.000
    O35      O        0.76660    0.32030    0.30790    1.000
    O36      O        0.82710    0.24990    0.17100    1.000
    O37      O        0.42520    0.43720    0.40950    1.000
    O38      O        0.89800    0.44070    0.34500    1.000
    H21      H        0.95700    0.45250    0.37580    1.000
    O39      O        0.49800    0.39940    0.56570    1.000
    O40      O        0.00700    0.18010    0.24510    1.000
    H22      H        0.08970    0.17010    0.24600    1.000
    O41      O        0.66170    0.31720    0.44160    1.000
    H23      H        0.67530    0.32760    0.39780    1.000
    O42      O        0.15580    0.34840    0.26150    1.000
    H24      H        0.16480    0.37810    0.29740    1.000
    C9       C        0.52180    0.29190    0.45100    1.000
    C10      C        0.51250    0.20230    0.43490    1.000
    H25      H        0.57840    0.17430    0.46500    1.000
    H26      H        0.42150    0.18360    0.44610    1.000
    H27      H        0.53170    0.19290    0.38340    1.000
    C11      C        0.01350    0.34470    0.24050    1.000
    C12      C        0.98240    0.41360    0.18730    1.000
    H28      H        0.03840    0.40850    0.14390    1.000
    H29      H        0.88690    0.41210    0.17330    1.000
    H30      H        0.00220    0.46350    0.21150    1.000
    U7       U        0.88808    0.78591    0.00330    1.000
    U8       U        0.39974    0.79049    0.28784    1.000
    P13      P        0.58690    0.85082    0.11129    1.000
    P14      P        0.52320    0.81281    0.95171    1.000
    P15      P        0.02080    0.75099    0.30997    1.000
    P16      P        0.08990    0.85003    0.17464    1.000
    O43      O        0.67400    0.78680    0.94570    1.000
    O44      O        0.01760    0.80570    0.11450    1.000
    O45      O        0.92690    0.74860    0.37590    1.000
    O46      O        0.73190    0.81790    0.10190    1.000
    O47      O        0.53130    0.83530    0.18860    1.000
    O48      O        0.43070    0.75850    0.90540    1.000
    O49      O        0.23340    0.82030    0.19210    1.000
    O50      O        0.17290    0.74990    0.32900    1.000
    O51      O        0.57480    0.93720    0.09050    1.000
    O52      O        0.10200    0.94070    0.15500    1.000
    H31      H        0.04300    0.95250    0.12420    1.000
    O53      O        0.50200    0.89940    0.93430    1.000
    O54      O        0.99300    0.68010    0.25490    1.000
    H32      H        0.91030    0.67010    0.25400    1.000
    O55      O        0.33830    0.81720    0.05840    1.000
    H33      H        0.32470    0.82760    0.10220    1.000
    O56      O        0.84420    0.84840    0.23850    1.000
    H34      H        0.83520    0.87810    0.20260    1.000
    C13      C        0.47820    0.79190    0.04900    1.000
    C14      C        0.48750    0.70230    0.06510    1.000
    H35      H        0.42160    0.67430    0.03500    1.000
    H36      H        0.57850    0.68360    0.05390    1.000
    H37      H        0.46830    0.69290    0.11660    1.000
    C15      C        0.98650    0.84470    0.25950    1.000
    C16      C        0.01760    0.91360    0.31270    1.000
    H38      H        0.96160    0.90850    0.35610    1.000
    H39      H        0.11310    0.91210    0.32670    1.000
    H40      H        0.99780    0.96350    0.28850    1.000
    Zn1      Zn       0.50000    0.50000    0.50000    1.000
    Zn2      Zn       0.50000    0.00000    0.00000    1.000
