data_functionalizedCrystal
_audit_creation_method	'EQeq! by Chris Wilmer'
_symmetry_space_group_name_H-M	'P1'
_symmetry_Int_Tables_number	1
_symmetry_cell_setting	triclinic
loop_
_symmetry_equiv_pos_as_xyz
  x,y,z
_cell_length_a	15.3248
_cell_length_b	32.715
_cell_length_c	10.0565
_cell_angle_alpha	90
_cell_angle_beta	107.143
_cell_angle_gamma	90
loop_
_atom_site_label
_atom_site_type_symbol
_atom_site_fract_x
_atom_site_fract_y
_atom_site_fract_z
_atom_site_charge
Mof_Cu	Cu	0.83487	0.77455	0.53219	0.935
Mof_Cu	Cu	0.98277	0.71722	0.51079	0.939
Mof_Cu	Cu	0.90931	0.71617	0.76875	0.932
Mof_O 	O 	0.8725	0.71822	0.568	-0.744
Mof_H 	H 	0.8324	0.7007	0.5279	0.291
Mof_O 	O 	0.9585	0.65696	0.7607	-0.365
Mof_O 	O 	0.0192	0.66232	0.5814	-0.378
Mof_O 	O 	0.7841	0.72738	0.7804	-0.454
Mof_O 	O 	0.7265	0.76667	0.5913	-0.4
Mof_O 	O 	0.9451	0.72493	0.9664	-0.7
Mof_H 	H 	0.9852	0.708	0.0106	0.268
Mof_O 	O 	0.4668	0.847	0.623	-0.03
Mof_O 	O 	0.3438	0.8073	0.5899	-0.081
Mof_O 	O 	0.4873	0.811	0.9677	-0.093
Mof_O 	O 	0.379	0.8423	0.013	-0.095
Mof_O 	O 	0.2603	0.507	0.7053	-0.041
Mof_O 	O 	0.1915	0.5408	0.5076	-0.069
Mof_O 	O 	0.2324	0.512	0.984	-0.035
Mof_O 	O 	0.1782	0.4718	0.1274	-0.078
Mof_O 	O 	0.0887	0.77835	0.9472	-0.401
Mof_O 	O 	0.0352	0.73946	0.7589	-0.447
Mof_O 	O 	0.1076	0.31916	0.737	-0.369
Mof_O 	O 	0.1743	0.33264	0.9587	-0.381
Mof_C 	C 	0.9995	0.64353	0.678	0.34
Mof_C 	C 	0.0294	0.5998	0.698	-0.055
Mof_C 	C 	0.9845	0.5726	0.7605	0.015
Mof_H 	H 	0.9356	0.5815	0.79	0.06
Mof_C 	C 	0.0123	0.5324	0.7792	-0.073
Mof_H 	H 	0.9802	0.5143	0.8186	0.092
Mof_C 	C 	0.0867	0.518	0.7409	0.027
Mof_C 	C 	0.128	0.5452	0.6777	0.074
Mof_C 	C 	0.1001	0.5853	0.6537	-0.049
Mof_H 	H 	0.1293	0.6027	0.6073	0.093
Mof_C 	C 	0.1096	0.4735	0.765	0.02
Mof_C 	C 	0.1525	0.4567	0.8935	0.08
Mof_C 	C 	0.1643	0.4152	0.9167	-0.068
Mof_H 	H 	0.1945	0.4053	0.005	0.106
Mof_C 	C 	0.1313	0.3891	0.8091	-0.042
Mof_C 	C 	0.0855	0.4042	0.682	-0.007
Mof_H 	H 	0.06	0.3864	0.6088	0.056
Mof_C 	C 	0.0764	0.4461	0.6607	-0.052
Mof_H 	H 	0.0467	0.4558	0.5719	0.073
Mof_C 	C 	0.1375	0.3436	0.8321	0.327
Mof_C 	C 	0.7199	0.74722	0.6952	0.361
Mof_C 	C 	0.6294	0.7478	0.7222	-0.078
Mof_C 	C 	0.5709	0.78	0.6692	-0.033
Mof_H 	H 	0.5888	0.8007	0.6192	0.082
Mof_C 	C 	0.4857	0.7815	0.6907	0.072
Mof_C 	C 	0.4577	0.7521	0.7701	0.03
Mof_C 	C 	0.5179	0.7193	0.8191	-0.072
Mof_H 	H 	0.5011	0.6986	0.8699	0.092
Mof_C 	C 	0.6008	0.7172	0.7937	0.03
Mof_H 	H 	0.6384	0.6947	0.8253	0.049
Mof_C 	C 	0.368	0.7532	0.8026	0.033
Mof_C 	C 	0.3064	0.723	0.7507	-0.073
Mof_H 	H 	0.3238	0.7009	0.7059	0.089
Mof_C 	C 	0.2179	0.7239	0.7624	0.029
Mof_H 	H 	0.1764	0.7035	0.7212	0.045
Mof_C 	C 	0.1923	0.7549	0.8346	-0.081
Mof_C 	C 	0.2555	0.7846	0.8962	-0.031
Mof_H 	H 	0.2397	0.8052	0.9485	0.084
Mof_C 	C 	0.3426	0.7838	0.8802	0.074
Mof_C 	C 	0.0978	0.75778	0.8472	0.378
Mof_N 	N 	0.211	0.5332	0.6321	0.014
Mof_N 	N 	0.4259	0.8151	0.6248	0.006
Mof_N 	N 	0.4061	0.815	0.9532	-0.002
Mof_N 	N 	0.189	0.4842	0.0184	0.003
Mof_O 	O 	0.4484	0.8383	0.5456	-0.071
Mof_O 	O 	0.3663	0.8301	0.6667	-0.036
Mof_O 	O 	0.2283	0.497	0.622	-0.052
Mof_O 	O 	0.2526	0.5599	0.59	-0.051
Mof_O 	O 	0.1975	0.5209	0.004	-0.049
Mof_O 	O 	0.2384	0.4686	0.1246	-0.035
Mof_Cu	Cu	0.16513	0.27455	0.96781	0.931
Mof_Cu	Cu	0.01723	0.21722	0.98921	0.932
Mof_Cu	Cu	0.09069	0.21617	0.73125	0.93
Mof_O 	O 	0.1275	0.21822	0.932	-0.748
Mof_H 	H 	0.1676	0.2007	0.9721	0.288
Mof_O 	O 	0.0415	0.15696	0.7393	-0.364
Mof_O 	O 	0.9808	0.16232	0.9186	-0.372
Mof_O 	O 	0.2159	0.22738	0.7196	-0.458
Mof_O 	O 	0.2735	0.26667	0.9087	-0.404
Mof_O 	O 	0.0549	0.22493	0.5336	-0.721
Mof_H 	H 	0.0148	0.208	0.4894	0.283
Mof_O 	O 	0.5332	0.347	0.877	-0.03
Mof_O 	O 	0.6562	0.3073	0.9101	-0.082
Mof_O 	O 	0.5127	0.311	0.5323	-0.095
Mof_O 	O 	0.621	0.3423	0.487	-0.089
Mof_O 	O 	0.7397	0.007	0.7947	-0.04
Mof_O 	O 	0.8085	0.0408	0.9924	-0.069
Mof_O 	O 	0.7676	0.012	0.516	-0.026
Mof_O 	O 	0.8218	0.9718	0.3726	-0.078
Mof_O 	O 	0.9113	0.27835	0.5528	-0.402
Mof_O 	O 	0.9648	0.23946	0.7411	-0.445
Mof_O 	O 	0.8924	0.81916	0.763	-0.367
Mof_O 	O 	0.8257	0.83264	0.5413	-0.378
Mof_C 	C 	0.0005	0.14353	0.822	0.317
Mof_C 	C 	0.9706	0.0998	0.802	-0.02
Mof_C 	C 	0.0155	0.0726	0.7395	-0.035
Mof_H 	H 	0.0644	0.0815	0.71	0.075
Mof_C 	C 	0.9877	0.0324	0.7208	-0.024
Mof_H 	H 	0.0198	0.0143	0.6814	0.071
Mof_C 	C 	0.9133	0.018	0.7591	0.003
Mof_C 	C 	0.872	0.0452	0.8223	0.09
Mof_C 	C 	0.8999	0.0853	0.8463	-0.073
Mof_H 	H 	0.8707	0.1027	0.8927	0.101
Mof_C 	C 	0.8904	0.9735	0.735	0.033
Mof_C 	C 	0.8475	0.9567	0.6065	0.072
Mof_C 	C 	0.8357	0.9152	0.5833	-0.046
Mof_H 	H 	0.8055	0.9053	0.495	0.093
Mof_C 	C 	0.8687	0.8891	0.6909	-0.052
Mof_C 	C 	0.9145	0.9042	0.818	0.004
Mof_H 	H 	0.94	0.8864	0.8912	0.055
Mof_C 	C 	0.9236	0.9461	0.8393	-0.063
Mof_H 	H 	0.9533	0.9558	0.9281	0.078
Mof_C 	C 	0.8625	0.8436	0.6679	0.33
Mof_C 	C 	0.2801	0.24722	0.8048	0.361
Mof_C 	C 	0.3706	0.2478	0.7778	-0.081
Mof_C 	C 	0.4291	0.28	0.8308	-0.033
Mof_H 	H 	0.4112	0.3007	0.8808	0.08
Mof_C 	C 	0.5143	0.2815	0.8093	0.071
Mof_C 	C 	0.5423	0.2521	0.7299	0.03
Mof_C 	C 	0.4821	0.2193	0.6809	-0.074
Mof_H 	H 	0.4989	0.1986	0.6301	0.091
Mof_C 	C 	0.3992	0.2172	0.7063	0.03
Mof_H 	H 	0.3616	0.1947	0.6747	0.047
Mof_C 	C 	0.632	0.2532	0.6974	0.032
Mof_C 	C 	0.6936	0.223	0.7493	-0.074
Mof_H 	H 	0.6762	0.2009	0.7941	0.088
Mof_C 	C 	0.7821	0.2239	0.7376	0.029
Mof_H 	H 	0.8236	0.2035	0.7788	0.045
Mof_C 	C 	0.8077	0.2549	0.6654	-0.082
Mof_C 	C 	0.7445	0.2846	0.6038	-0.032
Mof_H 	H 	0.7603	0.3052	0.5515	0.083
Mof_C 	C 	0.6574	0.2838	0.6198	0.073
Mof_C 	C 	0.9022	0.25778	0.6528	0.378
Mof_N 	N 	0.789	0.0332	0.8679	0.012
Mof_N 	N 	0.5741	0.3151	0.8752	0.007
Mof_N 	N 	0.5939	0.315	0.5468	-0.004
Mof_N 	N 	0.811	0.9842	0.4816	0.003
Mof_O 	O 	0.5516	0.3383	0.9544	-0.074
Mof_O 	O 	0.6337	0.3301	0.8333	-0.036
Mof_O 	O 	0.7717	0.997	0.878	-0.052
Mof_O 	O 	0.7474	0.0599	0.91	-0.052
Mof_O 	O 	0.8025	0.0209	0.496	-0.056
Mof_O 	O 	0.7616	0.9686	0.3754	-0.037
Mof_Cu	Cu	0.16513	0.22545	0.46781	0.934
Mof_Cu	Cu	0.01723	0.28278	0.48921	0.938
Mof_Cu	Cu	0.09069	0.28383	0.23125	0.931
Mof_O 	O 	0.1275	0.28178	0.432	-0.745
Mof_H 	H 	0.1676	0.2993	0.4721	0.29
Mof_O 	O 	0.0415	0.34304	0.2393	-0.366
Mof_O 	O 	0.9808	0.33768	0.4186	-0.379
Mof_O 	O 	0.2159	0.27262	0.2196	-0.455
Mof_O 	O 	0.2735	0.23333	0.4087	-0.401
Mof_O 	O 	0.0549	0.27507	0.0336	-0.701
Mof_H 	H 	0.0148	0.292	0.9894	0.267
Mof_O 	O 	0.5332	0.153	0.377	-0.031
Mof_O 	O 	0.6562	0.1927	0.4101	-0.081
Mof_O 	O 	0.5127	0.189	0.0323	-0.093
Mof_O 	O 	0.621	0.1577	0.987	-0.095
Mof_O 	O 	0.7397	0.493	0.2947	-0.041
Mof_O 	O 	0.8085	0.4592	0.4924	-0.069
Mof_O 	O 	0.7676	0.488	0.016	-0.035
Mof_O 	O 	0.8218	0.5282	0.8726	-0.078
Mof_O 	O 	0.9113	0.22165	0.0528	-0.401
Mof_O 	O 	0.9648	0.26054	0.2411	-0.447
Mof_O 	O 	0.8924	0.68084	0.263	-0.369
Mof_O 	O 	0.8257	0.66736	0.0413	-0.381
Mof_C 	C 	0.0005	0.35647	0.322	0.34
Mof_C 	C 	0.9706	0.4002	0.302	-0.055
Mof_C 	C 	0.0155	0.4274	0.2395	0.015
Mof_H 	H 	0.0644	0.4185	0.21	0.06
Mof_C 	C 	0.9877	0.4676	0.2208	-0.073
Mof_H 	H 	0.0198	0.4857	0.1814	0.092
Mof_C 	C 	0.9133	0.482	0.2591	0.027
Mof_C 	C 	0.872	0.4548	0.3223	0.074
Mof_C 	C 	0.8999	0.4147	0.3463	-0.049
Mof_H 	H 	0.8707	0.3973	0.3927	0.093
Mof_C 	C 	0.8904	0.5265	0.235	0.02
Mof_C 	C 	0.8475	0.5433	0.1065	0.08
Mof_C 	C 	0.8357	0.5848	0.0833	-0.068
Mof_H 	H 	0.8055	0.5947	0.995	0.106
Mof_C 	C 	0.8687	0.6109	0.1909	-0.042
Mof_C 	C 	0.9145	0.5958	0.318	-0.007
Mof_H 	H 	0.94	0.6136	0.3912	0.056
Mof_C 	C 	0.9236	0.5539	0.3393	-0.052
Mof_H 	H 	0.9533	0.5442	0.4281	0.073
Mof_C 	C 	0.8625	0.6564	0.1679	0.327
Mof_C 	C 	0.2801	0.25278	0.3048	0.361
Mof_C 	C 	0.3706	0.2522	0.2778	-0.078
Mof_C 	C 	0.4291	0.22	0.3308	-0.033
Mof_H 	H 	0.4112	0.1993	0.3808	0.082
Mof_C 	C 	0.5143	0.2185	0.3093	0.072
Mof_C 	C 	0.5423	0.2479	0.2299	0.03
Mof_C 	C 	0.4821	0.2807	0.1809	-0.072
Mof_H 	H 	0.4989	0.3014	0.1301	0.092
Mof_C 	C 	0.3992	0.2828	0.2063	0.03
Mof_H 	H 	0.3616	0.3053	0.1747	0.049
Mof_C 	C 	0.632	0.2468	0.1974	0.033
Mof_C 	C 	0.6936	0.277	0.2493	-0.073
Mof_H 	H 	0.6762	0.2991	0.2941	0.089
Mof_C 	C 	0.7821	0.2761	0.2376	0.029
Mof_H 	H 	0.8236	0.2965	0.2788	0.045
Mof_C 	C 	0.8077	0.2451	0.1654	-0.081
Mof_C 	C 	0.7445	0.2154	0.1038	-0.031
Mof_H 	H 	0.7603	0.1948	0.0515	0.084
Mof_C 	C 	0.6574	0.2162	0.1198	0.074
Mof_C 	C 	0.9022	0.24222	0.1528	0.378
Mof_N 	N 	0.789	0.4668	0.3679	0.014
Mof_N 	N 	0.5741	0.1849	0.3752	0.006
Mof_N 	N 	0.5939	0.185	0.0468	-0.002
Mof_N 	N 	0.811	0.5158	0.9816	0.003
Mof_O 	O 	0.5516	0.1617	0.4544	-0.071
Mof_O 	O 	0.6337	0.1699	0.3333	-0.036
Mof_O 	O 	0.7717	0.503	0.378	-0.052
Mof_O 	O 	0.7474	0.4401	0.41	-0.051
Mof_O 	O 	0.8025	0.4791	0.996	-0.049
Mof_O 	O 	0.7616	0.5314	0.8754	-0.035
Mof_Cu	Cu	0.83487	0.72545	0.03219	0.931
Mof_Cu	Cu	0.98277	0.78278	0.01079	0.932
Mof_Cu	Cu	0.90931	0.78383	0.26875	0.93
Mof_O 	O 	0.8725	0.78178	0.068	-0.748
Mof_H 	H 	0.8324	0.7993	0.0279	0.288
Mof_O 	O 	0.9585	0.84304	0.2607	-0.364
Mof_O 	O 	0.0192	0.83768	0.0814	-0.372
Mof_O 	O 	0.7841	0.77262	0.2804	-0.458
Mof_O 	O 	0.7265	0.73333	0.0913	-0.404
Mof_O 	O 	0.9451	0.77507	0.4664	-0.721
Mof_H 	H 	0.9852	0.792	0.5106	0.283
Mof_O 	O 	0.4668	0.653	0.123	-0.03
Mof_O 	O 	0.3438	0.6927	0.0899	-0.082
Mof_O 	O 	0.4873	0.689	0.4677	-0.095
Mof_O 	O 	0.379	0.6577	0.513	-0.089
Mof_O 	O 	0.2603	0.993	0.2053	-0.04
Mof_O 	O 	0.1915	0.9592	0.0076	-0.069
Mof_O 	O 	0.2324	0.988	0.484	-0.026
Mof_O 	O 	0.1782	0.0282	0.6274	-0.078
Mof_O 	O 	0.0887	0.72165	0.4472	-0.402
Mof_O 	O 	0.0352	0.76054	0.2589	-0.445
Mof_O 	O 	0.1076	0.18084	0.237	-0.367
Mof_O 	O 	0.1743	0.16736	0.4587	-0.378
Mof_C 	C 	0.9995	0.85647	0.178	0.317
Mof_C 	C 	0.0294	0.9002	0.198	-0.02
Mof_C 	C 	0.9845	0.9274	0.2605	-0.035
Mof_H 	H 	0.9356	0.9185	0.29	0.075
Mof_C 	C 	0.0123	0.9676	0.2792	-0.024
Mof_H 	H 	0.9802	0.9857	0.3186	0.071
Mof_C 	C 	0.0867	0.982	0.2409	0.003
Mof_C 	C 	0.128	0.9548	0.1777	0.09
Mof_C 	C 	0.1001	0.9147	0.1537	-0.073
Mof_H 	H 	0.1293	0.8973	0.1073	0.101
Mof_C 	C 	0.1096	0.0265	0.265	0.033
Mof_C 	C 	0.1525	0.0433	0.3935	0.072
Mof_C 	C 	0.1643	0.0848	0.4167	-0.046
Mof_H 	H 	0.1945	0.0947	0.505	0.093
Mof_C 	C 	0.1313	0.1109	0.3091	-0.052
Mof_C 	C 	0.0855	0.0958	0.182	0.004
Mof_H 	H 	0.06	0.1136	0.1088	0.055
Mof_C 	C 	0.0764	0.0539	0.1607	-0.063
Mof_H 	H 	0.0467	0.0442	0.0719	0.078
Mof_C 	C 	0.1375	0.1564	0.3321	0.33
Mof_C 	C 	0.7199	0.75278	0.1952	0.361
Mof_C 	C 	0.6294	0.7522	0.2222	-0.081
Mof_C 	C 	0.5709	0.72	0.1692	-0.033
Mof_H 	H 	0.5888	0.6993	0.1192	0.08
Mof_C 	C 	0.4857	0.7185	0.1907	0.071
Mof_C 	C 	0.4577	0.7479	0.2701	0.03
Mof_C 	C 	0.5179	0.7807	0.3191	-0.074
Mof_H 	H 	0.5011	0.8014	0.3699	0.091
Mof_C 	C 	0.6008	0.7828	0.2937	0.03
Mof_H 	H 	0.6384	0.8053	0.3253	0.047
Mof_C 	C 	0.368	0.7468	0.3026	0.032
Mof_C 	C 	0.3064	0.777	0.2507	-0.074
Mof_H 	H 	0.3238	0.7991	0.2059	0.088
Mof_C 	C 	0.2179	0.7761	0.2624	0.029
Mof_H 	H 	0.1764	0.7965	0.2212	0.045
Mof_C 	C 	0.1923	0.7451	0.3346	-0.082
Mof_C 	C 	0.2555	0.7154	0.3962	-0.032
Mof_H 	H 	0.2397	0.6948	0.4485	0.083
Mof_C 	C 	0.3426	0.7162	0.3802	0.073
Mof_C 	C 	0.0978	0.74222	0.3472	0.378
Mof_N 	N 	0.211	0.9668	0.1321	0.012
Mof_N 	N 	0.4259	0.6849	0.1248	0.007
Mof_N 	N 	0.4061	0.685	0.4532	-0.004
Mof_N 	N 	0.189	0.0158	0.5184	0.003
Mof_O 	O 	0.4484	0.6617	0.0456	-0.074
Mof_O 	O 	0.3663	0.6699	0.1667	-0.036
Mof_O 	O 	0.2283	0.003	0.122	-0.052
Mof_O 	O 	0.2526	0.9401	0.09	-0.052
Mof_O 	O 	0.1975	0.9791	0.504	-0.056
Mof_O 	O 	0.2384	0.0314	0.6246	-0.037
_end
