# CIF file generated by openbabel 3.1.0, see https://openbabel.org
data_I
_chemical_name_common 'PAMVEG_clean'
_cell_length_a 6.5568
_cell_length_b 15.078
_cell_length_c 20.543
_cell_angle_alpha 90
_cell_angle_beta 90
_cell_angle_gamma 90
_space_group_name_H-M_alt 'P 1'
_space_group_name_Hall 'P 1'
loop_
    _symmetry_equiv_pos_as_xyz
    x,y,z
loop_
    _atom_site_label
    _atom_site_type_symbol
    _atom_site_fract_x
    _atom_site_fract_y
    _atom_site_fract_z
    _atom_site_occupancy
    Zn1      Zn       0.85132    0.48638    0.81217    1.000
    Zn2      Zn       0.64868    0.51362    0.31217    1.000
    Zn3      Zn       0.14868    0.98638    0.68783    1.000
    Zn4      Zn       0.35132    0.01362    0.18783    1.000
    H1       H        0.20170    0.40320    0.72350    1.000
    H2       H        0.87940    0.28140    0.85760    1.000
    H3       H        0.13180    0.17270    0.81770    1.000
    H4       H        0.37110    0.26660    0.67190    1.000
    H5       H        0.32800    0.17390    0.70200    1.000
    H6       H        0.60880    0.30020    0.75300    1.000
    H7       H        0.55470    0.21290    0.78940    1.000
    H8       H        0.80400    0.08790    0.76960    1.000
    H9       H        0.76960    0.26610    0.61710    1.000
    H10      H        0.04990    0.15970    0.60010    1.000
    H11      H        0.04140    0.46360    0.14390    1.000
    H12      H        0.92690    0.54230    0.10680    1.000
    H13      H        0.82870    0.35980    0.09390    1.000
    H14      H        0.70730    0.43780    0.05810    1.000
    H15      H        0.01880    0.47610    0.00200    1.000
    H16      H        0.92780    0.38180    0.98170    1.000
    H17      H        0.26390    0.40700    0.06820    1.000
    H18      H        0.16860    0.31180    0.05200    1.000
    H19      H        0.26930    0.32830    0.94070    1.000
    H20      H        0.46220    0.33010    0.98840    1.000
    H21      H        0.27840    0.48090    0.92860    1.000
    H22      H        0.44770    0.49030    0.98410    1.000
    H23      H        0.29830    0.59680    0.22350    1.000
    H24      H        0.62060    0.71860    0.35760    1.000
    H25      H        0.36820    0.82730    0.31770    1.000
    H26      H        0.12890    0.73340    0.17190    1.000
    H27      H        0.17200    0.82610    0.20200    1.000
    H28      H        0.89120    0.69980    0.25300    1.000
    H29      H        0.94530    0.78710    0.28940    1.000
    H30      H        0.69600    0.91210    0.26960    1.000
    H31      H        0.73040    0.73390    0.11710    1.000
    H32      H        0.45010    0.84030    0.10010    1.000
    H33      H        0.45860    0.53640    0.64390    1.000
    H34      H        0.57310    0.45770    0.60680    1.000
    H35      H        0.67130    0.64020    0.59390    1.000
    H36      H        0.79270    0.56220    0.55810    1.000
    H37      H        0.48120    0.52390    0.50200    1.000
    H38      H        0.57220    0.61820    0.48170    1.000
    H39      H        0.23610    0.59300    0.56820    1.000
    H40      H        0.33140    0.68820    0.55200    1.000
    H41      H        0.23070    0.67170    0.44070    1.000
    H42      H        0.03780    0.66990    0.48840    1.000
    H43      H        0.22160    0.51910    0.42860    1.000
    H44      H        0.05230    0.50970    0.48410    1.000
    H45      H        0.79830    0.90320    0.77650    1.000
    H46      H        0.12060    0.78140    0.64240    1.000
    H47      H        0.86820    0.67270    0.68230    1.000
    H48      H        0.62890    0.76660    0.82810    1.000
    H49      H        0.67200    0.67390    0.79800    1.000
    H50      H        0.39120    0.80020    0.74700    1.000
    H51      H        0.44530    0.71290    0.71060    1.000
    H52      H        0.19600    0.58790    0.73040    1.000
    H53      H        0.23040    0.76610    0.88290    1.000
    H54      H        0.95010    0.65970    0.89990    1.000
    H55      H        0.95860    0.96360    0.35610    1.000
    H56      H        0.07310    0.04230    0.39320    1.000
    H57      H        0.17130    0.85980    0.40610    1.000
    H58      H        0.29270    0.93780    0.44190    1.000
    H59      H        0.98120    0.97610    0.49800    1.000
    H60      H        0.07220    0.88180    0.51830    1.000
    H61      H        0.73610    0.90700    0.43180    1.000
    H62      H        0.83140    0.81180    0.44800    1.000
    H63      H        0.73070    0.82830    0.55930    1.000
    H64      H        0.53780    0.83010    0.51160    1.000
    H65      H        0.72160    0.98090    0.57140    1.000
    H66      H        0.55230    0.99030    0.51590    1.000
    H67      H        0.70170    0.09680    0.27650    1.000
    H68      H        0.37940    0.21860    0.14240    1.000
    H69      H        0.63180    0.32730    0.18230    1.000
    H70      H        0.87110    0.23340    0.32810    1.000
    H71      H        0.82800    0.32610    0.29800    1.000
    H72      H        0.10880    0.19980    0.24700    1.000
    H73      H        0.05470    0.28710    0.21060    1.000
    H74      H        0.30400    0.41210    0.23040    1.000
    H75      H        0.26960    0.23390    0.38290    1.000
    H76      H        0.54990    0.34030    0.39990    1.000
    H77      H        0.54140    0.03640    0.85610    1.000
    H78      H        0.42690    0.95770    0.89320    1.000
    H79      H        0.32870    0.14020    0.90610    1.000
    H80      H        0.20730    0.06220    0.94190    1.000
    H81      H        0.51880    0.02390    0.99800    1.000
    H82      H        0.42780    0.11820    0.01830    1.000
    H83      H        0.76390    0.09300    0.93180    1.000
    H84      H        0.66860    0.18820    0.94800    1.000
    H85      H        0.76930    0.17170    0.05930    1.000
    H86      H        0.96220    0.16990    0.01160    1.000
    H87      H        0.77840    0.01910    0.07140    1.000
    H88      H        0.94770    0.00970    0.01590    1.000
    C1       C        0.15190    0.35990    0.75390    1.000
    C2       C        0.98550    0.29500    0.82768    1.000
    C3       C        0.11910    0.23630    0.80446    1.000
    C4       C        0.36210    0.23430    0.71200    1.000
    C5       C        0.56730    0.23970    0.74720    1.000
    C6       C        0.81940    0.11640    0.72810    1.000
    C7       C        0.79520    0.21030    0.64199    1.000
    C8       C        0.94980    0.15430    0.63326    1.000
    C9       C        0.75950    0.49211    0.18352    1.000
    C10      C        0.90760    0.48310    0.12668    1.000
    C11      C        0.84280    0.41970    0.07468    1.000
    C12      C        0.99240    0.41510    0.01773    1.000
    C13      C        0.19490    0.37170    0.03403    1.000
    C14      C        0.33830    0.36300    0.97513    1.000
    C15      C        0.40000    0.45230    0.94790    1.000
    C16      C        0.56550    0.44770    0.89697    1.000
    C17      C        0.34810    0.64010    0.25390    1.000
    C18      C        0.51450    0.70500    0.32768    1.000
    C19      C        0.38090    0.76370    0.30446    1.000
    C20      C        0.13790    0.76570    0.21200    1.000
    C21      C        0.93270    0.76030    0.24720    1.000
    C22      C        0.68060    0.88360    0.22810    1.000
    C23      C        0.70480    0.78970    0.14199    1.000
    C24      C        0.55020    0.84570    0.13326    1.000
    C25      C        0.74050    0.50789    0.68352    1.000
    C26      C        0.59240    0.51690    0.62668    1.000
    C27      C        0.65720    0.58030    0.57468    1.000
    C28      C        0.50760    0.58490    0.51773    1.000
    C29      C        0.30510    0.62830    0.53403    1.000
    C30      C        0.16170    0.63700    0.47513    1.000
    C31      C        0.10000    0.54770    0.44790    1.000
    C32      C        0.93450    0.55230    0.39697    1.000
    C33      C        0.84810    0.85990    0.74610    1.000
    C34      C        0.01450    0.79500    0.67232    1.000
    C35      C        0.88090    0.73630    0.69554    1.000
    C36      C        0.63790    0.73430    0.78800    1.000
    C37      C        0.43270    0.73970    0.75280    1.000
    C38      C        0.18060    0.61640    0.77190    1.000
    C39      C        0.20480    0.71030    0.85801    1.000
    C40      C        0.05020    0.65430    0.86674    1.000
    C41      C        0.24050    0.99211    0.31648    1.000
    C42      C        0.09240    0.98310    0.37332    1.000
    C43      C        0.15720    0.91970    0.42532    1.000
    C44      C        0.00760    0.91510    0.48227    1.000
    C45      C        0.80510    0.87170    0.46597    1.000
    C46      C        0.66170    0.86300    0.52487    1.000
    C47      C        0.60000    0.95230    0.55210    1.000
    C48      C        0.43450    0.94770    0.60303    1.000
    C49      C        0.65190    0.14010    0.24610    1.000
    C50      C        0.48550    0.20500    0.17232    1.000
    C51      C        0.61910    0.26370    0.19554    1.000
    C52      C        0.86210    0.26570    0.28800    1.000
    C53      C        0.06730    0.26030    0.25280    1.000
    C54      C        0.31940    0.38360    0.27190    1.000
    C55      C        0.29520    0.28970    0.35801    1.000
    C56      C        0.44980    0.34570    0.36674    1.000
    C57      C        0.25950    0.00789    0.81648    1.000
    C58      C        0.40760    0.01690    0.87332    1.000
    C59      C        0.34280    0.08030    0.92532    1.000
    C60      C        0.49240    0.08490    0.98227    1.000
    C61      C        0.69490    0.12830    0.96597    1.000
    C62      C        0.83830    0.13700    0.02487    1.000
    C63      C        0.90000    0.04770    0.05210    1.000
    C64      C        0.06550    0.05230    0.10303    1.000
    N1       N        0.02200    0.37686    0.80272    1.000
    N2       N        0.20380    0.27360    0.75360    1.000
    N3       N        0.72280    0.19000    0.70890    1.000
    N4       N        0.94500    0.08783    0.67860    1.000
    N5       N        0.47800    0.62314    0.30272    1.000
    N6       N        0.29620    0.72640    0.25360    1.000
    N7       N        0.77720    0.81000    0.20890    1.000
    N8       N        0.55500    0.91217    0.17860    1.000
    N9       N        0.97800    0.87686    0.69728    1.000
    N10      N        0.79620    0.77360    0.74640    1.000
    N11      N        0.27720    0.69000    0.79110    1.000
    N12      N        0.05500    0.58783    0.82140    1.000
    N13      N        0.52200    0.12314    0.19728    1.000
    N14      N        0.70380    0.22640    0.24640    1.000
    N15      N        0.22280    0.31000    0.29110    1.000
    N16      N        0.44500    0.41217    0.32140    1.000
    O1       O        0.83960    0.49521    0.23945    1.000
    O2       O        0.57360    0.49372    0.17460    1.000
    O3       O        0.67730    0.51633    0.88971    1.000
    O4       O        0.59060    0.38205    0.86342    1.000
    O5       O        0.66040    0.50479    0.73945    1.000
    O6       O        0.92640    0.50628    0.67460    1.000
    O7       O        0.82270    0.48367    0.38971    1.000
    O8       O        0.90940    0.61795    0.36342    1.000
    O9       O        0.16040    0.99521    0.26055    1.000
    O10      O        0.42640    0.99372    0.32540    1.000
    O11      O        0.32270    0.01633    0.61029    1.000
    O12      O        0.40940    0.88205    0.63658    1.000
    O13      O        0.33960    0.00479    0.76055    1.000
    O14      O        0.07360    0.00628    0.82540    1.000
    O15      O        0.17730    0.98367    0.11029    1.000
    O16      O        0.09060    0.11795    0.13658    1.000
