# CIF file generated by openbabel 3.1.0, see https://openbabel.org
data_I
_chemical_name_common 'image0'
_cell_length_a 12.2042
_cell_length_b 14.3786
_cell_length_c 20.3859
_cell_angle_alpha 90
_cell_angle_beta 90
_cell_angle_gamma 90
_space_group_name_H-M_alt 'P 1'
_space_group_name_Hall 'P 1'
loop_
    _symmetry_equiv_pos_as_xyz
    x,y,z
loop_
    _atom_site_label
    _atom_site_type_symbol
    _atom_site_fract_x
    _atom_site_fract_y
    _atom_site_fract_z
    _atom_site_occupancy
    C1       C        0.47580    0.29821    0.45200    1.000
    N1       N        0.49640    0.24060    0.72760    1.000
    C2       C        0.48110    0.23138    0.78225    1.000
    N2       N        0.45990    0.44342    0.64168    1.000
    N3       N        0.48830    0.31022    0.50682    1.000
    C3       C        0.76650    0.28680    0.62429    1.000
    C4       C        0.44380    0.52188    0.64317    1.000
    Cd1      Cd       0.48755    0.28933    0.62091    1.000
    Cu1      Cu       0.41459    0.24326    0.86880    1.000
    Cu2      Cu       0.41458    0.65265    0.63826    1.000
    N4       N        0.67550    0.30270    0.61808    1.000
    C5       C        0.22210    0.21634    0.62593    1.000
    N5       N        0.30357    0.25314    0.61668    1.000
    C6       C        0.02420    0.70179    0.95200    1.000
    N6       N        0.00360    0.75940    0.22760    1.000
    C7       C        0.01890    0.76862    0.28225    1.000
    N7       N        0.04010    0.55658    0.14168    1.000
    N8       N        0.01170    0.68978    0.00682    1.000
    C8       C        0.73350    0.71320    0.12429    1.000
    C9       C        0.05620    0.47812    0.14317    1.000
    Cd2      Cd       0.01245    0.71067    0.12091    1.000
    Cu3      Cu       0.08541    0.75674    0.36880    1.000
    Cu4      Cu       0.08542    0.34735    0.13826    1.000
    N9       N        0.82450    0.69730    0.11808    1.000
    C10      C        0.27790    0.78366    0.12593    1.000
    N10      N        0.19643    0.74686    0.11668    1.000
    C11      C        0.52420    0.79821    0.04800    1.000
    N11      N        0.50360    0.74060    0.77240    1.000
    C12      C        0.51890    0.73138    0.71775    1.000
    N12      N        0.54010    0.94342    0.85832    1.000
    N13      N        0.51170    0.81022    0.99318    1.000
    C13      C        0.23350    0.78680    0.87571    1.000
    C14      C        0.55620    0.02188    0.85683    1.000
    Cd3      Cd       0.51245    0.78933    0.87909    1.000
    Cu5      Cu       0.58541    0.74326    0.63120    1.000
    Cu6      Cu       0.58542    0.15265    0.86174    1.000
    N14      N        0.32450    0.80270    0.88192    1.000
    C15      C        0.77790    0.71634    0.87407    1.000
    N15      N        0.69643    0.75314    0.88332    1.000
    C16      C        0.97580    0.20179    0.54800    1.000
    N16      N        0.99640    0.25940    0.27240    1.000
    C17      C        0.98110    0.26862    0.21775    1.000
    N17      N        0.95990    0.05658    0.35832    1.000
    N18      N        0.98830    0.18978    0.49318    1.000
    C18      C        0.26650    0.21320    0.37571    1.000
    C19      C        0.94380    0.97812    0.35683    1.000
    Cd4      Cd       0.98755    0.21067    0.37909    1.000
    Cu7      Cu       0.91459    0.25674    0.13120    1.000
    Cu8      Cu       0.91458    0.84735    0.36174    1.000
    N19      N        0.17550    0.19730    0.38192    1.000
    C20      C        0.72210    0.28366    0.37407    1.000
    N20      N        0.80357    0.24686    0.38332    1.000
    C21      C        0.52420    0.70179    0.54800    1.000
    N21      N        0.50360    0.75940    0.27240    1.000
    C22      C        0.51890    0.76862    0.21775    1.000
    N22      N        0.54010    0.55658    0.35832    1.000
    N23      N        0.51170    0.68978    0.49318    1.000
    C23      C        0.23350    0.71320    0.37571    1.000
    C24      C        0.55620    0.47812    0.35683    1.000
    Cd5      Cd       0.51245    0.71067    0.37909    1.000
    Cu9      Cu       0.58541    0.75674    0.13120    1.000
    Cu10     Cu       0.58542    0.34735    0.36174    1.000
    N24      N        0.32450    0.69730    0.38192    1.000
    C25      C        0.77790    0.78366    0.37407    1.000
    N25      N        0.69643    0.74686    0.38332    1.000
    C26      C        0.97580    0.29821    0.04800    1.000
    N26      N        0.99640    0.24060    0.77240    1.000
    C27      C        0.98110    0.23138    0.71775    1.000
    N27      N        0.95990    0.44342    0.85832    1.000
    N28      N        0.98830    0.31022    0.99318    1.000
    C28      C        0.26650    0.28680    0.87571    1.000
    C29      C        0.94380    0.52188    0.85683    1.000
    Cd6      Cd       0.98755    0.28933    0.87909    1.000
    Cu11     Cu       0.91459    0.24326    0.63120    1.000
    Cu12     Cu       0.91458    0.65265    0.86174    1.000
    N29      N        0.17550    0.30270    0.88192    1.000
    C30      C        0.72210    0.21634    0.87407    1.000
    N30      N        0.80357    0.25314    0.88332    1.000
    C31      C        0.47580    0.20179    0.95200    1.000
    N31      N        0.49640    0.25940    0.22760    1.000
    C32      C        0.48110    0.26862    0.28225    1.000
    N32      N        0.45990    0.05658    0.14168    1.000
    N33      N        0.48830    0.18978    0.00682    1.000
    C33      C        0.76650    0.21320    0.12429    1.000
    C34      C        0.44380    0.97812    0.14317    1.000
    Cd7      Cd       0.48755    0.21067    0.12091    1.000
    Cu13     Cu       0.41459    0.25674    0.36880    1.000
    Cu14     Cu       0.41458    0.84735    0.13826    1.000
    N34      N        0.67550    0.19730    0.11808    1.000
    C35      C        0.22210    0.28366    0.12593    1.000
    N35      N        0.30357    0.24686    0.11668    1.000
    C36      C        0.02420    0.79821    0.45200    1.000
    N36      N        0.00360    0.74060    0.72760    1.000
    C37      C        0.01890    0.73138    0.78225    1.000
    N37      N        0.04010    0.94342    0.64168    1.000
    N38      N        0.01170    0.81022    0.50682    1.000
    C38      C        0.73350    0.78680    0.62429    1.000
    C39      C        0.05620    0.02188    0.64317    1.000
    Cd8      Cd       0.01245    0.78933    0.62091    1.000
    Cu15     Cu       0.08541    0.74326    0.86880    1.000
    Cu16     Cu       0.08542    0.15265    0.63826    1.000
    N39      N        0.82450    0.80270    0.61808    1.000
    C40      C        0.27790    0.71634    0.62593    1.000
    N40      N        0.19643    0.75314    0.61668    1.000
