data_functionalizedCrystal
_audit_creation_method	'EQeq! by Chris Wilmer'
_symmetry_space_group_name_H-M	'P1'
_symmetry_Int_Tables_number	1
_symmetry_cell_setting	triclinic
loop_
_symmetry_equiv_pos_as_xyz
  x,y,z
_cell_length_a	11.418
_cell_length_b	10.037
_cell_length_c	18.546
_cell_angle_alpha	90
_cell_angle_beta	126.68
_cell_angle_gamma	90
loop_
_atom_site_label
_atom_site_type_symbol
_atom_site_fract_x
_atom_site_fract_y
_atom_site_fract_z
_atom_site_charge
Mof_Zn	Zn	0.93538	0.87823	0.69467	1.271
Mof_Zn	Zn	0.87689	0.57108	0.63188	1.252
Mof_O 	O 	0.7123	0.8632	0.60792	-0.417
Mof_O 	O 	0.6679	0.64702	0.56966	-0.573
Mof_O 	O 	0.9469	0.68691	0.74942	-0.487
Mof_O 	O 	0.0594	0.5454	0.86547	-0.421
Mof_O 	O 	0.9583	0.74787	0.61432	-0.542
Mof_O 	O 	0.9883	0.705	0.50759	-0.394
Mof_O 	O 	0.836	0.4739	0.52201	-0.559
Mof_O 	O 	0.6071	0.4049	0.45542	-0.466
Mof_O 	O 	0.843	0.41099	0.69197	-0.557
Mof_O 	O 	0.6036	0.3732	0.61061	-0.463
Mof_O 	O 	0.084	0.4798	0.71334	-0.625
Mof_O 	O 	0.1751	0.4875	0.63607	-0.483
Mof_C 	C 	0.6305	0.7661	0.5692	0.507
Mof_H 	H 	0.5308	0.7823	0.5361	-0.089
Mof_C 	C 	0.0121	0.6566	0.8314	0.4
Mof_H 	H 	0.0257	0.7247	0.8697	-0.081
Mof_C 	C 	0.983	0.7808	0.5581	0.502
Mof_H 	H 	0.9987	0.8708	0.5549	-0.054
Mof_C 	C 	0.7226	0.4063	0.4646	0.528
Mof_H 	H 	0.7281	0.3526	0.4258	-0.11
Mof_C 	C 	0.7309	0.3506	0.6738	0.544
Mof_H 	H 	0.7468	0.282	0.7124	-0.137
Mof_C 	C 	0.1848	0.47	0.7044	0.561
Mof_H 	H 	0.2766	0.4468	0.7556	-0.121
Mof_Zn	Zn	0.06462	0.37823	0.80533	1.242
Mof_Zn	Zn	0.12311	0.07108	0.86812	1.203
Mof_O 	O 	0.2877	0.3632	0.89208	-0.434
Mof_O 	O 	0.3321	0.14702	0.93034	-0.579
Mof_O 	O 	0.0531	0.18691	0.75058	-0.687
Mof_O 	O 	0.9406	0.0454	0.63453	-0.537
Mof_O 	O 	0.0417	0.24787	0.88568	-0.607
Mof_O 	O 	0.0117	0.205	0.99241	-0.434
Mof_O 	O 	0.164	0.9739	0.97799	-0.399
Mof_O 	O 	0.3929	0.9049	0.04458	-0.401
Mof_O 	O 	0.157	0.91099	0.80803	-0.561
Mof_O 	O 	0.3964	0.8732	0.88939	-0.373
Mof_O 	O 	0.916	0.9798	0.78666	-0.498
Mof_O 	O 	0.8249	0.9875	0.86393	-0.341
Mof_C 	C 	0.3695	0.2661	0.9308	0.512
Mof_H 	H 	0.4692	0.2823	0.9639	-0.076
Mof_C 	C 	0.9879	0.1566	0.6686	0.664
Mof_H 	H 	0.9743	0.2247	0.6303	-0.15
Mof_C 	C 	0.017	0.2808	0.9419	0.501
Mof_H 	H 	0.0013	0.3708	0.9451	-0.103
Mof_C 	C 	0.2774	0.9063	0.0354	0.329
Mof_H 	H 	0.2719	0.8526	0.0742	-0.052
Mof_C 	C 	0.2691	0.8506	0.8262	0.536
Mof_H 	H 	0.2532	0.782	0.7876	-0.13
Mof_C 	C 	0.8152	0.97	0.7956	0.515
Mof_H 	H 	0.7234	0.9468	0.7444	-0.082
Mof_Zn	Zn	0.06462	0.12177	0.30533	1.228
Mof_Zn	Zn	0.12311	0.42892	0.36812	1.237
Mof_O 	O 	0.2877	0.1368	0.39208	-0.485
Mof_O 	O 	0.3321	0.35298	0.43034	-0.588
Mof_O 	O 	0.0531	0.31309	0.25058	-0.665
Mof_O 	O 	0.9406	0.4546	0.13453	-0.494
Mof_O 	O 	0.0417	0.25213	0.38568	-0.619
Mof_O 	O 	0.0117	0.295	0.49241	-0.496
Mof_O 	O 	0.164	0.5261	0.47799	-0.602
Mof_O 	O 	0.3929	0.5951	0.54458	-0.459
Mof_O 	O 	0.157	0.58901	0.30803	-0.617
Mof_O 	O 	0.3964	0.6268	0.38939	-0.457
Mof_O 	O 	0.916	0.5202	0.28666	-0.551
Mof_O 	O 	0.8249	0.5125	0.36393	-0.439
Mof_C 	C 	0.3695	0.2339	0.4308	0.525
Mof_H 	H 	0.4692	0.2177	0.4639	-0.125
Mof_C 	C 	0.9879	0.3434	0.1686	0.662
Mof_H 	H 	0.9743	0.2753	0.1303	-0.163
Mof_C 	C 	0.017	0.2192	0.4419	0.534
Mof_H 	H 	0.0013	0.1292	0.4451	-0.171
Mof_C 	C 	0.2774	0.5937	0.5354	0.541
Mof_H 	H 	0.2719	0.6474	0.5742	-0.118
Mof_C 	C 	0.2691	0.6494	0.3262	0.553
Mof_H 	H 	0.2532	0.718	0.2876	-0.135
Mof_C 	C 	0.8152	0.53	0.2956	0.551
Mof_H 	H 	0.7234	0.5532	0.2444	-0.122
Mof_Zn	Zn	0.93538	0.62177	0.19467	1.26
Mof_Zn	Zn	0.87689	0.92892	0.13188	1.284
Mof_O 	O 	0.7123	0.6368	0.10792	-0.465
Mof_O 	O 	0.6679	0.85298	0.06966	-0.565
Mof_O 	O 	0.9469	0.81309	0.24942	-0.465
Mof_O 	O 	0.0594	0.9546	0.36547	-0.371
Mof_O 	O 	0.9583	0.75213	0.11432	-0.547
Mof_O 	O 	0.9883	0.795	0.00759	-0.433
Mof_O 	O 	0.836	0.0261	0.02201	-0.719
Mof_O 	O 	0.6071	0.0951	0.95542	-0.496
Mof_O 	O 	0.843	0.08901	0.19197	-0.599
Mof_O 	O 	0.6036	0.1268	0.11061	-0.522
Mof_O 	O 	0.084	0.0202	0.21334	-0.683
Mof_O 	O 	0.1751	0.0125	0.13607	-0.565
Mof_C 	C 	0.6305	0.7339	0.0692	0.513
Mof_H 	H 	0.5308	0.7177	0.0361	-0.134
Mof_C 	C 	0.0121	0.8434	0.3314	0.396
Mof_H 	H 	0.0257	0.7753	0.3697	-0.097
Mof_C 	C 	0.983	0.7192	0.0581	0.525
Mof_H 	H 	0.9987	0.6292	0.0549	-0.114
Mof_C 	C 	0.7226	0.0937	0.9646	0.706
Mof_H 	H 	0.7281	0.1474	0.9258	-0.162
Mof_C 	C 	0.7309	0.1494	0.1738	0.55
Mof_H 	H 	0.7468	0.218	0.2124	-0.138
Mof_C 	C 	0.1848	0.03	0.2044	0.59
Mof_H 	H 	0.2766	0.0532	0.2556	-0.16
Mof_Zn	Zn	4.86397e-33	0.5	0.5	1.233
Mof_Zn	Zn	-0	0	-0	1.163
Mof_Zn	Zn	0.5	0.5	0.5	1.257
Mof_Zn	Zn	0.5	0	-0	1.189
_end
