# CIF file generated by openbabel 3.1.0, see https://openbabel.org
data_I
_chemical_name_common 'ic402280p_si_002_clean'
_cell_length_a 16.1491
_cell_length_b 20.6896
_cell_length_c 20.7592
_cell_angle_alpha 113.408
_cell_angle_beta 98.04
_cell_angle_gamma 90.077
_space_group_name_H-M_alt 'P 1'
_space_group_name_Hall 'P 1'
loop_
    _symmetry_equiv_pos_as_xyz
    x,y,z
loop_
    _atom_site_label
    _atom_site_type_symbol
    _atom_site_fract_x
    _atom_site_fract_y
    _atom_site_fract_z
    _atom_site_occupancy
    Cu1      Cu       0.68459    0.06955    0.57083    1.000
    Cu2      Cu       0.82956    0.15842    0.18945    1.000
    Cu3      Cu       0.93363    0.21638    0.88752    1.000
    Cu4      Cu       0.67032    0.05922    0.06274    1.000
    Cu5      Cu       0.55985    0.72086    0.83290    1.000
    Cu6      Cu       0.32968    0.94078    0.93726    1.000
    Cu7      Cu       0.61750    0.19704    0.70923    1.000
    Cu8      Cu       0.31901    0.35460    0.55800    1.000
    Cu9      Cu       0.67591    0.65180    0.94278    1.000
    Cu10     Cu       0.38250    0.80296    0.29077    1.000
    Cu11     Cu       0.44124    0.28000    0.65423    1.000
    Cu12     Cu       0.38086    0.81034    0.78999    1.000
    Cu13     Cu       0.14106    0.28087    0.48429    1.000
    Cu14     Cu       0.68099    0.64540    0.44200    1.000
    Cu15     Cu       0.82152    0.54638    0.98048    1.000
    Cu16     Cu       0.88946    0.69131    0.96245    1.000
    Cu17     Cu       0.32409    0.34820    0.05722    1.000
    Cu18     Cu       0.85894    0.71913    0.51571    1.000
    Cu19     Cu       0.17848    0.45362    0.01952    1.000
    Cu20     Cu       0.50405    0.43304    0.64533    1.000
    Cu21     Cu       0.00131    0.09259    0.74853    1.000
    Cu22     Cu       0.04292    0.79882    0.65040    1.000
    Cu23     Cu       0.82620    0.54529    0.47719    1.000
    Cu24     Cu       0.49595    0.56696    0.35467    1.000
    Cu25     Cu       0.61914    0.18966    0.21001    1.000
    Cu26     Cu       0.17380    0.45471    0.52281    1.000
    Cu27     Cu       0.31541    0.93045    0.42917    1.000
    Cu28     Cu       0.17030    0.82711    0.28669    1.000
    Cu29     Cu       0.95708    0.20118    0.34960    1.000
    Cu30     Cu       0.99154    0.92346    0.79895    1.000
    Cu31     Cu       0.50295    0.43262    0.15985    1.000
    Cu32     Cu       0.06637    0.78362    0.11248    1.000
    Cu33     Cu       0.99869    0.90741    0.25147    1.000
    Cu34     Cu       0.11054    0.30869    0.03755    1.000
    Cu35     Cu       0.82970    0.17289    0.71331    1.000
    Cu36     Cu       0.44015    0.27914    0.16710    1.000
    Cu37     Cu       0.17044    0.84158    0.81055    1.000
    Cu38     Cu       0.49705    0.56738    0.84015    1.000
    Cu39     Cu       0.55876    0.72000    0.34577    1.000
    Cu40     Cu       0.00846    0.07654    0.20105    1.000
    H1       H        0.76340    0.27550    0.96120    1.000
    H2       H        0.40470    0.14730    0.49530    1.000
    H3       H        0.66110    0.25340    0.38650    1.000
    H4       H        0.80150    0.89140    0.17030    1.000
    H5       H        0.21740    0.32970    0.95890    1.000
    H6       H        0.85280    0.57900    0.73220    1.000
    H7       H        0.32600    0.34650    0.78460    1.000
    H8       H        0.05940    0.06760    0.95150    1.000
    H9       H        0.24860    0.67750    0.75990    1.000
    H10      H        0.26250    0.16820    0.38890    1.000
    H11      H        0.80580    0.26370    0.44720    1.000
    H12      H        0.05450    0.05600    0.40080    1.000
    H13      H        0.94060    0.93240    0.04850    1.000
    H14      H        0.23660    0.72450    0.03880    1.000
    H15      H        0.68550    0.40460    0.91300    1.000
    H16      H        0.90370    0.35500    0.35870    1.000
    H17      H        0.27200    0.19600    0.18720    1.000
    H18      H        0.29500    0.57660    0.78900    1.000
    H19      H        0.34320    0.92230    0.66960    1.000
    H20      H        0.27960    0.81600    0.88360    1.000
    H21      H        0.54680    0.40990    0.85190    1.000
    H22      H        0.60020    0.89570    0.84030    1.000
    H23      H        0.15680    0.02890    0.65700    1.000
    H24      H        0.86000    0.99290    0.91370    1.000
    H25      H        0.73420    0.19670    0.62760    1.000
    H26      H        0.19420    0.73630    0.55280    1.000
    H27      H        0.72800    0.80400    0.81280    1.000
    H28      H        0.50770    0.05830    0.45710    1.000
    H29      H        0.25320    0.66750    0.25550    1.000
    H30      H        0.09630    0.64500    0.64130    1.000
    H31      H        0.61470    0.89510    0.34990    1.000
    H32      H        0.72850    0.81680    0.34200    1.000
    H33      H        0.67400    0.65350    0.21540    1.000
    H34      H        0.31450    0.59540    0.08700    1.000
    H35      H        0.19850    0.10860    0.82970    1.000
    H36      H        0.45400    0.58980    0.63060    1.000
    H37      H        0.59530    0.85270    0.50470    1.000
    H38      H        0.58530    0.90030    0.15610    1.000
    H39      H        0.86670    0.38920    0.57590    1.000
    H40      H        0.31160    0.59740    0.57770    1.000
    H41      H        0.99550    0.54190    0.08720    1.000
    H42      H        0.45320    0.59010    0.14810    1.000
    H43      H        0.97310    0.21310    0.76440    1.000
    H44      H        0.39540    0.15290    0.00490    1.000
    H45      H        0.79430    0.92510    0.99120    1.000
    H46      H        0.18230    0.38260    0.59190    1.000
    H47      H        0.29590    0.57330    0.29440    1.000
    H48      H        0.53760    0.68080    0.45810    1.000
    H49      H        0.99030    0.46340    0.43370    1.000
    H50      H        0.65680    0.07770    0.33040    1.000
    H51      H        0.68840    0.40260    0.42230    1.000
    H52      H        0.27150    0.18320    0.65800    1.000
    H53      H        0.20570    0.07490    0.00880    1.000
    H54      H        0.75140    0.32250    0.24010    1.000
    H55      H        0.81770    0.61740    0.40810    1.000
    H56      H        0.64640    0.08020    0.82720    1.000
    H57      H        0.23560    0.18880    0.95600    1.000
    H58      H        0.65550    0.52700    0.13660    1.000
    H59      H        0.81140    0.93590    0.52270    1.000
    H60      H        0.62860    0.26760    0.88460    1.000
    H61      H        0.42420    0.09240    0.34970    1.000
    H62      H        0.60460    0.84710    0.99510    1.000
    H63      H        0.97710    0.19980    0.21930    1.000
    H64      H        0.21390    0.09020    0.26310    1.000
    H65      H        0.00450    0.45810    0.91280    1.000
    H66      H        0.70500    0.42340    0.21100    1.000
    H67      H        0.34450    0.47300    0.86340    1.000
    H68      H        0.83300    0.09930    0.39360    1.000
    H69      H        0.13900    0.17910    0.57930    1.000
    H70      H        0.78610    0.90980    0.73690    1.000
    H71      H        0.39980    0.10430    0.15970    1.000
    H72      H        0.73750    0.83180    0.61110    1.000
    H73      H        0.84090    0.11970    0.95740    1.000
    H74      H        0.00970    0.53660    0.56630    1.000
    H75      H        0.16700    0.90070    0.60640    1.000
    H76      H        0.50870    0.94170    0.04010    1.000
    H77      H        0.02690    0.78690    0.23560    1.000
    H78      H        0.13130    0.21560    0.13750    1.000
    H79      H        0.35360    0.91980    0.17280    1.000
    H80      H        0.76440    0.81120    0.04400    1.000
    H81      H        0.89830    0.35770    0.86610    1.000
    H82      H        0.26580    0.80330    0.37240    1.000
    H83      H        0.49130    0.05830    0.95990    1.000
    H84      H        0.09190    0.58910    0.22200    1.000
    H85      H        0.84320    0.97110    0.34300    1.000
    H86      H        0.86100    0.82090    0.42070    1.000
    H87      H        0.49230    0.94170    0.54290    1.000
    H88      H        0.66930    0.65700    0.69880    1.000
    H89      H        0.90810    0.41090    0.77800    1.000
    H90      H        0.65200    0.52930    0.61990    1.000
    H91      H        0.46760    0.31850    0.05980    1.000
    H92      H        0.78260    0.67030    0.04110    1.000
    H93      H        0.37140    0.73240    0.11540    1.000
    H94      H        0.13330    0.61080    0.42410    1.000
    H95      H        0.18860    0.06410    0.47730    1.000
    H96      H        0.34800    0.47070    0.38010    1.000
    H97      H        0.53240    0.68150    0.94020    1.000
    H98      H        0.72040    0.18400    0.11640    1.000
    H99      H        0.10170    0.64230    0.13390    1.000
    H100     H        0.57580    0.90760    0.65030    1.000
    H101     H        0.74680    0.33250    0.74450    1.000
    H102     H        0.33070    0.34300    0.30120    1.000
    H103     H        0.38530    0.10490    0.65010    1.000
    H104     H        0.86870    0.78440    0.86250    1.000
    H105     H        0.02290    0.80020    0.78070    1.000
    H106     H        0.14000    0.00710    0.08630    1.000
    H107     H        0.46240    0.31920    0.54190    1.000
    H108     H        0.14720    0.42100    0.26780    1.000
    H109     H        0.94550    0.94400    0.59920    1.000
    H110     H        0.54600    0.41020    0.36940    1.000
    H111     H        0.41470    0.09970    0.84390    1.000
    H112     H        0.15910    0.88030    0.04260    1.000
    H113     H        0.33890    0.74660    0.61350    1.000
    H114     H        0.70410    0.42670    0.70560    1.000
    C1       C        0.36890    0.45040    0.82280    1.000
    C2       C        0.62920    0.99320    0.84610    1.000
    C3       C        0.41750    0.10960    0.25960    1.000
    C4       C        0.10470    0.56940    0.25510    1.000
    C5       C        0.82870    0.51880    0.59150    1.000
    C6       C        0.99500    0.58060    0.07500    1.000
    C7       C        0.61880    0.99580    0.23650    1.000
    C8       C        0.40620    0.11200    0.75120    1.000
    C9       C        0.18110    0.11950    0.29490    1.000
    C10      C        0.65420    0.02990    0.92520    1.000
    C11      C        0.40280    0.07610    0.79480    1.000
    C12      C        0.86550    0.07400    0.35930    1.000
    C13      C        0.41270    0.55290    0.12580    1.000
    C14      C        0.99860    0.58190    0.57000    1.000
    C15      C        0.37150    0.44840    0.33900    1.000
    C16      C        0.73680    0.79470    0.37340    1.000
    C17      C        0.00500    0.41940    0.92500    1.000
    C18      C        0.85370    0.48830    0.64590    1.000
    C19      C        0.26320    0.20530    0.62660    1.000
    C20      C        0.63770    0.62260    0.70450    1.000
    C21      C        0.24490    0.74040    0.08800    1.000
    C22      C        0.51020    0.09450    0.50200    1.000
    C23      C        0.86750    0.09330    0.91920    1.000
    C24      C        0.41200    0.55370    0.61240    1.000
    C25      C        0.11860    0.45450    0.15350    1.000
    C26      C        0.62850    0.55160    0.66100    1.000
    C27      C        0.50300    0.90640    0.99450    1.000
    C28      C        0.61100    0.00050    0.73250    1.000
    C29      C        0.66720    0.44200    0.41630    1.000
    C30      C        0.81890    0.88050    0.70510    1.000
    C31      C        0.87160    0.00330    0.33150    1.000
    C32      C        0.79190    0.83700    0.63500    1.000
    C33      C        0.36880    0.96780    0.19480    1.000
    C34      C        0.59380    0.88800    0.24880    1.000
    C35      C        0.44400    0.14620    0.03080    1.000
    C36      C        0.38120    0.00420    0.76350    1.000
    C37      C        0.90250    0.96710    0.06240    1.000
    C38      C        0.54660    0.85620    0.47680    1.000
    C39      C        0.81040    0.79730    0.41720    1.000
    C40      C        0.69670    0.32980    0.22480    1.000
    C41      C        0.67100    0.38560    0.20780    1.000
    C42      C        0.26010    0.22040    0.15810    1.000
    C43      C        0.38070    0.96140    0.80830    1.000
    C44      C        0.94610    0.36360    0.89920    1.000
    C45      C        0.09750    0.03290    0.93760    1.000
    C46      C        0.88130    0.50310    0.76790    1.000
    C47      C        0.58250    0.89040    0.74040    1.000
    C48      C        0.81640    0.81690    0.07200    1.000
    C49      C        0.39660    0.07800    0.18680    1.000
    C50      C        0.13250    0.90670    0.08080    1.000
    C51      C        0.83720    0.86140    0.14220    1.000
    C52      C        0.59720    0.92390    0.20520    1.000
    C53      C        0.36230    0.37740    0.29550    1.000
    C54      C        0.68000    0.25510    0.86940    1.000
    C55      C        0.32900    0.61440    0.79220    1.000
    C56      C        0.64120    0.61970    0.22100    1.000
    C57      C        0.21120    0.75250    0.60160    1.000
    C58      C        0.67460    0.02980    0.43160    1.000
    C59      C        0.90840    0.97960    0.60570    1.000
    C60      C        0.32540    0.97020    0.56840    1.000
    C61      C        0.14630    0.51170    0.35410    1.000
    C62      C        0.66410    0.44450    0.90840    1.000
    C63      C        0.83420    0.97510    0.56290    1.000
    C64      C        0.41220    0.07060    0.30050    1.000
    C65      C        0.18360    0.18310    0.92800    1.000
    C66      C        0.18200    0.23140    0.13070    1.000
    C67      C        0.12840    0.99670    0.66850    1.000
    C68      C        0.13870    0.46890    0.28240    1.000
    C69      C        0.64310    0.99220    0.35310    1.000
    C70      C        0.58780    0.92940    0.69950    1.000
    C71      C        0.49700    0.09360    0.00550    1.000
    C72      C        0.70860    0.24200    0.36450    1.000
    C73      C        0.35690    0.00780    0.64690    1.000
    C74      C        0.35810    0.97050    0.69010    1.000
    C75      C        0.16280    0.13860    0.85780    1.000
    C76      C        0.81800    0.76860    0.86930    1.000
    C77      C        0.12110    0.97650    0.10480    1.000
    C78      C        0.04620    0.64200    0.61170    1.000
    C79      C        0.82120    0.96320    0.03050    1.000
    C80      C        0.61670    0.04490    0.68980    1.000
    C81      C        0.55600    0.85380    0.96920    1.000
    C82      C        0.87890    0.02350    0.89520    1.000
    C83      C        0.69320    0.33730    0.72450    1.000
    C84      C        0.34580    0.97010    0.07480    1.000
    C85      C        0.37080    0.00680    0.15390    1.000
    C86      C        0.30680    0.66270    0.27550    1.000
    C87      C        0.61930    0.03860    0.19170    1.000
    C88      C        0.11870    0.49690    0.23210    1.000
    C89      C        0.29140    0.75800    0.63550    1.000
    C90      C        0.13020    0.58250    0.37600    1.000
    C91      C        0.89530    0.43060    0.74490    1.000
    C92      C        0.38320    0.07940    0.67810    1.000
    C93      C        0.48980    0.90550    0.49800    1.000
    C94      C        0.30330    0.67020    0.77520    1.000
    C95      C        0.18960    0.20270    0.58280    1.000
    C96      C        0.13450    0.92600    0.64070    1.000
    C97      C        0.38900    0.99950    0.26750    1.000
    C98      C        0.10980    0.61100    0.32650    1.000
    C99      C        0.09160    0.02040    0.39430    1.000
    C100     C        0.33040    0.61080    0.29750    1.000
    C101     C        0.95380    0.35800    0.38830    1.000
    C102     C        0.78880    0.24750    0.39840    1.000
    C103     C        0.88140    0.54550    0.84650    1.000
    C104     C        0.45340    0.14380    0.52320    1.000
    C105     C        0.86980    0.41750    0.62400    1.000
    C106     C        0.38330    0.95510    0.31020    1.000
    C107     C        0.58800    0.44630    0.38760    1.000
    C108     C        0.16580    0.02490    0.43710    1.000
    C109     C        0.32000    0.74490    0.13060    1.000
    C110     C        0.73990    0.77960    0.84190    1.000
    C111     C        0.33280    0.55800    0.58370    1.000
    C112     C        0.35880    0.38030    0.77900    1.000
    C113     C        0.75510    0.25960    0.91200    1.000
    C114     C        0.00140    0.41810    0.43000    1.000
    C115     C        0.89020    0.38900    0.67350    1.000
    C116     C        0.61680    0.92060    0.32190    1.000
    C117     C        0.86130    0.53110    0.71760    1.000
    C118     C        0.63110    0.54960    0.17720    1.000
    C119     C        0.20810    0.16300    0.36500    1.000
    C120     C        0.63120    0.03220    0.80520    1.000
    C121     C        0.64190    0.02950    0.30990    1.000
    C122     C        0.17880    0.03680    0.96950    1.000
    C123     C        0.58730    0.44710    0.87420    1.000
    C124     C        0.33590    0.55550    0.09160    1.000
    C125     C        0.05390    0.63640    0.10080    1.000
    C126     C        0.66960    0.38920    0.70250    1.000
    C127     C        0.60340    0.92200    0.81320    1.000
    C128     C        0.17130    0.48120    0.40850    1.000
    S1       S        0.42738    0.20552    0.79202    1.000
    S2       S        0.90741    0.29749    0.64552    1.000
    S3       S        0.09259    0.70251    0.35448    1.000
    S4       S        0.55506    0.79820    0.69614    1.000
    S5       S        0.57262    0.79448    0.20798    1.000
    S6       S        0.44494    0.20180    0.30386    1.000
    N1       N        0.28990    0.49620    0.56520    1.000
    N2       N        0.91680    0.03000    0.11720    1.000
    N3       N        0.52120    0.81380    0.40950    1.000
    N4       N        0.55910    0.56860    0.26240    1.000
    N5       N        0.55770    0.57000    0.74850    1.000
    N6       N        0.14830    0.92220    0.35280    1.000
    N7       N        0.70960    0.21770    0.29490    1.000
    N8       N        0.72590    0.71910    0.90480    1.000
    N9       N        0.91730    0.85430    0.16340    1.000
    N10      N        0.90250    0.11710    0.87650    1.000
    N11      N        0.88540    0.78310    0.05120    1.000
    N12      N        0.20540    0.24110    0.54620    1.000
    N13      N        0.14310    0.19620    0.39250    1.000
    N14      N        0.62550    0.29450    0.71200    1.000
    N15      N        0.31970    0.24470    0.61630    1.000
    N16      N        0.42870    0.89250    0.44210    1.000
    N17      N        0.06460    0.93700    0.17140    1.000
    N18      N        0.06660    0.40040    0.46440    1.000
    N19      N        0.56170    0.31930    0.68220    1.000
    N20      N        0.21000    0.79120    0.71400    1.000
    N21      N        0.44120    0.89710    0.94090    1.000
    N22      N        0.62780    0.28770    0.21500    1.000
    N23      N        0.79460    0.75890    0.45380    1.000
    N24      N        0.08320    0.97000    0.88280    1.000
    N25      N        0.43830    0.68070    0.31780    1.000
    N26      N        0.19990    0.96230    0.41030    1.000
    N27      N        0.58870    0.37530    0.18610    1.000
    N28      N        0.37450    0.70550    0.28800    1.000
    N29      N        0.41960    0.48570    0.12140    1.000
    N30      N        0.44230    0.43000    0.25150    1.000
    N31      N        0.80010    0.03770    0.58970    1.000
    N32      N        0.09910    0.12700    0.28080    1.000
    N33      N        0.40820    0.36770    0.24310    1.000
    N34      N        0.71010    0.50380    0.43480    1.000
    N35      N        0.71580    0.73420    0.43260    1.000
    N36      N        0.44090    0.43140    0.73760    1.000
    N37      N        0.96030    0.65360    0.02590    1.000
    N38      N        0.41130    0.62470    0.81390    1.000
    N39      N        0.57910    0.51950    0.20400    1.000
    N40      N        0.47330    0.18670    0.09920    1.000
    N41      N        0.58060    0.51150    0.38990    1.000
    N42      N        0.92190    0.00540    0.84040    1.000
    N43      N        0.68250    0.74850    0.86470    1.000
    N44      N        0.45730    0.84180    0.88470    1.000
    N45      N        0.58910    0.37700    0.67580    1.000
    N46      N        0.21270    0.97620    0.93420    1.000
    N47      N        0.81500    0.23680    0.86930    1.000
    N48      N        0.84670    0.06350    0.11810    1.000
    N49      N        0.34460    0.45530    0.58220    1.000
    N50      N        0.08270    0.14570    0.83660    1.000
    N51      N        0.59180    0.63230    0.75690    1.000
    N52      N        0.83820    0.22540    0.34850    1.000
    N53      N        0.04870    0.95200    0.71770    1.000
    N54      N        0.09750    0.88290    0.12350    1.000
    N55      N        0.59610    0.63100    0.27310    1.000
    N56      N        0.85170    0.07780    0.64720    1.000
    N57      N        0.65540    0.54470    0.41780    1.000
    N58      N        0.29570    0.49180    0.06560    1.000
    N59      N        0.29040    0.78230    0.70510    1.000
    N60      N        0.37220    0.71230    0.78500    1.000
    N61      N        0.08180    0.95680    0.34200    1.000
    N62      N        0.92360    0.82630    0.65880    1.000
    N63      N        0.91550    0.10100    0.32780    1.000
    N64      N        0.93540    0.06300    0.82860    1.000
    N65      N        0.94560    0.80670    0.10720    1.000
    N66      N        0.77640    0.21920    0.80250    1.000
    N67      N        0.08450    0.89900    0.67220    1.000
    N68      N        0.44910    0.83620    0.38840    1.000
    N69      N        0.27410    0.28090    0.09520    1.000
    N70      N        0.42090    0.48050    0.79600    1.000
    N71      N        0.30540    0.77040    0.19750    1.000
    N72      N        0.00930    0.69560    0.60300    1.000
    N73      N        0.70430    0.50820    0.93440    1.000
    N74      N        0.90090    0.87300    0.71920    1.000
    N75      N        0.78730    0.02380    0.06580    1.000
    N76      N        0.52670    0.81330    0.90080    1.000
    N77      N        0.68030    0.75530    0.38370    1.000
    N78      N        0.41940    0.48850    0.61010    1.000
    N79      N        0.11460    0.21690    0.94880    1.000
    N80      N        0.06360    0.40770    0.97130    1.000
    N81      N        0.65240    0.54920    0.91530    1.000
    N82      N        0.05440    0.19330    0.89280    1.000
    N83      N        0.93640    0.59230    0.02870    1.000
    N84      N        0.79000    0.20880    0.28600    1.000
    N85      N        0.18500    0.76320    0.13070    1.000
    N86      N        0.06020    0.33070    0.44350    1.000
    N87      N        0.28420    0.26580    0.56740    1.000
    N88      N        0.54270    0.15820    0.11530    1.000
    N89      N        0.40390    0.36900    0.72690    1.000
    N90      N        0.03070    0.68060    0.07020    1.000
    N91      N        0.31750    0.25150    0.13530    1.000
    N92      N        0.55880    0.10290    0.05910    1.000
    N93      N        0.93340    0.59960    0.53560    1.000
    N94      N        0.41090    0.62300    0.32420    1.000
    N95      N        0.42150    0.48010    0.31040    1.000
    N96      N        0.55090    0.16380    0.61160    1.000
    N97      N        0.99070    0.30440    0.39700    1.000
    N98      N        0.95130    0.04800    0.28230    1.000
    N99      N        0.07640    0.17370    0.34120    1.000
    N100     N        0.15330    0.93650    0.88190    1.000
    N101     N        0.56250    0.31580    0.19100    1.000
    N102     N        0.07810    0.99460    0.15960    1.000
    N103     N        0.22360    0.78080    0.19750    1.000
    N104     N        0.58040    0.51430    0.87860    1.000
    N105     N        0.69460    0.22960    0.80250    1.000
    N106     N        0.93980    0.66930    0.55650    1.000
    N107     N        0.91820    0.04320    0.65800    1.000
    N108     N        0.34760    0.45080    0.08470    1.000
    N109     N        0.43750    0.68420    0.80900    1.000
    N110     N        0.16180    0.77460    0.65150    1.000
    N111     N        0.47880    0.18620    0.59050    1.000
    N112     N        0.85690    0.80380    0.60750    1.000
    N113     N        0.03970    0.34640    0.97410    1.000
    N114     N        0.57130    0.10750    0.55790    1.000
    N115     N        0.80800    0.73080    0.90790    1.000
    N116     N        0.07440    0.01280    0.71570    1.000
    N117     N        0.19200    0.26920    0.09210    1.000
    N118     N        0.96930    0.31940    0.92980    1.000
    N119     N        0.92560    0.98720    0.28430    1.000
    N120     N        0.57850    0.51990    0.68960    1.000
    O1       O        0.34610    0.23430    0.80010    1.000
    O2       O        0.70950    0.08990    0.45360    1.000
    O3       O        0.05310    0.83531    0.77060    1.000
    O4       O        0.99690    0.29130    0.64560    1.000
    O5       O        0.89660    0.61200    0.86920    1.000
    O6       O        0.60450    0.10220    0.22220    1.000
    O7       O        0.72750    0.16376    0.65013    1.000
    O8       O        0.29050    0.91010    0.54640    1.000
    O9       O        0.63750    0.01540    0.62910    1.000
    O10      O        0.52150    0.77660    0.74640    1.000
    O11      O        0.49390    0.78960    0.63520    1.000
    O12      O        0.13730    0.73710    0.42580    1.000
    O13      O        0.13590    0.48870    0.11900    1.000
    O14      O        0.46890    0.22640    0.74450    1.000
    O15      O        0.47850    0.22340    0.25360    1.000
    O16      O        0.43670    0.34374    0.09900    1.000
    O17      O        0.36250    0.99210    0.86970    1.000
    O18      O        0.50610    0.21040    0.36480    1.000
    O19      O        0.79560    0.57690    0.60950    1.000
    O20      O        0.65390    0.76570    0.19990    1.000
    O21      O        0.39550    0.89780    0.77780    1.000
    O22      O        0.21680    0.35692    0.00970    1.000
    O23      O        0.68330    0.09170    0.95200    1.000
    O24      O        0.43690    0.34465    0.58450    1.000
    O25      O        0.52130    0.77930    0.14030    1.000
    O26      O        0.10340    0.38800    0.13080    1.000
    O27      O        0.93750    0.17802    0.77030    1.000
    O28      O        0.71870    0.15142    0.13998    1.000
    O29      O        0.33770    0.00200    0.52920    1.000
    O30      O        0.53110    0.77360    0.25550    1.000
    O31      O        0.35690    0.00610    0.03840    1.000
    O32      O        0.20440    0.42310    0.39050    1.000
    O33      O        0.56310    0.65535    0.41550    1.000
    O34      O        0.31670    0.90830    0.04800    1.000
    O35      O        0.94690    0.16469    0.22940    1.000
    O36      O        0.36540    0.23270    0.32050    1.000
    O37      O        0.80070    0.62888    0.45477    1.000
    O38      O        0.39850    0.89070    0.27960    1.000
    O39      O        0.06250    0.82198    0.22970    1.000
    O40      O        0.47870    0.22070    0.85970    1.000
    O41      O        0.64310    0.99390    0.96160    1.000
    O42      O        0.84210    0.48240    0.52760    1.000
    O43      O        0.00310    0.70870    0.35440    1.000
    O44      O        0.15790    0.51760    0.47240    1.000
    O45      O        0.36250    0.98460    0.37090    1.000
    O46      O        0.19930    0.37112    0.54523    1.000
    O47      O        0.12350    0.72560    0.30360    1.000
    O48      O        0.86410    0.51130    0.88100    1.000
    O49      O        0.87650    0.27440    0.69640    1.000
    O50      O        0.56330    0.65626    0.90100    1.000
    O51      O        0.27250    0.83624    0.34987    1.000
    O52      O        0.63460    0.76730    0.67950    1.000
    O53      O        0.66230    0.99800    0.47080    1.000
    O54      O        0.28130    0.84858    0.86002    1.000
    O55      O        0.78320    0.64308    0.99030    1.000
    O56      O        0.63750    0.00790    0.13030    1.000
    O57      O        0.86270    0.26290    0.57420    1.000
    O58      O        0.60150    0.10930    0.72040    1.000
