data_functionalizedCrystal
_audit_creation_method	'EQeq! by Chris Wilmer'
_symmetry_space_group_name_H-M	'P1'
_symmetry_Int_Tables_number	1
_symmetry_cell_setting	triclinic
loop_
_symmetry_equiv_pos_as_xyz
  x,y,z
_cell_length_a	10.677
_cell_length_b	18.781
_cell_length_c	21.052
_cell_angle_alpha	90
_cell_angle_beta	102.16
_cell_angle_gamma	90
loop_
_atom_site_label
_atom_site_type_symbol
_atom_site_fract_x
_atom_site_fract_y
_atom_site_fract_z
_atom_site_charge
Mof_Cu	Cu	0.65392	0.21683	0.51886	0.908
Mof_Br	Br	0.8616	0.0293	0.6262	-0.387
Mof_Br	Br	0.0971	0.1222	0.4003	-0.24
Mof_Br	Br	0.7441	0.36935	0.71024	-0.294
Mof_O 	O 	0.7537	0.2353	0.607	-0.39
Mof_O 	O 	0.9162	0.2918	0.5748	-0.394
Mof_O 	O 	0.7612	0.1327	0.5149	-0.384
Mof_O 	O 	0.9232	0.1898	0.4822	-0.394
Mof_C 	C 	0.885	0.2324	0.7358	0.006
Mof_C 	C 	0.952	0.2304	0.7988	0.052
Mof_C 	C 	0.8929	0.3103	0.7306	0.123
Mof_C 	C 	0.0414	0.3104	0.7033	0.015
Mof_C 	C 	0.931	0.2712	0.6853	-0.143
Mof_C 	C 	0.861	0.2657	0.6172	0.394
Mof_C 	C 	0.9189	0.0116	0.5409	0.116
Mof_C 	C 	0.9407	0.065	0.501	-0.121
Mof_C 	C 	0.9819	0.945	0.5411	0.116
Mof_C 	C 	0.8708	0.1365	0.4987	0.389
Mof_O 	O 	0.255	0.095	0.3795	-0.211
Mof_N 	N 	0.213	0.219	0.391	-0.265
Mof_C 	C 	0.223	0.163	0.371	0.335
Mof_C 	C 	0.095	0.2236	0.3488	0.019
Mof_C 	C 	0.242	0.277	0.432	0.387
Mof_O 	O 	0.267	0.313	0.407	-0.397
Mof_N 	N 	0.21	0.347	0.315	-0.126
Mof_C 	C 	0.18	0.289	0.358	0.187
Mof_C 	C 	0.242	0.408	0.286	0.17
Mof_C 	C 	0.095	0.317	0.286	0.014
Mof_C 	C 	0.744	0.9861	0.583	0.225
Mof_C 	C 	0.777	0.068	0.744	-0.124
Mof_C 	C 	0.683	0.323	0.75	0.155
Mof_C 	C 	0.844	0.045	0.695	0.245
Mof_Cu	Cu	0.15392	0.71683	0.51886	0.909
Mof_Br	Br	0.3616	0.5293	0.6262	-0.386
Mof_Br	Br	0.5971	0.6222	0.4003	-0.239
Mof_Br	Br	0.2441	0.86935	0.71024	-0.293
Mof_O 	O 	0.2537	0.7353	0.607	-0.389
Mof_O 	O 	0.4162	0.7918	0.5748	-0.392
Mof_O 	O 	0.2612	0.6327	0.5149	-0.383
Mof_O 	O 	0.4232	0.6898	0.4822	-0.393
Mof_C 	C 	0.385	0.7324	0.7358	0.007
Mof_C 	C 	0.452	0.7304	0.7988	0.054
Mof_C 	C 	0.3929	0.8103	0.7306	0.124
Mof_C 	C 	0.5414	0.8104	0.7033	0.015
Mof_C 	C 	0.431	0.7712	0.6853	-0.142
Mof_C 	C 	0.361	0.7657	0.6172	0.394
Mof_C 	C 	0.4189	0.5116	0.5409	0.116
Mof_C 	C 	0.4407	0.565	0.501	-0.121
Mof_C 	C 	0.4819	0.445	0.5411	0.117
Mof_C 	C 	0.3708	0.6365	0.4987	0.389
Mof_O 	O 	0.755	0.595	0.3795	-0.211
Mof_N 	N 	0.713	0.719	0.391	-0.265
Mof_C 	C 	0.723	0.663	0.371	0.335
Mof_C 	C 	0.595	0.7236	0.3488	0.019
Mof_C 	C 	0.742	0.777	0.432	0.388
Mof_O 	O 	0.767	0.813	0.407	-0.397
Mof_N 	N 	0.71	0.847	0.315	-0.126
Mof_C 	C 	0.68	0.789	0.358	0.187
Mof_C 	C 	0.742	0.908	0.286	0.17
Mof_C 	C 	0.595	0.817	0.286	0.014
Mof_C 	C 	0.244	0.4861	0.583	0.225
Mof_C 	C 	0.277	0.568	0.744	-0.124
Mof_C 	C 	0.183	0.823	0.75	0.155
Mof_C 	C 	0.344	0.545	0.695	0.245
Mof_Cu	Cu	0.34608	0.21683	0.98114	0.91
Mof_Br	Br	0.1384	0.0293	0.8738	-0.385
Mof_Br	Br	0.9029	0.1222	0.0997	-0.238
Mof_Br	Br	0.2559	0.36935	0.78976	-0.293
Mof_O 	O 	0.2463	0.2353	0.893	-0.388
Mof_O 	O 	0.0838	0.2918	0.9252	-0.391
Mof_O 	O 	0.2388	0.1327	0.9851	-0.381
Mof_O 	O 	0.0768	0.1898	0.0178	-0.393
Mof_C 	C 	0.115	0.2324	0.7642	0.007
Mof_C 	C 	0.048	0.2304	0.7012	0.054
Mof_C 	C 	0.1071	0.3103	0.7694	0.123
Mof_C 	C 	0.9586	0.3104	0.7967	0.014
Mof_C 	C 	0.069	0.2712	0.8147	-0.14
Mof_C 	C 	0.139	0.2657	0.8828	0.393
Mof_C 	C 	0.0811	0.0116	0.9591	0.116
Mof_C 	C 	0.0593	0.065	0.999	-0.117
Mof_C 	C 	0.0181	0.945	0.9589	0.114
Mof_C 	C 	0.1292	0.1365	0.0013	0.386
Mof_O 	O 	0.745	0.095	0.1205	-0.211
Mof_N 	N 	0.787	0.219	0.109	-0.265
Mof_C 	C 	0.777	0.163	0.129	0.335
Mof_C 	C 	0.905	0.2236	0.1512	0.019
Mof_C 	C 	0.758	0.277	0.068	0.388
Mof_O 	O 	0.733	0.313	0.093	-0.397
Mof_N 	N 	0.79	0.347	0.185	-0.126
Mof_C 	C 	0.82	0.289	0.142	0.187
Mof_C 	C 	0.758	0.408	0.214	0.171
Mof_C 	C 	0.905	0.317	0.214	0.014
Mof_C 	C 	0.256	0.9861	0.917	0.224
Mof_C 	C 	0.223	0.068	0.756	-0.124
Mof_C 	C 	0.317	0.323	0.75	0.155
Mof_C 	C 	0.156	0.045	0.805	0.245
Mof_Cu	Cu	0.84608	0.71683	0.98114	0.909
Mof_Br	Br	0.6384	0.5293	0.8738	-0.386
Mof_Br	Br	0.4029	0.6222	0.0997	-0.239
Mof_Br	Br	0.7559	0.86935	0.78976	-0.294
Mof_O 	O 	0.7463	0.7353	0.893	-0.389
Mof_O 	O 	0.5838	0.7918	0.9252	-0.393
Mof_O 	O 	0.7388	0.6327	0.9851	-0.384
Mof_O 	O 	0.5768	0.6898	0.0178	-0.393
Mof_C 	C 	0.615	0.7324	0.7642	0.007
Mof_C 	C 	0.548	0.7304	0.7012	0.054
Mof_C 	C 	0.6071	0.8103	0.7694	0.124
Mof_C 	C 	0.4586	0.8104	0.7967	0.015
Mof_C 	C 	0.569	0.7712	0.8147	-0.142
Mof_C 	C 	0.639	0.7657	0.8828	0.394
Mof_C 	C 	0.5811	0.5116	0.9591	0.116
Mof_C 	C 	0.5593	0.565	0.999	-0.121
Mof_C 	C 	0.5181	0.445	0.9589	0.117
Mof_C 	C 	0.6292	0.6365	0.0013	0.391
Mof_O 	O 	0.245	0.595	0.1205	-0.211
Mof_N 	N 	0.287	0.719	0.109	-0.265
Mof_C 	C 	0.277	0.663	0.129	0.335
Mof_C 	C 	0.405	0.7236	0.1512	0.019
Mof_C 	C 	0.258	0.777	0.068	0.388
Mof_O 	O 	0.233	0.813	0.093	-0.398
Mof_N 	N 	0.29	0.847	0.185	-0.126
Mof_C 	C 	0.32	0.789	0.142	0.187
Mof_C 	C 	0.258	0.908	0.214	0.17
Mof_C 	C 	0.405	0.817	0.214	0.014
Mof_C 	C 	0.756	0.4861	0.917	0.225
Mof_C 	C 	0.723	0.568	0.756	-0.124
Mof_C 	C 	0.817	0.823	0.75	0.155
Mof_C 	C 	0.656	0.545	0.805	0.245
Mof_Cu	Cu	0.34608	0.78317	0.48114	0.909
Mof_Br	Br	0.1384	0.9707	0.3738	-0.386
Mof_Br	Br	0.9029	0.8778	0.5997	-0.239
Mof_Br	Br	0.2559	0.63065	0.28976	-0.293
Mof_O 	O 	0.2463	0.7647	0.393	-0.389
Mof_O 	O 	0.0838	0.7082	0.4252	-0.393
Mof_O 	O 	0.2388	0.8673	0.4851	-0.383
Mof_O 	O 	0.0768	0.8102	0.5178	-0.393
Mof_C 	C 	0.115	0.7676	0.2642	0.007
Mof_C 	C 	0.048	0.7696	0.2012	0.053
Mof_C 	C 	0.1071	0.6897	0.2694	0.124
Mof_C 	C 	0.9586	0.6896	0.2967	0.016
Mof_C 	C 	0.069	0.7288	0.3147	-0.143
Mof_C 	C 	0.139	0.7343	0.3828	0.394
Mof_C 	C 	0.0811	0.9884	0.4591	0.116
Mof_C 	C 	0.0593	0.935	0.499	-0.121
Mof_C 	C 	0.0181	0.055	0.4589	0.116
Mof_C 	C 	0.1292	0.8635	0.5013	0.389
Mof_O 	O 	0.745	0.905	0.6205	-0.211
Mof_N 	N 	0.787	0.781	0.609	-0.265
Mof_C 	C 	0.777	0.837	0.629	0.335
Mof_C 	C 	0.905	0.7764	0.6512	0.019
Mof_C 	C 	0.758	0.723	0.568	0.387
Mof_O 	O 	0.733	0.687	0.593	-0.397
Mof_N 	N 	0.79	0.653	0.685	-0.126
Mof_C 	C 	0.82	0.711	0.642	0.187
Mof_C 	C 	0.758	0.592	0.714	0.17
Mof_C 	C 	0.905	0.683	0.714	0.014
Mof_C 	C 	0.256	0.0139	0.417	0.225
Mof_C 	C 	0.223	0.932	0.256	-0.124
Mof_C 	C 	0.317	0.677	0.25	0.155
Mof_C 	C 	0.156	0.955	0.305	0.245
Mof_Cu	Cu	0.84608	0.28317	0.48114	0.909
Mof_Br	Br	0.6384	0.4707	0.3738	-0.386
Mof_Br	Br	0.4029	0.3778	0.5997	-0.239
Mof_Br	Br	0.7559	0.13065	0.28976	-0.293
Mof_O 	O 	0.7463	0.2647	0.393	-0.389
Mof_O 	O 	0.5838	0.2082	0.4252	-0.392
Mof_O 	O 	0.7388	0.3673	0.4851	-0.383
Mof_O 	O 	0.5768	0.3102	0.5178	-0.393
Mof_C 	C 	0.615	0.2676	0.2642	0.007
Mof_C 	C 	0.548	0.2696	0.2012	0.054
Mof_C 	C 	0.6071	0.1897	0.2694	0.124
Mof_C 	C 	0.4586	0.1896	0.2967	0.015
Mof_C 	C 	0.569	0.2288	0.3147	-0.142
Mof_C 	C 	0.639	0.2343	0.3828	0.394
Mof_C 	C 	0.5811	0.4884	0.4591	0.116
Mof_C 	C 	0.5593	0.435	0.499	-0.121
Mof_C 	C 	0.5181	0.555	0.4589	0.117
Mof_C 	C 	0.6292	0.3635	0.5013	0.389
Mof_O 	O 	0.245	0.405	0.6205	-0.211
Mof_N 	N 	0.287	0.281	0.609	-0.265
Mof_C 	C 	0.277	0.337	0.629	0.335
Mof_C 	C 	0.405	0.2764	0.6512	0.019
Mof_C 	C 	0.258	0.223	0.568	0.388
Mof_O 	O 	0.233	0.187	0.593	-0.397
Mof_N 	N 	0.29	0.153	0.685	-0.126
Mof_C 	C 	0.32	0.211	0.642	0.187
Mof_C 	C 	0.258	0.092	0.714	0.17
Mof_C 	C 	0.405	0.183	0.714	0.014
Mof_C 	C 	0.756	0.5139	0.417	0.225
Mof_C 	C 	0.723	0.432	0.256	-0.124
Mof_C 	C 	0.817	0.177	0.25	0.155
Mof_C 	C 	0.656	0.455	0.305	0.245
Mof_Cu	Cu	0.65392	0.78317	0.01886	0.91
Mof_Br	Br	0.8616	0.9707	0.1262	-0.385
Mof_Br	Br	0.0971	0.8778	0.9003	-0.238
Mof_Br	Br	0.7441	0.63065	0.21024	-0.293
Mof_O 	O 	0.7537	0.7647	0.107	-0.388
Mof_O 	O 	0.9162	0.7082	0.0748	-0.391
Mof_O 	O 	0.7612	0.8673	0.0149	-0.381
Mof_O 	O 	0.9232	0.8102	0.9822	-0.393
Mof_C 	C 	0.885	0.7676	0.2358	0.007
Mof_C 	C 	0.952	0.7696	0.2988	0.054
Mof_C 	C 	0.8929	0.6897	0.2306	0.123
Mof_C 	C 	0.0414	0.6896	0.2033	0.014
Mof_C 	C 	0.931	0.7288	0.1853	-0.14
Mof_C 	C 	0.861	0.7343	0.1172	0.393
Mof_C 	C 	0.9189	0.9884	0.0409	0.116
Mof_C 	C 	0.9407	0.935	0.001	-0.117
Mof_C 	C 	0.9819	0.055	0.0411	0.114
Mof_C 	C 	0.8708	0.8635	0.9987	0.386
Mof_O 	O 	0.255	0.905	0.8795	-0.211
Mof_N 	N 	0.213	0.781	0.891	-0.265
Mof_C 	C 	0.223	0.837	0.871	0.335
Mof_C 	C 	0.095	0.7764	0.8488	0.019
Mof_C 	C 	0.242	0.723	0.932	0.388
Mof_O 	O 	0.267	0.687	0.907	-0.397
Mof_N 	N 	0.21	0.653	0.815	-0.126
Mof_C 	C 	0.18	0.711	0.858	0.187
Mof_C 	C 	0.242	0.592	0.786	0.171
Mof_C 	C 	0.095	0.683	0.786	0.014
Mof_C 	C 	0.744	0.0139	0.083	0.224
Mof_C 	C 	0.777	0.932	0.244	-0.124
Mof_C 	C 	0.683	0.677	0.25	0.155
Mof_C 	C 	0.844	0.955	0.195	0.245
Mof_Cu	Cu	0.15392	0.28317	0.01886	0.909
Mof_Br	Br	0.3616	0.4707	0.1262	-0.386
Mof_Br	Br	0.5971	0.3778	0.9003	-0.239
Mof_Br	Br	0.2441	0.13065	0.21024	-0.294
Mof_O 	O 	0.2537	0.2647	0.107	-0.389
Mof_O 	O 	0.4162	0.2082	0.0748	-0.393
Mof_O 	O 	0.2612	0.3673	0.0149	-0.384
Mof_O 	O 	0.4232	0.3102	0.9822	-0.393
Mof_C 	C 	0.385	0.2676	0.2358	0.007
Mof_C 	C 	0.452	0.2696	0.2988	0.054
Mof_C 	C 	0.3929	0.1897	0.2306	0.124
Mof_C 	C 	0.5414	0.1896	0.2033	0.015
Mof_C 	C 	0.431	0.2288	0.1853	-0.142
Mof_C 	C 	0.361	0.2343	0.1172	0.394
Mof_C 	C 	0.4189	0.4884	0.0409	0.116
Mof_C 	C 	0.4407	0.435	0.001	-0.121
Mof_C 	C 	0.4819	0.555	0.0411	0.117
Mof_C 	C 	0.3708	0.3635	0.9987	0.391
Mof_O 	O 	0.755	0.405	0.8795	-0.211
Mof_N 	N 	0.713	0.281	0.891	-0.265
Mof_C 	C 	0.723	0.337	0.871	0.335
Mof_C 	C 	0.595	0.2764	0.8488	0.019
Mof_C 	C 	0.742	0.223	0.932	0.388
Mof_O 	O 	0.767	0.187	0.907	-0.398
Mof_N 	N 	0.71	0.153	0.815	-0.126
Mof_C 	C 	0.68	0.211	0.858	0.187
Mof_C 	C 	0.742	0.092	0.786	0.17
Mof_C 	C 	0.595	0.183	0.786	0.014
Mof_C 	C 	0.244	0.5139	0.083	0.225
Mof_C 	C 	0.277	0.432	0.244	-0.124
Mof_C 	C 	0.183	0.177	0.25	0.155
Mof_C 	C 	0.344	0.455	0.195	0.245
_end
