data_functionalizedCrystal
_audit_creation_method	'EQeq! by Chris Wilmer'
_symmetry_space_group_name_H-M	'P1'
_symmetry_Int_Tables_number	1
_symmetry_cell_setting	triclinic
loop_
_symmetry_equiv_pos_as_xyz
  x,y,z
_cell_length_a	9.8179
_cell_length_b	11.2888
_cell_length_c	14.5465
_cell_angle_alpha	91.622
_cell_angle_beta	90
_cell_angle_gamma	90
loop_
_atom_site_label
_atom_site_type_symbol
_atom_site_fract_x
_atom_site_fract_y
_atom_site_fract_z
_atom_site_charge
Mof_Mg	Mg	0.58127	0.74389	0.36503	1.478
Mof_Mg	Mg	0.3912	0.76039	0.18958	1.48
Mof_Mg	Mg	0.08127	0.75611	0.13497	1.462
Mof_Mg	Mg	0.8912	0.73961	0.31042	1.485
Mof_Mg	Mg	0.41873	0.25611	0.63497	1.476
Mof_Mg	Mg	0.6088	0.23961	0.81042	1.48
Mof_Mg	Mg	0.91873	0.24389	0.86503	1.491
Mof_Mg	Mg	0.1088	0.26039	0.68958	1.475
Mof_Mg	Mg	0.5	-2.2045e-18	0.5	1.473
Mof_Mg	Mg	-0	0.5	-0	1.452
Mof_Mg	Mg	0.5	0.5	0.5	1.482
Mof_Mg	Mg	-0	0	-0	1.444
Mof_H 	H 	0.4639	0.0245	0.2363	-0.326
Mof_H 	H 	0.8825	0.9454	0.4543	-0.044
Mof_H 	H 	0.7963	0.5076	0.4866	-0.086
Mof_H 	H 	0.7421	0.6325	0.1325	-0.163
Mof_H 	H 	0.3408	0.8041	0.569	-0.108
Mof_H 	H 	0.3074	0.52	0.269	-0.174
Mof_H 	H 	0.9639	0.4755	0.2637	-0.098
Mof_H 	H 	0.3825	0.5546	0.0457	-0.17
Mof_H 	H 	0.2963	0.9924	0.0134	-0.142
Mof_H 	H 	0.2421	0.8675	0.3675	-0.126
Mof_H 	H 	0.8408	0.6959	0.931	-0.129
Mof_H 	H 	0.8074	0.98	0.231	-0.159
Mof_H 	H 	0.5361	0.9755	0.7637	0.069
Mof_H 	H 	0.1175	0.0546	0.5457	-0.2
Mof_H 	H 	0.2037	0.4924	0.5134	-0.144
Mof_H 	H 	0.2579	0.3675	0.8675	-0.094
Mof_H 	H 	0.6592	0.1959	0.431	-0.13
Mof_H 	H 	0.6926	0.48	0.731	-0.115
Mof_H 	H 	0.0361	0.5245	0.7363	-0.153
Mof_H 	H 	0.6175	0.4454	0.9543	-0.073
Mof_H 	H 	0.7037	0.0076	0.9866	-0.086
Mof_H 	H 	0.7579	0.1325	0.6325	-0.134
Mof_H 	H 	0.1592	0.3041	0.069	-0.097
Mof_H 	H 	0.1926	0.02	0.769	-0.12
Mof_C 	C 	0.4851	0.9813	0.28954	0.945
Mof_C 	C 	0.7889	0.9258	0.44759	0.543
Mof_C 	C 	0.7778	0.5695	0.44559	0.53
Mof_C 	C 	0.6729	0.6672	0.17016	0.566
Mof_C 	C 	0.3988	0.7587	0.52939	0.554
Mof_C 	C 	0.3694	0.5486	0.31452	0.583
Mof_C 	C 	0.9851	0.5187	0.21046	0.565
Mof_C 	C 	0.2889	0.5742	0.05241	0.591
Mof_C 	C 	0.2778	0.9305	0.05441	0.568
Mof_C 	C 	0.1729	0.8328	0.32984	0.57
Mof_C 	C 	0.8988	0.7413	0.97061	0.76
Mof_C 	C 	0.8694	0.9514	0.18548	0.727
Mof_C 	C 	0.5149	0.0187	0.71046	0.216
Mof_C 	C 	0.2111	0.0742	0.55241	0.59
Mof_C 	C 	0.2222	0.4305	0.55441	0.562
Mof_C 	C 	0.3271	0.3328	0.82984	0.549
Mof_C 	C 	0.6012	0.2413	0.47061	0.569
Mof_C 	C 	0.6306	0.4514	0.68548	0.579
Mof_C 	C 	0.0149	0.4813	0.78954	0.589
Mof_C 	C 	0.7111	0.4258	0.94759	0.542
Mof_C 	C 	0.7222	0.0695	0.94559	0.522
Mof_C 	C 	0.8271	0.1672	0.67016	0.546
Mof_C 	C 	0.1012	0.2587	0.02939	0.304
Mof_C 	C 	0.1306	0.0486	0.81452	0.412
Mof_O 	O 	0.49696	0.86967	0.27961	-0.763
Mof_O 	O 	0.4989	0.03833	0.36243	-0.689
Mof_O 	O 	0.75846	0.84392	0.38875	-0.636
Mof_O 	O 	0.7069	0.98172	0.49647	-0.435
Mof_O 	O 	0.65341	0.60122	0.43775	-0.651
Mof_O 	O 	0.87634	0.61174	0.40492	-0.455
Mof_O 	O 	0.70321	0.69043	0.2537	-0.674
Mof_O 	O 	0.56111	0.68565	0.13327	-0.534
Mof_O 	O 	0.47416	0.81579	0.4742	-0.644
Mof_O 	O 	0.3947	0.6501	0.53593	-0.513
Mof_O 	O 	0.42	0.65051	0.30322	-0.678
Mof_O 	O 	0.3931	0.48297	0.37895	-0.529
Mof_O 	O 	0.99696	0.63033	0.22039	-0.61
Mof_O 	O 	0.9989	0.46167	0.13757	-0.458
Mof_O 	O 	0.25846	0.65608	0.11125	-0.726
Mof_O 	O 	0.2069	0.51828	0.00353	-0.627
Mof_O 	O 	0.15341	0.89878	0.06225	-0.743
Mof_O 	O 	0.37634	0.88826	0.09508	-0.52
Mof_O 	O 	0.20321	0.80957	0.2463	-0.706
Mof_O 	O 	0.06111	0.81435	0.36673	-0.591
Mof_O 	O 	0.97416	0.68421	0.0258	-0.73
Mof_O 	O 	0.8947	0.8499	0.96407	-0.426
Mof_O 	O 	0.92	0.84949	0.19678	-0.658
Mof_O 	O 	0.8931	0.01703	0.12105	-0.611
Mof_O 	O 	0.50304	0.13033	0.72039	-0.597
Mof_O 	O 	0.5011	0.96167	0.63757	-0.328
Mof_O 	O 	0.24154	0.15608	0.61125	-0.707
Mof_O 	O 	0.2931	0.01828	0.50353	-0.574
Mof_O 	O 	0.34659	0.39878	0.56225	-0.67
Mof_O 	O 	0.12366	0.38826	0.59508	-0.559
Mof_O 	O 	0.29679	0.30957	0.7463	-0.669
Mof_O 	O 	0.43889	0.31435	0.86673	-0.476
Mof_O 	O 	0.52584	0.18421	0.5258	-0.68
Mof_O 	O 	0.6053	0.3499	0.46407	-0.516
Mof_O 	O 	0.58	0.34949	0.69678	-0.671
Mof_O 	O 	0.6069	0.51703	0.62105	-0.493
Mof_O 	O 	0.00304	0.36967	0.77961	-0.742
Mof_O 	O 	0.0011	0.53833	0.86243	-0.538
Mof_O 	O 	0.74154	0.34392	0.88875	-0.622
Mof_O 	O 	0.7931	0.48172	0.99647	-0.388
Mof_O 	O 	0.84659	0.10122	0.93775	-0.574
Mof_O 	O 	0.62366	0.11174	0.90492	-0.493
Mof_O 	O 	0.79679	0.19043	0.7537	-0.641
Mof_O 	O 	0.93889	0.18565	0.63327	-0.424
Mof_O 	O 	0.02584	0.31579	0.9742	-0.549
Mof_O 	O 	0.1053	0.1501	0.03593	-0.591
Mof_O 	O 	0.08	0.15051	0.80322	-0.678
Mof_O 	O 	0.1069	0.98297	0.87895	-0.371
_end
