# CIF file generated by openbabel 3.1.0, see https://openbabel.org
data_I
_chemical_name_common 'image0'
_cell_length_a 14.4863
_cell_length_b 15.9733
_cell_length_c 16.5214
_cell_angle_alpha 90
_cell_angle_beta 101.128
_cell_angle_gamma 90
_space_group_name_H-M_alt 'P 1'
_space_group_name_Hall 'P 1'
loop_
    _symmetry_equiv_pos_as_xyz
    x,y,z
loop_
    _atom_site_label
    _atom_site_type_symbol
    _atom_site_fract_x
    _atom_site_fract_y
    _atom_site_fract_z
    _atom_site_occupancy
    C1       C        0.02140    0.53240    0.40090    1.000
    H1       H        0.05220    0.48450    0.38840    1.000
    C2       C        0.92520    0.53450    0.37990    1.000
    H2       H        0.89250    0.48880    0.35380    1.000
    C3       C        0.87710    0.60424    0.39738    1.000
    C4       C        0.92990    0.66810    0.43930    1.000
    H3       H        0.90140    0.71640    0.45440    1.000
    C5       C        0.02620    0.65820    0.45820    1.000
    H4       H        0.06060    0.70110    0.48800    1.000
    C6       C        0.77150    0.60691    0.37340    1.000
    H5       H        0.75300    0.59700    0.31460    1.000
    H6       H        0.74500    0.56250    0.40180    1.000
    C7       C        0.74530    0.75416    0.34499    1.000
    C8       C        0.74480    0.74926    0.26131    1.000
    H7       H        0.73910    0.69770    0.23470    1.000
    C9       C        0.75310    0.82244    0.21712    1.000
    C10      C        0.76300    0.89885    0.25711    1.000
    H8       H        0.76890    0.94750    0.22760    1.000
    C11      C        0.76410    0.90323    0.34113    1.000
    C12      C        0.75490    0.83104    0.38515    1.000
    H9       H        0.75510    0.83390    0.44140    1.000
    C13      C        0.77360    0.98661    0.38500    1.000
    C14      C        0.74920    0.81726    0.12549    1.000
    C15      C        0.73980    0.03325    0.87390    1.000
    C16      C        0.74830    0.11759    0.83543    1.000
    C17      C        0.75350    0.12347    0.75228    1.000
    H10      H        0.74930    0.07540    0.72010    1.000
    C18      C        0.76490    0.20045    0.71750    1.000
    C19      C        0.76910    0.27313    0.76557    1.000
    H11      H        0.77710    0.32500    0.74240    1.000
    C20      C        0.76130    0.26756    0.84792    1.000
    C21      C        0.75160    0.18910    0.88282    1.000
    H12      H        0.74730    0.18510    0.93810    1.000
    C22      C        0.77230    0.20672    0.62836    1.000
    C23      C        0.80210    0.41150    0.87840    1.000
    H13      H        0.78350    0.45720    0.91050    1.000
    H14      H        0.77970    0.42390    0.82040    1.000
    C24      C        0.90740    0.40444    0.89530    1.000
    C25      C        0.96060    0.42660    0.83830    1.000
    H15      H        0.93140    0.44640    0.78680    1.000
    C26      C        0.05640    0.41950    0.85710    1.000
    H16      H        0.09040    0.43610    0.81750    1.000
    C27      C        0.05120    0.36960    0.98350    1.000
    H17      H        0.08140    0.34940    0.03460    1.000
    C28      C        0.95550    0.37620    0.96930    1.000
    H18      H        0.92290    0.36120    0.01040    1.000
    Mn1      Mn       0.73194    0.89246    0.95579    1.000
    Mn2      Mn       0.73395    0.62899    0.04061    1.000
    N1       N        0.07360    0.59539    0.43852    1.000
    N2       N        0.10440    0.39017    0.92924    1.000
    O1       O        0.74774    0.88459    0.08623    1.000
    O2       O        0.74810    0.74686    0.09364    1.000
    O3       O        0.77129    0.05299    0.34315    1.000
    O4       O        0.78116    0.98849    0.46172    1.000
    O5       O        0.75224    0.02864    0.95165    1.000
    O6       O        0.72005    0.97012    0.82970    1.000
    O7       O        0.76061    0.14187    0.58585    1.000
    O8       O        0.79227    0.27698    0.60251    1.000
    O9       O        0.73377    0.68570    0.39323    1.000
    O10      O        0.75985    0.33446    0.89936    1.000
    C29      C        0.47860    0.03240    0.09910    1.000
    H19      H        0.44780    0.98450    0.11160    1.000
    C30      C        0.57480    0.03450    0.12010    1.000
    H20      H        0.60750    0.98880    0.14620    1.000
    C31      C        0.62290    0.10424    0.10262    1.000
    C32      C        0.57010    0.16810    0.06070    1.000
    H21      H        0.59860    0.21640    0.04560    1.000
    C33      C        0.47380    0.15820    0.04180    1.000
    H22      H        0.43940    0.20110    0.01200    1.000
    C34      C        0.72850    0.10691    0.12660    1.000
    H23      H        0.74700    0.09700    0.18540    1.000
    H24      H        0.75500    0.06250    0.09820    1.000
    C35      C        0.75470    0.25416    0.15501    1.000
    C36      C        0.75520    0.24926    0.23869    1.000
    H25      H        0.76090    0.19770    0.26530    1.000
    C37      C        0.74690    0.32244    0.28288    1.000
    C38      C        0.73700    0.39885    0.24289    1.000
    H26      H        0.73110    0.44750    0.27240    1.000
    C39      C        0.73590    0.40323    0.15887    1.000
    C40      C        0.74510    0.33104    0.11485    1.000
    H27      H        0.74490    0.33390    0.05860    1.000
    C41      C        0.72640    0.48661    0.11500    1.000
    C42      C        0.75080    0.31726    0.37451    1.000
    C43      C        0.76020    0.53325    0.62610    1.000
    C44      C        0.75170    0.61759    0.66457    1.000
    C45      C        0.74650    0.62347    0.74772    1.000
    H28      H        0.75070    0.57540    0.77990    1.000
    C46      C        0.73510    0.70045    0.78250    1.000
    C47      C        0.73090    0.77313    0.73443    1.000
    H29      H        0.72290    0.82500    0.75760    1.000
    C48      C        0.73870    0.76756    0.65208    1.000
    C49      C        0.74840    0.68910    0.61718    1.000
    H30      H        0.75270    0.68510    0.56190    1.000
    C50      C        0.72770    0.70672    0.87164    1.000
    C51      C        0.69790    0.91150    0.62160    1.000
    H31      H        0.71650    0.95720    0.58950    1.000
    H32      H        0.72030    0.92390    0.67960    1.000
    C52      C        0.59260    0.90444    0.60470    1.000
    C53      C        0.53940    0.92660    0.66170    1.000
    H33      H        0.56860    0.94640    0.71320    1.000
    C54      C        0.44360    0.91950    0.64290    1.000
    H34      H        0.40960    0.93610    0.68250    1.000
    C55      C        0.44880    0.86960    0.51650    1.000
    H35      H        0.41860    0.84940    0.46540    1.000
    C56      C        0.54450    0.87620    0.53070    1.000
    H36      H        0.57710    0.86120    0.48960    1.000
    Mn3      Mn       0.76806    0.39246    0.54421    1.000
    Mn4      Mn       0.76605    0.12899    0.45939    1.000
    N3       N        0.42640    0.09539    0.06148    1.000
    N4       N        0.39560    0.89017    0.57076    1.000
    O11      O        0.75226    0.38459    0.41377    1.000
    O12      O        0.75190    0.24686    0.40636    1.000
    O13      O        0.72871    0.55299    0.15685    1.000
    O14      O        0.71884    0.48849    0.03828    1.000
    O15      O        0.74776    0.52864    0.54835    1.000
    O16      O        0.77995    0.47012    0.67030    1.000
    O17      O        0.73939    0.64187    0.91415    1.000
    O18      O        0.70773    0.77698    0.89749    1.000
    O19      O        0.76623    0.18570    0.10677    1.000
    O20      O        0.74015    0.83446    0.60064    1.000
    C57      C        0.97860    0.46760    0.59910    1.000
    H37      H        0.94780    0.51550    0.61160    1.000
    C58      C        0.07480    0.46550    0.62010    1.000
    H38      H        0.10750    0.51120    0.64620    1.000
    C59      C        0.12290    0.39576    0.60262    1.000
    C60      C        0.07010    0.33190    0.56070    1.000
    H39      H        0.09860    0.28360    0.54560    1.000
    C61      C        0.97380    0.34180    0.54180    1.000
    H40      H        0.93940    0.29890    0.51200    1.000
    C62      C        0.22850    0.39309    0.62660    1.000
    H41      H        0.24700    0.40300    0.68540    1.000
    H42      H        0.25500    0.43750    0.59820    1.000
    C63      C        0.25470    0.24584    0.65501    1.000
    C64      C        0.25520    0.25074    0.73869    1.000
    H43      H        0.26090    0.30230    0.76530    1.000
    C65      C        0.24690    0.17756    0.78288    1.000
    C66      C        0.23700    0.10115    0.74289    1.000
    H44      H        0.23110    0.05250    0.77240    1.000
    C67      C        0.23590    0.09677    0.65887    1.000
    C68      C        0.24510    0.16896    0.61485    1.000
    H45      H        0.24490    0.16610    0.55860    1.000
    C69      C        0.22640    0.01339    0.61500    1.000
    C70      C        0.25080    0.18274    0.87451    1.000
    C71      C        0.26020    0.96675    0.12610    1.000
    C72      C        0.25170    0.88241    0.16457    1.000
    C73      C        0.24650    0.87653    0.24772    1.000
    H46      H        0.25070    0.92460    0.27990    1.000
    C74      C        0.23510    0.79955    0.28250    1.000
    C75      C        0.23090    0.72687    0.23443    1.000
    H47      H        0.22290    0.67500    0.25760    1.000
    C76      C        0.23870    0.73244    0.15208    1.000
    C77      C        0.24840    0.81090    0.11718    1.000
    H48      H        0.25270    0.81490    0.06190    1.000
    C78      C        0.22770    0.79328    0.37164    1.000
    C79      C        0.19790    0.58850    0.12160    1.000
    H49      H        0.21650    0.54280    0.08950    1.000
    H50      H        0.22030    0.57610    0.17960    1.000
    C80      C        0.09260    0.59556    0.10470    1.000
    C81      C        0.03940    0.57340    0.16170    1.000
    H51      H        0.06860    0.55360    0.21320    1.000
    C82      C        0.94360    0.58050    0.14290    1.000
    H52      H        0.90960    0.56390    0.18250    1.000
    C83      C        0.94880    0.63040    0.01650    1.000
    H53      H        0.91860    0.65060    0.96540    1.000
    C84      C        0.04450    0.62380    0.03070    1.000
    H54      H        0.07710    0.63880    0.98960    1.000
    Mn5      Mn       0.26806    0.10754    0.04421    1.000
    Mn6      Mn       0.26605    0.37101    0.95939    1.000
    N5       N        0.92640    0.40461    0.56148    1.000
    N6       N        0.89560    0.60983    0.07076    1.000
    O21      O        0.25226    0.11541    0.91377    1.000
    O22      O        0.25190    0.25314    0.90636    1.000
    O23      O        0.22871    0.94701    0.65685    1.000
    O24      O        0.21884    0.01151    0.53828    1.000
    O25      O        0.24776    0.97136    0.04835    1.000
    O26      O        0.27995    0.02988    0.17030    1.000
    O27      O        0.23939    0.85813    0.41415    1.000
    O28      O        0.20773    0.72302    0.39749    1.000
    O29      O        0.26623    0.31430    0.60677    1.000
    O30      O        0.24015    0.66554    0.10064    1.000
    C85      C        0.52140    0.96760    0.90090    1.000
    H55      H        0.55220    0.01550    0.88840    1.000
    C86      C        0.42520    0.96550    0.87990    1.000
    H56      H        0.39250    0.01120    0.85380    1.000
    C87      C        0.37710    0.89576    0.89738    1.000
    C88      C        0.42990    0.83190    0.93930    1.000
    H57      H        0.40140    0.78360    0.95440    1.000
    C89      C        0.52620    0.84180    0.95820    1.000
    H58      H        0.56060    0.79890    0.98800    1.000
    C90      C        0.27150    0.89309    0.87340    1.000
    H59      H        0.25300    0.90300    0.81460    1.000
    H60      H        0.24500    0.93750    0.90180    1.000
    C91      C        0.24530    0.74584    0.84499    1.000
    C92      C        0.24480    0.75074    0.76131    1.000
    H61      H        0.23910    0.80230    0.73470    1.000
    C93      C        0.25310    0.67756    0.71712    1.000
    C94      C        0.26300    0.60115    0.75711    1.000
    H62      H        0.26890    0.55250    0.72760    1.000
    C95      C        0.26410    0.59677    0.84113    1.000
    C96      C        0.25490    0.66896    0.88515    1.000
    H63      H        0.25510    0.66610    0.94140    1.000
    C97      C        0.27360    0.51339    0.88500    1.000
    C98      C        0.24920    0.68274    0.62549    1.000
    C99      C        0.23980    0.46675    0.37390    1.000
    C100     C        0.24830    0.38241    0.33543    1.000
    C101     C        0.25350    0.37653    0.25228    1.000
    H64      H        0.24930    0.42460    0.22010    1.000
    C102     C        0.26490    0.29955    0.21750    1.000
    C103     C        0.26910    0.22687    0.26557    1.000
    H65      H        0.27710    0.17500    0.24240    1.000
    C104     C        0.26130    0.23244    0.34792    1.000
    C105     C        0.25160    0.31090    0.38282    1.000
    H66      H        0.24730    0.31490    0.43810    1.000
    C106     C        0.27230    0.29328    0.12836    1.000
    C107     C        0.30210    0.08850    0.37840    1.000
    H67      H        0.28350    0.04280    0.41050    1.000
    H68      H        0.27970    0.07610    0.32040    1.000
    C108     C        0.40740    0.09556    0.39530    1.000
    C109     C        0.46060    0.07340    0.33830    1.000
    H69      H        0.43140    0.05360    0.28680    1.000
    C110     C        0.55640    0.08050    0.35710    1.000
    H70      H        0.59040    0.06390    0.31750    1.000
    C111     C        0.55120    0.13040    0.48350    1.000
    H71      H        0.58140    0.15060    0.53460    1.000
    C112     C        0.45550    0.12380    0.46930    1.000
    H72      H        0.42290    0.13880    0.51040    1.000
    Mn7      Mn       0.23194    0.60754    0.45579    1.000
    Mn8      Mn       0.23395    0.87101    0.54061    1.000
    N7       N        0.57360    0.90461    0.93852    1.000
    N8       N        0.60440    0.10983    0.42924    1.000
    O31      O        0.24774    0.61541    0.58623    1.000
    O32      O        0.24810    0.75314    0.59364    1.000
    O33      O        0.27129    0.44701    0.84315    1.000
    O34      O        0.28116    0.51151    0.96172    1.000
    O35      O        0.25224    0.47136    0.45165    1.000
    O36      O        0.22005    0.52988    0.32970    1.000
    O37      O        0.26061    0.35813    0.08585    1.000
    O38      O        0.29227    0.22302    0.10251    1.000
    O39      O        0.23377    0.81430    0.89323    1.000
    O40      O        0.25985    0.16554    0.39936    1.000
