# CIF file generated by openbabel 3.1.0, see https://openbabel.org
data_I
_chemical_name_common 'image0'
_cell_length_a 8.712
_cell_length_b 9.859
_cell_length_c 23.176
_cell_angle_alpha 90
_cell_angle_beta 90
_cell_angle_gamma 90
_space_group_name_H-M_alt 'P 1'
_space_group_name_Hall 'P 1'
loop_
    _symmetry_equiv_pos_as_xyz
    x,y,z
loop_
    _atom_site_label
    _atom_site_type_symbol
    _atom_site_fract_x
    _atom_site_fract_y
    _atom_site_fract_z
    _atom_site_occupancy
    Gd1      Gd       0.04409    0.12998    0.25469    1.000
    P1       P        0.01760    0.38950    0.36425    1.000
    P2       P        0.70470    0.35240    0.22320    1.000
    P3       P        0.78630    0.89010    0.33130    1.000
    O1       O        0.07130    0.26050    0.33470    1.000
    O2       O        0.86710    0.37500    0.39650    1.000
    O3       O        0.01970    0.51130    0.32520    1.000
    O4       O        0.84650    0.26360    0.22820    1.000
    O5       O        0.73940    0.50130    0.23240    1.000
    O6       O        0.61730    0.32320    0.16730    1.000
    O7       O        0.89230    0.00310    0.31270    1.000
    O8       O        0.78260    0.76680    0.29270    1.000
    O9       O        0.62530    0.95060    0.34330    1.000
    H1       H        0.56080    0.90930    0.32450    1.000
    N1       N        0.32520    0.41010    0.40390    1.000
    H2       H        0.38010    0.44020    0.43480    1.000
    N2       N        0.60460    0.35120    0.33910    1.000
    H3       H        0.70840    0.35740    0.34260    1.000
    N3       N        0.83700    0.92740    0.45020    1.000
    N4       N        0.09900    0.41170    0.05280    1.000
    C1       C        0.15920    0.42190    0.42010    1.000
    H4       H        0.14200    0.51280    0.43470    1.000
    H5       H        0.13980    0.35950    0.45160    1.000
    C2       C        0.36920    0.49650    0.35460    1.000
    H6       H        0.33650    0.58900    0.36160    1.000
    H7       H        0.31850    0.46450    0.31990    1.000
    C3       C        0.54000    0.49280    0.34610    1.000
    H8       H        0.58880    0.53560    0.37900    1.000
    H9       H        0.56570    0.54560    0.31210    1.000
    C4       C        0.54920    0.26330    0.38670    1.000
    H10      H        0.59530    0.29350    0.42260    1.000
    H11      H        0.58330    0.17110    0.37970    1.000
    C5       C        0.37440    0.26350    0.39350    1.000
    H12      H        0.32610    0.22840    0.35890    1.000
    H13      H        0.34450    0.20710    0.42590    1.000
    C6       C        0.57080    0.29550    0.27990    1.000
    H14      H        0.46760    0.32200    0.26900    1.000
    H15      H        0.57350    0.19720    0.28170    1.000
    C7       C        0.85340    0.82470    0.40040    1.000
    H16      H        0.79570    0.74350    0.40990    1.000
    H17      H        0.96050    0.79920    0.39680    1.000
    C8       C        0.87630    0.85620    0.50500    1.000
    H18      H        0.98580    0.83860    0.50680    1.000
    H19      H        0.82230    0.77030    0.50730    1.000
    C9       C        0.82600    0.04800    0.44430    1.000
    H20      H        0.71580    0.03700    0.44530    1.000
    H21      H        0.85280    0.09090    0.40790    1.000
    C10      C        0.09000    0.55900    0.05490    1.000
    H22      H        0.12550    0.60400    0.08960    1.000
    H23      H        0.97950    0.54710    0.05810    1.000
    Gd2      Gd       0.04409    0.87002    0.74531    1.000
    P4       P        0.01760    0.61050    0.63575    1.000
    P5       P        0.70470    0.64760    0.77680    1.000
    P6       P        0.78630    0.10990    0.66870    1.000
    O10      O        0.07130    0.73950    0.66530    1.000
    O11      O        0.86710    0.62500    0.60350    1.000
    O12      O        0.01970    0.48870    0.67480    1.000
    O13      O        0.84650    0.73640    0.77180    1.000
    O14      O        0.73940    0.49870    0.76760    1.000
    O15      O        0.61730    0.67680    0.83270    1.000
    O16      O        0.89230    0.99690    0.68730    1.000
    O17      O        0.78260    0.23320    0.70730    1.000
    O18      O        0.62530    0.04940    0.65670    1.000
    H24      H        0.56080    0.09070    0.67550    1.000
    N5       N        0.32520    0.58990    0.59610    1.000
    H25      H        0.38010    0.55980    0.56520    1.000
    N6       N        0.60460    0.64880    0.66090    1.000
    H26      H        0.70840    0.64260    0.65740    1.000
    N7       N        0.83700    0.07260    0.54980    1.000
    N8       N        0.09900    0.58830    0.94720    1.000
    C11      C        0.15920    0.57810    0.57990    1.000
    H27      H        0.14200    0.48720    0.56530    1.000
    H28      H        0.13980    0.64050    0.54840    1.000
    C12      C        0.36920    0.50350    0.64540    1.000
    H29      H        0.33650    0.41100    0.63840    1.000
    H30      H        0.31850    0.53550    0.68010    1.000
    C13      C        0.54000    0.50720    0.65390    1.000
    H31      H        0.58880    0.46440    0.62100    1.000
    H32      H        0.56570    0.45440    0.68790    1.000
    C14      C        0.54920    0.73670    0.61330    1.000
    H33      H        0.59530    0.70650    0.57740    1.000
    H34      H        0.58330    0.82890    0.62030    1.000
    C15      C        0.37440    0.73650    0.60650    1.000
    H35      H        0.32610    0.77160    0.64110    1.000
    H36      H        0.34450    0.79290    0.57410    1.000
    C16      C        0.57080    0.70450    0.72010    1.000
    H37      H        0.46760    0.67800    0.73100    1.000
    H38      H        0.57350    0.80280    0.71830    1.000
    C17      C        0.85340    0.17530    0.59960    1.000
    H39      H        0.79570    0.25650    0.59010    1.000
    H40      H        0.96050    0.20080    0.60320    1.000
    C18      C        0.87630    0.14380    0.49500    1.000
    H41      H        0.98580    0.16140    0.49320    1.000
    H42      H        0.82230    0.22970    0.49270    1.000
    C19      C        0.82600    0.95200    0.55570    1.000
    H43      H        0.71580    0.96300    0.55470    1.000
    H44      H        0.85280    0.90910    0.59210    1.000
    C20      C        0.09000    0.44100    0.94510    1.000
    H45      H        0.12550    0.39600    0.91040    1.000
    H46      H        0.97950    0.45290    0.94190    1.000
    Gd3      Gd       0.95591    0.37002    0.75469    1.000
    P7       P        0.98240    0.11050    0.86425    1.000
    P8       P        0.29530    0.14760    0.72320    1.000
    P9       P        0.21370    0.60990    0.83130    1.000
    O19      O        0.92870    0.23950    0.83470    1.000
    O20      O        0.13290    0.12500    0.89650    1.000
    O21      O        0.98030    0.98870    0.82520    1.000
    O22      O        0.15350    0.23640    0.72820    1.000
    O23      O        0.26060    0.99870    0.73240    1.000
    O24      O        0.38270    0.17680    0.66730    1.000
    O25      O        0.10770    0.49690    0.81270    1.000
    O26      O        0.21740    0.73320    0.79270    1.000
    O27      O        0.37470    0.54940    0.84330    1.000
    H47      H        0.43920    0.59070    0.82450    1.000
    N9       N        0.67480    0.08990    0.90390    1.000
    H48      H        0.61990    0.05980    0.93480    1.000
    N10      N        0.39540    0.14880    0.83910    1.000
    H49      H        0.29160    0.14260    0.84260    1.000
    N11      N        0.16300    0.57260    0.95020    1.000
    N12      N        0.90100    0.08830    0.55280    1.000
    C21      C        0.84080    0.07810    0.92010    1.000
    H50      H        0.85800    0.98720    0.93470    1.000
    H51      H        0.86020    0.14050    0.95160    1.000
    C22      C        0.63080    0.00350    0.85460    1.000
    H52      H        0.66350    0.91100    0.86160    1.000
    H53      H        0.68150    0.03550    0.81990    1.000
    C23      C        0.46000    0.00720    0.84610    1.000
    H54      H        0.41120    0.96440    0.87900    1.000
    H55      H        0.43430    0.95440    0.81210    1.000
    C24      C        0.45080    0.23670    0.88670    1.000
    H56      H        0.40470    0.20650    0.92260    1.000
    H57      H        0.41670    0.32890    0.87970    1.000
    C25      C        0.62560    0.23650    0.89350    1.000
    H58      H        0.67390    0.27160    0.85890    1.000
    H59      H        0.65550    0.29290    0.92590    1.000
    C26      C        0.42920    0.20450    0.77990    1.000
    H60      H        0.53240    0.17800    0.76900    1.000
    H61      H        0.42650    0.30280    0.78170    1.000
    C27      C        0.14660    0.67530    0.90040    1.000
    H62      H        0.20430    0.75650    0.90990    1.000
    H63      H        0.03950    0.70080    0.89680    1.000
    C28      C        0.12370    0.64380    0.00500    1.000
    H64      H        0.01420    0.66140    0.00680    1.000
    H65      H        0.17770    0.72970    0.00730    1.000
    C29      C        0.17400    0.45200    0.94430    1.000
    H66      H        0.28420    0.46300    0.94530    1.000
    H67      H        0.14720    0.40910    0.90790    1.000
    C30      C        0.91000    0.94100    0.55490    1.000
    H68      H        0.87450    0.89600    0.58960    1.000
    H69      H        0.02050    0.95290    0.55810    1.000
    Gd4      Gd       0.95591    0.62998    0.24531    1.000
    P10      P        0.98240    0.88950    0.13575    1.000
    P11      P        0.29530    0.85240    0.27680    1.000
    P12      P        0.21370    0.39010    0.16870    1.000
    O28      O        0.92870    0.76050    0.16530    1.000
    O29      O        0.13290    0.87500    0.10350    1.000
    O30      O        0.98030    0.01130    0.17480    1.000
    O31      O        0.15350    0.76360    0.27180    1.000
    O32      O        0.26060    0.00130    0.26760    1.000
    O33      O        0.38270    0.82320    0.33270    1.000
    O34      O        0.10770    0.50310    0.18730    1.000
    O35      O        0.21740    0.26680    0.20730    1.000
    O36      O        0.37470    0.45060    0.15670    1.000
    H70      H        0.43920    0.40930    0.17550    1.000
    N13      N        0.67480    0.91010    0.09610    1.000
    H71      H        0.61990    0.94020    0.06520    1.000
    N14      N        0.39540    0.85120    0.16090    1.000
    H72      H        0.29160    0.85740    0.15740    1.000
    N15      N        0.16300    0.42740    0.04980    1.000
    N16      N        0.90100    0.91170    0.44720    1.000
    C31      C        0.84080    0.92190    0.07990    1.000
    H73      H        0.85800    0.01280    0.06530    1.000
    H74      H        0.86020    0.85950    0.04840    1.000
    C32      C        0.63080    0.99650    0.14540    1.000
    H75      H        0.66350    0.08900    0.13840    1.000
    H76      H        0.68150    0.96450    0.18010    1.000
    C33      C        0.46000    0.99280    0.15390    1.000
    H77      H        0.41120    0.03560    0.12100    1.000
    H78      H        0.43430    0.04560    0.18790    1.000
    C34      C        0.45080    0.76330    0.11330    1.000
    H79      H        0.40470    0.79350    0.07740    1.000
    H80      H        0.41670    0.67110    0.12030    1.000
    C35      C        0.62560    0.76350    0.10650    1.000
    H81      H        0.67390    0.72840    0.14110    1.000
    H82      H        0.65550    0.70710    0.07410    1.000
    C36      C        0.42920    0.79550    0.22010    1.000
    H83      H        0.53240    0.82200    0.23100    1.000
    H84      H        0.42650    0.69720    0.21830    1.000
    C37      C        0.14660    0.32470    0.09960    1.000
    H85      H        0.20430    0.24350    0.09010    1.000
    H86      H        0.03950    0.29920    0.10320    1.000
    C38      C        0.12370    0.35620    0.99500    1.000
    H87      H        0.01420    0.33860    0.99320    1.000
    H88      H        0.17770    0.27030    0.99270    1.000
    C39      C        0.17400    0.54800    0.05570    1.000
    H89      H        0.28420    0.53700    0.05470    1.000
    H90      H        0.14720    0.59090    0.09210    1.000
    C40      C        0.91000    0.05900    0.44510    1.000
    H91      H        0.87450    0.10400    0.41040    1.000
    H92      H        0.02050    0.04710    0.44190    1.000
