# CIF file generated by openbabel 3.1.0, see https://openbabel.org
data_I
_chemical_name_common 'image0'
_cell_length_a 36.061
_cell_length_b 18.233
_cell_length_c 25.146
_cell_angle_alpha 90
_cell_angle_beta 121.237
_cell_angle_gamma 90
_space_group_name_H-M_alt 'P 1'
_space_group_name_Hall 'P 1'
loop_
    _symmetry_equiv_pos_as_xyz
    x,y,z
loop_
    _atom_site_label
    _atom_site_type_symbol
    _atom_site_fract_x
    _atom_site_fract_y
    _atom_site_fract_z
    _atom_site_occupancy
    Cd1      Cd       0.20928    0.87224    0.30717    1.000
    Cd2      Cd       0.31805    0.86042    0.32623    1.000
    Cd3      Cd       0.32280    0.92760    0.45771    1.000
    O1       O        0.21725    0.98830    0.27510    1.000
    O2       O        0.28083    0.94740    0.34769    1.000
    O3       O        0.20204    0.25320    0.22400    1.000
    O4       O        0.25850    0.32180    0.24917    1.000
    O5       O        0.62286    0.06660    0.56360    1.000
    O6       O        0.61153    0.15530    0.61330    1.000
    O7       O        0.28122    0.89020    0.49370    1.000
    O8       O        0.22533    0.92460    0.40090    1.000
    O9       O        0.25639    0.72700    0.62969    1.000
    O10      O        0.18866    0.68710    0.59220    1.000
    O11      O        0.86425    0.91330    0.22330    1.000
    O12      O        0.85329    0.81530    0.25900    1.000
    C1       C        0.27676    0.07110    0.31400    1.000
    C2       C        0.25148    0.13050    0.28170    1.000
    H1       H        0.22150    0.12540    0.25700    1.000
    C3       C        0.27073    0.19840    0.28610    1.000
    C4       C        0.31527    0.20500    0.32170    1.000
    H2       H        0.32800    0.25000    0.32350    1.000
    C5       C        0.34149    0.14640    0.35470    1.000
    C6       C        0.32172    0.07950    0.34970    1.000
    H3       H        0.33890    0.03900    0.37060    1.000
    C7       C        0.25653    0.99800    0.31120    1.000
    C8       C        0.24251    0.26260    0.25140    1.000
    C9       C        0.38931    0.15230    0.39580    1.000
    C10      C        0.40727    0.20970    0.43910    1.000
    H4       H        0.38930    0.24570    0.44000    1.000
    C11      C        0.45061    0.21280    0.47970    1.000
    H5       H        0.46190    0.25130    0.50810    1.000
    C12      C        0.47889    0.16020    0.48020    1.000
    C13      C        0.52437    0.16060    0.52370    1.000
    H6       H        0.53610    0.19640    0.55450    1.000
    C14      C        0.55082    0.11030    0.52120    1.000
    C15      C        0.53380    0.05660    0.47530    1.000
    H7       H        0.55230    0.02280    0.47320    1.000
    C16      C        0.48950    0.05270    0.43250    1.000
    H8       H        0.47850    0.01590    0.40260    1.000
    C17      C        0.46141    0.10480    0.43450    1.000
    C18      C        0.41611    0.10140    0.39390    1.000
    H9       H        0.40430    0.06340    0.36520    1.000
    C19      C        0.59853    0.11080    0.56900    1.000
    C20      C        0.21103    0.86210    0.47170    1.000
    C21      C        0.22729    0.81780    0.52380    1.000
    H10      H        0.25710    0.81100    0.54910    1.000
    C22      C        0.19963    0.78350    0.53860    1.000
    C23      C        0.15538    0.79600    0.50220    1.000
    H11      H        0.13680    0.77350    0.51250    1.000
    C24      C        0.13801    0.84250    0.44970    1.000
    C25      C        0.16657    0.87320    0.43440    1.000
    H12      H        0.15570    0.90160    0.39860    1.000
    C26      C        0.24052    0.89500    0.45330    1.000
    C27      C        0.21670    0.72940    0.59200    1.000
    C28      C        0.09022    0.85510    0.41040    1.000
    C29      C        0.06120    0.80800    0.40830    1.000
    H13      H        0.07120    0.76520    0.43170    1.000
    C30      C        0.01575    0.82030    0.37180    1.000
    C31      C        0.98560    0.76700    0.36810    1.000
    H14      H        0.99540    0.72240    0.38880    1.000
    C32      C        0.94200    0.78190    0.33380    1.000
    H15      H        0.92230    0.74810    0.33290    1.000
    C33      C        0.92641    0.84900    0.29920    1.000
    C34      C        0.95481    0.89530    0.29890    1.000
    H16      H        0.94470    0.93700    0.27400    1.000
    C35      C        0.00025    0.88270    0.33560    1.000
    C36      C        0.03070    0.93440    0.33820    1.000
    H17      H        0.02100    0.97740    0.31510    1.000
    C37      C        0.07460    0.92090    0.37520    1.000
    H18      H        0.09430    0.95530    0.37700    1.000
    C38      C        0.87843    0.86140    0.25890    1.000
    Cd4      Cd       0.70928    0.37224    0.30717    1.000
    Cd5      Cd       0.81805    0.36042    0.32623    1.000
    Cd6      Cd       0.82280    0.42760    0.45771    1.000
    O13      O        0.71725    0.48830    0.27510    1.000
    O14      O        0.78083    0.44740    0.34769    1.000
    O15      O        0.70204    0.75320    0.22400    1.000
    O16      O        0.75850    0.82180    0.24917    1.000
    O17      O        0.12286    0.56660    0.56360    1.000
    O18      O        0.11153    0.65530    0.61330    1.000
    O19      O        0.78122    0.39020    0.49370    1.000
    O20      O        0.72533    0.42460    0.40090    1.000
    O21      O        0.75639    0.22700    0.62969    1.000
    O22      O        0.68866    0.18710    0.59220    1.000
    O23      O        0.36425    0.41330    0.22330    1.000
    O24      O        0.35329    0.31530    0.25900    1.000
    C39      C        0.77676    0.57110    0.31400    1.000
    C40      C        0.75148    0.63050    0.28170    1.000
    H19      H        0.72150    0.62540    0.25700    1.000
    C41      C        0.77073    0.69840    0.28610    1.000
    C42      C        0.81527    0.70500    0.32170    1.000
    H20      H        0.82800    0.75000    0.32350    1.000
    C43      C        0.84149    0.64640    0.35470    1.000
    C44      C        0.82172    0.57950    0.34970    1.000
    H21      H        0.83890    0.53900    0.37060    1.000
    C45      C        0.75653    0.49800    0.31120    1.000
    C46      C        0.74251    0.76260    0.25140    1.000
    C47      C        0.88931    0.65230    0.39580    1.000
    C48      C        0.90727    0.70970    0.43910    1.000
    H22      H        0.88930    0.74570    0.44000    1.000
    C49      C        0.95061    0.71280    0.47970    1.000
    H23      H        0.96190    0.75130    0.50810    1.000
    C50      C        0.97889    0.66020    0.48020    1.000
    C51      C        0.02437    0.66060    0.52370    1.000
    H24      H        0.03610    0.69640    0.55450    1.000
    C52      C        0.05082    0.61030    0.52120    1.000
    C53      C        0.03380    0.55660    0.47530    1.000
    H25      H        0.05230    0.52280    0.47320    1.000
    C54      C        0.98950    0.55270    0.43250    1.000
    H26      H        0.97850    0.51590    0.40260    1.000
    C55      C        0.96141    0.60480    0.43450    1.000
    C56      C        0.91611    0.60140    0.39390    1.000
    H27      H        0.90430    0.56340    0.36520    1.000
    C57      C        0.09853    0.61080    0.56900    1.000
    C58      C        0.71103    0.36210    0.47170    1.000
    C59      C        0.72729    0.31780    0.52380    1.000
    H28      H        0.75710    0.31100    0.54910    1.000
    C60      C        0.69963    0.28350    0.53860    1.000
    C61      C        0.65538    0.29600    0.50220    1.000
    H29      H        0.63680    0.27350    0.51250    1.000
    C62      C        0.63801    0.34250    0.44970    1.000
    C63      C        0.66657    0.37320    0.43440    1.000
    H30      H        0.65570    0.40160    0.39860    1.000
    C64      C        0.74052    0.39500    0.45330    1.000
    C65      C        0.71670    0.22940    0.59200    1.000
    C66      C        0.59022    0.35510    0.41040    1.000
    C67      C        0.56120    0.30800    0.40830    1.000
    H31      H        0.57120    0.26520    0.43170    1.000
    C68      C        0.51575    0.32030    0.37180    1.000
    C69      C        0.48560    0.26700    0.36810    1.000
    H32      H        0.49540    0.22240    0.38880    1.000
    C70      C        0.44200    0.28190    0.33380    1.000
    H33      H        0.42230    0.24810    0.33290    1.000
    C71      C        0.42641    0.34900    0.29920    1.000
    C72      C        0.45481    0.39530    0.29890    1.000
    H34      H        0.44470    0.43700    0.27400    1.000
    C73      C        0.50025    0.38270    0.33560    1.000
    C74      C        0.53070    0.43440    0.33820    1.000
    H35      H        0.52100    0.47740    0.31510    1.000
    C75      C        0.57460    0.42090    0.37520    1.000
    H36      H        0.59430    0.45530    0.37700    1.000
    C76      C        0.37843    0.36140    0.25890    1.000
    Cd7      Cd       0.79072    0.87224    0.19283    1.000
    Cd8      Cd       0.68195    0.86042    0.17377    1.000
    Cd9      Cd       0.67720    0.92760    0.04229    1.000
    O25      O        0.78275    0.98830    0.22490    1.000
    O26      O        0.71917    0.94740    0.15231    1.000
    O27      O        0.79796    0.25320    0.27600    1.000
    O28      O        0.74150    0.32180    0.25083    1.000
    O29      O        0.37714    0.06660    0.93640    1.000
    O30      O        0.38847    0.15530    0.88670    1.000
    O31      O        0.71878    0.89020    0.00630    1.000
    O32      O        0.77467    0.92460    0.09910    1.000
    O33      O        0.74361    0.72700    0.87031    1.000
    O34      O        0.81134    0.68710    0.90780    1.000
    O35      O        0.13575    0.91330    0.27670    1.000
    O36      O        0.14671    0.81530    0.24100    1.000
    C77      C        0.72324    0.07110    0.18600    1.000
    C78      C        0.74852    0.13050    0.21830    1.000
    H37      H        0.77850    0.12540    0.24300    1.000
    C79      C        0.72927    0.19840    0.21390    1.000
    C80      C        0.68473    0.20500    0.17830    1.000
    H38      H        0.67200    0.25000    0.17650    1.000
    C81      C        0.65851    0.14640    0.14530    1.000
    C82      C        0.67828    0.07950    0.15030    1.000
    H39      H        0.66110    0.03900    0.12940    1.000
    C83      C        0.74347    0.99800    0.18880    1.000
    C84      C        0.75749    0.26260    0.24860    1.000
    C85      C        0.61069    0.15230    0.10420    1.000
    C86      C        0.59273    0.20970    0.06090    1.000
    H40      H        0.61070    0.24570    0.06000    1.000
    C87      C        0.54939    0.21280    0.02030    1.000
    H41      H        0.53810    0.25130    0.99190    1.000
    C88      C        0.52111    0.16020    0.01980    1.000
    C89      C        0.47563    0.16060    0.97630    1.000
    H42      H        0.46390    0.19640    0.94550    1.000
    C90      C        0.44918    0.11030    0.97880    1.000
    C91      C        0.46620    0.05660    0.02470    1.000
    H43      H        0.44770    0.02280    0.02680    1.000
    C92      C        0.51050    0.05270    0.06750    1.000
    H44      H        0.52150    0.01590    0.09740    1.000
    C93      C        0.53859    0.10480    0.06550    1.000
    C94      C        0.58389    0.10140    0.10610    1.000
    H45      H        0.59570    0.06340    0.13480    1.000
    C95      C        0.40147    0.11080    0.93100    1.000
    C96      C        0.78897    0.86210    0.02830    1.000
    C97      C        0.77271    0.81780    0.97620    1.000
    H46      H        0.74290    0.81100    0.95090    1.000
    C98      C        0.80037    0.78350    0.96140    1.000
    C99      C        0.84462    0.79600    0.99780    1.000
    H47      H        0.86320    0.77350    0.98750    1.000
    C100     C        0.86199    0.84250    0.05030    1.000
    C101     C        0.83343    0.87320    0.06560    1.000
    H48      H        0.84430    0.90160    0.10140    1.000
    C102     C        0.75948    0.89500    0.04670    1.000
    C103     C        0.78330    0.72940    0.90800    1.000
    C104     C        0.90978    0.85510    0.08960    1.000
    C105     C        0.93880    0.80800    0.09170    1.000
    H49      H        0.92880    0.76520    0.06830    1.000
    C106     C        0.98425    0.82030    0.12820    1.000
    C107     C        0.01440    0.76700    0.13190    1.000
    H50      H        0.00460    0.72240    0.11120    1.000
    C108     C        0.05800    0.78190    0.16620    1.000
    H51      H        0.07770    0.74810    0.16710    1.000
    C109     C        0.07359    0.84900    0.20080    1.000
    C110     C        0.04519    0.89530    0.20110    1.000
    H52      H        0.05530    0.93700    0.22600    1.000
    C111     C        0.99975    0.88270    0.16440    1.000
    C112     C        0.96930    0.93440    0.16180    1.000
    H53      H        0.97900    0.97740    0.18490    1.000
    C113     C        0.92540    0.92090    0.12480    1.000
    H54      H        0.90570    0.95530    0.12300    1.000
    C114     C        0.12157    0.86140    0.24110    1.000
    Cd10     Cd       0.29072    0.37224    0.19283    1.000
    Cd11     Cd       0.18195    0.36042    0.17377    1.000
    Cd12     Cd       0.17720    0.42760    0.04229    1.000
    O37      O        0.28275    0.48830    0.22490    1.000
    O38      O        0.21917    0.44740    0.15231    1.000
    O39      O        0.29796    0.75320    0.27600    1.000
    O40      O        0.24150    0.82180    0.25083    1.000
    O41      O        0.87714    0.56660    0.93640    1.000
    O42      O        0.88847    0.65530    0.88670    1.000
    O43      O        0.21878    0.39020    0.00630    1.000
    O44      O        0.27467    0.42460    0.09910    1.000
    O45      O        0.24361    0.22700    0.87031    1.000
    O46      O        0.31134    0.18710    0.90780    1.000
    O47      O        0.63575    0.41330    0.27670    1.000
    O48      O        0.64671    0.31530    0.24100    1.000
    C115     C        0.22324    0.57110    0.18600    1.000
    C116     C        0.24852    0.63050    0.21830    1.000
    H55      H        0.27850    0.62540    0.24300    1.000
    C117     C        0.22927    0.69840    0.21390    1.000
    C118     C        0.18473    0.70500    0.17830    1.000
    H56      H        0.17200    0.75000    0.17650    1.000
    C119     C        0.15851    0.64640    0.14530    1.000
    C120     C        0.17828    0.57950    0.15030    1.000
    H57      H        0.16110    0.53900    0.12940    1.000
    C121     C        0.24347    0.49800    0.18880    1.000
    C122     C        0.25749    0.76260    0.24860    1.000
    C123     C        0.11069    0.65230    0.10420    1.000
    C124     C        0.09273    0.70970    0.06090    1.000
    H58      H        0.11070    0.74570    0.06000    1.000
    C125     C        0.04939    0.71280    0.02030    1.000
    H59      H        0.03810    0.75130    0.99190    1.000
    C126     C        0.02111    0.66020    0.01980    1.000
    C127     C        0.97563    0.66060    0.97630    1.000
    H60      H        0.96390    0.69640    0.94550    1.000
    C128     C        0.94918    0.61030    0.97880    1.000
    C129     C        0.96620    0.55660    0.02470    1.000
    H61      H        0.94770    0.52280    0.02680    1.000
    C130     C        0.01050    0.55270    0.06750    1.000
    H62      H        0.02150    0.51590    0.09740    1.000
    C131     C        0.03859    0.60480    0.06550    1.000
    C132     C        0.08389    0.60140    0.10610    1.000
    H63      H        0.09570    0.56340    0.13480    1.000
    C133     C        0.90147    0.61080    0.93100    1.000
    C134     C        0.28897    0.36210    0.02830    1.000
    C135     C        0.27271    0.31780    0.97620    1.000
    H64      H        0.24290    0.31100    0.95090    1.000
    C136     C        0.30037    0.28350    0.96140    1.000
    C137     C        0.34462    0.29600    0.99780    1.000
    H65      H        0.36320    0.27350    0.98750    1.000
    C138     C        0.36199    0.34250    0.05030    1.000
    C139     C        0.33343    0.37320    0.06560    1.000
    H66      H        0.34430    0.40160    0.10140    1.000
    C140     C        0.25948    0.39500    0.04670    1.000
    C141     C        0.28330    0.22940    0.90800    1.000
    C142     C        0.40978    0.35510    0.08960    1.000
    C143     C        0.43880    0.30800    0.09170    1.000
    H67      H        0.42880    0.26520    0.06830    1.000
    C144     C        0.48425    0.32030    0.12820    1.000
    C145     C        0.51440    0.26700    0.13190    1.000
    H68      H        0.50460    0.22240    0.11120    1.000
    C146     C        0.55800    0.28190    0.16620    1.000
    H69      H        0.57770    0.24810    0.16710    1.000
    C147     C        0.57359    0.34900    0.20080    1.000
    C148     C        0.54519    0.39530    0.20110    1.000
    H70      H        0.55530    0.43700    0.22600    1.000
    C149     C        0.49975    0.38270    0.16440    1.000
    C150     C        0.46930    0.43440    0.16180    1.000
    H71      H        0.47900    0.47740    0.18490    1.000
    C151     C        0.42540    0.42090    0.12480    1.000
    H72      H        0.40570    0.45530    0.12300    1.000
    C152     C        0.62157    0.36140    0.24110    1.000
    Cd13     Cd       0.79072    0.12776    0.69283    1.000
    Cd14     Cd       0.68195    0.13958    0.67377    1.000
    Cd15     Cd       0.67720    0.07240    0.54229    1.000
    O49      O        0.78275    0.01170    0.72490    1.000
    O50      O        0.71917    0.05260    0.65231    1.000
    O51      O        0.79796    0.74680    0.77600    1.000
    O52      O        0.74150    0.67820    0.75083    1.000
    O53      O        0.37714    0.93340    0.43640    1.000
    O54      O        0.38847    0.84470    0.38670    1.000
    O55      O        0.71878    0.10980    0.50630    1.000
    O56      O        0.77467    0.07540    0.59910    1.000
    O57      O        0.74361    0.27300    0.37031    1.000
    O58      O        0.81134    0.31290    0.40780    1.000
    O59      O        0.13575    0.08670    0.77670    1.000
    O60      O        0.14671    0.18470    0.74100    1.000
    C153     C        0.72324    0.92890    0.68600    1.000
    C154     C        0.74852    0.86950    0.71830    1.000
    H73      H        0.77850    0.87460    0.74300    1.000
    C155     C        0.72927    0.80160    0.71390    1.000
    C156     C        0.68473    0.79500    0.67830    1.000
    H74      H        0.67200    0.75000    0.67650    1.000
    C157     C        0.65851    0.85360    0.64530    1.000
    C158     C        0.67828    0.92050    0.65030    1.000
    H75      H        0.66110    0.96100    0.62940    1.000
    C159     C        0.74347    0.00200    0.68880    1.000
    C160     C        0.75749    0.73740    0.74860    1.000
    C161     C        0.61069    0.84770    0.60420    1.000
    C162     C        0.59273    0.79030    0.56090    1.000
    H76      H        0.61070    0.75430    0.56000    1.000
    C163     C        0.54939    0.78720    0.52030    1.000
    H77      H        0.53810    0.74870    0.49190    1.000
    C164     C        0.52111    0.83980    0.51980    1.000
    C165     C        0.47563    0.83940    0.47630    1.000
    H78      H        0.46390    0.80360    0.44550    1.000
    C166     C        0.44918    0.88970    0.47880    1.000
    C167     C        0.46620    0.94340    0.52470    1.000
    H79      H        0.44770    0.97720    0.52680    1.000
    C168     C        0.51050    0.94730    0.56750    1.000
    H80      H        0.52150    0.98410    0.59740    1.000
    C169     C        0.53859    0.89520    0.56550    1.000
    C170     C        0.58389    0.89860    0.60610    1.000
    H81      H        0.59570    0.93660    0.63480    1.000
    C171     C        0.40147    0.88920    0.43100    1.000
    C172     C        0.78897    0.13790    0.52830    1.000
    C173     C        0.77271    0.18220    0.47620    1.000
    H82      H        0.74290    0.18900    0.45090    1.000
    C174     C        0.80037    0.21650    0.46140    1.000
    C175     C        0.84462    0.20400    0.49780    1.000
    H83      H        0.86320    0.22650    0.48750    1.000
    C176     C        0.86199    0.15750    0.55030    1.000
    C177     C        0.83343    0.12680    0.56560    1.000
    H84      H        0.84430    0.09840    0.60140    1.000
    C178     C        0.75948    0.10500    0.54670    1.000
    C179     C        0.78330    0.27060    0.40800    1.000
    C180     C        0.90978    0.14490    0.58960    1.000
    C181     C        0.93880    0.19200    0.59170    1.000
    H85      H        0.92880    0.23480    0.56830    1.000
    C182     C        0.98425    0.17970    0.62820    1.000
    C183     C        0.01440    0.23300    0.63190    1.000
    H86      H        0.00460    0.27760    0.61120    1.000
    C184     C        0.05800    0.21810    0.66620    1.000
    H87      H        0.07770    0.25190    0.66710    1.000
    C185     C        0.07359    0.15100    0.70080    1.000
    C186     C        0.04519    0.10470    0.70110    1.000
    H88      H        0.05530    0.06300    0.72600    1.000
    C187     C        0.99975    0.11730    0.66440    1.000
    C188     C        0.96930    0.06560    0.66180    1.000
    H89      H        0.97900    0.02260    0.68490    1.000
    C189     C        0.92540    0.07910    0.62480    1.000
    H90      H        0.90570    0.04470    0.62300    1.000
    C190     C        0.12157    0.13860    0.74110    1.000
    Cd16     Cd       0.29072    0.62776    0.69283    1.000
    Cd17     Cd       0.18195    0.63958    0.67377    1.000
    Cd18     Cd       0.17720    0.57240    0.54229    1.000
    O61      O        0.28275    0.51170    0.72490    1.000
    O62      O        0.21917    0.55260    0.65231    1.000
    O63      O        0.29796    0.24680    0.77600    1.000
    O64      O        0.24150    0.17820    0.75083    1.000
    O65      O        0.87714    0.43340    0.43640    1.000
    O66      O        0.88847    0.34470    0.38670    1.000
    O67      O        0.21878    0.60980    0.50630    1.000
    O68      O        0.27467    0.57540    0.59910    1.000
    O69      O        0.24361    0.77300    0.37031    1.000
    O70      O        0.31134    0.81290    0.40780    1.000
    O71      O        0.63575    0.58670    0.77670    1.000
    O72      O        0.64671    0.68470    0.74100    1.000
    C191     C        0.22324    0.42890    0.68600    1.000
    C192     C        0.24852    0.36950    0.71830    1.000
    H91      H        0.27850    0.37460    0.74300    1.000
    C193     C        0.22927    0.30160    0.71390    1.000
    C194     C        0.18473    0.29500    0.67830    1.000
    H92      H        0.17200    0.25000    0.67650    1.000
    C195     C        0.15851    0.35360    0.64530    1.000
    C196     C        0.17828    0.42050    0.65030    1.000
    H93      H        0.16110    0.46100    0.62940    1.000
    C197     C        0.24347    0.50200    0.68880    1.000
    C198     C        0.25749    0.23740    0.74860    1.000
    C199     C        0.11069    0.34770    0.60420    1.000
    C200     C        0.09273    0.29030    0.56090    1.000
    H94      H        0.11070    0.25430    0.56000    1.000
    C201     C        0.04939    0.28720    0.52030    1.000
    H95      H        0.03810    0.24870    0.49190    1.000
    C202     C        0.02111    0.33980    0.51980    1.000
    C203     C        0.97563    0.33940    0.47630    1.000
    H96      H        0.96390    0.30360    0.44550    1.000
    C204     C        0.94918    0.38970    0.47880    1.000
    C205     C        0.96620    0.44340    0.52470    1.000
    H97      H        0.94770    0.47720    0.52680    1.000
    C206     C        0.01050    0.44730    0.56750    1.000
    H98      H        0.02150    0.48410    0.59740    1.000
    C207     C        0.03859    0.39520    0.56550    1.000
    C208     C        0.08389    0.39860    0.60610    1.000
    H99      H        0.09570    0.43660    0.63480    1.000
    C209     C        0.90147    0.38920    0.43100    1.000
    C210     C        0.28897    0.63790    0.52830    1.000
    C211     C        0.27271    0.68220    0.47620    1.000
    H100     H        0.24290    0.68900    0.45090    1.000
    C212     C        0.30037    0.71650    0.46140    1.000
    C213     C        0.34462    0.70400    0.49780    1.000
    H101     H        0.36320    0.72650    0.48750    1.000
    C214     C        0.36199    0.65750    0.55030    1.000
    C215     C        0.33343    0.62680    0.56560    1.000
    H102     H        0.34430    0.59840    0.60140    1.000
    C216     C        0.25948    0.60500    0.54670    1.000
    C217     C        0.28330    0.77060    0.40800    1.000
    C218     C        0.40978    0.64490    0.58960    1.000
    C219     C        0.43880    0.69200    0.59170    1.000
    H103     H        0.42880    0.73480    0.56830    1.000
    C220     C        0.48425    0.67970    0.62820    1.000
    C221     C        0.51440    0.73300    0.63190    1.000
    H104     H        0.50460    0.77760    0.61120    1.000
    C222     C        0.55800    0.71810    0.66620    1.000
    H105     H        0.57770    0.75190    0.66710    1.000
    C223     C        0.57359    0.65100    0.70080    1.000
    C224     C        0.54519    0.60470    0.70110    1.000
    H106     H        0.55530    0.56300    0.72600    1.000
    C225     C        0.49975    0.61730    0.66440    1.000
    C226     C        0.46930    0.56560    0.66180    1.000
    H107     H        0.47900    0.52260    0.68490    1.000
    C227     C        0.42540    0.57910    0.62480    1.000
    H108     H        0.40570    0.54470    0.62300    1.000
    C228     C        0.62157    0.63860    0.74110    1.000
    Cd19     Cd       0.20928    0.12776    0.80717    1.000
    Cd20     Cd       0.31805    0.13958    0.82623    1.000
    Cd21     Cd       0.32280    0.07240    0.95771    1.000
    O73      O        0.21725    0.01170    0.77510    1.000
    O74      O        0.28083    0.05260    0.84769    1.000
    O75      O        0.20204    0.74680    0.72400    1.000
    O76      O        0.25850    0.67820    0.74917    1.000
    O77      O        0.62286    0.93340    0.06360    1.000
    O78      O        0.61153    0.84470    0.11330    1.000
    O79      O        0.28122    0.10980    0.99370    1.000
    O80      O        0.22533    0.07540    0.90090    1.000
    O81      O        0.25639    0.27300    0.12969    1.000
    O82      O        0.18866    0.31290    0.09220    1.000
    O83      O        0.86425    0.08670    0.72330    1.000
    O84      O        0.85329    0.18470    0.75900    1.000
    C229     C        0.27676    0.92890    0.81400    1.000
    C230     C        0.25148    0.86950    0.78170    1.000
    H109     H        0.22150    0.87460    0.75700    1.000
    C231     C        0.27073    0.80160    0.78610    1.000
    C232     C        0.31527    0.79500    0.82170    1.000
    H110     H        0.32800    0.75000    0.82350    1.000
    C233     C        0.34149    0.85360    0.85470    1.000
    C234     C        0.32172    0.92050    0.84970    1.000
    H111     H        0.33890    0.96100    0.87060    1.000
    C235     C        0.25653    0.00200    0.81120    1.000
    C236     C        0.24251    0.73740    0.75140    1.000
    C237     C        0.38931    0.84770    0.89580    1.000
    C238     C        0.40727    0.79030    0.93910    1.000
    H112     H        0.38930    0.75430    0.94000    1.000
    C239     C        0.45061    0.78720    0.97970    1.000
    H113     H        0.46190    0.74870    0.00810    1.000
    C240     C        0.47889    0.83980    0.98020    1.000
    C241     C        0.52437    0.83940    0.02370    1.000
    H114     H        0.53610    0.80360    0.05450    1.000
    C242     C        0.55082    0.88970    0.02120    1.000
    C243     C        0.53380    0.94340    0.97530    1.000
    H115     H        0.55230    0.97720    0.97320    1.000
    C244     C        0.48950    0.94730    0.93250    1.000
    H116     H        0.47850    0.98410    0.90260    1.000
    C245     C        0.46141    0.89520    0.93450    1.000
    C246     C        0.41611    0.89860    0.89390    1.000
    H117     H        0.40430    0.93660    0.86520    1.000
    C247     C        0.59853    0.88920    0.06900    1.000
    C248     C        0.21103    0.13790    0.97170    1.000
    C249     C        0.22729    0.18220    0.02380    1.000
    H118     H        0.25710    0.18900    0.04910    1.000
    C250     C        0.19963    0.21650    0.03860    1.000
    C251     C        0.15538    0.20400    0.00220    1.000
    H119     H        0.13680    0.22650    0.01250    1.000
    C252     C        0.13801    0.15750    0.94970    1.000
    C253     C        0.16657    0.12680    0.93440    1.000
    H120     H        0.15570    0.09840    0.89860    1.000
    C254     C        0.24052    0.10500    0.95330    1.000
    C255     C        0.21670    0.27060    0.09200    1.000
    C256     C        0.09022    0.14490    0.91040    1.000
    C257     C        0.06120    0.19200    0.90830    1.000
    H121     H        0.07120    0.23480    0.93170    1.000
    C258     C        0.01575    0.17970    0.87180    1.000
    C259     C        0.98560    0.23300    0.86810    1.000
    H122     H        0.99540    0.27760    0.88880    1.000
    C260     C        0.94200    0.21810    0.83380    1.000
    H123     H        0.92230    0.25190    0.83290    1.000
    C261     C        0.92641    0.15100    0.79920    1.000
    C262     C        0.95481    0.10470    0.79890    1.000
    H124     H        0.94470    0.06300    0.77400    1.000
    C263     C        0.00025    0.11730    0.83560    1.000
    C264     C        0.03070    0.06560    0.83820    1.000
    H125     H        0.02100    0.02260    0.81510    1.000
    C265     C        0.07460    0.07910    0.87520    1.000
    H126     H        0.09430    0.04470    0.87700    1.000
    C266     C        0.87843    0.13860    0.75890    1.000
    Cd22     Cd       0.70928    0.62776    0.80717    1.000
    Cd23     Cd       0.81805    0.63958    0.82623    1.000
    Cd24     Cd       0.82280    0.57240    0.95771    1.000
    O85      O        0.71725    0.51170    0.77510    1.000
    O86      O        0.78083    0.55260    0.84769    1.000
    O87      O        0.70204    0.24680    0.72400    1.000
    O88      O        0.75850    0.17820    0.74917    1.000
    O89      O        0.12286    0.43340    0.06360    1.000
    O90      O        0.11153    0.34470    0.11330    1.000
    O91      O        0.78122    0.60980    0.99370    1.000
    O92      O        0.72533    0.57540    0.90090    1.000
    O93      O        0.75639    0.77300    0.12969    1.000
    O94      O        0.68866    0.81290    0.09220    1.000
    O95      O        0.36425    0.58670    0.72330    1.000
    O96      O        0.35329    0.68470    0.75900    1.000
    C267     C        0.77676    0.42890    0.81400    1.000
    C268     C        0.75148    0.36950    0.78170    1.000
    H127     H        0.72150    0.37460    0.75700    1.000
    C269     C        0.77073    0.30160    0.78610    1.000
    C270     C        0.81527    0.29500    0.82170    1.000
    H128     H        0.82800    0.25000    0.82350    1.000
    C271     C        0.84149    0.35360    0.85470    1.000
    C272     C        0.82172    0.42050    0.84970    1.000
    H129     H        0.83890    0.46100    0.87060    1.000
    C273     C        0.75653    0.50200    0.81120    1.000
    C274     C        0.74251    0.23740    0.75140    1.000
    C275     C        0.88931    0.34770    0.89580    1.000
    C276     C        0.90727    0.29030    0.93910    1.000
    H130     H        0.88930    0.25430    0.94000    1.000
    C277     C        0.95061    0.28720    0.97970    1.000
    H131     H        0.96190    0.24870    0.00810    1.000
    C278     C        0.97889    0.33980    0.98020    1.000
    C279     C        0.02437    0.33940    0.02370    1.000
    H132     H        0.03610    0.30360    0.05450    1.000
    C280     C        0.05082    0.38970    0.02120    1.000
    C281     C        0.03380    0.44340    0.97530    1.000
    H133     H        0.05230    0.47720    0.97320    1.000
    C282     C        0.98950    0.44730    0.93250    1.000
    H134     H        0.97850    0.48410    0.90260    1.000
    C283     C        0.96141    0.39520    0.93450    1.000
    C284     C        0.91611    0.39860    0.89390    1.000
    H135     H        0.90430    0.43660    0.86520    1.000
    C285     C        0.09853    0.38920    0.06900    1.000
    C286     C        0.71103    0.63790    0.97170    1.000
    C287     C        0.72729    0.68220    0.02380    1.000
    H136     H        0.75710    0.68900    0.04910    1.000
    C288     C        0.69963    0.71650    0.03860    1.000
    C289     C        0.65538    0.70400    0.00220    1.000
    H137     H        0.63680    0.72650    0.01250    1.000
    C290     C        0.63801    0.65750    0.94970    1.000
    C291     C        0.66657    0.62680    0.93440    1.000
    H138     H        0.65570    0.59840    0.89860    1.000
    C292     C        0.74052    0.60500    0.95330    1.000
    C293     C        0.71670    0.77060    0.09200    1.000
    C294     C        0.59022    0.64490    0.91040    1.000
    C295     C        0.56120    0.69200    0.90830    1.000
    H139     H        0.57120    0.73480    0.93170    1.000
    C296     C        0.51575    0.67970    0.87180    1.000
    C297     C        0.48560    0.73300    0.86810    1.000
    H140     H        0.49540    0.77760    0.88880    1.000
    C298     C        0.44200    0.71810    0.83380    1.000
    H141     H        0.42230    0.75190    0.83290    1.000
    C299     C        0.42641    0.65100    0.79920    1.000
    C300     C        0.45481    0.60470    0.79890    1.000
    H142     H        0.44470    0.56300    0.77400    1.000
    C301     C        0.50025    0.61730    0.83560    1.000
    C302     C        0.53070    0.56560    0.83820    1.000
    H143     H        0.52100    0.52260    0.81510    1.000
    C303     C        0.57460    0.57910    0.87520    1.000
    H144     H        0.59430    0.54470    0.87700    1.000
    C304     C        0.37843    0.63860    0.75890    1.000
