data_functionalizedCrystal
_audit_creation_method	'EQeq! by Chris Wilmer'
_symmetry_space_group_name_H-M	'P1'
_symmetry_Int_Tables_number	1
_symmetry_cell_setting	triclinic
loop_
_symmetry_equiv_pos_as_xyz
  x,y,z
_cell_length_a	13.2577
_cell_length_b	13.2577
_cell_length_c	45.677
_cell_angle_alpha	90
_cell_angle_beta	90
_cell_angle_gamma	120
loop_
_atom_site_label
_atom_site_type_symbol
_atom_site_fract_x
_atom_site_fract_y
_atom_site_fract_z
_atom_site_charge
Mof_P 	P 	0.75902	0.99424	0.03434	1.005
Mof_O 	O 	0.7429	0.87704	0.04315	-0.607
Mof_O 	O 	0.8851	0.0849	0.03913	-1.498
Mof_O 	O 	0.7232	0.99267	0.0028	-0.623
Mof_O 	O 	0.6802	0.0211	0.05254	-0.665
Mof_Mg	Mg	0.76861	0.76299	0.03413	1.492
Mof_O 	O 	0.6789	0.6432	0.05628	-0.627
Mof_O 	O 	0.78808	0.22822	0.08758	-0.644
Mof_Al	Al	0.99438	0.23139	0.03413	5.111
Mof_P 	P 	0.42569	0.32757	0.36767	0.913
Mof_O 	O 	0.40957	0.21037	0.37648	-0.627
Mof_O 	O 	0.55177	0.41823	0.37246	-1.42
Mof_O 	O 	0.38987	0.326	0.33613	-0.642
Mof_O 	O 	0.34687	0.35443	0.38587	-0.616
Mof_Mg	Mg	0.43528	0.09632	0.36746	1.489
Mof_O 	O 	0.34557	0.97653	0.38961	-0.609
Mof_O 	O 	0.45475	0.56155	0.42091	-0.64
Mof_Al	Al	0.66105	0.56472	0.36746	4.934
Mof_P 	P 	0.09235	0.66091	0.701	0.913
Mof_O 	O 	0.07623	0.54371	0.70982	-0.627
Mof_O 	O 	0.21843	0.75157	0.7058	-1.416
Mof_O 	O 	0.05653	0.65934	0.66947	-0.654
Mof_O 	O 	0.01353	0.68777	0.71921	-0.636
Mof_Mg	Mg	0.10194	0.42966	0.70079	1.491
Mof_O 	O 	0.01223	0.30987	0.72295	-0.648
Mof_O 	O 	0.12141	0.89489	0.75425	-0.617
Mof_Al	Al	0.32771	0.89806	0.70079	4.918
Mof_P 	P 	0.00576	0.76478	0.03434	0.81
Mof_O 	O 	0.12296	0.86586	0.04315	-0.593
Mof_O 	O 	0.9151	0.8002	0.03913	-0.61
Mof_O 	O 	0.00733	0.73053	0.0028	-1.336
Mof_O 	O 	0.9789	0.6591	0.05254	-0.527
Mof_Mg	Mg	0.23701	0.00562	0.03413	1.488
Mof_O 	O 	0.3568	0.0357	0.05628	-0.594
Mof_O 	O 	0.77178	0.55986	0.08758	-0.607
Mof_P 	P 	0.67243	0.09811	0.36767	0.862
Mof_O 	O 	0.78963	0.19919	0.37648	-0.61
Mof_O 	O 	0.58177	0.13353	0.37246	-0.68
Mof_O 	O 	0.674	0.06386	0.33613	-1.378
Mof_O 	O 	0.64557	0.99243	0.38587	-0.533
Mof_Mg	Mg	0.90368	0.33895	0.36746	1.494
Mof_O 	O 	0.02347	0.36903	0.38961	-0.605
Mof_O 	O 	0.43845	0.89319	0.42091	-0.604
Mof_P 	P 	0.33909	0.43145	0.701	0.904
Mof_O 	O 	0.45629	0.53253	0.70982	-0.618
Mof_O 	O 	0.24843	0.46687	0.7058	-0.675
Mof_O 	O 	0.34066	0.3972	0.66947	-1.38
Mof_O 	O 	0.31223	0.32577	0.71921	-0.59
Mof_Mg	Mg	0.57034	0.67229	0.70079	1.492
Mof_O 	O 	0.69013	0.70237	0.72295	-0.563
Mof_O 	O 	0.10511	0.22653	0.75425	-0.624
Mof_P 	P 	0.23522	0.24098	0.03434	0.923
Mof_O 	O 	0.13414	0.2571	0.04315	-1.455
Mof_O 	O 	0.1998	0.1149	0.03913	-0.69
Mof_O 	O 	0.26947	0.2768	0.0028	-0.645
Mof_O 	O 	0.3409	0.3198	0.05254	-0.592
Mof_O 	O 	0.9643	0.3211	0.05628	-1.421
Mof_O 	O 	0.44014	0.21192	0.08758	-0.582
Mof_P 	P 	0.90189	0.57431	0.36767	0.954
Mof_O 	O 	0.80081	0.59043	0.37648	-1.379
Mof_O 	O 	0.86647	0.44823	0.37246	-0.655
Mof_O 	O 	0.93614	0.61013	0.33613	-0.622
Mof_O 	O 	0.00757	0.65313	0.38587	-0.63
Mof_O 	O 	0.63097	0.65443	0.38961	-1.388
Mof_O 	O 	0.10681	0.54525	0.42091	-0.586
Mof_P 	P 	0.56855	0.90765	0.701	0.91
Mof_O 	O 	0.46747	0.92377	0.70982	-1.365
Mof_O 	O 	0.53313	0.78157	0.7058	-0.659
Mof_O 	O 	0.6028	0.94347	0.66947	-0.611
Mof_O 	O 	0.67423	0.98647	0.71921	-0.548
Mof_O 	O 	0.29763	0.98777	0.72295	-1.341
Mof_O 	O 	0.77347	0.87859	0.75425	-0.542
Mof_P 	P 	0.99424	0.75902	0.46566	1.006
Mof_O 	O 	0.87704	0.7429	0.45685	-0.606
Mof_O 	O 	0.0849	0.8851	0.46087	-1.497
Mof_O 	O 	0.99267	0.7232	0.4972	-0.622
Mof_O 	O 	0.0211	0.6802	0.44746	-0.663
Mof_Mg	Mg	0.76299	0.76861	0.46587	1.492
Mof_O 	O 	0.6432	0.6789	0.44372	-0.627
Mof_O 	O 	0.22822	0.78808	0.41242	-0.644
Mof_Al	Al	0.23139	0.99438	0.46587	5.114
Mof_P 	P 	0.66091	0.09235	0.799	0.913
Mof_O 	O 	0.54371	0.07623	0.79018	-0.627
Mof_O 	O 	0.75157	0.21843	0.7942	-1.416
Mof_O 	O 	0.65934	0.05653	0.83053	-0.654
Mof_O 	O 	0.68777	0.01353	0.78079	-0.636
Mof_Mg	Mg	0.42966	0.10194	0.79921	1.491
Mof_O 	O 	0.30987	0.01223	0.77705	-0.648
Mof_O 	O 	0.89489	0.12141	0.74575	-0.617
Mof_Al	Al	0.89806	0.32771	0.79921	4.918
Mof_P 	P 	0.32757	0.42569	0.13233	0.913
Mof_O 	O 	0.21037	0.40957	0.12352	-0.626
Mof_O 	O 	0.41823	0.55177	0.12754	-1.42
Mof_O 	O 	0.326	0.38987	0.16387	-0.642
Mof_O 	O 	0.35443	0.34687	0.11413	-0.616
Mof_Mg	Mg	0.09632	0.43528	0.13254	1.489
Mof_O 	O 	0.97653	0.34557	0.11039	-0.609
Mof_O 	O 	0.56155	0.45475	0.07909	-0.64
Mof_Al	Al	0.56472	0.66105	0.13254	4.934
Mof_P 	P 	0.76478	0.00576	0.46566	0.81
Mof_O 	O 	0.86586	0.12296	0.45685	-0.593
Mof_O 	O 	0.8002	0.9151	0.46087	-0.61
Mof_O 	O 	0.73053	0.00733	0.4972	-1.337
Mof_O 	O 	0.6591	0.9789	0.44746	-0.527
Mof_Mg	Mg	0.00562	0.23701	0.46587	1.488
Mof_O 	O 	0.0357	0.3568	0.44372	-0.594
Mof_O 	O 	0.55986	0.77178	0.41242	-0.607
Mof_P 	P 	0.43145	0.33909	0.799	0.904
Mof_O 	O 	0.53253	0.45629	0.79018	-0.618
Mof_O 	O 	0.46687	0.24843	0.7942	-0.675
Mof_O 	O 	0.3972	0.34066	0.83053	-1.38
Mof_O 	O 	0.32577	0.31223	0.78079	-0.59
Mof_Mg	Mg	0.67229	0.57034	0.79921	1.492
Mof_O 	O 	0.70237	0.69013	0.77705	-0.563
Mof_O 	O 	0.22653	0.10511	0.74575	-0.624
Mof_P 	P 	0.09811	0.67243	0.13233	0.862
Mof_O 	O 	0.19919	0.78963	0.12352	-0.61
Mof_O 	O 	0.13353	0.58177	0.12754	-0.68
Mof_O 	O 	0.06386	0.674	0.16387	-1.378
Mof_O 	O 	0.99243	0.64557	0.11413	-0.533
Mof_Mg	Mg	0.33895	0.90368	0.13254	1.494
Mof_O 	O 	0.36903	0.02347	0.11039	-0.605
Mof_O 	O 	0.89319	0.43845	0.07909	-0.605
Mof_P 	P 	0.24098	0.23522	0.46566	0.923
Mof_O 	O 	0.2571	0.13414	0.45685	-1.455
Mof_O 	O 	0.1149	0.1998	0.46087	-0.69
Mof_O 	O 	0.2768	0.26947	0.4972	-0.645
Mof_O 	O 	0.3198	0.3409	0.44746	-0.592
Mof_O 	O 	0.3211	0.9643	0.44372	-1.421
Mof_O 	O 	0.21192	0.44014	0.41242	-0.582
Mof_P 	P 	0.90765	0.56855	0.799	0.91
Mof_O 	O 	0.92377	0.46747	0.79018	-1.365
Mof_O 	O 	0.78157	0.53313	0.7942	-0.659
Mof_O 	O 	0.94347	0.6028	0.83053	-0.611
Mof_O 	O 	0.98647	0.67423	0.78079	-0.548
Mof_O 	O 	0.98777	0.29763	0.77705	-1.341
Mof_O 	O 	0.87859	0.77347	0.74575	-0.542
Mof_P 	P 	0.57431	0.90189	0.13233	0.954
Mof_O 	O 	0.59043	0.80081	0.12352	-1.379
Mof_O 	O 	0.44823	0.86647	0.12754	-0.655
Mof_O 	O 	0.61013	0.93614	0.16387	-0.622
Mof_O 	O 	0.65313	0.00757	0.11413	-0.63
Mof_O 	O 	0.65443	0.63097	0.11039	-1.388
Mof_O 	O 	0.54525	0.10681	0.07909	-0.586
Mof_P 	P 	0.24098	0.00576	0.96566	0.821
Mof_O 	O 	0.2571	0.12296	0.95685	-0.616
Mof_O 	O 	0.1149	0.9151	0.96087	-1.334
Mof_O 	O 	0.2768	0.00733	0.9972	-0.646
Mof_O 	O 	0.3198	0.9789	0.94746	-0.556
Mof_Mg	Mg	0.23139	0.23701	0.96587	1.491
Mof_O 	O 	0.3211	0.3568	0.94372	-0.635
Mof_O 	O 	0.21192	0.77178	0.91242	-0.636
Mof_Al	Al	0.00562	0.76861	0.96587	4.691
Mof_P 	P 	0.90765	0.33909	0.299	0.907
Mof_O 	O 	0.92377	0.45629	0.29018	-0.597
Mof_O 	O 	0.78157	0.24843	0.2942	-1.404
Mof_O 	O 	0.94347	0.34066	0.33053	-0.619
Mof_O 	O 	0.98647	0.31223	0.28079	-0.582
Mof_Mg	Mg	0.89806	0.57034	0.29921	1.492
Mof_O 	O 	0.98777	0.69013	0.27705	-0.572
Mof_O 	O 	0.87859	0.10511	0.24575	-0.622
Mof_Al	Al	0.67229	0.10194	0.29921	4.874
Mof_P 	P 	0.57431	0.67243	0.63233	0.909
Mof_O 	O 	0.59043	0.78963	0.62352	-0.594
Mof_O 	O 	0.44823	0.58177	0.62754	-1.41
Mof_O 	O 	0.61013	0.674	0.66387	-0.627
Mof_O 	O 	0.65313	0.64557	0.61413	-0.598
Mof_Mg	Mg	0.56472	0.90368	0.63254	1.495
Mof_O 	O 	0.65443	0.02347	0.61039	-0.656
Mof_O 	O 	0.54525	0.43845	0.57909	-0.639
Mof_Al	Al	0.33895	0.43528	0.63254	4.896
Mof_P 	P 	0.99424	0.23522	0.96566	0.993
Mof_O 	O 	0.87704	0.13414	0.95685	-0.648
Mof_O 	O 	0.0849	0.1998	0.96087	-0.729
Mof_O 	O 	0.99267	0.26947	0.9972	-1.414
Mof_O 	O 	0.0211	0.3409	0.94746	-0.633
Mof_Mg	Mg	0.76299	0.99438	0.96587	1.496
Mof_O 	O 	0.6432	0.9643	0.94372	-0.549
Mof_O 	O 	0.22822	0.44014	0.91242	-0.616
Mof_P 	P 	0.66091	0.56855	0.299	0.907
Mof_O 	O 	0.54371	0.46747	0.29018	-0.619
Mof_O 	O 	0.75157	0.53313	0.2942	-0.669
Mof_O 	O 	0.65934	0.6028	0.33053	-1.377
Mof_O 	O 	0.68777	0.67423	0.28079	-0.575
Mof_Mg	Mg	0.42966	0.32771	0.29921	1.492
Mof_O 	O 	0.30987	0.29763	0.27705	-0.579
Mof_O 	O 	0.89489	0.77347	0.24575	-0.556
Mof_P 	P 	0.32757	0.90189	0.63233	0.946
Mof_O 	O 	0.21037	0.80081	0.62352	-0.629
Mof_O 	O 	0.41823	0.86647	0.62754	-0.662
Mof_O 	O 	0.326	0.93614	0.66387	-1.372
Mof_O 	O 	0.35443	0.00757	0.61413	-0.631
Mof_Mg	Mg	0.09632	0.66105	0.63254	1.489
Mof_O 	O 	0.97653	0.63097	0.61039	-0.535
Mof_O 	O 	0.56155	0.10681	0.57909	-0.618
Mof_P 	P 	0.76478	0.75902	0.96566	0.899
Mof_O 	O 	0.86586	0.7429	0.95685	-1.295
Mof_O 	O 	0.8002	0.8851	0.96087	-0.633
Mof_O 	O 	0.73053	0.7232	0.9972	-0.625
Mof_O 	O 	0.6591	0.6802	0.94746	-0.581
Mof_O 	O 	0.0357	0.6789	0.94372	-1.357
Mof_O 	O 	0.55986	0.78808	0.91242	-0.571
Mof_P 	P 	0.43145	0.09235	0.299	0.911
Mof_O 	O 	0.53253	0.07623	0.29018	-1.384
Mof_O 	O 	0.46687	0.21843	0.2942	-0.666
Mof_O 	O 	0.3972	0.05653	0.33053	-0.656
Mof_O 	O 	0.32577	0.01353	0.28079	-0.616
Mof_O 	O 	0.70237	0.01223	0.27705	-1.389
Mof_O 	O 	0.22653	0.12141	0.24575	-0.604
Mof_P 	P 	0.09811	0.42569	0.63233	0.869
Mof_O 	O 	0.19919	0.40957	0.62352	-1.382
Mof_O 	O 	0.13353	0.55177	0.62754	-0.673
Mof_O 	O 	0.06386	0.38987	0.66387	-0.651
Mof_O 	O 	0.99243	0.34687	0.61413	-0.544
Mof_O 	O 	0.36903	0.34557	0.61039	-1.394
Mof_O 	O 	0.89319	0.45475	0.57909	-0.567
Mof_P 	P 	0.00576	0.24098	0.53434	0.821
Mof_O 	O 	0.12296	0.2571	0.54315	-0.617
Mof_O 	O 	0.9151	0.1149	0.53913	-1.334
Mof_O 	O 	0.00733	0.2768	0.5028	-0.647
Mof_O 	O 	0.9789	0.3198	0.55254	-0.556
Mof_Mg	Mg	0.23701	0.23139	0.53413	1.491
Mof_O 	O 	0.3568	0.3211	0.55628	-0.635
Mof_O 	O 	0.77178	0.21192	0.58758	-0.636
Mof_Al	Al	0.76861	0.00562	0.53413	4.691
Mof_P 	P 	0.67243	0.57431	0.86767	0.909
Mof_O 	O 	0.78963	0.59043	0.87648	-0.594
Mof_O 	O 	0.58177	0.44823	0.87246	-1.41
Mof_O 	O 	0.674	0.61013	0.83613	-0.627
Mof_O 	O 	0.64557	0.65313	0.88587	-0.598
Mof_Mg	Mg	0.90368	0.56472	0.86746	1.495
Mof_O 	O 	0.02347	0.65443	0.88961	-0.656
Mof_O 	O 	0.43845	0.54525	0.92091	-0.639
Mof_Al	Al	0.43528	0.33895	0.86746	4.896
Mof_P 	P 	0.33909	0.90765	0.201	0.907
Mof_O 	O 	0.45629	0.92377	0.20982	-0.597
Mof_O 	O 	0.24843	0.78157	0.2058	-1.404
Mof_O 	O 	0.34066	0.94347	0.16947	-0.618
Mof_O 	O 	0.31223	0.98647	0.21921	-0.582
Mof_Mg	Mg	0.57034	0.89806	0.20079	1.492
Mof_O 	O 	0.69013	0.98777	0.22295	-0.572
Mof_O 	O 	0.10511	0.87859	0.25425	-0.622
Mof_Al	Al	0.10194	0.67229	0.20079	4.874
Mof_P 	P 	0.23522	0.99424	0.53434	0.993
Mof_O 	O 	0.13414	0.87704	0.54315	-0.648
Mof_O 	O 	0.1998	0.0849	0.53913	-0.729
Mof_O 	O 	0.26947	0.99267	0.5028	-1.415
Mof_O 	O 	0.3409	0.0211	0.55254	-0.633
Mof_Mg	Mg	0.99438	0.76299	0.53413	1.496
Mof_O 	O 	0.9643	0.6432	0.55628	-0.549
Mof_O 	O 	0.44014	0.22822	0.58758	-0.616
Mof_P 	P 	0.90189	0.32757	0.86767	0.946
Mof_O 	O 	0.80081	0.21037	0.87648	-0.629
Mof_O 	O 	0.86647	0.41823	0.87246	-0.662
Mof_O 	O 	0.93614	0.326	0.83613	-1.372
Mof_O 	O 	0.00757	0.35443	0.88587	-0.631
Mof_Mg	Mg	0.66105	0.09632	0.86746	1.489
Mof_O 	O 	0.63097	0.97653	0.88961	-0.535
Mof_O 	O 	0.10681	0.56155	0.92091	-0.618
Mof_P 	P 	0.56855	0.66091	0.201	0.907
Mof_O 	O 	0.46747	0.54371	0.20982	-0.619
Mof_O 	O 	0.53313	0.75157	0.2058	-0.669
Mof_O 	O 	0.6028	0.65934	0.16947	-1.377
Mof_O 	O 	0.67423	0.68777	0.21921	-0.575
Mof_Mg	Mg	0.32771	0.42966	0.20079	1.492
Mof_O 	O 	0.29763	0.30987	0.22295	-0.579
Mof_O 	O 	0.77347	0.89489	0.25425	-0.556
Mof_P 	P 	0.75902	0.76478	0.53434	0.899
Mof_O 	O 	0.7429	0.86586	0.54315	-1.295
Mof_O 	O 	0.8851	0.8002	0.53913	-0.633
Mof_O 	O 	0.7232	0.73053	0.5028	-0.625
Mof_O 	O 	0.6802	0.6591	0.55254	-0.581
Mof_O 	O 	0.6789	0.0357	0.55628	-1.357
Mof_O 	O 	0.78808	0.55986	0.58758	-0.571
Mof_P 	P 	0.42569	0.09811	0.86767	0.87
Mof_O 	O 	0.40957	0.19919	0.87648	-1.382
Mof_O 	O 	0.55177	0.13353	0.87246	-0.673
Mof_O 	O 	0.38987	0.06386	0.83613	-0.651
Mof_O 	O 	0.34687	0.99243	0.88587	-0.544
Mof_O 	O 	0.34557	0.36903	0.88961	-1.394
Mof_O 	O 	0.45475	0.89319	0.92091	-0.567
Mof_P 	P 	0.09235	0.43145	0.201	0.911
Mof_O 	O 	0.07623	0.53253	0.20982	-1.384
Mof_O 	O 	0.21843	0.46687	0.2058	-0.666
Mof_O 	O 	0.05653	0.3972	0.16947	-0.656
Mof_O 	O 	0.01353	0.32577	0.21921	-0.616
Mof_O 	O 	0.01223	0.70237	0.22295	-1.389
Mof_O 	O 	0.12141	0.22653	0.25425	-0.604
Mof_Mg	Mg	0.66667	0.09144	0.08333	1.496
Mof_Mg	Mg	0.90856	0.57522	0.08333	1.498
Mof_Mg	Mg	0.42478	0.33333	0.08333	1.496
Mof_Mg	Mg	0.09144	0.66667	0.41667	1.496
Mof_Mg	Mg	0.75811	5.80906e-32	0.75	1.49
Mof_Mg	Mg	0.57522	0.90856	0.41667	1.498
Mof_Mg	Mg	0.24189	0.24189	0.75	1.497
Mof_Mg	Mg	0.33333	0.42478	0.41667	1.496
Mof_Mg	Mg	1.05736e-17	0.75811	0.75	1.49
Mof_Mg	Mg	0.33333	0.90856	0.91667	1.496
Mof_Mg	Mg	8.97488e-18	0.24189	0.25	1.491
Mof_Mg	Mg	0.09144	0.42478	0.91667	1.498
Mof_Mg	Mg	0.75811	0.75811	0.25	1.498
Mof_Mg	Mg	0.57522	0.66667	0.91667	1.496
Mof_Mg	Mg	0.24189	1.45226e-32	0.25	1.491
Mof_Mg	Mg	0.90856	0.33333	0.58333	1.496
Mof_Mg	Mg	0.42478	0.09144	0.58333	1.498
Mof_Mg	Mg	0.66667	0.57522	0.58333	1.496
Mof_P 	P 	0.90601	0.33333	0.08333	0.971
Mof_P 	P 	0.66667	0.57267	0.08333	0.962
Mof_P 	P 	0.33333	0.90601	0.41667	0.971
Mof_P 	P 	0.42733	0.09399	0.08333	0.753
Mof_P 	P 	0.76066	0.76066	0.75	0.75
Mof_P 	P 	-5.77745e-18	0.23934	0.75	0.88
Mof_P 	P 	0.57267	0.66667	0.41667	0.962
Mof_P 	P 	0.23934	5.80906e-32	0.75	0.881
Mof_P 	P 	0.09399	0.42733	0.41667	0.753
Mof_P 	P 	0.09399	0.66667	0.91667	0.95
Mof_P 	P 	0.76066	1.45226e-32	0.25	0.873
Mof_P 	P 	0.42733	0.33333	0.58333	0.959
Mof_P 	P 	0.33333	0.42733	0.91667	0.959
Mof_P 	P 	2.53259e-17	0.76066	0.25	0.874
Mof_P 	P 	0.57267	0.90601	0.91667	0.752
Mof_P 	P 	0.23934	0.23934	0.25	0.754
Mof_P 	P 	0.66667	0.09399	0.58333	0.95
Mof_P 	P 	0.90601	0.57267	0.58333	0.752
_end
