data_functionalizedCrystal
_audit_creation_method	'EQeq! by Chris Wilmer'
_symmetry_space_group_name_H-M	'P1'
_symmetry_Int_Tables_number	1
_symmetry_cell_setting	triclinic
loop_
_symmetry_equiv_pos_as_xyz
  x,y,z
_cell_length_a	16.0828
_cell_length_b	16.0828
_cell_length_c	18.746
_cell_angle_alpha	115.402
_cell_angle_beta	115.402
_cell_angle_gamma	90.0003
loop_
_atom_site_label
_atom_site_type_symbol
_atom_site_fract_x
_atom_site_fract_y
_atom_site_fract_z
_atom_site_charge
Mof_Zn	Zn	0.48558	0.29187	0.44278	1.241
Mof_Zn	Zn	0.9572	0.15091	0.44278	1.25
Mof_Zn	Zn	0.05098	0.53926	0.91928	1.218
Mof_Zn	Zn	0.19902	0.36998	0.58072	1.23
Mof_Zn	Zn	0.46074	0.1317	0.08072	1.232
Mof_Zn	Zn	0.8683	0.38002	0.91928	1.233
Mof_Zn	Zn	0.2928	0.45813	0.05722	1.242
Mof_Zn	Zn	0.3817	0.21074	0.58072	1.231
Mof_Zn	Zn	0.45202	0.375	0.25	1.229
Mof_Zn	Zn	0.61998	0.94902	0.08072	1.218
Mof_Zn	Zn	0.79798	0.875	0.25	1.227
Mof_Zn	Zn	0.125	0.54798	0.75	1.226
Mof_Zn	Zn	0.54187	0.23558	0.94278	1.242
Mof_Zn	Zn	0.70813	0.0428	0.55722	1.25
Mof_Zn	Zn	0.76442	0.59909	0.05722	1.242
Mof_Zn	Zn	0.63002	0.6183	0.41928	1.231
Mof_Zn	Zn	0.625	0.20202	0.75	1.229
Mof_Zn	Zn	0.40091	0.7072	0.94278	1.242
Mof_Zn	Zn	0.78926	0.80098	0.41928	1.23
Mof_Zn	Zn	0.84909	0.51442	0.55722	1.244
Mof_P 	P 	0.83889	0.63876	0.45892	0.543
Mof_P 	P 	0.88876	0.58889	0.95892	0.545
Mof_P 	P 	0.82957	0.04303	0.22714	0.567
Mof_P 	P 	0.62997	0.11124	0.04108	0.544
Mof_P 	P 	0.42412	0.30239	0.05248	0.549
Mof_P 	P 	0.17984	0.16111	0.54108	0.544
Mof_P 	P 	0.95697	0.60243	0.77286	0.567
Mof_P 	P 	0.62164	0.44761	0.44752	0.549
Mof_P 	P 	0.81589	0.17043	0.77286	0.544
Mof_P 	P 	0.62836	0.75009	0.05248	0.549
Mof_P 	P 	0.55239	0.17412	0.55248	0.549
Mof_P 	P 	0.41111	0.92984	0.04108	0.507
Mof_P 	P 	0.69761	0.37164	0.94752	0.549
Mof_P 	P 	0.29303	0.57957	0.72714	0.539
Mof_P 	P 	0.07016	0.37003	0.95892	0.506
Mof_P 	P 	0.82588	0.99991	0.44752	0.494
Mof_P 	P 	0.62003	0.82016	0.45892	0.544
Mof_P 	P 	0.42043	0.56589	0.27286	0.539
Mof_P 	P 	0.85243	0.70697	0.27286	0.539
Mof_P 	P 	0.43411	0.14757	0.72714	0.538
Mof_P 	P 	0.36124	0.37997	0.54108	0.543
Mof_P 	P 	0.39757	0.18411	0.22714	0.544
Mof_P 	P 	9e-05	0.37836	0.55248	0.493
Mof_P 	P 	0.24991	0.57588	0.94752	0.549
Mof_H 	H 	0.7667	0.1178	0.11	0.194
Mof_H 	H 	0.2422	0.0933	0.61	0.194
Mof_H 	H 	0.8822	0.6567	0.89	0.191
Mof_H 	H 	0.9067	0.6322	0.39	0.19
Mof_H 	H 	0.3433	0.9922	0.11	0.143
Mof_H 	H 	0.4445	0.7013	0.3602	0.163
Mof_H 	H 	0.3411	0.5555	0.6398	0.167
Mof_H 	H 	0.0078	0.2333	0.89	0.145
Mof_H 	H 	0.9513	0.1945	0.8602	0.205
Mof_H 	H 	0.3678	0.5167	0.61	0.188
Mof_H 	H 	0.3343	0.0487	0.1398	0.206
Mof_H 	H 	0.9157	0.6589	0.3602	0.166
Mof_H 	H 	0.8055	0.0911	0.1398	0.163
Mof_H 	H 	0.9089	0.6657	0.8602	0.164
Mof_H 	H 	0.2987	0.0843	0.6398	0.162
Mof_H 	H 	0.4833	0.7578	0.39	0.191
Mof_O 	O 	0.04675	0.63795	0.7759	-0.47
Mof_O 	O 	0.61808	0.55258	0.48056	-0.442
Mof_O 	O 	0.59392	0.08802	0.52304	-0.414
Mof_O 	O 	0.76635	0.94575	0.3437	-0.473
Mof_O 	O 	0.686	0.4728	0.987	-0.424
Mof_O 	O 	0.99605	0.60645	0.9955	-0.413
Mof_O 	O 	0.61095	0.00395	0.0045	-0.411
Mof_O 	O 	0.86955	0.62225	0.0387	-0.422
Mof_O 	O 	0.80258	0.36808	0.98056	-0.436
Mof_O 	O 	0.31037	0.59527	0.65874	-0.353
Mof_O 	O 	0.81621	0.62201	0.18042	-0.412
Mof_O 	O 	0.43379	0.19159	0.31958	-0.411
Mof_O 	O 	0.0627	0.2633	0.9102	-0.346
Mof_O 	O 	0.86205	0.95325	0.2241	-0.461
Mof_O 	O 	0.7642	0.051	0.487	-0.391
Mof_O 	O 	0.19575	0.51635	0.8437	-0.471
Mof_O 	O 	0.47669	0.16959	0.20098	-0.45
Mof_O 	O 	0.17798	0.61248	0.98056	-0.454
Mof_O 	O 	0.36421	0.55841	0.18042	-0.418
Mof_O 	O 	0.38752	0.19742	0.01944	-0.439
Mof_O 	O 	0.40762	0.34152	0.60764	-0.458
Mof_O 	O 	0.73388	0.59238	0.39236	-0.458
Mof_O 	O 	0.52085	0.11205	0.7241	-0.428
Mof_O 	O 	0.84527	0.06037	0.15874	-0.329
Mof_O 	O 	0.39355	0.00055	0.0045	-0.399
Mof_O 	O 	0.65608	0.31498	0.97696	-0.422
Mof_O 	O 	0.41959	0.22669	0.70098	-0.455
Mof_O 	O 	0.3531	0.9373	0.0898	-0.351
Mof_O 	O 	0.05425	0.42265	0.6563	-0.473
Mof_O 	O 	0.93963	0.68653	0.84126	-0.342
Mof_O 	O 	0.80841	0.11421	0.68042	-0.401
Mof_O 	O 	0.38045	0.33355	0.4613	-0.423
Mof_O 	O 	0.90163	0.15473	0.84126	-0.348
Mof_O 	O 	0.301	0.5142	0.987	-0.427
Mof_O 	O 	0.64795	0.32735	0.8437	-0.466
Mof_O 	O 	0.32088	0.66198	0.97696	-0.428
Mof_O 	O 	0.25055	0.14355	0.5045	-0.429
Mof_O 	O 	0.25395	0.36095	0.5045	-0.435
Mof_O 	O 	0.20002	0.26612	0.60764	-0.462
Mof_O 	O 	0.20325	0.61205	0.7241	-0.443
Mof_O 	O 	0.91198	0.07088	0.47696	-0.383
Mof_O 	O 	0.34837	0.06347	0.65874	-0.338
Mof_O 	O 	0.84238	0.48388	0.89236	-0.455
Mof_O 	O 	0.56498	0.40608	0.47696	-0.425
Mof_O 	O 	0.7228	0.436	0.487	-0.424
Mof_O 	O 	0.58355	0.13045	0.9613	-0.418
Mof_O 	O 	0.564	0.2358	0.513	-0.423
Mof_O 	O 	0.37775	0.83085	0.9613	-0.426
Mof_O 	O 	0.5133	0.8127	0.4102	-0.375
Mof_O 	O 	0.08085	0.12775	0.4613	-0.435
Mof_O 	O 	0.5272	0.699	0.013	-0.427
Mof_O 	O 	0.51612	0.95002	0.10764	-0.472
Mof_O 	O 	0.1873	0.1031	0.5898	-0.367
Mof_O 	O 	0.38795	0.47915	0.2759	-0.437
Mof_O 	O 	0.92912	0.43502	0.52304	-0.393
Mof_O 	O 	0.93653	0.68963	0.34126	-0.34
Mof_O 	O 	0.83041	0.27571	0.79902	-0.449
Mof_O 	O 	0.63192	0.82202	0.01944	-0.451
Mof_O 	O 	0.88579	0.12799	0.31958	-0.404
Mof_O 	O 	0.7367	0.1525	0.0898	-0.358
Mof_O 	O 	0.52571	0.58041	0.29902	-0.455
Mof_O 	O 	0.40473	0.65163	0.34126	-0.351
Mof_O 	O 	0.63905	0.74945	0.4955	-0.434
Mof_O 	O 	0.8475	0.6469	0.9102	-0.363
Mof_O 	O 	0.77331	0.71861	0.29902	-0.455
Mof_O 	O 	0.44742	0.13752	0.51944	-0.436
Mof_O 	O 	0.65848	0.79998	0.39236	-0.463
Mof_O 	O 	0.67265	0.80425	0.1563	-0.471
Mof_O 	O 	0.85645	0.74605	0.4955	-0.43
Mof_O 	O 	0.99945	0.38905	0.9955	-0.397
Mof_O 	O 	0.4025	0.4867	0.5898	-0.364
Mof_O 	O 	0.72915	0.13795	0.7759	-0.427
Mof_O 	O 	0.36205	0.27085	0.2241	-0.436
Mof_O 	O 	0.88795	0.79675	0.2759	-0.433
Mof_O 	O 	0.57735	0.39795	0.3437	-0.466
Mof_O 	O 	0.96861	0.52331	0.79902	-0.439
Mof_O 	O 	0.04998	0.40848	0.89236	-0.471
Mof_O 	O 	0.8969	0.5975	0.4102	-0.356
Mof_O 	O 	0.72429	0.03139	0.20098	-0.439
Mof_O 	O 	0.37799	0.63579	0.81958	-0.417
Mof_O 	O 	0.33802	0.34392	0.02304	-0.425
Mof_O 	O 	0.66645	0.91915	0.5387	-0.441
Mof_O 	O 	0.31347	0.09837	0.15874	-0.36
Mof_O 	O 	0.28139	0.47429	0.70098	-0.456
Mof_O 	O 	0.16915	0.41645	0.0387	-0.423
Mof_O 	O 	0.48365	0.35205	0.1563	-0.466
Mof_O 	O 	0.87201	0.56621	0.68042	-0.413
Mof_O 	O 	0.60205	0.23365	0.6563	-0.465
Mof_O 	O 	0.44159	0.18379	0.81958	-0.413
Mof_O 	O 	0.86248	0.92798	0.48056	-0.44
Mof_O 	O 	0.949	0.2772	0.513	-0.391
Mof_O 	O 	0.4858	0.314	0.013	-0.425
Mof_O 	O 	0.59152	0.15762	0.10764	-0.454
Mof_O 	O 	0.68502	0.67912	0.02304	-0.426
Mof_O 	O 	0.07202	0.38192	0.51944	-0.447
Mof_O 	O 	0.87225	0.61955	0.5387	-0.417
_end
