data_functionalizedCrystal
_audit_creation_method	'EQeq! by Chris Wilmer'
_symmetry_space_group_name_H-M	'P1'
_symmetry_Int_Tables_number	1
_symmetry_cell_setting	triclinic
loop_
_symmetry_equiv_pos_as_xyz
  x,y,z
_cell_length_a	9.595
_cell_length_b	10.33
_cell_length_c	13.67
_cell_angle_alpha	75.702
_cell_angle_beta	88.854
_cell_angle_gamma	65.345
loop_
_atom_site_label
_atom_site_type_symbol
_atom_site_fract_x
_atom_site_fract_y
_atom_site_fract_z
_atom_site_charge
Mof_U 	U 	0.76581	0.55021	0.99948	0.01
Mof_U 	U 	0.23419	0.44979	0.00052	0.009
Mof_U 	U 	-0	0	-0	0.01
Mof_Cu	Cu	0.90208	0.03481	0.42043	0.91
Mof_Cu	Cu	0.09792	0.96519	0.57957	0.911
Mof_P 	P 	0.6256	0.3171	0.9134	0.387
Mof_P 	P 	0.9102	0.6886	0.12475	0.379
Mof_P 	P 	0.3744	0.6829	0.0866	0.387
Mof_P 	P 	0.0898	0.3114	0.87525	0.379
Mof_H 	H 	0.7683	0.1483	0.7726	0.073
Mof_H 	H 	0.4798	0.3457	0.5148	0.05
Mof_H 	H 	0.3035	0.5163	0.5966	0.058
Mof_H 	H 	0.3686	0.5062	0.7618	0.064
Mof_H 	H 	0.9394	0.416	0.2556	0.065
Mof_H 	H 	0.1997	0.3542	0.5056	0.052
Mof_H 	H 	0.2016	0.5838	0.4378	0.053
Mof_H 	H 	0.0745	0.7309	0.2808	0.062
Mof_H 	H 	0.2317	0.8517	0.2274	0.073
Mof_H 	H 	0.5202	0.6543	0.4852	0.05
Mof_H 	H 	0.6965	0.4837	0.4034	0.058
Mof_H 	H 	0.6314	0.4938	0.2382	0.063
Mof_H 	H 	0.0606	0.584	0.7444	0.065
Mof_H 	H 	0.8003	0.6458	0.4944	0.052
Mof_H 	H 	0.7984	0.4162	0.5622	0.053
Mof_H 	H 	0.9255	0.2691	0.7192	0.062
Mof_C 	C 	0.5726	0.3229	0.786	-0.026
Mof_C 	C 	0.6747	0.2242	0.7368	-0.002
Mof_C 	C 	0.6411	0.2354	0.6345	-0.07
Mof_C 	C 	0.5042	0.3409	0.583	0
Mof_C 	C 	0.399	0.4428	0.6317	-0.052
Mof_C 	C 	0.4368	0.4343	0.7305	-0.007
Mof_C 	C 	0.7647	0.1437	0.5818	0.326
Mof_C 	C 	0.9916	0.5871	0.2528	-0.033
Mof_C 	C 	0.9903	0.4517	0.2938	0.008
Mof_C 	C 	0.0611	0.3669	0.3892	-0.075
Mof_C 	C 	0.1445	0.4144	0.4418	0.004
Mof_C 	C 	0.1468	0.5505	0.4006	-0.048
Mof_C 	C 	0.0722	0.6379	0.3078	-0.012
Mof_C 	C 	0.0413	0.2282	0.4347	0.353
Mof_C 	C 	0.4274	0.6771	0.214	-0.027
Mof_C 	C 	0.3253	0.7758	0.2632	-0.001
Mof_C 	C 	0.3589	0.7646	0.3655	-0.07
Mof_C 	C 	0.4958	0.6591	0.417	0
Mof_C 	C 	0.601	0.5572	0.3683	-0.052
Mof_C 	C 	0.5632	0.5657	0.2695	-0.007
Mof_C 	C 	0.2353	0.8563	0.4182	0.326
Mof_C 	C 	0.0084	0.4129	0.7472	-0.034
Mof_C 	C 	0.0097	0.5483	0.7062	0.007
Mof_C 	C 	0.9389	0.6331	0.6108	-0.074
Mof_C 	C 	0.8555	0.5856	0.5582	0.004
Mof_C 	C 	0.8532	0.4495	0.5994	-0.048
Mof_C 	C 	0.9278	0.3621	0.6922	-0.011
Mof_C 	C 	0.9587	0.7718	0.5653	0.354
Mof_O 	O 	0.6872	0.4339	0.9034	-0.167
Mof_O 	O 	0.7473	0.1607	0.9586	-0.163
Mof_O 	O 	0.4884	0.3459	0.9749	-0.157
Mof_O 	O 	0.7439	0.7113	0.111	-0.17
Mof_O 	O 	0.9939	0.5879	0.0542	-0.143
Mof_O 	O 	0.9287	0.8326	0.1027	-0.166
Mof_O 	O 	0.7297	0.1368	0.4938	-0.374
Mof_O 	O 	0.9012	0.079	0.6265	-0.395
Mof_O 	O 	0.1225	0.146	0.5173	-0.387
Mof_O 	O 	0.9463	0.2065	0.3883	-0.412
Mof_O 	O 	0.3128	0.5661	0.0966	-0.168
Mof_O 	O 	0.2527	0.8393	0.0414	-0.163
Mof_O 	O 	0.5116	0.6541	0.0251	-0.157
Mof_O 	O 	0.2561	0.2887	0.889	-0.17
Mof_O 	O 	0.0061	0.4121	0.9458	-0.143
Mof_O 	O 	0.0713	0.1674	0.8973	-0.167
Mof_O 	O 	0.2703	0.8632	0.5062	-0.373
Mof_O 	O 	0.0988	0.921	0.3735	-0.394
Mof_O 	O 	0.8775	0.854	0.4827	-0.386
Mof_O 	O 	0.0537	0.7935	0.6117	-0.413
_end
