data_functionalizedCrystal
_audit_creation_method	'EQeq! by Chris Wilmer'
_symmetry_space_group_name_H-M	'P1'
_symmetry_Int_Tables_number	1
_symmetry_cell_setting	triclinic
loop_
_symmetry_equiv_pos_as_xyz
  x,y,z
_cell_length_a	6.052
_cell_length_b	10.4994
_cell_length_c	13.4547
_cell_angle_alpha	71.63
_cell_angle_beta	89.254
_cell_angle_gamma	89.101
loop_
_atom_site_label
_atom_site_type_symbol
_atom_site_fract_x
_atom_site_fract_y
_atom_site_fract_z
_atom_site_charge
Mof_Eu	Eu	0.25043	0.65949	0.70707	1.976
Mof_N 	N 	0.0802	0.885	0.576	-0.203
Mof_N 	N 	0.4333	0.556	0.8966	-0.209
Mof_N 	N 	0.0914	0.573	0.559	-0.204
Mof_O 	O 	0.4508	0.7687	0.5464	-0.465
Mof_O 	O 	0.0653	0.7019	0.8514	-0.483
Mof_O 	O 	0.8517	0.6417	0.6995	-0.505
Mof_O 	O 	0.5586	0.5276	0.6763	-0.497
Mof_C 	C 	0.1865	0.9393	0.4852	-0.072
Mof_C 	C 	0.8936	0.9461	0.5903	0.088
Mof_C 	C 	0.3174	0.5744	0.9759	-0.079
Mof_C 	C 	0.6156	0.4812	0.9209	0.086
Mof_C 	C 	0.8835	0.5293	0.5746	-0.091
Mof_C 	C 	0.2082	0.5437	0.4841	0.083
Mof_C 	C 	0.3986	0.8691	0.4707	0.363
Mof_C 	C 	0.11	0.6598	0.9472	0.365
Mof_C 	C 	0.7528	0.5694	0.6571	0.419
Mof_H 	H 	0.8146	0.9113	0.6525	-0.008
Mof_H 	H 	0.7005	0.4656	0.8677	-0.005
Mof_H 	H 	0.3533	0.5727	0.471	0.009
Mof_O 	O 	0.5051	0.9143	0.3882	-0.284
Mof_O 	O 	0.9989	0.682	0.0173	-0.285
Mof_Eu	Eu	0.74957	0.34051	0.29293	1.977
Mof_N 	N 	0.9198	0.115	0.424	-0.202
Mof_N 	N 	0.5667	0.444	0.1034	-0.209
Mof_N 	N 	0.9086	0.427	0.441	-0.204
Mof_O 	O 	0.5492	0.2313	0.4536	-0.465
Mof_O 	O 	0.9347	0.2981	0.1486	-0.483
Mof_O 	O 	0.1483	0.3583	0.3005	-0.505
Mof_O 	O 	0.4414	0.4724	0.3237	-0.497
Mof_C 	C 	0.8135	0.0607	0.5148	-0.072
Mof_C 	C 	0.1064	0.0539	0.4097	0.088
Mof_C 	C 	0.6826	0.4256	0.0241	-0.079
Mof_C 	C 	0.3844	0.5188	0.0791	0.086
Mof_C 	C 	0.1165	0.4707	0.4254	-0.091
Mof_C 	C 	0.7918	0.4563	0.5159	0.083
Mof_C 	C 	0.6014	0.1309	0.5293	0.363
Mof_C 	C 	0.89	0.3402	0.0528	0.365
Mof_C 	C 	0.2472	0.4306	0.3429	0.419
Mof_H 	H 	0.1854	0.0887	0.3475	-0.008
Mof_H 	H 	0.2995	0.5344	0.1323	-0.005
Mof_H 	H 	0.6467	0.4273	0.529	0.009
Mof_O 	O 	0.4949	0.0857	0.6118	-0.284
Mof_O 	O 	0.0011	0.318	0.9827	-0.285
_end
