# CIF file generated by openbabel 3.1.0, see https://openbabel.org
data_I
_chemical_name_common 'image0'
_cell_length_a 7.8732
_cell_length_b 9.6571
_cell_length_c 12.1461
_cell_angle_alpha 76.894
_cell_angle_beta 89.325
_cell_angle_gamma 77.575
_space_group_name_H-M_alt 'P 1'
_space_group_name_Hall 'P 1'
loop_
    _symmetry_equiv_pos_as_xyz
    x,y,z
loop_
    _atom_site_label
    _atom_site_type_symbol
    _atom_site_fract_x
    _atom_site_fract_y
    _atom_site_fract_z
    _atom_site_occupancy
    Zn1      Zn       0.07154    0.13737    0.51608    1.000
    Zn2      Zn       0.66656    0.16372    0.36787    1.000
    O1       O        0.83390    0.07703    0.49714    1.000
    O2       O        0.48660    0.96972    0.63700    1.000
    O3       O        0.30440    0.18210    0.55822    1.000
    O4       O        0.61240    0.63520    0.75032    1.000
    O5       O        0.40810    0.63429    0.62543    1.000
    O6       O        0.95810    0.92587    0.30737    1.000
    O7       O        0.80050    0.14915    0.23114    1.000
    C1       C        0.43430    0.10730    0.61810    1.000
    C2       C        0.53850    0.18450    0.67620    1.000
    C3       C        0.66840    0.10500    0.75650    1.000
    H1       H        0.69690    0.00170    0.77000    1.000
    C4       C        0.49780    0.33620    0.65500    1.000
    H2       H        0.41130    0.39090    0.59870    1.000
    C5       C        0.58390    0.40730    0.71610    1.000
    C6       C        0.71220    0.32670    0.79770    1.000
    H3       H        0.76950    0.37570    0.84020    1.000
    C7       C        0.75750    0.17540    0.81770    1.000
    C8       C        0.88830    0.08740    0.90800    1.000
    C9       C        0.85960    0.10290    0.01830    1.000
    H4       H        0.76330    0.17470    0.03140    1.000
    C10      C        0.53530    0.57040    0.69730    1.000
    C11      C        0.96600    0.01760    0.11000    1.000
    C12      C        0.90670    0.03220    0.22640    1.000
    Zn3      Zn       0.92846    0.86263    0.48392    1.000
    Zn4      Zn       0.33344    0.83628    0.63213    1.000
    O8       O        0.16610    0.92297    0.50286    1.000
    O9       O        0.51340    0.03028    0.36300    1.000
    O10      O        0.69560    0.81790    0.44178    1.000
    O11      O        0.38760    0.36480    0.24968    1.000
    O12      O        0.59190    0.36571    0.37457    1.000
    O13      O        0.04190    0.07413    0.69263    1.000
    O14      O        0.19950    0.85085    0.76886    1.000
    C13      C        0.56570    0.89270    0.38190    1.000
    C14      C        0.46150    0.81550    0.32380    1.000
    C15      C        0.33160    0.89500    0.24350    1.000
    H5       H        0.30310    0.99830    0.23000    1.000
    C16      C        0.50220    0.66380    0.34500    1.000
    H6       H        0.58870    0.60910    0.40130    1.000
    C17      C        0.41610    0.59270    0.28390    1.000
    C18      C        0.28780    0.67330    0.20230    1.000
    H7       H        0.23050    0.62430    0.15980    1.000
    C19      C        0.24250    0.82460    0.18230    1.000
    C20      C        0.11170    0.91260    0.09200    1.000
    C21      C        0.14040    0.89710    0.98170    1.000
    H8       H        0.23670    0.82530    0.96860    1.000
    C22      C        0.46470    0.42960    0.30270    1.000
    C23      C        0.03400    0.98240    0.89000    1.000
    C24      C        0.09330    0.96780    0.77360    1.000
