data_functionalizedCrystal
_audit_creation_method	'EQeq! by Chris Wilmer'
_symmetry_space_group_name_H-M	'P1'
_symmetry_Int_Tables_number	1
_symmetry_cell_setting	triclinic
loop_
_symmetry_equiv_pos_as_xyz
  x,y,z
_cell_length_a	10.6646
_cell_length_b	11.0897
_cell_length_c	14.724
_cell_angle_alpha	106.806
_cell_angle_beta	95.727
_cell_angle_gamma	113.001
loop_
_atom_site_label
_atom_site_type_symbol
_atom_site_fract_x
_atom_site_fract_y
_atom_site_fract_z
_atom_site_charge
Mof_C 	C 	0.1087	0.0633	0.34218	0.22
Mof_C 	C 	0.112	0.9239	0.31551	0.147
Mof_C 	C 	0.0727	0.8423	0.37328	-0.194
Mof_C 	C 	0.0836	0.7165	0.35063	0.127
Mof_C 	C 	0.1269	0.6681	0.26692	-0.227
Mof_C 	C 	0.1611	0.7497	0.20938	0.243
Mof_C 	C 	0.1573	0.8778	0.23258	-0.279
Mof_C 	C 	0.0507	0.6317	0.41542	0.224
Mof_C 	C 	0.6938	0.7779	0.14905	0.255
Mof_C 	C 	0.6086	0.7386	0.2202	0.029
Mof_C 	C 	0.4926	0.6078	0.18762	-0.064
Mof_C 	C 	0.4101	0.5681	0.25071	0.039
Mof_C 	C 	0.4411	0.6604	0.34624	-0.127
Mof_C 	C 	0.5553	0.7901	0.37585	0.146
Mof_C 	C 	0.6419	0.8322	0.31549	-0.093
Mof_C 	C 	0.29	0.4244	0.21497	0.252
Mof_N 	N 	0.5854	0.891	0.47593	-0.016
Mof_N 	N 	0.2005	0.6954	0.11827	-0.034
Mof_O 	O 	0.14834	0.13663	0.28843	-0.136
Mof_O 	O 	0.07225	0.11076	0.41791	-0.168
Mof_O 	O 	0.96898	0.64902	0.46855	-0.149
Mof_O 	O 	0.10471	0.54886	0.41382	-0.152
Mof_O 	O 	0.19908	0.39655	0.26423	-0.158
Mof_O 	O 	0.28776	0.33805	0.13684	-0.154
Mof_O 	O 	0.80675	0.89082	0.17874	-0.165
Mof_O 	O 	0.64835	0.69821	0.05988	-0.165
Mof_O 	O 	0.97867	0.92612	0.90341	-0.033
Mof_O 	O 	0.25026	0.77666	0.07559	-0.07
Mof_O 	O 	0.1839	0.57394	0.09112	-0.077
Mof_O 	O 	0.543	0.8443	0.53819	-0.077
Mof_O 	O 	0.65078	0.01633	0.48968	-0.086
Mof_U 	U 	0.10777	0.33038	0.38917	0.024
Mof_U 	U 	0.84097	0.85126	0.00962	0.019
Mof_H 	H 	0.718	0.929	0.344	0.113
Mof_H 	H 	0.47	0.541	0.1252	0.112
Mof_H 	H 	0.391	0.647	0.3923	0.133
Mof_H 	H 	0.041	0.87	0.4222	0.16
Mof_H 	H 	0.132	0.587	0.247	0.17
Mof_H 	H 	0.181	0.919	0.1937	0.211
Mof_C 	C 	0.8913	0.9367	0.65782	0.22
Mof_C 	C 	0.888	0.0761	0.68449	0.147
Mof_C 	C 	0.9273	0.1577	0.62672	-0.194
Mof_C 	C 	0.9164	0.2835	0.64937	0.127
Mof_C 	C 	0.8731	0.3319	0.73308	-0.227
Mof_C 	C 	0.8389	0.2503	0.79062	0.243
Mof_C 	C 	0.8427	0.1222	0.76742	-0.279
Mof_C 	C 	0.9493	0.3683	0.58458	0.224
Mof_C 	C 	0.3062	0.2221	0.85095	0.255
Mof_C 	C 	0.3914	0.2614	0.7798	0.029
Mof_C 	C 	0.5074	0.3922	0.81238	-0.064
Mof_C 	C 	0.5899	0.4319	0.74929	0.039
Mof_C 	C 	0.5589	0.3396	0.65376	-0.127
Mof_C 	C 	0.4447	0.2099	0.62415	0.146
Mof_C 	C 	0.3581	0.1678	0.68451	-0.093
Mof_C 	C 	0.71	0.5756	0.78503	0.252
Mof_N 	N 	0.4146	0.109	0.52407	-0.016
Mof_N 	N 	0.7995	0.3046	0.88173	-0.034
Mof_O 	O 	0.85166	0.86337	0.71157	-0.136
Mof_O 	O 	0.92775	0.88924	0.58209	-0.168
Mof_O 	O 	0.03102	0.35098	0.53145	-0.149
Mof_O 	O 	0.89529	0.45114	0.58618	-0.152
Mof_O 	O 	0.80092	0.60345	0.73577	-0.158
Mof_O 	O 	0.71224	0.66195	0.86316	-0.154
Mof_O 	O 	0.19325	0.10918	0.82126	-0.165
Mof_O 	O 	0.35165	0.30179	0.94012	-0.165
Mof_O 	O 	0.02133	0.07388	0.09659	-0.033
Mof_O 	O 	0.74974	0.22334	0.92441	-0.07
Mof_O 	O 	0.8161	0.42606	0.90888	-0.077
Mof_O 	O 	0.457	0.1557	0.46181	-0.077
Mof_O 	O 	0.34922	0.98367	0.51032	-0.086
Mof_U 	U 	0.89223	0.66962	0.61083	0.024
Mof_U 	U 	0.15903	0.14874	0.99038	0.019
Mof_H 	H 	0.282	0.071	0.656	0.113
Mof_H 	H 	0.53	0.459	0.8748	0.112
Mof_H 	H 	0.609	0.353	0.6077	0.133
Mof_H 	H 	0.959	0.13	0.5778	0.16
Mof_H 	H 	0.868	0.413	0.753	0.17
Mof_H 	H 	0.819	0.081	0.8063	0.211
_end
