data_functionalizedCrystal
_audit_creation_method	'EQeq! by Chris Wilmer'
_symmetry_space_group_name_H-M	'P1'
_symmetry_Int_Tables_number	1
_symmetry_cell_setting	triclinic
loop_
_symmetry_equiv_pos_as_xyz
  x,y,z
_cell_length_a	8.1162
_cell_length_b	30.2842
_cell_length_c	15.6709
_cell_angle_alpha	90
_cell_angle_beta	90
_cell_angle_gamma	90
loop_
_atom_site_label
_atom_site_type_symbol
_atom_site_fract_x
_atom_site_fract_y
_atom_site_fract_z
_atom_site_charge
Mof_Ce	Ce	0.43911	0.90869	0.70393	2.595
Mof_O 	O 	0.6625	0.86861	0.8162	-0.653
Mof_O 	O 	0.3865	0.03933	0.3871	-0.499
Mof_O 	O 	0.2483	0.96207	0.6512	-0.642
Mof_O 	O 	0.4933	0.83022	0.7345	-0.57
Mof_O 	O 	0.2343	0.09476	0.3383	-0.67
Mof_O 	O 	0.0027	0.9738	0.7094	-0.595
Mof_N 	N 	0.9264	0.08316	0.555	-0.163
Mof_C 	C 	0.6015	0.83181	0.7914	0.45
Mof_C 	C 	0.1568	0.06026	0.471	-0.196
Mof_C 	C 	0.0232	0.08705	0.4867	0.107
Mof_H 	H 	0.9986	0.1096	0.4466	-0.015
Mof_C 	C 	0.1158	0.98313	0.6587	0.577
Mof_C 	C 	0.264	0.06457	0.3928	0.384
Mof_C 	C 	0.9596	0.05007	0.6091	0.136
Mof_H 	H 	0.889	0.0461	0.6569	-0
Mof_C 	C 	0.6543	0.78963	0.8311	-0.215
Mof_C 	C 	0.0918	0.0212	0.5992	-0.243
Mof_C 	C 	0.7517	0.78767	0.9038	0.14
Mof_H 	H 	0.7846	0.8148	0.9292	-0.045
Mof_C 	C 	0.1934	0.02692	0.5298	0.144
Mof_H 	H 	0.287	0.0085	0.522	-0.003
Mof_Ce	Ce	0.06089	0.09131	0.20393	2.571
Mof_O 	O 	0.8375	0.13139	0.3162	-0.656
Mof_O 	O 	0.1135	0.96067	0.8871	-0.495
Mof_O 	O 	0.2517	0.03793	0.1512	-0.643
Mof_O 	O 	0.0067	0.16978	0.2345	-0.579
Mof_O 	O 	0.2657	0.90524	0.8383	-0.668
Mof_O 	O 	0.4973	0.0262	0.2094	-0.6
Mof_N 	N 	0.5736	0.91684	0.055	-0.167
Mof_C 	C 	0.8985	0.16819	0.2914	0.464
Mof_C 	C 	0.3432	0.93974	0.971	-0.198
Mof_C 	C 	0.4768	0.91295	0.9867	0.12
Mof_H 	H 	0.5014	0.8904	0.9466	-0.023
Mof_C 	C 	0.3842	0.01687	0.1587	0.575
Mof_C 	C 	0.236	0.93543	0.8928	0.386
Mof_C 	C 	0.5404	0.94993	0.1091	0.134
Mof_H 	H 	0.611	0.9539	0.1569	0.001
Mof_C 	C 	0.8457	0.21037	0.3311	-0.219
Mof_C 	C 	0.4082	0.9788	0.0992	-0.241
Mof_C 	C 	0.7483	0.21233	0.4038	0.143
Mof_H 	H 	0.7154	0.1852	0.4292	-0.045
Mof_C 	C 	0.3066	0.97308	0.0298	0.144
Mof_H 	H 	0.213	0.9915	0.022	-0.003
Mof_Ce	Ce	0.56089	0.40869	0.29607	2.593
Mof_O 	O 	0.3375	0.36861	0.1838	-0.654
Mof_O 	O 	0.6135	0.53933	0.6129	-0.5
Mof_O 	O 	0.7517	0.46207	0.3488	-0.643
Mof_O 	O 	0.5067	0.33022	0.2655	-0.57
Mof_O 	O 	0.7657	0.59476	0.6617	-0.67
Mof_O 	O 	0.9973	0.4738	0.2906	-0.596
Mof_N 	N 	0.0736	0.58316	0.445	-0.164
Mof_C 	C 	0.3985	0.33181	0.2086	0.45
Mof_C 	C 	0.8432	0.56026	0.529	-0.196
Mof_C 	C 	0.9768	0.58705	0.5133	0.109
Mof_H 	H 	0.0014	0.6096	0.5534	-0.016
Mof_C 	C 	0.8842	0.48313	0.3413	0.576
Mof_C 	C 	0.736	0.56457	0.6072	0.384
Mof_C 	C 	0.0404	0.55007	0.3909	0.134
Mof_H 	H 	0.111	0.5461	0.3431	0
Mof_C 	C 	0.3457	0.28963	0.1689	-0.215
Mof_C 	C 	0.9082	0.5212	0.4008	-0.241
Mof_C 	C 	0.2483	0.28767	0.0962	0.14
Mof_H 	H 	0.2154	0.3148	0.0708	-0.045
Mof_C 	C 	0.8066	0.52692	0.4702	0.144
Mof_H 	H 	0.713	0.5085	0.478	-0.002
Mof_Ce	Ce	0.93911	0.59131	0.79607	2.573
Mof_O 	O 	0.1625	0.63139	0.6838	-0.656
Mof_O 	O 	0.8865	0.46067	0.1129	-0.496
Mof_O 	O 	0.7483	0.53793	0.8488	-0.643
Mof_O 	O 	0.9933	0.66978	0.7655	-0.579
Mof_O 	O 	0.7343	0.40524	0.1617	-0.668
Mof_O 	O 	0.5027	0.5262	0.7906	-0.6
Mof_N 	N 	0.4264	0.41684	0.945	-0.167
Mof_C 	C 	0.1015	0.66819	0.7086	0.463
Mof_C 	C 	0.6568	0.43974	0.029	-0.197
Mof_C 	C 	0.5232	0.41295	0.0133	0.12
Mof_H 	H 	0.4986	0.3904	0.0534	-0.023
Mof_C 	C 	0.6158	0.51687	0.8413	0.576
Mof_C 	C 	0.764	0.43543	0.1072	0.386
Mof_C 	C 	0.4596	0.44993	0.8909	0.134
Mof_H 	H 	0.389	0.4539	0.8431	0.001
Mof_C 	C 	0.1543	0.71037	0.6689	-0.219
Mof_C 	C 	0.5918	0.4788	0.9008	-0.242
Mof_C 	C 	0.2517	0.71233	0.5962	0.143
Mof_H 	H 	0.2846	0.6852	0.5708	-0.045
Mof_C 	C 	0.6934	0.47308	0.9702	0.143
Mof_H 	H 	0.787	0.4915	0.978	-0.004
Mof_Ce	Ce	0.56089	0.09131	0.29607	2.594
Mof_O 	O 	0.3375	0.13139	0.1838	-0.654
Mof_O 	O 	0.6135	0.96067	0.6129	-0.5
Mof_O 	O 	0.7517	0.03793	0.3488	-0.643
Mof_O 	O 	0.5067	0.16978	0.2655	-0.57
Mof_O 	O 	0.7657	0.90524	0.6617	-0.67
Mof_O 	O 	0.9973	0.0262	0.2906	-0.595
Mof_N 	N 	0.0736	0.91684	0.445	-0.163
Mof_C 	C 	0.3985	0.16819	0.2086	0.45
Mof_C 	C 	0.8432	0.93974	0.529	-0.196
Mof_C 	C 	0.9768	0.91295	0.5133	0.107
Mof_H 	H 	0.0014	0.8904	0.5534	-0.015
Mof_C 	C 	0.8842	0.01687	0.3413	0.577
Mof_C 	C 	0.736	0.93543	0.6072	0.384
Mof_C 	C 	0.0404	0.94993	0.3909	0.136
Mof_H 	H 	0.111	0.9539	0.3431	-0
Mof_C 	C 	0.3457	0.21037	0.1689	-0.215
Mof_C 	C 	0.9082	0.9788	0.4008	-0.243
Mof_C 	C 	0.2483	0.21233	0.0962	0.14
Mof_H 	H 	0.2154	0.1852	0.0708	-0.045
Mof_C 	C 	0.8066	0.97308	0.4702	0.144
Mof_H 	H 	0.713	0.9915	0.478	-0.003
Mof_Ce	Ce	0.93911	0.90869	0.79607	2.571
Mof_O 	O 	0.1625	0.86861	0.6838	-0.656
Mof_O 	O 	0.8865	0.03933	0.1129	-0.495
Mof_O 	O 	0.7483	0.96207	0.8488	-0.643
Mof_O 	O 	0.9933	0.83022	0.7655	-0.579
Mof_O 	O 	0.7343	0.09476	0.1617	-0.668
Mof_O 	O 	0.5027	0.9738	0.7906	-0.6
Mof_N 	N 	0.4264	0.08316	0.945	-0.167
Mof_C 	C 	0.1015	0.83181	0.7086	0.464
Mof_C 	C 	0.6568	0.06026	0.029	-0.198
Mof_C 	C 	0.5232	0.08705	0.0133	0.12
Mof_H 	H 	0.4986	0.1096	0.0534	-0.023
Mof_C 	C 	0.6158	0.98313	0.8413	0.575
Mof_C 	C 	0.764	0.06457	0.1072	0.386
Mof_C 	C 	0.4596	0.05007	0.8909	0.134
Mof_H 	H 	0.389	0.0461	0.8431	0.001
Mof_C 	C 	0.1543	0.78963	0.6689	-0.219
Mof_C 	C 	0.5918	0.0212	0.9008	-0.241
Mof_C 	C 	0.2517	0.78767	0.5962	0.143
Mof_H 	H 	0.2846	0.8148	0.5708	-0.045
Mof_C 	C 	0.6934	0.02692	0.9702	0.144
Mof_H 	H 	0.787	0.0085	0.978	-0.003
Mof_Ce	Ce	0.43911	0.59131	0.70393	2.593
Mof_O 	O 	0.6625	0.63139	0.8162	-0.654
Mof_O 	O 	0.3865	0.46067	0.3871	-0.5
Mof_O 	O 	0.2483	0.53793	0.6512	-0.643
Mof_O 	O 	0.4933	0.66978	0.7345	-0.57
Mof_O 	O 	0.2343	0.40524	0.3383	-0.67
Mof_O 	O 	0.0027	0.5262	0.7094	-0.596
Mof_N 	N 	0.9264	0.41684	0.555	-0.164
Mof_C 	C 	0.6015	0.66819	0.7914	0.45
Mof_C 	C 	0.1568	0.43974	0.471	-0.196
Mof_C 	C 	0.0232	0.41295	0.4867	0.109
Mof_H 	H 	0.9986	0.3904	0.4466	-0.016
Mof_C 	C 	0.1158	0.51687	0.6587	0.576
Mof_C 	C 	0.264	0.43543	0.3928	0.384
Mof_C 	C 	0.9596	0.44993	0.6091	0.134
Mof_H 	H 	0.889	0.4539	0.6569	0
Mof_C 	C 	0.6543	0.71037	0.8311	-0.215
Mof_C 	C 	0.0918	0.4788	0.5992	-0.241
Mof_C 	C 	0.7517	0.71233	0.9038	0.14
Mof_H 	H 	0.7846	0.6852	0.9292	-0.045
Mof_C 	C 	0.1934	0.47308	0.5298	0.144
Mof_H 	H 	0.287	0.4915	0.522	-0.002
Mof_Ce	Ce	0.06089	0.40869	0.20393	2.573
Mof_O 	O 	0.8375	0.36861	0.3162	-0.656
Mof_O 	O 	0.1135	0.53933	0.8871	-0.496
Mof_O 	O 	0.2517	0.46207	0.1512	-0.643
Mof_O 	O 	0.0067	0.33022	0.2345	-0.579
Mof_O 	O 	0.2657	0.59476	0.8383	-0.668
Mof_O 	O 	0.4973	0.4738	0.2094	-0.6
Mof_N 	N 	0.5736	0.58316	0.055	-0.167
Mof_C 	C 	0.8985	0.33181	0.2914	0.463
Mof_C 	C 	0.3432	0.56026	0.971	-0.197
Mof_C 	C 	0.4768	0.58705	0.9867	0.12
Mof_H 	H 	0.5014	0.6096	0.9466	-0.023
Mof_C 	C 	0.3842	0.48313	0.1587	0.576
Mof_C 	C 	0.236	0.56457	0.8928	0.386
Mof_C 	C 	0.5404	0.55007	0.1091	0.134
Mof_H 	H 	0.611	0.5461	0.1569	0.001
Mof_C 	C 	0.8457	0.28963	0.3311	-0.219
Mof_C 	C 	0.4082	0.5212	0.0992	-0.242
Mof_C 	C 	0.7483	0.28767	0.4038	0.143
Mof_H 	H 	0.7154	0.3148	0.4292	-0.045
Mof_C 	C 	0.3066	0.52692	0.0298	0.143
Mof_H 	H 	0.213	0.5085	0.022	-0.004
Mof_N 	N 	0.8025	0.75	0.9406	-0.169
Mof_C 	C 	0.601	0.75	0.7953	0.136
Mof_H 	H 	0.5295	0.75	0.7473	0.008
Mof_N 	N 	0.6975	0.25	0.4406	-0.168
Mof_C 	C 	0.899	0.25	0.2953	0.141
Mof_H 	H 	0.9705	0.25	0.2473	0.011
Mof_N 	N 	0.1975	0.25	0.0594	-0.169
Mof_C 	C 	0.399	0.25	0.2047	0.136
Mof_H 	H 	0.4705	0.25	0.2527	0.008
Mof_N 	N 	0.3025	0.75	0.5594	-0.168
Mof_C 	C 	0.101	0.75	0.7047	0.141
Mof_H 	H 	0.0295	0.75	0.7527	0.011
_end
