# CIF file generated by openbabel 3.1.0, see https://openbabel.org
data_I
_chemical_name_common 'image0'
_cell_length_a 10.193
_cell_length_b 14.276
_cell_length_c 10.38
_cell_angle_alpha 90
_cell_angle_beta 91.184
_cell_angle_gamma 90
_space_group_name_H-M_alt 'P 1'
_space_group_name_Hall 'P 1'
loop_
    _symmetry_equiv_pos_as_xyz
    x,y,z
loop_
    _atom_site_label
    _atom_site_type_symbol
    _atom_site_fract_x
    _atom_site_fract_y
    _atom_site_fract_z
    _atom_site_occupancy
    P1       P        0.31530    0.50915    0.78990    1.000
    P2       P        0.88560    0.48092    0.67390    1.000
    P3       P        0.02190    0.80083    0.50190    1.000
    O1       O        0.12220    0.72820    0.55890    1.000
    O2       O        0.24070    0.59210    0.72660    1.000
    O3       O        0.95640    0.57800    0.67740    1.000
    O4       O        0.31910    0.52180    0.93150    1.000
    O5       O        0.44890    0.49750    0.73100    1.000
    O6       O        0.23880    0.41720    0.75090    1.000
    O7       O        0.94870    0.84810    0.60740    1.000
    O8       O        0.98370    0.40460    0.71430    1.000
    O9       O        0.76810    0.48350    0.75590    1.000
    O10      O        0.15640    0.53430    0.46840    1.000
    O11      O        0.09270    0.86270    0.40940    1.000
    O12      O        0.91750    0.73810    0.42570    1.000
    Ga1      Ga       0.11141    0.60674    0.60391    1.000
    Mn1      Mn       0.38889    0.50768    0.12358    1.000
    H1       H        0.95000    0.69000    0.37700    1.000
    H2       H        0.14400    0.40900    0.74900    1.000
    P4       P        0.18470    0.00915    0.71010    1.000
    P5       P        0.61440    0.98092    0.82610    1.000
    P6       P        0.47810    0.30083    0.99810    1.000
    O13      O        0.37780    0.22820    0.94110    1.000
    O14      O        0.25930    0.09210    0.77340    1.000
    O15      O        0.54360    0.07800    0.82260    1.000
    O16      O        0.18090    0.02180    0.56850    1.000
    O17      O        0.05110    0.99750    0.76900    1.000
    O18      O        0.26120    0.91720    0.74910    1.000
    O19      O        0.55130    0.34810    0.89260    1.000
    O20      O        0.51630    0.90460    0.78570    1.000
    O21      O        0.73190    0.98350    0.74410    1.000
    O22      O        0.34360    0.03430    0.03160    1.000
    O23      O        0.40730    0.36270    0.09060    1.000
    O24      O        0.58250    0.23810    0.07430    1.000
    Ga2      Ga       0.38859    0.10674    0.89609    1.000
    Mn2      Mn       0.11111    0.00768    0.37642    1.000
    H3       H        0.55000    0.19000    0.12300    1.000
    H4       H        0.35600    0.90900    0.75100    1.000
    P7       P        0.68470    0.49085    0.21010    1.000
    P8       P        0.11440    0.51908    0.32610    1.000
    P9       P        0.97810    0.19917    0.49810    1.000
    O25      O        0.87780    0.27180    0.44110    1.000
    O26      O        0.75930    0.40790    0.27340    1.000
    O27      O        0.04360    0.42200    0.32260    1.000
    O28      O        0.68090    0.47820    0.06850    1.000
    O29      O        0.55110    0.50250    0.26900    1.000
    O30      O        0.76120    0.58280    0.24910    1.000
    O31      O        0.05130    0.15190    0.39260    1.000
    O32      O        0.01630    0.59540    0.28570    1.000
    O33      O        0.23190    0.51650    0.24410    1.000
    O34      O        0.84360    0.46570    0.53160    1.000
    O35      O        0.90730    0.13730    0.59060    1.000
    O36      O        0.08250    0.26190    0.57430    1.000
    Ga3      Ga       0.88859    0.39326    0.39609    1.000
    Mn3      Mn       0.61111    0.49232    0.87642    1.000
    H5       H        0.05000    0.31000    0.62300    1.000
    H6       H        0.85600    0.59100    0.25100    1.000
    P10      P        0.81530    0.99085    0.28990    1.000
    P11      P        0.38560    0.01908    0.17390    1.000
    P12      P        0.52190    0.69917    0.00190    1.000
    O37      O        0.62220    0.77180    0.05890    1.000
    O38      O        0.74070    0.90790    0.22660    1.000
    O39      O        0.45640    0.92200    0.17740    1.000
    O40      O        0.81910    0.97820    0.43150    1.000
    O41      O        0.94890    0.00250    0.23100    1.000
    O42      O        0.73880    0.08280    0.25090    1.000
    O43      O        0.44870    0.65190    0.10740    1.000
    O44      O        0.48370    0.09540    0.21430    1.000
    O45      O        0.26810    0.01650    0.25590    1.000
    O46      O        0.65640    0.96570    0.96840    1.000
    O47      O        0.59270    0.63730    0.90940    1.000
    O48      O        0.41750    0.76190    0.92570    1.000
    Ga4      Ga       0.61141    0.89326    0.10391    1.000
    Mn4      Mn       0.88889    0.99232    0.62358    1.000
    H7       H        0.45000    0.81000    0.87700    1.000
    H8       H        0.64400    0.09100    0.24900    1.000
