data_functionalizedCrystal
_audit_creation_method	'EQeq! by Chris Wilmer'
_symmetry_space_group_name_H-M	'P1'
_symmetry_Int_Tables_number	1
_symmetry_cell_setting	triclinic
loop_
_symmetry_equiv_pos_as_xyz
  x,y,z
_cell_length_a	19.719
_cell_length_b	15.6642
_cell_length_c	27.118
_cell_angle_alpha	90
_cell_angle_beta	90
_cell_angle_gamma	90
loop_
_atom_site_label
_atom_site_type_symbol
_atom_site_fract_x
_atom_site_fract_y
_atom_site_fract_z
_atom_site_charge
Mof_Co	Co	0.01765	0.22862	0.52252	1.166
Mof_Co	Co	0.03824	0.12752	0.42047	1.168
Mof_Co	Co	0.96101	0.94923	0.37638	1.191
Mof_O 	O 	0.95201	0.21084	0.42076	-0.417
Mof_O 	O 	0.9302	0.26255	0.49571	-0.443
Mof_O 	O 	0.62153	0.3807	0.38335	-0.49
Mof_O 	O 	0.6606	0.4955	0.3681	-0.206
Mof_C 	C 	0.91736	0.25293	0.4505	0.367
Mof_C 	C 	0.6689	0.424	0.38821	0.405
Mof_C 	C 	0.85492	0.2975	0.4324	-0.09
Mof_C 	C 	0.79827	0.2527	0.42032	-0.023
Mof_H 	H 	0.7987	0.1934	0.4213	0.046
Mof_C 	C 	0.73879	0.2968	0.40628	-0.002
Mof_H 	H 	0.6999	0.2657	0.3989	0.042
Mof_C 	C 	0.73672	0.3836	0.40321	-0.124
Mof_C 	C 	0.79468	0.432	0.41393	0.064
Mof_C 	C 	0.7988	0.5243	0.41208	-0.104
Mof_H 	H 	0.7611	0.5556	0.4023	0.091
Mof_C 	C 	0.8571	0.5663	0.4244	0.006
Mof_H 	H 	0.8582	0.6256	0.4228	0.035
Mof_C 	C 	0.9134	0.5234	0.43884	-0.043
Mof_H 	H 	0.9526	0.5533	0.4471	0.057
Mof_C 	C 	0.91272	0.4373	0.44127	-0.056
Mof_H 	H 	0.9519	0.4089	0.451	0.063
Mof_C 	C 	0.85403	0.38865	0.42952	0.031
Mof_O 	O 	0.91006	0.05141	0.52634	-0.45
Mof_O 	O 	0.88219	0.95981	0.58598	-0.414
Mof_O 	O 	0.58481	0.19777	0.51087	-0.462
Mof_O 	O 	0.6068	0.27181	0.57964	-0.422
Mof_C 	C 	0.87035	0.02193	0.55815	0.342
Mof_C 	C 	0.61868	0.21391	0.54916	0.381
Mof_C 	C 	0.80244	0.06665	0.56121	-0.071
Mof_C 	C 	0.80276	0.1524	0.55256	-0.039
Mof_H 	H 	0.8438	0.1803	0.5473	0.062
Mof_C 	C 	0.74208	0.19931	0.55142	0.018
Mof_H 	H 	0.7438	0.2581	0.5469	0.03
Mof_C 	C 	0.6811	0.16066	0.55671	-0.12
Mof_C 	C 	0.67776	0.07064	0.56557	0.083
Mof_C 	C 	0.61504	0.0284	0.57155	-0.132
Mof_H 	H 	0.5749	0.0594	0.5694	0.083
Mof_C 	C 	0.6126	0.9426	0.5804	0.038
Mof_H 	H 	0.5711	0.9153	0.5843	0.031
Mof_C 	C 	0.6729	0.8963	0.5836	-0.063
Mof_H 	H 	0.6711	0.838	0.5901	0.062
Mof_C 	C 	0.73427	0.9343	0.57762	-0.027
Mof_H 	H 	0.7734	0.9014	0.5793	0.061
Mof_C 	C 	0.73986	0.0237	0.56876	0.004
Mof_O 	O 	0.02166	0.84857	0.37621	-0.492
Mof_O 	O 	0.99212	0.72673	0.41106	-0.44
Mof_O 	O 	0.97275	0.63261	0.15533	-0.382
Mof_O 	O 	0.02203	0.51383	0.18491	-0.445
Mof_C 	C 	0.01018	0.77022	0.37446	0.378
Mof_C 	C 	0.00185	0.5906	0.18802	0.346
Mof_C 	C 	0.01681	0.72299	0.32654	-0.15
Mof_C 	C 	0.98053	0.6498	0.32183	0.036
Mof_H 	H 	0.9567	0.6291	0.3489	0.039
Mof_C 	C 	0.97791	0.6045	0.27713	0.012
Mof_H 	H 	0.9532	0.5541	0.2751	0.047
Mof_C 	C 	0.01147	0.6342	0.23668	-0.111
Mof_C 	C 	0.05315	0.7085	0.24021	0.04
Mof_C 	C 	0.09203	0.7377	0.19991	-0.067
Mof_H 	H 	0.0898	0.7088	0.17	0.074
Mof_C 	C 	0.1329	0.8075	0.20413	-0.034
Mof_H 	H 	0.158	0.8262	0.1772	0.055
Mof_C 	C 	0.1368	0.8509	0.24892	-0.003
Mof_H 	H 	0.1652	0.8981	0.2516	0.043
Mof_C 	C 	0.10012	0.8255	0.28864	-0.101
Mof_H 	H 	0.1037	0.8557	0.318	0.085
Mof_C 	C 	0.05666	0.754	0.28622	0.066
Mof_O 	O 	0.04774	0.11848	0.4991	-0.729
Mof_H 	H 	0.0957	0.111	0.5076	0.16
Mof_O 	O 	0.96724	0.03204	0.43015	-0.707
Mof_H 	H 	0.9228	0.0594	0.4335	0.19
Mof_O 	O 	0.6644	0.5079	0.394	-0.168
Mof_Co	Co	0.48235	0.77138	0.02252	1.158
Mof_Co	Co	0.46176	0.87248	0.92047	1.178
Mof_Co	Co	0.53899	0.05077	0.87638	1.173
Mof_O 	O 	0.54799	0.78916	0.92076	-0.431
Mof_O 	O 	0.5698	0.73745	0.99571	-0.438
Mof_O 	O 	0.87847	0.6193	0.88335	-0.485
Mof_O 	O 	0.8394	0.5045	0.8681	-0.209
Mof_C 	C 	0.58264	0.74707	0.9505	0.369
Mof_C 	C 	0.8311	0.576	0.88821	0.404
Mof_C 	C 	0.64508	0.7025	0.9324	-0.088
Mof_C 	C 	0.70173	0.7473	0.92032	-0.021
Mof_H 	H 	0.7013	0.8066	0.9213	0.049
Mof_C 	C 	0.76121	0.7032	0.90628	0.001
Mof_H 	H 	0.8001	0.7343	0.8989	0.043
Mof_C 	C 	0.76328	0.6164	0.90321	-0.123
Mof_C 	C 	0.70532	0.568	0.91393	0.067
Mof_C 	C 	0.7012	0.4757	0.91208	-0.103
Mof_H 	H 	0.7389	0.4444	0.9023	0.092
Mof_C 	C 	0.6429	0.4337	0.9244	0.009
Mof_H 	H 	0.6418	0.3744	0.9228	0.036
Mof_C 	C 	0.5866	0.4766	0.93884	-0.043
Mof_H 	H 	0.5474	0.4467	0.9471	0.055
Mof_C 	C 	0.58728	0.5627	0.94127	-0.053
Mof_H 	H 	0.5481	0.5911	0.951	0.058
Mof_C 	C 	0.64597	0.61135	0.92952	0.031
Mof_O 	O 	0.58994	0.94859	0.02634	-0.478
Mof_O 	O 	0.61781	0.04019	0.08598	-0.449
Mof_O 	O 	0.91519	0.80223	0.01087	-0.466
Mof_O 	O 	0.8932	0.72819	0.07964	-0.416
Mof_C 	C 	0.62965	0.97807	0.05815	0.392
Mof_C 	C 	0.88132	0.78609	0.04916	0.37
Mof_C 	C 	0.69756	0.93335	0.06121	-0.124
Mof_C 	C 	0.69724	0.8476	0.05256	0.003
Mof_H 	H 	0.6562	0.8197	0.0473	0.04
Mof_C 	C 	0.75792	0.80069	0.05142	-0.024
Mof_H 	H 	0.7562	0.7419	0.0469	0.039
Mof_C 	C 	0.8189	0.83934	0.05671	-0.084
Mof_C 	C 	0.82224	0.92936	0.06557	0.015
Mof_C 	C 	0.88496	0.9716	0.07155	-0.017
Mof_H 	H 	0.9251	0.9406	0.0694	0.054
Mof_C 	C 	0.8874	0.0574	0.0804	-0.093
Mof_H 	H 	0.9289	0.0847	0.0843	0.08
Mof_C 	C 	0.8271	0.1037	0.0836	0.044
Mof_H 	H 	0.8289	0.162	0.0901	0.023
Mof_C 	C 	0.76573	0.0657	0.07762	-0.145
Mof_H 	H 	0.7266	0.0986	0.0793	0.097
Mof_C 	C 	0.76014	0.9763	0.06876	0.092
Mof_O 	O 	0.47834	0.15143	0.87621	-0.491
Mof_O 	O 	0.50788	0.27327	0.91106	-0.463
Mof_O 	O 	0.52725	0.36739	0.65533	-0.414
Mof_O 	O 	0.47797	0.48617	0.68491	-0.44
Mof_C 	C 	0.48982	0.22978	0.87446	0.403
Mof_C 	C 	0.49815	0.4094	0.68802	0.374
Mof_C 	C 	0.48319	0.27701	0.82654	-0.126
Mof_C 	C 	0.51947	0.3502	0.82183	0.007
Mof_H 	H 	0.5433	0.3709	0.8489	0.043
Mof_C 	C 	0.52209	0.3955	0.77713	-0.018
Mof_H 	H 	0.5468	0.4459	0.7751	0.05
Mof_C 	C 	0.48853	0.3658	0.73668	-0.086
Mof_C 	C 	0.44685	0.2915	0.74021	0.039
Mof_C 	C 	0.40797	0.2623	0.69991	-0.065
Mof_H 	H 	0.4102	0.2912	0.67	0.075
Mof_C 	C 	0.3671	0.1925	0.70413	-0.037
Mof_H 	H 	0.342	0.1738	0.6772	0.054
Mof_C 	C 	0.3632	0.1491	0.74892	-0.005
Mof_H 	H 	0.3348	0.1019	0.7516	0.036
Mof_C 	C 	0.39988	0.1745	0.78864	-0.1
Mof_H 	H 	0.3963	0.1443	0.818	0.081
Mof_C 	C 	0.44334	0.246	0.78622	0.064
Mof_O 	O 	0.45226	0.88152	0.9991	-0.675
Mof_H 	H 	0.4043	0.889	0.0076	0.136
Mof_O 	O 	0.53276	0.96796	0.93015	-0.707
Mof_H 	H 	0.5772	0.9406	0.9335	0.193
Mof_O 	O 	0.8356	0.4921	0.894	-0.163
Mof_Co	Co	0.98235	0.72862	0.97748	1.196
Mof_Co	Co	0.96176	0.62752	0.07953	1.185
Mof_Co	Co	0.03899	0.44923	0.12362	1.171
Mof_O 	O 	0.04799	0.71084	0.07924	-0.446
Mof_O 	O 	0.0698	0.76255	0.00429	-0.481
Mof_O 	O 	0.37847	0.8807	0.11665	-0.496
Mof_O 	O 	0.3394	0.9955	0.1319	-0.149
Mof_C 	C 	0.08264	0.75293	0.0495	0.367
Mof_C 	C 	0.3311	0.924	0.11179	0.421
Mof_C 	C 	0.14508	0.7975	0.0676	-0.071
Mof_C 	C 	0.20173	0.7527	0.07968	-0.047
Mof_H 	H 	0.2013	0.6934	0.0787	0.051
Mof_C 	C 	0.26121	0.7968	0.09372	0.021
Mof_H 	H 	0.3001	0.7657	0.1011	0.032
Mof_C 	C 	0.26328	0.8836	0.09679	-0.155
Mof_C 	C 	0.20532	0.932	0.08607	0.128
Mof_C 	C 	0.2012	0.0243	0.08792	-0.196
Mof_H 	H 	0.2389	0.0556	0.0977	0.119
Mof_C 	C 	0.1429	0.0663	0.0756	0.094
Mof_H 	H 	0.1418	0.1256	0.0772	-0.002
Mof_C 	C 	0.0866	0.0234	0.06116	-0.16
Mof_H 	H 	0.0474	0.0533	0.0529	0.073
Mof_C 	C 	0.08728	0.9373	0.05873	0.037
Mof_H 	H 	0.0481	0.9089	0.049	0.016
Mof_C 	C 	0.14597	0.88865	0.07048	-0.026
Mof_O 	O 	0.08994	0.55141	0.97366	-0.453
Mof_O 	O 	0.11781	0.45981	0.91402	-0.433
Mof_O 	O 	0.41519	0.69777	0.98913	-0.443
Mof_O 	O 	0.3932	0.77181	0.92036	-0.416
Mof_C 	C 	0.12965	0.52193	0.94185	0.367
Mof_C 	C 	0.38132	0.71391	0.95084	0.372
Mof_C 	C 	0.19756	0.56665	0.93879	-0.096
Mof_C 	C 	0.19724	0.6524	0.94744	-0.012
Mof_H 	H 	0.1562	0.6803	0.9527	0.056
Mof_C 	C 	0.25792	0.69931	0.94858	-0.004
Mof_H 	H 	0.2562	0.7581	0.9531	0.043
Mof_C 	C 	0.3189	0.66066	0.94329	-0.093
Mof_C 	C 	0.32224	0.57064	0.93443	0.045
Mof_C 	C 	0.38496	0.5284	0.92845	-0.06
Mof_H 	H 	0.4251	0.5594	0.9306	0.064
Mof_C 	C 	0.3874	0.4426	0.9196	-0.036
Mof_H 	H 	0.4289	0.4153	0.9157	0.057
Mof_C 	C 	0.3271	0.3963	0.9164	0.002
Mof_H 	H 	0.3289	0.338	0.9099	0.04
Mof_C 	C 	0.26573	0.4343	0.92238	-0.092
Mof_H 	H 	0.2266	0.4014	0.9207	0.084
Mof_C 	C 	0.26014	0.5237	0.93124	0.058
Mof_O 	O 	0.97834	0.34857	0.12379	-0.483
Mof_O 	O 	0.00788	0.22673	0.08894	-0.506
Mof_O 	O 	0.02725	0.13261	0.34467	-0.453
Mof_O 	O 	0.97797	0.01383	0.31509	-0.443
Mof_C 	C 	0.98982	0.27022	0.12554	0.436
Mof_C 	C 	0.99815	0.0906	0.31198	0.41
Mof_C 	C 	0.98319	0.22299	0.17346	-0.093
Mof_C 	C 	0.01947	0.1498	0.17817	-0.032
Mof_H 	H 	0.0433	0.1291	0.1511	0.049
Mof_C 	C 	0.02209	0.1045	0.22287	-0.05
Mof_H 	H 	0.0468	0.0541	0.2249	0.048
Mof_C 	C 	0.98853	0.1342	0.26332	-0.059
Mof_C 	C 	0.94685	0.2085	0.25979	0.042
Mof_C 	C 	0.90797	0.2377	0.30009	-0.063
Mof_H 	H 	0.9102	0.2088	0.33	0.077
Mof_C 	C 	0.8671	0.3075	0.29587	-0.032
Mof_H 	H 	0.842	0.3262	0.3228	0.054
Mof_C 	C 	0.8632	0.3509	0.25108	-0.006
Mof_H 	H 	0.8348	0.3981	0.2484	0.043
Mof_C 	C 	0.89988	0.3255	0.21136	-0.092
Mof_H 	H 	0.8963	0.3557	0.182	0.083
Mof_C 	C 	0.94334	0.254	0.21378	0.06
Mof_O 	O 	0.95226	0.61848	0.0009	-0.736
Mof_H 	H 	0.9043	0.611	0.9924	0.187
Mof_O 	O 	0.03276	0.53204	0.06985	-0.736
Mof_H 	H 	0.0772	0.5594	0.0665	0.189
Mof_O 	O 	0.3356	0.0079	0.106	-0.233
Mof_Co	Co	0.51765	0.27138	0.47748	1.174
Mof_Co	Co	0.53824	0.37248	0.57953	1.177
Mof_Co	Co	0.46101	0.55077	0.62362	1.18
Mof_O 	O 	0.45201	0.28916	0.57924	-0.437
Mof_O 	O 	0.4302	0.23745	0.50429	-0.459
Mof_O 	O 	0.12153	0.1193	0.61665	-0.492
Mof_O 	O 	0.1606	0.0045	0.6319	-0.279
Mof_C 	C 	0.41736	0.24707	0.5495	0.38
Mof_C 	C 	0.1689	0.076	0.61179	0.387
Mof_C 	C 	0.35492	0.2025	0.5676	-0.12
Mof_C 	C 	0.29827	0.2473	0.57968	0.004
Mof_H 	H 	0.2987	0.3066	0.5787	0.037
Mof_C 	C 	0.23879	0.2032	0.59372	-0.028
Mof_H 	H 	0.1999	0.2343	0.6011	0.049
Mof_C 	C 	0.23672	0.1164	0.59679	-0.097
Mof_C 	C 	0.29468	0.068	0.58607	-0.003
Mof_C 	C 	0.2988	0.9757	0.58792	-0.014
Mof_H 	H 	0.2611	0.9444	0.5977	0.061
Mof_C 	C 	0.3571	0.9337	0.5756	-0.086
Mof_H 	H 	0.3582	0.8744	0.5772	0.067
Mof_C 	C 	0.4134	0.9766	0.56116	0.065
Mof_H 	H 	0.4526	0.9467	0.5529	0.016
Mof_C 	C 	0.41272	0.0627	0.55873	-0.151
Mof_H 	H 	0.4519	0.0911	0.549	0.085
Mof_C 	C 	0.35403	0.11135	0.57048	0.083
Mof_O 	O 	0.41006	0.44859	0.47366	-0.465
Mof_O 	O 	0.38219	0.54019	0.41402	-0.433
Mof_O 	O 	0.08481	0.30223	0.48913	-0.464
Mof_O 	O 	0.1068	0.22819	0.42036	-0.424
Mof_C 	C 	0.37035	0.47807	0.44185	0.368
Mof_C 	C 	0.11868	0.28609	0.45084	0.373
Mof_C 	C 	0.30244	0.43335	0.43879	-0.098
Mof_C 	C 	0.30276	0.3476	0.44744	-0.015
Mof_H 	H 	0.3438	0.3197	0.4527	0.053
Mof_C 	C 	0.24208	0.30069	0.44858	-0.003
Mof_H 	H 	0.2438	0.2419	0.4531	0.036
Mof_C 	C 	0.1811	0.33934	0.44329	-0.1
Mof_C 	C 	0.17776	0.42936	0.43443	0.044
Mof_C 	C 	0.11504	0.4716	0.42845	-0.066
Mof_H 	H 	0.0749	0.4406	0.4306	0.057
Mof_C 	C 	0.1126	0.5574	0.4196	-0.037
Mof_H 	H 	0.0711	0.5847	0.4157	0.046
Mof_C 	C 	0.1729	0.6037	0.4164	-0.005
Mof_H 	H 	0.1711	0.662	0.4099	0.04
Mof_C 	C 	0.23427	0.5657	0.42238	-0.092
Mof_H 	H 	0.2734	0.5986	0.4207	0.081
Mof_C 	C 	0.23986	0.4763	0.43124	0.053
Mof_O 	O 	0.52166	0.65143	0.62379	-0.489
Mof_O 	O 	0.49212	0.77327	0.58894	-0.466
Mof_O 	O 	0.47275	0.86739	0.84467	-0.412
Mof_O 	O 	0.52203	0.98617	0.81509	-0.43
Mof_C 	C 	0.51018	0.72978	0.62554	0.403
Mof_C 	C 	0.50185	0.9094	0.81198	0.373
Mof_C 	C 	0.51681	0.77701	0.67346	-0.126
Mof_C 	C 	0.48053	0.8502	0.67817	0.01
Mof_H 	H 	0.4567	0.8709	0.6511	0.044
Mof_C 	C 	0.47791	0.8955	0.72287	-0.019
Mof_H 	H 	0.4532	0.9459	0.7249	0.055
Mof_C 	C 	0.51147	0.8658	0.76332	-0.083
Mof_C 	C 	0.55315	0.7915	0.75979	0.039
Mof_C 	C 	0.59203	0.7623	0.80009	-0.064
Mof_H 	H 	0.5898	0.7912	0.83	0.076
Mof_C 	C 	0.6329	0.6925	0.79587	-0.034
Mof_H 	H 	0.658	0.6738	0.8228	0.055
Mof_C 	C 	0.6368	0.6491	0.75108	-0.004
Mof_H 	H 	0.6652	0.6019	0.7484	0.041
Mof_C 	C 	0.60012	0.6745	0.71136	-0.098
Mof_H 	H 	0.6037	0.6443	0.682	0.084
Mof_C 	C 	0.55666	0.746	0.71378	0.065
Mof_O 	O 	0.54774	0.38152	0.5009	-0.717
Mof_H 	H 	0.5957	0.389	0.4924	0.163
Mof_O 	O 	0.46724	0.46796	0.56985	-0.721
Mof_H 	H 	0.4228	0.4406	0.5665	0.191
Mof_O 	O 	0.1644	0.9921	0.606	-0.089
Mof_Co	Co	0.98235	0.77138	0.47748	1.181
Mof_Co	Co	0.96176	0.87248	0.57953	1.184
Mof_Co	Co	0.03899	0.05077	0.62362	1.163
Mof_O 	O 	0.04799	0.78916	0.57924	-0.444
Mof_O 	O 	0.0698	0.73745	0.50429	-0.465
Mof_O 	O 	0.37847	0.6193	0.61665	-0.491
Mof_O 	O 	0.3394	0.5045	0.6319	-0.207
Mof_C 	C 	0.08264	0.74707	0.5495	0.374
Mof_C 	C 	0.3311	0.576	0.61179	0.404
Mof_C 	C 	0.14508	0.7025	0.5676	-0.094
Mof_C 	C 	0.20173	0.7473	0.57968	-0.021
Mof_H 	H 	0.2013	0.8066	0.5787	0.046
Mof_C 	C 	0.26121	0.7032	0.59372	-0.002
Mof_H 	H 	0.3001	0.7343	0.6011	0.041
Mof_C 	C 	0.26328	0.6164	0.59679	-0.125
Mof_C 	C 	0.20532	0.568	0.58607	0.064
Mof_C 	C 	0.2012	0.4757	0.58792	-0.104
Mof_H 	H 	0.2389	0.4444	0.5977	0.091
Mof_C 	C 	0.1429	0.4337	0.5756	0.004
Mof_H 	H 	0.1418	0.3744	0.5772	0.033
Mof_C 	C 	0.0866	0.4766	0.56116	-0.045
Mof_H 	H 	0.0474	0.4467	0.5529	0.044
Mof_C 	C 	0.08728	0.5627	0.55873	-0.058
Mof_H 	H 	0.0481	0.5911	0.549	0.049
Mof_C 	C 	0.14597	0.61135	0.57048	0.029
Mof_O 	O 	0.08994	0.94859	0.47366	-0.472
Mof_O 	O 	0.11781	0.04019	0.41402	-0.461
Mof_O 	O 	0.41519	0.80223	0.48913	-0.455
Mof_O 	O 	0.3932	0.72819	0.42036	-0.416
Mof_C 	C 	0.12965	0.97807	0.44185	0.406
Mof_C 	C 	0.38132	0.78609	0.45084	0.364
Mof_C 	C 	0.19756	0.93335	0.43879	-0.136
Mof_C 	C 	0.19724	0.8476	0.44744	0.018
Mof_H 	H 	0.1562	0.8197	0.4527	0.04
Mof_C 	C 	0.25792	0.80069	0.44858	-0.034
Mof_H 	H 	0.2562	0.7419	0.4531	0.047
Mof_C 	C 	0.3189	0.83934	0.44329	-0.07
Mof_C 	C 	0.32224	0.92936	0.43443	-0.006
Mof_C 	C 	0.38496	0.9716	0.42845	0.02
Mof_H 	H 	0.4251	0.9406	0.4306	0.038
Mof_C 	C 	0.3874	0.0574	0.4196	-0.131
Mof_H 	H 	0.4289	0.0847	0.4157	0.084
Mof_C 	C 	0.3271	0.1037	0.4164	0.077
Mof_H 	H 	0.3289	0.162	0.4099	0.011
Mof_C 	C 	0.26573	0.0657	0.42238	-0.179
Mof_H 	H 	0.2266	0.0986	0.4207	0.109
Mof_C 	C 	0.26014	0.9763	0.43124	0.122
Mof_O 	O 	0.97834	0.15143	0.62379	-0.484
Mof_O 	O 	0.00788	0.27327	0.58894	-0.498
Mof_O 	O 	0.02725	0.36739	0.84467	-0.445
Mof_O 	O 	0.97797	0.48617	0.81509	-0.437
Mof_C 	C 	0.98982	0.22978	0.62554	0.432
Mof_C 	C 	0.99815	0.4094	0.81198	0.403
Mof_C 	C 	0.98319	0.27701	0.67346	-0.098
Mof_C 	C 	0.01947	0.3502	0.67817	-0.027
Mof_H 	H 	0.0433	0.3709	0.6511	0.049
Mof_C 	C 	0.02209	0.3955	0.72287	-0.044
Mof_H 	H 	0.0468	0.4459	0.7249	0.052
Mof_C 	C 	0.98853	0.3658	0.76332	-0.062
Mof_C 	C 	0.94685	0.2915	0.75979	0.041
Mof_C 	C 	0.90797	0.2623	0.80009	-0.064
Mof_H 	H 	0.9102	0.2912	0.83	0.077
Mof_C 	C 	0.8671	0.1925	0.79587	-0.033
Mof_H 	H 	0.842	0.1738	0.8228	0.054
Mof_C 	C 	0.8632	0.1491	0.75108	-0.006
Mof_H 	H 	0.8348	0.1019	0.7484	0.04
Mof_C 	C 	0.89988	0.1745	0.71136	-0.094
Mof_H 	H 	0.8963	0.1443	0.682	0.082
Mof_C 	C 	0.94334	0.246	0.71378	0.061
Mof_O 	O 	0.95226	0.88152	0.5009	-0.703
Mof_H 	H 	0.9043	0.889	0.4924	0.164
Mof_O 	O 	0.03276	0.96796	0.56985	-0.72
Mof_H 	H 	0.0772	0.9406	0.5665	0.19
Mof_O 	O 	0.3356	0.4921	0.606	-0.167
Mof_Co	Co	0.51765	0.22862	0.97748	1.189
Mof_Co	Co	0.53824	0.12752	0.07953	1.176
Mof_Co	Co	0.46101	0.94923	0.12362	1.185
Mof_O 	O 	0.45201	0.21084	0.07924	-0.436
Mof_O 	O 	0.4302	0.26255	0.00429	-0.473
Mof_O 	O 	0.12153	0.3807	0.11665	-0.497
Mof_O 	O 	0.1606	0.4955	0.1319	-0.205
Mof_C 	C 	0.41736	0.25293	0.0495	0.373
Mof_C 	C 	0.1689	0.424	0.11179	0.405
Mof_C 	C 	0.35492	0.2975	0.0676	-0.097
Mof_C 	C 	0.29827	0.2527	0.07968	-0.022
Mof_H 	H 	0.2987	0.1934	0.0787	0.042
Mof_C 	C 	0.23879	0.2968	0.09372	-0.005
Mof_H 	H 	0.1999	0.2657	0.1011	0.04
Mof_C 	C 	0.23672	0.3836	0.09679	-0.127
Mof_C 	C 	0.29468	0.432	0.08607	0.061
Mof_C 	C 	0.2988	0.5243	0.08792	-0.106
Mof_H 	H 	0.2611	0.5556	0.0977	0.089
Mof_C 	C 	0.3571	0.5663	0.0756	0.001
Mof_H 	H 	0.3582	0.6256	0.0772	0.032
Mof_C 	C 	0.4134	0.5234	0.06116	-0.045
Mof_H 	H 	0.4526	0.5533	0.0529	0.045
Mof_C 	C 	0.41272	0.4373	0.05873	-0.061
Mof_H 	H 	0.4519	0.4089	0.049	0.053
Mof_C 	C 	0.35403	0.38865	0.07048	0.029
Mof_O 	O 	0.41006	0.05141	0.97366	-0.444
Mof_O 	O 	0.38219	0.95981	0.91402	-0.406
Mof_O 	O 	0.08481	0.19777	0.98913	-0.452
Mof_O 	O 	0.1068	0.27181	0.92036	-0.425
Mof_C 	C 	0.37035	0.02193	0.94185	0.328
Mof_C 	C 	0.11868	0.21391	0.95084	0.383
Mof_C 	C 	0.30244	0.06665	0.93879	-0.054
Mof_C 	C 	0.30276	0.1524	0.94744	-0.049
Mof_H 	H 	0.3438	0.1803	0.9527	0.069
Mof_C 	C 	0.24208	0.19931	0.94858	0.031
Mof_H 	H 	0.2438	0.2581	0.9531	0.03
Mof_C 	C 	0.1811	0.16066	0.94329	-0.128
Mof_C 	C 	0.17776	0.07064	0.93443	0.104
Mof_C 	C 	0.11504	0.0284	0.92845	-0.165
Mof_H 	H 	0.0749	0.0594	0.9306	0.089
Mof_C 	C 	0.1126	0.9426	0.9196	0.079
Mof_H 	H 	0.0711	0.9153	0.9157	0.014
Mof_C 	C 	0.1729	0.8963	0.9164	-0.094
Mof_H 	H 	0.1711	0.838	0.9099	0.074
Mof_C 	C 	0.23427	0.9343	0.92238	0.009
Mof_H 	H 	0.2734	0.9014	0.9207	0.052
Mof_C 	C 	0.23986	0.0237	0.93124	-0.021
Mof_O 	O 	0.52166	0.84857	0.12379	-0.488
Mof_O 	O 	0.49212	0.72673	0.08894	-0.472
Mof_O 	O 	0.47275	0.63261	0.34467	-0.414
Mof_O 	O 	0.52203	0.51383	0.31509	-0.44
Mof_C 	C 	0.51018	0.77022	0.12554	0.403
Mof_C 	C 	0.50185	0.5906	0.31198	0.374
Mof_C 	C 	0.51681	0.72299	0.17346	-0.126
Mof_C 	C 	0.48053	0.6498	0.17817	0.007
Mof_H 	H 	0.4567	0.6291	0.1511	0.043
Mof_C 	C 	0.47791	0.6045	0.22287	-0.017
Mof_H 	H 	0.4532	0.5541	0.2249	0.05
Mof_C 	C 	0.51147	0.6342	0.26332	-0.086
Mof_C 	C 	0.55315	0.7085	0.25979	0.04
Mof_C 	C 	0.59203	0.7377	0.30009	-0.065
Mof_H 	H 	0.5898	0.7088	0.33	0.076
Mof_C 	C 	0.6329	0.8075	0.29587	-0.033
Mof_H 	H 	0.658	0.8262	0.3228	0.055
Mof_C 	C 	0.6368	0.8509	0.25108	-0.004
Mof_H 	H 	0.6652	0.8981	0.2484	0.044
Mof_C 	C 	0.60012	0.8255	0.21136	-0.097
Mof_H 	H 	0.6037	0.8557	0.182	0.085
Mof_C 	C 	0.55666	0.754	0.21378	0.065
Mof_O 	O 	0.54774	0.11848	0.0009	-0.75
Mof_H 	H 	0.5957	0.111	0.9924	0.187
Mof_O 	O 	0.46724	0.03204	0.06985	-0.729
Mof_H 	H 	0.4228	0.0594	0.0665	0.189
Mof_O 	O 	0.1644	0.5079	0.106	-0.172
Mof_Co	Co	0.01765	0.27138	0.02252	1.15
Mof_Co	Co	0.03824	0.37248	0.92047	1.17
Mof_Co	Co	0.96101	0.55077	0.87638	1.187
Mof_O 	O 	0.95201	0.28916	0.92076	-0.42
Mof_O 	O 	0.9302	0.23745	0.99571	-0.43
Mof_O 	O 	0.62153	0.1193	0.88335	-0.486
Mof_O 	O 	0.6606	0.0045	0.8681	-0.262
Mof_C 	C 	0.91736	0.24707	0.9505	0.372
Mof_C 	C 	0.6689	0.076	0.88821	0.392
Mof_C 	C 	0.85492	0.2025	0.9324	-0.105
Mof_C 	C 	0.79827	0.2473	0.92032	-0.005
Mof_H 	H 	0.7987	0.3066	0.9213	0.043
Mof_C 	C 	0.73879	0.2032	0.90628	-0.017
Mof_H 	H 	0.6999	0.2343	0.8989	0.048
Mof_C 	C 	0.73672	0.1164	0.90321	-0.104
Mof_C 	C 	0.79468	0.068	0.91393	0.02
Mof_C 	C 	0.7988	0.9757	0.91208	-0.039
Mof_H 	H 	0.7611	0.9444	0.9023	0.071
Mof_C 	C 	0.8571	0.9337	0.9244	-0.054
Mof_H 	H 	0.8582	0.8744	0.9228	0.06
Mof_C 	C 	0.9134	0.9766	0.93884	0.034
Mof_H 	H 	0.9526	0.9467	0.9471	0.037
Mof_C 	C 	0.91272	0.0627	0.94127	-0.118
Mof_H 	H 	0.9519	0.0911	0.951	0.085
Mof_C 	C 	0.85403	0.11135	0.92952	0.068
Mof_O 	O 	0.91006	0.44859	0.02634	-0.465
Mof_O 	O 	0.88219	0.54019	0.08598	-0.43
Mof_O 	O 	0.58481	0.30223	0.01087	-0.473
Mof_O 	O 	0.6068	0.22819	0.07964	-0.422
Mof_C 	C 	0.87035	0.47807	0.05815	0.366
Mof_C 	C 	0.61868	0.28609	0.04916	0.375
Mof_C 	C 	0.80244	0.43335	0.06121	-0.1
Mof_C 	C 	0.80276	0.3476	0.05256	-0.018
Mof_H 	H 	0.8438	0.3197	0.0473	0.049
Mof_C 	C 	0.74208	0.30069	0.05142	-0.005
Mof_H 	H 	0.7438	0.2419	0.0469	0.033
Mof_C 	C 	0.6811	0.33934	0.05671	-0.103
Mof_C 	C 	0.67776	0.42936	0.06557	0.044
Mof_C 	C 	0.61504	0.4716	0.07155	-0.068
Mof_H 	H 	0.5749	0.4406	0.0694	0.062
Mof_C 	C 	0.6126	0.5574	0.0804	-0.039
Mof_H 	H 	0.5711	0.5847	0.0843	0.052
Mof_C 	C 	0.6729	0.6037	0.0836	-0.006
Mof_H 	H 	0.6711	0.662	0.0901	0.039
Mof_C 	C 	0.73427	0.5657	0.07762	-0.093
Mof_H 	H 	0.7734	0.5986	0.0793	0.08
Mof_C 	C 	0.73986	0.4763	0.06876	0.051
Mof_O 	O 	0.02166	0.65143	0.87621	-0.494
Mof_O 	O 	0.99212	0.77327	0.91106	-0.438
Mof_O 	O 	0.97275	0.86739	0.65533	-0.387
Mof_O 	O 	0.02203	0.98617	0.68491	-0.431
Mof_C 	C 	0.01018	0.72978	0.87446	0.381
Mof_C 	C 	0.00185	0.9094	0.68802	0.35
Mof_C 	C 	0.01681	0.77701	0.82654	-0.147
Mof_C 	C 	0.98053	0.8502	0.82183	0.035
Mof_H 	H 	0.9567	0.8709	0.8489	0.04
Mof_C 	C 	0.97791	0.8955	0.77713	0.002
Mof_H 	H 	0.9532	0.9459	0.7751	0.052
Mof_C 	C 	0.01147	0.8658	0.73668	-0.101
Mof_C 	C 	0.05315	0.7915	0.74021	0.038
Mof_C 	C 	0.09203	0.7623	0.69991	-0.065
Mof_H 	H 	0.0898	0.7912	0.67	0.075
Mof_C 	C 	0.1329	0.6925	0.70413	-0.037
Mof_H 	H 	0.158	0.6738	0.6772	0.055
Mof_C 	C 	0.1368	0.6491	0.74892	-0.003
Mof_H 	H 	0.1652	0.6019	0.7516	0.039
Mof_C 	C 	0.10012	0.6745	0.78864	-0.103
Mof_H 	H 	0.1037	0.6443	0.818	0.083
Mof_C 	C 	0.05666	0.746	0.78622	0.067
Mof_O 	O 	0.04774	0.38152	0.9991	-0.686
Mof_H 	H 	0.0957	0.389	0.0076	0.134
Mof_O 	O 	0.96724	0.46796	0.93015	-0.701
Mof_H 	H 	0.9228	0.4406	0.9335	0.192
Mof_O 	O 	0.6644	0.9921	0.894	-0.105
Mof_Co	Co	0.48235	0.72862	0.52252	1.174
Mof_Co	Co	0.46176	0.62752	0.42047	1.177
Mof_Co	Co	0.53899	0.44923	0.37638	1.18
Mof_O 	O 	0.54799	0.71084	0.42076	-0.431
Mof_O 	O 	0.5698	0.76255	0.49571	-0.453
Mof_O 	O 	0.87847	0.8807	0.38335	-0.489
Mof_O 	O 	0.8394	0.9955	0.3681	-0.169
Mof_C 	C 	0.58264	0.75293	0.4505	0.364
Mof_C 	C 	0.8311	0.924	0.38821	0.416
Mof_C 	C 	0.64508	0.7975	0.4324	-0.071
Mof_C 	C 	0.70173	0.7527	0.42032	-0.041
Mof_H 	H 	0.7013	0.6934	0.4213	0.052
Mof_C 	C 	0.76121	0.7968	0.40628	0.018
Mof_H 	H 	0.8001	0.7657	0.3989	0.036
Mof_C 	C 	0.76328	0.8836	0.40321	-0.145
Mof_C 	C 	0.70532	0.932	0.41393	0.113
Mof_C 	C 	0.7012	0.0243	0.41208	-0.171
Mof_H 	H 	0.7389	0.0556	0.4023	0.113
Mof_C 	C 	0.6429	0.0663	0.4244	0.075
Mof_H 	H 	0.6418	0.1256	0.4228	0.009
Mof_C 	C 	0.5866	0.0234	0.43884	-0.129
Mof_H 	H 	0.5474	0.0533	0.4471	0.076
Mof_C 	C 	0.58728	0.9373	0.44127	0.018
Mof_H 	H 	0.5481	0.9089	0.451	0.033
Mof_C 	C 	0.64597	0.88865	0.42952	-0.01
Mof_O 	O 	0.58994	0.55141	0.52634	-0.465
Mof_O 	O 	0.61781	0.45981	0.58598	-0.433
Mof_O 	O 	0.91519	0.69777	0.51087	-0.454
Mof_O 	O 	0.8932	0.77181	0.57964	-0.415
Mof_C 	C 	0.62965	0.52193	0.55815	0.368
Mof_C 	C 	0.88132	0.71391	0.54916	0.374
Mof_C 	C 	0.69756	0.56665	0.56121	-0.1
Mof_C 	C 	0.69724	0.6524	0.55256	-0.013
Mof_H 	H 	0.6562	0.6803	0.5473	0.051
Mof_C 	C 	0.75792	0.69931	0.55142	-0.006
Mof_H 	H 	0.7562	0.7581	0.5469	0.038
Mof_C 	C 	0.8189	0.66066	0.55671	-0.096
Mof_C 	C 	0.82224	0.57064	0.56557	0.044
Mof_C 	C 	0.88496	0.5284	0.57155	-0.061
Mof_H 	H 	0.9251	0.5594	0.5694	0.069
Mof_C 	C 	0.8874	0.4426	0.5804	-0.039
Mof_H 	H 	0.9289	0.4153	0.5843	0.064
Mof_C 	C 	0.8271	0.3963	0.5836	0.002
Mof_H 	H 	0.8289	0.338	0.5901	0.039
Mof_C 	C 	0.76573	0.4343	0.57762	-0.095
Mof_H 	H 	0.7266	0.4014	0.5793	0.083
Mof_C 	C 	0.76014	0.5237	0.56876	0.056
Mof_O 	O 	0.47834	0.34857	0.37621	-0.489
Mof_O 	O 	0.50788	0.22673	0.41106	-0.468
Mof_O 	O 	0.52725	0.13261	0.15533	-0.415
Mof_O 	O 	0.47797	0.01383	0.18491	-0.45
Mof_C 	C 	0.48982	0.27022	0.37446	0.403
Mof_C 	C 	0.49815	0.0906	0.18802	0.376
Mof_C 	C 	0.48319	0.22299	0.32654	-0.126
Mof_C 	C 	0.51947	0.1498	0.32183	0.005
Mof_H 	H 	0.5433	0.1291	0.3489	0.043
Mof_C 	C 	0.52209	0.1045	0.27713	-0.016
Mof_H 	H 	0.5468	0.0541	0.2751	0.046
Mof_C 	C 	0.48853	0.1342	0.23668	-0.089
Mof_C 	C 	0.44685	0.2085	0.24021	0.04
Mof_C 	C 	0.40797	0.2377	0.19991	-0.066
Mof_H 	H 	0.4102	0.2088	0.17	0.075
Mof_C 	C 	0.3671	0.3075	0.20413	-0.035
Mof_H 	H 	0.342	0.3262	0.1772	0.054
Mof_C 	C 	0.3632	0.3509	0.24892	-0.005
Mof_H 	H 	0.3348	0.3981	0.2516	0.04
Mof_C 	C 	0.39988	0.3255	0.28864	-0.098
Mof_H 	H 	0.3963	0.3557	0.318	0.083
Mof_C 	C 	0.44334	0.254	0.28622	0.063
Mof_O 	O 	0.45226	0.61848	0.4991	-0.717
Mof_H 	H 	0.4043	0.611	0.5076	0.163
Mof_O 	O 	0.53276	0.53204	0.43015	-0.721
Mof_H 	H 	0.5772	0.5594	0.4335	0.191
Mof_O 	O 	0.8356	0.0079	0.394	-0.209
Mof_Co	Co	2.57813e-33	-6.02739e-33	0.5	1.145
Mof_Co	Co	0.5	0	-0	1.149
Mof_Co	Co	-3.0137e-33	0.5	-0	1.142
Mof_Co	Co	0.5	0.5	0.5	1.168
_end
