# CIF file generated by openbabel 3.1.0, see https://openbabel.org
data_I
_chemical_name_common 'MAFZOK_clean'
_cell_length_a 7.419
_cell_length_b 9.969
_cell_length_c 11.148
_cell_angle_alpha 65.152
_cell_angle_beta 76.109
_cell_angle_gamma 69.965
_space_group_name_H-M_alt 'P 1'
_space_group_name_Hall 'P 1'
loop_
    _symmetry_equiv_pos_as_xyz
    x,y,z
loop_
    _atom_site_label
    _atom_site_type_symbol
    _atom_site_fract_x
    _atom_site_fract_y
    _atom_site_fract_z
    _atom_site_occupancy
    Zn1      Zn       0.55666    0.35307    0.29493    1.000
    Zn2      Zn       0.92590    0.28199    0.04792    1.000
    Zn3      Zn       0.44334    0.64693    0.70507    1.000
    Zn4      Zn       0.07410    0.71801    0.95208    1.000
    Zn5      Zn       0.50000    0.50000    0.00000    1.000
    P1       P        0.14760    0.38860    0.19121    1.000
    P2       P        0.85240    0.61140    0.80879    1.000
    H1       H        0.25470    0.10380    0.40670    1.000
    H2       H        0.84650    0.50360    0.36820    1.000
    H3       H        0.87640    0.15110    0.72020    1.000
    H4       H        0.76500    0.50700    0.11300    1.000
    H5       H        0.74530    0.89620    0.59330    1.000
    H6       H        0.15350    0.49640    0.63180    1.000
    H7       H        0.12360    0.84890    0.27980    1.000
    H8       H        0.23500    0.49300    0.88700    1.000
    C1       C        0.15030    0.16340    0.44410    1.000
    C2       C        0.05990    0.31400    0.36540    1.000
    C3       C        0.90440    0.40280    0.42030    1.000
    C4       C        0.08340    0.10270    0.57890    1.000
    C5       C        0.83440    0.34140    0.55380    1.000
    C6       C        0.66650    0.43400    0.61760    1.000
    C7       C        0.92420    0.19200    0.63130    1.000
    C8       C        0.18270    0.94380    0.66720    1.000
    C9       C        0.84970    0.83660    0.55590    1.000
    C10      C        0.94010    0.68600    0.63460    1.000
    C11      C        0.09560    0.59720    0.57970    1.000
    C12      C        0.91660    0.89730    0.42110    1.000
    C13      C        0.16560    0.65860    0.44620    1.000
    C14      C        0.33350    0.56600    0.38240    1.000
    C15      C        0.07580    0.80800    0.36870    1.000
    C16      C        0.81730    0.05620    0.33280    1.000
    O1       O        0.70710    0.43910    0.12220    1.000
    O2       O        0.36020    0.38310    0.18210    1.000
    O3       O        0.61110    0.57940    0.55820    1.000
    O4       O        0.58480    0.36820    0.72830    1.000
    O5       O        0.30750    0.85870    0.60960    1.000
    O6       O        0.13460    0.90570    0.78940    1.000
    O7       O        0.14080    0.28040    0.12940    1.000
    O8       O        0.02280    0.55090    0.13240    1.000
    O9       O        0.29290    0.56090    0.87780    1.000
    O10      O        0.63980    0.61690    0.81790    1.000
    O11      O        0.38890    0.42060    0.44180    1.000
    O12      O        0.41520    0.63180    0.27170    1.000
    O13      O        0.69250    0.14130    0.39040    1.000
    O14      O        0.86540    0.09430    0.21060    1.000
    O15      O        0.85920    0.71960    0.87060    1.000
    O16      O        0.97720    0.44910    0.86760    1.000
