# CIF file generated by openbabel 3.1.0, see https://openbabel.org
data_I
_chemical_name_common 'image0'
_cell_length_a 28.1548
_cell_length_b 28.1548
_cell_length_c 17.9281
_cell_angle_alpha 90
_cell_angle_beta 90
_cell_angle_gamma 120
_space_group_name_H-M_alt 'P 1'
_space_group_name_Hall 'P 1'
loop_
    _symmetry_equiv_pos_as_xyz
    x,y,z
loop_
    _atom_site_label
    _atom_site_type_symbol
    _atom_site_fract_x
    _atom_site_fract_y
    _atom_site_fract_z
    _atom_site_occupancy
    C1       C        0.40303    0.45472    0.59570    1.000
    C2       C        0.43251    0.49747    0.53729    1.000
    C3       C        0.48092    0.54427    0.55571    1.000
    H1       H        0.49340    0.55050    0.60590    1.000
    C4       C        0.51124    0.58212    0.50071    1.000
    C5       C        0.56335    0.63144    0.52296    1.000
    C6       C        0.49251    0.57398    0.42723    1.000
    H2       H        0.51360    0.59960    0.38950    1.000
    C7       C        0.44249    0.52783    0.40970    1.000
    C8       C        0.41271    0.48922    0.46450    1.000
    H3       H        0.37900    0.45740    0.45220    1.000
    C9       C        0.44160    0.55930    0.28410    1.000
    C10      C        0.42780    0.60040    0.29750    1.000
    C11      C        0.45490    0.63920    0.22490    1.000
    C12      C        0.45090    0.69490    0.22810    1.000
    C13      C        0.45878    0.42482    0.88490    1.000
    C14      C        0.51163    0.45988    0.92596    1.000
    C15      C        0.54899    0.51190    0.90195    1.000
    H4       H        0.54330    0.52550    0.85640    1.000
    C16      C        0.59553    0.54450    0.94535    1.000
    C17      C        0.63548    0.60169    0.92322    1.000
    C18      C        0.60456    0.52320    0.01030    1.000
    H5       H        0.63660    0.54500    0.03900    1.000
    C19      C        0.56730    0.47070    0.03340    1.000
    C20      C        0.52017    0.43838    0.99190    1.000
    H6       H        0.49420    0.40240    0.00790    1.000
    O1       O        0.35995    0.41209    0.57777    1.000
    O2       O        0.42477    0.46424    0.65939    1.000
    O3       O        0.59757    0.66208    0.47458    1.000
    O4       O        0.57256    0.64291    0.59115    1.000
    O5       O        0.41934    0.51557    0.33998    1.000
    O6       O        0.42259    0.38341    0.91845    1.000
    O7       O        0.45445    0.43952    0.82007    1.000
    O8       O        0.63296    0.61861    0.85982    1.000
    O9       O        0.67291    0.63193    0.97086    1.000
    Mn1      Mn       0.38921    0.41317    0.74915    1.000
    Mn2      Mn       0.32770    0.32805    0.57903    1.000
    O10      O        0.58600    0.44640    0.08590    1.000
    C21      C        0.54540    0.38520    0.10670    1.000
    C22      C        0.58420    0.37210    0.15570    1.000
    C23      C        0.59180    0.40780    0.23200    1.000
    C24      C        0.59600    0.40770    0.32700    1.000
    C25      C        0.39370    0.54560    0.23050    1.000
    C26      C        0.54390    0.41240    0.13910    1.000
    C27      C        0.53970    0.41180    0.23080    1.000
    C28      C        0.50130    0.39630    0.27270    1.000
    C29      C        0.41500    0.59780    0.17520    1.000
    C30      C        0.55840    0.36860    0.33790    1.000
    C31      C        0.52850    0.36690    0.26530    1.000
    C32      C        0.56720    0.41210    0.21990    1.000
    C33      C        0.52380    0.40660    0.14050    1.000
    O11      O        0.57550    0.45900    0.10690    1.000
    C34      C        0.06970    0.78805    0.92903    1.000
    C35      C        0.09918    0.83080    0.87062    1.000
    C36      C        0.14759    0.87760    0.88904    1.000
    H7       H        0.16007    0.88383    0.93923    1.000
    C37      C        0.17791    0.91545    0.83404    1.000
    C38      C        0.23002    0.96477    0.85629    1.000
    C39      C        0.15918    0.90731    0.76056    1.000
    H8       H        0.18027    0.93293    0.72283    1.000
    C40      C        0.10916    0.86116    0.74303    1.000
    C41      C        0.07938    0.82255    0.79783    1.000
    H9       H        0.04567    0.79073    0.78553    1.000
    C42      C        0.10827    0.89263    0.61743    1.000
    C43      C        0.09447    0.93373    0.63083    1.000
    C44      C        0.12157    0.97253    0.55823    1.000
    C45      C        0.11757    0.02823    0.56143    1.000
    C46      C        0.12545    0.75815    0.21823    1.000
    C47      C        0.17830    0.79321    0.25929    1.000
    C48      C        0.21566    0.84523    0.23528    1.000
    H10      H        0.20997    0.85883    0.18973    1.000
    C49      C        0.26220    0.87783    0.27868    1.000
    C50      C        0.30215    0.93502    0.25655    1.000
    C51      C        0.27123    0.85653    0.34363    1.000
    H11      H        0.30327    0.87833    0.37233    1.000
    C52      C        0.23397    0.80403    0.36673    1.000
    C53      C        0.18684    0.77171    0.32523    1.000
    H12      H        0.16087    0.73573    0.34123    1.000
    O12      O        0.02662    0.74542    0.91110    1.000
    O13      O        0.09144    0.79757    0.99272    1.000
    O14      O        0.26424    0.99541    0.80791    1.000
    O15      O        0.23923    0.97624    0.92448    1.000
    O16      O        0.08601    0.84890    0.67331    1.000
    O17      O        0.08926    0.71674    0.25178    1.000
    O18      O        0.12112    0.77285    0.15340    1.000
    O19      O        0.29963    0.95194    0.19315    1.000
    O20      O        0.33958    0.96526    0.30419    1.000
    Mn3      Mn       0.05588    0.74650    0.08248    1.000
    Mn4      Mn       0.99437    0.66138    0.91236    1.000
    O21      O        0.25267    0.77973    0.41923    1.000
    C54      C        0.21207    0.71853    0.44003    1.000
    C55      C        0.25087    0.70543    0.48903    1.000
    C56      C        0.25847    0.74113    0.56533    1.000
    C57      C        0.26267    0.74103    0.66033    1.000
    C58      C        0.06037    0.87893    0.56383    1.000
    C59      C        0.21057    0.74573    0.47243    1.000
    C60      C        0.20637    0.74513    0.56413    1.000
    C61      C        0.16797    0.72963    0.60603    1.000
    C62      C        0.08167    0.93113    0.50853    1.000
    C63      C        0.22507    0.70193    0.67123    1.000
    C64      C        0.19517    0.70023    0.59863    1.000
    C65      C        0.23387    0.74543    0.55323    1.000
    C66      C        0.19047    0.73993    0.47383    1.000
    O22      O        0.24217    0.79233    0.44023    1.000
    C67      C        0.73636    0.12139    0.26237    1.000
    C68      C        0.76584    0.16414    0.20396    1.000
    C69      C        0.81425    0.21094    0.22238    1.000
    H13      H        0.82673    0.21717    0.27257    1.000
    C70      C        0.84457    0.24879    0.16738    1.000
    C71      C        0.89668    0.29811    0.18963    1.000
    C72      C        0.82584    0.24065    0.09390    1.000
    H14      H        0.84693    0.26627    0.05617    1.000
    C73      C        0.77582    0.19450    0.07637    1.000
    C74      C        0.74604    0.15589    0.13117    1.000
    H15      H        0.71233    0.12407    0.11887    1.000
    C75      C        0.77493    0.22597    0.95077    1.000
    C76      C        0.76113    0.26707    0.96417    1.000
    C77      C        0.78823    0.30587    0.89157    1.000
    C78      C        0.78423    0.36157    0.89477    1.000
    C79      C        0.79211    0.09149    0.55157    1.000
    C80      C        0.84496    0.12655    0.59263    1.000
    C81      C        0.88232    0.17857    0.56862    1.000
    H16      H        0.87663    0.19217    0.52307    1.000
    C82      C        0.92886    0.21117    0.61202    1.000
    C83      C        0.96881    0.26836    0.58989    1.000
    C84      C        0.93789    0.18987    0.67697    1.000
    H17      H        0.96993    0.21167    0.70567    1.000
    C85      C        0.90063    0.13737    0.70007    1.000
    C86      C        0.85350    0.10505    0.65857    1.000
    H18      H        0.82753    0.06907    0.67457    1.000
    O23      O        0.69328    0.07876    0.24444    1.000
    O24      O        0.75810    0.13091    0.32606    1.000
    O25      O        0.93090    0.32875    0.14125    1.000
    O26      O        0.90589    0.30958    0.25782    1.000
    O27      O        0.75267    0.18224    0.00665    1.000
    O28      O        0.75592    0.05008    0.58512    1.000
    O29      O        0.78778    0.10619    0.48674    1.000
    O30      O        0.96629    0.28528    0.52649    1.000
    O31      O        0.00624    0.29860    0.63753    1.000
    Mn5      Mn       0.72254    0.07984    0.41582    1.000
    Mn6      Mn       0.66103    0.99472    0.24570    1.000
    O32      O        0.91933    0.11307    0.75257    1.000
    C87      C        0.87873    0.05187    0.77337    1.000
    C88      C        0.91753    0.03877    0.82237    1.000
    C89      C        0.92513    0.07447    0.89867    1.000
    C90      C        0.92933    0.07437    0.99367    1.000
    C91      C        0.72703    0.21227    0.89717    1.000
    C92      C        0.87723    0.07907    0.80577    1.000
    C93      C        0.87303    0.07847    0.89747    1.000
    C94      C        0.83463    0.06297    0.93937    1.000
    C95      C        0.74833    0.26447    0.84187    1.000
    C96      C        0.89173    0.03527    0.00457    1.000
    C97      C        0.86183    0.03357    0.93197    1.000
    C98      C        0.90053    0.07877    0.88657    1.000
    C99      C        0.85713    0.07327    0.80717    1.000
    O33      O        0.90883    0.12567    0.77357    1.000
    C100     C        0.54528    0.94831    0.59570    1.000
    C101     C        0.50253    0.93504    0.53729    1.000
    C102     C        0.45573    0.93665    0.55571    1.000
    H19      H        0.44950    0.94290    0.60590    1.000
    C103     C        0.41788    0.92912    0.50071    1.000
    C104     C        0.36856    0.93191    0.52296    1.000
    C105     C        0.42602    0.91853    0.42723    1.000
    H20      H        0.40040    0.91400    0.38950    1.000
    C106     C        0.47217    0.91466    0.40970    1.000
    C107     C        0.51078    0.92349    0.46450    1.000
    H21      H        0.54260    0.92160    0.45220    1.000
    C108     C        0.44070    0.88230    0.28410    1.000
    C109     C        0.39960    0.82740    0.29750    1.000
    C110     C        0.36080    0.81570    0.22490    1.000
    C111     C        0.30510    0.75600    0.22810    1.000
    C112     C        0.57518    0.03396    0.88490    1.000
    C113     C        0.54012    0.05175    0.92596    1.000
    C114     C        0.48810    0.03709    0.90195    1.000
    H22      H        0.47450    0.01780    0.85640    1.000
    C115     C        0.45550    0.05103    0.94535    1.000
    C116     C        0.39831    0.03379    0.92322    1.000
    C117     C        0.47680    0.08136    0.01030    1.000
    H23      H        0.45500    0.09160    0.03900    1.000
    C118     C        0.52930    0.09660    0.03340    1.000
    C119     C        0.56162    0.08179    0.99190    1.000
    H24      H        0.59760    0.09180    0.00790    1.000
    O34      O        0.58791    0.94786    0.57777    1.000
    O35      O        0.53576    0.96053    0.65939    1.000
    O36      O        0.33792    0.93549    0.47458    1.000
    O37      O        0.35709    0.92965    0.59115    1.000
    O38      O        0.48443    0.90377    0.33998    1.000
    O39      O        0.61659    0.03918    0.91845    1.000
    O40      O        0.56048    0.01493    0.82007    1.000
    O41      O        0.38139    0.01435    0.85982    1.000
    O42      O        0.36807    0.04098    0.97086    1.000
    Mn7      Mn       0.58683    0.97604    0.74915    1.000
    Mn8      Mn       0.67195    0.99965    0.57903    1.000
    O43      O        0.55360    0.13960    0.08590    1.000
    C120     C        0.61480    0.16020    0.10670    1.000
    C121     C        0.62790    0.21210    0.15570    1.000
    C122     C        0.59220    0.18400    0.23200    1.000
    C123     C        0.59230    0.18830    0.32700    1.000
    C124     C        0.45440    0.84810    0.23050    1.000
    C125     C        0.58760    0.13150    0.13910    1.000
    C126     C        0.58820    0.12790    0.23080    1.000
    C127     C        0.60370    0.10500    0.27270    1.000
    C128     C        0.40220    0.81720    0.17520    1.000
    C129     C        0.63140    0.18980    0.33790    1.000
    C130     C        0.63310    0.16160    0.26530    1.000
    C131     C        0.58790    0.15510    0.21990    1.000
    C132     C        0.59340    0.11720    0.14050    1.000
    O44      O        0.54100    0.11650    0.10690    1.000
    C133     C        0.21195    0.28164    0.92903    1.000
    C134     C        0.16920    0.26837    0.87062    1.000
    C135     C        0.12240    0.26998    0.88904    1.000
    H25      H        0.11617    0.27623    0.93923    1.000
    C136     C        0.08455    0.26245    0.83404    1.000
    C137     C        0.03523    0.26524    0.85629    1.000
    C138     C        0.09269    0.25186    0.76056    1.000
    H26      H        0.06707    0.24733    0.72283    1.000
    C139     C        0.13884    0.24799    0.74303    1.000
    C140     C        0.17745    0.25682    0.79783    1.000
    H27      H        0.20927    0.25493    0.78553    1.000
    C141     C        0.10737    0.21563    0.61743    1.000
    C142     C        0.06627    0.16073    0.63083    1.000
    C143     C        0.02747    0.14903    0.55823    1.000
    C144     C        0.97177    0.08933    0.56143    1.000
    C145     C        0.24185    0.36729    0.21823    1.000
    C146     C        0.20679    0.38508    0.25929    1.000
    C147     C        0.15477    0.37042    0.23528    1.000
    H28      H        0.14117    0.35113    0.18973    1.000
    C148     C        0.12217    0.38436    0.27868    1.000
    C149     C        0.06498    0.36712    0.25655    1.000
    C150     C        0.14347    0.41469    0.34363    1.000
    H29      H        0.12167    0.42493    0.37233    1.000
    C151     C        0.19597    0.42993    0.36673    1.000
    C152     C        0.22829    0.41512    0.32523    1.000
    H30      H        0.26427    0.42513    0.34123    1.000
    O45      O        0.25458    0.28119    0.91110    1.000
    O46      O        0.20243    0.29386    0.99272    1.000
    O47      O        0.00459    0.26882    0.80791    1.000
    O48      O        0.02376    0.26298    0.92448    1.000
    O49      O        0.15110    0.23710    0.67331    1.000
    O50      O        0.28326    0.37251    0.25178    1.000
    O51      O        0.22715    0.34826    0.15340    1.000
    O52      O        0.04806    0.34768    0.19315    1.000
    O53      O        0.03474    0.37431    0.30419    1.000
    Mn9      Mn       0.25350    0.30937    0.08248    1.000
    Mn10     Mn       0.33862    0.33298    0.91236    1.000
    O54      O        0.22027    0.47293    0.41923    1.000
    C153     C        0.28147    0.49353    0.44003    1.000
    C154     C        0.29457    0.54543    0.48903    1.000
    C155     C        0.25887    0.51733    0.56533    1.000
    C156     C        0.25897    0.52163    0.66033    1.000
    C157     C        0.12107    0.18143    0.56383    1.000
    C158     C        0.25427    0.46483    0.47243    1.000
    C159     C        0.25487    0.46123    0.56413    1.000
    C160     C        0.27037    0.43833    0.60603    1.000
    C161     C        0.06887    0.15053    0.50853    1.000
    C162     C        0.29807    0.52313    0.67123    1.000
    C163     C        0.29977    0.49493    0.59863    1.000
    C164     C        0.25457    0.48843    0.55323    1.000
    C165     C        0.26007    0.45053    0.47383    1.000
    O55      O        0.20767    0.44983    0.44023    1.000
    C166     C        0.87861    0.61498    0.26237    1.000
    C167     C        0.83586    0.60171    0.20396    1.000
    C168     C        0.78906    0.60332    0.22238    1.000
    H31      H        0.78283    0.60957    0.27257    1.000
    C169     C        0.75121    0.59579    0.16738    1.000
    C170     C        0.70189    0.59858    0.18963    1.000
    C171     C        0.75935    0.58520    0.09390    1.000
    H32      H        0.73373    0.58067    0.05617    1.000
    C172     C        0.80550    0.58133    0.07637    1.000
    C173     C        0.84411    0.59016    0.13117    1.000
    H33      H        0.87593    0.58827    0.11887    1.000
    C174     C        0.77403    0.54897    0.95077    1.000
    C175     C        0.73293    0.49407    0.96417    1.000
    C176     C        0.69413    0.48237    0.89157    1.000
    C177     C        0.63843    0.42267    0.89477    1.000
    C178     C        0.90851    0.70063    0.55157    1.000
    C179     C        0.87345    0.71842    0.59263    1.000
    C180     C        0.82143    0.70376    0.56862    1.000
    H34      H        0.80783    0.68447    0.52307    1.000
    C181     C        0.78883    0.71770    0.61202    1.000
    C182     C        0.73164    0.70046    0.58989    1.000
    C183     C        0.81013    0.74803    0.67697    1.000
    H35      H        0.78833    0.75827    0.70567    1.000
    C184     C        0.86263    0.76327    0.70007    1.000
    C185     C        0.89495    0.74846    0.65857    1.000
    H36      H        0.93093    0.75847    0.67457    1.000
    O56      O        0.92124    0.61453    0.24444    1.000
    O57      O        0.86909    0.62720    0.32606    1.000
    O58      O        0.67125    0.60216    0.14125    1.000
    O59      O        0.69042    0.59632    0.25782    1.000
    O60      O        0.81776    0.57044    0.00665    1.000
    O61      O        0.94992    0.70585    0.58512    1.000
    O62      O        0.89381    0.68160    0.48674    1.000
    O63      O        0.71472    0.68102    0.52649    1.000
    O64      O        0.70140    0.70765    0.63753    1.000
    Mn11     Mn       0.92016    0.64271    0.41582    1.000
    Mn12     Mn       0.00528    0.66632    0.24570    1.000
    O65      O        0.88693    0.80627    0.75257    1.000
    C186     C        0.94813    0.82687    0.77337    1.000
    C187     C        0.96123    0.87877    0.82237    1.000
    C188     C        0.92553    0.85067    0.89867    1.000
    C189     C        0.92563    0.85497    0.99367    1.000
    C190     C        0.78773    0.51477    0.89717    1.000
    C191     C        0.92093    0.79817    0.80577    1.000
    C192     C        0.92153    0.79457    0.89747    1.000
    C193     C        0.93703    0.77167    0.93937    1.000
    C194     C        0.73553    0.48387    0.84187    1.000
    C195     C        0.96473    0.85647    0.00457    1.000
    C196     C        0.96643    0.82827    0.93197    1.000
    C197     C        0.92123    0.82177    0.88657    1.000
    C198     C        0.92673    0.78387    0.80717    1.000
    O66      O        0.87433    0.78317    0.77357    1.000
    C199     C        0.05169    0.59697    0.59570    1.000
    C200     C        0.06496    0.56749    0.53729    1.000
    C201     C        0.06335    0.51908    0.55571    1.000
    H37      H        0.05710    0.50660    0.60590    1.000
    C202     C        0.07088    0.48876    0.50071    1.000
    C203     C        0.06809    0.43665    0.52296    1.000
    C204     C        0.08147    0.50749    0.42723    1.000
    H38      H        0.08600    0.48640    0.38950    1.000
    C205     C        0.08534    0.55751    0.40970    1.000
    C206     C        0.07651    0.58729    0.46450    1.000
    H39      H        0.07840    0.62100    0.45220    1.000
    C207     C        0.11770    0.55840    0.28410    1.000
    C208     C        0.17260    0.57220    0.29750    1.000
    C209     C        0.18430    0.54510    0.22490    1.000
    C210     C        0.24400    0.54910    0.22810    1.000
    C211     C        0.96604    0.54122    0.88490    1.000
    C212     C        0.94825    0.48837    0.92596    1.000
    C213     C        0.96291    0.45101    0.90195    1.000
    H40      H        0.98220    0.45670    0.85640    1.000
    C214     C        0.94897    0.40447    0.94535    1.000
    C215     C        0.96621    0.36452    0.92322    1.000
    C216     C        0.91864    0.39544    0.01030    1.000
    H41      H        0.90840    0.36340    0.03900    1.000
    C217     C        0.90340    0.43270    0.03340    1.000
    C218     C        0.91821    0.47983    0.99190    1.000
    H42      H        0.90820    0.50580    0.00790    1.000
    O67      O        0.05214    0.64005    0.57777    1.000
    O68      O        0.03947    0.57523    0.65939    1.000
    O69      O        0.06451    0.40243    0.47458    1.000
    O70      O        0.07035    0.42744    0.59115    1.000
    O71      O        0.09623    0.58066    0.33998    1.000
    O72      O        0.96082    0.57741    0.91845    1.000
    O73      O        0.98507    0.54555    0.82007    1.000
    O74      O        0.98565    0.36704    0.85982    1.000
    O75      O        0.95902    0.32709    0.97086    1.000
    Mn13     Mn       0.02396    0.61079    0.74915    1.000
    Mn14     Mn       0.00035    0.67230    0.57903    1.000
    O76      O        0.86040    0.41400    0.08590    1.000
    C219     C        0.83980    0.45460    0.10670    1.000
    C220     C        0.78790    0.41580    0.15570    1.000
    C221     C        0.81600    0.40820    0.23200    1.000
    C222     C        0.81170    0.40400    0.32700    1.000
    C223     C        0.15190    0.60630    0.23050    1.000
    C224     C        0.86850    0.45610    0.13910    1.000
    C225     C        0.87210    0.46030    0.23080    1.000
    C226     C        0.89500    0.49870    0.27270    1.000
    C227     C        0.18280    0.58500    0.17520    1.000
    C228     C        0.81020    0.44160    0.33790    1.000
    C229     C        0.83840    0.47150    0.26530    1.000
    C230     C        0.84490    0.43280    0.21990    1.000
    C231     C        0.88280    0.47620    0.14050    1.000
    O77      O        0.88350    0.42450    0.10690    1.000
    C232     C        0.71836    0.93030    0.92903    1.000
    C233     C        0.73163    0.90082    0.87062    1.000
    C234     C        0.73002    0.85241    0.88904    1.000
    H43      H        0.72377    0.83993    0.93923    1.000
    C235     C        0.73755    0.82209    0.83404    1.000
    C236     C        0.73476    0.76998    0.85629    1.000
    C237     C        0.74814    0.84082    0.76056    1.000
    H44      H        0.75267    0.81973    0.72283    1.000
    C238     C        0.75201    0.89084    0.74303    1.000
    C239     C        0.74318    0.92062    0.79783    1.000
    H45      H        0.74507    0.95433    0.78553    1.000
    C240     C        0.78437    0.89173    0.61743    1.000
    C241     C        0.83927    0.90553    0.63083    1.000
    C242     C        0.85097    0.87843    0.55823    1.000
    C243     C        0.91067    0.88243    0.56143    1.000
    C244     C        0.63271    0.87455    0.21823    1.000
    C245     C        0.61492    0.82170    0.25929    1.000
    C246     C        0.62958    0.78434    0.23528    1.000
    H46      H        0.64887    0.79003    0.18973    1.000
    C247     C        0.61564    0.73780    0.27868    1.000
    C248     C        0.63288    0.69785    0.25655    1.000
    C249     C        0.58531    0.72877    0.34363    1.000
    H47      H        0.57507    0.69673    0.37233    1.000
    C250     C        0.57007    0.76603    0.36673    1.000
    C251     C        0.58488    0.81316    0.32523    1.000
    H48      H        0.57487    0.83913    0.34123    1.000
    O78      O        0.71881    0.97338    0.91110    1.000
    O79      O        0.70614    0.90856    0.99272    1.000
    O80      O        0.73118    0.73576    0.80791    1.000
    O81      O        0.73702    0.76077    0.92448    1.000
    O82      O        0.76290    0.91399    0.67331    1.000
    O83      O        0.62749    0.91074    0.25178    1.000
    O84      O        0.65174    0.87888    0.15340    1.000
    O85      O        0.65232    0.70037    0.19315    1.000
    O86      O        0.62569    0.66042    0.30419    1.000
    Mn15     Mn       0.69063    0.94412    0.08248    1.000
    Mn16     Mn       0.66702    0.00563    0.91236    1.000
    O87      O        0.52707    0.74733    0.41923    1.000
    C252     C        0.50647    0.78793    0.44003    1.000
    C253     C        0.45457    0.74913    0.48903    1.000
    C254     C        0.48267    0.74153    0.56533    1.000
    C255     C        0.47837    0.73733    0.66033    1.000
    C256     C        0.81857    0.93963    0.56383    1.000
    C257     C        0.53517    0.78943    0.47243    1.000
    C258     C        0.53877    0.79363    0.56413    1.000
    C259     C        0.56167    0.83203    0.60603    1.000
    C260     C        0.84947    0.91833    0.50853    1.000
    C261     C        0.47687    0.77493    0.67123    1.000
    C262     C        0.50507    0.80483    0.59863    1.000
    C263     C        0.51157    0.76613    0.55323    1.000
    C264     C        0.54947    0.80953    0.47383    1.000
    O88      O        0.55017    0.75783    0.44023    1.000
    C265     C        0.38502    0.26364    0.26237    1.000
    C266     C        0.39829    0.23416    0.20396    1.000
    C267     C        0.39668    0.18575    0.22238    1.000
    H49      H        0.39043    0.17327    0.27257    1.000
    C268     C        0.40421    0.15543    0.16738    1.000
    C269     C        0.40142    0.10332    0.18963    1.000
    C270     C        0.41480    0.17416    0.09390    1.000
    H50      H        0.41933    0.15307    0.05617    1.000
    C271     C        0.41867    0.22418    0.07637    1.000
    C272     C        0.40984    0.25396    0.13117    1.000
    H51      H        0.41173    0.28767    0.11887    1.000
    C273     C        0.45103    0.22507    0.95077    1.000
    C274     C        0.50593    0.23887    0.96417    1.000
    C275     C        0.51763    0.21177    0.89157    1.000
    C276     C        0.57733    0.21577    0.89477    1.000
    C277     C        0.29937    0.20789    0.55157    1.000
    C278     C        0.28158    0.15504    0.59263    1.000
    C279     C        0.29624    0.11768    0.56862    1.000
    H52      H        0.31553    0.12337    0.52307    1.000
    C280     C        0.28230    0.07114    0.61202    1.000
    C281     C        0.29954    0.03119    0.58989    1.000
    C282     C        0.25197    0.06211    0.67697    1.000
    H53      H        0.24173    0.03007    0.70567    1.000
    C283     C        0.23673    0.09937    0.70007    1.000
    C284     C        0.25154    0.14650    0.65857    1.000
    H54      H        0.24153    0.17247    0.67457    1.000
    O89      O        0.38547    0.30672    0.24444    1.000
    O90      O        0.37280    0.24190    0.32606    1.000
    O91      O        0.39784    0.06910    0.14125    1.000
    O92      O        0.40368    0.09411    0.25782    1.000
    O93      O        0.42956    0.24733    0.00665    1.000
    O94      O        0.29415    0.24408    0.58512    1.000
    O95      O        0.31840    0.21222    0.48674    1.000
    O96      O        0.31898    0.03371    0.52649    1.000
    O97      O        0.29235    0.99376    0.63753    1.000
    Mn17     Mn       0.35729    0.27746    0.41582    1.000
    Mn18     Mn       0.33368    0.33897    0.24570    1.000
    O98      O        0.19373    0.08067    0.75257    1.000
    C285     C        0.17313    0.12127    0.77337    1.000
    C286     C        0.12123    0.08247    0.82237    1.000
    C287     C        0.14933    0.07487    0.89867    1.000
    C288     C        0.14503    0.07067    0.99367    1.000
    C289     C        0.48523    0.27297    0.89717    1.000
    C290     C        0.20183    0.12277    0.80577    1.000
    C291     C        0.20543    0.12697    0.89747    1.000
    C292     C        0.22833    0.16537    0.93937    1.000
    C293     C        0.51613    0.25167    0.84187    1.000
    C294     C        0.14353    0.10827    0.00457    1.000
    C295     C        0.17173    0.13817    0.93197    1.000
    C296     C        0.17823    0.09947    0.88657    1.000
    C297     C        0.21613    0.14287    0.80717    1.000
    O99      O        0.21683    0.09117    0.77357    1.000
    C298     C        0.59697    0.54528    0.40430    1.000
    C299     C        0.56749    0.50253    0.46271    1.000
    C300     C        0.51908    0.45573    0.44429    1.000
    H55      H        0.50660    0.44950    0.39410    1.000
    C301     C        0.48876    0.41788    0.49929    1.000
    C302     C        0.43665    0.36856    0.47704    1.000
    C303     C        0.50749    0.42602    0.57277    1.000
    H56      H        0.48640    0.40040    0.61050    1.000
    C304     C        0.55751    0.47217    0.59030    1.000
    C305     C        0.58729    0.51078    0.53550    1.000
    H57      H        0.62100    0.54260    0.54780    1.000
    C306     C        0.55840    0.44070    0.71590    1.000
    C307     C        0.57220    0.39960    0.70250    1.000
    C308     C        0.54510    0.36080    0.77510    1.000
    C309     C        0.54910    0.30510    0.77190    1.000
    C310     C        0.54122    0.57518    0.11510    1.000
    C311     C        0.48837    0.54012    0.07404    1.000
    C312     C        0.45101    0.48810    0.09805    1.000
    H58      H        0.45670    0.47450    0.14360    1.000
    C313     C        0.40447    0.45550    0.05465    1.000
    C314     C        0.36452    0.39831    0.07678    1.000
    C315     C        0.39544    0.47680    0.98970    1.000
    H59      H        0.36340    0.45500    0.96100    1.000
    C316     C        0.43270    0.52930    0.96660    1.000
    C317     C        0.47983    0.56162    0.00810    1.000
    H60      H        0.50580    0.59760    0.99210    1.000
    O100     O        0.64005    0.58791    0.42223    1.000
    O101     O        0.57523    0.53576    0.34061    1.000
    O102     O        0.40243    0.33792    0.52542    1.000
    O103     O        0.42744    0.35709    0.40885    1.000
    O104     O        0.58066    0.48443    0.66002    1.000
    O105     O        0.57741    0.61659    0.08155    1.000
    O106     O        0.54555    0.56048    0.17993    1.000
    O107     O        0.36704    0.38139    0.14018    1.000
    O108     O        0.32709    0.36807    0.02914    1.000
    Mn19     Mn       0.61079    0.58683    0.25085    1.000
    Mn20     Mn       0.67230    0.67195    0.42097    1.000
    O109     O        0.41400    0.55360    0.91410    1.000
    C318     C        0.45460    0.61480    0.89330    1.000
    C319     C        0.41580    0.62790    0.84430    1.000
    C320     C        0.40820    0.59220    0.76800    1.000
    C321     C        0.40400    0.59230    0.67300    1.000
    C322     C        0.60630    0.45440    0.76950    1.000
    C323     C        0.45610    0.58760    0.86090    1.000
    C324     C        0.46030    0.58820    0.76920    1.000
    C325     C        0.49870    0.60370    0.72730    1.000
    C326     C        0.58500    0.40220    0.82480    1.000
    C327     C        0.44160    0.63140    0.66210    1.000
    C328     C        0.47150    0.63310    0.73470    1.000
    C329     C        0.43280    0.58790    0.78010    1.000
    C330     C        0.47620    0.59340    0.85950    1.000
    O110     O        0.42450    0.54100    0.89310    1.000
    C331     C        0.26364    0.87861    0.73763    1.000
    C332     C        0.23416    0.83586    0.79604    1.000
    C333     C        0.18575    0.78906    0.77762    1.000
    H61      H        0.17327    0.78283    0.72743    1.000
    C334     C        0.15543    0.75121    0.83262    1.000
    C335     C        0.10332    0.70189    0.81037    1.000
    C336     C        0.17416    0.75935    0.90610    1.000
    H62      H        0.15307    0.73373    0.94383    1.000
    C337     C        0.22418    0.80550    0.92363    1.000
    C338     C        0.25396    0.84411    0.86883    1.000
    H63      H        0.28767    0.87593    0.88113    1.000
    C339     C        0.22507    0.77403    0.04923    1.000
    C340     C        0.23887    0.73293    0.03583    1.000
    C341     C        0.21177    0.69413    0.10843    1.000
    C342     C        0.21577    0.63843    0.10523    1.000
    C343     C        0.20789    0.90851    0.44843    1.000
    C344     C        0.15504    0.87345    0.40737    1.000
    C345     C        0.11768    0.82143    0.43138    1.000
    H64      H        0.12337    0.80783    0.47693    1.000
    C346     C        0.07114    0.78883    0.38798    1.000
    C347     C        0.03119    0.73164    0.41011    1.000
    C348     C        0.06211    0.81013    0.32303    1.000
    H65      H        0.03007    0.78833    0.29433    1.000
    C349     C        0.09937    0.86263    0.29993    1.000
    C350     C        0.14650    0.89495    0.34143    1.000
    H66      H        0.17247    0.93093    0.32543    1.000
    O111     O        0.30672    0.92124    0.75556    1.000
    O112     O        0.24190    0.86909    0.67394    1.000
    O113     O        0.06910    0.67125    0.85875    1.000
    O114     O        0.09411    0.69042    0.74218    1.000
    O115     O        0.24733    0.81776    0.99335    1.000
    O116     O        0.24408    0.94992    0.41488    1.000
    O117     O        0.21222    0.89381    0.51326    1.000
    O118     O        0.03371    0.71472    0.47351    1.000
    O119     O        0.99376    0.70140    0.36247    1.000
    Mn21     Mn       0.27746    0.92016    0.58418    1.000
    Mn22     Mn       0.33897    0.00528    0.75430    1.000
    O120     O        0.08067    0.88693    0.24743    1.000
    C351     C        0.12127    0.94813    0.22663    1.000
    C352     C        0.08247    0.96123    0.17763    1.000
    C353     C        0.07487    0.92553    0.10133    1.000
    C354     C        0.07067    0.92563    0.00633    1.000
    C355     C        0.27297    0.78773    0.10283    1.000
    C356     C        0.12277    0.92093    0.19423    1.000
    C357     C        0.12697    0.92153    0.10253    1.000
    C358     C        0.16537    0.93703    0.06063    1.000
    C359     C        0.25167    0.73553    0.15813    1.000
    C360     C        0.10827    0.96473    0.99543    1.000
    C361     C        0.13817    0.96643    0.06803    1.000
    C362     C        0.09947    0.92123    0.11343    1.000
    C363     C        0.14287    0.92673    0.19283    1.000
    O121     O        0.09117    0.87433    0.22643    1.000
    C364     C        0.93030    0.21195    0.07097    1.000
    C365     C        0.90082    0.16920    0.12938    1.000
    C366     C        0.85241    0.12240    0.11096    1.000
    H67      H        0.83993    0.11617    0.06077    1.000
    C367     C        0.82209    0.08455    0.16596    1.000
    C368     C        0.76998    0.03523    0.14371    1.000
    C369     C        0.84082    0.09269    0.23944    1.000
    H68      H        0.81973    0.06707    0.27717    1.000
    C370     C        0.89084    0.13884    0.25697    1.000
    C371     C        0.92062    0.17745    0.20217    1.000
    H69      H        0.95433    0.20927    0.21447    1.000
    C372     C        0.89173    0.10737    0.38257    1.000
    C373     C        0.90553    0.06627    0.36917    1.000
    C374     C        0.87843    0.02747    0.44177    1.000
    C375     C        0.88243    0.97177    0.43857    1.000
    C376     C        0.87455    0.24185    0.78177    1.000
    C377     C        0.82170    0.20679    0.74071    1.000
    C378     C        0.78434    0.15477    0.76472    1.000
    H70      H        0.79003    0.14117    0.81027    1.000
    C379     C        0.73780    0.12217    0.72132    1.000
    C380     C        0.69785    0.06498    0.74345    1.000
    C381     C        0.72877    0.14347    0.65637    1.000
    H71      H        0.69673    0.12167    0.62767    1.000
    C382     C        0.76603    0.19597    0.63327    1.000
    C383     C        0.81316    0.22829    0.67477    1.000
    H72      H        0.83913    0.26427    0.65877    1.000
    O122     O        0.97338    0.25458    0.08890    1.000
    O123     O        0.90856    0.20243    0.00728    1.000
    O124     O        0.73576    0.00459    0.19209    1.000
    O125     O        0.76077    0.02376    0.07552    1.000
    O126     O        0.91399    0.15110    0.32669    1.000
    O127     O        0.91074    0.28326    0.74822    1.000
    O128     O        0.87888    0.22715    0.84660    1.000
    O129     O        0.70037    0.04806    0.80685    1.000
    O130     O        0.66042    0.03474    0.69581    1.000
    Mn23     Mn       0.94412    0.25350    0.91752    1.000
    Mn24     Mn       0.00563    0.33862    0.08764    1.000
    O131     O        0.74733    0.22027    0.58077    1.000
    C384     C        0.78793    0.28147    0.55997    1.000
    C385     C        0.74913    0.29457    0.51097    1.000
    C386     C        0.74153    0.25887    0.43467    1.000
    C387     C        0.73733    0.25897    0.33967    1.000
    C388     C        0.93963    0.12107    0.43617    1.000
    C389     C        0.78943    0.25427    0.52757    1.000
    C390     C        0.79363    0.25487    0.43587    1.000
    C391     C        0.83203    0.27037    0.39397    1.000
    C392     C        0.91833    0.06887    0.49147    1.000
    C393     C        0.77493    0.29807    0.32877    1.000
    C394     C        0.80483    0.29977    0.40137    1.000
    C395     C        0.76613    0.25457    0.44677    1.000
    C396     C        0.80953    0.26007    0.52617    1.000
    O132     O        0.75783    0.20767    0.55977    1.000
    C397     C        0.45472    0.05169    0.40430    1.000
    C398     C        0.49747    0.06496    0.46271    1.000
    C399     C        0.54427    0.06335    0.44429    1.000
    H73      H        0.55050    0.05710    0.39410    1.000
    C400     C        0.58212    0.07088    0.49929    1.000
    C401     C        0.63144    0.06809    0.47704    1.000
    C402     C        0.57398    0.08147    0.57277    1.000
    H74      H        0.59960    0.08600    0.61050    1.000
    C403     C        0.52783    0.08534    0.59030    1.000
    C404     C        0.48922    0.07651    0.53550    1.000
    H75      H        0.45740    0.07840    0.54780    1.000
    C405     C        0.55930    0.11770    0.71590    1.000
    C406     C        0.60040    0.17260    0.70250    1.000
    C407     C        0.63920    0.18430    0.77510    1.000
    C408     C        0.69490    0.24400    0.77190    1.000
    C409     C        0.42482    0.96604    0.11510    1.000
    C410     C        0.45988    0.94825    0.07404    1.000
    C411     C        0.51190    0.96291    0.09805    1.000
    H76      H        0.52550    0.98220    0.14360    1.000
    C412     C        0.54450    0.94897    0.05465    1.000
    C413     C        0.60169    0.96621    0.07678    1.000
    C414     C        0.52320    0.91864    0.98970    1.000
    H77      H        0.54500    0.90840    0.96100    1.000
    C415     C        0.47070    0.90340    0.96660    1.000
    C416     C        0.43838    0.91821    0.00810    1.000
    H78      H        0.40240    0.90820    0.99210    1.000
    O133     O        0.41209    0.05214    0.42223    1.000
    O134     O        0.46424    0.03947    0.34061    1.000
    O135     O        0.66208    0.06451    0.52542    1.000
    O136     O        0.64291    0.07035    0.40885    1.000
    O137     O        0.51557    0.09623    0.66002    1.000
    O138     O        0.38341    0.96082    0.08155    1.000
    O139     O        0.43952    0.98507    0.17993    1.000
    O140     O        0.61861    0.98565    0.14018    1.000
    O141     O        0.63193    0.95902    0.02914    1.000
    Mn25     Mn       0.41317    0.02396    0.25085    1.000
    Mn26     Mn       0.32805    0.00035    0.42097    1.000
    O142     O        0.44640    0.86040    0.91410    1.000
    C417     C        0.38520    0.83980    0.89330    1.000
    C418     C        0.37210    0.78790    0.84430    1.000
    C419     C        0.40780    0.81600    0.76800    1.000
    C420     C        0.40770    0.81170    0.67300    1.000
    C421     C        0.54560    0.15190    0.76950    1.000
    C422     C        0.41240    0.86850    0.86090    1.000
    C423     C        0.41180    0.87210    0.76920    1.000
    C424     C        0.39630    0.89500    0.72730    1.000
    C425     C        0.59780    0.18280    0.82480    1.000
    C426     C        0.36860    0.81020    0.66210    1.000
    C427     C        0.36690    0.83840    0.73470    1.000
    C428     C        0.41210    0.84490    0.78010    1.000
    C429     C        0.40660    0.88280    0.85950    1.000
    O143     O        0.45900    0.88350    0.89310    1.000
    C430     C        0.12139    0.38502    0.73763    1.000
    C431     C        0.16414    0.39829    0.79604    1.000
    C432     C        0.21094    0.39668    0.77762    1.000
    H79      H        0.21717    0.39043    0.72743    1.000
    C433     C        0.24879    0.40421    0.83262    1.000
    C434     C        0.29811    0.40142    0.81037    1.000
    C435     C        0.24065    0.41480    0.90610    1.000
    H80      H        0.26627    0.41933    0.94383    1.000
    C436     C        0.19450    0.41867    0.92363    1.000
    C437     C        0.15589    0.40984    0.86883    1.000
    H81      H        0.12407    0.41173    0.88113    1.000
    C438     C        0.22597    0.45103    0.04923    1.000
    C439     C        0.26707    0.50593    0.03583    1.000
    C440     C        0.30587    0.51763    0.10843    1.000
    C441     C        0.36157    0.57733    0.10523    1.000
    C442     C        0.09149    0.29937    0.44843    1.000
    C443     C        0.12655    0.28158    0.40737    1.000
    C444     C        0.17857    0.29624    0.43138    1.000
    H82      H        0.19217    0.31553    0.47693    1.000
    C445     C        0.21117    0.28230    0.38798    1.000
    C446     C        0.26836    0.29954    0.41011    1.000
    C447     C        0.18987    0.25197    0.32303    1.000
    H83      H        0.21167    0.24173    0.29433    1.000
    C448     C        0.13737    0.23673    0.29993    1.000
    C449     C        0.10505    0.25154    0.34143    1.000
    H84      H        0.06907    0.24153    0.32543    1.000
    O144     O        0.07876    0.38547    0.75556    1.000
    O145     O        0.13091    0.37280    0.67394    1.000
    O146     O        0.32875    0.39784    0.85875    1.000
    O147     O        0.30958    0.40368    0.74218    1.000
    O148     O        0.18224    0.42956    0.99335    1.000
    O149     O        0.05008    0.29415    0.41488    1.000
    O150     O        0.10619    0.31840    0.51326    1.000
    O151     O        0.28528    0.31898    0.47351    1.000
    O152     O        0.29860    0.29235    0.36247    1.000
    Mn27     Mn       0.07984    0.35729    0.58418    1.000
    Mn28     Mn       0.99472    0.33368    0.75430    1.000
    O153     O        0.11307    0.19373    0.24743    1.000
    C450     C        0.05187    0.17313    0.22663    1.000
    C451     C        0.03877    0.12123    0.17763    1.000
    C452     C        0.07447    0.14933    0.10133    1.000
    C453     C        0.07437    0.14503    0.00633    1.000
    C454     C        0.21227    0.48523    0.10283    1.000
    C455     C        0.07907    0.20183    0.19423    1.000
    C456     C        0.07847    0.20543    0.10253    1.000
    C457     C        0.06297    0.22833    0.06063    1.000
    C458     C        0.26447    0.51613    0.15813    1.000
    C459     C        0.03527    0.14353    0.99543    1.000
    C460     C        0.03357    0.17173    0.06803    1.000
    C461     C        0.07877    0.17823    0.11343    1.000
    C462     C        0.07327    0.21613    0.19283    1.000
    O154     O        0.12567    0.21683    0.22643    1.000
    C463     C        0.78805    0.71836    0.07097    1.000
    C464     C        0.83080    0.73163    0.12938    1.000
    C465     C        0.87760    0.73002    0.11096    1.000
    H85      H        0.88383    0.72377    0.06077    1.000
    C466     C        0.91545    0.73755    0.16596    1.000
    C467     C        0.96477    0.73476    0.14371    1.000
    C468     C        0.90731    0.74814    0.23944    1.000
    H86      H        0.93293    0.75267    0.27717    1.000
    C469     C        0.86116    0.75201    0.25697    1.000
    C470     C        0.82255    0.74318    0.20217    1.000
    H87      H        0.79073    0.74507    0.21447    1.000
    C471     C        0.89263    0.78437    0.38257    1.000
    C472     C        0.93373    0.83927    0.36917    1.000
    C473     C        0.97253    0.85097    0.44177    1.000
    C474     C        0.02823    0.91067    0.43857    1.000
    C475     C        0.75815    0.63271    0.78177    1.000
    C476     C        0.79321    0.61492    0.74071    1.000
    C477     C        0.84523    0.62958    0.76472    1.000
    H88      H        0.85883    0.64887    0.81027    1.000
    C478     C        0.87783    0.61564    0.72132    1.000
    C479     C        0.93502    0.63288    0.74345    1.000
    C480     C        0.85653    0.58531    0.65637    1.000
    H89      H        0.87833    0.57507    0.62767    1.000
    C481     C        0.80403    0.57007    0.63327    1.000
    C482     C        0.77171    0.58488    0.67477    1.000
    H90      H        0.73573    0.57487    0.65877    1.000
    O155     O        0.74542    0.71881    0.08890    1.000
    O156     O        0.79757    0.70614    0.00728    1.000
    O157     O        0.99541    0.73118    0.19209    1.000
    O158     O        0.97624    0.73702    0.07552    1.000
    O159     O        0.84890    0.76290    0.32669    1.000
    O160     O        0.71674    0.62749    0.74822    1.000
    O161     O        0.77285    0.65174    0.84660    1.000
    O162     O        0.95194    0.65232    0.80685    1.000
    O163     O        0.96526    0.62569    0.69581    1.000
    Mn29     Mn       0.74650    0.69063    0.91752    1.000
    Mn30     Mn       0.66138    0.66702    0.08764    1.000
    O164     O        0.77973    0.52707    0.58077    1.000
    C483     C        0.71853    0.50647    0.55997    1.000
    C484     C        0.70543    0.45457    0.51097    1.000
    C485     C        0.74113    0.48267    0.43467    1.000
    C486     C        0.74103    0.47837    0.33967    1.000
    C487     C        0.87893    0.81857    0.43617    1.000
    C488     C        0.74573    0.53517    0.52757    1.000
    C489     C        0.74513    0.53877    0.43587    1.000
    C490     C        0.72963    0.56167    0.39397    1.000
    C491     C        0.93113    0.84947    0.49147    1.000
    C492     C        0.70193    0.47687    0.32877    1.000
    C493     C        0.70023    0.50507    0.40137    1.000
    C494     C        0.74543    0.51157    0.44677    1.000
    C495     C        0.73993    0.54947    0.52617    1.000
    O165     O        0.79233    0.55017    0.55977    1.000
    C496     C        0.94831    0.40303    0.40430    1.000
    C497     C        0.93504    0.43251    0.46271    1.000
    C498     C        0.93665    0.48092    0.44429    1.000
    H91      H        0.94290    0.49340    0.39410    1.000
    C499     C        0.92912    0.51124    0.49929    1.000
    C500     C        0.93191    0.56335    0.47704    1.000
    C501     C        0.91853    0.49251    0.57277    1.000
    H92      H        0.91400    0.51360    0.61050    1.000
    C502     C        0.91466    0.44249    0.59030    1.000
    C503     C        0.92349    0.41271    0.53550    1.000
    H93      H        0.92160    0.37900    0.54780    1.000
    C504     C        0.88230    0.44160    0.71590    1.000
    C505     C        0.82740    0.42780    0.70250    1.000
    C506     C        0.81570    0.45490    0.77510    1.000
    C507     C        0.75600    0.45090    0.77190    1.000
    C508     C        0.03396    0.45878    0.11510    1.000
    C509     C        0.05175    0.51163    0.07404    1.000
    C510     C        0.03709    0.54899    0.09805    1.000
    H94      H        0.01780    0.54330    0.14360    1.000
    C511     C        0.05103    0.59553    0.05465    1.000
    C512     C        0.03379    0.63548    0.07678    1.000
    C513     C        0.08136    0.60456    0.98970    1.000
    H95      H        0.09160    0.63660    0.96100    1.000
    C514     C        0.09660    0.56730    0.96660    1.000
    C515     C        0.08179    0.52017    0.00810    1.000
    H96      H        0.09180    0.49420    0.99210    1.000
    O166     O        0.94786    0.35995    0.42223    1.000
    O167     O        0.96053    0.42477    0.34061    1.000
    O168     O        0.93549    0.59757    0.52542    1.000
    O169     O        0.92965    0.57256    0.40885    1.000
    O170     O        0.90377    0.41934    0.66002    1.000
    O171     O        0.03918    0.42259    0.08155    1.000
    O172     O        0.01493    0.45445    0.17993    1.000
    O173     O        0.01435    0.63296    0.14018    1.000
    O174     O        0.04098    0.67291    0.02914    1.000
    Mn31     Mn       0.97604    0.38921    0.25085    1.000
    Mn32     Mn       0.99965    0.32770    0.42097    1.000
    O175     O        0.13960    0.58600    0.91410    1.000
    C516     C        0.16020    0.54540    0.89330    1.000
    C517     C        0.21210    0.58420    0.84430    1.000
    C518     C        0.18400    0.59180    0.76800    1.000
    C519     C        0.18830    0.59600    0.67300    1.000
    C520     C        0.84810    0.39370    0.76950    1.000
    C521     C        0.13150    0.54390    0.86090    1.000
    C522     C        0.12790    0.53970    0.76920    1.000
    C523     C        0.10500    0.50130    0.72730    1.000
    C524     C        0.81720    0.41500    0.82480    1.000
    C525     C        0.18980    0.55840    0.66210    1.000
    C526     C        0.16160    0.52850    0.73470    1.000
    C527     C        0.15510    0.56720    0.78010    1.000
    C528     C        0.11720    0.52380    0.85950    1.000
    O176     O        0.11650    0.57550    0.89310    1.000
    C529     C        0.61498    0.73636    0.73763    1.000
    C530     C        0.60171    0.76584    0.79604    1.000
    C531     C        0.60332    0.81425    0.77762    1.000
    H97      H        0.60957    0.82673    0.72743    1.000
    C532     C        0.59579    0.84457    0.83262    1.000
    C533     C        0.59858    0.89668    0.81037    1.000
    C534     C        0.58520    0.82584    0.90610    1.000
    H98      H        0.58067    0.84693    0.94383    1.000
    C535     C        0.58133    0.77582    0.92363    1.000
    C536     C        0.59016    0.74604    0.86883    1.000
    H99      H        0.58827    0.71233    0.88113    1.000
    C537     C        0.54897    0.77493    0.04923    1.000
    C538     C        0.49407    0.76113    0.03583    1.000
    C539     C        0.48237    0.78823    0.10843    1.000
    C540     C        0.42267    0.78423    0.10523    1.000
    C541     C        0.70063    0.79211    0.44843    1.000
    C542     C        0.71842    0.84496    0.40737    1.000
    C543     C        0.70376    0.88232    0.43138    1.000
    H100     H        0.68447    0.87663    0.47693    1.000
    C544     C        0.71770    0.92886    0.38798    1.000
    C545     C        0.70046    0.96881    0.41011    1.000
    C546     C        0.74803    0.93789    0.32303    1.000
    H101     H        0.75827    0.96993    0.29433    1.000
    C547     C        0.76327    0.90063    0.29993    1.000
    C548     C        0.74846    0.85350    0.34143    1.000
    H102     H        0.75847    0.82753    0.32543    1.000
    O177     O        0.61453    0.69328    0.75556    1.000
    O178     O        0.62720    0.75810    0.67394    1.000
    O179     O        0.60216    0.93090    0.85875    1.000
    O180     O        0.59632    0.90589    0.74218    1.000
    O181     O        0.57044    0.75267    0.99335    1.000
    O182     O        0.70585    0.75592    0.41488    1.000
    O183     O        0.68160    0.78778    0.51326    1.000
    O184     O        0.68102    0.96629    0.47351    1.000
    O185     O        0.70765    0.00624    0.36247    1.000
    Mn33     Mn       0.64271    0.72254    0.58418    1.000
    Mn34     Mn       0.66632    0.66103    0.75430    1.000
    O186     O        0.80627    0.91933    0.24743    1.000
    C549     C        0.82687    0.87873    0.22663    1.000
    C550     C        0.87877    0.91753    0.17763    1.000
    C551     C        0.85067    0.92513    0.10133    1.000
    C552     C        0.85497    0.92933    0.00633    1.000
    C553     C        0.51477    0.72703    0.10283    1.000
    C554     C        0.79817    0.87723    0.19423    1.000
    C555     C        0.79457    0.87303    0.10253    1.000
    C556     C        0.77167    0.83463    0.06063    1.000
    C557     C        0.48387    0.74833    0.15813    1.000
    C558     C        0.85647    0.89173    0.99543    1.000
    C559     C        0.82827    0.86183    0.06803    1.000
    C560     C        0.82177    0.90053    0.11343    1.000
    C561     C        0.78387    0.85713    0.19283    1.000
    O187     O        0.78317    0.90883    0.22643    1.000
    C562     C        0.28164    0.06970    0.07097    1.000
    C563     C        0.26837    0.09918    0.12938    1.000
    C564     C        0.26998    0.14759    0.11096    1.000
    H103     H        0.27623    0.16007    0.06077    1.000
    C565     C        0.26245    0.17791    0.16596    1.000
    C566     C        0.26524    0.23002    0.14371    1.000
    C567     C        0.25186    0.15918    0.23944    1.000
    H104     H        0.24733    0.18027    0.27717    1.000
    C568     C        0.24799    0.10916    0.25697    1.000
    C569     C        0.25682    0.07938    0.20217    1.000
    H105     H        0.25493    0.04567    0.21447    1.000
    C570     C        0.21563    0.10827    0.38257    1.000
    C571     C        0.16073    0.09447    0.36917    1.000
    C572     C        0.14903    0.12157    0.44177    1.000
    C573     C        0.08933    0.11757    0.43857    1.000
    C574     C        0.36729    0.12545    0.78177    1.000
    C575     C        0.38508    0.17830    0.74071    1.000
    C576     C        0.37042    0.21566    0.76472    1.000
    H106     H        0.35113    0.20997    0.81027    1.000
    C577     C        0.38436    0.26220    0.72132    1.000
    C578     C        0.36712    0.30215    0.74345    1.000
    C579     C        0.41469    0.27123    0.65637    1.000
    H107     H        0.42493    0.30327    0.62767    1.000
    C580     C        0.42993    0.23397    0.63327    1.000
    C581     C        0.41512    0.18684    0.67477    1.000
    H108     H        0.42513    0.16087    0.65877    1.000
    O188     O        0.28119    0.02662    0.08890    1.000
    O189     O        0.29386    0.09144    0.00728    1.000
    O190     O        0.26882    0.26424    0.19209    1.000
    O191     O        0.26298    0.23923    0.07552    1.000
    O192     O        0.23710    0.08601    0.32669    1.000
    O193     O        0.37251    0.08926    0.74822    1.000
    O194     O        0.34826    0.12112    0.84660    1.000
    O195     O        0.34768    0.29963    0.80685    1.000
    O196     O        0.37431    0.33958    0.69581    1.000
    Mn35     Mn       0.30937    0.05588    0.91752    1.000
    Mn36     Mn       0.33298    0.99437    0.08764    1.000
    O197     O        0.47293    0.25267    0.58077    1.000
    C582     C        0.49353    0.21207    0.55997    1.000
    C583     C        0.54543    0.25087    0.51097    1.000
    C584     C        0.51733    0.25847    0.43467    1.000
    C585     C        0.52163    0.26267    0.33967    1.000
    C586     C        0.18143    0.06037    0.43617    1.000
    C587     C        0.46483    0.21057    0.52757    1.000
    C588     C        0.46123    0.20637    0.43587    1.000
    C589     C        0.43833    0.16797    0.39397    1.000
    C590     C        0.15053    0.08167    0.49147    1.000
    C591     C        0.52313    0.22507    0.32877    1.000
    C592     C        0.49493    0.19517    0.40137    1.000
    C593     C        0.48843    0.23387    0.44677    1.000
    C594     C        0.45053    0.19047    0.52617    1.000
    O198     O        0.44983    0.24217    0.55977    1.000
