data_functionalizedCrystal
_audit_creation_method	'EQeq! by Chris Wilmer'
_symmetry_space_group_name_H-M	'P1'
_symmetry_Int_Tables_number	1
_symmetry_cell_setting	triclinic
loop_
_symmetry_equiv_pos_as_xyz
  x,y,z
_cell_length_a	36.8116
_cell_length_b	14.6974
_cell_length_c	30.6993
_cell_angle_alpha	90
_cell_angle_beta	103.07
_cell_angle_gamma	90
loop_
_atom_site_label
_atom_site_type_symbol
_atom_site_fract_x
_atom_site_fract_y
_atom_site_fract_z
_atom_site_charge
Mof_I 	I 	0.35982	0.60724	0.4989	-0.368
Mof_Zn	Zn	0.38097	0.59965	0.42624	1.166
Mof_I 	I 	0.39957	0.73548	0.38478	-0.381
Mof_N 	N 	0.33845	0.5315	0.3824	-0.268
Mof_N 	N 	0.42483	0.5109	0.4339	-0.277
Mof_C 	C 	0.3164	0.5753	0.348	0.065
Mof_C 	C 	0.3313	0.4456	0.3902	0.068
Mof_H 	H 	0.3219	0.6366	0.3421	-0.004
Mof_C 	C 	0.2861	0.5342	0.3211	-0.119
Mof_C 	C 	0.3013	0.3984	0.3638	-0.115
Mof_H 	H 	0.3472	0.4149	0.4144	-0.002
Mof_H 	H 	0.2707	0.567	0.2972	0.089
Mof_C 	C 	0.27799	0.4438	0.3291	0.042
Mof_H 	H 	0.297	0.3364	0.3698	0.08
Mof_C 	C 	0.2451	0.3993	0.3004	0.089
Mof_N 	N 	0.22368	0.4513	0.269	-0.141
Mof_N 	N 	0.23838	0.3116	0.30848	-0.14
Mof_C 	C 	0.1925	0.4119	0.2463	0.103
Mof_C 	C 	0.2076	0.2782	0.2813	0.104
Mof_C 	C 	0.1666	0.4664	0.2124	0.053
Mof_N 	N 	0.18327	0.3257	0.2512	-0.138
Mof_C 	C 	0.19891	0.1796	0.2839	0.054
Mof_C 	C 	0.1753	0.5535	0.2003	-0.126
Mof_C 	C 	0.1321	0.4295	0.1924	-0.115
Mof_C 	C 	0.2235	0.1191	0.3104	-0.122
Mof_C 	C 	0.1666	0.1448	0.2568	-0.118
Mof_C 	C 	0.1499	0.5994	0.1673	0.071
Mof_H 	H 	0.1982	0.5812	0.2144	0.077
Mof_H 	H 	0.1252	0.3707	0.2004	0.09
Mof_C 	C 	0.1083	0.4806	0.1605	0.065
Mof_C 	C 	0.2142	0.0276	0.308	0.073
Mof_H 	H 	0.2459	0.1399	0.3295	0.078
Mof_H 	H 	0.1494	0.1845	0.2383	0.083
Mof_C 	C 	0.1593	0.0536	0.2566	0.06
Mof_N 	N 	0.11742	0.5635	0.1476	-0.271
Mof_H 	H 	0.1561	0.6584	0.1585	-0.015
Mof_H 	H 	0.0844	0.4564	0.1471	-0.009
Mof_N 	N 	0.18323	0.9946	0.2818	-0.273
Mof_H 	H 	0.2309	0.9862	0.3262	-0.013
Mof_H 	H 	0.1368	0.0312	0.2382	-0.015
Mof_Zn	Zn	0.07746	0.62677	0.09806	1.158
Mof_Zn	Zn	0.16959	0.8571	0.27594	1.157
Mof_I 	I 	0.0206	0.659	0.1289	-0.16
Mof_I 	I 	0.1074	0.746	0.0585	-0.166
Mof_N 	N 	0.06742	0.515	0.0546	-0.269
Mof_N 	N 	0.13991	0.8421	0.3247	-0.281
Mof_I 	I 	0.12079	0.83501	0.20039	-0.348
Mof_I 	I 	0.22729	0.7586	0.29347	-0.105
Mof_C 	C 	0.1117	0.8967	0.3259	0.083
Mof_C 	C 	0.147	0.7757	0.3556	0.072
Mof_C 	C 	0.0876	0.8842	0.3541	-0.127
Mof_H 	H 	0.1076	0.9475	0.3063	-0.022
Mof_H 	H 	0.1684	0.7385	0.357	-0.014
Mof_C 	C 	0.1249	0.7592	0.3852	-0.121
Mof_H 	H 	0.067	0.9238	0.3527	0.086
Mof_C 	C 	0.0941	0.8134	0.384	0.07
Mof_H 	H 	0.1307	0.711	0.4062	0.086
Mof_C 	C 	0.0687	0.797	0.4145	0.106
Mof_N 	N 	0.0751	0.7245	0.4415	-0.134
Mof_N 	N 	0.04095	0.8568	0.413	-0.135
Mof_C 	C 	0.0531	0.7169	0.4698	0.092
Mof_C 	C 	0.01994	0.8414	0.4419	0.094
Mof_C 	C 	0.058	0.6364	0.4998	0.046
Mof_N 	N 	0.02541	0.7751	0.4727	-0.148
Mof_C 	C 	0.98729	0.9003	0.44	0.048
Mof_C 	C 	0.0308	0.612	0.5224	-0.114
Mof_C 	C 	0.0902	0.5843	0.5056	-0.115
Mof_C 	C 	0.9711	0.9118	0.476	-0.125
Mof_C 	C 	0.9711	0.9444	0.4005	-0.122
Mof_H 	H 	0.0087	0.647	0.5193	0.068
Mof_C 	C 	0.0366	0.536	0.5494	0.066
Mof_C 	C 	0.0935	0.5086	0.533	0.068
Mof_H 	H 	0.1096	0.6003	0.491	0.078
Mof_H 	H 	0.9808	0.8813	0.5034	0.079
Mof_C 	C 	0.9403	0.9686	0.4715	0.079
Mof_H 	H 	0.9811	0.9379	0.3747	0.084
Mof_C 	C 	0.94	0.9979	0.3992	0.074
Mof_H 	H 	0.0181	0.5192	0.565	-0.01
Mof_H 	H 	0.1152	0.472	0.5365	-0.016
Mof_H 	H 	0.9298	0.9775	0.4967	-0.007
Mof_H 	H 	0.9289	0.0271	0.3718	-0.016
Mof_I 	I 	0.02058	0.6445	0.13063	-0.16
Mof_I 	I 	0.10972	0.7411	0.05806	-0.172
Mof_I 	I 	0.6291	0.3396	0.2089	-0.047
Mof_I 	I 	0.7338	0.2686	0.3035	-0.228
Mof_I 	I 	0.85982	0.10724	0.4989	-0.369
Mof_Zn	Zn	0.88097	0.09965	0.42624	1.165
Mof_I 	I 	0.89957	0.23548	0.38478	-0.382
Mof_N 	N 	0.83845	0.0315	0.3824	-0.269
Mof_N 	N 	0.92483	0.0109	0.4339	-0.278
Mof_C 	C 	0.8164	0.0753	0.348	0.064
Mof_C 	C 	0.8313	0.9456	0.3902	0.067
Mof_H 	H 	0.8219	0.1366	0.3421	-0.005
Mof_C 	C 	0.7861	0.0342	0.3211	-0.12
Mof_C 	C 	0.8013	0.8984	0.3638	-0.116
Mof_H 	H 	0.8472	0.9149	0.4144	-0.003
Mof_H 	H 	0.7707	0.067	0.2972	0.088
Mof_C 	C 	0.77799	0.9438	0.3291	0.041
Mof_H 	H 	0.797	0.8364	0.3698	0.079
Mof_C 	C 	0.7451	0.8993	0.3004	0.089
Mof_N 	N 	0.72368	0.9513	0.269	-0.141
Mof_N 	N 	0.73838	0.8116	0.30848	-0.14
Mof_C 	C 	0.6925	0.9119	0.2463	0.103
Mof_C 	C 	0.7076	0.7782	0.2813	0.104
Mof_C 	C 	0.6666	0.9664	0.2124	0.053
Mof_N 	N 	0.68327	0.8257	0.2512	-0.138
Mof_C 	C 	0.69891	0.6796	0.2839	0.054
Mof_C 	C 	0.6753	0.0535	0.2003	-0.126
Mof_C 	C 	0.6321	0.9295	0.1924	-0.115
Mof_C 	C 	0.7235	0.6191	0.3104	-0.122
Mof_C 	C 	0.6666	0.6448	0.2568	-0.118
Mof_C 	C 	0.6499	0.0994	0.1673	0.071
Mof_H 	H 	0.6982	0.0812	0.2144	0.077
Mof_H 	H 	0.6252	0.8707	0.2004	0.09
Mof_C 	C 	0.6083	0.9806	0.1605	0.065
Mof_C 	C 	0.7142	0.5276	0.308	0.073
Mof_H 	H 	0.7459	0.6399	0.3295	0.078
Mof_H 	H 	0.6494	0.6845	0.2383	0.083
Mof_C 	C 	0.6593	0.5536	0.2566	0.06
Mof_N 	N 	0.61742	0.0635	0.1476	-0.271
Mof_H 	H 	0.6561	0.1584	0.1585	-0.015
Mof_H 	H 	0.5844	0.9564	0.1471	-0.009
Mof_N 	N 	0.68323	0.4946	0.2818	-0.273
Mof_H 	H 	0.7309	0.4862	0.3262	-0.013
Mof_H 	H 	0.6368	0.5312	0.2382	-0.015
Mof_Zn	Zn	0.57746	0.12677	0.09806	1.158
Mof_Zn	Zn	0.66959	0.3571	0.27594	1.157
Mof_I 	I 	0.5206	0.159	0.1289	-0.16
Mof_I 	I 	0.6074	0.246	0.0585	-0.166
Mof_N 	N 	0.56742	0.015	0.0546	-0.269
Mof_N 	N 	0.63991	0.3421	0.3247	-0.281
Mof_I 	I 	0.62079	0.33501	0.20039	-0.348
Mof_I 	I 	0.72729	0.2586	0.29347	-0.105
Mof_C 	C 	0.6117	0.3967	0.3259	0.083
Mof_C 	C 	0.647	0.2757	0.3556	0.072
Mof_C 	C 	0.5876	0.3842	0.3541	-0.127
Mof_H 	H 	0.6076	0.4475	0.3063	-0.022
Mof_H 	H 	0.6684	0.2385	0.357	-0.014
Mof_C 	C 	0.6249	0.2592	0.3852	-0.121
Mof_H 	H 	0.567	0.4238	0.3527	0.086
Mof_C 	C 	0.5941	0.3134	0.384	0.07
Mof_H 	H 	0.6307	0.211	0.4062	0.086
Mof_C 	C 	0.5687	0.297	0.4145	0.106
Mof_N 	N 	0.5751	0.2245	0.4415	-0.134
Mof_N 	N 	0.54095	0.3568	0.413	-0.135
Mof_C 	C 	0.5531	0.2169	0.4698	0.092
Mof_C 	C 	0.51994	0.3414	0.4419	0.094
Mof_C 	C 	0.558	0.1364	0.4998	0.046
Mof_N 	N 	0.52541	0.2751	0.4727	-0.148
Mof_C 	C 	0.48729	0.4003	0.44	0.048
Mof_C 	C 	0.5308	0.112	0.5224	-0.114
Mof_C 	C 	0.5902	0.0843	0.5056	-0.115
Mof_C 	C 	0.4711	0.4118	0.476	-0.125
Mof_C 	C 	0.4711	0.4444	0.4005	-0.122
Mof_H 	H 	0.5087	0.147	0.5193	0.068
Mof_C 	C 	0.5366	0.036	0.5494	0.066
Mof_C 	C 	0.5935	0.0086	0.533	0.068
Mof_H 	H 	0.6096	0.1003	0.491	0.078
Mof_H 	H 	0.4808	0.3813	0.5034	0.079
Mof_C 	C 	0.4403	0.4686	0.4715	0.079
Mof_H 	H 	0.4811	0.4379	0.3747	0.084
Mof_C 	C 	0.44	0.4979	0.3992	0.074
Mof_H 	H 	0.5181	0.0192	0.565	-0.01
Mof_H 	H 	0.6152	0.972	0.5365	-0.016
Mof_H 	H 	0.4298	0.4775	0.4967	-0.007
Mof_H 	H 	0.4289	0.5271	0.3718	-0.016
Mof_I 	I 	0.52058	0.1445	0.13063	-0.16
Mof_I 	I 	0.60972	0.2411	0.05806	-0.172
Mof_I 	I 	0.1291	0.8396	0.2089	-0.047
Mof_I 	I 	0.2338	0.7686	0.3035	-0.228
Mof_I 	I 	0.35982	0.39276	0.9989	-0.369
Mof_Zn	Zn	0.38097	0.40035	0.92624	1.165
Mof_I 	I 	0.39957	0.26452	0.88478	-0.382
Mof_N 	N 	0.33845	0.4685	0.8824	-0.269
Mof_N 	N 	0.42483	0.4891	0.9339	-0.278
Mof_C 	C 	0.3164	0.4247	0.848	0.064
Mof_C 	C 	0.3313	0.5544	0.8902	0.067
Mof_H 	H 	0.3219	0.3634	0.8421	-0.005
Mof_C 	C 	0.2861	0.4658	0.8211	-0.12
Mof_C 	C 	0.3013	0.6016	0.8638	-0.116
Mof_H 	H 	0.3472	0.5851	0.9144	-0.003
Mof_H 	H 	0.2707	0.433	0.7972	0.088
Mof_C 	C 	0.27799	0.5562	0.8291	0.041
Mof_H 	H 	0.297	0.6636	0.8698	0.079
Mof_C 	C 	0.2451	0.6007	0.8004	0.089
Mof_N 	N 	0.22368	0.5487	0.769	-0.141
Mof_N 	N 	0.23838	0.6884	0.80848	-0.14
Mof_C 	C 	0.1925	0.5881	0.7463	0.103
Mof_C 	C 	0.2076	0.7218	0.7813	0.104
Mof_C 	C 	0.1666	0.5336	0.7124	0.053
Mof_N 	N 	0.18327	0.6743	0.7512	-0.138
Mof_C 	C 	0.19891	0.8204	0.7839	0.054
Mof_C 	C 	0.1753	0.4465	0.7003	-0.126
Mof_C 	C 	0.1321	0.5705	0.6924	-0.115
Mof_C 	C 	0.2235	0.8809	0.8104	-0.122
Mof_C 	C 	0.1666	0.8552	0.7568	-0.118
Mof_C 	C 	0.1499	0.4006	0.6673	0.071
Mof_H 	H 	0.1982	0.4188	0.7144	0.077
Mof_H 	H 	0.1252	0.6293	0.7004	0.09
Mof_C 	C 	0.1083	0.5194	0.6605	0.065
Mof_C 	C 	0.2142	0.9724	0.808	0.073
Mof_H 	H 	0.2459	0.8601	0.8295	0.078
Mof_H 	H 	0.1494	0.8155	0.7383	0.083
Mof_C 	C 	0.1593	0.9464	0.7566	0.06
Mof_N 	N 	0.11742	0.4365	0.6476	-0.271
Mof_H 	H 	0.1561	0.3416	0.6585	-0.015
Mof_H 	H 	0.0844	0.5436	0.6471	-0.009
Mof_N 	N 	0.18323	0.0054	0.7818	-0.273
Mof_H 	H 	0.2309	0.0138	0.8262	-0.013
Mof_H 	H 	0.1368	0.9688	0.7382	-0.015
Mof_Zn	Zn	0.07746	0.37323	0.59806	1.158
Mof_Zn	Zn	0.16959	0.1429	0.77594	1.157
Mof_I 	I 	0.0206	0.341	0.6289	-0.16
Mof_I 	I 	0.1074	0.254	0.5585	-0.166
Mof_N 	N 	0.06742	0.485	0.5546	-0.269
Mof_N 	N 	0.13991	0.1579	0.8247	-0.281
Mof_I 	I 	0.12079	0.16499	0.70039	-0.348
Mof_I 	I 	0.22729	0.2414	0.79347	-0.105
Mof_C 	C 	0.1117	0.1033	0.8259	0.083
Mof_C 	C 	0.147	0.2243	0.8556	0.072
Mof_C 	C 	0.0876	0.1158	0.8541	-0.127
Mof_H 	H 	0.1076	0.0525	0.8063	-0.022
Mof_H 	H 	0.1684	0.2615	0.857	-0.014
Mof_C 	C 	0.1249	0.2408	0.8852	-0.121
Mof_H 	H 	0.067	0.0762	0.8527	0.086
Mof_C 	C 	0.0941	0.1866	0.884	0.07
Mof_H 	H 	0.1307	0.289	0.9062	0.086
Mof_C 	C 	0.0687	0.203	0.9145	0.106
Mof_N 	N 	0.0751	0.2755	0.9415	-0.134
Mof_N 	N 	0.04095	0.1432	0.913	-0.135
Mof_C 	C 	0.0531	0.2831	0.9698	0.092
Mof_C 	C 	0.01994	0.1586	0.9419	0.094
Mof_C 	C 	0.058	0.3636	0.9998	0.045
Mof_N 	N 	0.02541	0.2249	0.9727	-0.148
Mof_C 	C 	0.98729	0.0997	0.94	0.048
Mof_C 	C 	0.0308	0.388	0.0224	-0.114
Mof_C 	C 	0.0902	0.4157	0.0056	-0.114
Mof_C 	C 	0.9711	0.0882	0.976	-0.124
Mof_C 	C 	0.9711	0.0556	0.9005	-0.122
Mof_H 	H 	0.0087	0.353	0.0193	0.068
Mof_C 	C 	0.0366	0.464	0.0494	0.066
Mof_C 	C 	0.0935	0.4914	0.033	0.068
Mof_H 	H 	0.1096	0.3997	0.991	0.078
Mof_H 	H 	0.9808	0.1187	0.0034	0.079
Mof_C 	C 	0.9403	0.0314	0.9715	0.079
Mof_H 	H 	0.9811	0.0621	0.8747	0.084
Mof_C 	C 	0.94	0.0021	0.8992	0.074
Mof_H 	H 	0.0181	0.4808	0.065	-0.01
Mof_H 	H 	0.1152	0.528	0.0365	-0.016
Mof_H 	H 	0.9298	0.0225	0.9967	-0.007
Mof_H 	H 	0.9289	0.9729	0.8718	-0.016
Mof_I 	I 	0.02058	0.3555	0.63063	-0.16
Mof_I 	I 	0.10972	0.2589	0.55806	-0.172
Mof_I 	I 	0.6291	0.6604	0.7089	-0.047
Mof_I 	I 	0.7338	0.7314	0.8035	-0.228
Mof_I 	I 	0.85982	0.89276	0.9989	-0.369
Mof_Zn	Zn	0.88097	0.90035	0.92624	1.165
Mof_I 	I 	0.89957	0.76452	0.88478	-0.382
Mof_N 	N 	0.83845	0.9685	0.8824	-0.269
Mof_N 	N 	0.92483	0.9891	0.9339	-0.278
Mof_C 	C 	0.8164	0.9247	0.848	0.064
Mof_C 	C 	0.8313	0.0544	0.8902	0.067
Mof_H 	H 	0.8219	0.8634	0.8421	-0.005
Mof_C 	C 	0.7861	0.9658	0.8211	-0.12
Mof_C 	C 	0.8013	0.1016	0.8638	-0.116
Mof_H 	H 	0.8472	0.0851	0.9144	-0.003
Mof_H 	H 	0.7707	0.933	0.7972	0.088
Mof_C 	C 	0.77799	0.0562	0.8291	0.041
Mof_H 	H 	0.797	0.1636	0.8698	0.079
Mof_C 	C 	0.7451	0.1007	0.8004	0.089
Mof_N 	N 	0.72368	0.0487	0.769	-0.141
Mof_N 	N 	0.73838	0.1884	0.80848	-0.14
Mof_C 	C 	0.6925	0.0881	0.7463	0.103
Mof_C 	C 	0.7076	0.2218	0.7813	0.104
Mof_C 	C 	0.6666	0.0336	0.7124	0.053
Mof_N 	N 	0.68327	0.1743	0.7512	-0.138
Mof_C 	C 	0.69891	0.3204	0.7839	0.054
Mof_C 	C 	0.6753	0.9465	0.7003	-0.126
Mof_C 	C 	0.6321	0.0705	0.6924	-0.115
Mof_C 	C 	0.7235	0.3809	0.8104	-0.122
Mof_C 	C 	0.6666	0.3552	0.7568	-0.118
Mof_C 	C 	0.6499	0.9006	0.6673	0.071
Mof_H 	H 	0.6982	0.9188	0.7144	0.077
Mof_H 	H 	0.6252	0.1293	0.7004	0.09
Mof_C 	C 	0.6083	0.0194	0.6605	0.065
Mof_C 	C 	0.7142	0.4724	0.808	0.073
Mof_H 	H 	0.7459	0.3601	0.8295	0.078
Mof_H 	H 	0.6494	0.3155	0.7383	0.083
Mof_C 	C 	0.6593	0.4464	0.7566	0.06
Mof_N 	N 	0.61742	0.9365	0.6476	-0.271
Mof_H 	H 	0.6561	0.8416	0.6585	-0.015
Mof_H 	H 	0.5844	0.0436	0.6471	-0.009
Mof_N 	N 	0.68323	0.5054	0.7818	-0.273
Mof_H 	H 	0.7309	0.5138	0.8262	-0.013
Mof_H 	H 	0.6368	0.4688	0.7382	-0.015
Mof_Zn	Zn	0.57746	0.87323	0.59806	1.158
Mof_Zn	Zn	0.66959	0.6429	0.77594	1.157
Mof_I 	I 	0.5206	0.841	0.6289	-0.16
Mof_I 	I 	0.6074	0.754	0.5585	-0.166
Mof_N 	N 	0.56742	0.985	0.5546	-0.269
Mof_N 	N 	0.63991	0.6579	0.8247	-0.281
Mof_I 	I 	0.62079	0.66499	0.70039	-0.348
Mof_I 	I 	0.72729	0.7414	0.79347	-0.105
Mof_C 	C 	0.6117	0.6033	0.8259	0.083
Mof_C 	C 	0.647	0.7243	0.8556	0.072
Mof_C 	C 	0.5876	0.6158	0.8541	-0.127
Mof_H 	H 	0.6076	0.5525	0.8063	-0.022
Mof_H 	H 	0.6684	0.7615	0.857	-0.014
Mof_C 	C 	0.6249	0.7408	0.8852	-0.121
Mof_H 	H 	0.567	0.5762	0.8527	0.086
Mof_C 	C 	0.5941	0.6866	0.884	0.07
Mof_H 	H 	0.6307	0.789	0.9062	0.086
Mof_C 	C 	0.5687	0.703	0.9145	0.106
Mof_N 	N 	0.5751	0.7755	0.9415	-0.134
Mof_N 	N 	0.54095	0.6432	0.913	-0.135
Mof_C 	C 	0.5531	0.7831	0.9698	0.092
Mof_C 	C 	0.51994	0.6586	0.9419	0.094
Mof_C 	C 	0.558	0.8636	0.9998	0.046
Mof_N 	N 	0.52541	0.7249	0.9727	-0.148
Mof_C 	C 	0.48729	0.5997	0.94	0.048
Mof_C 	C 	0.5308	0.888	0.0224	-0.114
Mof_C 	C 	0.5902	0.9157	0.0056	-0.115
Mof_C 	C 	0.4711	0.5882	0.976	-0.125
Mof_C 	C 	0.4711	0.5556	0.9005	-0.122
Mof_H 	H 	0.5087	0.853	0.0193	0.068
Mof_C 	C 	0.5366	0.964	0.0494	0.066
Mof_C 	C 	0.5935	0.9914	0.033	0.068
Mof_H 	H 	0.6096	0.8997	0.991	0.078
Mof_H 	H 	0.4808	0.6187	0.0034	0.079
Mof_C 	C 	0.4403	0.5314	0.9715	0.079
Mof_H 	H 	0.4811	0.5621	0.8747	0.084
Mof_C 	C 	0.44	0.5021	0.8992	0.074
Mof_H 	H 	0.5181	0.9808	0.065	-0.01
Mof_H 	H 	0.6152	0.028	0.0365	-0.016
Mof_H 	H 	0.4298	0.5225	0.9967	-0.007
Mof_H 	H 	0.4289	0.4729	0.8718	-0.016
Mof_I 	I 	0.52058	0.8555	0.63063	-0.16
Mof_I 	I 	0.60972	0.7589	0.55806	-0.172
Mof_I 	I 	0.1291	0.1604	0.7089	-0.047
Mof_I 	I 	0.2338	0.2314	0.8035	-0.228
Mof_I 	I 	0.64018	0.60724	0.0011	-0.369
Mof_Zn	Zn	0.61903	0.59965	0.07376	1.165
Mof_I 	I 	0.60043	0.73548	0.11522	-0.382
Mof_N 	N 	0.66155	0.5315	0.1176	-0.269
Mof_N 	N 	0.57517	0.5109	0.0661	-0.278
Mof_C 	C 	0.6836	0.5753	0.152	0.064
Mof_C 	C 	0.6687	0.4456	0.1098	0.067
Mof_H 	H 	0.6781	0.6366	0.1579	-0.005
Mof_C 	C 	0.7139	0.5342	0.1789	-0.12
Mof_C 	C 	0.6987	0.3984	0.1362	-0.116
Mof_H 	H 	0.6528	0.4149	0.0856	-0.003
Mof_H 	H 	0.7293	0.567	0.2028	0.088
Mof_C 	C 	0.72201	0.4438	0.1709	0.041
Mof_H 	H 	0.703	0.3364	0.1302	0.079
Mof_C 	C 	0.7549	0.3993	0.1996	0.089
Mof_N 	N 	0.77632	0.4513	0.231	-0.141
Mof_N 	N 	0.76162	0.3116	0.19152	-0.14
Mof_C 	C 	0.8075	0.4119	0.2537	0.103
Mof_C 	C 	0.7924	0.2782	0.2187	0.104
Mof_C 	C 	0.8334	0.4664	0.2876	0.053
Mof_N 	N 	0.81673	0.3257	0.2488	-0.138
Mof_C 	C 	0.80109	0.1796	0.2161	0.054
Mof_C 	C 	0.8247	0.5535	0.2997	-0.126
Mof_C 	C 	0.8679	0.4295	0.3076	-0.115
Mof_C 	C 	0.7765	0.1191	0.1896	-0.122
Mof_C 	C 	0.8334	0.1448	0.2432	-0.118
Mof_C 	C 	0.8501	0.5994	0.3327	0.071
Mof_H 	H 	0.8018	0.5812	0.2856	0.077
Mof_H 	H 	0.8748	0.3707	0.2996	0.09
Mof_C 	C 	0.8917	0.4806	0.3395	0.065
Mof_C 	C 	0.7858	0.0276	0.192	0.073
Mof_H 	H 	0.7541	0.1399	0.1705	0.078
Mof_H 	H 	0.8506	0.1845	0.2617	0.083
Mof_C 	C 	0.8407	0.0536	0.2434	0.06
Mof_N 	N 	0.88258	0.5635	0.3524	-0.271
Mof_H 	H 	0.8439	0.6584	0.3415	-0.015
Mof_H 	H 	0.9156	0.4564	0.3529	-0.009
Mof_N 	N 	0.81677	0.9946	0.2182	-0.273
Mof_H 	H 	0.7691	0.9862	0.1738	-0.013
Mof_H 	H 	0.8632	0.0312	0.2618	-0.015
Mof_Zn	Zn	0.92254	0.62677	0.40194	1.158
Mof_Zn	Zn	0.83041	0.8571	0.22406	1.157
Mof_I 	I 	0.9794	0.659	0.3711	-0.16
Mof_I 	I 	0.8926	0.746	0.4415	-0.166
Mof_N 	N 	0.93258	0.515	0.4454	-0.269
Mof_N 	N 	0.86009	0.8421	0.1753	-0.281
Mof_I 	I 	0.87921	0.83501	0.29961	-0.348
Mof_I 	I 	0.77271	0.7586	0.20653	-0.105
Mof_C 	C 	0.8883	0.8967	0.1741	0.083
Mof_C 	C 	0.853	0.7757	0.1444	0.072
Mof_C 	C 	0.9124	0.8842	0.1459	-0.127
Mof_H 	H 	0.8924	0.9475	0.1937	-0.022
Mof_H 	H 	0.8316	0.7385	0.143	-0.014
Mof_C 	C 	0.8751	0.7592	0.1148	-0.121
Mof_H 	H 	0.933	0.9238	0.1473	0.086
Mof_C 	C 	0.9059	0.8134	0.116	0.07
Mof_H 	H 	0.8693	0.711	0.0938	0.086
Mof_C 	C 	0.9313	0.797	0.0855	0.106
Mof_N 	N 	0.9249	0.7245	0.0585	-0.134
Mof_N 	N 	0.95905	0.8568	0.087	-0.135
Mof_C 	C 	0.9469	0.7169	0.0302	0.092
Mof_C 	C 	0.98006	0.8414	0.0581	0.094
Mof_C 	C 	0.942	0.6364	0.0002	0.045
Mof_N 	N 	0.97459	0.7751	0.0273	-0.148
Mof_C 	C 	0.01271	0.9003	0.06	0.048
Mof_C 	C 	0.9692	0.612	0.9776	-0.114
Mof_C 	C 	0.9098	0.5843	0.9944	-0.114
Mof_C 	C 	0.0289	0.9118	0.024	-0.124
Mof_C 	C 	0.0289	0.9444	0.0995	-0.122
Mof_H 	H 	0.9913	0.647	0.9807	0.068
Mof_C 	C 	0.9634	0.536	0.9506	0.066
Mof_C 	C 	0.9065	0.5086	0.967	0.068
Mof_H 	H 	0.8904	0.6003	0.009	0.078
Mof_H 	H 	0.0192	0.8813	0.9966	0.079
Mof_C 	C 	0.0597	0.9686	0.0285	0.079
Mof_H 	H 	0.0189	0.9379	0.1253	0.084
Mof_C 	C 	0.06	0.9979	0.1008	0.074
Mof_H 	H 	0.9819	0.5192	0.935	-0.01
Mof_H 	H 	0.8848	0.472	0.9635	-0.016
Mof_H 	H 	0.0702	0.9775	0.0033	-0.007
Mof_H 	H 	0.0711	0.0271	0.1282	-0.016
Mof_I 	I 	0.97942	0.6445	0.36937	-0.16
Mof_I 	I 	0.89028	0.7411	0.44194	-0.172
Mof_I 	I 	0.3709	0.3396	0.2911	-0.047
Mof_I 	I 	0.2662	0.2686	0.1965	-0.228
Mof_I 	I 	0.14018	0.10724	0.0011	-0.369
Mof_Zn	Zn	0.11903	0.09965	0.07376	1.165
Mof_I 	I 	0.10043	0.23548	0.11522	-0.382
Mof_N 	N 	0.16155	0.0315	0.1176	-0.269
Mof_N 	N 	0.07517	0.0109	0.0661	-0.278
Mof_C 	C 	0.1836	0.0753	0.152	0.064
Mof_C 	C 	0.1687	0.9456	0.1098	0.067
Mof_H 	H 	0.1781	0.1366	0.1579	-0.005
Mof_C 	C 	0.2139	0.0342	0.1789	-0.12
Mof_C 	C 	0.1987	0.8984	0.1362	-0.116
Mof_H 	H 	0.1528	0.9149	0.0856	-0.003
Mof_H 	H 	0.2293	0.067	0.2028	0.088
Mof_C 	C 	0.22201	0.9438	0.1709	0.041
Mof_H 	H 	0.203	0.8364	0.1302	0.079
Mof_C 	C 	0.2549	0.8993	0.1996	0.089
Mof_N 	N 	0.27632	0.9513	0.231	-0.141
Mof_N 	N 	0.26162	0.8116	0.19152	-0.14
Mof_C 	C 	0.3075	0.9119	0.2537	0.103
Mof_C 	C 	0.2924	0.7782	0.2187	0.104
Mof_C 	C 	0.3334	0.9664	0.2876	0.053
Mof_N 	N 	0.31673	0.8257	0.2488	-0.138
Mof_C 	C 	0.30109	0.6796	0.2161	0.054
Mof_C 	C 	0.3247	0.0535	0.2997	-0.126
Mof_C 	C 	0.3679	0.9295	0.3076	-0.115
Mof_C 	C 	0.2765	0.6191	0.1896	-0.122
Mof_C 	C 	0.3334	0.6448	0.2432	-0.118
Mof_C 	C 	0.3501	0.0994	0.3327	0.071
Mof_H 	H 	0.3018	0.0812	0.2856	0.077
Mof_H 	H 	0.3748	0.8707	0.2996	0.09
Mof_C 	C 	0.3917	0.9806	0.3395	0.065
Mof_C 	C 	0.2858	0.5276	0.192	0.073
Mof_H 	H 	0.2541	0.6399	0.1705	0.078
Mof_H 	H 	0.3506	0.6845	0.2617	0.083
Mof_C 	C 	0.3407	0.5536	0.2434	0.06
Mof_N 	N 	0.38258	0.0635	0.3524	-0.271
Mof_H 	H 	0.3439	0.1584	0.3415	-0.015
Mof_H 	H 	0.4156	0.9564	0.3529	-0.009
Mof_N 	N 	0.31677	0.4946	0.2182	-0.273
Mof_H 	H 	0.2691	0.4862	0.1738	-0.013
Mof_H 	H 	0.3632	0.5312	0.2618	-0.015
Mof_Zn	Zn	0.42254	0.12677	0.40194	1.158
Mof_Zn	Zn	0.33041	0.3571	0.22406	1.157
Mof_I 	I 	0.4794	0.159	0.3711	-0.16
Mof_I 	I 	0.3926	0.246	0.4415	-0.166
Mof_N 	N 	0.43258	0.015	0.4454	-0.269
Mof_N 	N 	0.36009	0.3421	0.1753	-0.281
Mof_I 	I 	0.37921	0.33501	0.29961	-0.348
Mof_I 	I 	0.27271	0.2586	0.20653	-0.105
Mof_C 	C 	0.3883	0.3967	0.1741	0.083
Mof_C 	C 	0.353	0.2757	0.1444	0.072
Mof_C 	C 	0.4124	0.3842	0.1459	-0.127
Mof_H 	H 	0.3924	0.4475	0.1937	-0.022
Mof_H 	H 	0.3316	0.2385	0.143	-0.014
Mof_C 	C 	0.3751	0.2592	0.1148	-0.121
Mof_H 	H 	0.433	0.4238	0.1473	0.086
Mof_C 	C 	0.4059	0.3134	0.116	0.07
Mof_H 	H 	0.3693	0.211	0.0938	0.086
Mof_C 	C 	0.4313	0.297	0.0855	0.106
Mof_N 	N 	0.4249	0.2245	0.0585	-0.134
Mof_N 	N 	0.45905	0.3568	0.087	-0.135
Mof_C 	C 	0.4469	0.2169	0.0302	0.092
Mof_C 	C 	0.48006	0.3414	0.0581	0.094
Mof_C 	C 	0.442	0.1364	0.0002	0.046
Mof_N 	N 	0.47459	0.2751	0.0273	-0.148
Mof_C 	C 	0.51271	0.4003	0.06	0.048
Mof_C 	C 	0.4692	0.112	0.9776	-0.114
Mof_C 	C 	0.4098	0.0843	0.9944	-0.115
Mof_C 	C 	0.5289	0.4118	0.024	-0.125
Mof_C 	C 	0.5289	0.4444	0.0995	-0.122
Mof_H 	H 	0.4913	0.147	0.9807	0.068
Mof_C 	C 	0.4634	0.036	0.9506	0.066
Mof_C 	C 	0.4065	0.0086	0.967	0.068
Mof_H 	H 	0.3904	0.1003	0.009	0.078
Mof_H 	H 	0.5192	0.3813	0.9966	0.079
Mof_C 	C 	0.5597	0.4686	0.0285	0.079
Mof_H 	H 	0.5189	0.4379	0.1253	0.084
Mof_C 	C 	0.56	0.4979	0.1008	0.074
Mof_H 	H 	0.4819	0.0192	0.935	-0.01
Mof_H 	H 	0.3848	0.972	0.9635	-0.016
Mof_H 	H 	0.5702	0.4775	0.0033	-0.007
Mof_H 	H 	0.5711	0.5271	0.1282	-0.016
Mof_I 	I 	0.47942	0.1445	0.36937	-0.16
Mof_I 	I 	0.39028	0.2411	0.44194	-0.172
Mof_I 	I 	0.8709	0.8396	0.2911	-0.047
Mof_I 	I 	0.7662	0.7686	0.1965	-0.228
Mof_I 	I 	0.64018	0.39276	0.5011	-0.369
Mof_Zn	Zn	0.61903	0.40035	0.57376	1.165
Mof_I 	I 	0.60043	0.26452	0.61522	-0.382
Mof_N 	N 	0.66155	0.4685	0.6176	-0.269
Mof_N 	N 	0.57517	0.4891	0.5661	-0.278
Mof_C 	C 	0.6836	0.4247	0.652	0.064
Mof_C 	C 	0.6687	0.5544	0.6098	0.067
Mof_H 	H 	0.6781	0.3634	0.6579	-0.005
Mof_C 	C 	0.7139	0.4658	0.6789	-0.12
Mof_C 	C 	0.6987	0.6016	0.6362	-0.116
Mof_H 	H 	0.6528	0.5851	0.5856	-0.003
Mof_H 	H 	0.7293	0.433	0.7028	0.088
Mof_C 	C 	0.72201	0.5562	0.6709	0.041
Mof_H 	H 	0.703	0.6636	0.6302	0.079
Mof_C 	C 	0.7549	0.6007	0.6996	0.089
Mof_N 	N 	0.77632	0.5487	0.731	-0.141
Mof_N 	N 	0.76162	0.6884	0.69152	-0.14
Mof_C 	C 	0.8075	0.5881	0.7537	0.103
Mof_C 	C 	0.7924	0.7218	0.7187	0.104
Mof_C 	C 	0.8334	0.5336	0.7876	0.053
Mof_N 	N 	0.81673	0.6743	0.7488	-0.138
Mof_C 	C 	0.80109	0.8204	0.7161	0.054
Mof_C 	C 	0.8247	0.4465	0.7997	-0.126
Mof_C 	C 	0.8679	0.5705	0.8076	-0.115
Mof_C 	C 	0.7765	0.8809	0.6896	-0.122
Mof_C 	C 	0.8334	0.8552	0.7432	-0.118
Mof_C 	C 	0.8501	0.4006	0.8327	0.071
Mof_H 	H 	0.8018	0.4188	0.7856	0.077
Mof_H 	H 	0.8748	0.6293	0.7996	0.09
Mof_C 	C 	0.8917	0.5194	0.8395	0.065
Mof_C 	C 	0.7858	0.9724	0.692	0.073
Mof_H 	H 	0.7541	0.8601	0.6705	0.078
Mof_H 	H 	0.8506	0.8155	0.7617	0.083
Mof_C 	C 	0.8407	0.9464	0.7434	0.06
Mof_N 	N 	0.88258	0.4365	0.8524	-0.271
Mof_H 	H 	0.8439	0.3416	0.8415	-0.015
Mof_H 	H 	0.9156	0.5436	0.8529	-0.009
Mof_N 	N 	0.81677	0.0054	0.7182	-0.273
Mof_H 	H 	0.7691	0.0138	0.6738	-0.013
Mof_H 	H 	0.8632	0.9688	0.7618	-0.015
Mof_Zn	Zn	0.92254	0.37323	0.90194	1.158
Mof_Zn	Zn	0.83041	0.1429	0.72406	1.157
Mof_I 	I 	0.9794	0.341	0.8711	-0.16
Mof_I 	I 	0.8926	0.254	0.9415	-0.166
Mof_N 	N 	0.93258	0.485	0.9454	-0.269
Mof_N 	N 	0.86009	0.1579	0.6753	-0.281
Mof_I 	I 	0.87921	0.16499	0.79961	-0.348
Mof_I 	I 	0.77271	0.2414	0.70653	-0.105
Mof_C 	C 	0.8883	0.1033	0.6741	0.083
Mof_C 	C 	0.853	0.2243	0.6444	0.072
Mof_C 	C 	0.9124	0.1158	0.6459	-0.127
Mof_H 	H 	0.8924	0.0525	0.6937	-0.022
Mof_H 	H 	0.8316	0.2615	0.643	-0.014
Mof_C 	C 	0.8751	0.2408	0.6148	-0.121
Mof_H 	H 	0.933	0.0762	0.6473	0.086
Mof_C 	C 	0.9059	0.1866	0.616	0.07
Mof_H 	H 	0.8693	0.289	0.5938	0.086
Mof_C 	C 	0.9313	0.203	0.5855	0.106
Mof_N 	N 	0.9249	0.2755	0.5585	-0.134
Mof_N 	N 	0.95905	0.1432	0.587	-0.135
Mof_C 	C 	0.9469	0.2831	0.5302	0.092
Mof_C 	C 	0.98006	0.1586	0.5581	0.094
Mof_C 	C 	0.942	0.3636	0.5002	0.046
Mof_N 	N 	0.97459	0.2249	0.5273	-0.148
Mof_C 	C 	0.01271	0.0997	0.56	0.048
Mof_C 	C 	0.9692	0.388	0.4776	-0.114
Mof_C 	C 	0.9098	0.4157	0.4944	-0.115
Mof_C 	C 	0.0289	0.0882	0.524	-0.125
Mof_C 	C 	0.0289	0.0556	0.5995	-0.122
Mof_H 	H 	0.9913	0.353	0.4807	0.068
Mof_C 	C 	0.9634	0.464	0.4506	0.066
Mof_C 	C 	0.9065	0.4914	0.467	0.068
Mof_H 	H 	0.8904	0.3997	0.509	0.078
Mof_H 	H 	0.0192	0.1187	0.4966	0.079
Mof_C 	C 	0.0597	0.0314	0.5285	0.079
Mof_H 	H 	0.0189	0.0621	0.6253	0.084
Mof_C 	C 	0.06	0.0021	0.6008	0.074
Mof_H 	H 	0.9819	0.4808	0.435	-0.01
Mof_H 	H 	0.8848	0.528	0.4635	-0.016
Mof_H 	H 	0.0702	0.0225	0.5033	-0.007
Mof_H 	H 	0.0711	0.9729	0.6282	-0.016
Mof_I 	I 	0.97942	0.3555	0.86937	-0.16
Mof_I 	I 	0.89028	0.2589	0.94194	-0.172
Mof_I 	I 	0.3709	0.6604	0.7911	-0.047
Mof_I 	I 	0.2662	0.7314	0.6965	-0.228
Mof_I 	I 	0.14018	0.89276	0.5011	-0.369
Mof_Zn	Zn	0.11903	0.90035	0.57376	1.165
Mof_I 	I 	0.10043	0.76452	0.61522	-0.382
Mof_N 	N 	0.16155	0.9685	0.6176	-0.269
Mof_N 	N 	0.07517	0.9891	0.5661	-0.278
Mof_C 	C 	0.1836	0.9247	0.652	0.064
Mof_C 	C 	0.1687	0.0544	0.6098	0.067
Mof_H 	H 	0.1781	0.8634	0.6579	-0.005
Mof_C 	C 	0.2139	0.9658	0.6789	-0.12
Mof_C 	C 	0.1987	0.1016	0.6362	-0.116
Mof_H 	H 	0.1528	0.0851	0.5856	-0.003
Mof_H 	H 	0.2293	0.933	0.7028	0.088
Mof_C 	C 	0.22201	0.0562	0.6709	0.041
Mof_H 	H 	0.203	0.1636	0.6302	0.079
Mof_C 	C 	0.2549	0.1007	0.6996	0.089
Mof_N 	N 	0.27632	0.0487	0.731	-0.141
Mof_N 	N 	0.26162	0.1884	0.69152	-0.14
Mof_C 	C 	0.3075	0.0881	0.7537	0.103
Mof_C 	C 	0.2924	0.2218	0.7187	0.104
Mof_C 	C 	0.3334	0.0336	0.7876	0.053
Mof_N 	N 	0.31673	0.1743	0.7488	-0.138
Mof_C 	C 	0.30109	0.3204	0.7161	0.054
Mof_C 	C 	0.3247	0.9465	0.7997	-0.126
Mof_C 	C 	0.3679	0.0705	0.8076	-0.115
Mof_C 	C 	0.2765	0.3809	0.6896	-0.122
Mof_C 	C 	0.3334	0.3552	0.7432	-0.118
Mof_C 	C 	0.3501	0.9006	0.8327	0.071
Mof_H 	H 	0.3018	0.9188	0.7856	0.077
Mof_H 	H 	0.3748	0.1293	0.7996	0.09
Mof_C 	C 	0.3917	0.0194	0.8395	0.065
Mof_C 	C 	0.2858	0.4724	0.692	0.073
Mof_H 	H 	0.2541	0.3601	0.6705	0.078
Mof_H 	H 	0.3506	0.3155	0.7617	0.083
Mof_C 	C 	0.3407	0.4464	0.7434	0.06
Mof_N 	N 	0.38258	0.9365	0.8524	-0.271
Mof_H 	H 	0.3439	0.8416	0.8415	-0.015
Mof_H 	H 	0.4156	0.0436	0.8529	-0.009
Mof_N 	N 	0.31677	0.5054	0.7182	-0.273
Mof_H 	H 	0.2691	0.5138	0.6738	-0.013
Mof_H 	H 	0.3632	0.4688	0.7618	-0.015
Mof_Zn	Zn	0.42254	0.87323	0.90194	1.158
Mof_Zn	Zn	0.33041	0.6429	0.72406	1.157
Mof_I 	I 	0.4794	0.841	0.8711	-0.16
Mof_I 	I 	0.3926	0.754	0.9415	-0.166
Mof_N 	N 	0.43258	0.985	0.9454	-0.269
Mof_N 	N 	0.36009	0.6579	0.6753	-0.281
Mof_I 	I 	0.37921	0.66499	0.79961	-0.348
Mof_I 	I 	0.27271	0.7414	0.70653	-0.105
Mof_C 	C 	0.3883	0.6033	0.6741	0.083
Mof_C 	C 	0.353	0.7243	0.6444	0.072
Mof_C 	C 	0.4124	0.6158	0.6459	-0.127
Mof_H 	H 	0.3924	0.5525	0.6937	-0.022
Mof_H 	H 	0.3316	0.7615	0.643	-0.014
Mof_C 	C 	0.3751	0.7408	0.6148	-0.121
Mof_H 	H 	0.433	0.5762	0.6473	0.086
Mof_C 	C 	0.4059	0.6866	0.616	0.07
Mof_H 	H 	0.3693	0.789	0.5938	0.086
Mof_C 	C 	0.4313	0.703	0.5855	0.106
Mof_N 	N 	0.4249	0.7755	0.5585	-0.134
Mof_N 	N 	0.45905	0.6432	0.587	-0.135
Mof_C 	C 	0.4469	0.7831	0.5302	0.092
Mof_C 	C 	0.48006	0.6586	0.5581	0.094
Mof_C 	C 	0.442	0.8636	0.5002	0.046
Mof_N 	N 	0.47459	0.7249	0.5273	-0.148
Mof_C 	C 	0.51271	0.5997	0.56	0.048
Mof_C 	C 	0.4692	0.888	0.4776	-0.114
Mof_C 	C 	0.4098	0.9157	0.4944	-0.115
Mof_C 	C 	0.5289	0.5882	0.524	-0.125
Mof_C 	C 	0.5289	0.5556	0.5995	-0.122
Mof_H 	H 	0.4913	0.853	0.4807	0.068
Mof_C 	C 	0.4634	0.964	0.4506	0.066
Mof_C 	C 	0.4065	0.9914	0.467	0.068
Mof_H 	H 	0.3904	0.8997	0.509	0.078
Mof_H 	H 	0.5192	0.6187	0.4966	0.079
Mof_C 	C 	0.5597	0.5314	0.5285	0.079
Mof_H 	H 	0.5189	0.5621	0.6253	0.084
Mof_C 	C 	0.56	0.5021	0.6008	0.074
Mof_H 	H 	0.4819	0.9808	0.435	-0.01
Mof_H 	H 	0.3848	0.028	0.4635	-0.016
Mof_H 	H 	0.5702	0.5225	0.5033	-0.007
Mof_H 	H 	0.5711	0.4729	0.6282	-0.016
Mof_I 	I 	0.47942	0.8555	0.86937	-0.16
Mof_I 	I 	0.39028	0.7589	0.94194	-0.172
Mof_I 	I 	0.8709	0.1604	0.7911	-0.047
Mof_I 	I 	0.7662	0.2314	0.6965	-0.228
_end
