# CIF file generated by openbabel 3.1.0, see https://openbabel.org
data_I
_chemical_name_common 'image0'
_cell_length_a 37.737
_cell_length_b 11.102
_cell_length_c 6.811
_cell_angle_alpha 90
_cell_angle_beta 91.06
_cell_angle_gamma 90
_space_group_name_H-M_alt 'P 1'
_space_group_name_Hall 'P 1'
loop_
    _symmetry_equiv_pos_as_xyz
    x,y,z
loop_
    _atom_site_label
    _atom_site_type_symbol
    _atom_site_fract_x
    _atom_site_fract_y
    _atom_site_fract_z
    _atom_site_occupancy
    Er1      Er       0.36868    0.29195    0.20090    1.000
    O1       O        0.41660    0.42590    0.27950    1.000
    O2       O        0.42074    0.24360    0.39640    1.000
    O3       O        0.34838    0.35420    0.49940    1.000
    O4       O        0.34030    0.53020    0.64180    1.000
    O5       O        0.17670    0.26700    0.99520    1.000
    O6       O        0.16608    0.39270    0.23810    1.000
    C1       C        0.43340    0.34750    0.37880    1.000
    C2       C        0.46870    0.37660    0.46580    1.000
    H1       H        0.48160    0.31530    0.52640    1.000
    C3       C        0.48230    0.48500    0.46110    1.000
    H2       H        0.46880    0.54640    0.40500    1.000
    C4       C        0.32920    0.43700    0.55980    1.000
    C5       C        0.29090    0.44790    0.50900    1.000
    C6       C        0.27420    0.36600    0.40700    1.000
    C7       C        0.23840    0.38110    0.34400    1.000
    C8       C        0.22260    0.31590    0.20700    1.000
    C9       C        0.18510    0.32190    0.15090    1.000
    C10      C        0.28950    0.37900    0.60800    1.000
    C11      C        0.27380    0.31400    0.42900    1.000
    C12      C        0.23400    0.31000    0.43900    1.000
    C13      C        0.21830    0.24100    0.26000    1.000
    Er2      Er       0.86868    0.79195    0.20090    1.000
    O7       O        0.91660    0.92590    0.27950    1.000
    O8       O        0.92074    0.74360    0.39640    1.000
    O9       O        0.84838    0.85420    0.49940    1.000
    O10      O        0.84030    0.03020    0.64180    1.000
    O11      O        0.67670    0.76700    0.99520    1.000
    O12      O        0.66608    0.89270    0.23810    1.000
    C14      C        0.93340    0.84750    0.37880    1.000
    C15      C        0.96870    0.87660    0.46580    1.000
    H3       H        0.98160    0.81530    0.52640    1.000
    C16      C        0.98230    0.98500    0.46110    1.000
    H4       H        0.96880    0.04640    0.40500    1.000
    C17      C        0.82920    0.93700    0.55980    1.000
    C18      C        0.79090    0.94790    0.50900    1.000
    C19      C        0.77420    0.86600    0.40700    1.000
    C20      C        0.73840    0.88110    0.34400    1.000
    C21      C        0.72260    0.81590    0.20700    1.000
    C22      C        0.68510    0.82190    0.15090    1.000
    C23      C        0.78950    0.87900    0.60800    1.000
    C24      C        0.77380    0.81400    0.42900    1.000
    C25      C        0.73400    0.81000    0.43900    1.000
    C26      C        0.71830    0.74100    0.26000    1.000
    Er3      Er       0.63132    0.29195    0.29910    1.000
    O13      O        0.58340    0.42590    0.22050    1.000
    O14      O        0.57926    0.24360    0.10360    1.000
    O15      O        0.65162    0.35420    0.00060    1.000
    O16      O        0.65970    0.53020    0.85820    1.000
    O17      O        0.82330    0.26700    0.50480    1.000
    O18      O        0.83392    0.39270    0.26190    1.000
    C27      C        0.56660    0.34750    0.12120    1.000
    C28      C        0.53130    0.37660    0.03420    1.000
    H5       H        0.51840    0.31530    0.97360    1.000
    C29      C        0.51770    0.48500    0.03890    1.000
    H6       H        0.53120    0.54640    0.09500    1.000
    C30      C        0.67080    0.43700    0.94020    1.000
    C31      C        0.70910    0.44790    0.99100    1.000
    C32      C        0.72580    0.36600    0.09300    1.000
    C33      C        0.76160    0.38110    0.15600    1.000
    C34      C        0.77740    0.31590    0.29300    1.000
    C35      C        0.81490    0.32190    0.34910    1.000
    C36      C        0.71050    0.37900    0.89200    1.000
    C37      C        0.72620    0.31400    0.07100    1.000
    C38      C        0.76600    0.31000    0.06100    1.000
    C39      C        0.78170    0.24100    0.24000    1.000
    Er4      Er       0.13132    0.79195    0.29910    1.000
    O19      O        0.08340    0.92590    0.22050    1.000
    O20      O        0.07926    0.74360    0.10360    1.000
    O21      O        0.15162    0.85420    0.00060    1.000
    O22      O        0.15970    0.03020    0.85820    1.000
    O23      O        0.32330    0.76700    0.50480    1.000
    O24      O        0.33392    0.89270    0.26190    1.000
    C40      C        0.06660    0.84750    0.12120    1.000
    C41      C        0.03130    0.87660    0.03420    1.000
    H7       H        0.01840    0.81530    0.97360    1.000
    C42      C        0.01770    0.98500    0.03890    1.000
    H8       H        0.03120    0.04640    0.09500    1.000
    C43      C        0.17080    0.93700    0.94020    1.000
    C44      C        0.20910    0.94790    0.99100    1.000
    C45      C        0.22580    0.86600    0.09300    1.000
    C46      C        0.26160    0.88110    0.15600    1.000
    C47      C        0.27740    0.81590    0.29300    1.000
    C48      C        0.31490    0.82190    0.34910    1.000
    C49      C        0.21050    0.87900    0.89200    1.000
    C50      C        0.22620    0.81400    0.07100    1.000
    C51      C        0.26600    0.81000    0.06100    1.000
    C52      C        0.28170    0.74100    0.24000    1.000
    Er5      Er       0.63132    0.70805    0.79910    1.000
    O25      O        0.58340    0.57410    0.72050    1.000
    O26      O        0.57926    0.75640    0.60360    1.000
    O27      O        0.65162    0.64580    0.50060    1.000
    O28      O        0.65970    0.46980    0.35820    1.000
    O29      O        0.82330    0.73300    0.00480    1.000
    O30      O        0.83392    0.60730    0.76190    1.000
    C53      C        0.56660    0.65250    0.62120    1.000
    C54      C        0.53130    0.62340    0.53420    1.000
    H9       H        0.51840    0.68470    0.47360    1.000
    C55      C        0.51770    0.51500    0.53890    1.000
    H10      H        0.53120    0.45360    0.59500    1.000
    C56      C        0.67080    0.56300    0.44020    1.000
    C57      C        0.70910    0.55210    0.49100    1.000
    C58      C        0.72580    0.63400    0.59300    1.000
    C59      C        0.76160    0.61890    0.65600    1.000
    C60      C        0.77740    0.68410    0.79300    1.000
    C61      C        0.81490    0.67810    0.84910    1.000
    C62      C        0.71050    0.62100    0.39200    1.000
    C63      C        0.72620    0.68600    0.57100    1.000
    C64      C        0.76600    0.69000    0.56100    1.000
    C65      C        0.78170    0.75900    0.74000    1.000
    Er6      Er       0.13132    0.20805    0.79910    1.000
    O31      O        0.08340    0.07410    0.72050    1.000
    O32      O        0.07926    0.25640    0.60360    1.000
    O33      O        0.15162    0.14580    0.50060    1.000
    O34      O        0.15970    0.96980    0.35820    1.000
    O35      O        0.32330    0.23300    0.00480    1.000
    O36      O        0.33392    0.10730    0.76190    1.000
    C66      C        0.06660    0.15250    0.62120    1.000
    C67      C        0.03130    0.12340    0.53420    1.000
    H11      H        0.01840    0.18470    0.47360    1.000
    C68      C        0.01770    0.01500    0.53890    1.000
    H12      H        0.03120    0.95360    0.59500    1.000
    C69      C        0.17080    0.06300    0.44020    1.000
    C70      C        0.20910    0.05210    0.49100    1.000
    C71      C        0.22580    0.13400    0.59300    1.000
    C72      C        0.26160    0.11890    0.65600    1.000
    C73      C        0.27740    0.18410    0.79300    1.000
    C74      C        0.31490    0.17810    0.84910    1.000
    C75      C        0.21050    0.12100    0.39200    1.000
    C76      C        0.22620    0.18600    0.57100    1.000
    C77      C        0.26600    0.19000    0.56100    1.000
    C78      C        0.28170    0.25900    0.74000    1.000
    Er7      Er       0.36868    0.70805    0.70090    1.000
    O37      O        0.41660    0.57410    0.77950    1.000
    O38      O        0.42074    0.75640    0.89640    1.000
    O39      O        0.34838    0.64580    0.99940    1.000
    O40      O        0.34030    0.46980    0.14180    1.000
    O41      O        0.17670    0.73300    0.49520    1.000
    O42      O        0.16608    0.60730    0.73810    1.000
    C79      C        0.43340    0.65250    0.87880    1.000
    C80      C        0.46870    0.62340    0.96580    1.000
    H13      H        0.48160    0.68470    0.02640    1.000
    C81      C        0.48230    0.51500    0.96110    1.000
    H14      H        0.46880    0.45360    0.90500    1.000
    C82      C        0.32920    0.56300    0.05980    1.000
    C83      C        0.29090    0.55210    0.00900    1.000
    C84      C        0.27420    0.63400    0.90700    1.000
    C85      C        0.23840    0.61890    0.84400    1.000
    C86      C        0.22260    0.68410    0.70700    1.000
    C87      C        0.18510    0.67810    0.65090    1.000
    C88      C        0.28950    0.62100    0.10800    1.000
    C89      C        0.27380    0.68600    0.92900    1.000
    C90      C        0.23400    0.69000    0.93900    1.000
    C91      C        0.21830    0.75900    0.76000    1.000
    Er8      Er       0.86868    0.20805    0.70090    1.000
    O43      O        0.91660    0.07410    0.77950    1.000
    O44      O        0.92074    0.25640    0.89640    1.000
    O45      O        0.84838    0.14580    0.99940    1.000
    O46      O        0.84030    0.96980    0.14180    1.000
    O47      O        0.67670    0.23300    0.49520    1.000
    O48      O        0.66608    0.10730    0.73810    1.000
    C92      C        0.93340    0.15250    0.87880    1.000
    C93      C        0.96870    0.12340    0.96580    1.000
    H15      H        0.98160    0.18470    0.02640    1.000
    C94      C        0.98230    0.01500    0.96110    1.000
    H16      H        0.96880    0.95360    0.90500    1.000
    C95      C        0.82920    0.06300    0.05980    1.000
    C96      C        0.79090    0.05210    0.00900    1.000
    C97      C        0.77420    0.13400    0.90700    1.000
    C98      C        0.73840    0.11890    0.84400    1.000
    C99      C        0.72260    0.18410    0.70700    1.000
    C100     C        0.68510    0.17810    0.65090    1.000
    C101     C        0.78950    0.12100    0.10800    1.000
    C102     C        0.77380    0.18600    0.92900    1.000
    C103     C        0.73400    0.19000    0.93900    1.000
    C104     C        0.71830    0.25900    0.76000    1.000
