# CIF file generated by openbabel 3.1.0, see https://openbabel.org
data_I
_chemical_name_common 'image0'
_cell_length_a 24.6059
_cell_length_b 24.6059
_cell_length_c 24.6059
_cell_angle_alpha 90
_cell_angle_beta 90
_cell_angle_gamma 90
_space_group_name_H-M_alt 'P 1'
_space_group_name_Hall 'P 1'
loop_
    _symmetry_equiv_pos_as_xyz
    x,y,z
loop_
    _atom_site_label
    _atom_site_type_symbol
    _atom_site_fract_x
    _atom_site_fract_y
    _atom_site_fract_z
    _atom_site_occupancy
    Ag1      Ag       0.57277    0.42723    0.57277    1.000
    Ag2      Ag       0.70141    0.29859    0.70141    1.000
    C1       C        0.62468    0.37532    0.62468    1.000
    C2       C        0.64974    0.35026    0.64974    1.000
    Ag3      Ag       0.57277    0.92723    0.07277    1.000
    Ag4      Ag       0.70141    0.79859    0.20141    1.000
    C3       C        0.62468    0.87532    0.12468    1.000
    C4       C        0.64974    0.85026    0.14974    1.000
    Ag5      Ag       0.07277    0.42723    0.07277    1.000
    Ag6      Ag       0.20141    0.29859    0.20141    1.000
    C5       C        0.12468    0.37532    0.12468    1.000
    C6       C        0.14974    0.35026    0.14974    1.000
    Ag7      Ag       0.07277    0.92723    0.57277    1.000
    Ag8      Ag       0.20141    0.79859    0.70141    1.000
    C7       C        0.12468    0.87532    0.62468    1.000
    C8       C        0.14974    0.85026    0.64974    1.000
    Ag9      Ag       0.42723    0.57277    0.57277    1.000
    Ag10     Ag       0.29859    0.70141    0.70141    1.000
    C9       C        0.37532    0.62468    0.62468    1.000
    C10      C        0.35026    0.64974    0.64974    1.000
    Ag11     Ag       0.42723    0.07277    0.07277    1.000
    Ag12     Ag       0.29859    0.20141    0.20141    1.000
    C11      C        0.37532    0.12468    0.12468    1.000
    C12      C        0.35026    0.14974    0.14974    1.000
    Ag13     Ag       0.92723    0.57277    0.07277    1.000
    Ag14     Ag       0.79859    0.70141    0.20141    1.000
    C13      C        0.87532    0.62468    0.12468    1.000
    C14      C        0.85026    0.64974    0.14974    1.000
    Ag15     Ag       0.92723    0.07277    0.57277    1.000
    Ag16     Ag       0.79859    0.20141    0.70141    1.000
    C15      C        0.87532    0.12468    0.62468    1.000
    C16      C        0.85026    0.14974    0.64974    1.000
    Ag17     Ag       0.42723    0.42723    0.42723    1.000
    Ag18     Ag       0.29859    0.29859    0.29859    1.000
    C17      C        0.37532    0.37532    0.37532    1.000
    C18      C        0.35026    0.35026    0.35026    1.000
    Ag19     Ag       0.42723    0.92723    0.92723    1.000
    Ag20     Ag       0.29859    0.79859    0.79859    1.000
    C19      C        0.37532    0.87532    0.87532    1.000
    C20      C        0.35026    0.85026    0.85026    1.000
    Ag21     Ag       0.92723    0.42723    0.92723    1.000
    Ag22     Ag       0.79859    0.29859    0.79859    1.000
    C21      C        0.87532    0.37532    0.87532    1.000
    C22      C        0.85026    0.35026    0.85026    1.000
    Ag23     Ag       0.92723    0.92723    0.42723    1.000
    Ag24     Ag       0.79859    0.79859    0.29859    1.000
    C23      C        0.87532    0.87532    0.37532    1.000
    C24      C        0.85026    0.85026    0.35026    1.000
    Ag25     Ag       0.57277    0.57277    0.42723    1.000
    Ag26     Ag       0.70141    0.70141    0.29859    1.000
    C25      C        0.62468    0.62468    0.37532    1.000
    C26      C        0.64974    0.64974    0.35026    1.000
    Ag27     Ag       0.57277    0.07277    0.92723    1.000
    Ag28     Ag       0.70141    0.20141    0.79859    1.000
    C27      C        0.62468    0.12468    0.87532    1.000
    C28      C        0.64974    0.14974    0.85026    1.000
    Ag29     Ag       0.07277    0.57277    0.92723    1.000
    Ag30     Ag       0.20141    0.70141    0.79859    1.000
    C29      C        0.12468    0.62468    0.87532    1.000
    C30      C        0.14974    0.64974    0.85026    1.000
    Ag31     Ag       0.07277    0.07277    0.42723    1.000
    Ag32     Ag       0.20141    0.20141    0.29859    1.000
    C31      C        0.12468    0.12468    0.37532    1.000
    C32      C        0.14974    0.14974    0.35026    1.000
    Ag33     Ag       0.42723    0.57277    0.42723    1.000
    Ag34     Ag       0.29859    0.70141    0.29859    1.000
    C33      C        0.37532    0.62468    0.37532    1.000
    C34      C        0.35026    0.64974    0.35026    1.000
    Ag35     Ag       0.42723    0.07277    0.92723    1.000
    Ag36     Ag       0.29859    0.20141    0.79859    1.000
    C35      C        0.37532    0.12468    0.87532    1.000
    C36      C        0.35026    0.14974    0.85026    1.000
    Ag37     Ag       0.92723    0.57277    0.92723    1.000
    Ag38     Ag       0.79859    0.70141    0.79859    1.000
    C37      C        0.87532    0.62468    0.87532    1.000
    C38      C        0.85026    0.64974    0.85026    1.000
    Ag39     Ag       0.92723    0.07277    0.42723    1.000
    Ag40     Ag       0.79859    0.20141    0.29859    1.000
    C39      C        0.87532    0.12468    0.37532    1.000
    C40      C        0.85026    0.14974    0.35026    1.000
    Ag41     Ag       0.57277    0.42723    0.42723    1.000
    Ag42     Ag       0.70141    0.29859    0.29859    1.000
    C41      C        0.62468    0.37532    0.37532    1.000
    C42      C        0.64974    0.35026    0.35026    1.000
    Ag43     Ag       0.57277    0.92723    0.92723    1.000
    Ag44     Ag       0.70141    0.79859    0.79859    1.000
    C43      C        0.62468    0.87532    0.87532    1.000
    C44      C        0.64974    0.85026    0.85026    1.000
    Ag45     Ag       0.07277    0.42723    0.92723    1.000
    Ag46     Ag       0.20141    0.29859    0.79859    1.000
    C45      C        0.12468    0.37532    0.87532    1.000
    C46      C        0.14974    0.35026    0.85026    1.000
    Ag47     Ag       0.07277    0.92723    0.42723    1.000
    Ag48     Ag       0.20141    0.79859    0.29859    1.000
    C47      C        0.12468    0.87532    0.37532    1.000
    C48      C        0.14974    0.85026    0.35026    1.000
    Ag49     Ag       0.42723    0.42723    0.57277    1.000
    Ag50     Ag       0.29859    0.29859    0.70141    1.000
    C49      C        0.37532    0.37532    0.62468    1.000
    C50      C        0.35026    0.35026    0.64974    1.000
    Ag51     Ag       0.42723    0.92723    0.07277    1.000
    Ag52     Ag       0.29859    0.79859    0.20141    1.000
    C51      C        0.37532    0.87532    0.12468    1.000
    C52      C        0.35026    0.85026    0.14974    1.000
    Ag53     Ag       0.92723    0.42723    0.07277    1.000
    Ag54     Ag       0.79859    0.29859    0.20141    1.000
    C53      C        0.87532    0.37532    0.12468    1.000
    C54      C        0.85026    0.35026    0.14974    1.000
    Ag55     Ag       0.92723    0.92723    0.57277    1.000
    Ag56     Ag       0.79859    0.79859    0.70141    1.000
    C55      C        0.87532    0.87532    0.62468    1.000
    C56      C        0.85026    0.85026    0.64974    1.000
    Ag57     Ag       0.57277    0.57277    0.57277    1.000
    Ag58     Ag       0.70141    0.70141    0.70141    1.000
    C57      C        0.62468    0.62468    0.62468    1.000
    C58      C        0.64974    0.64974    0.64974    1.000
    Ag59     Ag       0.57277    0.07277    0.07277    1.000
    Ag60     Ag       0.70141    0.20141    0.20141    1.000
    C59      C        0.62468    0.12468    0.12468    1.000
    C60      C        0.64974    0.14974    0.14974    1.000
    Ag61     Ag       0.07277    0.57277    0.07277    1.000
    Ag62     Ag       0.20141    0.70141    0.20141    1.000
    C61      C        0.12468    0.62468    0.12468    1.000
    C62      C        0.14974    0.64974    0.14974    1.000
    Ag63     Ag       0.07277    0.07277    0.57277    1.000
    Ag64     Ag       0.20141    0.20141    0.70141    1.000
    C63      C        0.12468    0.12468    0.62468    1.000
    C64      C        0.14974    0.14974    0.64974    1.000
    I1       I        0.50000    0.50000    0.63138    1.000
    I2       I        0.50000    0.00000    0.13138    1.000
    I3       I        0.00000    0.50000    0.13138    1.000
    I4       I        0.00000    0.00000    0.63138    1.000
    I5       I        0.50000    0.50000    0.36862    1.000
    I6       I        0.50000    0.00000    0.86862    1.000
    I7       I        0.00000    0.50000    0.86862    1.000
    I8       I        0.00000    0.00000    0.36862    1.000
    I9       I        0.63138    0.50000    0.50000    1.000
    I10      I        0.63138    0.00000    0.00000    1.000
    I11      I        0.13138    0.50000    0.00000    1.000
    I12      I        0.13138    0.00000    0.50000    1.000
    I13      I        0.36862    0.50000    0.50000    1.000
    I14      I        0.36862    0.00000    0.00000    1.000
    I15      I        0.86862    0.50000    0.00000    1.000
    I16      I        0.86862    0.00000    0.50000    1.000
    I17      I        0.50000    0.63138    0.50000    1.000
    I18      I        0.50000    0.13138    0.00000    1.000
    I19      I        0.00000    0.63138    0.00000    1.000
    I20      I        0.00000    0.13138    0.50000    1.000
    I21      I        0.50000    0.36862    0.50000    1.000
    I22      I        0.50000    0.86862    0.00000    1.000
    I23      I        0.00000    0.36862    0.00000    1.000
    I24      I        0.00000    0.86862    0.50000    1.000
    I25      I        0.68360    0.31640    0.81640    1.000
    I26      I        0.31640    0.68360    0.81640    1.000
    I27      I        0.31640    0.31640    0.18360    1.000
    I28      I        0.68360    0.68360    0.18360    1.000
    I29      I        0.81640    0.68360    0.31640    1.000
    I30      I        0.81640    0.18360    0.81640    1.000
    I31      I        0.81640    0.31640    0.68360    1.000
    I32      I        0.81640    0.81640    0.18360    1.000
    I33      I        0.18360    0.31640    0.31640    1.000
    I34      I        0.18360    0.81640    0.81640    1.000
    I35      I        0.18360    0.68360    0.68360    1.000
    I36      I        0.18360    0.18360    0.18360    1.000
    I37      I        0.31640    0.81640    0.68360    1.000
    I38      I        0.68360    0.81640    0.31640    1.000
    I39      I        0.31640    0.18360    0.31640    1.000
    I40      I        0.68360    0.18360    0.68360    1.000
    I41      I        0.31640    0.68360    0.18360    1.000
    I42      I        0.68360    0.31640    0.18360    1.000
    I43      I        0.31640    0.31640    0.81640    1.000
    I44      I        0.68360    0.68360    0.81640    1.000
    I45      I        0.68360    0.81640    0.68360    1.000
    I46      I        0.31640    0.81640    0.31640    1.000
    I47      I        0.31640    0.18360    0.68360    1.000
    I48      I        0.68360    0.18360    0.31640    1.000
    I49      I        0.81640    0.31640    0.31640    1.000
    I50      I        0.81640    0.81640    0.81640    1.000
    I51      I        0.81640    0.68360    0.68360    1.000
    I52      I        0.81640    0.18360    0.18360    1.000
    I53      I        0.18360    0.31640    0.68360    1.000
    I54      I        0.18360    0.81640    0.18360    1.000
    I55      I        0.18360    0.68360    0.31640    1.000
    I56      I        0.18360    0.18360    0.81640    1.000
