# CIF file generated by openbabel 3.1.0, see https://openbabel.org
data_I
_chemical_name_common 'image0'
_cell_length_a 9.4537
_cell_length_b 9.1655
_cell_length_c 9.757
_cell_angle_alpha 90
_cell_angle_beta 117.448
_cell_angle_gamma 90
_space_group_name_H-M_alt 'P 1'
_space_group_name_Hall 'P 1'
loop_
    _symmetry_equiv_pos_as_xyz
    x,y,z
loop_
    _atom_site_label
    _atom_site_type_symbol
    _atom_site_fract_x
    _atom_site_fract_y
    _atom_site_fract_z
    _atom_site_occupancy
    P1       P        0.82937    0.89818    0.06219    1.000
    P2       P        0.14603    0.65534    0.47196    1.000
    O1       O        0.99860    0.85020    0.11350    1.000
    O2       O        0.24890    0.73010    0.41090    1.000
    O3       O        0.74350    0.93940    0.89100    1.000
    O4       O        0.25420    0.55010    0.59580    1.000
    O5       O        0.99870    0.58360    0.34690    1.000
    O6       O        0.72740    0.78050    0.08720    1.000
    O7       O        0.83970    0.03530    0.16330    1.000
    H1       H        0.89150    0.09950    0.14860    1.000
    O8       O        0.08830    0.77550    0.55240    1.000
    H2       H        0.16610    0.81600    0.62090    1.000
    P3       P        0.67063    0.89818    0.43781    1.000
    P4       P        0.35397    0.65534    0.02804    1.000
    O9       O        0.50140    0.85020    0.38650    1.000
    O10      O        0.25110    0.73010    0.08910    1.000
    O11      O        0.75650    0.93940    0.60900    1.000
    O12      O        0.24580    0.55010    0.90420    1.000
    O13      O        0.50130    0.58360    0.15310    1.000
    O14      O        0.77260    0.78050    0.41280    1.000
    O15      O        0.66030    0.03530    0.33670    1.000
    H3       H        0.60850    0.09950    0.35140    1.000
    O16      O        0.41170    0.77550    0.94760    1.000
    H4       H        0.33390    0.81600    0.87910    1.000
    P5       P        0.17063    0.10182    0.93781    1.000
    P6       P        0.85397    0.34466    0.52804    1.000
    O17      O        0.00140    0.14980    0.88650    1.000
    O18      O        0.75110    0.26990    0.58910    1.000
    O19      O        0.25650    0.06060    0.10900    1.000
    O20      O        0.74580    0.44990    0.40420    1.000
    O21      O        0.00130    0.41640    0.65310    1.000
    O22      O        0.27260    0.21950    0.91280    1.000
    O23      O        0.16030    0.96470    0.83670    1.000
    H5       H        0.10850    0.90050    0.85140    1.000
    O24      O        0.91170    0.22450    0.44760    1.000
    H6       H        0.83390    0.18400    0.37910    1.000
    P7       P        0.32937    0.10182    0.56219    1.000
    P8       P        0.64603    0.34466    0.97196    1.000
    O25      O        0.49860    0.14980    0.61350    1.000
    O26      O        0.74890    0.26990    0.91090    1.000
    O27      O        0.24350    0.06060    0.39100    1.000
    O28      O        0.75420    0.44990    0.09580    1.000
    O29      O        0.49870    0.41640    0.84690    1.000
    O30      O        0.22740    0.21950    0.58720    1.000
    O31      O        0.33970    0.96470    0.66330    1.000
    H7       H        0.39150    0.90050    0.64860    1.000
    O32      O        0.58830    0.22450    0.05240    1.000
    H8       H        0.66610    0.18400    0.12090    1.000
    In1      In       0.25000    0.88312    0.25000    1.000
    In2      In       0.75000    0.11688    0.75000    1.000
    In3      In       0.25000    0.39082    0.75000    1.000
    In4      In       0.75000    0.60918    0.25000    1.000
