# CIF file generated by openbabel 3.1.0, see https://openbabel.org
data_I
_chemical_name_common 'ELIKIU_clean'
_cell_length_a 9.341
_cell_length_b 9.865
_cell_length_c 11.415
_cell_angle_alpha 94.033
_cell_angle_beta 98.332
_cell_angle_gamma 110.809
_space_group_name_H-M_alt 'P 1'
_space_group_name_Hall 'P 1'
loop_
    _symmetry_equiv_pos_as_xyz
    x,y,z
loop_
    _atom_site_label
    _atom_site_type_symbol
    _atom_site_fract_x
    _atom_site_fract_y
    _atom_site_fract_z
    _atom_site_occupancy
    Sm1      Sm       0.78261    0.54565    0.48497    1.000
    Sm2      Sm       0.21739    0.45435    0.51503    1.000
    H1       H        0.43450    0.39450    0.07710    1.000
    H2       H        0.34630    0.27340    0.88430    1.000
    H3       H        0.67650    0.10170    0.93110    1.000
    H4       H        0.76730    0.22440    0.11950    1.000
    H5       H        0.69570    0.28640    0.72130    1.000
    H6       H        0.81810    0.99740    0.53580    1.000
    H7       H        0.41950    0.86210    0.66490    1.000
    H8       H        0.56550    0.60550    0.92290    1.000
    H9       H        0.65370    0.72660    0.11570    1.000
    H10      H        0.32350    0.89830    0.06890    1.000
    H11      H        0.23270    0.77560    0.88050    1.000
    H12      H        0.30430    0.71360    0.27870    1.000
    H13      H        0.18190    0.00260    0.46420    1.000
    H14      H        0.58050    0.13790    0.33510    1.000
    C1       C        0.67670    0.41200    0.23910    1.000
    C2       C        0.61650    0.32800    0.11950    1.000
    C3       C        0.48530    0.33780    0.04710    1.000
    C4       C        0.43110    0.26410    0.93190    1.000
    C5       C        0.50330    0.17790    0.88920    1.000
    C6       C        0.62940    0.16240    0.96030    1.000
    C7       C        0.68330    0.23600    0.07260    1.000
    C8       C        0.54730    0.07790    0.70790    1.000
    C9       C        0.67680    0.19070    0.69010    1.000
    C10      C        0.77760    0.16090    0.62600    1.000
    C11      C        0.74770    0.01810    0.57690    1.000
    C12      C        0.61140    0.90670    0.59010    1.000
    C13      C        0.51070    0.93630    0.65580    1.000
    C14      C        0.91980    0.28020    0.60260    1.000
    C15      C        0.57640    0.75380    0.53250    1.000
    C16      C        0.32330    0.58800    0.76090    1.000
    C17      C        0.38350    0.67200    0.88050    1.000
    C18      C        0.51470    0.66220    0.95290    1.000
    C19      C        0.56890    0.73590    0.06810    1.000
    C20      C        0.49670    0.82210    0.11080    1.000
    C21      C        0.37060    0.83760    0.03970    1.000
    C22      C        0.31670    0.76400    0.92740    1.000
    C23      C        0.45270    0.92210    0.29210    1.000
    C24      C        0.32320    0.80930    0.30990    1.000
    C25      C        0.22240    0.83910    0.37400    1.000
    C26      C        0.25230    0.98190    0.42310    1.000
    C27      C        0.38860    0.09330    0.40990    1.000
    C28      C        0.48930    0.06370    0.34420    1.000
    C29      C        0.08020    0.71980    0.39740    1.000
    C30      C        0.42360    0.24620    0.46750    1.000
    O1       O        0.78480    0.39020    0.30640    1.000
    O2       O        0.62200    0.50340    0.27630    1.000
    O3       O        0.04730    0.25890    0.61150    1.000
    O4       O        0.91140    0.39810    0.57430    1.000
    O5       O        0.68180    0.72980    0.48890    1.000
    O6       O        0.44470    0.65970    0.53250    1.000
    O7       O        0.44270    0.10480    0.77410    1.000
    O8       O        0.21520    0.60980    0.69360    1.000
    O9       O        0.37800    0.49660    0.72370    1.000
    O10      O        0.95270    0.74110    0.38850    1.000
    O11      O        0.08860    0.60190    0.42570    1.000
    O12      O        0.31820    0.27020    0.51110    1.000
    O13      O        0.55530    0.34030    0.46750    1.000
    O14      O        0.55730    0.89520    0.22590    1.000
