# CIF file generated by openbabel 3.1.0, see https://openbabel.org
data_I
_chemical_name_common 'image0'
_cell_length_a 12.813
_cell_length_b 18.557
_cell_length_c 7.259
_cell_angle_alpha 90
_cell_angle_beta 111.973
_cell_angle_gamma 90
_space_group_name_H-M_alt 'P 1'
_space_group_name_Hall 'P 1'
loop_
    _symmetry_equiv_pos_as_xyz
    x,y,z
loop_
    _atom_site_label
    _atom_site_type_symbol
    _atom_site_fract_x
    _atom_site_fract_y
    _atom_site_fract_z
    _atom_site_occupancy
    N1       N        0.11460    0.04840    0.23500    1.000
    N2       N        0.11800    0.04480    0.42300    1.000
    C1       C        0.19800    0.08860    0.24500    1.000
    H1       H        0.21620    0.10010    0.13250    1.000
    N3       N        0.25800    0.11270    0.42600    1.000
    C2       C        0.20500    0.08470    0.53700    1.000
    H2       H        0.22690    0.09190    0.67590    1.000
    C3       C        0.29700    0.23980    0.51600    1.000
    H3       H        0.35080    0.27750    0.55810    1.000
    C4       C        0.34700    0.17130    0.50400    1.000
    H4       H        0.40120    0.15760    0.63730    1.000
    H5       H        0.38920    0.17560    0.41440    1.000
    N4       N        0.61460    0.54840    0.23500    1.000
    N5       N        0.61800    0.54480    0.42300    1.000
    C5       C        0.69800    0.58860    0.24500    1.000
    H6       H        0.71620    0.60010    0.13250    1.000
    N6       N        0.75800    0.61270    0.42600    1.000
    C6       C        0.70500    0.58470    0.53700    1.000
    H7       H        0.72690    0.59190    0.67590    1.000
    C7       C        0.79700    0.73980    0.51600    1.000
    H8       H        0.85080    0.77750    0.55810    1.000
    C8       C        0.84700    0.67130    0.50400    1.000
    H9       H        0.90120    0.65760    0.63730    1.000
    H10      H        0.88920    0.67560    0.41440    1.000
    N7       N        0.88540    0.04840    0.26500    1.000
    N8       N        0.88200    0.04480    0.07700    1.000
    C9       C        0.80200    0.08860    0.25500    1.000
    H11      H        0.78380    0.10010    0.36750    1.000
    N9       N        0.74200    0.11270    0.07400    1.000
    C10      C        0.79500    0.08470    0.96300    1.000
    H12      H        0.77310    0.09190    0.82410    1.000
    C11      C        0.70300    0.23980    0.98400    1.000
    H13      H        0.64920    0.27750    0.94190    1.000
    C12      C        0.65300    0.17130    0.99600    1.000
    H14      H        0.59880    0.15760    0.86270    1.000
    H15      H        0.61080    0.17560    0.08560    1.000
    N10      N        0.38540    0.54840    0.26500    1.000
    N11      N        0.38200    0.54480    0.07700    1.000
    C13      C        0.30200    0.58860    0.25500    1.000
    H16      H        0.28380    0.60010    0.36750    1.000
    N12      N        0.24200    0.61270    0.07400    1.000
    C14      C        0.29500    0.58470    0.96300    1.000
    H17      H        0.27310    0.59190    0.82410    1.000
    C15      C        0.20300    0.73980    0.98400    1.000
    H18      H        0.14920    0.77750    0.94190    1.000
    C16      C        0.15300    0.67130    0.99600    1.000
    H19      H        0.09880    0.65760    0.86270    1.000
    H20      H        0.11080    0.67560    0.08560    1.000
    N13      N        0.88540    0.95160    0.76500    1.000
    N14      N        0.88200    0.95520    0.57700    1.000
    C17      C        0.80200    0.91140    0.75500    1.000
    H21      H        0.78380    0.89990    0.86750    1.000
    N15      N        0.74200    0.88730    0.57400    1.000
    C18      C        0.79500    0.91530    0.46300    1.000
    H22      H        0.77310    0.90810    0.32410    1.000
    C19      C        0.70300    0.76020    0.48400    1.000
    H23      H        0.64920    0.72250    0.44190    1.000
    C20      C        0.65300    0.82870    0.49600    1.000
    H24      H        0.59880    0.84240    0.36270    1.000
    H25      H        0.61080    0.82440    0.58560    1.000
    N16      N        0.38540    0.45160    0.76500    1.000
    N17      N        0.38200    0.45520    0.57700    1.000
    C21      C        0.30200    0.41140    0.75500    1.000
    H26      H        0.28380    0.39990    0.86750    1.000
    N18      N        0.24200    0.38730    0.57400    1.000
    C22      C        0.29500    0.41530    0.46300    1.000
    H27      H        0.27310    0.40810    0.32410    1.000
    C23      C        0.20300    0.26020    0.48400    1.000
    H28      H        0.14920    0.22250    0.44190    1.000
    C24      C        0.15300    0.32870    0.49600    1.000
    H29      H        0.09880    0.34240    0.36270    1.000
    H30      H        0.11080    0.32440    0.58560    1.000
    N19      N        0.11460    0.95160    0.73500    1.000
    N20      N        0.11800    0.95520    0.92300    1.000
    C25      C        0.19800    0.91140    0.74500    1.000
    H31      H        0.21620    0.89990    0.63250    1.000
    N21      N        0.25800    0.88730    0.92600    1.000
    C26      C        0.20500    0.91530    0.03700    1.000
    H32      H        0.22690    0.90810    0.17590    1.000
    C27      C        0.29700    0.76020    0.01600    1.000
    H33      H        0.35080    0.72250    0.05810    1.000
    C28      C        0.34700    0.82870    0.00400    1.000
    H34      H        0.40120    0.84240    0.13730    1.000
    H35      H        0.38920    0.82440    0.91440    1.000
    N22      N        0.61460    0.45160    0.73500    1.000
    N23      N        0.61800    0.45520    0.92300    1.000
    C29      C        0.69800    0.41140    0.74500    1.000
    H36      H        0.71620    0.39990    0.63250    1.000
    N24      N        0.75800    0.38730    0.92600    1.000
    C30      C        0.70500    0.41530    0.03700    1.000
    H37      H        0.72690    0.40810    0.17590    1.000
    C31      C        0.79700    0.26020    0.01600    1.000
    H38      H        0.85080    0.22250    0.05810    1.000
    C32      C        0.84700    0.32870    0.00400    1.000
    H39      H        0.90120    0.34240    0.13730    1.000
    H40      H        0.88920    0.32440    0.91440    1.000
    Cu1      Cu       0.00000    0.00000    0.00000    1.000
    Cu2      Cu       0.50000    0.50000    0.00000    1.000
    Cu3      Cu       0.00000    0.00000    0.50000    1.000
    Cu4      Cu       0.50000    0.50000    0.50000    1.000
