# CIF file generated by openbabel 3.1.0, see https://openbabel.org
data_I
_chemical_name_common 'LULJAE_clean'
_cell_length_a 7.0368
_cell_length_b 8.216
_cell_length_c 10.4897
_cell_angle_alpha 108.859
_cell_angle_beta 109.598
_cell_angle_gamma 90
_space_group_name_H-M_alt 'P 1'
_space_group_name_Hall 'P 1'
loop_
    _symmetry_equiv_pos_as_xyz
    x,y,z
loop_
    _atom_site_label
    _atom_site_type_symbol
    _atom_site_fract_x
    _atom_site_fract_y
    _atom_site_fract_z
    _atom_site_occupancy
    Co1      Co       0.00000    0.00000    0.50000    1.000
    Co2      Co       0.50000    0.50000    0.50000    1.000
    H1       H        0.05630    0.01300    0.80660    1.000
    H2       H        0.82600    0.86900    0.92600    1.000
    H3       H        0.24970    0.48700    0.19340    1.000
    H4       H        0.90000    0.63100    0.07400    1.000
    H5       H        0.94370    0.98700    0.19340    1.000
    H6       H        0.17400    0.13100    0.07400    1.000
    H7       H        0.75030    0.51300    0.80660    1.000
    H8       H        0.10000    0.36900    0.92600    1.000
    C1       C        0.81567    0.82004    0.66434    1.000
    C2       C        0.95257    0.93978    0.80674    1.000
    C3       C        0.93478    0.94283    0.92976    1.000
    C4       C        0.15133    0.67996    0.33566    1.000
    C5       C        0.14583    0.56022    0.19326    1.000
    C6       C        0.00502    0.55717    0.07024    1.000
    C7       C        0.18433    0.17996    0.33566    1.000
    C8       C        0.04743    0.06022    0.19326    1.000
    C9       C        0.06522    0.05717    0.07024    1.000
    C10      C        0.84867    0.32004    0.66434    1.000
    C11      C        0.85417    0.43978    0.80674    1.000
    C12      C        0.99498    0.44283    0.92976    1.000
    O1       O        0.84128    0.82725    0.55222    1.000
    O2       O        0.68230    0.71660    0.66218    1.000
    O3       O        0.28906    0.67275    0.44778    1.000
    O4       O        0.02012    0.78340    0.33782    1.000
    O5       O        0.15872    0.17275    0.44778    1.000
    O6       O        0.31770    0.28340    0.33782    1.000
    O7       O        0.71094    0.32725    0.55222    1.000
    O8       O        0.97988    0.21660    0.66218    1.000
