data_functionalizedCrystal
_audit_creation_method	'EQeq! by Chris Wilmer'
_symmetry_space_group_name_H-M	'P1'
_symmetry_Int_Tables_number	1
_symmetry_cell_setting	triclinic
loop_
_symmetry_equiv_pos_as_xyz
  x,y,z
_cell_length_a	12.254
_cell_length_b	20.62
_cell_length_c	7.804
_cell_angle_alpha	90
_cell_angle_beta	90
_cell_angle_gamma	90
loop_
_atom_site_label
_atom_site_type_symbol
_atom_site_fract_x
_atom_site_fract_y
_atom_site_fract_z
_atom_site_charge
Mof_N 	N 	0.2884	0.2077	0.2174	-0.077
Mof_N 	N 	0.0371	0.1548	0.226	-0.076
Mof_C 	C 	0.3335	0.2326	0.3279	-0.252
Mof_C 	C 	0.9873	0.1802	0.3335	-0.254
Mof_C 	C 	0.231	0.3562	0.036	-0.176
Mof_C 	C 	0.33	0.038	0.0418	-0.326
Mof_H 	H 	0.02601	0.27267	0.11262	0.072
Mof_H 	H 	0.07016	0.36071	0.09038	-0.08
Mof_H 	H 	0.1037	0.35227	0.87253	0.231
Mof_H 	H 	0.17072	0.33848	0.11262	0.005
Mof_H 	H 	0.2853	0.32698	0.96038	-0.101
Mof_H 	H 	0.24064	0.34753	0.17011	0.031
Mof_H 	H 	0.20692	0.45224	0.09184	0.253
Mof_H 	H 	0.22282	0.434	0.87423	-0.079
Mof_H 	H 	0.39617	0.43836	0.11262	0.06
Mof_H 	H 	0.07822	0.03594	0.11262	0.014
Mof_H 	H 	0.26453	0.06351	0.11262	0.17
Mof_H 	H 	0.18103	0.04975	0.11262	0.022
Mof_N 	N 	0.7116	0.7923	0.2174	-0.078
Mof_N 	N 	0.9629	0.8452	0.226	-0.077
Mof_C 	C 	0.6665	0.7674	0.3279	-0.253
Mof_C 	C 	0.0127	0.8198	0.3335	-0.255
Mof_C 	C 	0.769	0.6438	0.036	-0.177
Mof_C 	C 	0.67	0.962	0.0418	-0.327
Mof_H 	H 	0.97399	0.72733	0.11262	0.071
Mof_H 	H 	0.92984	0.63929	0.09038	-0.081
Mof_H 	H 	0.8963	0.64773	0.87253	0.231
Mof_H 	H 	0.82928	0.66152	0.11262	0.005
Mof_H 	H 	0.7147	0.67302	0.96038	-0.101
Mof_H 	H 	0.75936	0.65247	0.17011	0.031
Mof_H 	H 	0.79308	0.54776	0.09184	0.253
Mof_H 	H 	0.77718	0.566	0.87423	-0.079
Mof_H 	H 	0.60383	0.56164	0.11262	0.06
Mof_H 	H 	0.92178	0.96406	0.11262	0.014
Mof_H 	H 	0.73547	0.93649	0.11262	0.17
Mof_H 	H 	0.81897	0.95025	0.11262	0.022
Mof_N 	N 	0.2116	0.7077	0.7826	-0.097
Mof_N 	N 	0.4629	0.6548	0.774	-0.093
Mof_C 	C 	0.1665	0.7326	0.6721	-0.255
Mof_C 	C 	0.5127	0.6802	0.6665	-0.258
Mof_C 	C 	0.269	0.8562	0.964	-0.034
Mof_C 	C 	0.17	0.538	0.9582	0.55
Mof_H 	H 	0.47399	0.77267	0.88738	0.033
Mof_H 	H 	0.42984	0.86071	0.90962	-0.301
Mof_H 	H 	0.3963	0.85227	0.12747	0.024
Mof_H 	H 	0.32928	0.83848	0.88738	-0.117
Mof_H 	H 	0.2147	0.82698	0.03962	0.187
Mof_H 	H 	0.25936	0.84753	0.82989	0.049
Mof_H 	H 	0.29308	0.95224	0.90816	0.045
Mof_H 	H 	0.27718	0.934	0.12577	-0.205
Mof_H 	H 	0.10383	0.93836	0.88738	0.022
Mof_H 	H 	0.42178	0.53594	0.88738	-0.021
Mof_H 	H 	0.23547	0.56351	0.88738	-0.056
Mof_H 	H 	0.31897	0.54975	0.88738	0.031
Mof_N 	N 	0.7884	0.2923	0.7826	-0.097
Mof_N 	N 	0.5371	0.3452	0.774	-0.093
Mof_C 	C 	0.8335	0.2674	0.6721	-0.255
Mof_C 	C 	0.4873	0.3198	0.6665	-0.258
Mof_C 	C 	0.731	0.1438	0.964	-0.034
Mof_C 	C 	0.83	0.462	0.9582	0.55
Mof_H 	H 	0.52601	0.22733	0.88738	0.033
Mof_H 	H 	0.57016	0.13929	0.90962	-0.301
Mof_H 	H 	0.6037	0.14773	0.12747	0.024
Mof_H 	H 	0.67072	0.16152	0.88738	-0.117
Mof_H 	H 	0.7853	0.17302	0.03962	0.187
Mof_H 	H 	0.74064	0.15247	0.82989	0.049
Mof_H 	H 	0.70692	0.04776	0.90816	0.045
Mof_H 	H 	0.72282	0.066	0.12577	-0.205
Mof_H 	H 	0.89617	0.06164	0.88738	0.022
Mof_H 	H 	0.57822	0.46406	0.88738	-0.021
Mof_H 	H 	0.76453	0.43649	0.88738	-0.056
Mof_H 	H 	0.68103	0.45025	0.88738	0.031
Mof_N 	N 	0.7116	0.7923	0.7826	-0.097
Mof_N 	N 	0.9629	0.8452	0.774	-0.093
Mof_C 	C 	0.6665	0.7674	0.6721	-0.255
Mof_C 	C 	0.0127	0.8198	0.6665	-0.257
Mof_C 	C 	0.769	0.6438	0.964	-0.034
Mof_C 	C 	0.67	0.962	0.9582	0.549
Mof_H 	H 	0.97399	0.72733	0.88738	0.033
Mof_H 	H 	0.92984	0.63929	0.90962	-0.306
Mof_H 	H 	0.8963	0.64773	0.12747	0.029
Mof_H 	H 	0.82928	0.66152	0.88738	-0.12
Mof_H 	H 	0.7147	0.67302	0.03962	0.187
Mof_H 	H 	0.75936	0.65247	0.82989	0.049
Mof_H 	H 	0.79308	0.54776	0.90816	0.046
Mof_H 	H 	0.77718	0.566	0.12577	-0.207
Mof_H 	H 	0.60383	0.56164	0.88738	0.021
Mof_H 	H 	0.92178	0.96406	0.88738	-0.021
Mof_H 	H 	0.73547	0.93649	0.88738	-0.055
Mof_H 	H 	0.81897	0.95025	0.88738	0.032
Mof_N 	N 	0.2884	0.2077	0.7826	-0.097
Mof_N 	N 	0.0371	0.1548	0.774	-0.093
Mof_C 	C 	0.3335	0.2326	0.6721	-0.255
Mof_C 	C 	0.9873	0.1802	0.6665	-0.257
Mof_C 	C 	0.231	0.3562	0.964	-0.034
Mof_C 	C 	0.33	0.038	0.9582	0.549
Mof_H 	H 	0.02601	0.27267	0.88738	0.033
Mof_H 	H 	0.07016	0.36071	0.90962	-0.306
Mof_H 	H 	0.1037	0.35227	0.12747	0.029
Mof_H 	H 	0.17072	0.33848	0.88738	-0.12
Mof_H 	H 	0.2853	0.32698	0.03962	0.187
Mof_H 	H 	0.24064	0.34753	0.82989	0.049
Mof_H 	H 	0.20692	0.45224	0.90816	0.046
Mof_H 	H 	0.22282	0.434	0.12577	-0.207
Mof_H 	H 	0.39617	0.43836	0.88738	0.021
Mof_H 	H 	0.07822	0.03594	0.88738	-0.021
Mof_H 	H 	0.26453	0.06351	0.88738	-0.055
Mof_H 	H 	0.18103	0.04975	0.88738	0.032
Mof_N 	N 	0.7884	0.2923	0.2174	-0.078
Mof_N 	N 	0.5371	0.3452	0.226	-0.077
Mof_C 	C 	0.8335	0.2674	0.3279	-0.253
Mof_C 	C 	0.4873	0.3198	0.3335	-0.254
Mof_C 	C 	0.731	0.1438	0.036	-0.177
Mof_C 	C 	0.83	0.462	0.0418	-0.329
Mof_H 	H 	0.52601	0.22733	0.11262	0.071
Mof_H 	H 	0.57016	0.13929	0.09038	-0.075
Mof_H 	H 	0.6037	0.14773	0.87253	0.227
Mof_H 	H 	0.67072	0.16152	0.11262	0.008
Mof_H 	H 	0.7853	0.17302	0.96038	-0.1
Mof_H 	H 	0.74064	0.15247	0.17011	0.031
Mof_H 	H 	0.70692	0.04776	0.09184	0.251
Mof_H 	H 	0.72282	0.066	0.87423	-0.078
Mof_H 	H 	0.89617	0.06164	0.11262	0.06
Mof_H 	H 	0.57822	0.46406	0.11262	0.014
Mof_H 	H 	0.76453	0.43649	0.11262	0.171
Mof_H 	H 	0.68103	0.45025	0.11262	0.022
Mof_N 	N 	0.2116	0.7077	0.2174	-0.078
Mof_N 	N 	0.4629	0.6548	0.226	-0.077
Mof_C 	C 	0.1665	0.7326	0.3279	-0.253
Mof_C 	C 	0.5127	0.6802	0.3335	-0.254
Mof_C 	C 	0.269	0.8562	0.036	-0.177
Mof_C 	C 	0.17	0.538	0.0418	-0.329
Mof_H 	H 	0.47399	0.77267	0.11262	0.071
Mof_H 	H 	0.42984	0.86071	0.09038	-0.075
Mof_H 	H 	0.3963	0.85227	0.87253	0.227
Mof_H 	H 	0.32928	0.83848	0.11262	0.008
Mof_H 	H 	0.2147	0.82698	0.96038	-0.1
Mof_H 	H 	0.25936	0.84753	0.17011	0.031
Mof_H 	H 	0.29308	0.95224	0.09184	0.251
Mof_H 	H 	0.27718	0.934	0.87423	-0.078
Mof_H 	H 	0.10383	0.93836	0.11262	0.06
Mof_H 	H 	0.42178	0.53594	0.11262	0.014
Mof_H 	H 	0.23547	0.56351	0.11262	0.171
Mof_H 	H 	0.31897	0.54975	0.11262	0.022
Mof_Cd	Cd	0.16768	0.17723	-0	0.393
Mof_N 	N 	0.0773	0.2744	-0	-0.199
Mof_N 	N 	0.2157	0.0723	-0	-0.173
Mof_C 	C 	0.1192	0.3344	-0	0.223
Mof_C 	C 	0.255	0.426	-0	0.119
Mof_C 	C 	0.355	0.4561	-0	-0.12
Mof_C 	C 	0.126	0.0256	-0	0.034
Mof_C 	C 	0.04	0.394	-0	0.166
Mof_C 	C 	0.145	0.472	-0	-0.201
Mof_C 	C 	0.331	0.061	-0	-0.237
Mof_Cd	Cd	0.83232	0.82277	-0	0.393
Mof_N 	N 	0.9227	0.7256	-0	-0.199
Mof_N 	N 	0.7843	0.9277	-0	-0.173
Mof_C 	C 	0.8808	0.6656	-0	0.223
Mof_C 	C 	0.745	0.574	-0	0.119
Mof_C 	C 	0.645	0.5439	-0	-0.12
Mof_C 	C 	0.874	0.9744	-0	0.034
Mof_C 	C 	0.96	0.606	-0	0.166
Mof_C 	C 	0.855	0.528	-0	-0.201
Mof_C 	C 	0.669	0.939	-0	-0.237
Mof_Cd	Cd	0.33232	0.67723	-0	0.393
Mof_N 	N 	0.4227	0.7744	-0	-0.198
Mof_N 	N 	0.2843	0.5723	-0	-0.173
Mof_C 	C 	0.3808	0.8344	-0	0.22
Mof_C 	C 	0.245	0.926	-0	0.118
Mof_C 	C 	0.145	0.9561	-0	-0.12
Mof_C 	C 	0.374	0.5256	-0	0.036
Mof_C 	C 	0.46	0.894	-0	0.161
Mof_C 	C 	0.355	0.972	-0	-0.199
Mof_C 	C 	0.169	0.561	-0	-0.237
Mof_Cd	Cd	0.66768	0.32277	-0	0.393
Mof_N 	N 	0.5773	0.2256	-0	-0.198
Mof_N 	N 	0.7157	0.4277	-0	-0.173
Mof_C 	C 	0.6192	0.1656	-0	0.22
Mof_C 	C 	0.755	0.074	-0	0.118
Mof_C 	C 	0.855	0.0439	-0	-0.12
Mof_C 	C 	0.626	0.4744	-0	0.036
Mof_C 	C 	0.54	0.106	-0	0.161
Mof_C 	C 	0.645	0.028	-0	-0.199
Mof_C 	C 	0.831	0.439	-0	-0.237
Mof_Ni	Ni	0.40868	0.27655	0.5	1.061
Mof_Ni	Ni	0.59132	0.72345	0.5	1.061
Mof_Ni	Ni	0.09132	0.77655	0.5	1.061
Mof_Ni	Ni	0.90868	0.22345	0.5	1.061
_end
