data_functionalizedCrystal
_audit_creation_method	'EQeq! by Chris Wilmer'
_symmetry_space_group_name_H-M	'P1'
_symmetry_Int_Tables_number	1
_symmetry_cell_setting	triclinic
loop_
_symmetry_equiv_pos_as_xyz
  x,y,z
_cell_length_a	26.28
_cell_length_b	47.8
_cell_length_c	9.585
_cell_angle_alpha	90
_cell_angle_beta	90
_cell_angle_gamma	90
loop_
_atom_site_label
_atom_site_type_symbol
_atom_site_fract_x
_atom_site_fract_y
_atom_site_fract_z
_atom_site_charge
Mof_N 	N 	0.141	0.23249	0.7013	-0.151
Mof_C 	C 	0.1044	0.2525	0.7326	0.068
Mof_H 	H 	0.0797	0.2488	0.7995	0.007
Mof_C 	C 	0.1047	0.27811	0.6639	-0.137
Mof_H 	H 	0.0801	0.2915	0.6848	0.08
Mof_C 	C 	0.1416	0.28371	0.5639	0.081
Mof_C 	C 	0.1782	0.2637	0.5326	-0.138
Mof_H 	H 	0.2029	0.2674	0.4657	0.077
Mof_C 	C 	0.1779	0.23809	0.6013	0.066
Mof_H 	H 	0.2025	0.2247	0.5803	0.006
Mof_C 	C 	0.1464	0.3101	0.473	-0.018
Mof_C 	C 	0.173	0.3294	0.423	-0.034
Mof_C 	C 	0.1404	0.3529	0.3597	0.106
Mof_C 	C 	0.1737	0.3577	0.2497	-0.152
Mof_H 	H 	0.1999	0.3452	0.2318	0.085
Mof_C 	C 	0.1679	0.3813	0.1665	0.068
Mof_H 	H 	0.1902	0.3845	0.0929	0.005
Mof_N 	N 	0.1287	0.4001	0.1933	-0.156
Mof_C 	C 	0.0954	0.3953	0.3033	0.068
Mof_H 	H 	0.0692	0.4079	0.3212	0.005
Mof_C 	C 	0.1012	0.3717	0.3865	-0.151
Mof_H 	H 	0.0789	0.3685	0.4601	0.084
Mof_C 	C 	0.3702	0.198	0.042	0.006
Mof_H 	H 	0.3706	0.2133	0.1022	0.024
Mof_N 	N 	0.2222	0.19053	0.857	-0.148
Mof_C 	C 	0.2372	0.21166	0.9477	0.051
Mof_H 	H 	0.2142	0.2255	0.9739	0.01
Mof_C 	C 	0.2867	0.21215	0.9994	-0.108
Mof_H 	H 	0.2967	0.2263	0.0601	0.056
Mof_C 	C 	0.3211	0.1915	0.9602	0.062
Mof_C 	C 	0.3061	0.1704	0.8695	-0.127
Mof_H 	H 	0.3291	0.1566	0.8433	0.072
Mof_C 	C 	0.2567	0.16989	0.8178	0.061
Mof_H 	H 	0.2466	0.1558	0.7571	0.005
Mof_C 	C 	0.4095	0.1836	0.029	-0.212
Mof_H 	H 	0.4066	0.1698	0.9612	0.106
Mof_C 	C 	0.455	0.1835	0.0932	0.205
Mof_C 	C 	0.4635	0.199	0.2139	-0.217
Mof_H 	H 	0.4367	0.2085	0.2561	0.109
Mof_C 	C 	0.512	0.2002	0.2715	0.105
Mof_H 	H 	0.5177	0.2105	0.3523	-0.01
Mof_N 	N 	0.552	0.186	0.2085	-0.167
Mof_C 	C 	0.5435	0.1705	0.0878	0.112
Mof_H 	H 	0.5702	0.161	0.0456	-0.019
Mof_C 	C 	0.495	0.1693	0.0302	-0.24
Mof_H 	H 	0.4893	0.159	0.9494	0.115
Mof_Cd	Cd	0.13538	0.18827	0.8009	0.328
Mof_C 	C 	0.1193	0.3315	0.465	-0.034
Mof_N 	N 	0.141	0.73249	0.2013	-0.153
Mof_C 	C 	0.1044	0.7525	0.2326	0.067
Mof_H 	H 	0.0797	0.7488	0.2995	0.004
Mof_C 	C 	0.1047	0.77811	0.1639	-0.139
Mof_H 	H 	0.0801	0.7915	0.1848	0.077
Mof_C 	C 	0.1416	0.78371	0.0639	0.078
Mof_C 	C 	0.1782	0.7637	0.0326	-0.157
Mof_H 	H 	0.2029	0.7674	0.9657	0.088
Mof_C 	C 	0.1779	0.73809	0.1013	0.073
Mof_H 	H 	0.2025	0.7247	0.0803	0
Mof_C 	C 	0.1464	0.8101	0.973	-0.012
Mof_C 	C 	0.173	0.8294	0.923	-0.034
Mof_C 	C 	0.1404	0.8529	0.8597	0.106
Mof_C 	C 	0.1737	0.8577	0.7497	-0.153
Mof_H 	H 	0.1999	0.8452	0.7318	0.087
Mof_C 	C 	0.1679	0.8813	0.6665	0.069
Mof_H 	H 	0.1902	0.8845	0.5929	0.007
Mof_N 	N 	0.1287	0.9001	0.6933	-0.156
Mof_C 	C 	0.0954	0.8953	0.8033	0.07
Mof_H 	H 	0.0692	0.9079	0.8212	0.005
Mof_C 	C 	0.1012	0.8717	0.8865	-0.151
Mof_H 	H 	0.0789	0.8685	0.9601	0.086
Mof_C 	C 	0.3702	0.698	0.542	-0.021
Mof_H 	H 	0.3706	0.7133	0.6022	0.035
Mof_N 	N 	0.2222	0.69053	0.357	-0.152
Mof_C 	C 	0.2372	0.71166	0.4477	0.064
Mof_H 	H 	0.2142	0.7255	0.4739	0.003
Mof_C 	C 	0.2867	0.71215	0.4994	-0.137
Mof_H 	H 	0.2967	0.7263	0.5601	0.073
Mof_C 	C 	0.3211	0.6915	0.4602	0.076
Mof_C 	C 	0.3061	0.6704	0.3695	-0.138
Mof_H 	H 	0.3291	0.6566	0.3433	0.074
Mof_C 	C 	0.2567	0.66989	0.3178	0.065
Mof_H 	H 	0.2466	0.6558	0.2571	0.002
Mof_C 	C 	0.4095	0.6836	0.529	-0.158
Mof_H 	H 	0.4066	0.6698	0.4612	0.081
Mof_C 	C 	0.455	0.6835	0.5932	0.167
Mof_C 	C 	0.4635	0.699	0.7139	-0.192
Mof_H 	H 	0.4367	0.7085	0.7561	0.101
Mof_C 	C 	0.512	0.7002	0.7715	0.093
Mof_H 	H 	0.5177	0.7105	0.8523	-0.004
Mof_N 	N 	0.552	0.686	0.7085	-0.161
Mof_C 	C 	0.5435	0.6705	0.5878	0.091
Mof_H 	H 	0.5702	0.661	0.5456	-0.009
Mof_C 	C 	0.495	0.6693	0.5302	-0.195
Mof_H 	H 	0.4893	0.659	0.4494	0.093
Mof_Cd	Cd	0.13538	0.68827	0.3009	0.325
Mof_C 	C 	0.1193	0.8315	0.965	-0.033
Mof_N 	N 	0.641	0.23249	0.2013	-0.153
Mof_C 	C 	0.6044	0.2525	0.2326	0.067
Mof_H 	H 	0.5797	0.2488	0.2995	0.004
Mof_C 	C 	0.6047	0.27811	0.1639	-0.139
Mof_H 	H 	0.5801	0.2915	0.1848	0.077
Mof_C 	C 	0.6416	0.28371	0.0639	0.078
Mof_C 	C 	0.6782	0.2637	0.0326	-0.157
Mof_H 	H 	0.7029	0.2674	0.9657	0.088
Mof_C 	C 	0.6779	0.23809	0.1013	0.073
Mof_H 	H 	0.7025	0.2247	0.0803	0
Mof_C 	C 	0.6464	0.3101	0.973	-0.012
Mof_C 	C 	0.673	0.3294	0.923	-0.034
Mof_C 	C 	0.6404	0.3529	0.8597	0.106
Mof_C 	C 	0.6737	0.3577	0.7497	-0.153
Mof_H 	H 	0.6999	0.3452	0.7318	0.087
Mof_C 	C 	0.6679	0.3813	0.6665	0.069
Mof_H 	H 	0.6902	0.3845	0.5929	0.007
Mof_N 	N 	0.6287	0.4001	0.6933	-0.156
Mof_C 	C 	0.5954	0.3953	0.8033	0.07
Mof_H 	H 	0.5692	0.4079	0.8212	0.005
Mof_C 	C 	0.6012	0.3717	0.8865	-0.151
Mof_H 	H 	0.5789	0.3685	0.9601	0.086
Mof_C 	C 	0.8702	0.198	0.542	-0.021
Mof_H 	H 	0.8706	0.2133	0.6022	0.035
Mof_N 	N 	0.7222	0.19053	0.357	-0.152
Mof_C 	C 	0.7372	0.21166	0.4477	0.064
Mof_H 	H 	0.7142	0.2255	0.4739	0.003
Mof_C 	C 	0.7867	0.21215	0.4994	-0.137
Mof_H 	H 	0.7967	0.2263	0.5601	0.073
Mof_C 	C 	0.8211	0.1915	0.4602	0.076
Mof_C 	C 	0.8061	0.1704	0.3695	-0.138
Mof_H 	H 	0.8291	0.1566	0.3433	0.074
Mof_C 	C 	0.7567	0.16989	0.3178	0.065
Mof_H 	H 	0.7466	0.1558	0.2571	0.002
Mof_C 	C 	0.9095	0.1836	0.529	-0.158
Mof_H 	H 	0.9066	0.1698	0.4612	0.081
Mof_C 	C 	0.955	0.1835	0.5932	0.167
Mof_C 	C 	0.9635	0.199	0.7139	-0.192
Mof_H 	H 	0.9367	0.2085	0.7561	0.101
Mof_C 	C 	0.012	0.2002	0.7715	0.093
Mof_H 	H 	0.0177	0.2105	0.8523	-0.004
Mof_N 	N 	0.052	0.186	0.7085	-0.161
Mof_C 	C 	0.0435	0.1705	0.5878	0.091
Mof_H 	H 	0.0702	0.161	0.5456	-0.009
Mof_C 	C 	0.995	0.1693	0.5302	-0.195
Mof_H 	H 	0.9893	0.159	0.4494	0.093
Mof_Cd	Cd	0.63538	0.18827	0.3009	0.325
Mof_C 	C 	0.6193	0.3315	0.965	-0.033
Mof_N 	N 	0.641	0.73249	0.7013	-0.152
Mof_C 	C 	0.6044	0.7525	0.7326	0.067
Mof_H 	H 	0.5797	0.7488	0.7995	0.006
Mof_C 	C 	0.6047	0.77811	0.6639	-0.138
Mof_H 	H 	0.5801	0.7915	0.6848	0.079
Mof_C 	C 	0.6416	0.78371	0.5639	0.08
Mof_C 	C 	0.6782	0.7637	0.5326	-0.139
Mof_H 	H 	0.7029	0.7674	0.4657	0.076
Mof_C 	C 	0.6779	0.73809	0.6013	0.065
Mof_H 	H 	0.7025	0.7247	0.5803	0.005
Mof_C 	C 	0.6464	0.8101	0.473	-0.019
Mof_C 	C 	0.673	0.8294	0.423	-0.035
Mof_C 	C 	0.6404	0.8529	0.3597	0.105
Mof_C 	C 	0.6737	0.8577	0.2497	-0.153
Mof_H 	H 	0.6999	0.8452	0.2318	0.085
Mof_C 	C 	0.6679	0.8813	0.1665	0.068
Mof_H 	H 	0.6902	0.8845	0.0929	0.005
Mof_N 	N 	0.6287	0.9001	0.1933	-0.156
Mof_C 	C 	0.5954	0.8953	0.3033	0.068
Mof_H 	H 	0.5692	0.9079	0.3212	0.005
Mof_C 	C 	0.6012	0.8717	0.3865	-0.151
Mof_H 	H 	0.5789	0.8685	0.4601	0.084
Mof_C 	C 	0.8702	0.698	0.042	0.006
Mof_H 	H 	0.8706	0.7133	0.1022	0.024
Mof_N 	N 	0.7222	0.69053	0.857	-0.148
Mof_C 	C 	0.7372	0.71166	0.9477	0.051
Mof_H 	H 	0.7142	0.7255	0.9739	0.01
Mof_C 	C 	0.7867	0.71215	0.9994	-0.108
Mof_H 	H 	0.7967	0.7263	0.0601	0.056
Mof_C 	C 	0.8211	0.6915	0.9602	0.062
Mof_C 	C 	0.8061	0.6704	0.8695	-0.127
Mof_H 	H 	0.8291	0.6566	0.8433	0.072
Mof_C 	C 	0.7567	0.66989	0.8178	0.061
Mof_H 	H 	0.7466	0.6558	0.7571	0.005
Mof_C 	C 	0.9095	0.6836	0.029	-0.212
Mof_H 	H 	0.9066	0.6698	0.9612	0.105
Mof_C 	C 	0.955	0.6835	0.0932	0.205
Mof_C 	C 	0.9635	0.699	0.2139	-0.217
Mof_H 	H 	0.9367	0.7085	0.2561	0.109
Mof_C 	C 	0.012	0.7002	0.2715	0.105
Mof_H 	H 	0.0177	0.7105	0.3523	-0.01
Mof_N 	N 	0.052	0.686	0.2085	-0.167
Mof_C 	C 	0.0435	0.6705	0.0878	0.112
Mof_H 	H 	0.0702	0.661	0.0456	-0.019
Mof_C 	C 	0.995	0.6693	0.0302	-0.24
Mof_H 	H 	0.9893	0.659	0.9494	0.115
Mof_Cd	Cd	0.63538	0.68827	0.8009	0.328
Mof_C 	C 	0.6193	0.8315	0.465	-0.034
Mof_N 	N 	0.109	0.48249	0.9513	-0.153
Mof_C 	C 	0.1456	0.5025	0.9826	0.092
Mof_H 	H 	0.1703	0.4988	0.0495	-0.011
Mof_C 	C 	0.1453	0.52811	0.9139	-0.151
Mof_H 	H 	0.1699	0.5415	0.9348	0.086
Mof_C 	C 	0.1084	0.53371	0.8139	0.088
Mof_C 	C 	0.0718	0.5137	0.7826	-0.143
Mof_H 	H 	0.0471	0.5174	0.7157	0.078
Mof_C 	C 	0.0721	0.48809	0.8513	0.07
Mof_H 	H 	0.0475	0.4747	0.8303	0.006
Mof_C 	C 	0.1036	0.5601	0.723	-0.022
Mof_C 	C 	0.077	0.5794	0.673	-0.032
Mof_C 	C 	0.1096	0.6029	0.6097	0.104
Mof_C 	C 	0.0763	0.6077	0.4997	-0.152
Mof_H 	H 	0.0501	0.5952	0.4818	0.087
Mof_C 	C 	0.0821	0.6313	0.4165	0.068
Mof_H 	H 	0.0598	0.6345	0.3429	0.007
Mof_N 	N 	0.1213	0.6501	0.4433	-0.156
Mof_C 	C 	0.1546	0.6453	0.5533	0.069
Mof_H 	H 	0.1808	0.6579	0.5712	0.005
Mof_C 	C 	0.1488	0.6217	0.6365	-0.15
Mof_H 	H 	0.1711	0.6185	0.7101	0.085
Mof_C 	C 	0.8798	0.448	0.292	-0.021
Mof_H 	H 	0.8794	0.4633	0.3522	0.035
Mof_N 	N 	0.0278	0.44053	0.107	-0.153
Mof_C 	C 	0.0128	0.46166	0.1977	0.062
Mof_H 	H 	0.0358	0.4755	0.2239	0.002
Mof_C 	C 	0.9633	0.46215	0.2494	-0.137
Mof_H 	H 	0.9533	0.4763	0.3101	0.072
Mof_C 	C 	0.9289	0.4415	0.2102	0.074
Mof_C 	C 	0.9439	0.4204	0.1195	-0.138
Mof_H 	H 	0.9209	0.4066	0.0933	0.073
Mof_C 	C 	0.9933	0.41989	0.0678	0.064
Mof_H 	H 	0.0034	0.4058	0.0071	0.001
Mof_C 	C 	0.8405	0.4336	0.279	-0.159
Mof_H 	H 	0.8434	0.4198	0.2112	0.081
Mof_C 	C 	0.795	0.4335	0.3432	0.166
Mof_C 	C 	0.7865	0.449	0.4639	-0.192
Mof_H 	H 	0.8133	0.4585	0.5061	0.1
Mof_C 	C 	0.738	0.4502	0.5215	0.092
Mof_H 	H 	0.7323	0.4605	0.6023	-0.005
Mof_N 	N 	0.698	0.436	0.4585	-0.161
Mof_C 	C 	0.7065	0.4205	0.3378	0.091
Mof_H 	H 	0.6798	0.411	0.2956	-0.01
Mof_C 	C 	0.755	0.4193	0.2802	-0.196
Mof_H 	H 	0.7607	0.409	0.1994	0.092
Mof_Cd	Cd	0.11462	0.43827	0.0509	0.318
Mof_C 	C 	0.1307	0.5815	0.715	-0.032
Mof_N 	N 	0.109	0.98249	0.4513	-0.152
Mof_C 	C 	0.1456	0.0025	0.4826	0.067
Mof_H 	H 	0.1703	0.9988	0.5495	0.004
Mof_C 	C 	0.1453	0.02811	0.4139	-0.139
Mof_H 	H 	0.1699	0.0415	0.4348	0.079
Mof_C 	C 	0.1084	0.03371	0.3139	0.08
Mof_C 	C 	0.0718	0.0137	0.2826	-0.139
Mof_H 	H 	0.0471	0.0174	0.2157	0.075
Mof_C 	C 	0.0721	0.98809	0.3513	0.065
Mof_H 	H 	0.0475	0.9747	0.3303	0.004
Mof_C 	C 	0.1036	0.0601	0.223	-0.023
Mof_C 	C 	0.077	0.0794	0.173	-0.034
Mof_C 	C 	0.1096	0.1029	0.1097	0.085
Mof_C 	C 	0.0763	0.1077	0.9997	-0.13
Mof_H 	H 	0.0501	0.0952	0.9818	0.082
Mof_C 	C 	0.0821	0.1313	0.9165	0.06
Mof_H 	H 	0.0598	0.1345	0.8429	0.01
Mof_N 	N 	0.1213	0.1501	0.9433	-0.148
Mof_C 	C 	0.1546	0.1453	0.0533	0.052
Mof_H 	H 	0.1808	0.1579	0.0712	0.007
Mof_C 	C 	0.1488	0.1217	0.1365	-0.139
Mof_H 	H 	0.1711	0.1185	0.2101	0.079
Mof_C 	C 	0.8798	0.948	0.792	-0.048
Mof_H 	H 	0.8794	0.9633	0.8522	0.047
Mof_N 	N 	0.0278	0.94053	0.607	-0.153
Mof_C 	C 	0.0128	0.96166	0.6977	0.068
Mof_H 	H 	0.0358	0.9755	0.7239	0.002
Mof_C 	C 	0.9633	0.96215	0.7494	-0.144
Mof_H 	H 	0.9533	0.9763	0.8101	0.076
Mof_C 	C 	0.9289	0.9415	0.7102	0.088
Mof_C 	C 	0.9439	0.9204	0.6195	-0.146
Mof_H 	H 	0.9209	0.9066	0.5933	0.078
Mof_C 	C 	0.9933	0.91989	0.5678	0.069
Mof_H 	H 	0.0034	0.9058	0.5071	0.001
Mof_C 	C 	0.8405	0.9336	0.779	-0.118
Mof_H 	H 	0.8434	0.9198	0.7112	0.069
Mof_C 	C 	0.795	0.9335	0.8432	0.124
Mof_C 	C 	0.7865	0.949	0.9639	-0.125
Mof_H 	H 	0.8133	0.9585	0.0061	0.069
Mof_C 	C 	0.738	0.9502	0.0215	0.043
Mof_H 	H 	0.7323	0.9605	0.1023	0.01
Mof_N 	N 	0.698	0.936	0.9585	-0.145
Mof_C 	C 	0.7065	0.9205	0.8378	0.077
Mof_H 	H 	0.6798	0.911	0.7956	-0.003
Mof_C 	C 	0.755	0.9193	0.7802	-0.166
Mof_H 	H 	0.7607	0.909	0.6994	0.084
Mof_Cd	Cd	0.11462	0.93827	0.5509	0.326
Mof_C 	C 	0.1307	0.0815	0.215	-0.03
Mof_N 	N 	0.609	0.48249	0.4513	-0.152
Mof_C 	C 	0.6456	0.5025	0.4826	0.067
Mof_H 	H 	0.6703	0.4988	0.5495	0.004
Mof_C 	C 	0.6453	0.52811	0.4139	-0.139
Mof_H 	H 	0.6699	0.5415	0.4348	0.079
Mof_C 	C 	0.6084	0.53371	0.3139	0.08
Mof_C 	C 	0.5718	0.5137	0.2826	-0.139
Mof_H 	H 	0.5471	0.5174	0.2157	0.075
Mof_C 	C 	0.5721	0.48809	0.3513	0.065
Mof_H 	H 	0.5475	0.4747	0.3303	0.004
Mof_C 	C 	0.6036	0.5601	0.223	-0.023
Mof_C 	C 	0.577	0.5794	0.173	-0.034
Mof_C 	C 	0.6096	0.6029	0.1097	0.085
Mof_C 	C 	0.5763	0.6077	0.9997	-0.13
Mof_H 	H 	0.5501	0.5952	0.9818	0.082
Mof_C 	C 	0.5821	0.6313	0.9165	0.06
Mof_H 	H 	0.5598	0.6345	0.8429	0.01
Mof_N 	N 	0.6213	0.6501	0.9433	-0.148
Mof_C 	C 	0.6546	0.6453	0.0533	0.052
Mof_H 	H 	0.6808	0.6579	0.0712	0.007
Mof_C 	C 	0.6488	0.6217	0.1365	-0.139
Mof_H 	H 	0.6711	0.6185	0.2101	0.079
Mof_C 	C 	0.3798	0.448	0.792	-0.048
Mof_H 	H 	0.3794	0.4633	0.8522	0.047
Mof_N 	N 	0.5278	0.44053	0.607	-0.153
Mof_C 	C 	0.5128	0.46166	0.6977	0.068
Mof_H 	H 	0.5358	0.4755	0.7239	0.002
Mof_C 	C 	0.4633	0.46215	0.7494	-0.144
Mof_H 	H 	0.4533	0.4763	0.8101	0.076
Mof_C 	C 	0.4289	0.4415	0.7102	0.088
Mof_C 	C 	0.4439	0.4204	0.6195	-0.146
Mof_H 	H 	0.4209	0.4066	0.5933	0.078
Mof_C 	C 	0.4933	0.41989	0.5678	0.069
Mof_H 	H 	0.5034	0.4058	0.5071	0.001
Mof_C 	C 	0.3405	0.4336	0.779	-0.118
Mof_H 	H 	0.3434	0.4198	0.7112	0.069
Mof_C 	C 	0.295	0.4335	0.8432	0.124
Mof_C 	C 	0.2865	0.449	0.9639	-0.125
Mof_H 	H 	0.3133	0.4585	0.0061	0.069
Mof_C 	C 	0.238	0.4502	0.0215	0.043
Mof_H 	H 	0.2323	0.4605	0.1023	0.01
Mof_N 	N 	0.198	0.436	0.9585	-0.145
Mof_C 	C 	0.2065	0.4205	0.8378	0.077
Mof_H 	H 	0.1798	0.411	0.7956	-0.003
Mof_C 	C 	0.255	0.4193	0.7802	-0.166
Mof_H 	H 	0.2607	0.409	0.6994	0.084
Mof_Cd	Cd	0.61462	0.43827	0.5509	0.326
Mof_C 	C 	0.6307	0.5815	0.215	-0.03
Mof_N 	N 	0.609	0.98249	0.9513	-0.153
Mof_C 	C 	0.6456	0.0025	0.9826	0.092
Mof_H 	H 	0.6703	0.9988	0.0495	-0.011
Mof_C 	C 	0.6453	0.02811	0.9139	-0.151
Mof_H 	H 	0.6699	0.0415	0.9348	0.086
Mof_C 	C 	0.6084	0.03371	0.8139	0.088
Mof_C 	C 	0.5718	0.0137	0.7826	-0.143
Mof_H 	H 	0.5471	0.0174	0.7157	0.078
Mof_C 	C 	0.5721	0.98809	0.8513	0.07
Mof_H 	H 	0.5475	0.9747	0.8303	0.006
Mof_C 	C 	0.6036	0.0601	0.723	-0.022
Mof_C 	C 	0.577	0.0794	0.673	-0.032
Mof_C 	C 	0.6096	0.1029	0.6097	0.104
Mof_C 	C 	0.5763	0.1077	0.4997	-0.152
Mof_H 	H 	0.5501	0.0952	0.4818	0.087
Mof_C 	C 	0.5821	0.1313	0.4165	0.068
Mof_H 	H 	0.5598	0.1345	0.3429	0.007
Mof_N 	N 	0.6213	0.1501	0.4433	-0.156
Mof_C 	C 	0.6546	0.1453	0.5533	0.069
Mof_H 	H 	0.6808	0.1579	0.5712	0.005
Mof_C 	C 	0.6488	0.1217	0.6365	-0.15
Mof_H 	H 	0.6711	0.1185	0.7101	0.085
Mof_C 	C 	0.3798	0.948	0.292	-0.021
Mof_H 	H 	0.3794	0.9633	0.3522	0.035
Mof_N 	N 	0.5278	0.94053	0.107	-0.153
Mof_C 	C 	0.5128	0.96166	0.1977	0.062
Mof_H 	H 	0.5358	0.9755	0.2239	0.002
Mof_C 	C 	0.4633	0.96215	0.2494	-0.137
Mof_H 	H 	0.4533	0.9763	0.3101	0.072
Mof_C 	C 	0.4289	0.9415	0.2102	0.074
Mof_C 	C 	0.4439	0.9204	0.1195	-0.138
Mof_H 	H 	0.4209	0.9066	0.0933	0.073
Mof_C 	C 	0.4933	0.91989	0.0678	0.064
Mof_H 	H 	0.5034	0.9058	0.0071	0.001
Mof_C 	C 	0.3405	0.9336	0.279	-0.159
Mof_H 	H 	0.3434	0.9198	0.2112	0.081
Mof_C 	C 	0.295	0.9335	0.3432	0.166
Mof_C 	C 	0.2865	0.949	0.4639	-0.192
Mof_H 	H 	0.3133	0.9585	0.5061	0.1
Mof_C 	C 	0.238	0.9502	0.5215	0.092
Mof_H 	H 	0.2323	0.9605	0.6023	-0.005
Mof_N 	N 	0.198	0.936	0.4585	-0.161
Mof_C 	C 	0.2065	0.9205	0.3378	0.091
Mof_H 	H 	0.1798	0.911	0.2956	-0.01
Mof_C 	C 	0.255	0.9193	0.2802	-0.196
Mof_H 	H 	0.2607	0.909	0.1994	0.092
Mof_Cd	Cd	0.61462	0.93827	0.0509	0.318
Mof_C 	C 	0.6307	0.0815	0.715	-0.032
Mof_N 	N 	0.859	0.76751	0.7013	-0.152
Mof_C 	C 	0.8956	0.7475	0.7326	0.067
Mof_H 	H 	0.9203	0.7512	0.7995	0.006
Mof_C 	C 	0.8953	0.72189	0.6639	-0.138
Mof_H 	H 	0.9199	0.7085	0.6848	0.079
Mof_C 	C 	0.8584	0.71629	0.5639	0.08
Mof_C 	C 	0.8218	0.7363	0.5326	-0.139
Mof_H 	H 	0.7971	0.7326	0.4657	0.076
Mof_C 	C 	0.8221	0.76191	0.6013	0.065
Mof_H 	H 	0.7975	0.7753	0.5803	0.005
Mof_C 	C 	0.8536	0.6899	0.473	-0.019
Mof_C 	C 	0.827	0.6706	0.423	-0.035
Mof_C 	C 	0.8596	0.6471	0.3597	0.105
Mof_C 	C 	0.8263	0.6423	0.2497	-0.153
Mof_H 	H 	0.8001	0.6548	0.2318	0.085
Mof_C 	C 	0.8321	0.6187	0.1665	0.068
Mof_H 	H 	0.8098	0.6155	0.0929	0.005
Mof_N 	N 	0.8713	0.5999	0.1933	-0.156
Mof_C 	C 	0.9046	0.6047	0.3033	0.068
Mof_H 	H 	0.9308	0.5921	0.3212	0.005
Mof_C 	C 	0.8988	0.6283	0.3865	-0.151
Mof_H 	H 	0.9211	0.6315	0.4601	0.084
Mof_C 	C 	0.6298	0.802	0.042	0.006
Mof_H 	H 	0.6294	0.7867	0.1022	0.024
Mof_N 	N 	0.7778	0.80947	0.857	-0.148
Mof_C 	C 	0.7628	0.78834	0.9477	0.051
Mof_H 	H 	0.7858	0.7745	0.9739	0.01
Mof_C 	C 	0.7133	0.78785	0.9994	-0.108
Mof_H 	H 	0.7033	0.7737	0.0601	0.056
Mof_C 	C 	0.6789	0.8085	0.9602	0.062
Mof_C 	C 	0.6939	0.8296	0.8695	-0.127
Mof_H 	H 	0.6709	0.8434	0.8433	0.072
Mof_C 	C 	0.7433	0.83011	0.8178	0.061
Mof_H 	H 	0.7534	0.8442	0.7571	0.005
Mof_C 	C 	0.5905	0.8164	0.029	-0.212
Mof_H 	H 	0.5934	0.8302	0.9612	0.106
Mof_C 	C 	0.545	0.8165	0.0932	0.205
Mof_C 	C 	0.5365	0.801	0.2139	-0.217
Mof_H 	H 	0.5633	0.7915	0.2561	0.109
Mof_C 	C 	0.488	0.7998	0.2715	0.105
Mof_H 	H 	0.4823	0.7895	0.3523	-0.01
Mof_N 	N 	0.448	0.814	0.2085	-0.167
Mof_C 	C 	0.4565	0.8295	0.0878	0.112
Mof_H 	H 	0.4298	0.839	0.0456	-0.019
Mof_C 	C 	0.505	0.8307	0.0302	-0.24
Mof_H 	H 	0.5107	0.841	0.9494	0.115
Mof_Cd	Cd	0.86462	0.81173	0.8009	0.328
Mof_C 	C 	0.8807	0.6685	0.465	-0.034
Mof_N 	N 	0.859	0.26751	0.2013	-0.153
Mof_C 	C 	0.8956	0.2475	0.2326	0.067
Mof_H 	H 	0.9203	0.2512	0.2995	0.004
Mof_C 	C 	0.8953	0.22189	0.1639	-0.139
Mof_H 	H 	0.9199	0.2085	0.1848	0.077
Mof_C 	C 	0.8584	0.21629	0.0639	0.078
Mof_C 	C 	0.8218	0.2363	0.0326	-0.157
Mof_H 	H 	0.7971	0.2326	0.9657	0.088
Mof_C 	C 	0.8221	0.26191	0.1013	0.073
Mof_H 	H 	0.7975	0.2753	0.0803	0
Mof_C 	C 	0.8536	0.1899	0.973	-0.012
Mof_C 	C 	0.827	0.1706	0.923	-0.034
Mof_C 	C 	0.8596	0.1471	0.8597	0.106
Mof_C 	C 	0.8263	0.1423	0.7497	-0.153
Mof_H 	H 	0.8001	0.1548	0.7318	0.087
Mof_C 	C 	0.8321	0.1187	0.6665	0.069
Mof_H 	H 	0.8098	0.1155	0.5929	0.007
Mof_N 	N 	0.8713	0.0999	0.6933	-0.156
Mof_C 	C 	0.9046	0.1047	0.8033	0.07
Mof_H 	H 	0.9308	0.0921	0.8212	0.005
Mof_C 	C 	0.8988	0.1283	0.8865	-0.151
Mof_H 	H 	0.9211	0.1315	0.9601	0.086
Mof_C 	C 	0.6298	0.302	0.542	-0.021
Mof_H 	H 	0.6294	0.2867	0.6022	0.035
Mof_N 	N 	0.7778	0.30947	0.357	-0.152
Mof_C 	C 	0.7628	0.28834	0.4477	0.064
Mof_H 	H 	0.7858	0.2745	0.4739	0.003
Mof_C 	C 	0.7133	0.28785	0.4994	-0.137
Mof_H 	H 	0.7033	0.2737	0.5601	0.073
Mof_C 	C 	0.6789	0.3085	0.4602	0.076
Mof_C 	C 	0.6939	0.3296	0.3695	-0.138
Mof_H 	H 	0.6709	0.3434	0.3433	0.074
Mof_C 	C 	0.7433	0.33011	0.3178	0.065
Mof_H 	H 	0.7534	0.3442	0.2571	0.002
Mof_C 	C 	0.5905	0.3164	0.529	-0.158
Mof_H 	H 	0.5934	0.3302	0.4612	0.081
Mof_C 	C 	0.545	0.3165	0.5932	0.167
Mof_C 	C 	0.5365	0.301	0.7139	-0.192
Mof_H 	H 	0.5633	0.2915	0.7561	0.101
Mof_C 	C 	0.488	0.2998	0.7715	0.093
Mof_H 	H 	0.4823	0.2895	0.8523	-0.004
Mof_N 	N 	0.448	0.314	0.7085	-0.161
Mof_C 	C 	0.4565	0.3295	0.5878	0.091
Mof_H 	H 	0.4298	0.339	0.5456	-0.009
Mof_C 	C 	0.505	0.3307	0.5302	-0.195
Mof_H 	H 	0.5107	0.341	0.4494	0.093
Mof_Cd	Cd	0.86462	0.31173	0.3009	0.325
Mof_C 	C 	0.8807	0.1685	0.965	-0.033
Mof_N 	N 	0.359	0.76751	0.2013	-0.153
Mof_C 	C 	0.3956	0.7475	0.2326	0.067
Mof_H 	H 	0.4203	0.7512	0.2995	0.004
Mof_C 	C 	0.3953	0.72189	0.1639	-0.139
Mof_H 	H 	0.4199	0.7085	0.1848	0.077
Mof_C 	C 	0.3584	0.71629	0.0639	0.078
Mof_C 	C 	0.3218	0.7363	0.0326	-0.157
Mof_H 	H 	0.2971	0.7326	0.9657	0.088
Mof_C 	C 	0.3221	0.76191	0.1013	0.073
Mof_H 	H 	0.2975	0.7753	0.0803	0
Mof_C 	C 	0.3536	0.6899	0.973	-0.012
Mof_C 	C 	0.327	0.6706	0.923	-0.034
Mof_C 	C 	0.3596	0.6471	0.8597	0.106
Mof_C 	C 	0.3263	0.6423	0.7497	-0.153
Mof_H 	H 	0.3001	0.6548	0.7318	0.087
Mof_C 	C 	0.3321	0.6187	0.6665	0.069
Mof_H 	H 	0.3098	0.6155	0.5929	0.007
Mof_N 	N 	0.3713	0.5999	0.6933	-0.156
Mof_C 	C 	0.4046	0.6047	0.8033	0.07
Mof_H 	H 	0.4308	0.5921	0.8212	0.005
Mof_C 	C 	0.3988	0.6283	0.8865	-0.151
Mof_H 	H 	0.4211	0.6315	0.9601	0.086
Mof_C 	C 	0.1298	0.802	0.542	-0.021
Mof_H 	H 	0.1294	0.7867	0.6022	0.035
Mof_N 	N 	0.2778	0.80947	0.357	-0.152
Mof_C 	C 	0.2628	0.78834	0.4477	0.064
Mof_H 	H 	0.2858	0.7745	0.4739	0.003
Mof_C 	C 	0.2133	0.78785	0.4994	-0.137
Mof_H 	H 	0.2033	0.7737	0.5601	0.073
Mof_C 	C 	0.1789	0.8085	0.4602	0.076
Mof_C 	C 	0.1939	0.8296	0.3695	-0.138
Mof_H 	H 	0.1709	0.8434	0.3433	0.074
Mof_C 	C 	0.2433	0.83011	0.3178	0.065
Mof_H 	H 	0.2534	0.8442	0.2571	0.002
Mof_C 	C 	0.0905	0.8164	0.529	-0.158
Mof_H 	H 	0.0934	0.8302	0.4612	0.081
Mof_C 	C 	0.045	0.8165	0.5932	0.167
Mof_C 	C 	0.0365	0.801	0.7139	-0.192
Mof_H 	H 	0.0633	0.7915	0.7561	0.101
Mof_C 	C 	0.988	0.7998	0.7715	0.093
Mof_H 	H 	0.9823	0.7895	0.8523	-0.004
Mof_N 	N 	0.948	0.814	0.7085	-0.161
Mof_C 	C 	0.9565	0.8295	0.5878	0.091
Mof_H 	H 	0.9298	0.839	0.5456	-0.009
Mof_C 	C 	0.005	0.8307	0.5302	-0.195
Mof_H 	H 	0.0107	0.841	0.4494	0.093
Mof_Cd	Cd	0.36462	0.81173	0.3009	0.325
Mof_C 	C 	0.3807	0.6685	0.965	-0.033
Mof_N 	N 	0.359	0.26751	0.7013	-0.152
Mof_C 	C 	0.3956	0.2475	0.7326	0.067
Mof_H 	H 	0.4203	0.2512	0.7995	0.006
Mof_C 	C 	0.3953	0.22189	0.6639	-0.138
Mof_H 	H 	0.4199	0.2085	0.6848	0.079
Mof_C 	C 	0.3584	0.21629	0.5639	0.08
Mof_C 	C 	0.3218	0.2363	0.5326	-0.139
Mof_H 	H 	0.2971	0.2326	0.4657	0.076
Mof_C 	C 	0.3221	0.26191	0.6013	0.065
Mof_H 	H 	0.2975	0.2753	0.5803	0.005
Mof_C 	C 	0.3536	0.1899	0.473	-0.019
Mof_C 	C 	0.327	0.1706	0.423	-0.035
Mof_C 	C 	0.3596	0.1471	0.3597	0.105
Mof_C 	C 	0.3263	0.1423	0.2497	-0.153
Mof_H 	H 	0.3001	0.1548	0.2318	0.085
Mof_C 	C 	0.3321	0.1187	0.1665	0.068
Mof_H 	H 	0.3098	0.1155	0.0929	0.005
Mof_N 	N 	0.3713	0.0999	0.1933	-0.156
Mof_C 	C 	0.4046	0.1047	0.3033	0.068
Mof_H 	H 	0.4308	0.0921	0.3212	0.005
Mof_C 	C 	0.3988	0.1283	0.3865	-0.151
Mof_H 	H 	0.4211	0.1315	0.4601	0.084
Mof_C 	C 	0.1298	0.302	0.042	0.006
Mof_H 	H 	0.1294	0.2867	0.1022	0.024
Mof_N 	N 	0.2778	0.30947	0.857	-0.148
Mof_C 	C 	0.2628	0.28834	0.9477	0.051
Mof_H 	H 	0.2858	0.2745	0.9739	0.01
Mof_C 	C 	0.2133	0.28785	0.9994	-0.108
Mof_H 	H 	0.2033	0.2737	0.0601	0.056
Mof_C 	C 	0.1789	0.3085	0.9602	0.062
Mof_C 	C 	0.1939	0.3296	0.8695	-0.127
Mof_H 	H 	0.1709	0.3434	0.8433	0.072
Mof_C 	C 	0.2433	0.33011	0.8178	0.061
Mof_H 	H 	0.2534	0.3442	0.7571	0.005
Mof_C 	C 	0.0905	0.3164	0.029	-0.212
Mof_H 	H 	0.0934	0.3302	0.9612	0.105
Mof_C 	C 	0.045	0.3165	0.0932	0.205
Mof_C 	C 	0.0365	0.301	0.2139	-0.217
Mof_H 	H 	0.0633	0.2915	0.2561	0.109
Mof_C 	C 	0.988	0.2998	0.2715	0.105
Mof_H 	H 	0.9823	0.2895	0.3523	-0.01
Mof_N 	N 	0.948	0.314	0.2085	-0.167
Mof_C 	C 	0.9565	0.3295	0.0878	0.112
Mof_H 	H 	0.9298	0.339	0.0456	-0.019
Mof_C 	C 	0.005	0.3307	0.0302	-0.24
Mof_H 	H 	0.0107	0.341	0.9494	0.115
Mof_Cd	Cd	0.36462	0.31173	0.8009	0.328
Mof_C 	C 	0.3807	0.1685	0.465	-0.034
Mof_N 	N 	0.391	0.01751	0.9513	-0.153
Mof_C 	C 	0.3544	0.9975	0.9826	0.092
Mof_H 	H 	0.3297	0.0012	0.0495	-0.011
Mof_C 	C 	0.3547	0.97189	0.9139	-0.151
Mof_H 	H 	0.3301	0.9585	0.9348	0.086
Mof_C 	C 	0.3916	0.96629	0.8139	0.088
Mof_C 	C 	0.4282	0.9863	0.7826	-0.143
Mof_H 	H 	0.4529	0.9826	0.7157	0.078
Mof_C 	C 	0.4279	0.01191	0.8513	0.07
Mof_H 	H 	0.4525	0.0253	0.8303	0.006
Mof_C 	C 	0.3964	0.9399	0.723	-0.022
Mof_C 	C 	0.423	0.9206	0.673	-0.032
Mof_C 	C 	0.3904	0.8971	0.6097	0.104
Mof_C 	C 	0.4237	0.8923	0.4997	-0.152
Mof_H 	H 	0.4499	0.9048	0.4818	0.087
Mof_C 	C 	0.4179	0.8687	0.4165	0.068
Mof_H 	H 	0.4402	0.8655	0.3429	0.007
Mof_N 	N 	0.3787	0.8499	0.4433	-0.156
Mof_C 	C 	0.3454	0.8547	0.5533	0.069
Mof_H 	H 	0.3192	0.8421	0.5712	0.005
Mof_C 	C 	0.3512	0.8783	0.6365	-0.15
Mof_H 	H 	0.3289	0.8815	0.7101	0.085
Mof_C 	C 	0.6202	0.052	0.292	-0.021
Mof_H 	H 	0.6206	0.0367	0.3522	0.035
Mof_N 	N 	0.4722	0.05947	0.107	-0.153
Mof_C 	C 	0.4872	0.03834	0.1977	0.062
Mof_H 	H 	0.4642	0.0245	0.2239	0.002
Mof_C 	C 	0.5367	0.03785	0.2494	-0.137
Mof_H 	H 	0.5467	0.0237	0.3101	0.072
Mof_C 	C 	0.5711	0.0585	0.2102	0.074
Mof_C 	C 	0.5561	0.0796	0.1195	-0.138
Mof_H 	H 	0.5791	0.0934	0.0933	0.073
Mof_C 	C 	0.5067	0.08011	0.0678	0.064
Mof_H 	H 	0.4966	0.0942	0.0071	0.001
Mof_C 	C 	0.6595	0.0664	0.279	-0.159
Mof_H 	H 	0.6566	0.0802	0.2112	0.081
Mof_C 	C 	0.705	0.0665	0.3432	0.166
Mof_C 	C 	0.7135	0.051	0.4639	-0.192
Mof_H 	H 	0.6867	0.0415	0.5061	0.1
Mof_C 	C 	0.762	0.0498	0.5215	0.092
Mof_H 	H 	0.7677	0.0395	0.6023	-0.005
Mof_N 	N 	0.802	0.064	0.4585	-0.161
Mof_C 	C 	0.7935	0.0795	0.3378	0.091
Mof_H 	H 	0.8202	0.089	0.2956	-0.01
Mof_C 	C 	0.745	0.0807	0.2802	-0.196
Mof_H 	H 	0.7393	0.091	0.1994	0.092
Mof_Cd	Cd	0.38538	0.06173	0.0509	0.318
Mof_C 	C 	0.3693	0.9185	0.715	-0.032
Mof_N 	N 	0.391	0.51751	0.4513	-0.152
Mof_C 	C 	0.3544	0.4975	0.4826	0.067
Mof_H 	H 	0.3297	0.5012	0.5495	0.004
Mof_C 	C 	0.3547	0.47189	0.4139	-0.139
Mof_H 	H 	0.3301	0.4585	0.4348	0.079
Mof_C 	C 	0.3916	0.46629	0.3139	0.08
Mof_C 	C 	0.4282	0.4863	0.2826	-0.139
Mof_H 	H 	0.4529	0.4826	0.2157	0.075
Mof_C 	C 	0.4279	0.51191	0.3513	0.065
Mof_H 	H 	0.4525	0.5253	0.3303	0.004
Mof_C 	C 	0.3964	0.4399	0.223	-0.023
Mof_C 	C 	0.423	0.4206	0.173	-0.034
Mof_C 	C 	0.3904	0.3971	0.1097	0.085
Mof_C 	C 	0.4237	0.3923	0.9997	-0.13
Mof_H 	H 	0.4499	0.4048	0.9818	0.082
Mof_C 	C 	0.4179	0.3687	0.9165	0.06
Mof_H 	H 	0.4402	0.3655	0.8429	0.01
Mof_N 	N 	0.3787	0.3499	0.9433	-0.148
Mof_C 	C 	0.3454	0.3547	0.0533	0.052
Mof_H 	H 	0.3192	0.3421	0.0712	0.007
Mof_C 	C 	0.3512	0.3783	0.1365	-0.139
Mof_H 	H 	0.3289	0.3815	0.2101	0.079
Mof_C 	C 	0.6202	0.552	0.792	-0.048
Mof_H 	H 	0.6206	0.5367	0.8522	0.047
Mof_N 	N 	0.4722	0.55947	0.607	-0.153
Mof_C 	C 	0.4872	0.53834	0.6977	0.068
Mof_H 	H 	0.4642	0.5245	0.7239	0.002
Mof_C 	C 	0.5367	0.53785	0.7494	-0.144
Mof_H 	H 	0.5467	0.5237	0.8101	0.076
Mof_C 	C 	0.5711	0.5585	0.7102	0.088
Mof_C 	C 	0.5561	0.5796	0.6195	-0.146
Mof_H 	H 	0.5791	0.5934	0.5933	0.078
Mof_C 	C 	0.5067	0.58011	0.5678	0.069
Mof_H 	H 	0.4966	0.5942	0.5071	0.001
Mof_C 	C 	0.6595	0.5664	0.779	-0.118
Mof_H 	H 	0.6566	0.5802	0.7112	0.069
Mof_C 	C 	0.705	0.5665	0.8432	0.124
Mof_C 	C 	0.7135	0.551	0.9639	-0.125
Mof_H 	H 	0.6867	0.5415	0.0061	0.069
Mof_C 	C 	0.762	0.5498	0.0215	0.043
Mof_H 	H 	0.7677	0.5395	0.1023	0.01
Mof_N 	N 	0.802	0.564	0.9585	-0.145
Mof_C 	C 	0.7935	0.5795	0.8378	0.077
Mof_H 	H 	0.8202	0.589	0.7956	-0.003
Mof_C 	C 	0.745	0.5807	0.7802	-0.166
Mof_H 	H 	0.7393	0.591	0.6994	0.084
Mof_Cd	Cd	0.38538	0.56173	0.5509	0.326
Mof_C 	C 	0.3693	0.4185	0.215	-0.03
Mof_N 	N 	0.891	0.01751	0.4513	-0.152
Mof_C 	C 	0.8544	0.9975	0.4826	0.067
Mof_H 	H 	0.8297	0.0012	0.5495	0.004
Mof_C 	C 	0.8547	0.97189	0.4139	-0.139
Mof_H 	H 	0.8301	0.9585	0.4348	0.079
Mof_C 	C 	0.8916	0.96629	0.3139	0.08
Mof_C 	C 	0.9282	0.9863	0.2826	-0.139
Mof_H 	H 	0.9529	0.9826	0.2157	0.075
Mof_C 	C 	0.9279	0.01191	0.3513	0.065
Mof_H 	H 	0.9525	0.0253	0.3303	0.004
Mof_C 	C 	0.8964	0.9399	0.223	-0.023
Mof_C 	C 	0.923	0.9206	0.173	-0.034
Mof_C 	C 	0.8904	0.8971	0.1097	0.085
Mof_C 	C 	0.9237	0.8923	0.9997	-0.13
Mof_H 	H 	0.9499	0.9048	0.9818	0.082
Mof_C 	C 	0.9179	0.8687	0.9165	0.06
Mof_H 	H 	0.9402	0.8655	0.8429	0.01
Mof_N 	N 	0.8787	0.8499	0.9433	-0.148
Mof_C 	C 	0.8454	0.8547	0.0533	0.052
Mof_H 	H 	0.8192	0.8421	0.0712	0.007
Mof_C 	C 	0.8512	0.8783	0.1365	-0.139
Mof_H 	H 	0.8289	0.8815	0.2101	0.079
Mof_C 	C 	0.1202	0.052	0.792	-0.048
Mof_H 	H 	0.1206	0.0367	0.8522	0.047
Mof_N 	N 	0.9722	0.05947	0.607	-0.153
Mof_C 	C 	0.9872	0.03834	0.6977	0.068
Mof_H 	H 	0.9642	0.0245	0.7239	0.002
Mof_C 	C 	0.0367	0.03785	0.7494	-0.144
Mof_H 	H 	0.0467	0.0237	0.8101	0.076
Mof_C 	C 	0.0711	0.0585	0.7102	0.088
Mof_C 	C 	0.0561	0.0796	0.6195	-0.146
Mof_H 	H 	0.0791	0.0934	0.5933	0.078
Mof_C 	C 	0.0067	0.08011	0.5678	0.069
Mof_H 	H 	0.9966	0.0942	0.5071	0.001
Mof_C 	C 	0.1595	0.0664	0.779	-0.118
Mof_H 	H 	0.1566	0.0802	0.7112	0.069
Mof_C 	C 	0.205	0.0665	0.8432	0.124
Mof_C 	C 	0.2135	0.051	0.9639	-0.125
Mof_H 	H 	0.1867	0.0415	0.0061	0.069
Mof_C 	C 	0.262	0.0498	0.0215	0.043
Mof_H 	H 	0.2677	0.0395	0.1023	0.01
Mof_N 	N 	0.302	0.064	0.9585	-0.145
Mof_C 	C 	0.2935	0.0795	0.8378	0.077
Mof_H 	H 	0.3202	0.089	0.7956	-0.003
Mof_C 	C 	0.245	0.0807	0.7802	-0.166
Mof_H 	H 	0.2393	0.091	0.6994	0.084
Mof_Cd	Cd	0.88538	0.06173	0.5509	0.326
Mof_C 	C 	0.8693	0.9185	0.215	-0.03
Mof_N 	N 	0.891	0.51751	0.9513	-0.153
Mof_C 	C 	0.8544	0.4975	0.9826	0.092
Mof_H 	H 	0.8297	0.5012	0.0495	-0.011
Mof_C 	C 	0.8547	0.47189	0.9139	-0.151
Mof_H 	H 	0.8301	0.4585	0.9348	0.086
Mof_C 	C 	0.8916	0.46629	0.8139	0.088
Mof_C 	C 	0.9282	0.4863	0.7826	-0.143
Mof_H 	H 	0.9529	0.4826	0.7157	0.078
Mof_C 	C 	0.9279	0.51191	0.8513	0.07
Mof_H 	H 	0.9525	0.5253	0.8303	0.006
Mof_C 	C 	0.8964	0.4399	0.723	-0.022
Mof_C 	C 	0.923	0.4206	0.673	-0.032
Mof_C 	C 	0.8904	0.3971	0.6097	0.104
Mof_C 	C 	0.9237	0.3923	0.4997	-0.152
Mof_H 	H 	0.9499	0.4048	0.4818	0.087
Mof_C 	C 	0.9179	0.3687	0.4165	0.068
Mof_H 	H 	0.9402	0.3655	0.3429	0.007
Mof_N 	N 	0.8787	0.3499	0.4433	-0.156
Mof_C 	C 	0.8454	0.3547	0.5533	0.069
Mof_H 	H 	0.8192	0.3421	0.5712	0.005
Mof_C 	C 	0.8512	0.3783	0.6365	-0.15
Mof_H 	H 	0.8289	0.3815	0.7101	0.085
Mof_C 	C 	0.1202	0.552	0.292	-0.021
Mof_H 	H 	0.1206	0.5367	0.3522	0.035
Mof_N 	N 	0.9722	0.55947	0.107	-0.153
Mof_C 	C 	0.9872	0.53834	0.1977	0.062
Mof_H 	H 	0.9642	0.5245	0.2239	0.002
Mof_C 	C 	0.0367	0.53785	0.2494	-0.137
Mof_H 	H 	0.0467	0.5237	0.3101	0.072
Mof_C 	C 	0.0711	0.5585	0.2102	0.074
Mof_C 	C 	0.0561	0.5796	0.1195	-0.138
Mof_H 	H 	0.0791	0.5934	0.0933	0.073
Mof_C 	C 	0.0067	0.58011	0.0678	0.064
Mof_H 	H 	0.9966	0.5942	0.0071	0.001
Mof_C 	C 	0.1595	0.5664	0.279	-0.159
Mof_H 	H 	0.1566	0.5802	0.2112	0.081
Mof_C 	C 	0.205	0.5665	0.3432	0.166
Mof_C 	C 	0.2135	0.551	0.4639	-0.192
Mof_H 	H 	0.1867	0.5415	0.5061	0.1
Mof_C 	C 	0.262	0.5498	0.5215	0.092
Mof_H 	H 	0.2677	0.5395	0.6023	-0.005
Mof_N 	N 	0.302	0.564	0.4585	-0.161
Mof_C 	C 	0.2935	0.5795	0.3378	0.091
Mof_H 	H 	0.3202	0.589	0.2956	-0.01
Mof_C 	C 	0.245	0.5807	0.2802	-0.196
Mof_H 	H 	0.2393	0.591	0.1994	0.092
Mof_Cd	Cd	0.88538	0.56173	0.0509	0.318
Mof_C 	C 	0.8693	0.4185	0.715	-0.032
_end
