data_functionalizedCrystal
_audit_creation_method	'EQeq! by Chris Wilmer'
_symmetry_space_group_name_H-M	'P1'
_symmetry_Int_Tables_number	1
_symmetry_cell_setting	triclinic
loop_
_symmetry_equiv_pos_as_xyz
  x,y,z
_cell_length_a	8.5732
_cell_length_b	8.5732
_cell_length_c	14.3359
_cell_angle_alpha	87.0844
_cell_angle_beta	87.0844
_cell_angle_gamma	81.7428
loop_
_atom_site_label
_atom_site_type_symbol
_atom_site_fract_x
_atom_site_fract_y
_atom_site_fract_z
_atom_site_charge
Mof_Cu	Cu	0.9771	0.6543	0.49	0.895
Mof_Cu	Cu	0.3457	0.0229	0.01	0.892
Mof_Cu	Cu	0.0229	0.3457	0.51	0.895
Mof_Cu	Cu	0.6543	0.9771	0.99	0.892
Mof_H 	H 	0.5377	0.3751	0.4174	0.084
Mof_H 	H 	0.5243	0.5639	0.4125	0.084
Mof_H 	H 	0.4006	0.2366	0.3025	0.092
Mof_H 	H 	0.2979	0.3355	0.2233	0.093
Mof_H 	H 	0.3641	0.7239	0.2867	0.093
Mof_H 	H 	0.7855	0.3013	0.2073	0.089
Mof_H 	H 	0.6249	0.4623	0.0826	0.084
Mof_H 	H 	0.4361	0.4757	0.0875	0.083
Mof_H 	H 	0.7634	0.5994	0.1975	0.093
Mof_H 	H 	0.6645	0.7021	0.2767	0.094
Mof_H 	H 	0.2761	0.6359	0.2133	0.092
Mof_H 	H 	0.6987	0.2145	0.2927	0.088
Mof_H 	H 	0.4623	0.6249	0.5826	0.084
Mof_H 	H 	0.4757	0.4361	0.5875	0.084
Mof_H 	H 	0.5994	0.7634	0.6975	0.092
Mof_H 	H 	0.7021	0.6645	0.7767	0.093
Mof_H 	H 	0.6359	0.2761	0.7133	0.093
Mof_H 	H 	0.2145	0.6987	0.7927	0.089
Mof_H 	H 	0.3751	0.5377	0.9174	0.084
Mof_H 	H 	0.5639	0.5243	0.9125	0.083
Mof_H 	H 	0.2366	0.4006	0.8025	0.093
Mof_H 	H 	0.3355	0.2979	0.7233	0.094
Mof_H 	H 	0.7239	0.3641	0.7867	0.092
Mof_H 	H 	0.3013	0.7855	0.7073	0.088
Mof_C 	C 	0.2377	0.4891	0.3855	0.297
Mof_C 	C 	0.3819	0.4807	0.3168	0.046
Mof_C 	C 	0.5306	0.4698	0.3745	-0.173
Mof_C 	C 	0.6795	0.4595	0.3071	0.045
Mof_C 	C 	0.8177	0.4577	0.3719	0.299
Mof_C 	C 	0.3937	0.3313	0.2597	-0.173
Mof_C 	C 	0.5109	0.7623	0.1145	0.297
Mof_C 	C 	0.5193	0.6181	0.1832	0.047
Mof_C 	C 	0.5302	0.4694	0.1255	-0.173
Mof_C 	C 	0.5405	0.3205	0.1929	0.044
Mof_C 	C 	0.5423	0.1823	0.1281	0.299
Mof_C 	C 	0.6687	0.6063	0.2403	-0.173
Mof_C 	C 	0.7623	0.5109	0.6145	0.297
Mof_C 	C 	0.6181	0.5193	0.6832	0.046
Mof_C 	C 	0.4694	0.5302	0.6255	-0.173
Mof_C 	C 	0.3205	0.5405	0.6929	0.045
Mof_C 	C 	0.1823	0.5423	0.6281	0.299
Mof_C 	C 	0.6063	0.6687	0.7403	-0.173
Mof_C 	C 	0.4891	0.2377	0.8855	0.297
Mof_C 	C 	0.4807	0.3819	0.8168	0.047
Mof_C 	C 	0.4698	0.5306	0.8745	-0.173
Mof_C 	C 	0.4595	0.6795	0.8071	0.044
Mof_C 	C 	0.4577	0.8177	0.8719	0.299
Mof_C 	C 	0.3313	0.3937	0.7597	-0.173
Mof_C 	C 	0.3719	0.6281	0.25	-0.173
Mof_C 	C 	0.6905	0.3095	0.25	-0.168
Mof_C 	C 	0.6281	0.3719	0.75	-0.173
Mof_C 	C 	0.3095	0.6905	0.75	-0.168
Mof_O 	O 	0.1688	0.6236	0.4067	-0.399
Mof_O 	O 	0.1989	0.3603	0.4181	-0.401
Mof_O 	O 	0.8847	0.3279	0.4049	-0.389
Mof_O 	O 	0.8483	0.5909	0.3923	-0.411
Mof_O 	O 	0.3764	0.8312	0.0933	-0.396
Mof_O 	O 	0.6397	0.8011	0.0819	-0.398
Mof_O 	O 	0.6721	0.1153	0.0951	-0.39
Mof_O 	O 	0.4091	0.1517	0.1077	-0.413
Mof_O 	O 	0.8312	0.3764	0.5933	-0.399
Mof_O 	O 	0.8011	0.6397	0.5819	-0.401
Mof_O 	O 	0.1153	0.6721	0.5951	-0.389
Mof_O 	O 	0.1517	0.4091	0.6077	-0.411
Mof_O 	O 	0.6236	0.1688	0.9067	-0.396
Mof_O 	O 	0.3603	0.1989	0.9181	-0.398
Mof_O 	O 	0.3279	0.8847	0.9049	-0.39
Mof_O 	O 	0.5909	0.8483	0.8923	-0.413
_end
