data_functionalizedCrystal
_audit_creation_method	'EQeq! by Chris Wilmer'
_symmetry_space_group_name_H-M	'P1'
_symmetry_Int_Tables_number	1
_symmetry_cell_setting	triclinic
loop_
_symmetry_equiv_pos_as_xyz
  x,y,z
_cell_length_a	8.8494
_cell_length_b	10.3728
_cell_length_c	16.9471
_cell_angle_alpha	90
_cell_angle_beta	92.869
_cell_angle_gamma	90
loop_
_atom_site_label
_atom_site_type_symbol
_atom_site_fract_x
_atom_site_fract_y
_atom_site_fract_z
_atom_site_charge
Mof_O 	O 	0.5048	0.1829	0.3078	-0.338
Mof_O 	O 	0.9623	0.3655	0.1684	-0.343
Mof_O 	O 	0.7149	0.342	0.2355	-0.338
Mof_O 	O 	0.9633	0.2974	0.5036	-0.333
Mof_O 	O 	0.8308	0.5023	0.4559	-0.345
Mof_O 	O 	0.729	0.2932	0.089	-0.324
Mof_O 	O 	0.4261	0.1948	0.1609	-0.357
Mof_O 	O 	0.7603	0.2861	0.3972	-0.328
Mof_O 	O 	0.0132	0.3971	0.3707	-0.395
Mof_O 	O 	0.3234	0.017	0.2458	-0.332
Mof_O 	O 	0.7467	0.521	0.137	-0.312
Mof_O 	O 	0.2456	0.2484	0.2638	-0.34
Mof_Fe	Fe	0.7285	0.1823	0.3015	1.195
Mof_Fe	Fe	0.0707	0.3492	0.2685	1.119
Mof_Fe	Fe	0.5908	0.151	0.0961	1.093
Mof_P 	P 	0.3772	0.1584	0.2443	0.6
Mof_P 	P 	0.7874	0.3808	0.1586	0.579
Mof_P 	P 	0.8917	0.3688	0.4316	0.59
Mof_F 	F 	0.9513	0.183	0.2844	-0.53
Mof_F 	F 	0.7055	0.0894	0.1972	-0.557
Mof_O 	O 	0.9952	0.6829	0.1922	-0.338
Mof_O 	O 	0.5377	0.8655	0.3316	-0.345
Mof_O 	O 	0.7851	0.842	0.2645	-0.339
Mof_O 	O 	0.5367	0.7974	0.9964	-0.333
Mof_O 	O 	0.6692	0.0023	0.0441	-0.341
Mof_O 	O 	0.771	0.7932	0.411	-0.325
Mof_O 	O 	0.0739	0.6948	0.3391	-0.356
Mof_O 	O 	0.7397	0.7861	0.1028	-0.329
Mof_O 	O 	0.4868	0.8971	0.1293	-0.395
Mof_O 	O 	0.1766	0.517	0.2542	-0.332
Mof_O 	O 	0.7533	0.021	0.363	-0.309
Mof_O 	O 	0.2544	0.7484	0.2362	-0.34
Mof_Fe	Fe	0.7715	0.6823	0.1985	1.194
Mof_Fe	Fe	0.4293	0.8492	0.2315	1.122
Mof_Fe	Fe	0.9092	0.651	0.4039	1.092
Mof_P 	P 	0.1228	0.6584	0.2557	0.6
Mof_P 	P 	0.7126	0.8808	0.3414	0.576
Mof_P 	P 	0.6083	0.8688	0.0684	0.584
Mof_F 	F 	0.5487	0.683	0.2156	-0.532
Mof_F 	F 	0.7945	0.5894	0.3028	-0.558
Mof_O 	O 	0.4952	0.8171	0.6922	-0.338
Mof_O 	O 	0.0377	0.6345	0.8316	-0.343
Mof_O 	O 	0.2851	0.658	0.7645	-0.338
Mof_O 	O 	0.0367	0.7026	0.4964	-0.333
Mof_O 	O 	0.1692	0.4977	0.5441	-0.345
Mof_O 	O 	0.271	0.7068	0.911	-0.324
Mof_O 	O 	0.5739	0.8052	0.8391	-0.357
Mof_O 	O 	0.2397	0.7139	0.6028	-0.328
Mof_O 	O 	0.9868	0.6029	0.6293	-0.395
Mof_O 	O 	0.6766	0.983	0.7542	-0.332
Mof_O 	O 	0.2533	0.479	0.863	-0.312
Mof_O 	O 	0.7544	0.7516	0.7362	-0.34
Mof_Fe	Fe	0.2715	0.8177	0.6985	1.195
Mof_Fe	Fe	0.9293	0.6508	0.7315	1.119
Mof_Fe	Fe	0.4092	0.849	0.9039	1.093
Mof_P 	P 	0.6228	0.8416	0.7557	0.6
Mof_P 	P 	0.2126	0.6192	0.8414	0.579
Mof_P 	P 	0.1083	0.6312	0.5684	0.59
Mof_F 	F 	0.0487	0.817	0.7156	-0.53
Mof_F 	F 	0.2945	0.9106	0.8028	-0.557
Mof_O 	O 	0.0048	0.3171	0.8078	-0.338
Mof_O 	O 	0.4623	0.1345	0.6684	-0.345
Mof_O 	O 	0.2149	0.158	0.7355	-0.339
Mof_O 	O 	0.4633	0.2026	0.0036	-0.333
Mof_O 	O 	0.3308	0.9977	0.9559	-0.341
Mof_O 	O 	0.229	0.2068	0.589	-0.325
Mof_O 	O 	0.9261	0.3052	0.6609	-0.356
Mof_O 	O 	0.2603	0.2139	0.8972	-0.329
Mof_O 	O 	0.5132	0.1029	0.8707	-0.395
Mof_O 	O 	0.8234	0.483	0.7458	-0.332
Mof_O 	O 	0.2467	0.979	0.637	-0.309
Mof_O 	O 	0.7456	0.2516	0.7638	-0.34
Mof_Fe	Fe	0.2285	0.3177	0.8015	1.194
Mof_Fe	Fe	0.5707	0.1508	0.7685	1.122
Mof_Fe	Fe	0.0908	0.349	0.5961	1.092
Mof_P 	P 	0.8772	0.3416	0.7443	0.6
Mof_P 	P 	0.2874	0.1192	0.6586	0.576
Mof_P 	P 	0.3917	0.1312	0.9316	0.584
Mof_F 	F 	0.4513	0.317	0.7844	-0.532
Mof_F 	F 	0.2055	0.4106	0.6972	-0.558
_end
