# CIF file generated by openbabel 3.1.0, see https://openbabel.org
data_I
_chemical_name_common 'GEHSAN_clean'
_cell_length_a 8.8147
_cell_length_b 8.8147
_cell_length_c 13.735
_cell_angle_alpha 94.5895
_cell_angle_beta 94.5895
_cell_angle_gamma 100.254
_space_group_name_H-M_alt 'P 1'
_space_group_name_Hall 'P 1'
loop_
    _symmetry_equiv_pos_as_xyz
    x,y,z
loop_
    _atom_site_label
    _atom_site_type_symbol
    _atom_site_fract_x
    _atom_site_fract_y
    _atom_site_fract_z
    _atom_site_occupancy
    Ca1      Ca       0.87590    0.57430    0.60400    1.000
    Ca2      Ca       0.42570    0.12410    0.89600    1.000
    Ca3      Ca       0.12410    0.42570    0.39600    1.000
    Ca4      Ca       0.57430    0.87590    0.10400    1.000
    Fe1      Fe       0.50000    0.00000    0.50000    1.000
    Fe2      Fe       0.00000    0.50000    0.00000    1.000
    H1       H        0.48190    0.45910    0.55380    1.000
    H2       H        0.44860    0.62740    0.62060    1.000
    H3       H        0.58030    0.72810    0.70780    1.000
    H4       H        0.74390    0.74050    0.79280    1.000
    H5       H        0.25160    0.63760    0.78780    1.000
    H6       H        0.69960    0.41380    0.80810    1.000
    H7       H        0.96280    0.68900    0.40790    1.000
    H8       H        0.83610    0.53310    0.39210    1.000
    H9       H        0.54090    0.51810    0.94620    1.000
    H10      H        0.37260    0.55140    0.87940    1.000
    H11      H        0.27190    0.41970    0.79220    1.000
    H12      H        0.25950    0.25610    0.70720    1.000
    H13      H        0.36240    0.74840    0.71220    1.000
    H14      H        0.58620    0.30040    0.69190    1.000
    H15      H        0.31100    0.03720    0.09210    1.000
    H16      H        0.46690    0.16390    0.10790    1.000
    H17      H        0.51810    0.54090    0.44620    1.000
    H18      H        0.55140    0.37260    0.37940    1.000
    H19      H        0.41970    0.27190    0.29220    1.000
    H20      H        0.25610    0.25950    0.20720    1.000
    H21      H        0.74840    0.36240    0.21220    1.000
    H22      H        0.30040    0.58620    0.19190    1.000
    H23      H        0.03720    0.31100    0.59210    1.000
    H24      H        0.16390    0.46690    0.60790    1.000
    H25      H        0.45910    0.48190    0.05380    1.000
    H26      H        0.62740    0.44860    0.12060    1.000
    H27      H        0.72810    0.58030    0.20780    1.000
    H28      H        0.74050    0.74390    0.29280    1.000
    H29      H        0.63760    0.25160    0.28780    1.000
    H30      H        0.41380    0.69960    0.30810    1.000
    H31      H        0.68900    0.96280    0.90790    1.000
    H32      H        0.53310    0.83610    0.89210    1.000
    C1       C        0.64870    0.19010    0.52150    1.000
    C2       C        0.46640    0.01740    0.63820    1.000
    C3       C        0.65380    0.87400    0.52960    1.000
    C4       C        0.48090    0.51570    0.62640    1.000
    C5       C        0.63410    0.67010    0.76370    1.000
    C6       C        0.80990    0.35130    0.97850    1.000
    C7       C        0.98260    0.53360    0.86180    1.000
    C8       C        0.12600    0.34620    0.97040    1.000
    C9       C        0.48430    0.51910    0.87360    1.000
    C10      C        0.32990    0.36590    0.73630    1.000
    C11      C        0.35130    0.80990    0.47850    1.000
    C12      C        0.53360    0.98260    0.36180    1.000
    C13      C        0.34620    0.12600    0.47040    1.000
    C14      C        0.51910    0.48430    0.37360    1.000
    C15      C        0.36590    0.32990    0.23630    1.000
    C16      C        0.19010    0.64870    0.02150    1.000
    C17      C        0.01740    0.46640    0.13820    1.000
    C18      C        0.87400    0.65380    0.02960    1.000
    C19      C        0.51570    0.48090    0.12640    1.000
    C20      C        0.67010    0.63410    0.26370    1.000
    C21      C        0.35710    0.64290    0.75000    1.000
    C22      C        0.60740    0.39260    0.75000    1.000
    C23      C        0.64290    0.35710    0.25000    1.000
    C24      C        0.39260    0.60740    0.25000    1.000
    N1       N        0.73380    0.30940    0.53390    1.000
    N2       N        0.44720    0.03040    0.72090    1.000
    N3       N        0.73870    0.79130    0.54950    1.000
    N4       N        0.62370    0.53130    0.69360    1.000
    N5       N        0.34050    0.50310    0.68020    1.000
    N6       N        0.69060    0.26620    0.96610    1.000
    N7       N        0.96960    0.55280    0.77910    1.000
    N8       N        0.20870    0.26130    0.95050    1.000
    N9       N        0.46870    0.37630    0.80640    1.000
    N10      N        0.49690    0.65950    0.81980    1.000
    N11      N        0.26620    0.69060    0.46610    1.000
    N12      N        0.55280    0.96960    0.27910    1.000
    N13      N        0.26130    0.20870    0.45050    1.000
    N14      N        0.37630    0.46870    0.30640    1.000
    N15      N        0.65950    0.49690    0.31980    1.000
    N16      N        0.30940    0.73380    0.03390    1.000
    N17      N        0.03040    0.44720    0.22090    1.000
    N18      N        0.79130    0.73870    0.04950    1.000
    N19      N        0.53130    0.62370    0.19360    1.000
    N20      N        0.50310    0.34050    0.18020    1.000
    O1       O        0.92810    0.58290    0.43000    1.000
    O2       O        0.41710    0.07190    0.07000    1.000
    O3       O        0.07190    0.41710    0.57000    1.000
    O4       O        0.58290    0.92810    0.93000    1.000
