# CIF file generated by openbabel 3.1.0, see https://openbabel.org
data_I
_chemical_name_common 'image0'
_cell_length_a 10.2
_cell_length_b 10.2
_cell_length_c 14.4386
_cell_angle_alpha 90
_cell_angle_beta 90
_cell_angle_gamma 90
_space_group_name_H-M_alt 'P 1'
_space_group_name_Hall 'P 1'
loop_
    _symmetry_equiv_pos_as_xyz
    x,y,z
loop_
    _atom_site_label
    _atom_site_type_symbol
    _atom_site_fract_x
    _atom_site_fract_y
    _atom_site_fract_z
    _atom_site_occupancy
    O1       O        0.33500    0.92650    0.19190    1.000
    O2       O        0.93520    0.88520    0.10010    1.000
    O3       O        0.76010    0.90390    0.01280    1.000
    C1       C        0.81890    0.91150    0.08980    1.000
    C2       C        0.74060    0.95840    0.17270    1.000
    C3       C        0.60570    0.95730    0.17270    1.000
    H1       H        0.55930    0.92720    0.11980    1.000
    O4       O        0.66500    0.07350    0.69190    1.000
    O5       O        0.06480    0.11480    0.60010    1.000
    O6       O        0.23990    0.09610    0.51280    1.000
    C4       C        0.18110    0.08850    0.58980    1.000
    C5       C        0.25940    0.04160    0.67270    1.000
    C6       C        0.39430    0.04270    0.67270    1.000
    H2       H        0.44070    0.07280    0.61980    1.000
    O7       O        0.07350    0.33500    0.44190    1.000
    O8       O        0.11480    0.93520    0.35010    1.000
    O9       O        0.09610    0.76010    0.26280    1.000
    C7       C        0.08850    0.81890    0.33980    1.000
    C8       C        0.04160    0.74060    0.42270    1.000
    C9       C        0.04270    0.60570    0.42270    1.000
    H3       H        0.07280    0.55930    0.36980    1.000
    O10      O        0.92650    0.66500    0.94190    1.000
    O11      O        0.88520    0.06480    0.85010    1.000
    O12      O        0.90390    0.23990    0.76280    1.000
    C10      C        0.91150    0.18110    0.83980    1.000
    C11      C        0.95840    0.25940    0.92270    1.000
    C12      C        0.95730    0.39430    0.92270    1.000
    H4       H        0.92720    0.44070    0.86980    1.000
    O13      O        0.66500    0.92650    0.80810    1.000
    O14      O        0.06480    0.88520    0.89990    1.000
    O15      O        0.23990    0.90390    0.98720    1.000
    C13      C        0.18110    0.91150    0.91020    1.000
    C14      C        0.25940    0.95840    0.82730    1.000
    C15      C        0.39430    0.95730    0.82730    1.000
    H5       H        0.44070    0.92720    0.88020    1.000
    O16      O        0.33500    0.07350    0.30810    1.000
    O17      O        0.93520    0.11480    0.39990    1.000
    O18      O        0.76010    0.09610    0.48720    1.000
    C16      C        0.81890    0.08850    0.41020    1.000
    C17      C        0.74060    0.04160    0.32730    1.000
    C18      C        0.60570    0.04270    0.32730    1.000
    H6       H        0.55930    0.07280    0.38020    1.000
    O19      O        0.92650    0.33500    0.55810    1.000
    O20      O        0.88520    0.93520    0.64990    1.000
    O21      O        0.90390    0.76010    0.73720    1.000
    C19      C        0.91150    0.81890    0.66020    1.000
    C20      C        0.95840    0.74060    0.57730    1.000
    C21      C        0.95730    0.60570    0.57730    1.000
    H7       H        0.92720    0.55930    0.63020    1.000
    O22      O        0.07350    0.66500    0.05810    1.000
    O23      O        0.11480    0.06480    0.14990    1.000
    O24      O        0.09610    0.23990    0.23720    1.000
    C22      C        0.08850    0.18110    0.16020    1.000
    C23      C        0.04160    0.25940    0.07730    1.000
    C24      C        0.04270    0.39430    0.07730    1.000
    H8       H        0.07280    0.44070    0.13020    1.000
    Tm1      Tm       0.14978    0.85022    0.12500    1.000
    Tm2      Tm       0.85022    0.14978    0.62500    1.000
    Tm3      Tm       0.14978    0.14978    0.37500    1.000
    Tm4      Tm       0.85022    0.85022    0.87500    1.000
    C25      C        0.53750    0.00000    0.25000    1.000
    C26      C        0.80820    0.00000    0.25000    1.000
    H9       H        0.90130    0.00000    0.25000    1.000
    C27      C        0.38980    0.00000    0.25000    1.000
    C28      C        0.46250    0.00000    0.75000    1.000
    C29      C        0.19180    0.00000    0.75000    1.000
    H10      H        0.09870    0.00000    0.75000    1.000
    C30      C        0.61020    0.00000    0.75000    1.000
    C31      C        0.00000    0.53750    0.50000    1.000
    C32      C        0.00000    0.80820    0.50000    1.000
    H11      H        0.00000    0.90130    0.50000    1.000
    C33      C        0.00000    0.38980    0.50000    1.000
    C34      C        0.00000    0.46250    0.00000    1.000
    C35      C        0.00000    0.19180    0.00000    1.000
    H12      H        0.00000    0.09870    0.00000    1.000
    C36      C        0.00000    0.61020    0.00000    1.000
