# CIF file generated by openbabel 3.1.0, see https://openbabel.org
data_I
_chemical_name_common 'BUVYEX_clean'
_cell_length_a 16.145
_cell_length_b 17.9775
_cell_length_c 17.9775
_cell_angle_alpha 68.5568
_cell_angle_beta 72.5811
_cell_angle_gamma 107.419
_space_group_name_H-M_alt 'P 1'
_space_group_name_Hall 'P 1'
loop_
    _symmetry_equiv_pos_as_xyz
    x,y,z
loop_
    _atom_site_label
    _atom_site_type_symbol
    _atom_site_fract_x
    _atom_site_fract_y
    _atom_site_fract_z
    _atom_site_occupancy
    Fe1      Fe       0.00000    0.00000    0.50000    1.000
    Fe2      Fe       0.50000    0.50000    0.50000    1.000
    Fe3      Fe       0.00000    0.50000    0.00000    1.000
    H1       H        0.84890    0.05270    0.74250    1.000
    H2       H        0.69390    0.93480    0.81420    1.000
    H3       H        0.66010    0.84210    0.75150    1.000
    H4       H        0.78010    0.86940    0.62400    1.000
    H5       H        0.32760    0.27400    0.43400    1.000
    H6       H        0.45620    0.38160    0.42250    1.000
    H7       H        0.28270    0.42730    0.57860    1.000
    H8       H        0.15120    0.32150    0.59370    1.000
    H9       H        0.59140    0.74250    0.20480    1.000
    H10      H        0.50810    0.81420    0.25100    1.000
    H11      H        0.41160    0.75150    0.40640    1.000
    H12      H        0.40410    0.62400    0.50660    1.000
    H13      H        0.76160    0.43400    0.29200    1.000
    H14      H        0.87870    0.42250    0.19590    1.000
    H15      H        0.86130    0.57860    0.99410    1.000
    H16      H        0.74490    0.59370    0.08480    1.000
    H17      H        0.79620    0.20480    0.05270    1.000
    H18      H        0.75910    0.25100    0.93480    1.000
    H19      H        0.81800    0.40640    0.84210    1.000
    H20      H        0.91070    0.50660    0.86940    1.000
    H21      H        0.05360    0.29200    0.27400    1.000
    H22      H        0.07460    0.19590    0.38160    1.000
    H23      H        0.85540    0.99410    0.42730    1.000
    H24      H        0.82970    0.08480    0.32150    1.000
    H25      H        0.15110    0.94730    0.25750    1.000
    H26      H        0.30610    0.06520    0.18580    1.000
    H27      H        0.33990    0.15790    0.24850    1.000
    H28      H        0.21990    0.13060    0.37600    1.000
    H29      H        0.67240    0.72600    0.56600    1.000
    H30      H        0.54380    0.61840    0.57750    1.000
    H31      H        0.71730    0.57270    0.42140    1.000
    H32      H        0.84880    0.67850    0.40630    1.000
    H33      H        0.40860    0.25750    0.79520    1.000
    H34      H        0.49190    0.18580    0.74900    1.000
    H35      H        0.58840    0.24850    0.59360    1.000
    H36      H        0.59590    0.37600    0.49340    1.000
    H37      H        0.23840    0.56600    0.70800    1.000
    H38      H        0.12130    0.57750    0.80410    1.000
    H39      H        0.13870    0.42140    0.00590    1.000
    H40      H        0.25510    0.40630    0.91520    1.000
    H41      H        0.20380    0.79520    0.94730    1.000
    H42      H        0.24090    0.74900    0.06520    1.000
    H43      H        0.18200    0.59360    0.15790    1.000
    H44      H        0.08930    0.49340    0.13060    1.000
    H45      H        0.94640    0.70800    0.72600    1.000
    H46      H        0.92540    0.80410    0.61840    1.000
    H47      H        0.14460    0.00590    0.57270    1.000
    H48      H        0.17030    0.91520    0.67850    1.000
    C1       C        0.00400    0.09590    0.59280    1.000
    C2       C        0.14120    0.20270    0.53610    1.000
    C3       C        0.90280    0.02540    0.64320    1.000
    C4       C        0.83310    0.01400    0.72030    1.000
    C5       C        0.74210    0.94530    0.76200    1.000
    C6       C        0.72220    0.88980    0.72450    1.000
    C7       C        0.79470    0.90630    0.64830    1.000
    C8       C        0.22330    0.27960    0.52090    1.000
    C9       C        0.31620    0.30310    0.46640    1.000
    C10      C        0.39340    0.36900    0.45910    1.000
    C11      C        0.29320    0.39540    0.54910    1.000
    C12      C        0.21330    0.33070    0.55970    1.000
    C13      C        0.59680    0.59280    0.31130    1.000
    C14      C        0.67730    0.53610    0.26120    1.000
    C15      C        0.54600    0.64320    0.33140    1.000
    C16      C        0.55340    0.72030    0.26570    1.000
    C17      C        0.50410    0.76200    0.29270    1.000
    C18      C        0.44670    0.72450    0.38570    1.000
    C19      C        0.44300    0.64830    0.44540    1.000
    C20      C        0.74420    0.52090    0.19950    1.000
    C21      C        0.78260    0.46640    0.23050    1.000
    C22      C        0.85250    0.45910    0.17190    1.000
    C23      C        0.84230    0.54910    0.05550    1.000
    C24      C        0.77300    0.55970    0.10960    1.000
    C25      C        0.90810    0.31130    0.09590    1.000
    C26      C        0.93850    0.26120    0.20270    1.000
    C27      C        0.87740    0.33140    0.02540    1.000
    C28      C        0.81910    0.26570    0.01400    1.000
    C29      C        0.79680    0.29270    0.94530    1.000
    C30      C        0.83240    0.38570    0.88980    1.000
    C31      C        0.88840    0.44540    0.90630    1.000
    C32      C        0.94370    0.19950    0.27960    1.000
    C33      C        0.01310    0.23050    0.30310    1.000
    C34      C        0.02440    0.17190    0.36900    1.000
    C35      C        0.89780    0.05550    0.39540    1.000
    C36      C        0.88260    0.10960    0.33070    1.000
    C37      C        0.99600    0.90410    0.40720    1.000
    C38      C        0.85880    0.79730    0.46390    1.000
    C39      C        0.09720    0.97460    0.35680    1.000
    C40      C        0.16690    0.98600    0.27970    1.000
    C41      C        0.25790    0.05470    0.23800    1.000
    C42      C        0.27780    0.11020    0.27550    1.000
    C43      C        0.20530    0.09370    0.35170    1.000
    C44      C        0.77670    0.72040    0.47910    1.000
    C45      C        0.68380    0.69690    0.53360    1.000
    C46      C        0.60660    0.63100    0.54090    1.000
    C47      C        0.70680    0.60460    0.45090    1.000
    C48      C        0.78670    0.66930    0.44030    1.000
    C49      C        0.40320    0.40720    0.68870    1.000
    C50      C        0.32270    0.46390    0.73880    1.000
    C51      C        0.45400    0.35680    0.66860    1.000
    C52      C        0.44660    0.27970    0.73430    1.000
    C53      C        0.49590    0.23800    0.70730    1.000
    C54      C        0.55330    0.27550    0.61430    1.000
    C55      C        0.55700    0.35170    0.55460    1.000
    C56      C        0.25580    0.47910    0.80050    1.000
    C57      C        0.21740    0.53360    0.76950    1.000
    C58      C        0.14750    0.54090    0.82810    1.000
    C59      C        0.15770    0.45090    0.94450    1.000
    C60      C        0.22700    0.44030    0.89040    1.000
    C61      C        0.09190    0.68870    0.90410    1.000
    C62      C        0.06150    0.73880    0.79730    1.000
    C63      C        0.12260    0.66860    0.97460    1.000
    C64      C        0.18090    0.73430    0.98600    1.000
    C65      C        0.20320    0.70730    0.05470    1.000
    C66      C        0.16760    0.61430    0.11020    1.000
    C67      C        0.11160    0.55460    0.09370    1.000
    C68      C        0.05630    0.80050    0.72040    1.000
    C69      C        0.98690    0.76950    0.69690    1.000
    C70      C        0.97560    0.82810    0.63100    1.000
    C71      C        0.10220    0.94450    0.60460    1.000
    C72      C        0.11740    0.89040    0.66930    1.000
    N1       N        0.06240    0.09500    0.52200    1.000
    N2       N        0.15110    0.16390    0.48710    1.000
    N3       N        0.05070    0.16310    0.60390    1.000
    N4       N        0.88490    0.97260    0.60750    1.000
    N5       N        0.38500    0.41630    0.50010    1.000
    N6       N        0.58440    0.52200    0.38300    1.000
    N7       N        0.63820    0.48710    0.34900    1.000
    N8       N        0.65460    0.60390    0.23300    1.000
    N9       N        0.49240    0.60750    0.41990    1.000
    N10      N        0.88510    0.50010    0.08360    1.000
    N11      N        0.96740    0.38300    0.09500    1.000
    N12      N        0.98720    0.34900    0.16390    1.000
    N13      N        0.88760    0.23300    0.16310    1.000
    N14      N        0.91230    0.41990    0.97260    1.000
    N15      N        0.96870    0.08360    0.41630    1.000
    N16      N        0.93760    0.90500    0.47800    1.000
    N17      N        0.84890    0.83610    0.51290    1.000
    N18      N        0.94930    0.83690    0.39610    1.000
    N19      N        0.11510    0.02740    0.39250    1.000
    N20      N        0.61500    0.58370    0.49990    1.000
    N21      N        0.41560    0.47800    0.61700    1.000
    N22      N        0.36180    0.51290    0.65100    1.000
    N23      N        0.34540    0.39610    0.76700    1.000
    N24      N        0.50760    0.39250    0.58010    1.000
    N25      N        0.11490    0.49990    0.91640    1.000
    N26      N        0.03260    0.61700    0.90500    1.000
    N27      N        0.01280    0.65100    0.83610    1.000
    N28      N        0.11240    0.76700    0.83690    1.000
    N29      N        0.08770    0.58010    0.02740    1.000
    N30      N        0.03130    0.91640    0.58370    1.000
    Fe4      Fe       0.00000    0.50000    0.50000    1.000
    Fe5      Fe       0.50000    0.00000    0.50000    1.000
    Fe6      Fe       0.50000    0.50000    0.00000    1.000
    H49      H        0.90860    0.20480    0.74250    1.000
    H50      H        0.99190    0.25100    0.81420    1.000
    H51      H        0.08840    0.40640    0.75150    1.000
    H52      H        0.09590    0.50660    0.62400    1.000
    H53      H        0.73840    0.29200    0.43400    1.000
    H54      H        0.62130    0.19590    0.42250    1.000
    H55      H        0.63870    0.99410    0.57860    1.000
    H56      H        0.75510    0.08480    0.59370    1.000
    H57      H        0.70380    0.05270    0.20480    1.000
    H58      H        0.74090    0.93480    0.25100    1.000
    H59      H        0.68200    0.84210    0.40640    1.000
    H60      H        0.58930    0.86940    0.50660    1.000
    H61      H        0.44640    0.27400    0.29200    1.000
    H62      H        0.42540    0.38160    0.19590    1.000
    H63      H        0.64460    0.42730    0.99410    1.000
    H64      H        0.67030    0.32150    0.08480    1.000
    H65      H        0.65110    0.74250    0.05270    1.000
    H66      H        0.80610    0.81420    0.93480    1.000
    H67      H        0.83990    0.75150    0.84210    1.000
    H68      H        0.71990    0.62400    0.86940    1.000
    H69      H        0.17240    0.43400    0.27400    1.000
    H70      H        0.04380    0.42250    0.38160    1.000
    H71      H        0.21730    0.57860    0.42730    1.000
    H72      H        0.34880    0.59370    0.32150    1.000
    H73      H        0.09140    0.79520    0.25750    1.000
    H74      H        0.00810    0.74900    0.18580    1.000
    H75      H        0.91160    0.59360    0.24850    1.000
    H76      H        0.90410    0.49340    0.37600    1.000
    H77      H        0.26160    0.70800    0.56600    1.000
    H78      H        0.37870    0.80410    0.57750    1.000
    H79      H        0.36130    0.00590    0.42140    1.000
    H80      H        0.24490    0.91520    0.40630    1.000
    H81      H        0.29620    0.94730    0.79520    1.000
    H82      H        0.25910    0.06520    0.74900    1.000
    H83      H        0.31800    0.15790    0.59360    1.000
    H84      H        0.41070    0.13060    0.49340    1.000
    H85      H        0.55360    0.72600    0.70800    1.000
    H86      H        0.57460    0.61840    0.80410    1.000
    H87      H        0.35540    0.57270    0.00590    1.000
    H88      H        0.32970    0.67850    0.91520    1.000
    H89      H        0.34890    0.25750    0.94730    1.000
    H90      H        0.19390    0.18580    0.06520    1.000
    H91      H        0.16010    0.24850    0.15790    1.000
    H92      H        0.28010    0.37600    0.13060    1.000
    H93      H        0.82760    0.56600    0.72600    1.000
    H94      H        0.95620    0.57750    0.61840    1.000
    H95      H        0.78270    0.42140    0.57270    1.000
    H96      H        0.65120    0.40630    0.67850    1.000
    C73      C        0.90320    0.31130    0.59280    1.000
    C74      C        0.82270    0.26120    0.53610    1.000
    C75      C        0.95400    0.33140    0.64320    1.000
    C76      C        0.94660    0.26570    0.72030    1.000
    C77      C        0.99590    0.29270    0.76200    1.000
    C78      C        0.05330    0.38570    0.72450    1.000
    C79      C        0.05700    0.44540    0.64830    1.000
    C80      C        0.75580    0.19950    0.52090    1.000
    C81      C        0.71740    0.23050    0.46640    1.000
    C82      C        0.64750    0.17190    0.45910    1.000
    C83      C        0.65770    0.05550    0.54910    1.000
    C84      C        0.72700    0.10960    0.55970    1.000
    C85      C        0.59190    0.09590    0.31130    1.000
    C86      C        0.56150    0.20270    0.26120    1.000
    C87      C        0.62260    0.02540    0.33140    1.000
    C88      C        0.68090    0.01400    0.26570    1.000
    C89      C        0.70320    0.94530    0.29270    1.000
    C90      C        0.66760    0.88980    0.38570    1.000
    C91      C        0.61160    0.90630    0.44540    1.000
    C92      C        0.55630    0.27960    0.19950    1.000
    C93      C        0.48690    0.30310    0.23050    1.000
    C94      C        0.47560    0.36900    0.17190    1.000
    C95      C        0.60220    0.39540    0.05550    1.000
    C96      C        0.61740    0.33070    0.10960    1.000
    C97      C        0.49600    0.59280    0.09590    1.000
    C98      C        0.35880    0.53610    0.20270    1.000
    C99      C        0.59720    0.64320    0.02540    1.000
    C100     C        0.66690    0.72030    0.01400    1.000
    C101     C        0.75790    0.76200    0.94530    1.000
    C102     C        0.77780    0.72450    0.88980    1.000
    C103     C        0.70530    0.64830    0.90630    1.000
    C104     C        0.27670    0.52090    0.27960    1.000
    C105     C        0.18380    0.46640    0.30310    1.000
    C106     C        0.10660    0.45910    0.36900    1.000
    C107     C        0.20680    0.54910    0.39540    1.000
    C108     C        0.28670    0.55970    0.33070    1.000
    C109     C        0.09680    0.68870    0.40720    1.000
    C110     C        0.17730    0.73880    0.46390    1.000
    C111     C        0.04600    0.66860    0.35680    1.000
    C112     C        0.05340    0.73430    0.27970    1.000
    C113     C        0.00410    0.70730    0.23800    1.000
    C114     C        0.94670    0.61430    0.27550    1.000
    C115     C        0.94300    0.55460    0.35170    1.000
    C116     C        0.24420    0.80050    0.47910    1.000
    C117     C        0.28260    0.76950    0.53360    1.000
    C118     C        0.35250    0.82810    0.54090    1.000
    C119     C        0.34230    0.94450    0.45090    1.000
    C120     C        0.27300    0.89040    0.44030    1.000
    C121     C        0.40810    0.90410    0.68870    1.000
    C122     C        0.43850    0.79730    0.73880    1.000
    C123     C        0.37740    0.97460    0.66860    1.000
    C124     C        0.31910    0.98600    0.73430    1.000
    C125     C        0.29680    0.05470    0.70730    1.000
    C126     C        0.33240    0.11020    0.61430    1.000
    C127     C        0.38840    0.09370    0.55460    1.000
    C128     C        0.44370    0.72040    0.80050    1.000
    C129     C        0.51310    0.69690    0.76950    1.000
    C130     C        0.52440    0.63100    0.82810    1.000
    C131     C        0.39780    0.60460    0.94450    1.000
    C132     C        0.38260    0.66930    0.89040    1.000
    C133     C        0.50400    0.40720    0.90410    1.000
    C134     C        0.64120    0.46390    0.79730    1.000
    C135     C        0.40280    0.35680    0.97460    1.000
    C136     C        0.33310    0.27970    0.98600    1.000
    C137     C        0.24210    0.23800    0.05470    1.000
    C138     C        0.22220    0.27550    0.11020    1.000
    C139     C        0.29470    0.35170    0.09370    1.000
    C140     C        0.72330    0.47910    0.72040    1.000
    C141     C        0.81620    0.53360    0.69690    1.000
    C142     C        0.89340    0.54090    0.63100    1.000
    C143     C        0.79320    0.45090    0.60460    1.000
    C144     C        0.71330    0.44030    0.66930    1.000
    N31      N        0.91560    0.38300    0.52200    1.000
    N32      N        0.86180    0.34900    0.48710    1.000
    N33      N        0.84540    0.23300    0.60390    1.000
    N34      N        0.00760    0.41990    0.60750    1.000
    N35      N        0.61490    0.08360    0.50010    1.000
    N36      N        0.53260    0.09500    0.38300    1.000
    N37      N        0.51280    0.16390    0.34900    1.000
    N38      N        0.61240    0.16310    0.23300    1.000
    N39      N        0.58770    0.97260    0.41990    1.000
    N40      N        0.53130    0.41630    0.08360    1.000
    N41      N        0.43760    0.52200    0.09500    1.000
    N42      N        0.34890    0.48710    0.16390    1.000
    N43      N        0.44930    0.60390    0.16310    1.000
    N44      N        0.61510    0.60750    0.97260    1.000
    N45      N        0.11500    0.50010    0.41630    1.000
    N46      N        0.08440    0.61700    0.47800    1.000
    N47      N        0.13820    0.65100    0.51290    1.000
    N48      N        0.15460    0.76700    0.39610    1.000
    N49      N        0.99240    0.58010    0.39250    1.000
    N50      N        0.38510    0.91640    0.49990    1.000
    N51      N        0.46740    0.90500    0.61700    1.000
    N52      N        0.48720    0.83610    0.65100    1.000
    N53      N        0.38760    0.83690    0.76700    1.000
    N54      N        0.41230    0.02740    0.58010    1.000
    N55      N        0.46870    0.58370    0.91640    1.000
    N56      N        0.56240    0.47800    0.90500    1.000
    N57      N        0.65110    0.51290    0.83610    1.000
    N58      N        0.55070    0.39610    0.83690    1.000
    N59      N        0.38490    0.39250    0.02740    1.000
    N60      N        0.88500    0.49990    0.58370    1.000
