data_functionalizedCrystal
_audit_creation_method	'EQeq! by Chris Wilmer'
_symmetry_space_group_name_H-M	'P1'
_symmetry_Int_Tables_number	1
_symmetry_cell_setting	triclinic
loop_
_symmetry_equiv_pos_as_xyz
  x,y,z
_cell_length_a	25.377
_cell_length_b	29.788
_cell_length_c	38.22
_cell_angle_alpha	90
_cell_angle_beta	99.005
_cell_angle_gamma	90
loop_
_atom_site_label
_atom_site_type_symbol
_atom_site_fract_x
_atom_site_fract_y
_atom_site_fract_z
_atom_site_charge
Mof_Zn	Zn	0.24332	0.55487	0.54995	1.226
Mof_Zn	Zn	0.25949	0.60724	0.47881	1.216
Mof_Zn	Zn	0.08935	0.39761	0.15875	1.189
Mof_Zn	Zn	0.98048	0.45941	0.15992	1.199
Mof_Zn	Zn	0.35095	0.60647	0.55305	1.19
Mof_Zn	Zn	0.24041	0.6552	0.54879	1.214
Mof_Zn	Zn	0.5304	0.85065	0.85958	1.223
Mof_Zn	Zn	0.47443	0.3667	0.8325	1.239
Mof_Zn	Zn	0.5285	0.59281	0.08324	1.192
Mof_Zn	Zn	0.25668	0.05487	0.45005	1.225
Mof_Zn	Zn	0.24051	0.10724	0.52119	1.215
Mof_Zn	Zn	0.41065	0.89761	0.84125	1.189
Mof_Zn	Zn	0.51952	0.95941	0.84008	1.199
Mof_Zn	Zn	0.14905	0.10647	0.44695	1.19
Mof_Zn	Zn	0.25959	0.1552	0.45121	1.214
Mof_Zn	Zn	0.9696	0.35065	0.14042	1.223
Mof_Zn	Zn	0.02557	0.8667	0.1675	1.239
Mof_Zn	Zn	0.9715	0.09281	0.91676	1.192
Mof_Zn	Zn	0.75668	0.44513	0.45005	1.225
Mof_Zn	Zn	0.74051	0.39276	0.52119	1.215
Mof_Zn	Zn	0.91065	0.60239	0.84125	1.189
Mof_Zn	Zn	0.01952	0.54059	0.84008	1.199
Mof_Zn	Zn	0.64905	0.39353	0.44695	1.19
Mof_Zn	Zn	0.75959	0.3448	0.45121	1.214
Mof_Zn	Zn	0.4696	0.14935	0.14042	1.223
Mof_Zn	Zn	0.52557	0.6333	0.1675	1.239
Mof_Zn	Zn	0.4715	0.40719	0.91676	1.192
Mof_Zn	Zn	0.74332	0.94513	0.54995	1.225
Mof_Zn	Zn	0.75949	0.89276	0.47881	1.215
Mof_Zn	Zn	0.58935	0.10239	0.15875	1.189
Mof_Zn	Zn	0.48048	0.04059	0.15992	1.199
Mof_Zn	Zn	0.85095	0.89353	0.55305	1.19
Mof_Zn	Zn	0.74041	0.8448	0.54879	1.214
Mof_Zn	Zn	0.0304	0.64935	0.85958	1.223
Mof_Zn	Zn	0.97443	0.1333	0.8325	1.239
Mof_Zn	Zn	0.0285	0.90719	0.08324	1.192
Mof_Si	Si	0.06527	0.38581	0.38258	0.762
Mof_Si	Si	0.32819	0.62292	0.78054	0.708
Mof_Si	Si	0.19108	0.65479	0.0781	0.775
Mof_Si	Si	0.45254	0.32624	0.60698	0.746
Mof_Si	Si	0.43473	0.88581	0.61742	0.762
Mof_Si	Si	0.17181	0.12292	0.21946	0.707
Mof_Si	Si	0.30892	0.15479	0.9219	0.775
Mof_Si	Si	0.04746	0.82624	0.39302	0.746
Mof_Si	Si	0.93473	0.61419	0.61742	0.762
Mof_Si	Si	0.67181	0.37708	0.21946	0.708
Mof_Si	Si	0.80892	0.34521	0.9219	0.775
Mof_Si	Si	0.54746	0.67376	0.39302	0.746
Mof_Si	Si	0.56527	0.11419	0.38258	0.762
Mof_Si	Si	0.82819	0.87708	0.78054	0.707
Mof_Si	Si	0.69108	0.84521	0.0781	0.775
Mof_Si	Si	0.95254	0.17376	0.60698	0.746
Mof_H 	H 	0.9942	0.6405	0.907	0.151
Mof_H 	H 	0.7456	0.3654	0.5873	0.23
Mof_H 	H 	0.1818	0.5175	0.402	0.07
Mof_H 	H 	0.1278	0.4651	0.3677	-0.004
Mof_H 	H 	0.1041	0.3996	0.4569	-0.007
Mof_H 	H 	0.1582	0.4521	0.4912	0.071
Mof_H 	H 	0.9242	0.4523	0.4391	0.075
Mof_H 	H 	0.009	0.4486	0.4226	-0.008
Mof_H 	H 	0.9676	0.3333	0.369	-0.012
Mof_H 	H 	0.8827	0.3371	0.3855	0.074
Mof_H 	H 	0.0703	0.2339	0.4326	0.061
Mof_H 	H 	0.0302	0.3024	0.4141	-0.005
Mof_H 	H 	0.1663	0.3423	0.3801	-0.008
Mof_H 	H 	0.2064	0.2738	0.3986	0.071
Mof_H 	H 	0.1149	0.3742	0.2639	0.067
Mof_H 	H 	0.1221	0.3562	0.3241	-0.01
Mof_H 	H 	0.0012	0.442	0.3336	-0.008
Mof_H 	H 	0.994	0.46	0.2734	0.069
Mof_H 	H 	0.1831	0.5478	0.8293	0.046
Mof_H 	H 	0.267	0.5533	0.8115	0.007
Mof_H 	H 	0.2348	0.6818	0.7806	0.001
Mof_H 	H 	0.1509	0.6763	0.7984	0.056
Mof_H 	H 	0.3864	0.6368	0.6652	0.056
Mof_H 	H 	0.3918	0.6476	0.7263	0.004
Mof_H 	H 	0.2489	0.5857	0.7236	0.005
Mof_H 	H 	0.2436	0.5748	0.6625	0.061
Mof_H 	H 	0.3508	0.7852	0.7925	0.055
Mof_H 	H 	0.3057	0.7187	0.7742	-0.01
Mof_H 	H 	0.4334	0.6465	0.8201	-0.003
Mof_H 	H 	0.4784	0.713	0.8385	0.069
Mof_H 	H 	0.4236	0.4827	0.7844	0.041
Mof_H 	H 	0.3798	0.5458	0.7575	0.013
Mof_H 	H 	0.3644	0.5955	0.8541	0.003
Mof_H 	H 	0.4083	0.5324	0.881	0.026
Mof_H 	H 	0.1806	0.5027	0.1207	0.052
Mof_H 	H 	0.2221	0.5651	0.0996	-0.007
Mof_H 	H 	0.0951	0.6423	0.1126	-0.002
Mof_H 	H 	0.0536	0.5799	0.1337	0.056
Mof_H 	H 	0.3641	0.6029	0.0567	0.028
Mof_H 	H 	0.2716	0.6126	0.0445	-0.003
Mof_H 	H 	0.2769	0.6874	0.1335	0.002
Mof_H 	H 	0.3694	0.6777	0.1457	0.053
Mof_H 	H 	0.1351	0.7632	0.1609	0.07
Mof_H 	H 	0.1756	0.6969	0.1458	-0.007
Mof_H 	H 	0.1489	0.7334	0.0424	-0.006
Mof_H 	H 	0.1084	0.7997	0.0575	0.047
Mof_H 	H 	0.0438	0.6232	0.9898	0.063
Mof_H 	H 	0.0956	0.6218	0.0461	-0.015
Mof_H 	H 	0.2197	0.676	0.0056	-0.019
Mof_H 	H 	0.1678	0.6773	0.9493	0.07
Mof_H 	H 	0.439	0.4842	0.5714	0.053
Mof_H 	H 	0.4838	0.4169	0.5876	-0.001
Mof_H 	H 	0.3425	0.356	0.5929	0
Mof_H 	H 	0.2977	0.4233	0.5768	0.067
Mof_H 	H 	0.4405	0.3848	0.7238	0.074
Mof_H 	H 	0.4296	0.3858	0.6619	-0.004
Mof_H 	H 	0.4899	0.2598	0.6622	-0.012
Mof_H 	H 	0.5008	0.2588	0.7242	0.071
Mof_H 	H 	0.3581	0.1825	0.5898	0.06
Mof_H 	H 	0.4099	0.237	0.6232	-0.004
Mof_H 	H 	0.4036	0.3149	0.5356	-0.004
Mof_H 	H 	0.3518	0.2603	0.5022	0.062
Mof_H 	H 	0.5818	0.3524	0.5248	0.042
Mof_H 	H 	0.4978	0.3331	0.5382	-0.005
Mof_H 	H 	0.5585	0.3314	0.6428	-0.001
Mof_H 	H 	0.6425	0.3507	0.6294	0.071
Mof_H 	H 	0.5058	0.1405	0.093	0.15
Mof_H 	H 	0.7544	0.8654	0.4127	0.23
Mof_H 	H 	0.3182	0.0175	0.598	0.071
Mof_H 	H 	0.3722	0.9651	0.6323	-0.004
Mof_H 	H 	0.3959	0.8996	0.5431	-0.007
Mof_H 	H 	0.3418	0.9521	0.5088	0.071
Mof_H 	H 	0.5758	0.9523	0.5609	0.075
Mof_H 	H 	0.491	0.9486	0.5774	-0.008
Mof_H 	H 	0.5324	0.8333	0.631	-0.012
Mof_H 	H 	0.6173	0.8371	0.6145	0.074
Mof_H 	H 	0.4297	0.7339	0.5674	0.061
Mof_H 	H 	0.4698	0.8024	0.5859	-0.005
Mof_H 	H 	0.3337	0.8423	0.6199	-0.008
Mof_H 	H 	0.2936	0.7738	0.6014	0.071
Mof_H 	H 	0.3851	0.8742	0.7361	0.067
Mof_H 	H 	0.3779	0.8562	0.6759	-0.01
Mof_H 	H 	0.4988	0.942	0.6664	-0.008
Mof_H 	H 	0.506	0.96	0.7266	0.069
Mof_H 	H 	0.3169	0.0478	0.1707	0.046
Mof_H 	H 	0.233	0.0533	0.1885	0.007
Mof_H 	H 	0.2652	0.1818	0.2194	0.001
Mof_H 	H 	0.3491	0.1763	0.2016	0.056
Mof_H 	H 	0.1136	0.1368	0.3348	0.056
Mof_H 	H 	0.1082	0.1476	0.2737	0.004
Mof_H 	H 	0.2511	0.0857	0.2764	0.005
Mof_H 	H 	0.2564	0.0748	0.3375	0.061
Mof_H 	H 	0.1492	0.2852	0.2075	0.055
Mof_H 	H 	0.1943	0.2187	0.2258	-0.01
Mof_H 	H 	0.0666	0.1465	0.1799	-0.003
Mof_H 	H 	0.0216	0.213	0.1615	0.069
Mof_H 	H 	0.0764	0.9827	0.2156	0.04
Mof_H 	H 	0.1202	0.0458	0.2425	0.013
Mof_H 	H 	0.1356	0.0955	0.1459	0.003
Mof_H 	H 	0.0917	0.0324	0.119	0.026
Mof_H 	H 	0.3194	0.0027	0.8793	0.053
Mof_H 	H 	0.2779	0.0651	0.9004	-0.007
Mof_H 	H 	0.4049	0.1423	0.8874	-0.002
Mof_H 	H 	0.4464	0.0799	0.8663	0.056
Mof_H 	H 	0.1359	0.1029	0.9433	0.028
Mof_H 	H 	0.2284	0.1126	0.9555	-0.003
Mof_H 	H 	0.2231	0.1874	0.8665	0.002
Mof_H 	H 	0.1306	0.1777	0.8543	0.053
Mof_H 	H 	0.3649	0.2632	0.8391	0.07
Mof_H 	H 	0.3244	0.1969	0.8542	-0.007
Mof_H 	H 	0.3511	0.2334	0.9576	-0.006
Mof_H 	H 	0.3916	0.2997	0.9425	0.047
Mof_H 	H 	0.4562	0.1232	0.0102	0.063
Mof_H 	H 	0.4044	0.1218	0.9539	-0.015
Mof_H 	H 	0.2803	0.176	0.9944	-0.019
Mof_H 	H 	0.3322	0.1773	0.0507	0.07
Mof_H 	H 	0.061	0.9842	0.4286	0.053
Mof_H 	H 	0.0162	0.9169	0.4124	-0.001
Mof_H 	H 	0.1575	0.856	0.4071	0
Mof_H 	H 	0.2023	0.9233	0.4232	0.067
Mof_H 	H 	0.0595	0.8848	0.2762	0.074
Mof_H 	H 	0.0704	0.8858	0.3381	-0.004
Mof_H 	H 	0.0101	0.7598	0.3378	-0.012
Mof_H 	H 	0.9992	0.7588	0.2758	0.071
Mof_H 	H 	0.1419	0.6825	0.4102	0.06
Mof_H 	H 	0.0901	0.737	0.3768	-0.004
Mof_H 	H 	0.0964	0.8149	0.4644	-0.004
Mof_H 	H 	0.1482	0.7603	0.4978	0.062
Mof_H 	H 	0.9182	0.8524	0.4752	0.042
Mof_H 	H 	0.0022	0.8331	0.4618	-0.006
Mof_H 	H 	0.9415	0.8314	0.3572	-0
Mof_H 	H 	0.8575	0.8507	0.3706	0.071
Mof_H 	H 	0.0058	0.3595	0.093	0.151
Mof_H 	H 	0.2544	0.6346	0.4127	0.23
Mof_H 	H 	0.8182	0.4825	0.598	0.07
Mof_H 	H 	0.8722	0.5349	0.6323	-0.004
Mof_H 	H 	0.8959	0.6004	0.5431	-0.007
Mof_H 	H 	0.8418	0.5479	0.5088	0.071
Mof_H 	H 	0.0758	0.5477	0.5609	0.075
Mof_H 	H 	0.991	0.5514	0.5774	-0.008
Mof_H 	H 	0.0324	0.6667	0.631	-0.012
Mof_H 	H 	0.1173	0.6629	0.6145	0.074
Mof_H 	H 	0.9297	0.7661	0.5674	0.061
Mof_H 	H 	0.9698	0.6976	0.5859	-0.005
Mof_H 	H 	0.8337	0.6577	0.6199	-0.008
Mof_H 	H 	0.7936	0.7262	0.6014	0.071
Mof_H 	H 	0.8851	0.6258	0.7361	0.067
Mof_H 	H 	0.8779	0.6438	0.6759	-0.01
Mof_H 	H 	0.9988	0.558	0.6664	-0.008
Mof_H 	H 	0.006	0.54	0.7266	0.069
Mof_H 	H 	0.8169	0.4522	0.1707	0.046
Mof_H 	H 	0.733	0.4467	0.1885	0.007
Mof_H 	H 	0.7652	0.3182	0.2194	0.001
Mof_H 	H 	0.8491	0.3237	0.2016	0.056
Mof_H 	H 	0.6136	0.3632	0.3348	0.056
Mof_H 	H 	0.6082	0.3524	0.2737	0.004
Mof_H 	H 	0.7511	0.4143	0.2764	0.005
Mof_H 	H 	0.7564	0.4252	0.3375	0.061
Mof_H 	H 	0.6492	0.2148	0.2075	0.055
Mof_H 	H 	0.6943	0.2813	0.2258	-0.01
Mof_H 	H 	0.5666	0.3535	0.1799	-0.003
Mof_H 	H 	0.5216	0.287	0.1615	0.069
Mof_H 	H 	0.5764	0.5173	0.2156	0.041
Mof_H 	H 	0.6202	0.4542	0.2425	0.013
Mof_H 	H 	0.6356	0.4045	0.1459	0.003
Mof_H 	H 	0.5917	0.4676	0.119	0.026
Mof_H 	H 	0.8194	0.4973	0.8793	0.052
Mof_H 	H 	0.7779	0.4349	0.9004	-0.007
Mof_H 	H 	0.9049	0.3577	0.8874	-0.002
Mof_H 	H 	0.9464	0.4201	0.8663	0.056
Mof_H 	H 	0.6359	0.3971	0.9433	0.028
Mof_H 	H 	0.7284	0.3874	0.9555	-0.003
Mof_H 	H 	0.7231	0.3126	0.8665	0.002
Mof_H 	H 	0.6306	0.3223	0.8543	0.053
Mof_H 	H 	0.8649	0.2368	0.8391	0.07
Mof_H 	H 	0.8244	0.3031	0.8542	-0.007
Mof_H 	H 	0.8511	0.2666	0.9576	-0.006
Mof_H 	H 	0.8916	0.2003	0.9425	0.047
Mof_H 	H 	0.9562	0.3768	0.0102	0.063
Mof_H 	H 	0.9044	0.3782	0.9539	-0.015
Mof_H 	H 	0.7803	0.324	0.9944	-0.019
Mof_H 	H 	0.8322	0.3227	0.0507	0.07
Mof_H 	H 	0.561	0.5158	0.4286	0.053
Mof_H 	H 	0.5162	0.5831	0.4124	-0.001
Mof_H 	H 	0.6575	0.644	0.4071	0
Mof_H 	H 	0.7023	0.5767	0.4232	0.067
Mof_H 	H 	0.5595	0.6152	0.2762	0.074
Mof_H 	H 	0.5704	0.6142	0.3381	-0.004
Mof_H 	H 	0.5101	0.7402	0.3378	-0.012
Mof_H 	H 	0.4992	0.7412	0.2758	0.071
Mof_H 	H 	0.6419	0.8175	0.4102	0.06
Mof_H 	H 	0.5901	0.763	0.3768	-0.004
Mof_H 	H 	0.5964	0.6851	0.4644	-0.004
Mof_H 	H 	0.6482	0.7397	0.4978	0.062
Mof_H 	H 	0.4182	0.6476	0.4752	0.042
Mof_H 	H 	0.5022	0.6669	0.4618	-0.005
Mof_H 	H 	0.4415	0.6686	0.3572	-0.001
Mof_H 	H 	0.3575	0.6493	0.3706	0.071
Mof_H 	H 	0.4942	0.8595	0.907	0.15
Mof_H 	H 	0.2456	0.1346	0.5873	0.23
Mof_H 	H 	0.6818	0.9825	0.402	0.071
Mof_H 	H 	0.6278	0.0349	0.3677	-0.004
Mof_H 	H 	0.6041	0.1004	0.4569	-0.007
Mof_H 	H 	0.6582	0.0479	0.4912	0.071
Mof_H 	H 	0.4242	0.0477	0.4391	0.075
Mof_H 	H 	0.509	0.0514	0.4226	-0.008
Mof_H 	H 	0.4676	0.1667	0.369	-0.012
Mof_H 	H 	0.3827	0.1629	0.3855	0.074
Mof_H 	H 	0.5703	0.2661	0.4326	0.061
Mof_H 	H 	0.5302	0.1976	0.4141	-0.005
Mof_H 	H 	0.6663	0.1577	0.3801	-0.008
Mof_H 	H 	0.7064	0.2262	0.3986	0.071
Mof_H 	H 	0.6149	0.1258	0.2639	0.067
Mof_H 	H 	0.6221	0.1438	0.3241	-0.01
Mof_H 	H 	0.5012	0.058	0.3336	-0.008
Mof_H 	H 	0.494	0.04	0.2734	0.069
Mof_H 	H 	0.6831	0.9522	0.8293	0.046
Mof_H 	H 	0.767	0.9467	0.8115	0.007
Mof_H 	H 	0.7348	0.8182	0.7806	0.001
Mof_H 	H 	0.6509	0.8237	0.7984	0.056
Mof_H 	H 	0.8864	0.8632	0.6652	0.056
Mof_H 	H 	0.8918	0.8524	0.7263	0.004
Mof_H 	H 	0.7489	0.9143	0.7236	0.005
Mof_H 	H 	0.7436	0.9252	0.6625	0.061
Mof_H 	H 	0.8508	0.7148	0.7925	0.055
Mof_H 	H 	0.8057	0.7813	0.7742	-0.01
Mof_H 	H 	0.9334	0.8535	0.8201	-0.003
Mof_H 	H 	0.9784	0.787	0.8385	0.069
Mof_H 	H 	0.9236	0.0173	0.7844	0.04
Mof_H 	H 	0.8798	0.9542	0.7575	0.013
Mof_H 	H 	0.8644	0.9045	0.8541	0.003
Mof_H 	H 	0.9083	0.9676	0.881	0.026
Mof_H 	H 	0.6806	0.9973	0.1207	0.053
Mof_H 	H 	0.7221	0.9349	0.0996	-0.007
Mof_H 	H 	0.5951	0.8577	0.1126	-0.002
Mof_H 	H 	0.5536	0.9201	0.1337	0.056
Mof_H 	H 	0.8641	0.8971	0.0567	0.028
Mof_H 	H 	0.7716	0.8874	0.0445	-0.003
Mof_H 	H 	0.7769	0.8126	0.1335	0.002
Mof_H 	H 	0.8694	0.8223	0.1457	0.053
Mof_H 	H 	0.6351	0.7368	0.1609	0.07
Mof_H 	H 	0.6756	0.8031	0.1458	-0.007
Mof_H 	H 	0.6489	0.7666	0.0424	-0.006
Mof_H 	H 	0.6084	0.7003	0.0575	0.047
Mof_H 	H 	0.5438	0.8768	0.9898	0.063
Mof_H 	H 	0.5956	0.8782	0.0461	-0.015
Mof_H 	H 	0.7197	0.824	0.0056	-0.019
Mof_H 	H 	0.6678	0.8227	0.9493	0.07
Mof_H 	H 	0.939	0.0158	0.5714	0.053
Mof_H 	H 	0.9838	0.0831	0.5876	-0.001
Mof_H 	H 	0.8425	0.144	0.5929	0
Mof_H 	H 	0.7977	0.0767	0.5768	0.067
Mof_H 	H 	0.9405	0.1152	0.7238	0.074
Mof_H 	H 	0.9296	0.1142	0.6619	-0.004
Mof_H 	H 	0.9899	0.2402	0.6622	-0.012
Mof_H 	H 	0.0008	0.2412	0.7242	0.071
Mof_H 	H 	0.8581	0.3175	0.5898	0.06
Mof_H 	H 	0.9099	0.263	0.6232	-0.004
Mof_H 	H 	0.9036	0.1851	0.5356	-0.004
Mof_H 	H 	0.8518	0.2397	0.5022	0.062
Mof_H 	H 	0.0818	0.1476	0.5248	0.042
Mof_H 	H 	0.9978	0.1669	0.5382	-0.006
Mof_H 	H 	0.0585	0.1686	0.6428	-0
Mof_H 	H 	0.1425	0.1493	0.6294	0.071
Mof_C 	C 	0.2043	0.52473	0.47272	0.36
Mof_C 	C 	0.17506	0.4897	0.44984	-0.038
Mof_C 	C 	0.16603	0.49356	0.41315	-0.078
Mof_C 	C 	0.13394	0.46242	0.39276	0.074
Mof_C 	C 	0.11088	0.42742	0.40907	-0.261
Mof_C 	C 	0.11991	0.42356	0.44576	0.076
Mof_C 	C 	0.152	0.4547	0.46615	-0.08
Mof_C 	C 	0.8437	0.39624	0.42822	0.331
Mof_C 	C 	0.89545	0.39506	0.41387	-0.017
Mof_C 	C 	0.93298	0.42818	0.42489	-0.094
Mof_C 	C 	0.98339	0.42593	0.41508	0.084
Mof_C 	C 	0.99628	0.39057	0.39425	-0.268
Mof_C 	C 	0.95875	0.35745	0.38322	0.084
Mof_C 	C 	0.90833	0.3597	0.39304	-0.091
Mof_C 	C 	0.1677	0.20349	0.43087	0.383
Mof_C 	C 	0.14215	0.2474	0.41733	-0.041
Mof_C 	C 	0.08981	0.25589	0.42192	-0.077
Mof_C 	C 	0.06595	0.29657	0.41092	0.072
Mof_C 	C 	0.09444	0.32876	0.39532	-0.258
Mof_C 	C 	0.14678	0.32027	0.39073	0.072
Mof_C 	C 	0.17064	0.27959	0.40174	-0.075
Mof_C 	C 	0.04673	0.43209	0.22453	0.349
Mof_C 	C 	0.05377	0.4188	0.26303	-0.031
Mof_C 	C 	0.09183	0.38797	0.27806	-0.084
Mof_C 	C 	0.09611	0.37728	0.3138	0.085
Mof_C 	C 	0.06233	0.3974	0.33449	-0.271
Mof_C 	C 	0.02428	0.42822	0.31946	0.078
Mof_C 	C 	0.02	0.43892	0.28373	-0.083
Mof_C 	C 	0.1089	0.6079	0.82674	0.386
Mof_C 	C 	0.15911	0.61153	0.81552	-0.09
Mof_C 	C 	0.19359	0.57499	0.81943	-0.04
Mof_C 	C 	0.24344	0.57826	0.80887	0.034
Mof_C 	C 	0.25879	0.61808	0.79439	-0.218
Mof_C 	C 	0.22431	0.65462	0.79047	0.038
Mof_C 	C 	0.17446	0.65135	0.80104	-0.041
Mof_C 	C 	0.3104	0.5981	0.62104	0.38
Mof_C 	C 	0.31455	0.60478	0.65813	-0.081
Mof_C 	C 	0.35854	0.62639	0.67708	-0.045
Mof_C 	C 	0.36169	0.63285	0.71337	0.045
Mof_C 	C 	0.32085	0.61769	0.73071	-0.23
Mof_C 	C 	0.27686	0.59607	0.71176	0.047
Mof_C 	C 	0.27371	0.58962	0.67547	-0.046
Mof_C 	C 	0.4486	0.79784	0.82921	0.311
Mof_C 	C 	0.41882	0.75539	0.8172	-0.029
Mof_C 	C 	0.36752	0.75707	0.7981	-0.084
Mof_C 	C 	0.34077	0.71754	0.78722	0.066
Mof_C 	C 	0.36531	0.67633	0.79544	-0.246
Mof_C 	C 	0.4166	0.67465	0.81453	0.066
Mof_C 	C 	0.44336	0.71418	0.82541	-0.084
Mof_C 	C 	0.44	0.4622	0.8527	0.485
Mof_C 	C 	0.42009	0.50161	0.8353	-0.156
Mof_C 	C 	0.41162	0.5056	0.79859	-0.002
Mof_C 	C 	0.3856	0.5431	0.7826	0.019
Mof_C 	C 	0.36798	0.57661	0.8033	-0.227
Mof_C 	C 	0.3764	0.5726	0.83999	0.025
Mof_C 	C 	0.4025	0.5351	0.85597	-0.01
Mof_C 	C 	0.0859	0.4948	0.14331	0.412
Mof_C 	C 	0.11325	0.53546	0.12919	-0.059
Mof_C 	C 	0.16327	0.53106	0.11907	-0.066
Mof_C 	C 	0.18787	0.56812	0.10653	0.059
Mof_C 	C 	0.16246	0.60959	0.10411	-0.254
Mof_C 	C 	0.11243	0.614	0.11424	0.065
Mof_C 	C 	0.08783	0.57694	0.12678	-0.067
Mof_C 	C 	0.4306	0.6312	0.1106	0.458
Mof_C 	C 	0.37549	0.63942	0.10235	-0.133
Mof_C 	C 	0.3464	0.62008	0.07228	-0.023
Mof_C 	C 	0.2914	0.62581	0.06503	0.036
Mof_C 	C 	0.26551	0.65088	0.08787	-0.249
Mof_C 	C 	0.2946	0.67023	0.11794	0.046
Mof_C 	C 	0.3496	0.6645	0.12519	-0.026
Mof_C 	C 	0.0849	0.8278	0.1178	0.38
Mof_C 	C 	0.11793	0.7877	0.11058	-0.054
Mof_C 	C 	0.1379	0.7571	0.13682	-0.074
Mof_C 	C 	0.16195	0.71774	0.12788	0.078
Mof_C 	C 	0.16606	0.70891	0.0927	-0.271
Mof_C 	C 	0.1461	0.7395	0.06646	0.068
Mof_C 	C 	0.12204	0.77886	0.0754	-0.073
Mof_C 	C 	0.05718	0.6486	0.9326	0.313
Mof_C 	C 	0.101	0.6504	0.96424	-0.016
Mof_C 	C 	0.07951	0.63392	0.99299	-0.107
Mof_C 	C 	0.1103	0.63311	0.02644	0.087
Mof_C 	C 	0.1625	0.64877	0.03113	-0.291
Mof_C 	C 	0.18396	0.66525	0.00238	0.097
Mof_C 	C 	0.1532	0.66606	0.96893	-0.1
Mof_C 	C 	0.3378	0.50363	0.56113	0.393
Mof_C 	C 	0.36416	0.46012	0.57258	-0.06
Mof_C 	C 	0.41944	0.45821	0.57581	-0.064
Mof_C 	C 	0.44603	0.41821	0.58543	0.059
Mof_C 	C 	0.41734	0.38013	0.59181	-0.245
Mof_C 	C 	0.36206	0.38204	0.58858	0.059
Mof_C 	C 	0.33547	0.42204	0.57897	-0.06
Mof_C 	C 	0.4795	0.3249	0.77	0.366
Mof_C 	C 	0.47166	0.3217	0.7298	-0.029
Mof_C 	C 	0.45053	0.35944	0.7113	-0.085
Mof_C 	C 	0.44405	0.36003	0.67452	0.077
Mof_C 	C 	0.45871	0.3229	0.65622	-0.267
Mof_C 	C 	0.47985	0.28517	0.67472	0.081
Mof_C 	C 	0.48633	0.28457	0.71151	-0.085
Mof_C 	C 	0.3127	0.1829	0.5238	0.409
Mof_C 	C 	0.35009	0.21627	0.54284	-0.069
Mof_C 	C 	0.36735	0.20936	0.57877	-0.065
Mof_C 	C 	0.39812	0.24177	0.59863	0.069
Mof_C 	C 	0.41163	0.28108	0.58255	-0.258
Mof_C 	C 	0.39436	0.28799	0.54662	0.062
Mof_C 	C 	0.36359	0.25558	0.52676	-0.058
Mof_C 	C 	0.67706	0.3617	0.5709	0.366
Mof_C 	C 	0.62004	0.35336	0.57588	-0.046
Mof_C 	C 	0.5771	0.34812	0.54878	-0.065
Mof_C 	C 	0.52719	0.33666	0.55672	0.061
Mof_C 	C 	0.52025	0.33045	0.59176	-0.243
Mof_C 	C 	0.5632	0.33569	0.61885	0.058
Mof_C 	C 	0.61311	0.34714	0.61092	-0.074
Mof_C 	C 	0.2957	0.02473	0.52728	0.36
Mof_C 	C 	0.32494	0.9897	0.55016	-0.038
Mof_C 	C 	0.33397	0.99356	0.58685	-0.078
Mof_C 	C 	0.36606	0.96242	0.60724	0.075
Mof_C 	C 	0.38912	0.92742	0.59093	-0.261
Mof_C 	C 	0.38009	0.92356	0.55424	0.076
Mof_C 	C 	0.348	0.9547	0.53385	-0.08
Mof_C 	C 	0.6563	0.89624	0.57178	0.331
Mof_C 	C 	0.60455	0.89506	0.58613	-0.017
Mof_C 	C 	0.56702	0.92818	0.57511	-0.094
Mof_C 	C 	0.51661	0.92593	0.58492	0.084
Mof_C 	C 	0.50372	0.89057	0.60575	-0.268
Mof_C 	C 	0.54125	0.85745	0.61678	0.084
Mof_C 	C 	0.59167	0.8597	0.60696	-0.091
Mof_C 	C 	0.3323	0.70349	0.56913	0.383
Mof_C 	C 	0.35785	0.7474	0.58267	-0.041
Mof_C 	C 	0.41019	0.75589	0.57808	-0.077
Mof_C 	C 	0.43405	0.79657	0.58908	0.072
Mof_C 	C 	0.40556	0.82876	0.60468	-0.258
Mof_C 	C 	0.35322	0.82027	0.60927	0.072
Mof_C 	C 	0.32936	0.77959	0.59826	-0.075
Mof_C 	C 	0.45327	0.93209	0.77547	0.349
Mof_C 	C 	0.44623	0.9188	0.73697	-0.03
Mof_C 	C 	0.40817	0.88797	0.72194	-0.084
Mof_C 	C 	0.40389	0.87728	0.6862	0.085
Mof_C 	C 	0.43767	0.8974	0.66551	-0.271
Mof_C 	C 	0.47572	0.92822	0.68054	0.078
Mof_C 	C 	0.48	0.93892	0.71627	-0.084
Mof_C 	C 	0.3911	0.1079	0.17326	0.386
Mof_C 	C 	0.34089	0.11153	0.18448	-0.09
Mof_C 	C 	0.30641	0.07499	0.18057	-0.04
Mof_C 	C 	0.25656	0.07826	0.19113	0.034
Mof_C 	C 	0.24121	0.11808	0.20561	-0.218
Mof_C 	C 	0.27569	0.15462	0.20953	0.038
Mof_C 	C 	0.32554	0.15135	0.19896	-0.041
Mof_C 	C 	0.1896	0.0981	0.37896	0.38
Mof_C 	C 	0.18545	0.10478	0.34187	-0.081
Mof_C 	C 	0.14146	0.12639	0.32292	-0.045
Mof_C 	C 	0.13831	0.13285	0.28663	0.045
Mof_C 	C 	0.17915	0.11769	0.26929	-0.23
Mof_C 	C 	0.22314	0.09607	0.28824	0.047
Mof_C 	C 	0.22629	0.08962	0.32453	-0.046
Mof_C 	C 	0.0514	0.29784	0.17079	0.311
Mof_C 	C 	0.08118	0.25539	0.1828	-0.029
Mof_C 	C 	0.13248	0.25707	0.2019	-0.084
Mof_C 	C 	0.15923	0.21754	0.21278	0.066
Mof_C 	C 	0.13469	0.17633	0.20456	-0.246
Mof_C 	C 	0.0834	0.17465	0.18547	0.066
Mof_C 	C 	0.05664	0.21418	0.17459	-0.084
Mof_C 	C 	0.06	0.9622	0.1473	0.484
Mof_C 	C 	0.07991	0.00161	0.1647	-0.156
Mof_C 	C 	0.08838	0.0056	0.20141	-0.001
Mof_C 	C 	0.1144	0.0431	0.2174	0.018
Mof_C 	C 	0.13202	0.07661	0.1967	-0.227
Mof_C 	C 	0.1236	0.0726	0.16001	0.025
Mof_C 	C 	0.0975	0.0351	0.14403	-0.01
Mof_C 	C 	0.4141	0.9948	0.85669	0.412
Mof_C 	C 	0.38675	0.03546	0.87081	-0.059
Mof_C 	C 	0.33673	0.03106	0.88093	-0.066
Mof_C 	C 	0.31213	0.06812	0.89347	0.059
Mof_C 	C 	0.33754	0.10959	0.89589	-0.254
Mof_C 	C 	0.38757	0.114	0.88576	0.065
Mof_C 	C 	0.41217	0.07694	0.87322	-0.067
Mof_C 	C 	0.0694	0.1312	0.8894	0.458
Mof_C 	C 	0.12451	0.13942	0.89765	-0.133
Mof_C 	C 	0.1536	0.12008	0.92772	-0.023
Mof_C 	C 	0.2086	0.12581	0.93497	0.036
Mof_C 	C 	0.23449	0.15088	0.91213	-0.249
Mof_C 	C 	0.2054	0.17023	0.88206	0.046
Mof_C 	C 	0.1504	0.1645	0.87481	-0.027
Mof_C 	C 	0.4151	0.3278	0.8822	0.38
Mof_C 	C 	0.38207	0.2877	0.88942	-0.054
Mof_C 	C 	0.3621	0.2571	0.86318	-0.074
Mof_C 	C 	0.33805	0.21774	0.87212	0.078
Mof_C 	C 	0.33394	0.20891	0.9073	-0.271
Mof_C 	C 	0.3539	0.2395	0.93354	0.068
Mof_C 	C 	0.37796	0.27886	0.9246	-0.073
Mof_C 	C 	0.44282	0.1486	0.0674	0.313
Mof_C 	C 	0.399	0.1504	0.03576	-0.016
Mof_C 	C 	0.42049	0.13392	0.00701	-0.107
Mof_C 	C 	0.3897	0.13311	0.97356	0.087
Mof_C 	C 	0.3375	0.14877	0.96887	-0.291
Mof_C 	C 	0.31604	0.16525	0.99762	0.097
Mof_C 	C 	0.3468	0.16606	0.03107	-0.1
Mof_C 	C 	0.1622	0.00363	0.43887	0.393
Mof_C 	C 	0.13584	0.96012	0.42742	-0.06
Mof_C 	C 	0.08056	0.95821	0.42419	-0.064
Mof_C 	C 	0.05397	0.91821	0.41457	0.059
Mof_C 	C 	0.08266	0.88013	0.40819	-0.245
Mof_C 	C 	0.13794	0.88204	0.41142	0.059
Mof_C 	C 	0.16453	0.92204	0.42103	-0.06
Mof_C 	C 	0.0205	0.8249	0.23	0.366
Mof_C 	C 	0.02834	0.8217	0.2702	-0.029
Mof_C 	C 	0.04947	0.85944	0.2887	-0.085
Mof_C 	C 	0.05595	0.86003	0.32548	0.077
Mof_C 	C 	0.04129	0.8229	0.34378	-0.267
Mof_C 	C 	0.02015	0.78517	0.32528	0.082
Mof_C 	C 	0.01367	0.78457	0.28849	-0.085
Mof_C 	C 	0.1873	0.6829	0.4762	0.409
Mof_C 	C 	0.14991	0.71627	0.45716	-0.069
Mof_C 	C 	0.13265	0.70936	0.42123	-0.065
Mof_C 	C 	0.10188	0.74177	0.40137	0.069
Mof_C 	C 	0.08837	0.78108	0.41745	-0.258
Mof_C 	C 	0.10564	0.78799	0.45338	0.062
Mof_C 	C 	0.13641	0.75558	0.47324	-0.058
Mof_C 	C 	0.82294	0.8617	0.4291	0.366
Mof_C 	C 	0.87996	0.85336	0.42412	-0.046
Mof_C 	C 	0.9229	0.84812	0.45122	-0.065
Mof_C 	C 	0.97281	0.83666	0.44328	0.062
Mof_C 	C 	0.97975	0.83045	0.40824	-0.243
Mof_C 	C 	0.9368	0.83569	0.38115	0.058
Mof_C 	C 	0.88689	0.84714	0.38908	-0.074
Mof_C 	C 	0.7957	0.47527	0.52728	0.36
Mof_C 	C 	0.82494	0.5103	0.55016	-0.038
Mof_C 	C 	0.83397	0.50644	0.58685	-0.078
Mof_C 	C 	0.86606	0.53758	0.60724	0.074
Mof_C 	C 	0.88912	0.57258	0.59093	-0.261
Mof_C 	C 	0.88009	0.57644	0.55424	0.076
Mof_C 	C 	0.848	0.5453	0.53385	-0.08
Mof_C 	C 	0.1563	0.60376	0.57178	0.331
Mof_C 	C 	0.10455	0.60494	0.58613	-0.017
Mof_C 	C 	0.06702	0.57182	0.57511	-0.094
Mof_C 	C 	0.01661	0.57407	0.58492	0.084
Mof_C 	C 	0.00372	0.60943	0.60575	-0.268
Mof_C 	C 	0.04125	0.64255	0.61678	0.084
Mof_C 	C 	0.09167	0.6403	0.60696	-0.091
Mof_C 	C 	0.8323	0.79651	0.56913	0.383
Mof_C 	C 	0.85785	0.7526	0.58267	-0.041
Mof_C 	C 	0.91019	0.74411	0.57808	-0.077
Mof_C 	C 	0.93405	0.70343	0.58908	0.072
Mof_C 	C 	0.90556	0.67124	0.60468	-0.258
Mof_C 	C 	0.85322	0.67973	0.60927	0.072
Mof_C 	C 	0.82936	0.72041	0.59826	-0.075
Mof_C 	C 	0.95327	0.56791	0.77547	0.349
Mof_C 	C 	0.94623	0.5812	0.73697	-0.031
Mof_C 	C 	0.90817	0.61203	0.72194	-0.084
Mof_C 	C 	0.90389	0.62272	0.6862	0.085
Mof_C 	C 	0.93767	0.6026	0.66551	-0.271
Mof_C 	C 	0.97572	0.57178	0.68054	0.078
Mof_C 	C 	0.98	0.56108	0.71627	-0.083
Mof_C 	C 	0.8911	0.3921	0.17326	0.386
Mof_C 	C 	0.84089	0.38847	0.18448	-0.09
Mof_C 	C 	0.80641	0.42501	0.18057	-0.04
Mof_C 	C 	0.75656	0.42174	0.19113	0.034
Mof_C 	C 	0.74121	0.38192	0.20561	-0.218
Mof_C 	C 	0.77569	0.34538	0.20953	0.038
Mof_C 	C 	0.82554	0.34865	0.19896	-0.041
Mof_C 	C 	0.6896	0.4019	0.37896	0.38
Mof_C 	C 	0.68545	0.39522	0.34187	-0.081
Mof_C 	C 	0.64146	0.37361	0.32292	-0.045
Mof_C 	C 	0.63831	0.36715	0.28663	0.045
Mof_C 	C 	0.67915	0.38231	0.26929	-0.23
Mof_C 	C 	0.72314	0.40393	0.28824	0.047
Mof_C 	C 	0.72629	0.41038	0.32453	-0.046
Mof_C 	C 	0.5514	0.20216	0.17079	0.311
Mof_C 	C 	0.58118	0.24461	0.1828	-0.029
Mof_C 	C 	0.63248	0.24293	0.2019	-0.084
Mof_C 	C 	0.65923	0.28246	0.21278	0.066
Mof_C 	C 	0.63469	0.32367	0.20456	-0.246
Mof_C 	C 	0.5834	0.32535	0.18547	0.066
Mof_C 	C 	0.55664	0.28582	0.17459	-0.084
Mof_C 	C 	0.56	0.5378	0.1473	0.485
Mof_C 	C 	0.57991	0.49839	0.1647	-0.156
Mof_C 	C 	0.58838	0.4944	0.20141	-0.002
Mof_C 	C 	0.6144	0.4569	0.2174	0.019
Mof_C 	C 	0.63202	0.42339	0.1967	-0.227
Mof_C 	C 	0.6236	0.4274	0.16001	0.025
Mof_C 	C 	0.5975	0.4649	0.14403	-0.01
Mof_C 	C 	0.9141	0.5052	0.85669	0.412
Mof_C 	C 	0.88675	0.46454	0.87081	-0.059
Mof_C 	C 	0.83673	0.46894	0.88093	-0.066
Mof_C 	C 	0.81213	0.43188	0.89347	0.059
Mof_C 	C 	0.83754	0.39041	0.89589	-0.254
Mof_C 	C 	0.88757	0.386	0.88576	0.065
Mof_C 	C 	0.91217	0.42306	0.87322	-0.067
Mof_C 	C 	0.5694	0.3688	0.8894	0.458
Mof_C 	C 	0.62451	0.36058	0.89765	-0.133
Mof_C 	C 	0.6536	0.37992	0.92772	-0.023
Mof_C 	C 	0.7086	0.37419	0.93497	0.036
Mof_C 	C 	0.73449	0.34912	0.91213	-0.249
Mof_C 	C 	0.7054	0.32977	0.88206	0.046
Mof_C 	C 	0.6504	0.3355	0.87481	-0.026
Mof_C 	C 	0.9151	0.1722	0.8822	0.38
Mof_C 	C 	0.88207	0.2123	0.88942	-0.054
Mof_C 	C 	0.8621	0.2429	0.86318	-0.074
Mof_C 	C 	0.83805	0.28226	0.87212	0.078
Mof_C 	C 	0.83394	0.29109	0.9073	-0.271
Mof_C 	C 	0.8539	0.2605	0.93354	0.068
Mof_C 	C 	0.87796	0.22114	0.9246	-0.073
Mof_C 	C 	0.94282	0.3514	0.0674	0.313
Mof_C 	C 	0.899	0.3496	0.03576	-0.016
Mof_C 	C 	0.92049	0.36608	0.00701	-0.107
Mof_C 	C 	0.8897	0.36689	0.97356	0.087
Mof_C 	C 	0.8375	0.35123	0.96887	-0.291
Mof_C 	C 	0.81604	0.33475	0.99762	0.097
Mof_C 	C 	0.8468	0.33394	0.03107	-0.1
Mof_C 	C 	0.6622	0.49637	0.43887	0.393
Mof_C 	C 	0.63584	0.53988	0.42742	-0.06
Mof_C 	C 	0.58056	0.54179	0.42419	-0.064
Mof_C 	C 	0.55397	0.58179	0.41457	0.059
Mof_C 	C 	0.58266	0.61987	0.40819	-0.245
Mof_C 	C 	0.63794	0.61796	0.41142	0.059
Mof_C 	C 	0.66453	0.57796	0.42103	-0.06
Mof_C 	C 	0.5205	0.6751	0.23	0.366
Mof_C 	C 	0.52834	0.6783	0.2702	-0.029
Mof_C 	C 	0.54947	0.64056	0.2887	-0.085
Mof_C 	C 	0.55595	0.63997	0.32548	0.077
Mof_C 	C 	0.54129	0.6771	0.34378	-0.267
Mof_C 	C 	0.52015	0.71483	0.32528	0.081
Mof_C 	C 	0.51367	0.71543	0.28849	-0.085
Mof_C 	C 	0.6873	0.8171	0.4762	0.409
Mof_C 	C 	0.64991	0.78373	0.45716	-0.069
Mof_C 	C 	0.63265	0.79064	0.42123	-0.065
Mof_C 	C 	0.60188	0.75823	0.40137	0.069
Mof_C 	C 	0.58837	0.71892	0.41745	-0.258
Mof_C 	C 	0.60564	0.71201	0.45338	0.062
Mof_C 	C 	0.63641	0.74442	0.47324	-0.058
Mof_C 	C 	0.32294	0.6383	0.4291	0.366
Mof_C 	C 	0.37996	0.64664	0.42412	-0.046
Mof_C 	C 	0.4229	0.65188	0.45122	-0.065
Mof_C 	C 	0.47281	0.66334	0.44328	0.061
Mof_C 	C 	0.47975	0.66955	0.40824	-0.243
Mof_C 	C 	0.4368	0.66431	0.38115	0.058
Mof_C 	C 	0.38689	0.65286	0.38908	-0.074
Mof_C 	C 	0.7043	0.97527	0.47272	0.36
Mof_C 	C 	0.67506	0.0103	0.44984	-0.038
Mof_C 	C 	0.66603	0.00644	0.41315	-0.078
Mof_C 	C 	0.63394	0.03758	0.39276	0.075
Mof_C 	C 	0.61088	0.07258	0.40907	-0.261
Mof_C 	C 	0.61991	0.07644	0.44576	0.076
Mof_C 	C 	0.652	0.0453	0.46615	-0.08
Mof_C 	C 	0.3437	0.10376	0.42822	0.331
Mof_C 	C 	0.39545	0.10494	0.41387	-0.017
Mof_C 	C 	0.43298	0.07182	0.42489	-0.094
Mof_C 	C 	0.48339	0.07407	0.41508	0.084
Mof_C 	C 	0.49628	0.10943	0.39425	-0.268
Mof_C 	C 	0.45875	0.14255	0.38322	0.084
Mof_C 	C 	0.40833	0.1403	0.39304	-0.091
Mof_C 	C 	0.6677	0.29651	0.43087	0.383
Mof_C 	C 	0.64215	0.2526	0.41733	-0.041
Mof_C 	C 	0.58981	0.24411	0.42192	-0.077
Mof_C 	C 	0.56595	0.20343	0.41092	0.072
Mof_C 	C 	0.59444	0.17124	0.39532	-0.258
Mof_C 	C 	0.64678	0.17973	0.39073	0.072
Mof_C 	C 	0.67064	0.22041	0.40174	-0.075
Mof_C 	C 	0.54673	0.06791	0.22453	0.349
Mof_C 	C 	0.55377	0.0812	0.26303	-0.03
Mof_C 	C 	0.59183	0.11203	0.27806	-0.084
Mof_C 	C 	0.59611	0.12272	0.3138	0.085
Mof_C 	C 	0.56233	0.1026	0.33449	-0.271
Mof_C 	C 	0.52428	0.07178	0.31946	0.078
Mof_C 	C 	0.52	0.06108	0.28373	-0.084
Mof_C 	C 	0.6089	0.8921	0.82674	0.386
Mof_C 	C 	0.65911	0.88847	0.81552	-0.09
Mof_C 	C 	0.69359	0.92501	0.81943	-0.04
Mof_C 	C 	0.74344	0.92174	0.80887	0.034
Mof_C 	C 	0.75879	0.88192	0.79439	-0.218
Mof_C 	C 	0.72431	0.84538	0.79047	0.038
Mof_C 	C 	0.67446	0.84865	0.80104	-0.041
Mof_C 	C 	0.8104	0.9019	0.62104	0.38
Mof_C 	C 	0.81455	0.89522	0.65813	-0.081
Mof_C 	C 	0.85854	0.87361	0.67708	-0.045
Mof_C 	C 	0.86169	0.86715	0.71337	0.045
Mof_C 	C 	0.82085	0.88231	0.73071	-0.23
Mof_C 	C 	0.77686	0.90393	0.71176	0.047
Mof_C 	C 	0.77371	0.91038	0.67547	-0.046
Mof_C 	C 	0.9486	0.70216	0.82921	0.311
Mof_C 	C 	0.91882	0.74461	0.8172	-0.029
Mof_C 	C 	0.86752	0.74293	0.7981	-0.084
Mof_C 	C 	0.84077	0.78246	0.78722	0.066
Mof_C 	C 	0.86531	0.82367	0.79544	-0.246
Mof_C 	C 	0.9166	0.82535	0.81453	0.066
Mof_C 	C 	0.94336	0.78582	0.82541	-0.084
Mof_C 	C 	0.94	0.0378	0.8527	0.484
Mof_C 	C 	0.92009	0.99839	0.8353	-0.156
Mof_C 	C 	0.91162	0.9944	0.79859	-0.001
Mof_C 	C 	0.8856	0.9569	0.7826	0.018
Mof_C 	C 	0.86798	0.92339	0.8033	-0.227
Mof_C 	C 	0.8764	0.9274	0.83999	0.025
Mof_C 	C 	0.9025	0.9649	0.85597	-0.01
Mof_C 	C 	0.5859	0.0052	0.14331	0.412
Mof_C 	C 	0.61325	0.96454	0.12919	-0.059
Mof_C 	C 	0.66327	0.96894	0.11907	-0.066
Mof_C 	C 	0.68787	0.93188	0.10653	0.059
Mof_C 	C 	0.66246	0.89041	0.10411	-0.254
Mof_C 	C 	0.61243	0.886	0.11424	0.065
Mof_C 	C 	0.58783	0.92306	0.12678	-0.067
Mof_C 	C 	0.9306	0.8688	0.1106	0.458
Mof_C 	C 	0.87549	0.86058	0.10235	-0.133
Mof_C 	C 	0.8464	0.87992	0.07228	-0.023
Mof_C 	C 	0.7914	0.87419	0.06503	0.036
Mof_C 	C 	0.76551	0.84912	0.08787	-0.249
Mof_C 	C 	0.7946	0.82977	0.11794	0.046
Mof_C 	C 	0.8496	0.8355	0.12519	-0.027
Mof_C 	C 	0.5849	0.6722	0.1178	0.38
Mof_C 	C 	0.61793	0.7123	0.11058	-0.054
Mof_C 	C 	0.6379	0.7429	0.13682	-0.074
Mof_C 	C 	0.66195	0.78226	0.12788	0.078
Mof_C 	C 	0.66606	0.79109	0.0927	-0.271
Mof_C 	C 	0.6461	0.7605	0.06646	0.068
Mof_C 	C 	0.62204	0.72114	0.0754	-0.073
Mof_C 	C 	0.55718	0.8514	0.9326	0.313
Mof_C 	C 	0.601	0.8496	0.96424	-0.016
Mof_C 	C 	0.57951	0.86608	0.99299	-0.107
Mof_C 	C 	0.6103	0.86689	0.02644	0.087
Mof_C 	C 	0.6625	0.85123	0.03113	-0.291
Mof_C 	C 	0.68396	0.83475	0.00238	0.097
Mof_C 	C 	0.6532	0.83394	0.96893	-0.1
Mof_C 	C 	0.8378	0.99637	0.56113	0.393
Mof_C 	C 	0.86416	0.03988	0.57258	-0.06
Mof_C 	C 	0.91944	0.04179	0.57581	-0.064
Mof_C 	C 	0.94603	0.08179	0.58543	0.059
Mof_C 	C 	0.91734	0.11987	0.59181	-0.245
Mof_C 	C 	0.86206	0.11796	0.58858	0.059
Mof_C 	C 	0.83547	0.07796	0.57897	-0.06
Mof_C 	C 	0.9795	0.1751	0.77	0.366
Mof_C 	C 	0.97166	0.1783	0.7298	-0.029
Mof_C 	C 	0.95053	0.14056	0.7113	-0.085
Mof_C 	C 	0.94405	0.13997	0.67452	0.077
Mof_C 	C 	0.95871	0.1771	0.65622	-0.267
Mof_C 	C 	0.97985	0.21483	0.67472	0.082
Mof_C 	C 	0.98633	0.21543	0.71151	-0.085
Mof_C 	C 	0.8127	0.3171	0.5238	0.409
Mof_C 	C 	0.85009	0.28373	0.54284	-0.069
Mof_C 	C 	0.86735	0.29064	0.57877	-0.065
Mof_C 	C 	0.89812	0.25823	0.59863	0.069
Mof_C 	C 	0.91163	0.21892	0.58255	-0.258
Mof_C 	C 	0.89436	0.21201	0.54662	0.062
Mof_C 	C 	0.86359	0.24442	0.52676	-0.058
Mof_C 	C 	0.17706	0.1383	0.5709	0.366
Mof_C 	C 	0.12004	0.14664	0.57588	-0.046
Mof_C 	C 	0.0771	0.15188	0.54878	-0.065
Mof_C 	C 	0.02719	0.16334	0.55672	0.062
Mof_C 	C 	0.02025	0.16955	0.59176	-0.243
Mof_C 	C 	0.0632	0.16431	0.61885	0.058
Mof_C 	C 	0.11311	0.15286	0.61092	-0.074
Mof_O 	O 	0.27486	0.60675	0.53011	-0.939
Mof_O 	O 	0.23206	0.5512	0.45642	-0.475
Mof_O 	O 	0.20511	0.52393	0.50505	-0.465
Mof_O 	O 	0.00889	0.40547	0.13687	-0.708
Mof_O 	O 	0.8269	0.43266	0.43906	-0.469
Mof_O 	O 	0.81876	0.35795	0.42661	-0.467
Mof_O 	O 	0.14264	0.17744	0.44594	-0.503
Mof_O 	O 	0.21464	0.20023	0.42408	-0.482
Mof_O 	O 	0.00291	0.4508	0.21096	-0.476
Mof_O 	O 	0.08265	0.41785	0.20737	-0.476
Mof_O 	O 	0.09643	0.57073	0.83939	-0.476
Mof_O 	O 	0.07954	0.64159	0.82419	-0.475
Mof_O 	O 	0.34966	0.60835	0.60489	-0.476
Mof_O 	O 	0.2718	0.57833	0.60456	-0.451
Mof_O 	O 	0.42608	0.83415	0.81715	-0.46
Mof_O 	O 	0.49391	0.79439	0.84867	-0.462
Mof_O 	O 	0.4457	0.45596	0.88359	-0.569
Mof_O 	O 	0.4567	0.43085	0.8334	-0.498
Mof_O 	O 	0.10993	0.45762	0.14146	-0.503
Mof_O 	O 	0.04043	0.50095	0.14747	-0.506
Mof_O 	O 	0.45492	0.64566	0.14015	-0.491
Mof_O 	O 	0.4564	0.61	0.09177	-0.543
Mof_O 	O 	0.0604	0.85256	0.09358	-0.558
Mof_O 	O 	0.0823	0.8328	0.1505	-0.473
Mof_O 	O 	0.078	0.65725	0.905	-0.436
Mof_O 	O 	0.00669	0.65577	0.92488	-0.441
Mof_O 	O 	0.36064	0.53574	0.55416	-0.519
Mof_O 	O 	0.28562	0.50175	0.56234	-0.455
Mof_O 	O 	0.4676	0.35884	0.78332	-0.488
Mof_O 	O 	0.4944	0.28913	0.78554	-0.298
Mof_O 	O 	0.29867	0.19226	0.49135	-0.484
Mof_O 	O 	0.29891	0.14868	0.53697	-0.527
Mof_O 	O 	0.71712	0.36796	0.59571	-0.47
Mof_O 	O 	0.67714	0.37267	0.5387	-0.514
Mof_O 	O 	0.22514	0.10675	0.46989	-0.939
Mof_O 	O 	0.26794	0.0512	0.54358	-0.475
Mof_O 	O 	0.29489	0.02393	0.49495	-0.465
Mof_O 	O 	0.49111	0.90547	0.86313	-0.708
Mof_O 	O 	0.6731	0.93266	0.56094	-0.469
Mof_O 	O 	0.68124	0.85795	0.57339	-0.467
Mof_O 	O 	0.35736	0.67744	0.55406	-0.503
Mof_O 	O 	0.28536	0.70023	0.57592	-0.482
Mof_O 	O 	0.49709	0.9508	0.78904	-0.476
Mof_O 	O 	0.41735	0.91785	0.79263	-0.476
Mof_O 	O 	0.40357	0.07073	0.16061	-0.476
Mof_O 	O 	0.42046	0.14159	0.17581	-0.475
Mof_O 	O 	0.15034	0.10835	0.39511	-0.476
Mof_O 	O 	0.2282	0.07833	0.39544	-0.451
Mof_O 	O 	0.07392	0.33415	0.18285	-0.46
Mof_O 	O 	0.00609	0.29439	0.15133	-0.462
Mof_O 	O 	0.0543	0.95596	0.11641	-0.57
Mof_O 	O 	0.0433	0.93085	0.1666	-0.498
Mof_O 	O 	0.39007	0.95762	0.85854	-0.503
Mof_O 	O 	0.45957	0.00095	0.85253	-0.505
Mof_O 	O 	0.04508	0.14566	0.85985	-0.491
Mof_O 	O 	0.0436	0.11	0.90823	-0.543
Mof_O 	O 	0.4396	0.35256	0.90642	-0.558
Mof_O 	O 	0.4177	0.3328	0.8495	-0.473
Mof_O 	O 	0.422	0.15725	0.095	-0.436
Mof_O 	O 	0.49331	0.15577	0.07512	-0.44
Mof_O 	O 	0.13936	0.03574	0.44584	-0.519
Mof_O 	O 	0.21438	0.00175	0.43766	-0.455
Mof_O 	O 	0.0324	0.85884	0.21668	-0.488
Mof_O 	O 	0.0056	0.78913	0.21446	-0.298
Mof_O 	O 	0.20133	0.69226	0.50865	-0.484
Mof_O 	O 	0.20109	0.64868	0.46303	-0.527
Mof_O 	O 	0.78288	0.86796	0.40429	-0.47
Mof_O 	O 	0.82286	0.87267	0.4613	-0.514
Mof_O 	O 	0.72514	0.39325	0.46989	-0.939
Mof_O 	O 	0.76794	0.4488	0.54358	-0.475
Mof_O 	O 	0.79489	0.47607	0.49495	-0.465
Mof_O 	O 	0.99111	0.59453	0.86313	-0.708
Mof_O 	O 	0.1731	0.56734	0.56094	-0.469
Mof_O 	O 	0.18124	0.64205	0.57339	-0.467
Mof_O 	O 	0.85736	0.82256	0.55406	-0.503
Mof_O 	O 	0.78536	0.79977	0.57592	-0.482
Mof_O 	O 	0.99709	0.5492	0.78904	-0.476
Mof_O 	O 	0.91735	0.58215	0.79263	-0.476
Mof_O 	O 	0.90357	0.42927	0.16061	-0.476
Mof_O 	O 	0.92046	0.35841	0.17581	-0.475
Mof_O 	O 	0.65034	0.39165	0.39511	-0.476
Mof_O 	O 	0.7282	0.42167	0.39544	-0.451
Mof_O 	O 	0.57392	0.16585	0.18285	-0.46
Mof_O 	O 	0.50609	0.20561	0.15133	-0.462
Mof_O 	O 	0.5543	0.54404	0.11641	-0.569
Mof_O 	O 	0.5433	0.56915	0.1666	-0.498
Mof_O 	O 	0.89007	0.54238	0.85854	-0.503
Mof_O 	O 	0.95957	0.49905	0.85253	-0.506
Mof_O 	O 	0.54508	0.35434	0.85985	-0.491
Mof_O 	O 	0.5436	0.39	0.90823	-0.543
Mof_O 	O 	0.9396	0.14744	0.90642	-0.558
Mof_O 	O 	0.9177	0.1672	0.8495	-0.473
Mof_O 	O 	0.922	0.34275	0.095	-0.436
Mof_O 	O 	0.99331	0.34423	0.07512	-0.441
Mof_O 	O 	0.63936	0.46426	0.44584	-0.519
Mof_O 	O 	0.71438	0.49825	0.43766	-0.455
Mof_O 	O 	0.5324	0.64116	0.21668	-0.488
Mof_O 	O 	0.5056	0.71087	0.21446	-0.298
Mof_O 	O 	0.70133	0.80774	0.50865	-0.484
Mof_O 	O 	0.70109	0.85132	0.46303	-0.527
Mof_O 	O 	0.28288	0.63204	0.40429	-0.47
Mof_O 	O 	0.32286	0.62733	0.4613	-0.514
Mof_O 	O 	0.77486	0.89325	0.53011	-0.939
Mof_O 	O 	0.73206	0.9488	0.45642	-0.475
Mof_O 	O 	0.70511	0.97607	0.50505	-0.465
Mof_O 	O 	0.50889	0.09453	0.13687	-0.708
Mof_O 	O 	0.3269	0.06734	0.43906	-0.469
Mof_O 	O 	0.31876	0.14205	0.42661	-0.467
Mof_O 	O 	0.64264	0.32256	0.44594	-0.503
Mof_O 	O 	0.71464	0.29977	0.42408	-0.482
Mof_O 	O 	0.50291	0.0492	0.21096	-0.476
Mof_O 	O 	0.58265	0.08215	0.20737	-0.476
Mof_O 	O 	0.59643	0.92927	0.83939	-0.476
Mof_O 	O 	0.57954	0.85841	0.82419	-0.475
Mof_O 	O 	0.84966	0.89165	0.60489	-0.476
Mof_O 	O 	0.7718	0.92167	0.60456	-0.451
Mof_O 	O 	0.92608	0.66585	0.81715	-0.46
Mof_O 	O 	0.99391	0.70561	0.84867	-0.462
Mof_O 	O 	0.9457	0.04404	0.88359	-0.57
Mof_O 	O 	0.9567	0.06915	0.8334	-0.498
Mof_O 	O 	0.60993	0.04238	0.14146	-0.503
Mof_O 	O 	0.54043	0.99905	0.14747	-0.505
Mof_O 	O 	0.95492	0.85434	0.14015	-0.491
Mof_O 	O 	0.9564	0.89	0.09177	-0.543
Mof_O 	O 	0.5604	0.64744	0.09358	-0.558
Mof_O 	O 	0.5823	0.6672	0.1505	-0.473
Mof_O 	O 	0.578	0.84275	0.905	-0.436
Mof_O 	O 	0.50669	0.84423	0.92488	-0.44
Mof_O 	O 	0.86064	0.96426	0.55416	-0.519
Mof_O 	O 	0.78562	0.99825	0.56234	-0.455
Mof_O 	O 	0.9676	0.14116	0.78332	-0.488
Mof_O 	O 	0.9944	0.21087	0.78554	-0.298
Mof_O 	O 	0.79867	0.30774	0.49135	-0.484
Mof_O 	O 	0.79891	0.35132	0.53697	-0.527
Mof_O 	O 	0.21712	0.13204	0.59571	-0.47
Mof_O 	O 	0.17714	0.12733	0.5387	-0.514
_end
