# CIF file generated by openbabel 3.1.0, see https://openbabel.org
data_I
_chemical_name_common 'image0'
_cell_length_a 25.8627
_cell_length_b 25.8627
_cell_length_c 25.4591
_cell_angle_alpha 90
_cell_angle_beta 90
_cell_angle_gamma 120
_space_group_name_H-M_alt 'P 1'
_space_group_name_Hall 'P 1'
loop_
    _symmetry_equiv_pos_as_xyz
    x,y,z
loop_
    _atom_site_label
    _atom_site_type_symbol
    _atom_site_fract_x
    _atom_site_fract_y
    _atom_site_fract_z
    _atom_site_occupancy
    Ce1      Ce       0.38348    0.46705    0.47570    1.000
    O1       O        0.41820    0.43650    0.54740    1.000
    O2       O        0.32410    0.47480    0.53667    1.000
    O3       O        0.37897    0.49680    0.60917    1.000
    C1       C        0.33140    0.48890    0.58485    1.000
    C2       C        0.29690    0.50040    0.62635    1.000
    C3       C        0.27790    0.50340    0.67740    1.000
    O4       O        0.37120    0.45270    0.38734    1.000
    O5       O        0.44130    0.44060    0.34578    1.000
    C4       C        0.39210    0.44150    0.34500    1.000
    C5       C        0.35510    0.43220    0.29570    1.000
    C6       C        0.30360    0.42840    0.27740    1.000
    Ce2      Ce       0.53295    0.91643    0.47570    1.000
    O6       O        0.56350    0.98170    0.54740    1.000
    O7       O        0.52520    0.84930    0.53667    1.000
    O8       O        0.50320    0.88217    0.60917    1.000
    C7       C        0.51110    0.84250    0.58485    1.000
    C8       C        0.49960    0.79650    0.62635    1.000
    C9       C        0.49660    0.77450    0.67740    1.000
    O9       O        0.54730    0.91850    0.38734    1.000
    O10      O        0.55940    0.00070    0.34578    1.000
    C10      C        0.55850    0.95060    0.34500    1.000
    C11      C        0.56780    0.92290    0.29570    1.000
    C12      C        0.57160    0.87520    0.27740    1.000
    Ce3      Ce       0.08357    0.61652    0.47570    1.000
    O11      O        0.01830    0.58180    0.54740    1.000
    O12      O        0.15070    0.67590    0.53667    1.000
    O13      O        0.11783    0.62103    0.60917    1.000
    C13      C        0.15750    0.66860    0.58485    1.000
    C14      C        0.20350    0.70310    0.62635    1.000
    C15      C        0.22550    0.72210    0.67740    1.000
    O14      O        0.08150    0.62880    0.38734    1.000
    O15      O        0.99930    0.55870    0.34578    1.000
    C16      C        0.04940    0.60790    0.34500    1.000
    C17      C        0.07710    0.64490    0.29570    1.000
    C18      C        0.12480    0.69640    0.27740    1.000
    Ce4      Ce       0.61652    0.53295    0.97570    1.000
    O16      O        0.58180    0.56350    0.04740    1.000
    O17      O        0.67590    0.52520    0.03667    1.000
    O18      O        0.62103    0.50320    0.10917    1.000
    C19      C        0.66860    0.51110    0.08485    1.000
    C20      C        0.70310    0.49960    0.12635    1.000
    C21      C        0.72210    0.49660    0.17740    1.000
    O19      O        0.62880    0.54730    0.88734    1.000
    O20      O        0.55870    0.55940    0.84578    1.000
    C22      C        0.60790    0.55850    0.84500    1.000
    C23      C        0.64490    0.56780    0.79570    1.000
    C24      C        0.69640    0.57160    0.77740    1.000
    Ce5      Ce       0.46705    0.08357    0.97570    1.000
    O21      O        0.43650    0.01830    0.04740    1.000
    O22      O        0.47480    0.15070    0.03667    1.000
    O23      O        0.49680    0.11783    0.10917    1.000
    C25      C        0.48890    0.15750    0.08485    1.000
    C26      C        0.50040    0.20350    0.12635    1.000
    C27      C        0.50340    0.22550    0.17740    1.000
    O24      O        0.45270    0.08150    0.88734    1.000
    O25      O        0.44060    0.99930    0.84578    1.000
    C28      C        0.44150    0.04940    0.84500    1.000
    C29      C        0.43220    0.07710    0.79570    1.000
    C30      C        0.42840    0.12480    0.77740    1.000
    Ce6      Ce       0.91643    0.38348    0.97570    1.000
    O26      O        0.98170    0.41820    0.04740    1.000
    O27      O        0.84930    0.32410    0.03667    1.000
    O28      O        0.88217    0.37897    0.10917    1.000
    C31      C        0.84250    0.33140    0.08485    1.000
    C32      C        0.79650    0.29690    0.12635    1.000
    C33      C        0.77450    0.27790    0.17740    1.000
    O29      O        0.91850    0.37120    0.88734    1.000
    O30      O        0.00070    0.44130    0.84578    1.000
    C34      C        0.95060    0.39210    0.84500    1.000
    C35      C        0.92290    0.35510    0.79570    1.000
    C36      C        0.87520    0.30360    0.77740    1.000
    Ce7      Ce       0.46705    0.38348    0.52430    1.000
    O31      O        0.43650    0.41820    0.45260    1.000
    O32      O        0.47480    0.32410    0.46333    1.000
    O33      O        0.49680    0.37897    0.39083    1.000
    C37      C        0.48890    0.33140    0.41515    1.000
    C38      C        0.50040    0.29690    0.37365    1.000
    C39      C        0.50340    0.27790    0.32260    1.000
    O34      O        0.45270    0.37120    0.61266    1.000
    O35      O        0.44060    0.44130    0.65422    1.000
    C40      C        0.44150    0.39210    0.65500    1.000
    C41      C        0.43220    0.35510    0.70430    1.000
    C42      C        0.42840    0.30360    0.72260    1.000
    Ce8      Ce       0.91643    0.53295    0.52430    1.000
    O36      O        0.98170    0.56350    0.45260    1.000
    O37      O        0.84930    0.52520    0.46333    1.000
    O38      O        0.88217    0.50320    0.39083    1.000
    C43      C        0.84250    0.51110    0.41515    1.000
    C44      C        0.79650    0.49960    0.37365    1.000
    C45      C        0.77450    0.49660    0.32260    1.000
    O39      O        0.91850    0.54730    0.61266    1.000
    O40      O        0.00070    0.55940    0.65422    1.000
    C46      C        0.95060    0.55850    0.65500    1.000
    C47      C        0.92290    0.56780    0.70430    1.000
    C48      C        0.87520    0.57160    0.72260    1.000
    Ce9      Ce       0.61652    0.08357    0.52430    1.000
    O41      O        0.58180    0.01830    0.45260    1.000
    O42      O        0.67590    0.15070    0.46333    1.000
    O43      O        0.62103    0.11783    0.39083    1.000
    C49      C        0.66860    0.15750    0.41515    1.000
    C50      C        0.70310    0.20350    0.37365    1.000
    C51      C        0.72210    0.22550    0.32260    1.000
    O44      O        0.62880    0.08150    0.61266    1.000
    O45      O        0.55870    0.99930    0.65422    1.000
    C52      C        0.60790    0.04940    0.65500    1.000
    C53      C        0.64490    0.07710    0.70430    1.000
    C54      C        0.69640    0.12480    0.72260    1.000
    Ce10     Ce       0.53295    0.61652    0.02430    1.000
    O46      O        0.56350    0.58180    0.95260    1.000
    O47      O        0.52520    0.67590    0.96333    1.000
    O48      O        0.50320    0.62103    0.89083    1.000
    C55      C        0.51110    0.66860    0.91515    1.000
    C56      C        0.49960    0.70310    0.87365    1.000
    C57      C        0.49660    0.72210    0.82260    1.000
    O49      O        0.54730    0.62880    0.11266    1.000
    O50      O        0.55940    0.55870    0.15422    1.000
    C58      C        0.55850    0.60790    0.15500    1.000
    C59      C        0.56780    0.64490    0.20430    1.000
    C60      C        0.57160    0.69640    0.22260    1.000
    Ce11     Ce       0.08357    0.46705    0.02430    1.000
    O51      O        0.01830    0.43650    0.95260    1.000
    O52      O        0.15070    0.47480    0.96333    1.000
    O53      O        0.11783    0.49680    0.89083    1.000
    C61      C        0.15750    0.48890    0.91515    1.000
    C62      C        0.20350    0.50040    0.87365    1.000
    C63      C        0.22550    0.50340    0.82260    1.000
    O54      O        0.08150    0.45270    0.11266    1.000
    O55      O        0.99930    0.44060    0.15422    1.000
    C64      C        0.04940    0.44150    0.15500    1.000
    C65      C        0.07710    0.43220    0.20430    1.000
    C66      C        0.12480    0.42840    0.22260    1.000
    Ce12     Ce       0.38348    0.91643    0.02430    1.000
    O56      O        0.41820    0.98170    0.95260    1.000
    O57      O        0.32410    0.84930    0.96333    1.000
    O58      O        0.37897    0.88217    0.89083    1.000
    C67      C        0.33140    0.84250    0.91515    1.000
    C68      C        0.29690    0.79650    0.87365    1.000
    C69      C        0.27790    0.77450    0.82260    1.000
    O59      O        0.37120    0.91850    0.11266    1.000
    O60      O        0.44130    0.00070    0.15422    1.000
    C70      C        0.39210    0.95060    0.15500    1.000
    C71      C        0.35510    0.92290    0.20430    1.000
    C72      C        0.30360    0.87520    0.22260    1.000
    Ce13     Ce       0.61652    0.53295    0.52430    1.000
    O61      O        0.58180    0.56350    0.45260    1.000
    O62      O        0.67590    0.52520    0.46333    1.000
    O63      O        0.62103    0.50320    0.39083    1.000
    C73      C        0.66860    0.51110    0.41515    1.000
    C74      C        0.70310    0.49960    0.37365    1.000
    C75      C        0.72210    0.49660    0.32260    1.000
    O64      O        0.62880    0.54730    0.61266    1.000
    O65      O        0.55870    0.55940    0.65422    1.000
    C76      C        0.60790    0.55850    0.65500    1.000
    C77      C        0.64490    0.56780    0.70430    1.000
    C78      C        0.69640    0.57160    0.72260    1.000
    Ce14     Ce       0.46705    0.08357    0.52430    1.000
    O66      O        0.43650    0.01830    0.45260    1.000
    O67      O        0.47480    0.15070    0.46333    1.000
    O68      O        0.49680    0.11783    0.39083    1.000
    C79      C        0.48890    0.15750    0.41515    1.000
    C80      C        0.50040    0.20350    0.37365    1.000
    C81      C        0.50340    0.22550    0.32260    1.000
    O69      O        0.45270    0.08150    0.61266    1.000
    O70      O        0.44060    0.99930    0.65422    1.000
    C82      C        0.44150    0.04940    0.65500    1.000
    C83      C        0.43220    0.07710    0.70430    1.000
    C84      C        0.42840    0.12480    0.72260    1.000
    Ce15     Ce       0.91643    0.38348    0.52430    1.000
    O71      O        0.98170    0.41820    0.45260    1.000
    O72      O        0.84930    0.32410    0.46333    1.000
    O73      O        0.88217    0.37897    0.39083    1.000
    C85      C        0.84250    0.33140    0.41515    1.000
    C86      C        0.79650    0.29690    0.37365    1.000
    C87      C        0.77450    0.27790    0.32260    1.000
    O74      O        0.91850    0.37120    0.61266    1.000
    O75      O        0.00070    0.44130    0.65422    1.000
    C88      C        0.95060    0.39210    0.65500    1.000
    C89      C        0.92290    0.35510    0.70430    1.000
    C90      C        0.87520    0.30360    0.72260    1.000
    Ce16     Ce       0.38348    0.46705    0.02430    1.000
    O76      O        0.41820    0.43650    0.95260    1.000
    O77      O        0.32410    0.47480    0.96333    1.000
    O78      O        0.37897    0.49680    0.89083    1.000
    C91      C        0.33140    0.48890    0.91515    1.000
    C92      C        0.29690    0.50040    0.87365    1.000
    C93      C        0.27790    0.50340    0.82260    1.000
    O79      O        0.37120    0.45270    0.11266    1.000
    O80      O        0.44130    0.44060    0.15422    1.000
    C94      C        0.39210    0.44150    0.15500    1.000
    C95      C        0.35510    0.43220    0.20430    1.000
    C96      C        0.30360    0.42840    0.22260    1.000
    Ce17     Ce       0.53295    0.91643    0.02430    1.000
    O81      O        0.56350    0.98170    0.95260    1.000
    O82      O        0.52520    0.84930    0.96333    1.000
    O83      O        0.50320    0.88217    0.89083    1.000
    C97      C        0.51110    0.84250    0.91515    1.000
    C98      C        0.49960    0.79650    0.87365    1.000
    C99      C        0.49660    0.77450    0.82260    1.000
    O84      O        0.54730    0.91850    0.11266    1.000
    O85      O        0.55940    0.00070    0.15422    1.000
    C100     C        0.55850    0.95060    0.15500    1.000
    C101     C        0.56780    0.92290    0.20430    1.000
    C102     C        0.57160    0.87520    0.22260    1.000
    Ce18     Ce       0.08357    0.61652    0.02430    1.000
    O86      O        0.01830    0.58180    0.95260    1.000
    O87      O        0.15070    0.67590    0.96333    1.000
    O88      O        0.11783    0.62103    0.89083    1.000
    C103     C        0.15750    0.66860    0.91515    1.000
    C104     C        0.20350    0.70310    0.87365    1.000
    C105     C        0.22550    0.72210    0.82260    1.000
    O89      O        0.08150    0.62880    0.11266    1.000
    O90      O        0.99930    0.55870    0.15422    1.000
    C106     C        0.04940    0.60790    0.15500    1.000
    C107     C        0.07710    0.64490    0.20430    1.000
    C108     C        0.12480    0.69640    0.22260    1.000
    Ce19     Ce       0.53295    0.61652    0.47570    1.000
    O91      O        0.56350    0.58180    0.54740    1.000
    O92      O        0.52520    0.67590    0.53667    1.000
    O93      O        0.50320    0.62103    0.60917    1.000
    C109     C        0.51110    0.66860    0.58485    1.000
    C110     C        0.49960    0.70310    0.62635    1.000
    C111     C        0.49660    0.72210    0.67740    1.000
    O94      O        0.54730    0.62880    0.38734    1.000
    O95      O        0.55940    0.55870    0.34578    1.000
    C112     C        0.55850    0.60790    0.34500    1.000
    C113     C        0.56780    0.64490    0.29570    1.000
    C114     C        0.57160    0.69640    0.27740    1.000
    Ce20     Ce       0.08357    0.46705    0.47570    1.000
    O96      O        0.01830    0.43650    0.54740    1.000
    O97      O        0.15070    0.47480    0.53667    1.000
    O98      O        0.11783    0.49680    0.60917    1.000
    C115     C        0.15750    0.48890    0.58485    1.000
    C116     C        0.20350    0.50040    0.62635    1.000
    C117     C        0.22550    0.50340    0.67740    1.000
    O99      O        0.08150    0.45270    0.38734    1.000
    O100     O        0.99930    0.44060    0.34578    1.000
    C118     C        0.04940    0.44150    0.34500    1.000
    C119     C        0.07710    0.43220    0.29570    1.000
    C120     C        0.12480    0.42840    0.27740    1.000
    Ce21     Ce       0.38348    0.91643    0.47570    1.000
    O101     O        0.41820    0.98170    0.54740    1.000
    O102     O        0.32410    0.84930    0.53667    1.000
    O103     O        0.37897    0.88217    0.60917    1.000
    C121     C        0.33140    0.84250    0.58485    1.000
    C122     C        0.29690    0.79650    0.62635    1.000
    C123     C        0.27790    0.77450    0.67740    1.000
    O104     O        0.37120    0.91850    0.38734    1.000
    O105     O        0.44130    0.00070    0.34578    1.000
    C124     C        0.39210    0.95060    0.34500    1.000
    C125     C        0.35510    0.92290    0.29570    1.000
    C126     C        0.30360    0.87520    0.27740    1.000
    Ce22     Ce       0.46705    0.38348    0.97570    1.000
    O106     O        0.43650    0.41820    0.04740    1.000
    O107     O        0.47480    0.32410    0.03667    1.000
    O108     O        0.49680    0.37897    0.10917    1.000
    C127     C        0.48890    0.33140    0.08485    1.000
    C128     C        0.50040    0.29690    0.12635    1.000
    C129     C        0.50340    0.27790    0.17740    1.000
    O109     O        0.45270    0.37120    0.88734    1.000
    O110     O        0.44060    0.44130    0.84578    1.000
    C130     C        0.44150    0.39210    0.84500    1.000
    C131     C        0.43220    0.35510    0.79570    1.000
    C132     C        0.42840    0.30360    0.77740    1.000
    Ce23     Ce       0.91643    0.53295    0.97570    1.000
    O111     O        0.98170    0.56350    0.04740    1.000
    O112     O        0.84930    0.52520    0.03667    1.000
    O113     O        0.88217    0.50320    0.10917    1.000
    C133     C        0.84250    0.51110    0.08485    1.000
    C134     C        0.79650    0.49960    0.12635    1.000
    C135     C        0.77450    0.49660    0.17740    1.000
    O114     O        0.91850    0.54730    0.88734    1.000
    O115     O        0.00070    0.55940    0.84578    1.000
    C136     C        0.95060    0.55850    0.84500    1.000
    C137     C        0.92290    0.56780    0.79570    1.000
    C138     C        0.87520    0.57160    0.77740    1.000
    Ce24     Ce       0.61652    0.08357    0.97570    1.000
    O116     O        0.58180    0.01830    0.04740    1.000
    O117     O        0.67590    0.15070    0.03667    1.000
    O118     O        0.62103    0.11783    0.10917    1.000
    C139     C        0.66860    0.15750    0.08485    1.000
    C140     C        0.70310    0.20350    0.12635    1.000
    C141     C        0.72210    0.22550    0.17740    1.000
    O119     O        0.62880    0.08150    0.88734    1.000
    O120     O        0.55870    0.99930    0.84578    1.000
    C142     C        0.60790    0.04940    0.84500    1.000
    C143     C        0.64490    0.07710    0.79570    1.000
    C144     C        0.69640    0.12480    0.77740    1.000
    Ce25     Ce       0.48003    0.51997    0.59957    1.000
    O121     O        0.46750    0.53250    0.42440    1.000
    O122     O        0.44970    0.55030    0.52550    1.000
    Ce26     Ce       0.48003    0.96006    0.59957    1.000
    O123     O        0.46750    0.93500    0.42440    1.000
    O124     O        0.44970    0.89940    0.52550    1.000
    Ce27     Ce       0.03994    0.51997    0.59957    1.000
    O125     O        0.06500    0.53250    0.42440    1.000
    O126     O        0.10060    0.55030    0.52550    1.000
    Ce28     Ce       0.51997    0.48003    0.09957    1.000
    O127     O        0.53250    0.46750    0.92440    1.000
    O128     O        0.55030    0.44970    0.02550    1.000
    Ce29     Ce       0.51997    0.03994    0.09957    1.000
    O129     O        0.53250    0.06500    0.92440    1.000
    O130     O        0.55030    0.10060    0.02550    1.000
    Ce30     Ce       0.96006    0.48003    0.09957    1.000
    O131     O        0.93500    0.46750    0.92440    1.000
    O132     O        0.89940    0.44970    0.02550    1.000
    Ce31     Ce       0.51997    0.48003    0.40043    1.000
    O133     O        0.53250    0.46750    0.57560    1.000
    O134     O        0.55030    0.44970    0.47450    1.000
    Ce32     Ce       0.96006    0.48003    0.40043    1.000
    O135     O        0.93500    0.46750    0.57560    1.000
    O136     O        0.89940    0.44970    0.47450    1.000
    Ce33     Ce       0.51997    0.03994    0.40043    1.000
    O137     O        0.53250    0.06500    0.57560    1.000
    O138     O        0.55030    0.10060    0.47450    1.000
    Ce34     Ce       0.48003    0.51997    0.90043    1.000
    O139     O        0.46750    0.53250    0.07560    1.000
    O140     O        0.44970    0.55030    0.97450    1.000
    Ce35     Ce       0.03994    0.51997    0.90043    1.000
    O141     O        0.06500    0.53250    0.07560    1.000
    O142     O        0.10060    0.55030    0.97450    1.000
    Ce36     Ce       0.48003    0.96006    0.90043    1.000
    O143     O        0.46750    0.93500    0.07560    1.000
    O144     O        0.44970    0.89940    0.97450    1.000
    O145     O        0.24620    0.49240    0.59810    1.000
    O146     O        0.50760    0.75380    0.59810    1.000
    O147     O        0.24620    0.75380    0.59810    1.000
    O148     O        0.75380    0.50760    0.09810    1.000
    O149     O        0.49240    0.24620    0.09810    1.000
    O150     O        0.75380    0.24620    0.09810    1.000
    O151     O        0.49240    0.24620    0.40190    1.000
    O152     O        0.75380    0.50760    0.40190    1.000
    O153     O        0.75380    0.24620    0.40190    1.000
    O154     O        0.50760    0.75380    0.90190    1.000
    O155     O        0.24620    0.49240    0.90190    1.000
    O156     O        0.24620    0.75380    0.90190    1.000
    O157     O        0.38580    0.43320    0.25000    1.000
    O158     O        0.56680    0.95260    0.25000    1.000
    O159     O        0.04740    0.61420    0.25000    1.000
    O160     O        0.61420    0.56680    0.75000    1.000
    O161     O        0.43320    0.04740    0.75000    1.000
    O162     O        0.95260    0.38580    0.75000    1.000
    O163     O        0.43320    0.38580    0.75000    1.000
    O164     O        0.95260    0.56680    0.75000    1.000
    O165     O        0.61420    0.04740    0.75000    1.000
    O166     O        0.56680    0.61420    0.25000    1.000
    O167     O        0.04740    0.43320    0.25000    1.000
    O168     O        0.38580    0.95260    0.25000    1.000
