# CIF file generated by openbabel 3.1.0, see https://openbabel.org
data_I
_chemical_name_common 'image0'
_cell_length_a 30.9697
_cell_length_b 30.9697
_cell_length_c 21.302
_cell_angle_alpha 90
_cell_angle_beta 90
_cell_angle_gamma 90
_space_group_name_H-M_alt 'P 1'
_space_group_name_Hall 'P 1'
loop_
    _symmetry_equiv_pos_as_xyz
    x,y,z
loop_
    _atom_site_label
    _atom_site_type_symbol
    _atom_site_fract_x
    _atom_site_fract_y
    _atom_site_fract_z
    _atom_site_occupancy
    Mo1      Mo       0.67712    0.39568    0.02465    1.000
    Mo2      Mo       0.53247    0.22168    0.19642    1.000
    Mo3      Mo       0.72505    0.36149    0.11683    1.000
    Cu1      Cu       0.61611    0.43414    0.21116    1.000
    Cu2      Cu       0.58474    0.35526    0.17465    1.000
    I1       I        0.54248    0.42932    0.14965    1.000
    I2       I        0.61855    0.36554    0.28763    1.000
    P1       P        0.66813    0.41695    0.13707    1.000
    P2       P        0.54132    0.29771    0.17525    1.000
    P3       P        0.64554    0.35257    0.11079    1.000
    P4       P        0.75247    0.37388    0.01110    1.000
    P5       P        0.48250    0.23000    0.28380    1.000
    P6       P        0.52810    0.28280    0.28060    1.000
    P7       P        0.70832    0.32074    0.01690    1.000
    P8       P        0.74300    0.43310    0.06750    1.000
    S1       S        0.50802    0.26181    0.10030    1.000
    S2       S        0.68750    0.32020    0.04130    1.000
    S3       S        0.72550    0.43696    0.08850    1.000
    C1       C        0.60420    0.21590    0.04230    1.000
    H1       H        0.58010    0.23640    0.04320    1.000
    H2       H        0.61270    0.21050    0.99870    1.000
    H3       H        0.62870    0.22800    0.06540    1.000
    C2       C        0.56450    0.16150    0.24540    1.000
    C3       C        0.60470    0.20710    0.18280    1.000
    H4       H        0.62670    0.22870    0.16910    1.000
    C4       C        0.79340    0.34430    0.15490    1.000
    H5       H        0.82140    0.35240    0.13460    1.000
    C5       C        0.66420    0.40790    0.91960    1.000
    H6       H        0.68030    0.39580    0.88290    1.000
    C6       C        0.56390    0.36910    0.87940    1.000
    H7       H        0.54310    0.38890    0.89870    1.000
    H8       H        0.54860    0.34420    0.86190    1.000
    H9       H        0.57950    0.38410    0.84580    1.000
    C7       C        0.77080    0.30460    0.14570    1.000
    C8       C        0.78520    0.26870    0.10190    1.000
    H10      H        0.79770    0.24510    0.12650    1.000
    H11      H        0.80690    0.27990    0.07260    1.000
    H12      H        0.76030    0.25800    0.07820    1.000
    C9       C        0.59470    0.19750    0.24660    1.000
    C10      C        0.55730    0.15180    0.18180    1.000
    H13      H        0.53900    0.12740    0.16670    1.000
    C11      C        0.58340    0.17800    0.14220    1.000
    C12      C        0.77270    0.36780    0.20390    1.000
    C13      C        0.54960    0.15460    0.03960    1.000
    H14      H        0.52560    0.17510    0.04300    1.000
    H15      H        0.54170    0.12740    0.05980    1.000
    H16      H        0.55610    0.14940    0.99520    1.000
    C14      C        0.81920    0.43350    0.19680    1.000
    H17      H        0.84320    0.41560    0.18210    1.000
    H18      H        0.83040    0.45810    0.22050    1.000
    H19      H        0.80260    0.44400    0.16070    1.000
    C15      C        0.62530    0.13920    0.06430    1.000
    H20      H        0.65230    0.14920    0.08330    1.000
    H21      H        0.62990    0.13380    0.01940    1.000
    H22      H        0.61610    0.11240    0.08470    1.000
    C16      C        0.54650    0.13860    0.30040    1.000
    H23      H        0.56390    0.11290    0.30920    1.000
    H24      H        0.51670    0.13000    0.29150    1.000
    H25      H        0.54700    0.15780    0.33700    1.000
    C17      C        0.61260    0.42480    0.99050    1.000
    H26      H        0.58630    0.42620    0.01760    1.000
    C18      C        0.62190    0.38950    0.95130    1.000
    C19      C        0.66900    0.44860    0.94650    1.000
    C20      C        0.73470    0.30450    0.18680    1.000
    C21      C        0.59030    0.17380    0.07260    1.000
    C22      C        0.61370    0.21760    0.30430    1.000
    H27      H        0.64290    0.20640    0.31080    1.000
    H28      H        0.59570    0.21050    0.34070    1.000
    H29      H        0.61480    0.24900    0.29900    1.000
    C23      C        0.75370    0.43430    0.26390    1.000
    H30      H        0.73600    0.41690    0.29250    1.000
    H31      H        0.73570    0.44450    0.22890    1.000
    H32      H        0.76550    0.45920    0.28650    1.000
    C24      C        0.81740    0.38940    0.29120    1.000
    H33      H        0.84190    0.37340    0.27390    1.000
    H34      H        0.79980    0.37000    0.31710    1.000
    H35      H        0.82800    0.41330    0.31710    1.000
    C25      C        0.79030    0.40700    0.23850    1.000
    C26      C        0.73590    0.34330    0.22150    1.000
    H36      H        0.71580    0.35070    0.25670    1.000
    C27      C        0.70320    0.26720    0.19420    1.000
    H37      H        0.71580    0.24520    0.22170    1.000
    H38      H        0.69720    0.25450    0.15290    1.000
    H39      H        0.67620    0.27780    0.21260    1.000
    C28      C        0.57320    0.33910    0.98060    1.000
    H40      H        0.56490    0.36370    0.00690    1.000
    H41      H        0.59140    0.31940    0.00500    1.000
    H42      H        0.54720    0.32390    0.96650    1.000
    C29      C        0.59600    0.35380    0.92900    1.000
    C30      C        0.63860    0.50380    0.02400    1.000
    H43      H        0.62130    0.52450    0.99990    1.000
    H44      H        0.66800    0.51510    0.02920    1.000
    H45      H        0.62550    0.49950    0.06540    1.000
    C31      C        0.64050    0.45710    0.98610    1.000
    C32      C        0.62980    0.32290    0.88790    1.000
    H46      H        0.63340    0.29510    0.90930    1.000
    H47      H        0.65780    0.33730    0.88450    1.000
    H48      H        0.61800    0.31800    0.84580    1.000
    Mo4      Mo       0.17712    0.89568    0.52465    1.000
    Mo5      Mo       0.03247    0.72168    0.69642    1.000
    Mo6      Mo       0.22505    0.86149    0.61683    1.000
    Cu3      Cu       0.11611    0.93414    0.71116    1.000
    Cu4      Cu       0.08474    0.85526    0.67465    1.000
    I3       I        0.04248    0.92932    0.64965    1.000
    I4       I        0.11855    0.86554    0.78763    1.000
    P9       P        0.16813    0.91695    0.63707    1.000
    P10      P        0.04132    0.79771    0.67525    1.000
    P11      P        0.14554    0.85257    0.61079    1.000
    P12      P        0.25247    0.87388    0.51110    1.000
    P13      P        0.98250    0.73000    0.78380    1.000
    P14      P        0.02810    0.78280    0.78060    1.000
    P15      P        0.20832    0.82074    0.51690    1.000
    P16      P        0.24300    0.93310    0.56750    1.000
    S4       S        0.00802    0.76181    0.60030    1.000
    S5       S        0.18750    0.82020    0.54130    1.000
    S6       S        0.22550    0.93696    0.58850    1.000
    C33      C        0.10420    0.71590    0.54230    1.000
    H49      H        0.08010    0.73640    0.54320    1.000
    H50      H        0.11270    0.71050    0.49870    1.000
    H51      H        0.12870    0.72800    0.56540    1.000
    C34      C        0.06450    0.66150    0.74540    1.000
    C35      C        0.10470    0.70710    0.68280    1.000
    H52      H        0.12670    0.72870    0.66910    1.000
    C36      C        0.29340    0.84430    0.65490    1.000
    H53      H        0.32140    0.85240    0.63460    1.000
    C37      C        0.16420    0.90790    0.41960    1.000
    H54      H        0.18030    0.89580    0.38290    1.000
    C38      C        0.06390    0.86910    0.37940    1.000
    H55      H        0.04310    0.88890    0.39870    1.000
    H56      H        0.04860    0.84420    0.36190    1.000
    H57      H        0.07950    0.88410    0.34580    1.000
    C39      C        0.27080    0.80460    0.64570    1.000
    C40      C        0.28520    0.76870    0.60190    1.000
    H58      H        0.29770    0.74510    0.62650    1.000
    H59      H        0.30690    0.77990    0.57260    1.000
    H60      H        0.26030    0.75800    0.57820    1.000
    C41      C        0.09470    0.69750    0.74660    1.000
    C42      C        0.05730    0.65180    0.68180    1.000
    H61      H        0.03900    0.62740    0.66670    1.000
    C43      C        0.08340    0.67800    0.64220    1.000
    C44      C        0.27270    0.86780    0.70390    1.000
    C45      C        0.04960    0.65460    0.53960    1.000
    H62      H        0.02560    0.67510    0.54300    1.000
    H63      H        0.04170    0.62740    0.55980    1.000
    H64      H        0.05610    0.64940    0.49520    1.000
    C46      C        0.31920    0.93350    0.69680    1.000
    H65      H        0.34320    0.91560    0.68210    1.000
    H66      H        0.33040    0.95810    0.72050    1.000
    H67      H        0.30260    0.94400    0.66070    1.000
    C47      C        0.12530    0.63920    0.56430    1.000
    H68      H        0.15230    0.64920    0.58330    1.000
    H69      H        0.12990    0.63380    0.51940    1.000
    H70      H        0.11610    0.61240    0.58470    1.000
    C48      C        0.04650    0.63860    0.80040    1.000
    H71      H        0.06390    0.61290    0.80920    1.000
    H72      H        0.01670    0.63000    0.79150    1.000
    H73      H        0.04700    0.65780    0.83700    1.000
    C49      C        0.11260    0.92480    0.49050    1.000
    H74      H        0.08630    0.92620    0.51760    1.000
    C50      C        0.12190    0.88950    0.45130    1.000
    C51      C        0.16900    0.94860    0.44650    1.000
    C52      C        0.23470    0.80450    0.68680    1.000
    C53      C        0.09030    0.67380    0.57260    1.000
    C54      C        0.11370    0.71760    0.80430    1.000
    H75      H        0.14290    0.70640    0.81080    1.000
    H76      H        0.09570    0.71050    0.84070    1.000
    H77      H        0.11480    0.74900    0.79900    1.000
    C55      C        0.25370    0.93430    0.76390    1.000
    H78      H        0.23600    0.91690    0.79250    1.000
    H79      H        0.23570    0.94450    0.72890    1.000
    H80      H        0.26550    0.95920    0.78650    1.000
    C56      C        0.31740    0.88940    0.79120    1.000
    H81      H        0.34190    0.87340    0.77390    1.000
    H82      H        0.29980    0.87000    0.81710    1.000
    H83      H        0.32800    0.91330    0.81710    1.000
    C57      C        0.29030    0.90700    0.73850    1.000
    C58      C        0.23590    0.84330    0.72150    1.000
    H84      H        0.21580    0.85070    0.75670    1.000
    C59      C        0.20320    0.76720    0.69420    1.000
    H85      H        0.21580    0.74520    0.72170    1.000
    H86      H        0.19720    0.75450    0.65290    1.000
    H87      H        0.17620    0.77780    0.71260    1.000
    C60      C        0.07320    0.83910    0.48060    1.000
    H88      H        0.06490    0.86370    0.50690    1.000
    H89      H        0.09140    0.81940    0.50500    1.000
    H90      H        0.04720    0.82390    0.46650    1.000
    C61      C        0.09600    0.85380    0.42900    1.000
    C62      C        0.13860    0.00380    0.52400    1.000
    H91      H        0.12130    0.02450    0.49990    1.000
    H92      H        0.16800    0.01510    0.52920    1.000
    H93      H        0.12550    0.99950    0.56540    1.000
    C63      C        0.14050    0.95710    0.48610    1.000
    C64      C        0.12980    0.82290    0.38790    1.000
    H94      H        0.13340    0.79510    0.40930    1.000
    H95      H        0.15780    0.83730    0.38450    1.000
    H96      H        0.11800    0.81800    0.34580    1.000
    Mo7      Mo       0.82288    0.60432    0.52465    1.000
    Mo8      Mo       0.96753    0.77832    0.69642    1.000
    Mo9      Mo       0.77495    0.63851    0.61683    1.000
    Cu5      Cu       0.88389    0.56586    0.71116    1.000
    Cu6      Cu       0.91526    0.64474    0.67465    1.000
    I5       I        0.95752    0.57068    0.64965    1.000
    I6       I        0.88145    0.63446    0.78763    1.000
    P17      P        0.83187    0.58305    0.63707    1.000
    P18      P        0.95868    0.70229    0.67525    1.000
    P19      P        0.85446    0.64743    0.61079    1.000
    P20      P        0.74753    0.62612    0.51110    1.000
    P21      P        0.01750    0.77000    0.78380    1.000
    P22      P        0.97190    0.71720    0.78060    1.000
    P23      P        0.79168    0.67926    0.51690    1.000
    P24      P        0.75700    0.56690    0.56750    1.000
    S7       S        0.99198    0.73819    0.60030    1.000
    S8       S        0.81250    0.67980    0.54130    1.000
    S9       S        0.77450    0.56304    0.58850    1.000
    C65      C        0.89580    0.78410    0.54230    1.000
    H97      H        0.91990    0.76360    0.54320    1.000
    H98      H        0.88730    0.78950    0.49870    1.000
    H99      H        0.87130    0.77200    0.56540    1.000
    C66      C        0.93550    0.83850    0.74540    1.000
    C67      C        0.89530    0.79290    0.68280    1.000
    H100     H        0.87330    0.77130    0.66910    1.000
    C68      C        0.70660    0.65570    0.65490    1.000
    H101     H        0.67860    0.64760    0.63460    1.000
    C69      C        0.83580    0.59210    0.41960    1.000
    H102     H        0.81970    0.60420    0.38290    1.000
    C70      C        0.93610    0.63090    0.37940    1.000
    H103     H        0.95690    0.61110    0.39870    1.000
    H104     H        0.95140    0.65580    0.36190    1.000
    H105     H        0.92050    0.61590    0.34580    1.000
    C71      C        0.72920    0.69540    0.64570    1.000
    C72      C        0.71480    0.73130    0.60190    1.000
    H106     H        0.70230    0.75490    0.62650    1.000
    H107     H        0.69310    0.72010    0.57260    1.000
    H108     H        0.73970    0.74200    0.57820    1.000
    C73      C        0.90530    0.80250    0.74660    1.000
    C74      C        0.94270    0.84820    0.68180    1.000
    H109     H        0.96100    0.87260    0.66670    1.000
    C75      C        0.91660    0.82200    0.64220    1.000
    C76      C        0.72730    0.63220    0.70390    1.000
    C77      C        0.95040    0.84540    0.53960    1.000
    H110     H        0.97440    0.82490    0.54300    1.000
    H111     H        0.95830    0.87260    0.55980    1.000
    H112     H        0.94390    0.85060    0.49520    1.000
    C78      C        0.68080    0.56650    0.69680    1.000
    H113     H        0.65680    0.58440    0.68210    1.000
    H114     H        0.66960    0.54190    0.72050    1.000
    H115     H        0.69740    0.55600    0.66070    1.000
    C79      C        0.87470    0.86080    0.56430    1.000
    H116     H        0.84770    0.85080    0.58330    1.000
    H117     H        0.87010    0.86620    0.51940    1.000
    H118     H        0.88390    0.88760    0.58470    1.000
    C80      C        0.95350    0.86140    0.80040    1.000
    H119     H        0.93610    0.88710    0.80920    1.000
    H120     H        0.98330    0.87000    0.79150    1.000
    H121     H        0.95300    0.84220    0.83700    1.000
    C81      C        0.88740    0.57520    0.49050    1.000
    H122     H        0.91370    0.57380    0.51760    1.000
    C82      C        0.87810    0.61050    0.45130    1.000
    C83      C        0.83100    0.55140    0.44650    1.000
    C84      C        0.76530    0.69550    0.68680    1.000
    C85      C        0.90970    0.82620    0.57260    1.000
    C86      C        0.88630    0.78240    0.80430    1.000
    H123     H        0.85710    0.79360    0.81080    1.000
    H124     H        0.90430    0.78950    0.84070    1.000
    H125     H        0.88520    0.75100    0.79900    1.000
    C87      C        0.74630    0.56570    0.76390    1.000
    H126     H        0.76400    0.58310    0.79250    1.000
    H127     H        0.76430    0.55550    0.72890    1.000
    H128     H        0.73450    0.54080    0.78650    1.000
    C88      C        0.68260    0.61060    0.79120    1.000
    H129     H        0.65810    0.62660    0.77390    1.000
    H130     H        0.70020    0.63000    0.81710    1.000
    H131     H        0.67200    0.58670    0.81710    1.000
    C89      C        0.70970    0.59300    0.73850    1.000
    C90      C        0.76410    0.65670    0.72150    1.000
    H132     H        0.78420    0.64930    0.75670    1.000
    C91      C        0.79680    0.73280    0.69420    1.000
    H133     H        0.78420    0.75480    0.72170    1.000
    H134     H        0.80280    0.74550    0.65290    1.000
    H135     H        0.82380    0.72220    0.71260    1.000
    C92      C        0.92680    0.66090    0.48060    1.000
    H136     H        0.93510    0.63630    0.50690    1.000
    H137     H        0.90860    0.68060    0.50500    1.000
    H138     H        0.95280    0.67610    0.46650    1.000
    C93      C        0.90400    0.64620    0.42900    1.000
    C94      C        0.86140    0.49620    0.52400    1.000
    H139     H        0.87870    0.47550    0.49990    1.000
    H140     H        0.83200    0.48490    0.52920    1.000
    H141     H        0.87450    0.50050    0.56540    1.000
    C95      C        0.85950    0.54290    0.48610    1.000
    C96      C        0.87020    0.67710    0.38790    1.000
    H142     H        0.86660    0.70490    0.40930    1.000
    H143     H        0.84220    0.66270    0.38450    1.000
    H144     H        0.88200    0.68200    0.34580    1.000
    Mo10     Mo       0.32288    0.10432    0.02465    1.000
    Mo11     Mo       0.46753    0.27832    0.19642    1.000
    Mo12     Mo       0.27495    0.13851    0.11683    1.000
    Cu7      Cu       0.38389    0.06586    0.21116    1.000
    Cu8      Cu       0.41526    0.14474    0.17465    1.000
    I7       I        0.45752    0.07068    0.14965    1.000
    I8       I        0.38145    0.13446    0.28763    1.000
    P25      P        0.33187    0.08305    0.13707    1.000
    P26      P        0.45868    0.20229    0.17525    1.000
    P27      P        0.35446    0.14743    0.11079    1.000
    P28      P        0.24753    0.12612    0.01110    1.000
    P29      P        0.51750    0.27000    0.28380    1.000
    P30      P        0.47190    0.21720    0.28060    1.000
    P31      P        0.29168    0.17926    0.01690    1.000
    P32      P        0.25700    0.06690    0.06750    1.000
    S10      S        0.49198    0.23819    0.10030    1.000
    S11      S        0.31250    0.17980    0.04130    1.000
    S12      S        0.27450    0.06304    0.08850    1.000
    C97      C        0.39580    0.28410    0.04230    1.000
    H145     H        0.41990    0.26360    0.04320    1.000
    H146     H        0.38730    0.28950    0.99870    1.000
    H147     H        0.37130    0.27200    0.06540    1.000
    C98      C        0.43550    0.33850    0.24540    1.000
    C99      C        0.39530    0.29290    0.18280    1.000
    H148     H        0.37330    0.27130    0.16910    1.000
    C100     C        0.20660    0.15570    0.15490    1.000
    H149     H        0.17860    0.14760    0.13460    1.000
    C101     C        0.33580    0.09210    0.91960    1.000
    H150     H        0.31970    0.10420    0.88290    1.000
    C102     C        0.43610    0.13090    0.87940    1.000
    H151     H        0.45690    0.11110    0.89870    1.000
    H152     H        0.45140    0.15580    0.86190    1.000
    H153     H        0.42050    0.11590    0.84580    1.000
    C103     C        0.22920    0.19540    0.14570    1.000
    C104     C        0.21480    0.23130    0.10190    1.000
    H154     H        0.20230    0.25490    0.12650    1.000
    H155     H        0.19310    0.22010    0.07260    1.000
    H156     H        0.23970    0.24200    0.07820    1.000
    C105     C        0.40530    0.30250    0.24660    1.000
    C106     C        0.44270    0.34820    0.18180    1.000
    H157     H        0.46100    0.37260    0.16670    1.000
    C107     C        0.41660    0.32200    0.14220    1.000
    C108     C        0.22730    0.13220    0.20390    1.000
    C109     C        0.45040    0.34540    0.03960    1.000
    H158     H        0.47440    0.32490    0.04300    1.000
    H159     H        0.45830    0.37260    0.05980    1.000
    H160     H        0.44390    0.35060    0.99520    1.000
    C110     C        0.18080    0.06650    0.19680    1.000
    H161     H        0.15680    0.08440    0.18210    1.000
    H162     H        0.16960    0.04190    0.22050    1.000
    H163     H        0.19740    0.05600    0.16070    1.000
    C111     C        0.37470    0.36080    0.06430    1.000
    H164     H        0.34770    0.35080    0.08330    1.000
    H165     H        0.37010    0.36620    0.01940    1.000
    H166     H        0.38390    0.38760    0.08470    1.000
    C112     C        0.45350    0.36140    0.30040    1.000
    H167     H        0.43610    0.38710    0.30920    1.000
    H168     H        0.48330    0.37000    0.29150    1.000
    H169     H        0.45300    0.34220    0.33700    1.000
    C113     C        0.38740    0.07520    0.99050    1.000
    H170     H        0.41370    0.07380    0.01760    1.000
    C114     C        0.37810    0.11050    0.95130    1.000
    C115     C        0.33100    0.05140    0.94650    1.000
    C116     C        0.26530    0.19550    0.18680    1.000
    C117     C        0.40970    0.32620    0.07260    1.000
    C118     C        0.38630    0.28240    0.30430    1.000
    H171     H        0.35710    0.29360    0.31080    1.000
    H172     H        0.40430    0.28950    0.34070    1.000
    H173     H        0.38520    0.25100    0.29900    1.000
    C119     C        0.24630    0.06570    0.26390    1.000
    H174     H        0.26400    0.08310    0.29250    1.000
    H175     H        0.26430    0.05550    0.22890    1.000
    H176     H        0.23450    0.04080    0.28650    1.000
    C120     C        0.18260    0.11060    0.29120    1.000
    H177     H        0.15810    0.12660    0.27390    1.000
    H178     H        0.20020    0.13000    0.31710    1.000
    H179     H        0.17200    0.08670    0.31710    1.000
    C121     C        0.20970    0.09300    0.23850    1.000
    C122     C        0.26410    0.15670    0.22150    1.000
    H180     H        0.28420    0.14930    0.25670    1.000
    C123     C        0.29680    0.23280    0.19420    1.000
    H181     H        0.28420    0.25480    0.22170    1.000
    H182     H        0.30280    0.24550    0.15290    1.000
    H183     H        0.32380    0.22220    0.21260    1.000
    C124     C        0.42680    0.16090    0.98060    1.000
    H184     H        0.43510    0.13630    0.00690    1.000
    H185     H        0.40860    0.18060    0.00500    1.000
    H186     H        0.45280    0.17610    0.96650    1.000
    C125     C        0.40400    0.14620    0.92900    1.000
    C126     C        0.36140    0.99620    0.02400    1.000
    H187     H        0.37870    0.97550    0.99990    1.000
    H188     H        0.33200    0.98490    0.02920    1.000
    H189     H        0.37450    0.00050    0.06540    1.000
    C127     C        0.35950    0.04290    0.98610    1.000
    C128     C        0.37020    0.17710    0.88790    1.000
    H190     H        0.36660    0.20490    0.90930    1.000
    H191     H        0.34220    0.16270    0.88450    1.000
    H192     H        0.38200    0.18200    0.84580    1.000
    Mo13     Mo       0.35432    0.92712    0.27465    1.000
    Mo14     Mo       0.52832    0.78247    0.44642    1.000
    Mo15     Mo       0.38851    0.97505    0.36683    1.000
    Cu9      Cu       0.31586    0.86611    0.46116    1.000
    Cu10     Cu       0.39474    0.83474    0.42465    1.000
    I9       I        0.32068    0.79248    0.39965    1.000
    I10      I        0.38446    0.86855    0.53763    1.000
    P33      P        0.33305    0.91813    0.38707    1.000
    P34      P        0.45229    0.79132    0.42525    1.000
    P35      P        0.39743    0.89554    0.36079    1.000
    P36      P        0.37612    0.00247    0.26110    1.000
    P37      P        0.52000    0.73250    0.53380    1.000
    P38      P        0.46720    0.77810    0.53060    1.000
    P39      P        0.42926    0.95832    0.26690    1.000
    P40      P        0.31690    0.99300    0.31750    1.000
    S13      S        0.48819    0.75802    0.35030    1.000
    S14      S        0.42980    0.93750    0.29130    1.000
    S15      S        0.31304    0.97550    0.33850    1.000
    C129     C        0.53410    0.85420    0.29230    1.000
    H193     H        0.51360    0.83010    0.29320    1.000
    H194     H        0.53950    0.86270    0.24870    1.000
    H195     H        0.52200    0.87870    0.31540    1.000
    C130     C        0.58850    0.81450    0.49540    1.000
    C131     C        0.54290    0.85470    0.43280    1.000
    H196     H        0.52130    0.87670    0.41910    1.000
    C132     C        0.40570    0.04340    0.40490    1.000
    H197     H        0.39760    0.07140    0.38460    1.000
    C133     C        0.34210    0.91420    0.16960    1.000
    H198     H        0.35420    0.93030    0.13290    1.000
    C134     C        0.38090    0.81390    0.12940    1.000
    H199     H        0.36110    0.79310    0.14870    1.000
    H200     H        0.40580    0.79860    0.11190    1.000
    H201     H        0.36590    0.82950    0.09580    1.000
    C135     C        0.44540    0.02080    0.39570    1.000
    C136     C        0.48130    0.03520    0.35190    1.000
    H202     H        0.50490    0.04770    0.37650    1.000
    H203     H        0.47010    0.05690    0.32260    1.000
    H204     H        0.49200    0.01030    0.32820    1.000
    C137     C        0.55250    0.84470    0.49660    1.000
    C138     C        0.59820    0.80730    0.43180    1.000
    H205     H        0.62260    0.78900    0.41670    1.000
    C139     C        0.57200    0.83340    0.39220    1.000
    C140     C        0.38220    0.02270    0.45390    1.000
    C141     C        0.59540    0.79960    0.28960    1.000
    H206     H        0.57490    0.77560    0.29300    1.000
    H207     H        0.62260    0.79170    0.30980    1.000
    H208     H        0.60060    0.80610    0.24520    1.000
    C142     C        0.31650    0.06920    0.44680    1.000
    H209     H        0.33440    0.09320    0.43210    1.000
    H210     H        0.29190    0.08040    0.47050    1.000
    H211     H        0.30600    0.05260    0.41070    1.000
    C143     C        0.61080    0.87530    0.31430    1.000
    H212     H        0.60080    0.90230    0.33330    1.000
    H213     H        0.61620    0.87990    0.26940    1.000
    H214     H        0.63760    0.86610    0.33470    1.000
    C144     C        0.61140    0.79650    0.55040    1.000
    H215     H        0.63710    0.81390    0.55920    1.000
    H216     H        0.62000    0.76670    0.54150    1.000
    H217     H        0.59220    0.79700    0.58700    1.000
    C145     C        0.32520    0.86260    0.24050    1.000
    H218     H        0.32380    0.83630    0.26760    1.000
    C146     C        0.36050    0.87190    0.20130    1.000
    C147     C        0.30140    0.91900    0.19650    1.000
    C148     C        0.44550    0.98470    0.43680    1.000
    C149     C        0.57620    0.84030    0.32260    1.000
    C150     C        0.53240    0.86370    0.55430    1.000
    H219     H        0.54360    0.89290    0.56080    1.000
    H220     H        0.53950    0.84570    0.59070    1.000
    H221     H        0.50100    0.86480    0.54900    1.000
    C151     C        0.31570    0.00370    0.51390    1.000
    H222     H        0.33310    0.98600    0.54250    1.000
    H223     H        0.30550    0.98570    0.47890    1.000
    H224     H        0.29080    0.01550    0.53650    1.000
    C152     C        0.36060    0.06740    0.54120    1.000
    H225     H        0.37660    0.09190    0.52390    1.000
    H226     H        0.38000    0.04980    0.56710    1.000
    H227     H        0.33670    0.07800    0.56710    1.000
    C153     C        0.34300    0.04030    0.48850    1.000
    C154     C        0.40670    0.98590    0.47150    1.000
    H228     H        0.39930    0.96580    0.50670    1.000
    C155     C        0.48280    0.95320    0.44420    1.000
    H229     H        0.50480    0.96580    0.47170    1.000
    H230     H        0.49550    0.94720    0.40290    1.000
    H231     H        0.47220    0.92620    0.46260    1.000
    C156     C        0.41090    0.82320    0.23060    1.000
    H232     H        0.38630    0.81490    0.25690    1.000
    H233     H        0.43060    0.84140    0.25500    1.000
    H234     H        0.42610    0.79720    0.21650    1.000
    C157     C        0.39620    0.84600    0.17900    1.000
    C158     C        0.24620    0.88860    0.27400    1.000
    H235     H        0.22550    0.87130    0.24990    1.000
    H236     H        0.23490    0.91800    0.27920    1.000
    H237     H        0.25050    0.87550    0.31540    1.000
    C159     C        0.29290    0.89050    0.23610    1.000
    C160     C        0.42710    0.87980    0.13790    1.000
    H238     H        0.45490    0.88340    0.15930    1.000
    H239     H        0.41270    0.90780    0.13450    1.000
    H240     H        0.43200    0.86800    0.09580    1.000
    Mo16     Mo       0.85432    0.42712    0.77465    1.000
    Mo17     Mo       0.02832    0.28247    0.94642    1.000
    Mo18     Mo       0.88851    0.47505    0.86683    1.000
    Cu11     Cu       0.81586    0.36611    0.96116    1.000
    Cu12     Cu       0.89474    0.33474    0.92465    1.000
    I11      I        0.82068    0.29248    0.89965    1.000
    I12      I        0.88446    0.36855    0.03763    1.000
    P41      P        0.83305    0.41813    0.88707    1.000
    P42      P        0.95229    0.29132    0.92525    1.000
    P43      P        0.89743    0.39554    0.86079    1.000
    P44      P        0.87612    0.50247    0.76110    1.000
    P45      P        0.02000    0.23250    0.03380    1.000
    P46      P        0.96720    0.27810    0.03060    1.000
    P47      P        0.92926    0.45832    0.76690    1.000
    P48      P        0.81690    0.49300    0.81750    1.000
    S16      S        0.98819    0.25802    0.85030    1.000
    S17      S        0.92980    0.43750    0.79130    1.000
    S18      S        0.81304    0.47550    0.83850    1.000
    C161     C        0.03410    0.35420    0.79230    1.000
    H241     H        0.01360    0.33010    0.79320    1.000
    H242     H        0.03950    0.36270    0.74870    1.000
    H243     H        0.02200    0.37870    0.81540    1.000
    C162     C        0.08850    0.31450    0.99540    1.000
    C163     C        0.04290    0.35470    0.93280    1.000
    H244     H        0.02130    0.37670    0.91910    1.000
    C164     C        0.90570    0.54340    0.90490    1.000
    H245     H        0.89760    0.57140    0.88460    1.000
    C165     C        0.84210    0.41420    0.66960    1.000
    H246     H        0.85420    0.43030    0.63290    1.000
    C166     C        0.88090    0.31390    0.62940    1.000
    H247     H        0.86110    0.29310    0.64870    1.000
    H248     H        0.90580    0.29860    0.61190    1.000
    H249     H        0.86590    0.32950    0.59580    1.000
    C167     C        0.94540    0.52080    0.89570    1.000
    C168     C        0.98130    0.53520    0.85190    1.000
    H250     H        0.00490    0.54770    0.87650    1.000
    H251     H        0.97010    0.55690    0.82260    1.000
    H252     H        0.99200    0.51030    0.82820    1.000
    C169     C        0.05250    0.34470    0.99660    1.000
    C170     C        0.09820    0.30730    0.93180    1.000
    H253     H        0.12260    0.28900    0.91670    1.000
    C171     C        0.07200    0.33340    0.89220    1.000
    C172     C        0.88220    0.52270    0.95390    1.000
    C173     C        0.09540    0.29960    0.78960    1.000
    H254     H        0.07490    0.27560    0.79300    1.000
    H255     H        0.12260    0.29170    0.80980    1.000
    H256     H        0.10060    0.30610    0.74520    1.000
    C174     C        0.81650    0.56920    0.94680    1.000
    H257     H        0.83440    0.59320    0.93210    1.000
    H258     H        0.79190    0.58040    0.97050    1.000
    H259     H        0.80600    0.55260    0.91070    1.000
    C175     C        0.11080    0.37530    0.81430    1.000
    H260     H        0.10080    0.40230    0.83330    1.000
    H261     H        0.11620    0.37990    0.76940    1.000
    H262     H        0.13760    0.36610    0.83470    1.000
    C176     C        0.11140    0.29650    0.05040    1.000
    H263     H        0.13710    0.31390    0.05920    1.000
    H264     H        0.12000    0.26670    0.04150    1.000
    H265     H        0.09220    0.29700    0.08700    1.000
    C177     C        0.82520    0.36260    0.74050    1.000
    H266     H        0.82380    0.33630    0.76760    1.000
    C178     C        0.86050    0.37190    0.70130    1.000
    C179     C        0.80140    0.41900    0.69650    1.000
    C180     C        0.94550    0.48470    0.93680    1.000
    C181     C        0.07620    0.34030    0.82260    1.000
    C182     C        0.03240    0.36370    0.05430    1.000
    H267     H        0.04360    0.39290    0.06080    1.000
    H268     H        0.03950    0.34570    0.09070    1.000
    H269     H        0.00100    0.36480    0.04900    1.000
    C183     C        0.81570    0.50370    0.01390    1.000
    H270     H        0.83310    0.48600    0.04250    1.000
    H271     H        0.80550    0.48570    0.97890    1.000
    H272     H        0.79080    0.51550    0.03650    1.000
    C184     C        0.86060    0.56740    0.04120    1.000
    H273     H        0.87660    0.59190    0.02390    1.000
    H274     H        0.88000    0.54980    0.06710    1.000
    H275     H        0.83670    0.57800    0.06710    1.000
    C185     C        0.84300    0.54030    0.98850    1.000
    C186     C        0.90670    0.48590    0.97150    1.000
    H276     H        0.89930    0.46580    0.00670    1.000
    C187     C        0.98280    0.45320    0.94420    1.000
    H277     H        0.00480    0.46580    0.97170    1.000
    H278     H        0.99550    0.44720    0.90290    1.000
    H279     H        0.97220    0.42620    0.96260    1.000
    C188     C        0.91090    0.32320    0.73060    1.000
    H280     H        0.88630    0.31490    0.75690    1.000
    H281     H        0.93060    0.34140    0.75500    1.000
    H282     H        0.92610    0.29720    0.71650    1.000
    C189     C        0.89620    0.34600    0.67900    1.000
    C190     C        0.74620    0.38860    0.77400    1.000
    H283     H        0.72550    0.37130    0.74990    1.000
    H284     H        0.73490    0.41800    0.77920    1.000
    H285     H        0.75050    0.37550    0.81540    1.000
    C191     C        0.79290    0.39050    0.73610    1.000
    C192     C        0.92710    0.37980    0.63790    1.000
    H286     H        0.95490    0.38340    0.65930    1.000
    H287     H        0.91270    0.40780    0.63450    1.000
    H288     H        0.93200    0.36800    0.59580    1.000
    Mo19     Mo       0.14568    0.07288    0.77465    1.000
    Mo20     Mo       0.97168    0.21753    0.94642    1.000
    Mo21     Mo       0.11149    0.02495    0.86683    1.000
    Cu13     Cu       0.18414    0.13389    0.96116    1.000
    Cu14     Cu       0.10526    0.16526    0.92465    1.000
    I13      I        0.17932    0.20752    0.89965    1.000
    I14      I        0.11554    0.13145    0.03763    1.000
    P49      P        0.16695    0.08187    0.88707    1.000
    P50      P        0.04771    0.20868    0.92525    1.000
    P51      P        0.10257    0.10446    0.86079    1.000
    P52      P        0.12388    0.99753    0.76110    1.000
    P53      P        0.98000    0.26750    0.03380    1.000
    P54      P        0.03280    0.22190    0.03060    1.000
    P55      P        0.07074    0.04168    0.76690    1.000
    P56      P        0.18310    0.00700    0.81750    1.000
    S19      S        0.01181    0.24198    0.85030    1.000
    S20      S        0.07020    0.06250    0.79130    1.000
    S21      S        0.18696    0.02450    0.83850    1.000
    C193     C        0.96590    0.14580    0.79230    1.000
    H289     H        0.98640    0.16990    0.79320    1.000
    H290     H        0.96050    0.13730    0.74870    1.000
    H291     H        0.97800    0.12130    0.81540    1.000
    C194     C        0.91150    0.18550    0.99540    1.000
    C195     C        0.95710    0.14530    0.93280    1.000
    H292     H        0.97870    0.12330    0.91910    1.000
    C196     C        0.09430    0.95660    0.90490    1.000
    H293     H        0.10240    0.92860    0.88460    1.000
    C197     C        0.15790    0.08580    0.66960    1.000
    H294     H        0.14580    0.06970    0.63290    1.000
    C198     C        0.11910    0.18610    0.62940    1.000
    H295     H        0.13890    0.20690    0.64870    1.000
    H296     H        0.09420    0.20140    0.61190    1.000
    H297     H        0.13410    0.17050    0.59580    1.000
    C199     C        0.05460    0.97920    0.89570    1.000
    C200     C        0.01870    0.96480    0.85190    1.000
    H298     H        0.99510    0.95230    0.87650    1.000
    H299     H        0.02990    0.94310    0.82260    1.000
    H300     H        0.00800    0.98970    0.82820    1.000
    C201     C        0.94750    0.15530    0.99660    1.000
    C202     C        0.90180    0.19270    0.93180    1.000
    H301     H        0.87740    0.21100    0.91670    1.000
    C203     C        0.92800    0.16660    0.89220    1.000
    C204     C        0.11780    0.97730    0.95390    1.000
    C205     C        0.90460    0.20040    0.78960    1.000
    H302     H        0.92510    0.22440    0.79300    1.000
    H303     H        0.87740    0.20830    0.80980    1.000
    H304     H        0.89940    0.19390    0.74520    1.000
    C206     C        0.18350    0.93080    0.94680    1.000
    H305     H        0.16560    0.90680    0.93210    1.000
    H306     H        0.20810    0.91960    0.97050    1.000
    H307     H        0.19400    0.94740    0.91070    1.000
    C207     C        0.88920    0.12470    0.81430    1.000
    H308     H        0.89920    0.09770    0.83330    1.000
    H309     H        0.88380    0.12010    0.76940    1.000
    H310     H        0.86240    0.13390    0.83470    1.000
    C208     C        0.88860    0.20350    0.05040    1.000
    H311     H        0.86290    0.18610    0.05920    1.000
    H312     H        0.88000    0.23330    0.04150    1.000
    H313     H        0.90780    0.20300    0.08700    1.000
    C209     C        0.17480    0.13740    0.74050    1.000
    H314     H        0.17620    0.16370    0.76760    1.000
    C210     C        0.13950    0.12810    0.70130    1.000
    C211     C        0.19860    0.08100    0.69650    1.000
    C212     C        0.05450    0.01530    0.93680    1.000
    C213     C        0.92380    0.15970    0.82260    1.000
    C214     C        0.96760    0.13630    0.05430    1.000
    H315     H        0.95640    0.10710    0.06080    1.000
    H316     H        0.96050    0.15430    0.09070    1.000
    H317     H        0.99900    0.13520    0.04900    1.000
    C215     C        0.18430    0.99630    0.01390    1.000
    H318     H        0.16690    0.01400    0.04250    1.000
    H319     H        0.19450    0.01430    0.97890    1.000
    H320     H        0.20920    0.98450    0.03650    1.000
    C216     C        0.13940    0.93260    0.04120    1.000
    H321     H        0.12340    0.90810    0.02390    1.000
    H322     H        0.12000    0.95020    0.06710    1.000
    H323     H        0.16330    0.92200    0.06710    1.000
    C217     C        0.15700    0.95970    0.98850    1.000
    C218     C        0.09330    0.01410    0.97150    1.000
    H324     H        0.10070    0.03420    0.00670    1.000
    C219     C        0.01720    0.04680    0.94420    1.000
    H325     H        0.99520    0.03420    0.97170    1.000
    H326     H        0.00450    0.05280    0.90290    1.000
    H327     H        0.02780    0.07380    0.96260    1.000
    C220     C        0.08910    0.17680    0.73060    1.000
    H328     H        0.11370    0.18510    0.75690    1.000
    H329     H        0.06940    0.15860    0.75500    1.000
    H330     H        0.07390    0.20280    0.71650    1.000
    C221     C        0.10380    0.15400    0.67900    1.000
    C222     C        0.25380    0.11140    0.77400    1.000
    H331     H        0.27450    0.12870    0.74990    1.000
    H332     H        0.26510    0.08200    0.77920    1.000
    H333     H        0.24950    0.12450    0.81540    1.000
    C223     C        0.20710    0.10950    0.73610    1.000
    C224     C        0.07290    0.12020    0.63790    1.000
    H334     H        0.04510    0.11660    0.65930    1.000
    H335     H        0.08730    0.09220    0.63450    1.000
    H336     H        0.06800    0.13200    0.59580    1.000
    Mo22     Mo       0.64568    0.57288    0.27465    1.000
    Mo23     Mo       0.47168    0.71753    0.44642    1.000
    Mo24     Mo       0.61149    0.52495    0.36683    1.000
    Cu15     Cu       0.68414    0.63389    0.46116    1.000
    Cu16     Cu       0.60526    0.66526    0.42465    1.000
    I15      I        0.67932    0.70752    0.39965    1.000
    I16      I        0.61554    0.63145    0.53763    1.000
    P57      P        0.66695    0.58187    0.38707    1.000
    P58      P        0.54771    0.70868    0.42525    1.000
    P59      P        0.60257    0.60446    0.36079    1.000
    P60      P        0.62388    0.49753    0.26110    1.000
    P61      P        0.48000    0.76750    0.53380    1.000
    P62      P        0.53280    0.72190    0.53060    1.000
    P63      P        0.57074    0.54168    0.26690    1.000
    P64      P        0.68310    0.50700    0.31750    1.000
    S22      S        0.51181    0.74198    0.35030    1.000
    S23      S        0.57020    0.56250    0.29130    1.000
    S24      S        0.68696    0.52450    0.33850    1.000
    C225     C        0.46590    0.64580    0.29230    1.000
    H337     H        0.48640    0.66990    0.29320    1.000
    H338     H        0.46050    0.63730    0.24870    1.000
    H339     H        0.47800    0.62130    0.31540    1.000
    C226     C        0.41150    0.68550    0.49540    1.000
    C227     C        0.45710    0.64530    0.43280    1.000
    H340     H        0.47870    0.62330    0.41910    1.000
    C228     C        0.59430    0.45660    0.40490    1.000
    H341     H        0.60240    0.42860    0.38460    1.000
    C229     C        0.65790    0.58580    0.16960    1.000
    H342     H        0.64580    0.56970    0.13290    1.000
    C230     C        0.61910    0.68610    0.12940    1.000
    H343     H        0.63890    0.70690    0.14870    1.000
    H344     H        0.59420    0.70140    0.11190    1.000
    H345     H        0.63410    0.67050    0.09580    1.000
    C231     C        0.55460    0.47920    0.39570    1.000
    C232     C        0.51870    0.46480    0.35190    1.000
    H346     H        0.49510    0.45230    0.37650    1.000
    H347     H        0.52990    0.44310    0.32260    1.000
    H348     H        0.50800    0.48970    0.32820    1.000
    C233     C        0.44750    0.65530    0.49660    1.000
    C234     C        0.40180    0.69270    0.43180    1.000
    H349     H        0.37740    0.71100    0.41670    1.000
    C235     C        0.42800    0.66660    0.39220    1.000
    C236     C        0.61780    0.47730    0.45390    1.000
    C237     C        0.40460    0.70040    0.28960    1.000
    H350     H        0.42510    0.72440    0.29300    1.000
    H351     H        0.37740    0.70830    0.30980    1.000
    H352     H        0.39940    0.69390    0.24520    1.000
    C238     C        0.68350    0.43080    0.44680    1.000
    H353     H        0.66560    0.40680    0.43210    1.000
    H354     H        0.70810    0.41960    0.47050    1.000
    H355     H        0.69400    0.44740    0.41070    1.000
    C239     C        0.38920    0.62470    0.31430    1.000
    H356     H        0.39920    0.59770    0.33330    1.000
    H357     H        0.38380    0.62010    0.26940    1.000
    H358     H        0.36240    0.63390    0.33470    1.000
    C240     C        0.38860    0.70350    0.55040    1.000
    H359     H        0.36290    0.68610    0.55920    1.000
    H360     H        0.38000    0.73330    0.54150    1.000
    H361     H        0.40780    0.70300    0.58700    1.000
    C241     C        0.67480    0.63740    0.24050    1.000
    H362     H        0.67620    0.66370    0.26760    1.000
    C242     C        0.63950    0.62810    0.20130    1.000
    C243     C        0.69860    0.58100    0.19650    1.000
    C244     C        0.55450    0.51530    0.43680    1.000
    C245     C        0.42380    0.65970    0.32260    1.000
    C246     C        0.46760    0.63630    0.55430    1.000
    H363     H        0.45640    0.60710    0.56080    1.000
    H364     H        0.46050    0.65430    0.59070    1.000
    H365     H        0.49900    0.63520    0.54900    1.000
    C247     C        0.68430    0.49630    0.51390    1.000
    H366     H        0.66690    0.51400    0.54250    1.000
    H367     H        0.69450    0.51430    0.47890    1.000
    H368     H        0.70920    0.48450    0.53650    1.000
    C248     C        0.63940    0.43260    0.54120    1.000
    H369     H        0.62340    0.40810    0.52390    1.000
    H370     H        0.62000    0.45020    0.56710    1.000
    H371     H        0.66330    0.42200    0.56710    1.000
    C249     C        0.65700    0.45970    0.48850    1.000
    C250     C        0.59330    0.51410    0.47150    1.000
    H372     H        0.60070    0.53420    0.50670    1.000
    C251     C        0.51720    0.54680    0.44420    1.000
    H373     H        0.49520    0.53420    0.47170    1.000
    H374     H        0.50450    0.55280    0.40290    1.000
    H375     H        0.52780    0.57380    0.46260    1.000
    C252     C        0.58910    0.67680    0.23060    1.000
    H376     H        0.61370    0.68510    0.25690    1.000
    H377     H        0.56940    0.65860    0.25500    1.000
    H378     H        0.57390    0.70280    0.21650    1.000
    C253     C        0.60380    0.65400    0.17900    1.000
    C254     C        0.75380    0.61140    0.27400    1.000
    H379     H        0.77450    0.62870    0.24990    1.000
    H380     H        0.76510    0.58200    0.27920    1.000
    H381     H        0.74950    0.62450    0.31540    1.000
    C255     C        0.70710    0.60950    0.23610    1.000
    C256     C        0.57290    0.62020    0.13790    1.000
    H382     H        0.54510    0.61660    0.15930    1.000
    H383     H        0.58730    0.59220    0.13450    1.000
    H384     H        0.56800    0.63200    0.09580    1.000
    Mo25     Mo       0.32288    0.60432    0.97535    1.000
    Mo26     Mo       0.46753    0.77832    0.80358    1.000
    Mo27     Mo       0.27495    0.63851    0.88317    1.000
    Cu17     Cu       0.38389    0.56586    0.78884    1.000
    Cu18     Cu       0.41526    0.64474    0.82535    1.000
    I17      I        0.45752    0.57068    0.85035    1.000
    I18      I        0.38145    0.63446    0.71237    1.000
    P65      P        0.33187    0.58305    0.86293    1.000
    P66      P        0.45868    0.70229    0.82475    1.000
    P67      P        0.35446    0.64743    0.88921    1.000
    P68      P        0.24753    0.62612    0.98890    1.000
    P69      P        0.51750    0.77000    0.71620    1.000
    P70      P        0.47190    0.71720    0.71940    1.000
    P71      P        0.29168    0.67926    0.98310    1.000
    P72      P        0.25700    0.56690    0.93250    1.000
    S25      S        0.49198    0.73819    0.89970    1.000
    S26      S        0.31250    0.67980    0.95870    1.000
    S27      S        0.27450    0.56304    0.91150    1.000
    C257     C        0.39580    0.78410    0.95770    1.000
    H385     H        0.41990    0.76360    0.95680    1.000
    H386     H        0.38730    0.78950    0.00130    1.000
    H387     H        0.37130    0.77200    0.93460    1.000
    C258     C        0.43550    0.83850    0.75460    1.000
    C259     C        0.39530    0.79290    0.81720    1.000
    H388     H        0.37330    0.77130    0.83090    1.000
    C260     C        0.20660    0.65570    0.84510    1.000
    H389     H        0.17860    0.64760    0.86540    1.000
    C261     C        0.33580    0.59210    0.08040    1.000
    H390     H        0.31970    0.60420    0.11710    1.000
    C262     C        0.43610    0.63090    0.12060    1.000
    H391     H        0.45690    0.61110    0.10130    1.000
    H392     H        0.45140    0.65580    0.13810    1.000
    H393     H        0.42050    0.61590    0.15420    1.000
    C263     C        0.22920    0.69540    0.85430    1.000
    C264     C        0.21480    0.73130    0.89810    1.000
    H394     H        0.20230    0.75490    0.87350    1.000
    H395     H        0.19310    0.72010    0.92740    1.000
    H396     H        0.23970    0.74200    0.92180    1.000
    C265     C        0.40530    0.80250    0.75340    1.000
    C266     C        0.44270    0.84820    0.81820    1.000
    H397     H        0.46100    0.87260    0.83330    1.000
    C267     C        0.41660    0.82200    0.85780    1.000
    C268     C        0.22730    0.63220    0.79610    1.000
    C269     C        0.45040    0.84540    0.96040    1.000
    H398     H        0.47440    0.82490    0.95700    1.000
    H399     H        0.45830    0.87260    0.94020    1.000
    H400     H        0.44390    0.85060    0.00480    1.000
    C270     C        0.18080    0.56650    0.80320    1.000
    H401     H        0.15680    0.58440    0.81790    1.000
    H402     H        0.16960    0.54190    0.77950    1.000
    H403     H        0.19740    0.55600    0.83930    1.000
    C271     C        0.37470    0.86080    0.93570    1.000
    H404     H        0.34770    0.85080    0.91670    1.000
    H405     H        0.37010    0.86620    0.98060    1.000
    H406     H        0.38390    0.88760    0.91530    1.000
    C272     C        0.45350    0.86140    0.69960    1.000
    H407     H        0.43610    0.88710    0.69080    1.000
    H408     H        0.48330    0.87000    0.70850    1.000
    H409     H        0.45300    0.84220    0.66300    1.000
    C273     C        0.38740    0.57520    0.00950    1.000
    H410     H        0.41370    0.57380    0.98240    1.000
    C274     C        0.37810    0.61050    0.04870    1.000
    C275     C        0.33100    0.55140    0.05350    1.000
    C276     C        0.26530    0.69550    0.81320    1.000
    C277     C        0.40970    0.82620    0.92740    1.000
    C278     C        0.38630    0.78240    0.69570    1.000
    H411     H        0.35710    0.79360    0.68920    1.000
    H412     H        0.40430    0.78950    0.65930    1.000
    H413     H        0.38520    0.75100    0.70100    1.000
    C279     C        0.24630    0.56570    0.73610    1.000
    H414     H        0.26400    0.58310    0.70750    1.000
    H415     H        0.26430    0.55550    0.77110    1.000
    H416     H        0.23450    0.54080    0.71350    1.000
    C280     C        0.18260    0.61060    0.70880    1.000
    H417     H        0.15810    0.62660    0.72610    1.000
    H418     H        0.20020    0.63000    0.68290    1.000
    H419     H        0.17200    0.58670    0.68290    1.000
    C281     C        0.20970    0.59300    0.76150    1.000
    C282     C        0.26410    0.65670    0.77850    1.000
    H420     H        0.28420    0.64930    0.74330    1.000
    C283     C        0.29680    0.73280    0.80580    1.000
    H421     H        0.28420    0.75480    0.77830    1.000
    H422     H        0.30280    0.74550    0.84710    1.000
    H423     H        0.32380    0.72220    0.78740    1.000
    C284     C        0.42680    0.66090    0.01940    1.000
    H424     H        0.43510    0.63630    0.99310    1.000
    H425     H        0.40860    0.68060    0.99500    1.000
    H426     H        0.45280    0.67610    0.03350    1.000
    C285     C        0.40400    0.64620    0.07100    1.000
    C286     C        0.36140    0.49620    0.97600    1.000
    H427     H        0.37870    0.47550    0.00010    1.000
    H428     H        0.33200    0.48490    0.97080    1.000
    H429     H        0.37450    0.50050    0.93460    1.000
    C287     C        0.35950    0.54290    0.01390    1.000
    C288     C        0.37020    0.67710    0.11210    1.000
    H430     H        0.36660    0.70490    0.09070    1.000
    H431     H        0.34220    0.66270    0.11550    1.000
    H432     H        0.38200    0.68200    0.15420    1.000
    Mo28     Mo       0.82288    0.10432    0.47535    1.000
    Mo29     Mo       0.96753    0.27832    0.30358    1.000
    Mo30     Mo       0.77495    0.13851    0.38317    1.000
    Cu19     Cu       0.88389    0.06586    0.28884    1.000
    Cu20     Cu       0.91526    0.14474    0.32535    1.000
    I19      I        0.95752    0.07068    0.35035    1.000
    I20      I        0.88145    0.13446    0.21237    1.000
    P73      P        0.83187    0.08305    0.36293    1.000
    P74      P        0.95868    0.20229    0.32475    1.000
    P75      P        0.85446    0.14743    0.38921    1.000
    P76      P        0.74753    0.12612    0.48890    1.000
    P77      P        0.01750    0.27000    0.21620    1.000
    P78      P        0.97190    0.21720    0.21940    1.000
    P79      P        0.79168    0.17926    0.48310    1.000
    P80      P        0.75700    0.06690    0.43250    1.000
    S28      S        0.99198    0.23819    0.39970    1.000
    S29      S        0.81250    0.17980    0.45870    1.000
    S30      S        0.77450    0.06304    0.41150    1.000
    C289     C        0.89580    0.28410    0.45770    1.000
    H433     H        0.91990    0.26360    0.45680    1.000
    H434     H        0.88730    0.28950    0.50130    1.000
    H435     H        0.87130    0.27200    0.43460    1.000
    C290     C        0.93550    0.33850    0.25460    1.000
    C291     C        0.89530    0.29290    0.31720    1.000
    H436     H        0.87330    0.27130    0.33090    1.000
    C292     C        0.70660    0.15570    0.34510    1.000
    H437     H        0.67860    0.14760    0.36540    1.000
    C293     C        0.83580    0.09210    0.58040    1.000
    H438     H        0.81970    0.10420    0.61710    1.000
    C294     C        0.93610    0.13090    0.62060    1.000
    H439     H        0.95690    0.11110    0.60130    1.000
    H440     H        0.95140    0.15580    0.63810    1.000
    H441     H        0.92050    0.11590    0.65420    1.000
    C295     C        0.72920    0.19540    0.35430    1.000
    C296     C        0.71480    0.23130    0.39810    1.000
    H442     H        0.70230    0.25490    0.37350    1.000
    H443     H        0.69310    0.22010    0.42740    1.000
    H444     H        0.73970    0.24200    0.42180    1.000
    C297     C        0.90530    0.30250    0.25340    1.000
    C298     C        0.94270    0.34820    0.31820    1.000
    H445     H        0.96100    0.37260    0.33330    1.000
    C299     C        0.91660    0.32200    0.35780    1.000
    C300     C        0.72730    0.13220    0.29610    1.000
    C301     C        0.95040    0.34540    0.46040    1.000
    H446     H        0.97440    0.32490    0.45700    1.000
    H447     H        0.95830    0.37260    0.44020    1.000
    H448     H        0.94390    0.35060    0.50480    1.000
    C302     C        0.68080    0.06650    0.30320    1.000
    H449     H        0.65680    0.08440    0.31790    1.000
    H450     H        0.66960    0.04190    0.27950    1.000
    H451     H        0.69740    0.05600    0.33930    1.000
    C303     C        0.87470    0.36080    0.43570    1.000
    H452     H        0.84770    0.35080    0.41670    1.000
    H453     H        0.87010    0.36620    0.48060    1.000
    H454     H        0.88390    0.38760    0.41530    1.000
    C304     C        0.95350    0.36140    0.19960    1.000
    H455     H        0.93610    0.38710    0.19080    1.000
    H456     H        0.98330    0.37000    0.20850    1.000
    H457     H        0.95300    0.34220    0.16300    1.000
    C305     C        0.88740    0.07520    0.50950    1.000
    H458     H        0.91370    0.07380    0.48240    1.000
    C306     C        0.87810    0.11050    0.54870    1.000
    C307     C        0.83100    0.05140    0.55350    1.000
    C308     C        0.76530    0.19550    0.31320    1.000
    C309     C        0.90970    0.32620    0.42740    1.000
    C310     C        0.88630    0.28240    0.19570    1.000
    H459     H        0.85710    0.29360    0.18920    1.000
    H460     H        0.90430    0.28950    0.15930    1.000
    H461     H        0.88520    0.25100    0.20100    1.000
    C311     C        0.74630    0.06570    0.23610    1.000
    H462     H        0.76400    0.08310    0.20750    1.000
    H463     H        0.76430    0.05550    0.27110    1.000
    H464     H        0.73450    0.04080    0.21350    1.000
    C312     C        0.68260    0.11060    0.20880    1.000
    H465     H        0.65810    0.12660    0.22610    1.000
    H466     H        0.70020    0.13000    0.18290    1.000
    H467     H        0.67200    0.08670    0.18290    1.000
    C313     C        0.70970    0.09300    0.26150    1.000
    C314     C        0.76410    0.15670    0.27850    1.000
    H468     H        0.78420    0.14930    0.24330    1.000
    C315     C        0.79680    0.23280    0.30580    1.000
    H469     H        0.78420    0.25480    0.27830    1.000
    H470     H        0.80280    0.24550    0.34710    1.000
    H471     H        0.82380    0.22220    0.28740    1.000
    C316     C        0.92680    0.16090    0.51940    1.000
    H472     H        0.93510    0.13630    0.49310    1.000
    H473     H        0.90860    0.18060    0.49500    1.000
    H474     H        0.95280    0.17610    0.53350    1.000
    C317     C        0.90400    0.14620    0.57100    1.000
    C318     C        0.86140    0.99620    0.47600    1.000
    H475     H        0.87870    0.97550    0.50010    1.000
    H476     H        0.83200    0.98490    0.47080    1.000
    H477     H        0.87450    0.00050    0.43460    1.000
    C319     C        0.85950    0.04290    0.51390    1.000
    C320     C        0.87020    0.17710    0.61210    1.000
    H478     H        0.86660    0.20490    0.59070    1.000
    H479     H        0.84220    0.16270    0.61550    1.000
    H480     H        0.88200    0.18200    0.65420    1.000
    Mo31     Mo       0.17712    0.39568    0.47535    1.000
    Mo32     Mo       0.03247    0.22168    0.30358    1.000
    Mo33     Mo       0.22505    0.36149    0.38317    1.000
    Cu21     Cu       0.11611    0.43414    0.28884    1.000
    Cu22     Cu       0.08474    0.35526    0.32535    1.000
    I21      I        0.04248    0.42932    0.35035    1.000
    I22      I        0.11855    0.36554    0.21237    1.000
    P81      P        0.16813    0.41695    0.36293    1.000
    P82      P        0.04132    0.29771    0.32475    1.000
    P83      P        0.14554    0.35257    0.38921    1.000
    P84      P        0.25247    0.37388    0.48890    1.000
    P85      P        0.98250    0.23000    0.21620    1.000
    P86      P        0.02810    0.28280    0.21940    1.000
    P87      P        0.20832    0.32074    0.48310    1.000
    P88      P        0.24300    0.43310    0.43250    1.000
    S31      S        0.00802    0.26181    0.39970    1.000
    S32      S        0.18750    0.32020    0.45870    1.000
    S33      S        0.22550    0.43696    0.41150    1.000
    C321     C        0.10420    0.21590    0.45770    1.000
    H481     H        0.08010    0.23640    0.45680    1.000
    H482     H        0.11270    0.21050    0.50130    1.000
    H483     H        0.12870    0.22800    0.43460    1.000
    C322     C        0.06450    0.16150    0.25460    1.000
    C323     C        0.10470    0.20710    0.31720    1.000
    H484     H        0.12670    0.22870    0.33090    1.000
    C324     C        0.29340    0.34430    0.34510    1.000
    H485     H        0.32140    0.35240    0.36540    1.000
    C325     C        0.16420    0.40790    0.58040    1.000
    H486     H        0.18030    0.39580    0.61710    1.000
    C326     C        0.06390    0.36910    0.62060    1.000
    H487     H        0.04310    0.38890    0.60130    1.000
    H488     H        0.04860    0.34420    0.63810    1.000
    H489     H        0.07950    0.38410    0.65420    1.000
    C327     C        0.27080    0.30460    0.35430    1.000
    C328     C        0.28520    0.26870    0.39810    1.000
    H490     H        0.29770    0.24510    0.37350    1.000
    H491     H        0.30690    0.27990    0.42740    1.000
    H492     H        0.26030    0.25800    0.42180    1.000
    C329     C        0.09470    0.19750    0.25340    1.000
    C330     C        0.05730    0.15180    0.31820    1.000
    H493     H        0.03900    0.12740    0.33330    1.000
    C331     C        0.08340    0.17800    0.35780    1.000
    C332     C        0.27270    0.36780    0.29610    1.000
    C333     C        0.04960    0.15460    0.46040    1.000
    H494     H        0.02560    0.17510    0.45700    1.000
    H495     H        0.04170    0.12740    0.44020    1.000
    H496     H        0.05610    0.14940    0.50480    1.000
    C334     C        0.31920    0.43350    0.30320    1.000
    H497     H        0.34320    0.41560    0.31790    1.000
    H498     H        0.33040    0.45810    0.27950    1.000
    H499     H        0.30260    0.44400    0.33930    1.000
    C335     C        0.12530    0.13920    0.43570    1.000
    H500     H        0.15230    0.14920    0.41670    1.000
    H501     H        0.12990    0.13380    0.48060    1.000
    H502     H        0.11610    0.11240    0.41530    1.000
    C336     C        0.04650    0.13860    0.19960    1.000
    H503     H        0.06390    0.11290    0.19080    1.000
    H504     H        0.01670    0.13000    0.20850    1.000
    H505     H        0.04700    0.15780    0.16300    1.000
    C337     C        0.11260    0.42480    0.50950    1.000
    H506     H        0.08630    0.42620    0.48240    1.000
    C338     C        0.12190    0.38950    0.54870    1.000
    C339     C        0.16900    0.44860    0.55350    1.000
    C340     C        0.23470    0.30450    0.31320    1.000
    C341     C        0.09030    0.17380    0.42740    1.000
    C342     C        0.11370    0.21760    0.19570    1.000
    H507     H        0.14290    0.20640    0.18920    1.000
    H508     H        0.09570    0.21050    0.15930    1.000
    H509     H        0.11480    0.24900    0.20100    1.000
    C343     C        0.25370    0.43430    0.23610    1.000
    H510     H        0.23600    0.41690    0.20750    1.000
    H511     H        0.23570    0.44450    0.27110    1.000
    H512     H        0.26550    0.45920    0.21350    1.000
    C344     C        0.31740    0.38940    0.20880    1.000
    H513     H        0.34190    0.37340    0.22610    1.000
    H514     H        0.29980    0.37000    0.18290    1.000
    H515     H        0.32800    0.41330    0.18290    1.000
    C345     C        0.29030    0.40700    0.26150    1.000
    C346     C        0.23590    0.34330    0.27850    1.000
    H516     H        0.21580    0.35070    0.24330    1.000
    C347     C        0.20320    0.26720    0.30580    1.000
    H517     H        0.21580    0.24520    0.27830    1.000
    H518     H        0.19720    0.25450    0.34710    1.000
    H519     H        0.17620    0.27780    0.28740    1.000
    C348     C        0.07320    0.33910    0.51940    1.000
    H520     H        0.06490    0.36370    0.49310    1.000
    H521     H        0.09140    0.31940    0.49500    1.000
    H522     H        0.04720    0.32390    0.53350    1.000
    C349     C        0.09600    0.35380    0.57100    1.000
    C350     C        0.13860    0.50380    0.47600    1.000
    H523     H        0.12130    0.52450    0.50010    1.000
    H524     H        0.16800    0.51510    0.47080    1.000
    H525     H        0.12550    0.49950    0.43460    1.000
    C351     C        0.14050    0.45710    0.51390    1.000
    C352     C        0.12980    0.32290    0.61210    1.000
    H526     H        0.13340    0.29510    0.59070    1.000
    H527     H        0.15780    0.33730    0.61550    1.000
    H528     H        0.11800    0.31800    0.65420    1.000
    Mo34     Mo       0.67712    0.89568    0.97535    1.000
    Mo35     Mo       0.53247    0.72168    0.80358    1.000
    Mo36     Mo       0.72505    0.86149    0.88317    1.000
    Cu23     Cu       0.61611    0.93414    0.78884    1.000
    Cu24     Cu       0.58474    0.85526    0.82535    1.000
    I23      I        0.54248    0.92932    0.85035    1.000
    I24      I        0.61855    0.86554    0.71237    1.000
    P89      P        0.66813    0.91695    0.86293    1.000
    P90      P        0.54132    0.79771    0.82475    1.000
    P91      P        0.64554    0.85257    0.88921    1.000
    P92      P        0.75247    0.87388    0.98890    1.000
    P93      P        0.48250    0.73000    0.71620    1.000
    P94      P        0.52810    0.78280    0.71940    1.000
    P95      P        0.70832    0.82074    0.98310    1.000
    P96      P        0.74300    0.93310    0.93250    1.000
    S34      S        0.50802    0.76181    0.89970    1.000
    S35      S        0.68750    0.82020    0.95870    1.000
    S36      S        0.72550    0.93696    0.91150    1.000
    C353     C        0.60420    0.71590    0.95770    1.000
    H529     H        0.58010    0.73640    0.95680    1.000
    H530     H        0.61270    0.71050    0.00130    1.000
    H531     H        0.62870    0.72800    0.93460    1.000
    C354     C        0.56450    0.66150    0.75460    1.000
    C355     C        0.60470    0.70710    0.81720    1.000
    H532     H        0.62670    0.72870    0.83090    1.000
    C356     C        0.79340    0.84430    0.84510    1.000
    H533     H        0.82140    0.85240    0.86540    1.000
    C357     C        0.66420    0.90790    0.08040    1.000
    H534     H        0.68030    0.89580    0.11710    1.000
    C358     C        0.56390    0.86910    0.12060    1.000
    H535     H        0.54310    0.88890    0.10130    1.000
    H536     H        0.54860    0.84420    0.13810    1.000
    H537     H        0.57950    0.88410    0.15420    1.000
    C359     C        0.77080    0.80460    0.85430    1.000
    C360     C        0.78520    0.76870    0.89810    1.000
    H538     H        0.79770    0.74510    0.87350    1.000
    H539     H        0.80690    0.77990    0.92740    1.000
    H540     H        0.76030    0.75800    0.92180    1.000
    C361     C        0.59470    0.69750    0.75340    1.000
    C362     C        0.55730    0.65180    0.81820    1.000
    H541     H        0.53900    0.62740    0.83330    1.000
    C363     C        0.58340    0.67800    0.85780    1.000
    C364     C        0.77270    0.86780    0.79610    1.000
    C365     C        0.54960    0.65460    0.96040    1.000
    H542     H        0.52560    0.67510    0.95700    1.000
    H543     H        0.54170    0.62740    0.94020    1.000
    H544     H        0.55610    0.64940    0.00480    1.000
    C366     C        0.81920    0.93350    0.80320    1.000
    H545     H        0.84320    0.91560    0.81790    1.000
    H546     H        0.83040    0.95810    0.77950    1.000
    H547     H        0.80260    0.94400    0.83930    1.000
    C367     C        0.62530    0.63920    0.93570    1.000
    H548     H        0.65230    0.64920    0.91670    1.000
    H549     H        0.62990    0.63380    0.98060    1.000
    H550     H        0.61610    0.61240    0.91530    1.000
    C368     C        0.54650    0.63860    0.69960    1.000
    H551     H        0.56390    0.61290    0.69080    1.000
    H552     H        0.51670    0.63000    0.70850    1.000
    H553     H        0.54700    0.65780    0.66300    1.000
    C369     C        0.61260    0.92480    0.00950    1.000
    H554     H        0.58630    0.92620    0.98240    1.000
    C370     C        0.62190    0.88950    0.04870    1.000
    C371     C        0.66900    0.94860    0.05350    1.000
    C372     C        0.73470    0.80450    0.81320    1.000
    C373     C        0.59030    0.67380    0.92740    1.000
    C374     C        0.61370    0.71760    0.69570    1.000
    H555     H        0.64290    0.70640    0.68920    1.000
    H556     H        0.59570    0.71050    0.65930    1.000
    H557     H        0.61480    0.74900    0.70100    1.000
    C375     C        0.75370    0.93430    0.73610    1.000
    H558     H        0.73600    0.91690    0.70750    1.000
    H559     H        0.73570    0.94450    0.77110    1.000
    H560     H        0.76550    0.95920    0.71350    1.000
    C376     C        0.81740    0.88940    0.70880    1.000
    H561     H        0.84190    0.87340    0.72610    1.000
    H562     H        0.79980    0.87000    0.68290    1.000
    H563     H        0.82800    0.91330    0.68290    1.000
    C377     C        0.79030    0.90700    0.76150    1.000
    C378     C        0.73590    0.84330    0.77850    1.000
    H564     H        0.71580    0.85070    0.74330    1.000
    C379     C        0.70320    0.76720    0.80580    1.000
    H565     H        0.71580    0.74520    0.77830    1.000
    H566     H        0.69720    0.75450    0.84710    1.000
    H567     H        0.67620    0.77780    0.78740    1.000
    C380     C        0.57320    0.83910    0.01940    1.000
    H568     H        0.56490    0.86370    0.99310    1.000
    H569     H        0.59140    0.81940    0.99500    1.000
    H570     H        0.54720    0.82390    0.03350    1.000
    C381     C        0.59600    0.85380    0.07100    1.000
    C382     C        0.63860    0.00380    0.97600    1.000
    H571     H        0.62130    0.02450    0.00010    1.000
    H572     H        0.66800    0.01510    0.97080    1.000
    H573     H        0.62550    0.99950    0.93460    1.000
    C383     C        0.64050    0.95710    0.01390    1.000
    C384     C        0.62980    0.82290    0.11210    1.000
    H574     H        0.63340    0.79510    0.09070    1.000
    H575     H        0.65780    0.83730    0.11550    1.000
    H576     H        0.61800    0.81800    0.15420    1.000
    Mo37     Mo       0.64568    0.07288    0.72535    1.000
    Mo38     Mo       0.47168    0.21753    0.55358    1.000
    Mo39     Mo       0.61149    0.02495    0.63317    1.000
    Cu25     Cu       0.68414    0.13389    0.53884    1.000
    Cu26     Cu       0.60526    0.16526    0.57535    1.000
    I25      I        0.67932    0.20752    0.60035    1.000
    I26      I        0.61554    0.13145    0.46237    1.000
    P97      P        0.66695    0.08187    0.61293    1.000
    P98      P        0.54771    0.20868    0.57475    1.000
    P99      P        0.60257    0.10446    0.63921    1.000
    P100     P        0.62388    0.99753    0.73890    1.000
    P101     P        0.48000    0.26750    0.46620    1.000
    P102     P        0.53280    0.22190    0.46940    1.000
    P103     P        0.57074    0.04168    0.73310    1.000
    P104     P        0.68310    0.00700    0.68250    1.000
    S37      S        0.51181    0.24198    0.64970    1.000
    S38      S        0.57020    0.06250    0.70870    1.000
    S39      S        0.68696    0.02450    0.66150    1.000
    C385     C        0.46590    0.14580    0.70770    1.000
    H577     H        0.48640    0.16990    0.70680    1.000
    H578     H        0.46050    0.13730    0.75130    1.000
    H579     H        0.47800    0.12130    0.68460    1.000
    C386     C        0.41150    0.18550    0.50460    1.000
    C387     C        0.45710    0.14530    0.56720    1.000
    H580     H        0.47870    0.12330    0.58090    1.000
    C388     C        0.59430    0.95660    0.59510    1.000
    H581     H        0.60240    0.92860    0.61540    1.000
    C389     C        0.65790    0.08580    0.83040    1.000
    H582     H        0.64580    0.06970    0.86710    1.000
    C390     C        0.61910    0.18610    0.87060    1.000
    H583     H        0.63890    0.20690    0.85130    1.000
    H584     H        0.59420    0.20140    0.88810    1.000
    H585     H        0.63410    0.17050    0.90420    1.000
    C391     C        0.55460    0.97920    0.60430    1.000
    C392     C        0.51870    0.96480    0.64810    1.000
    H586     H        0.49510    0.95230    0.62350    1.000
    H587     H        0.52990    0.94310    0.67740    1.000
    H588     H        0.50800    0.98970    0.67180    1.000
    C393     C        0.44750    0.15530    0.50340    1.000
    C394     C        0.40180    0.19270    0.56820    1.000
    H589     H        0.37740    0.21100    0.58330    1.000
    C395     C        0.42800    0.16660    0.60780    1.000
    C396     C        0.61780    0.97730    0.54610    1.000
    C397     C        0.40460    0.20040    0.71040    1.000
    H590     H        0.42510    0.22440    0.70700    1.000
    H591     H        0.37740    0.20830    0.69020    1.000
    H592     H        0.39940    0.19390    0.75480    1.000
    C398     C        0.68350    0.93080    0.55320    1.000
    H593     H        0.66560    0.90680    0.56790    1.000
    H594     H        0.70810    0.91960    0.52950    1.000
    H595     H        0.69400    0.94740    0.58930    1.000
    C399     C        0.38920    0.12470    0.68570    1.000
    H596     H        0.39920    0.09770    0.66670    1.000
    H597     H        0.38380    0.12010    0.73060    1.000
    H598     H        0.36240    0.13390    0.66530    1.000
    C400     C        0.38860    0.20350    0.44960    1.000
    H599     H        0.36290    0.18610    0.44080    1.000
    H600     H        0.38000    0.23330    0.45850    1.000
    H601     H        0.40780    0.20300    0.41300    1.000
    C401     C        0.67480    0.13740    0.75950    1.000
    H602     H        0.67620    0.16370    0.73240    1.000
    C402     C        0.63950    0.12810    0.79870    1.000
    C403     C        0.69860    0.08100    0.80350    1.000
    C404     C        0.55450    0.01530    0.56320    1.000
    C405     C        0.42380    0.15970    0.67740    1.000
    C406     C        0.46760    0.13630    0.44570    1.000
    H603     H        0.45640    0.10710    0.43920    1.000
    H604     H        0.46050    0.15430    0.40930    1.000
    H605     H        0.49900    0.13520    0.45100    1.000
    C407     C        0.68430    0.99630    0.48610    1.000
    H606     H        0.66690    0.01400    0.45750    1.000
    H607     H        0.69450    0.01430    0.52110    1.000
    H608     H        0.70920    0.98450    0.46350    1.000
    C408     C        0.63940    0.93260    0.45880    1.000
    H609     H        0.62340    0.90810    0.47610    1.000
    H610     H        0.62000    0.95020    0.43290    1.000
    H611     H        0.66330    0.92200    0.43290    1.000
    C409     C        0.65700    0.95970    0.51150    1.000
    C410     C        0.59330    0.01410    0.52850    1.000
    H612     H        0.60070    0.03420    0.49330    1.000
    C411     C        0.51720    0.04680    0.55580    1.000
    H613     H        0.49520    0.03420    0.52830    1.000
    H614     H        0.50450    0.05280    0.59710    1.000
    H615     H        0.52780    0.07380    0.53740    1.000
    C412     C        0.58910    0.17680    0.76940    1.000
    H616     H        0.61370    0.18510    0.74310    1.000
    H617     H        0.56940    0.15860    0.74500    1.000
    H618     H        0.57390    0.20280    0.78350    1.000
    C413     C        0.60380    0.15400    0.82100    1.000
    C414     C        0.75380    0.11140    0.72600    1.000
    H619     H        0.77450    0.12870    0.75010    1.000
    H620     H        0.76510    0.08200    0.72080    1.000
    H621     H        0.74950    0.12450    0.68460    1.000
    C415     C        0.70710    0.10950    0.76390    1.000
    C416     C        0.57290    0.12020    0.86210    1.000
    H622     H        0.54510    0.11660    0.84070    1.000
    H623     H        0.58730    0.09220    0.86550    1.000
    H624     H        0.56800    0.13200    0.90420    1.000
    Mo40     Mo       0.14568    0.57288    0.22535    1.000
    Mo41     Mo       0.97168    0.71753    0.05358    1.000
    Mo42     Mo       0.11149    0.52495    0.13317    1.000
    Cu27     Cu       0.18414    0.63389    0.03884    1.000
    Cu28     Cu       0.10526    0.66526    0.07535    1.000
    I27      I        0.17932    0.70752    0.10035    1.000
    I28      I        0.11554    0.63145    0.96237    1.000
    P105     P        0.16695    0.58187    0.11293    1.000
    P106     P        0.04771    0.70868    0.07475    1.000
    P107     P        0.10257    0.60446    0.13921    1.000
    P108     P        0.12388    0.49753    0.23890    1.000
    P109     P        0.98000    0.76750    0.96620    1.000
    P110     P        0.03280    0.72190    0.96940    1.000
    P111     P        0.07074    0.54168    0.23310    1.000
    P112     P        0.18310    0.50700    0.18250    1.000
    S40      S        0.01181    0.74198    0.14970    1.000
    S41      S        0.07020    0.56250    0.20870    1.000
    S42      S        0.18696    0.52450    0.16150    1.000
    C417     C        0.96590    0.64580    0.20770    1.000
    H625     H        0.98640    0.66990    0.20680    1.000
    H626     H        0.96050    0.63730    0.25130    1.000
    H627     H        0.97800    0.62130    0.18460    1.000
    C418     C        0.91150    0.68550    0.00460    1.000
    C419     C        0.95710    0.64530    0.06720    1.000
    H628     H        0.97870    0.62330    0.08090    1.000
    C420     C        0.09430    0.45660    0.09510    1.000
    H629     H        0.10240    0.42860    0.11540    1.000
    C421     C        0.15790    0.58580    0.33040    1.000
    H630     H        0.14580    0.56970    0.36710    1.000
    C422     C        0.11910    0.68610    0.37060    1.000
    H631     H        0.13890    0.70690    0.35130    1.000
    H632     H        0.09420    0.70140    0.38810    1.000
    H633     H        0.13410    0.67050    0.40420    1.000
    C423     C        0.05460    0.47920    0.10430    1.000
    C424     C        0.01870    0.46480    0.14810    1.000
    H634     H        0.99510    0.45230    0.12350    1.000
    H635     H        0.02990    0.44310    0.17740    1.000
    H636     H        0.00800    0.48970    0.17180    1.000
    C425     C        0.94750    0.65530    0.00340    1.000
    C426     C        0.90180    0.69270    0.06820    1.000
    H637     H        0.87740    0.71100    0.08330    1.000
    C427     C        0.92800    0.66660    0.10780    1.000
    C428     C        0.11780    0.47730    0.04610    1.000
    C429     C        0.90460    0.70040    0.21040    1.000
    H638     H        0.92510    0.72440    0.20700    1.000
    H639     H        0.87740    0.70830    0.19020    1.000
    H640     H        0.89940    0.69390    0.25480    1.000
    C430     C        0.18350    0.43080    0.05320    1.000
    H641     H        0.16560    0.40680    0.06790    1.000
    H642     H        0.20810    0.41960    0.02950    1.000
    H643     H        0.19400    0.44740    0.08930    1.000
    C431     C        0.88920    0.62470    0.18570    1.000
    H644     H        0.89920    0.59770    0.16670    1.000
    H645     H        0.88380    0.62010    0.23060    1.000
    H646     H        0.86240    0.63390    0.16530    1.000
    C432     C        0.88860    0.70350    0.94960    1.000
    H647     H        0.86290    0.68610    0.94080    1.000
    H648     H        0.88000    0.73330    0.95850    1.000
    H649     H        0.90780    0.70300    0.91300    1.000
    C433     C        0.17480    0.63740    0.25950    1.000
    H650     H        0.17620    0.66370    0.23240    1.000
    C434     C        0.13950    0.62810    0.29870    1.000
    C435     C        0.19860    0.58100    0.30350    1.000
    C436     C        0.05450    0.51530    0.06320    1.000
    C437     C        0.92380    0.65970    0.17740    1.000
    C438     C        0.96760    0.63630    0.94570    1.000
    H651     H        0.95640    0.60710    0.93920    1.000
    H652     H        0.96050    0.65430    0.90930    1.000
    H653     H        0.99900    0.63520    0.95100    1.000
    C439     C        0.18430    0.49630    0.98610    1.000
    H654     H        0.16690    0.51400    0.95750    1.000
    H655     H        0.19450    0.51430    0.02110    1.000
    H656     H        0.20920    0.48450    0.96350    1.000
    C440     C        0.13940    0.43260    0.95880    1.000
    H657     H        0.12340    0.40810    0.97610    1.000
    H658     H        0.12000    0.45020    0.93290    1.000
    H659     H        0.16330    0.42200    0.93290    1.000
    C441     C        0.15700    0.45970    0.01150    1.000
    C442     C        0.09330    0.51410    0.02850    1.000
    H660     H        0.10070    0.53420    0.99330    1.000
    C443     C        0.01720    0.54680    0.05580    1.000
    H661     H        0.99520    0.53420    0.02830    1.000
    H662     H        0.00450    0.55280    0.09710    1.000
    H663     H        0.02780    0.57380    0.03740    1.000
    C444     C        0.08910    0.67680    0.26940    1.000
    H664     H        0.11370    0.68510    0.24310    1.000
    H665     H        0.06940    0.65860    0.24500    1.000
    H666     H        0.07390    0.70280    0.28350    1.000
    C445     C        0.10380    0.65400    0.32100    1.000
    C446     C        0.25380    0.61140    0.22600    1.000
    H667     H        0.27450    0.62870    0.25010    1.000
    H668     H        0.26510    0.58200    0.22080    1.000
    H669     H        0.24950    0.62450    0.18460    1.000
    C447     C        0.20710    0.60950    0.26390    1.000
    C448     C        0.07290    0.62020    0.36210    1.000
    H670     H        0.04510    0.61660    0.34070    1.000
    H671     H        0.08730    0.59220    0.36550    1.000
    H672     H        0.06800    0.63200    0.40420    1.000
    Mo43     Mo       0.85432    0.92712    0.22535    1.000
    Mo44     Mo       0.02832    0.78247    0.05358    1.000
    Mo45     Mo       0.88851    0.97505    0.13317    1.000
    Cu29     Cu       0.81586    0.86611    0.03884    1.000
    Cu30     Cu       0.89474    0.83474    0.07535    1.000
    I29      I        0.82068    0.79248    0.10035    1.000
    I30      I        0.88446    0.86855    0.96237    1.000
    P113     P        0.83305    0.91813    0.11293    1.000
    P114     P        0.95229    0.79132    0.07475    1.000
    P115     P        0.89743    0.89554    0.13921    1.000
    P116     P        0.87612    0.00247    0.23890    1.000
    P117     P        0.02000    0.73250    0.96620    1.000
    P118     P        0.96720    0.77810    0.96940    1.000
    P119     P        0.92926    0.95832    0.23310    1.000
    P120     P        0.81690    0.99300    0.18250    1.000
    S43      S        0.98819    0.75802    0.14970    1.000
    S44      S        0.92980    0.93750    0.20870    1.000
    S45      S        0.81304    0.97550    0.16150    1.000
    C449     C        0.03410    0.85420    0.20770    1.000
    H673     H        0.01360    0.83010    0.20680    1.000
    H674     H        0.03950    0.86270    0.25130    1.000
    H675     H        0.02200    0.87870    0.18460    1.000
    C450     C        0.08850    0.81450    0.00460    1.000
    C451     C        0.04290    0.85470    0.06720    1.000
    H676     H        0.02130    0.87670    0.08090    1.000
    C452     C        0.90570    0.04340    0.09510    1.000
    H677     H        0.89760    0.07140    0.11540    1.000
    C453     C        0.84210    0.91420    0.33040    1.000
    H678     H        0.85420    0.93030    0.36710    1.000
    C454     C        0.88090    0.81390    0.37060    1.000
    H679     H        0.86110    0.79310    0.35130    1.000
    H680     H        0.90580    0.79860    0.38810    1.000
    H681     H        0.86590    0.82950    0.40420    1.000
    C455     C        0.94540    0.02080    0.10430    1.000
    C456     C        0.98130    0.03520    0.14810    1.000
    H682     H        0.00490    0.04770    0.12350    1.000
    H683     H        0.97010    0.05690    0.17740    1.000
    H684     H        0.99200    0.01030    0.17180    1.000
    C457     C        0.05250    0.84470    0.00340    1.000
    C458     C        0.09820    0.80730    0.06820    1.000
    H685     H        0.12260    0.78900    0.08330    1.000
    C459     C        0.07200    0.83340    0.10780    1.000
    C460     C        0.88220    0.02270    0.04610    1.000
    C461     C        0.09540    0.79960    0.21040    1.000
    H686     H        0.07490    0.77560    0.20700    1.000
    H687     H        0.12260    0.79170    0.19020    1.000
    H688     H        0.10060    0.80610    0.25480    1.000
    C462     C        0.81650    0.06920    0.05320    1.000
    H689     H        0.83440    0.09320    0.06790    1.000
    H690     H        0.79190    0.08040    0.02950    1.000
    H691     H        0.80600    0.05260    0.08930    1.000
    C463     C        0.11080    0.87530    0.18570    1.000
    H692     H        0.10080    0.90230    0.16670    1.000
    H693     H        0.11620    0.87990    0.23060    1.000
    H694     H        0.13760    0.86610    0.16530    1.000
    C464     C        0.11140    0.79650    0.94960    1.000
    H695     H        0.13710    0.81390    0.94080    1.000
    H696     H        0.12000    0.76670    0.95850    1.000
    H697     H        0.09220    0.79700    0.91300    1.000
    C465     C        0.82520    0.86260    0.25950    1.000
    H698     H        0.82380    0.83630    0.23240    1.000
    C466     C        0.86050    0.87190    0.29870    1.000
    C467     C        0.80140    0.91900    0.30350    1.000
    C468     C        0.94550    0.98470    0.06320    1.000
    C469     C        0.07620    0.84030    0.17740    1.000
    C470     C        0.03240    0.86370    0.94570    1.000
    H699     H        0.04360    0.89290    0.93920    1.000
    H700     H        0.03950    0.84570    0.90930    1.000
    H701     H        0.00100    0.86480    0.95100    1.000
    C471     C        0.81570    0.00370    0.98610    1.000
    H702     H        0.83310    0.98600    0.95750    1.000
    H703     H        0.80550    0.98570    0.02110    1.000
    H704     H        0.79080    0.01550    0.96350    1.000
    C472     C        0.86060    0.06740    0.95880    1.000
    H705     H        0.87660    0.09190    0.97610    1.000
    H706     H        0.88000    0.04980    0.93290    1.000
    H707     H        0.83670    0.07800    0.93290    1.000
    C473     C        0.84300    0.04030    0.01150    1.000
    C474     C        0.90670    0.98590    0.02850    1.000
    H708     H        0.89930    0.96580    0.99330    1.000
    C475     C        0.98280    0.95320    0.05580    1.000
    H709     H        0.00480    0.96580    0.02830    1.000
    H710     H        0.99550    0.94720    0.09710    1.000
    H711     H        0.97220    0.92620    0.03740    1.000
    C476     C        0.91090    0.82320    0.26940    1.000
    H712     H        0.88630    0.81490    0.24310    1.000
    H713     H        0.93060    0.84140    0.24500    1.000
    H714     H        0.92610    0.79720    0.28350    1.000
    C477     C        0.89620    0.84600    0.32100    1.000
    C478     C        0.74620    0.88860    0.22600    1.000
    H715     H        0.72550    0.87130    0.25010    1.000
    H716     H        0.73490    0.91800    0.22080    1.000
    H717     H        0.75050    0.87550    0.18460    1.000
    C479     C        0.79290    0.89050    0.26390    1.000
    C480     C        0.92710    0.87980    0.36210    1.000
    H718     H        0.95490    0.88340    0.34070    1.000
    H719     H        0.91270    0.90780    0.36550    1.000
    H720     H        0.93200    0.86800    0.40420    1.000
    Mo46     Mo       0.35432    0.42712    0.72535    1.000
    Mo47     Mo       0.52832    0.28247    0.55358    1.000
    Mo48     Mo       0.38851    0.47505    0.63317    1.000
    Cu31     Cu       0.31586    0.36611    0.53884    1.000
    Cu32     Cu       0.39474    0.33474    0.57535    1.000
    I31      I        0.32068    0.29248    0.60035    1.000
    I32      I        0.38446    0.36855    0.46237    1.000
    P121     P        0.33305    0.41813    0.61293    1.000
    P122     P        0.45229    0.29132    0.57475    1.000
    P123     P        0.39743    0.39554    0.63921    1.000
    P124     P        0.37612    0.50247    0.73890    1.000
    P125     P        0.52000    0.23250    0.46620    1.000
    P126     P        0.46720    0.27810    0.46940    1.000
    P127     P        0.42926    0.45832    0.73310    1.000
    P128     P        0.31690    0.49300    0.68250    1.000
    S46      S        0.48819    0.25802    0.64970    1.000
    S47      S        0.42980    0.43750    0.70870    1.000
    S48      S        0.31304    0.47550    0.66150    1.000
    C481     C        0.53410    0.35420    0.70770    1.000
    H721     H        0.51360    0.33010    0.70680    1.000
    H722     H        0.53950    0.36270    0.75130    1.000
    H723     H        0.52200    0.37870    0.68460    1.000
    C482     C        0.58850    0.31450    0.50460    1.000
    C483     C        0.54290    0.35470    0.56720    1.000
    H724     H        0.52130    0.37670    0.58090    1.000
    C484     C        0.40570    0.54340    0.59510    1.000
    H725     H        0.39760    0.57140    0.61540    1.000
    C485     C        0.34210    0.41420    0.83040    1.000
    H726     H        0.35420    0.43030    0.86710    1.000
    C486     C        0.38090    0.31390    0.87060    1.000
    H727     H        0.36110    0.29310    0.85130    1.000
    H728     H        0.40580    0.29860    0.88810    1.000
    H729     H        0.36590    0.32950    0.90420    1.000
    C487     C        0.44540    0.52080    0.60430    1.000
    C488     C        0.48130    0.53520    0.64810    1.000
    H730     H        0.50490    0.54770    0.62350    1.000
    H731     H        0.47010    0.55690    0.67740    1.000
    H732     H        0.49200    0.51030    0.67180    1.000
    C489     C        0.55250    0.34470    0.50340    1.000
    C490     C        0.59820    0.30730    0.56820    1.000
    H733     H        0.62260    0.28900    0.58330    1.000
    C491     C        0.57200    0.33340    0.60780    1.000
    C492     C        0.38220    0.52270    0.54610    1.000
    C493     C        0.59540    0.29960    0.71040    1.000
    H734     H        0.57490    0.27560    0.70700    1.000
    H735     H        0.62260    0.29170    0.69020    1.000
    H736     H        0.60060    0.30610    0.75480    1.000
    C494     C        0.31650    0.56920    0.55320    1.000
    H737     H        0.33440    0.59320    0.56790    1.000
    H738     H        0.29190    0.58040    0.52950    1.000
    H739     H        0.30600    0.55260    0.58930    1.000
    C495     C        0.61080    0.37530    0.68570    1.000
    H740     H        0.60080    0.40230    0.66670    1.000
    H741     H        0.61620    0.37990    0.73060    1.000
    H742     H        0.63760    0.36610    0.66530    1.000
    C496     C        0.61140    0.29650    0.44960    1.000
    H743     H        0.63710    0.31390    0.44080    1.000
    H744     H        0.62000    0.26670    0.45850    1.000
    H745     H        0.59220    0.29700    0.41300    1.000
    C497     C        0.32520    0.36260    0.75950    1.000
    H746     H        0.32380    0.33630    0.73240    1.000
    C498     C        0.36050    0.37190    0.79870    1.000
    C499     C        0.30140    0.41900    0.80350    1.000
    C500     C        0.44550    0.48470    0.56320    1.000
    C501     C        0.57620    0.34030    0.67740    1.000
    C502     C        0.53240    0.36370    0.44570    1.000
    H747     H        0.54360    0.39290    0.43920    1.000
    H748     H        0.53950    0.34570    0.40930    1.000
    H749     H        0.50100    0.36480    0.45100    1.000
    C503     C        0.31570    0.50370    0.48610    1.000
    H750     H        0.33310    0.48600    0.45750    1.000
    H751     H        0.30550    0.48570    0.52110    1.000
    H752     H        0.29080    0.51550    0.46350    1.000
    C504     C        0.36060    0.56740    0.45880    1.000
    H753     H        0.37660    0.59190    0.47610    1.000
    H754     H        0.38000    0.54980    0.43290    1.000
    H755     H        0.33670    0.57800    0.43290    1.000
    C505     C        0.34300    0.54030    0.51150    1.000
    C506     C        0.40670    0.48590    0.52850    1.000
    H756     H        0.39930    0.46580    0.49330    1.000
    C507     C        0.48280    0.45320    0.55580    1.000
    H757     H        0.50480    0.46580    0.52830    1.000
    H758     H        0.49550    0.44720    0.59710    1.000
    H759     H        0.47220    0.42620    0.53740    1.000
    C508     C        0.41090    0.32320    0.76940    1.000
    H760     H        0.38630    0.31490    0.74310    1.000
    H761     H        0.43060    0.34140    0.74500    1.000
    H762     H        0.42610    0.29720    0.78350    1.000
    C509     C        0.39620    0.34600    0.82100    1.000
    C510     C        0.24620    0.38860    0.72600    1.000
    H763     H        0.22550    0.37130    0.75010    1.000
    H764     H        0.23490    0.41800    0.72080    1.000
    H765     H        0.25050    0.37550    0.68460    1.000
    C511     C        0.29290    0.39050    0.76390    1.000
    C512     C        0.42710    0.37980    0.86210    1.000
    H766     H        0.45490    0.38340    0.84070    1.000
    H767     H        0.41270    0.40780    0.86550    1.000
    H768     H        0.43200    0.36800    0.90420    1.000
