data_functionalizedCrystal
_audit_creation_method	'EQeq! by Chris Wilmer'
_symmetry_space_group_name_H-M	'P1'
_symmetry_Int_Tables_number	1
_symmetry_cell_setting	triclinic
loop_
_symmetry_equiv_pos_as_xyz
  x,y,z
_cell_length_a	9.4116
_cell_length_b	13.2967
_cell_length_c	14.9365
_cell_angle_alpha	90
_cell_angle_beta	98.019
_cell_angle_gamma	90
loop_
_atom_site_label
_atom_site_type_symbol
_atom_site_fract_x
_atom_site_fract_y
_atom_site_fract_z
_atom_site_charge
Mof_Zn	Zn	0.03224	0.86839	0.6558	1.245
Mof_O 	O 	0.87831	0.93992	0.57346	-0.371
Mof_O 	O 	0.7529	0.88346	0.67771	-0.261
Mof_O 	O 	0.80034	0.07416	0.38906	-0.405
Mof_O 	O 	0.82316	0.16056	0.5195	-0.248
Mof_C 	C 	0.6282	0.97078	0.55241	-0.019
Mof_C 	C 	0.6302	0.04428	0.48554	-0.027
Mof_C 	C 	0.4976	0.92813	0.56651	-0.006
Mof_H 	H 	0.4963	0.8792	0.6127	0.075
Mof_C 	C 	0.7615	0.92954	0.60636	0.304
Mof_C 	C 	0.7643	0.09738	0.46576	0.333
Mof_O 	O 	0.20752	0.6709	0.66424	-0.242
Mof_O 	O 	0.98353	0.72814	0.6275	-0.39
Mof_O 	O 	0.95309	0.37636	0.71149	-0.393
Mof_O 	O 	0.9607	0.54056	0.73844	-0.251
Mof_C 	C 	0.0402	0.57553	0.56367	-0.024
Mof_C 	C 	0.0576	0.58931	0.47342	-0.01
Mof_H 	H 	0.0973	0.6504	0.4552	0.082
Mof_C 	C 	0.9824	0.48514	0.59029	-0.02
Mof_C 	C 	0.0823	0.66294	0.62596	0.323
Mof_C 	C 	0.9642	0.46679	0.68687	0.306
Mof_Zn	Zn	0.96776	0.36839	0.8442	1.244
Mof_O 	O 	0.12169	0.43992	0.92654	-0.374
Mof_O 	O 	0.2471	0.38346	0.82229	-0.263
Mof_O 	O 	0.19966	0.57416	0.11094	-0.403
Mof_O 	O 	0.17684	0.66056	0.9805	-0.244
Mof_C 	C 	0.3718	0.47078	0.94759	-0.021
Mof_C 	C 	0.3698	0.54428	0.01446	-0.025
Mof_C 	C 	0.5024	0.42813	0.93349	-0.007
Mof_H 	H 	0.5037	0.3792	0.8873	0.075
Mof_C 	C 	0.2385	0.42954	0.89364	0.305
Mof_C 	C 	0.2357	0.59738	0.03424	0.33
Mof_O 	O 	0.79248	0.1709	0.83576	-0.241
Mof_O 	O 	0.01647	0.22814	0.8725	-0.383
Mof_O 	O 	0.04691	0.87636	0.78851	-0.389
Mof_O 	O 	0.0393	0.04056	0.76156	-0.237
Mof_C 	C 	0.9598	0.07553	0.93633	-0.031
Mof_C 	C 	0.9424	0.08931	0.02658	-0.008
Mof_H 	H 	0.9027	0.1504	0.0448	0.082
Mof_C 	C 	0.0176	0.98514	0.90971	-0.018
Mof_C 	C 	0.9177	0.16294	0.87404	0.317
Mof_C 	C 	0.0358	0.96679	0.81313	0.292
Mof_Zn	Zn	0.96776	0.13161	0.3442	1.244
Mof_O 	O 	0.12169	0.06008	0.42654	-0.372
Mof_O 	O 	0.2471	0.11654	0.32229	-0.262
Mof_O 	O 	0.19966	0.92584	0.61094	-0.406
Mof_O 	O 	0.17684	0.83944	0.4805	-0.248
Mof_C 	C 	0.3718	0.02922	0.44759	-0.019
Mof_C 	C 	0.3698	0.95572	0.51446	-0.027
Mof_C 	C 	0.5024	0.07187	0.43349	-0.006
Mof_H 	H 	0.5037	0.1208	0.3873	0.075
Mof_C 	C 	0.2385	0.07046	0.39364	0.304
Mof_C 	C 	0.2357	0.90262	0.53424	0.333
Mof_O 	O 	0.79248	0.3291	0.33576	-0.242
Mof_O 	O 	0.01647	0.27186	0.3725	-0.39
Mof_O 	O 	0.04691	0.62364	0.28851	-0.393
Mof_O 	O 	0.0393	0.45944	0.26156	-0.251
Mof_C 	C 	0.9598	0.42447	0.43633	-0.024
Mof_C 	C 	0.9424	0.41069	0.52658	-0.01
Mof_H 	H 	0.9027	0.3496	0.5448	0.082
Mof_C 	C 	0.0176	0.51486	0.40971	-0.02
Mof_C 	C 	0.9177	0.33706	0.37404	0.323
Mof_C 	C 	0.0358	0.53321	0.31313	0.306
Mof_Zn	Zn	0.03224	0.63161	0.1558	1.244
Mof_O 	O 	0.87831	0.56008	0.07346	-0.374
Mof_O 	O 	0.7529	0.61654	0.17771	-0.263
Mof_O 	O 	0.80034	0.42584	0.88906	-0.403
Mof_O 	O 	0.82316	0.33944	0.0195	-0.244
Mof_C 	C 	0.6282	0.52922	0.05241	-0.021
Mof_C 	C 	0.6302	0.45572	0.98554	-0.025
Mof_C 	C 	0.4976	0.57187	0.06651	-0.007
Mof_H 	H 	0.4963	0.6208	0.1127	0.075
Mof_C 	C 	0.7615	0.57046	0.10636	0.305
Mof_C 	C 	0.7643	0.40262	0.96576	0.33
Mof_O 	O 	0.20752	0.8291	0.16424	-0.241
Mof_O 	O 	0.98353	0.77186	0.1275	-0.383
Mof_O 	O 	0.95309	0.12364	0.21149	-0.389
Mof_O 	O 	0.9607	0.95944	0.23844	-0.237
Mof_C 	C 	0.0402	0.92447	0.06367	-0.031
Mof_C 	C 	0.0576	0.91069	0.97342	-0.008
Mof_H 	H 	0.0973	0.8496	0.9552	0.082
Mof_C 	C 	0.9824	0.01486	0.09029	-0.018
Mof_C 	C 	0.0823	0.83706	0.12596	0.317
Mof_C 	C 	0.9642	0.03321	0.18687	0.292
_end
