data_functionalizedCrystal
_audit_creation_method	'EQeq! by Chris Wilmer'
_symmetry_space_group_name_H-M	'P1'
_symmetry_Int_Tables_number	1
_symmetry_cell_setting	triclinic
loop_
_symmetry_equiv_pos_as_xyz
  x,y,z
_cell_length_a	11.2219
_cell_length_b	13.2435
_cell_length_c	17.6351
_cell_angle_alpha	82.365
_cell_angle_beta	72.787
_cell_angle_gamma	68.608
loop_
_atom_site_label
_atom_site_type_symbol
_atom_site_fract_x
_atom_site_fract_y
_atom_site_fract_z
_atom_site_charge
Mof_La	La	0.04367	0.12706	0.36521	1.805
Mof_La	La	0.3933	0.67765	0.01042	1.755
Mof_Mo	Mo	0.3453	0.27567	0.62344	0.927
Mof_Mo	Mo	0.82546	0.79801	0.25516	0.93
Mof_Mo	Mo	0.81114	0.59592	0.24847	0.935
Mof_S 	S 	0.11218	0.35051	0.65908	-0.423
Mof_S 	S 	0.39411	0.11155	0.68994	-0.428
Mof_S 	S 	0.41256	0.36252	0.6979	-0.414
Mof_S 	S 	0.7966	0.73039	0.15095	-0.428
Mof_O 	O 	0.3354	0.2003	0.5258	-0.356
Mof_O 	O 	0.3428	0.39727	0.53135	-0.344
Mof_O 	O 	0.4499	0.1194	0.41069	-0.291
Mof_O 	O 	0.4612	0.4477	0.41732	-0.263
Mof_O 	O 	0.8438	0.1717	0.47788	-0.473
Mof_O 	O 	0.887	0.0593	0.5791	-0.525
Mof_N 	N 	0.5624	0.2196	0.54662	-0.059
Mof_C 	C 	0.5739	0.136	0.49306	-0.282
Mof_H 	H 	0.6427	0.1374	0.4429	0.136
Mof_H 	H 	0.6033	0.0634	0.5187	0.119
Mof_C 	C 	0.4444	0.1537	0.47398	0.38
Mof_C 	C 	0.5802	0.3175	0.49872	-0.295
Mof_H 	H 	0.6104	0.3574	0.5285	0.147
Mof_H 	H 	0.6502	0.2941	0.4485	0.151
Mof_C 	C 	0.4534	0.3928	0.47966	0.383
Mof_C 	C 	0.6637	0.1717	0.59282	-0.299
Mof_H 	H 	0.6527	0.2272	0.6292	0.115
Mof_H 	H 	0.6438	0.1105	0.6261	0.085
Mof_C 	C 	0.8097	0.1306	0.54467	0.493
Mof_O 	O 	0.0326	0.75889	0.1915	-0.401
Mof_O 	O 	0.8894	0.87829	0.32276	-0.384
Mof_O 	O 	0.1776	0.8013	0.08773	-0.505
Mof_O 	O 	0.8885	0.0346	0.3544	-0.437
Mof_O 	O 	0.8098	0.1499	0.0857	-0.333
Mof_O 	O 	0.6271	0.1517	0.0652	-0.523
Mof_N 	N 	0.8331	0.9555	0.18174	-0.066
Mof_C 	C 	0.9628	0.929	0.1215	-0.325
Mof_H 	H 	0.9991	0.9873	0.12	0.115
Mof_H 	H 	0.9478	0.9293	0.0688	0.129
Mof_C 	C 	0.0655	0.8222	0.13397	0.466
Mof_C 	C 	0.82	0.0339	0.2396	-0.281
Mof_H 	H 	0.7251	0.0788	0.259	0.12
Mof_H 	H 	0.8692	0.0829	0.2121	0.106
Mof_C 	C 	0.8716	0.9792	0.3096	0.4
Mof_C 	C 	0.7256	0.0047	0.1414	-0.253
Mof_H 	H 	0.6395	0.0186	0.1822	0.1
Mof_H 	H 	0.7323	0.9507	0.1052	0.092
Mof_C 	C 	0.7228	0.1105	0.0934	0.423
Mof_O 	O 	0.8515	0.44112	0.30773	-0.377
Mof_O 	O 	0.015	0.51643	0.19042	-0.369
Mof_O 	O 	0.8539	0.27115	0.3129	-0.446
Mof_O 	O 	0.1576	0.4377	0.08019	-0.319
Mof_O 	O 	0.5875	0.5151	0.03062	-0.613
Mof_O 	O 	0.7626	0.37699	0.04636	-0.422
Mof_N 	N 	0.802	0.4849	0.16178	-0.064
Mof_C 	C 	0.7786	0.3887	0.2097	-0.305
Mof_H 	H 	0.8203	0.3248	0.1754	0.126
Mof_H 	H 	0.6819	0.4023	0.2277	0.12
Mof_C 	C 	0.8335	0.3629	0.28152	0.424
Mof_C 	C 	0.9331	0.4539	0.1005	-0.284
Mof_H 	H 	0.9223	0.4981	0.0515	0.126
Mof_H 	H 	0.9595	0.3769	0.0876	0.126
Mof_C 	C 	0.0443	0.4684	0.12525	0.367
Mof_C 	C 	0.6936	0.5385	0.12169	-0.261
Mof_H 	H 	0.706	0.6056	0.0941	0.085
Mof_H 	H 	0.6077	0.5604	0.163	0.073
Mof_C 	C 	0.6842	0.4709	0.06206	0.406
Mof_O 	O 	0.0019	0.3272	0.4008	0.082
Mof_O 	O 	0.9309	0.7035	0.612	-0.399
Mof_La	La	0.95633	0.87294	0.63479	1.805
Mof_La	La	0.6067	0.32235	0.98958	1.755
Mof_Mo	Mo	0.6547	0.72433	0.37656	0.927
Mof_Mo	Mo	0.17454	0.20199	0.74484	0.93
Mof_Mo	Mo	0.18886	0.40408	0.75153	0.935
Mof_S 	S 	0.88782	0.64949	0.34092	-0.423
Mof_S 	S 	0.60589	0.88845	0.31006	-0.428
Mof_S 	S 	0.58744	0.63748	0.3021	-0.414
Mof_S 	S 	0.2034	0.26961	0.84905	-0.428
Mof_O 	O 	0.6646	0.7997	0.4742	-0.356
Mof_O 	O 	0.6572	0.60273	0.46865	-0.344
Mof_O 	O 	0.5501	0.8806	0.58931	-0.291
Mof_O 	O 	0.5388	0.5523	0.58268	-0.263
Mof_O 	O 	0.1562	0.8283	0.52212	-0.473
Mof_O 	O 	0.113	0.9407	0.4209	-0.525
Mof_N 	N 	0.4376	0.7804	0.45338	-0.059
Mof_C 	C 	0.4261	0.864	0.50694	-0.282
Mof_H 	H 	0.3573	0.8626	0.5571	0.136
Mof_H 	H 	0.3967	0.9366	0.4813	0.119
Mof_C 	C 	0.5556	0.8463	0.52602	0.38
Mof_C 	C 	0.4198	0.6825	0.50128	-0.295
Mof_H 	H 	0.3896	0.6426	0.4715	0.147
Mof_H 	H 	0.3498	0.7059	0.5515	0.151
Mof_C 	C 	0.5466	0.6072	0.52034	0.383
Mof_C 	C 	0.3363	0.8283	0.40718	-0.299
Mof_H 	H 	0.3473	0.7728	0.3708	0.115
Mof_H 	H 	0.3562	0.8895	0.3739	0.085
Mof_C 	C 	0.1903	0.8694	0.45533	0.493
Mof_O 	O 	0.9674	0.24111	0.8085	-0.401
Mof_O 	O 	0.1106	0.12171	0.67724	-0.384
Mof_O 	O 	0.8224	0.1987	0.91227	-0.505
Mof_O 	O 	0.1115	0.9654	0.6456	-0.437
Mof_O 	O 	0.1902	0.8501	0.9143	-0.333
Mof_O 	O 	0.3729	0.8483	0.9348	-0.523
Mof_N 	N 	0.1669	0.0445	0.81826	-0.066
Mof_C 	C 	0.0372	0.071	0.8785	-0.325
Mof_H 	H 	0.0009	0.0127	0.88	0.115
Mof_H 	H 	0.0522	0.0707	0.9312	0.129
Mof_C 	C 	0.9345	0.1778	0.86603	0.466
Mof_C 	C 	0.18	0.9661	0.7604	-0.281
Mof_H 	H 	0.2749	0.9212	0.741	0.12
Mof_H 	H 	0.1308	0.9171	0.7879	0.106
Mof_C 	C 	0.1284	0.0208	0.6904	0.4
Mof_C 	C 	0.2744	0.9953	0.8586	-0.253
Mof_H 	H 	0.3605	0.9814	0.8178	0.1
Mof_H 	H 	0.2677	0.0493	0.8948	0.092
Mof_C 	C 	0.2772	0.8895	0.9066	0.423
Mof_O 	O 	0.1485	0.55888	0.69227	-0.377
Mof_O 	O 	0.985	0.48357	0.80958	-0.369
Mof_O 	O 	0.1461	0.72885	0.6871	-0.446
Mof_O 	O 	0.8424	0.5623	0.91981	-0.319
Mof_O 	O 	0.4125	0.4849	0.96938	-0.613
Mof_O 	O 	0.2374	0.62301	0.95364	-0.422
Mof_N 	N 	0.198	0.5151	0.83822	-0.064
Mof_C 	C 	0.2214	0.6113	0.7903	-0.305
Mof_H 	H 	0.1797	0.6752	0.8246	0.126
Mof_H 	H 	0.3181	0.5977	0.7723	0.12
Mof_C 	C 	0.1665	0.6371	0.71848	0.424
Mof_C 	C 	0.0669	0.5461	0.8995	-0.284
Mof_H 	H 	0.0777	0.5019	0.9485	0.126
Mof_H 	H 	0.0405	0.6231	0.9124	0.126
Mof_C 	C 	0.9557	0.5316	0.87475	0.367
Mof_C 	C 	0.3064	0.4615	0.87831	-0.261
Mof_H 	H 	0.294	0.3944	0.9059	0.085
Mof_H 	H 	0.3923	0.4396	0.837	0.073
Mof_C 	C 	0.3158	0.5291	0.93794	0.406
Mof_O 	O 	0.9981	0.6728	0.5992	0.082
Mof_O 	O 	0.0691	0.2965	0.388	-0.399
_end
