data_functionalizedCrystal
_audit_creation_method	'EQeq! by Chris Wilmer'
_symmetry_space_group_name_H-M	'P1'
_symmetry_Int_Tables_number	1
_symmetry_cell_setting	triclinic
loop_
_symmetry_equiv_pos_as_xyz
  x,y,z
_cell_length_a	29.6688
_cell_length_b	29.6688
_cell_length_c	72.7125
_cell_angle_alpha	90
_cell_angle_beta	90
_cell_angle_gamma	120
loop_
_atom_site_label
_atom_site_type_symbol
_atom_site_fract_x
_atom_site_fract_y
_atom_site_fract_z
_atom_site_charge
Mof_C 	C 	0.4117	0.5828	0.33361	-0.106
Mof_C 	C 	0.4614	0.6089	0.3411	0.083
Mof_C 	C 	0.4781	0.5828	0.3526	-0.138
Mof_C 	C 	0.4451	0.5304	0.3566	0.21
Mof_C 	C 	0.3954	0.5043	0.3491	-0.079
Mof_C 	C 	0.3787	0.5305	0.3376	0.072
Mof_C 	C 	0.3928	0.6116	0.3207	0.283
Mof_C 	C 	0.5818	0.41	0.41834	-0.098
Mof_C 	C 	0.6084	0.4596	0.4108	0.084
Mof_C 	C 	0.5823	0.4771	0.3996	-0.123
Mof_C 	C 	0.5296	0.4449	0.396	0.201
Mof_C 	C 	0.503	0.3953	0.4035	-0.074
Mof_C 	C 	0.5291	0.3778	0.4147	0.077
Mof_C 	C 	0.3557	0.4465	0.3534	0.027
Mof_C 	C 	0.8299	0.9163	0.1653	-0.111
Mof_C 	C 	0.8299	0.9234	0.1842	0.08
Mof_C 	C 	0.7831	0.9051	0.1935	-0.121
Mof_C 	C 	0.7363	0.8798	0.184	0.164
Mof_C 	C 	0.7362	0.8726	0.1651	-0.057
Mof_C 	C 	0.783	0.8909	0.1557	0.067
Mof_C 	C 	0.376	0.4151	0.3488	0.023
Mof_C 	C 	0.4931	0.7489	0.2509	-0.117
Mof_C 	C 	0.5445	0.7725	0.2568	0.082
Mof_C 	C 	0.5848	0.7963	0.2442	-0.119
Mof_C 	C 	0.5738	0.7967	0.2256	0.174
Mof_C 	C 	0.5224	0.7731	0.2197	-0.068
Mof_C 	C 	0.482	0.7492	0.2324	0.073
Mof_C 	C 	0.309	0.435	0.3443	-0.005
Mof_C 	C 	0.343	0.4406	0.3721	0.01
Mof_C 	C 	0.5291	0.6158	0.359	0.109
Mof_C 	C 	0.6126	0.3923	0.4308	0.291
Mof_C 	C 	0.4437	0.3602	0.3989	0.018
Mof_C 	C 	0.4237	0.3114	0.4077	0.003
Mof_C 	C 	0.4378	0.3536	0.3799	0.036
Mof_C 	C 	0.4165	0.3846	0.4043	0.015
Mof_C 	C 	0.6163	0.5283	0.3934	0.119
Mof_C 	C 	0.6076	0.6317	0.3733	0.063
Mof_C 	C 	0.6391	0.6924	0.3722	-0.013
Mof_C 	C 	0.6858	0.722	0.3834	0.008
Mof_C 	C 	0.7039	0.6925	0.3937	0.01
Mof_C 	C 	0.6918	0.6387	0.3873	0.008
Mof_C 	C 	0.6361	0.6064	0.3755	0.027
Mof_C 	C 	0.8813	0.9364	0.1546	0.299
Mof_C 	C 	0.6844	0.8429	0.1539	0.012
Mof_C 	C 	0.6433	0.851	0.158	0.028
Mof_C 	C 	0.664	0.789	0.1544	0.045
Mof_C 	C 	0.696	0.856	0.135	0.003
Mof_C 	C 	0.7883	0.9133	0.2127	0.077
Mof_C 	C 	0.4469	0.722	0.2643	0.327
Mof_C 	C 	0.504	0.7703	0.1993	0.018
Mof_C 	C 	0.509	0.819	0.1946	0.007
Mof_C 	C 	0.45	0.7333	0.1974	-0
Mof_C 	C 	0.5303	0.756	0.1866	0.035
Mof_C 	C 	0.6352	0.8176	0.2521	0.085
Mof_C 	C 	0.765	0.8722	0.2427	0.038
Mof_C 	C 	0.82	0.8801	0.2496	-0.005
Mof_C 	C 	0.8205	0.8491	0.2657	0.01
Mof_C 	C 	0.78	0.8363	0.2791	-0
Mof_C 	C 	0.727	0.8309	0.2739	-0.004
Mof_C 	C 	0.7231	0.8293	0.2512	0.027
Mof_Cl	Cl	0.5433	0.4844	0.3443	-0.459
Mof_Cl	Cl	0.6709	0.747	0.2085	-0.409
Mof_Mn	Mn	0.5327	0.5224	0.36888	1.218
Mof_Mn	Mn	0.6821	0.825	0.21518	1.129
Mof_N 	N 	0.5613	0.5994	0.3648	-0.216
Mof_N 	N 	0.6016	0.5537	0.3819	-0.207
Mof_N 	N 	0.7568	0.8726	0.2241	-0.22
Mof_N 	N 	0.6734	0.8145	0.2432	-0.21
Mof_O 	O 	0.4253	0.6608	0.3147	-0.456
Mof_O 	O 	0.3413	0.5837	0.316	-0.454
Mof_O 	O 	0.459	0.4999	0.3687	-0.429
Mof_O 	O 	0.6588	0.424	0.4373	-0.464
Mof_O 	O 	0.5808	0.3403	0.4325	-0.455
Mof_O 	O 	0.5002	0.4614	0.3837	-0.385
Mof_O 	O 	0.9294	0.9596	0.1623	-0.443
Mof_O 	O 	0.8793	0.9307	0.1361	-0.442
Mof_O 	O 	0.6859	0.8599	0.193	-0.356
Mof_O 	O 	0.4543	0.7247	0.2822	-0.484
Mof_O 	O 	0.4013	0.6963	0.2558	-0.478
Mof_O 	O 	0.6169	0.8215	0.2124	-0.337
Mof_Zn	Zn	0.40473	0.69958	0.30052	1.218
Mof_Zn	Zn	0.92915	0.96542	0.11603	1.209
Mof_C 	C 	0.8691	0.6725	0.5359	0.144
Mof_C 	C 	0.5123	0.5338	0.3868	-0.503
Mof_C 	C 	0.8178	0.6809	0.5317	-0.212
Mof_C 	C 	0.48	0.4961	0.382	0.371
Mof_C 	C 	0.07837	0.91613	0.66694	-0.107
Mof_C 	C 	0.12807	0.94223	0.67443	0.083
Mof_C 	C 	0.14477	0.91613	0.68593	-0.139
Mof_C 	C 	0.11177	0.86373	0.68993	0.209
Mof_C 	C 	0.06207	0.83763	0.68243	-0.079
Mof_C 	C 	0.04537	0.86383	0.67093	0.071
Mof_C 	C 	0.05947	0.94493	0.65403	0.283
Mof_C 	C 	0.24847	0.74333	0.75167	-0.099
Mof_C 	C 	0.27507	0.79293	0.74413	0.084
Mof_C 	C 	0.24897	0.81043	0.73293	-0.124
Mof_C 	C 	0.19627	0.77823	0.72933	0.201
Mof_C 	C 	0.16967	0.72863	0.73683	-0.075
Mof_C 	C 	0.19577	0.71113	0.74803	0.076
Mof_C 	C 	0.02237	0.77983	0.68673	0.024
Mof_C 	C 	0.49657	0.24963	0.49863	-0.112
Mof_C 	C 	0.49657	0.25673	0.51753	0.078
Mof_C 	C 	0.44977	0.23843	0.52683	-0.121
Mof_C 	C 	0.40297	0.21313	0.51733	0.163
Mof_C 	C 	0.40287	0.20593	0.49843	-0.057
Mof_C 	C 	0.44967	0.22423	0.48903	0.067
Mof_C 	C 	0.04267	0.74843	0.68213	0.023
Mof_C 	C 	0.15977	0.08223	0.58423	-0.118
Mof_C 	C 	0.21117	0.10583	0.59013	0.082
Mof_C 	C 	0.25147	0.12963	0.57753	-0.119
Mof_C 	C 	0.24047	0.13003	0.55893	0.174
Mof_C 	C 	0.18907	0.10643	0.55303	-0.068
Mof_C 	C 	0.14867	0.08253	0.56573	0.073
Mof_C 	C 	0.97567	0.76833	0.67763	-0.003
Mof_C 	C 	0.00967	0.77393	0.70543	0.009
Mof_C 	C 	0.19577	0.94913	0.69233	0.111
Mof_C 	C 	0.27927	0.72563	0.76413	0.291
Mof_C 	C 	0.11037	0.69353	0.73223	0.018
Mof_C 	C 	0.09037	0.64473	0.74103	0.002
Mof_C 	C 	0.10447	0.68693	0.71323	0.035
Mof_C 	C 	0.08317	0.71793	0.73763	0.015
Mof_C 	C 	0.28297	0.86163	0.72673	0.119
Mof_C 	C 	0.27427	0.96503	0.70663	0.067
Mof_C 	C 	0.30577	0.02573	0.70553	-0.017
Mof_C 	C 	0.35247	0.05533	0.71673	0.009
Mof_C 	C 	0.37057	0.02583	0.72703	0.006
Mof_C 	C 	0.35847	0.97203	0.72063	0.012
Mof_C 	C 	0.30277	0.93973	0.70883	0.026
Mof_C 	C 	0.54797	0.26973	0.48793	0.299
Mof_C 	C 	0.35107	0.17623	0.48723	0.012
Mof_C 	C 	0.30997	0.18433	0.49133	0.027
Mof_C 	C 	0.33067	0.12233	0.48773	0.044
Mof_C 	C 	0.36267	0.18933	0.46833	0.002
Mof_C 	C 	0.45497	0.24663	0.54603	0.076
Mof_C 	C 	0.11357	0.05533	0.59763	0.327
Mof_C 	C 	0.17067	0.10363	0.53263	0.019
Mof_C 	C 	0.17567	0.15233	0.52793	0.006
Mof_C 	C 	0.11667	0.06663	0.53073	-0.002
Mof_C 	C 	0.19697	0.08933	0.51993	0.034
Mof_C 	C 	0.30187	0.15093	0.58543	0.084
Mof_C 	C 	0.43167	0.20553	0.57603	0.038
Mof_C 	C 	0.48667	0.21343	0.58293	-0.006
Mof_C 	C 	0.48717	0.18243	0.59903	0.009
Mof_C 	C 	0.44667	0.16963	0.61243	-0
Mof_C 	C 	0.39367	0.16423	0.60723	-0.004
Mof_C 	C 	0.38977	0.16263	0.58453	0.027
Mof_Cl	Cl	0.20997	0.81773	0.67763	-0.459
Mof_Cl	Cl	0.33757	0.08033	0.54183	-0.41
Mof_Mn	Mn	0.19937	0.85573	0.70221	1.218
Mof_Mn	Mn	0.34877	0.15833	0.54851	1.129
Mof_N 	N 	0.22797	0.93273	0.69813	-0.216
Mof_N 	N 	0.26827	0.88703	0.71523	-0.207
Mof_N 	N 	0.42347	0.20593	0.55743	-0.22
Mof_N 	N 	0.34007	0.14783	0.57653	-0.21
Mof_O 	O 	0.09197	0.99413	0.64803	-0.454
Mof_O 	O 	0.00797	0.91703	0.64933	-0.454
Mof_O 	O 	0.12567	0.83323	0.70203	-0.429
Mof_O 	O 	0.32547	0.75733	0.77063	-0.464
Mof_O 	O 	0.24747	0.67363	0.76583	-0.455
Mof_O 	O 	0.16687	0.79473	0.71703	-0.385
Mof_O 	O 	0.59607	0.29293	0.49563	-0.445
Mof_O 	O 	0.54597	0.26403	0.46943	-0.443
Mof_O 	O 	0.35257	0.19323	0.52633	-0.356
Mof_O 	O 	0.12097	0.05803	0.61553	-0.485
Mof_O 	O 	0.06797	0.02963	0.58913	-0.479
Mof_O 	O 	0.28357	0.15483	0.54573	-0.337
Mof_Zn	Zn	0.0714	0.03291	0.63385	1.217
Mof_Zn	Zn	0.59582	0.29875	0.44936	1.208
Mof_C 	C 	0.53577	0.00583	0.86923	0.137
Mof_C 	C 	0.17897	0.86713	0.72013	-0.502
Mof_C 	C 	0.48447	0.01423	0.86503	-0.217
Mof_C 	C 	0.14667	0.82943	0.71533	0.371
Mof_C 	C 	0.74503	0.24947	0.00028	-0.107
Mof_C 	C 	0.79473	0.27557	0.00777	0.082
Mof_C 	C 	0.81143	0.24947	0.01927	-0.139
Mof_C 	C 	0.77843	0.19707	0.02327	0.209
Mof_C 	C 	0.72873	0.17097	0.01577	-0.08
Mof_C 	C 	0.71203	0.19717	0.00427	0.071
Mof_C 	C 	0.72613	0.27827	0.98737	0.282
Mof_C 	C 	0.91513	0.07667	0.08501	-0.099
Mof_C 	C 	0.94173	0.12627	0.07747	0.084
Mof_C 	C 	0.91563	0.14377	0.06627	-0.125
Mof_C 	C 	0.86293	0.11157	0.06267	0.201
Mof_C 	C 	0.83633	0.06197	0.07017	-0.075
Mof_C 	C 	0.86243	0.04447	0.08137	0.075
Mof_C 	C 	0.68903	0.11317	0.02007	0.026
Mof_C 	C 	0.16323	0.58297	0.83197	-0.112
Mof_C 	C 	0.16323	0.59007	0.85087	0.078
Mof_C 	C 	0.11643	0.57177	0.86017	-0.121
Mof_C 	C 	0.06963	0.54647	0.85067	0.164
Mof_C 	C 	0.06953	0.53927	0.83177	-0.057
Mof_C 	C 	0.11633	0.55757	0.82237	0.067
Mof_C 	C 	0.70933	0.08177	0.01547	0.023
Mof_C 	C 	0.82643	0.41557	0.91757	-0.118
Mof_C 	C 	0.87783	0.43917	0.92347	0.082
Mof_C 	C 	0.91813	0.46297	0.91087	-0.119
Mof_C 	C 	0.90713	0.46337	0.89227	0.175
Mof_C 	C 	0.85573	0.43977	0.88637	-0.068
Mof_C 	C 	0.81533	0.41587	0.89907	0.074
Mof_C 	C 	0.64233	0.10167	0.01097	-0.006
Mof_C 	C 	0.67633	0.10727	0.03877	0.009
Mof_C 	C 	0.86243	0.28247	0.02567	0.109
Mof_C 	C 	0.94593	0.05897	0.09747	0.291
Mof_C 	C 	0.77703	0.02687	0.06557	0.016
Mof_C 	C 	0.75703	0.97807	0.07437	0.005
Mof_C 	C 	0.77113	0.02027	0.04657	0.035
Mof_C 	C 	0.74983	0.05127	0.07097	0.015
Mof_C 	C 	0.94963	0.19497	0.06007	0.12
Mof_C 	C 	0.94093	0.29837	0.03997	0.062
Mof_C 	C 	0.97243	0.35907	0.03887	-0.01
Mof_C 	C 	0.01913	0.38867	0.05007	0.004
Mof_C 	C 	0.03723	0.35917	0.06037	0.01
Mof_C 	C 	0.02513	0.30537	0.05397	0.005
Mof_C 	C 	0.96943	0.27307	0.04217	0.029
Mof_C 	C 	0.21463	0.60307	0.82127	0.299
Mof_C 	C 	0.01773	0.50957	0.82057	0.009
Mof_C 	C 	0.97663	0.51767	0.82467	0.03
Mof_C 	C 	0.99733	0.45567	0.82107	0.047
Mof_C 	C 	0.02933	0.52267	0.80167	0.002
Mof_C 	C 	0.12163	0.57997	0.87937	0.076
Mof_C 	C 	0.78023	0.38867	0.93097	0.327
Mof_C 	C 	0.83733	0.43697	0.86597	0.018
Mof_C 	C 	0.84233	0.48567	0.86127	0.007
Mof_C 	C 	0.78333	0.39997	0.86407	-0
Mof_C 	C 	0.86363	0.42267	0.85327	0.035
Mof_C 	C 	0.96853	0.48427	0.91877	0.087
Mof_C 	C 	0.09833	0.53887	0.90937	0.038
Mof_C 	C 	0.15333	0.54677	0.91627	-0.006
Mof_C 	C 	0.15383	0.51577	0.93237	0.009
Mof_C 	C 	0.11333	0.50297	0.94577	-0
Mof_C 	C 	0.06033	0.49757	0.94057	-0.005
Mof_C 	C 	0.05643	0.49597	0.91787	0.027
Mof_Cl	Cl	0.87663	0.15107	0.01097	-0.459
Mof_Cl	Cl	0.00423	0.41367	0.87517	-0.411
Mof_Mn	Mn	0.86603	0.18907	0.03555	1.218
Mof_Mn	Mn	0.01543	0.49167	0.88185	1.125
Mof_N 	N 	0.89463	0.26607	0.03147	-0.215
Mof_N 	N 	0.93493	0.22037	0.04857	-0.207
Mof_N 	N 	0.09013	0.53927	0.89077	-0.22
Mof_N 	N 	0.00673	0.48117	0.90987	-0.211
Mof_O 	O 	0.75863	0.32747	0.98137	-0.456
Mof_O 	O 	0.67463	0.25037	0.98267	-0.454
Mof_O 	O 	0.79233	0.16657	0.03537	-0.429
Mof_O 	O 	0.99213	0.09067	0.10397	-0.462
Mof_O 	O 	0.91413	0.00697	0.09917	-0.455
Mof_O 	O 	0.83353	0.12807	0.05037	-0.385
Mof_O 	O 	0.26273	0.62627	0.82897	-0.445
Mof_O 	O 	0.21263	0.59737	0.80277	-0.443
Mof_O 	O 	0.01923	0.52657	0.85967	-0.36
Mof_O 	O 	0.78763	0.39137	0.94887	-0.484
Mof_O 	O 	0.73463	0.36297	0.92247	-0.478
Mof_O 	O 	0.95023	0.48817	0.87907	-0.337
Mof_Zn	Zn	0.73806	0.36625	0.96719	1.218
Mof_Zn	Zn	0.26248	0.63209	0.7827	1.208
Mof_C 	C 	0.20243	0.33917	0.20257	0.143
Mof_C 	C 	0.84563	0.20047	0.05347	-0.503
Mof_C 	C 	0.15113	0.34757	0.19837	-0.212
Mof_C 	C 	0.81333	0.16277	0.04867	0.371
Mof_C 	C 	0.4172	0.8289	0.33361	-0.107
Mof_C 	C 	0.3911	0.8525	0.3411	0.082
Mof_C 	C 	0.4172	0.8953	0.3526	-0.139
Mof_C 	C 	0.4696	0.9147	0.3566	0.209
Mof_C 	C 	0.4957	0.8911	0.3491	-0.08
Mof_C 	C 	0.4695	0.8482	0.3376	0.072
Mof_C 	C 	0.3884	0.7812	0.3207	0.282
Mof_C 	C 	0.59	0.1718	0.41834	-0.099
Mof_C 	C 	0.5404	0.1488	0.4108	0.083
Mof_C 	C 	0.5229	0.1052	0.3996	-0.124
Mof_C 	C 	0.5551	0.0847	0.396	0.201
Mof_C 	C 	0.6047	0.1077	0.4035	-0.075
Mof_C 	C 	0.6222	0.1513	0.4147	0.076
Mof_C 	C 	0.5535	0.9092	0.3534	0.025
Mof_C 	C 	0.0837	0.9136	0.1653	-0.112
Mof_C 	C 	0.0766	0.9065	0.1842	0.077
Mof_C 	C 	0.0949	0.878	0.1935	-0.121
Mof_C 	C 	0.1202	0.8565	0.184	0.163
Mof_C 	C 	0.1274	0.8636	0.1651	-0.057
Mof_C 	C 	0.1091	0.8921	0.1557	0.067
Mof_C 	C 	0.5849	0.9609	0.3488	0.025
Mof_C 	C 	0.2511	0.7442	0.2509	-0.117
Mof_C 	C 	0.2275	0.772	0.2568	0.082
Mof_C 	C 	0.2037	0.7885	0.2442	-0.119
Mof_C 	C 	0.2033	0.7771	0.2256	0.174
Mof_C 	C 	0.2269	0.7493	0.2197	-0.068
Mof_C 	C 	0.2508	0.7328	0.2324	0.073
Mof_C 	C 	0.565	0.874	0.3443	-0.005
Mof_C 	C 	0.5594	0.9024	0.3721	0.01
Mof_C 	C 	0.3842	0.9133	0.359	0.109
Mof_C 	C 	0.6077	0.2203	0.4308	0.291
Mof_C 	C 	0.6398	0.0835	0.3989	0.018
Mof_C 	C 	0.6886	0.1123	0.4077	0.002
Mof_C 	C 	0.6464	0.0842	0.3799	0.035
Mof_C 	C 	0.6154	0.0319	0.4043	0.014
Mof_C 	C 	0.4717	0.088	0.3934	0.118
Mof_C 	C 	0.3683	0.9759	0.3733	0.066
Mof_C 	C 	0.3076	0.9467	0.3722	-0.014
Mof_C 	C 	0.278	0.9638	0.3834	0.01
Mof_C 	C 	0.3075	0.0114	0.3937	0.007
Mof_C 	C 	0.3613	0.0531	0.3873	0.008
Mof_C 	C 	0.3936	0.0297	0.3755	0.025
Mof_C 	C 	0.0636	0.9449	0.1546	0.299
Mof_C 	C 	0.1571	0.8415	0.1539	0.012
Mof_C 	C 	0.149	0.7923	0.158	0.027
Mof_C 	C 	0.211	0.875	0.1544	0.045
Mof_C 	C 	0.144	0.84	0.135	0.002
Mof_C 	C 	0.0867	0.875	0.2127	0.076
Mof_C 	C 	0.278	0.7249	0.2643	0.327
Mof_C 	C 	0.2297	0.7337	0.1993	0.018
Mof_C 	C 	0.181	0.69	0.1946	0.007
Mof_C 	C 	0.2667	0.7167	0.1974	-0
Mof_C 	C 	0.244	0.7743	0.1866	0.035
Mof_C 	C 	0.1824	0.8176	0.2521	0.084
Mof_C 	C 	0.1278	0.8928	0.2427	0.037
Mof_C 	C 	0.1199	0.9399	0.2496	-0.006
Mof_C 	C 	0.1509	0.9714	0.2657	0.01
Mof_C 	C 	0.1637	0.9437	0.2791	-0
Mof_C 	C 	0.1691	0.8961	0.2739	-0.004
Mof_C 	C 	0.1707	0.8938	0.2512	0.027
Mof_Cl	Cl	0.5156	0.0589	0.3443	-0.459
Mof_Cl	Cl	0.253	0.9239	0.2085	-0.409
Mof_Mn	Mn	0.4776	0.0103	0.36888	1.214
Mof_Mn	Mn	0.175	0.8571	0.21518	1.129
Mof_N 	N 	0.4006	0.9619	0.3648	-0.215
Mof_N 	N 	0.4463	0.0479	0.3819	-0.207
Mof_N 	N 	0.1274	0.8842	0.2241	-0.22
Mof_N 	N 	0.1855	0.8589	0.2432	-0.21
Mof_O 	O 	0.3392	0.7645	0.3147	-0.456
Mof_O 	O 	0.4163	0.7576	0.316	-0.454
Mof_O 	O 	0.5001	0.9591	0.3687	-0.428
Mof_O 	O 	0.576	0.2348	0.4373	-0.464
Mof_O 	O 	0.6597	0.2405	0.4325	-0.455
Mof_O 	O 	0.5386	0.0388	0.3837	-0.386
Mof_O 	O 	0.0404	0.9698	0.1623	-0.445
Mof_O 	O 	0.0693	0.9486	0.1361	-0.443
Mof_O 	O 	0.1401	0.826	0.193	-0.356
Mof_O 	O 	0.2753	0.7296	0.2822	-0.484
Mof_O 	O 	0.3037	0.705	0.2558	-0.478
Mof_O 	O 	0.1785	0.7954	0.2124	-0.337
Mof_Zn	Zn	0.30042	0.70515	0.30052	1.218
Mof_Zn	Zn	0.03458	0.96373	0.11603	1.208
Mof_C 	C 	0.3275	0.1966	0.5359	0.143
Mof_C 	C 	0.4662	0.9785	0.3868	-0.501
Mof_C 	C 	0.3191	0.1369	0.5317	-0.212
Mof_C 	C 	0.5039	0.9839	0.382	0.373
Mof_C 	C 	0.08387	0.16223	0.66694	-0.107
Mof_C 	C 	0.05777	0.18583	0.67443	0.081
Mof_C 	C 	0.08387	0.22863	0.68593	-0.138
Mof_C 	C 	0.13627	0.24803	0.68993	0.208
Mof_C 	C 	0.16237	0.22443	0.68243	-0.08
Mof_C 	C 	0.13617	0.18153	0.67093	0.071
Mof_C 	C 	0.05507	0.11453	0.65403	0.282
Mof_C 	C 	0.25667	0.50513	0.75167	-0.099
Mof_C 	C 	0.20707	0.48213	0.74413	0.083
Mof_C 	C 	0.18957	0.43853	0.73293	-0.124
Mof_C 	C 	0.22177	0.41803	0.72933	0.2
Mof_C 	C 	0.27137	0.44103	0.73683	-0.075
Mof_C 	C 	0.28887	0.48463	0.74803	0.076
Mof_C 	C 	0.22017	0.24253	0.68673	0.026
Mof_C 	C 	0.75037	0.24693	0.49863	-0.112
Mof_C 	C 	0.74327	0.23983	0.51753	0.078
Mof_C 	C 	0.76157	0.21133	0.52683	-0.121
Mof_C 	C 	0.78687	0.18983	0.51733	0.163
Mof_C 	C 	0.79407	0.19693	0.49843	-0.057
Mof_C 	C 	0.77577	0.22543	0.48903	0.067
Mof_C 	C 	0.25157	0.29423	0.68213	0.023
Mof_C 	C 	0.91777	0.07753	0.58423	-0.117
Mof_C 	C 	0.89417	0.10533	0.59013	0.082
Mof_C 	C 	0.87037	0.12183	0.57753	-0.119
Mof_C 	C 	0.86997	0.11043	0.55893	0.174
Mof_C 	C 	0.89357	0.08263	0.55303	-0.068
Mof_C 	C 	0.91747	0.06613	0.56573	0.073
Mof_C 	C 	0.23167	0.20733	0.67763	-0.006
Mof_C 	C 	0.22607	0.23573	0.70543	0.009
Mof_C 	C 	0.05087	0.24663	0.69233	0.108
Mof_C 	C 	0.27437	0.55363	0.76413	0.291
Mof_C 	C 	0.30647	0.41683	0.73223	0.018
Mof_C 	C 	0.35527	0.44563	0.74103	0.003
Mof_C 	C 	0.31307	0.41753	0.71323	0.036
Mof_C 	C 	0.28207	0.36523	0.73763	0.015
Mof_C 	C 	0.13837	0.42133	0.72673	0.119
Mof_C 	C 	0.03497	0.30923	0.70663	0.061
Mof_C 	C 	0.97427	0.28003	0.70553	-0.011
Mof_C 	C 	0.94467	0.29713	0.71673	0.007
Mof_C 	C 	0.97417	0.34473	0.72703	0.012
Mof_C 	C 	0.02797	0.38643	0.72063	0.006
Mof_C 	C 	0.06027	0.36303	0.70883	0.027
Mof_C 	C 	0.73027	0.27823	0.48793	0.299
Mof_C 	C 	0.82377	0.17483	0.48723	0.012
Mof_C 	C 	0.81567	0.12563	0.49133	0.027
Mof_C 	C 	0.87767	0.20833	0.48773	0.046
Mof_C 	C 	0.81067	0.17333	0.46833	0.003
Mof_C 	C 	0.75337	0.20833	0.54603	0.076
Mof_C 	C 	0.94467	0.05823	0.59763	0.327
Mof_C 	C 	0.89637	0.06703	0.53263	0.018
Mof_C 	C 	0.84767	0.02333	0.52793	0.006
Mof_C 	C 	0.93337	0.05003	0.53073	-0
Mof_C 	C 	0.91067	0.10763	0.51993	0.036
Mof_C 	C 	0.84907	0.15093	0.58543	0.084
Mof_C 	C 	0.79447	0.22613	0.57603	0.038
Mof_C 	C 	0.78657	0.27323	0.58293	-0.006
Mof_C 	C 	0.81757	0.30473	0.59903	0.009
Mof_C 	C 	0.83037	0.27703	0.61243	-0
Mof_C 	C 	0.83577	0.22943	0.60723	-0.004
Mof_C 	C 	0.83737	0.22713	0.58453	0.027
Mof_Cl	Cl	0.18227	0.39223	0.67763	-0.459
Mof_Cl	Cl	0.91967	0.25723	0.54183	-0.408
Mof_Mn	Mn	0.14427	0.34363	0.70221	1.218
Mof_Mn	Mn	0.84167	0.19043	0.54851	1.129
Mof_N 	N 	0.06727	0.29523	0.69813	-0.215
Mof_N 	N 	0.11297	0.38123	0.71523	-0.207
Mof_N 	N 	0.79407	0.21753	0.55743	-0.22
Mof_N 	N 	0.85217	0.19223	0.57653	-0.21
Mof_O 	O 	0.00587	0.09783	0.64803	-0.457
Mof_O 	O 	0.08297	0.09093	0.64933	-0.455
Mof_O 	O 	0.16677	0.29243	0.70203	-0.429
Mof_O 	O 	0.24267	0.56813	0.77063	-0.464
Mof_O 	O 	0.32637	0.57383	0.76583	-0.455
Mof_O 	O 	0.20527	0.37213	0.71703	-0.385
Mof_O 	O 	0.70707	0.30313	0.49563	-0.445
Mof_O 	O 	0.73597	0.28193	0.46943	-0.443
Mof_O 	O 	0.80677	0.15933	0.52633	-0.356
Mof_O 	O 	0.94197	0.06293	0.61553	-0.484
Mof_O 	O 	0.97037	0.03833	0.58913	-0.478
Mof_O 	O 	0.84517	0.12873	0.54573	-0.337
Mof_Zn	Zn	0.96709	0.03848	0.63385	1.218
Mof_Zn	Zn	0.70125	0.29706	0.44936	1.208
Mof_C 	C 	0.99417	0.52993	0.86923	0.148
Mof_C 	C 	0.13287	0.31183	0.72013	-0.503
Mof_C 	C 	0.98577	0.47023	0.86503	-0.208
Mof_C 	C 	0.17057	0.31723	0.71533	0.371
Mof_C 	C 	0.75053	0.49557	0.00028	-0.107
Mof_C 	C 	0.72443	0.51917	0.00777	0.082
Mof_C 	C 	0.75053	0.56197	0.01927	-0.139
Mof_C 	C 	0.80293	0.58137	0.02327	0.209
Mof_C 	C 	0.82903	0.55777	0.01577	-0.08
Mof_C 	C 	0.80283	0.51487	0.00427	0.072
Mof_C 	C 	0.72173	0.44787	0.98737	0.282
Mof_C 	C 	0.92333	0.83847	0.08501	-0.099
Mof_C 	C 	0.87373	0.81547	0.07747	0.084
Mof_C 	C 	0.85623	0.77187	0.06627	-0.125
Mof_C 	C 	0.88843	0.75137	0.06267	0.201
Mof_C 	C 	0.93803	0.77437	0.07017	-0.075
Mof_C 	C 	0.95553	0.81797	0.08137	0.077
Mof_C 	C 	0.88683	0.57587	0.02007	0.026
Mof_C 	C 	0.41703	0.58027	0.83197	-0.112
Mof_C 	C 	0.40993	0.57317	0.85087	0.078
Mof_C 	C 	0.42823	0.54467	0.86017	-0.121
Mof_C 	C 	0.45353	0.52317	0.85067	0.164
Mof_C 	C 	0.46073	0.53027	0.83177	-0.057
Mof_C 	C 	0.44243	0.55877	0.82237	0.067
Mof_C 	C 	0.91823	0.62757	0.01547	0.024
Mof_C 	C 	0.58443	0.41087	0.91757	-0.117
Mof_C 	C 	0.56083	0.43867	0.92347	0.082
Mof_C 	C 	0.53703	0.45517	0.91087	-0.119
Mof_C 	C 	0.53663	0.44377	0.89227	0.174
Mof_C 	C 	0.56023	0.41597	0.88637	-0.068
Mof_C 	C 	0.58413	0.39947	0.89907	0.073
Mof_C 	C 	0.89833	0.54067	0.01097	-0.005
Mof_C 	C 	0.89273	0.56907	0.03877	0.01
Mof_C 	C 	0.71753	0.57997	0.02567	0.109
Mof_C 	C 	0.94103	0.88697	0.09747	0.292
Mof_C 	C 	0.97313	0.75017	0.06557	0.02
Mof_C 	C 	0.02193	0.77897	0.07437	-0
Mof_C 	C 	0.97973	0.75087	0.04657	0.036
Mof_C 	C 	0.94873	0.69857	0.07097	0.016
Mof_C 	C 	0.80503	0.75467	0.06007	0.119
Mof_C 	C 	0.70163	0.64257	0.03997	0.063
Mof_C 	C 	0.64093	0.61337	0.03887	-0.013
Mof_C 	C 	0.61133	0.63047	0.05007	0.008
Mof_C 	C 	0.64083	0.67807	0.06037	0.01
Mof_C 	C 	0.69463	0.71977	0.05397	0.008
Mof_C 	C 	0.72693	0.69637	0.04217	0.027
Mof_C 	C 	0.39693	0.61157	0.82127	0.299
Mof_C 	C 	0.49043	0.50817	0.82057	0.012
Mof_C 	C 	0.48233	0.45897	0.82467	0.027
Mof_C 	C 	0.54433	0.54167	0.82107	0.045
Mof_C 	C 	0.47733	0.50667	0.80167	0.003
Mof_C 	C 	0.42003	0.54167	0.87937	0.076
Mof_C 	C 	0.61133	0.39157	0.93097	0.327
Mof_C 	C 	0.56303	0.40037	0.86597	0.018
Mof_C 	C 	0.51433	0.35667	0.86127	0.007
Mof_C 	C 	0.60003	0.38337	0.86407	-0
Mof_C 	C 	0.57733	0.44097	0.85327	0.035
Mof_C 	C 	0.51573	0.48427	0.91877	0.085
Mof_C 	C 	0.46113	0.55947	0.90937	0.038
Mof_C 	C 	0.45323	0.60657	0.91627	-0.006
Mof_C 	C 	0.48423	0.63807	0.93237	0.009
Mof_C 	C 	0.49703	0.61037	0.94577	-0
Mof_C 	C 	0.50243	0.56277	0.94057	-0.004
Mof_C 	C 	0.50403	0.56047	0.91787	0.027
Mof_Cl	Cl	0.84893	0.72557	0.01097	-0.458
Mof_Cl	Cl	0.58633	0.59057	0.87517	-0.409
Mof_Mn	Mn	0.81093	0.67697	0.03555	1.218
Mof_Mn	Mn	0.50833	0.52377	0.88185	1.129
Mof_N 	N 	0.73393	0.62857	0.03147	-0.216
Mof_N 	N 	0.77963	0.71457	0.04857	-0.207
Mof_N 	N 	0.46073	0.55087	0.89077	-0.22
Mof_N 	N 	0.51883	0.52557	0.90987	-0.21
Mof_O 	O 	0.67253	0.43117	0.98137	-0.456
Mof_O 	O 	0.74963	0.42427	0.98267	-0.454
Mof_O 	O 	0.83343	0.62577	0.03537	-0.429
Mof_O 	O 	0.90933	0.90147	0.10397	-0.463
Mof_O 	O 	0.99303	0.90717	0.09917	-0.453
Mof_O 	O 	0.87193	0.70547	0.05037	-0.385
Mof_O 	O 	0.37373	0.63647	0.82897	-0.445
Mof_O 	O 	0.40263	0.61527	0.80277	-0.443
Mof_O 	O 	0.47343	0.49267	0.85967	-0.356
Mof_O 	O 	0.60863	0.39627	0.94887	-0.484
Mof_O 	O 	0.63703	0.37167	0.92247	-0.478
Mof_O 	O 	0.51183	0.46207	0.87907	-0.337
Mof_Zn	Zn	0.63375	0.37182	0.96719	1.218
Mof_Zn	Zn	0.36791	0.6304	0.7827	1.208
Mof_C 	C 	0.66083	0.86327	0.20257	0.144
Mof_C 	C 	0.79953	0.64517	0.05347	-0.503
Mof_C 	C 	0.65243	0.80357	0.19837	-0.212
Mof_C 	C 	0.83723	0.65057	0.04867	0.371
Mof_C 	C 	0.1711	0.5883	0.33361	-0.107
Mof_C 	C 	0.1475	0.5386	0.3411	0.082
Mof_C 	C 	0.1047	0.5219	0.3526	-0.139
Mof_C 	C 	0.0853	0.5549	0.3566	0.208
Mof_C 	C 	0.1089	0.6046	0.3491	-0.08
Mof_C 	C 	0.1518	0.6213	0.3376	0.071
Mof_C 	C 	0.2188	0.6072	0.3207	0.282
Mof_C 	C 	0.8282	0.4182	0.41834	-0.099
Mof_C 	C 	0.8512	0.3916	0.4108	0.083
Mof_C 	C 	0.8948	0.4177	0.3996	-0.124
Mof_C 	C 	0.9153	0.4704	0.396	0.2
Mof_C 	C 	0.8923	0.497	0.4035	-0.074
Mof_C 	C 	0.8487	0.4709	0.4147	0.076
Mof_C 	C 	0.0908	0.6443	0.3534	0.027
Mof_C 	C 	0.0864	0.1701	0.1653	-0.112
Mof_C 	C 	0.0935	0.1701	0.1842	0.077
Mof_C 	C 	0.122	0.2169	0.1935	-0.121
Mof_C 	C 	0.1435	0.2637	0.184	0.163
Mof_C 	C 	0.1364	0.2638	0.1651	-0.057
Mof_C 	C 	0.1079	0.217	0.1557	0.066
Mof_C 	C 	0.0391	0.624	0.3488	0.021
Mof_C 	C 	0.2558	0.5069	0.2509	-0.117
Mof_C 	C 	0.228	0.4555	0.2568	0.082
Mof_C 	C 	0.2115	0.4152	0.2442	-0.119
Mof_C 	C 	0.2229	0.4262	0.2256	0.174
Mof_C 	C 	0.2507	0.4776	0.2197	-0.068
Mof_C 	C 	0.2672	0.518	0.2324	0.073
Mof_C 	C 	0.126	0.691	0.3443	-0.006
Mof_C 	C 	0.0976	0.657	0.3721	0.009
Mof_C 	C 	0.0867	0.4709	0.359	0.108
Mof_C 	C 	0.7797	0.3874	0.4308	0.291
Mof_C 	C 	0.9165	0.5563	0.3989	0.017
Mof_C 	C 	0.8877	0.5763	0.4077	0.003
Mof_C 	C 	0.9158	0.5622	0.3799	0.037
Mof_C 	C 	0.9681	0.5835	0.4043	0.017
Mof_C 	C 	0.912	0.3837	0.3934	0.119
Mof_C 	C 	0.0241	0.3924	0.3733	0.059
Mof_C 	C 	0.0533	0.3609	0.3722	-0.012
Mof_C 	C 	0.0362	0.3142	0.3834	0.003
Mof_C 	C 	0.9886	0.2961	0.3937	0.014
Mof_C 	C 	0.9469	0.3082	0.3873	0.007
Mof_C 	C 	0.9703	0.3639	0.3755	0.031
Mof_C 	C 	0.0551	0.1187	0.1546	0.298
Mof_C 	C 	0.1585	0.3156	0.1539	0.012
Mof_C 	C 	0.2077	0.3567	0.158	0.027
Mof_C 	C 	0.125	0.336	0.1544	0.044
Mof_C 	C 	0.16	0.304	0.135	0.002
Mof_C 	C 	0.125	0.2117	0.2127	0.076
Mof_C 	C 	0.2751	0.5531	0.2643	0.327
Mof_C 	C 	0.2663	0.496	0.1993	0.018
Mof_C 	C 	0.31	0.491	0.1946	0.007
Mof_C 	C 	0.2833	0.55	0.1974	-0
Mof_C 	C 	0.2257	0.4697	0.1866	0.035
Mof_C 	C 	0.1824	0.3648	0.2521	0.084
Mof_C 	C 	0.1072	0.235	0.2427	0.038
Mof_C 	C 	0.0601	0.18	0.2496	-0.006
Mof_C 	C 	0.0286	0.1795	0.2657	0.008
Mof_C 	C 	0.0563	0.22	0.2791	-0.001
Mof_C 	C 	0.1039	0.273	0.2739	-0.004
Mof_C 	C 	0.1062	0.2769	0.2512	0.027
Mof_Cl	Cl	0.9411	0.4567	0.3443	-0.459
Mof_Cl	Cl	0.0761	0.3291	0.2085	-0.41
Mof_Mn	Mn	0.9897	0.4673	0.36888	1.225
Mof_Mn	Mn	0.1429	0.3179	0.21518	1.129
Mof_N 	N 	0.0381	0.4387	0.3648	-0.216
Mof_N 	N 	0.9521	0.3984	0.3819	-0.207
Mof_N 	N 	0.1158	0.2432	0.2241	-0.22
Mof_N 	N 	0.1411	0.3266	0.2432	-0.21
Mof_O 	O 	0.2355	0.5747	0.3147	-0.456
Mof_O 	O 	0.2424	0.6587	0.316	-0.454
Mof_O 	O 	0.0409	0.541	0.3687	-0.429
Mof_O 	O 	0.7652	0.3412	0.4373	-0.464
Mof_O 	O 	0.7595	0.4192	0.4325	-0.455
Mof_O 	O 	0.9612	0.4998	0.3837	-0.384
Mof_O 	O 	0.0302	0.0706	0.1623	-0.446
Mof_O 	O 	0.0514	0.1207	0.1361	-0.444
Mof_O 	O 	0.174	0.3141	0.193	-0.356
Mof_O 	O 	0.2704	0.5457	0.2822	-0.484
Mof_O 	O 	0.295	0.5987	0.2558	-0.478
Mof_O 	O 	0.2046	0.3831	0.2124	-0.337
Mof_Zn	Zn	0.29485	0.59527	0.30052	1.218
Mof_Zn	Zn	0.03627	0.07085	0.11603	1.207
Mof_C 	C 	0.8034	0.1309	0.5359	0.143
Mof_C 	C 	0.0215	0.4877	0.3868	-0.506
Mof_C 	C 	0.8631	0.1822	0.5317	-0.212
Mof_C 	C 	0.0161	0.52	0.382	0.368
Mof_C 	C 	0.83777	0.92163	0.66694	-0.107
Mof_C 	C 	0.81417	0.87193	0.67443	0.083
Mof_C 	C 	0.77137	0.85523	0.68593	-0.139
Mof_C 	C 	0.75197	0.88823	0.68993	0.209
Mof_C 	C 	0.77557	0.93793	0.68243	-0.08
Mof_C 	C 	0.81847	0.95463	0.67093	0.073
Mof_C 	C 	0.88547	0.94053	0.65403	0.283
Mof_C 	C 	0.49487	0.75153	0.75167	-0.099
Mof_C 	C 	0.51787	0.72493	0.74413	0.083
Mof_C 	C 	0.56147	0.75103	0.73293	-0.124
Mof_C 	C 	0.58197	0.80373	0.72933	0.2
Mof_C 	C 	0.55897	0.83033	0.73683	-0.075
Mof_C 	C 	0.51537	0.80423	0.74803	0.076
Mof_C 	C 	0.75747	0.97763	0.68673	0.029
Mof_C 	C 	0.75307	0.50343	0.49863	-0.112
Mof_C 	C 	0.76017	0.50343	0.51753	0.078
Mof_C 	C 	0.78867	0.55023	0.52683	-0.121
Mof_C 	C 	0.81017	0.59703	0.51733	0.164
Mof_C 	C 	0.80307	0.59713	0.49843	-0.057
Mof_C 	C 	0.77457	0.55033	0.48903	0.067
Mof_C 	C 	0.70577	0.95733	0.68213	0.024
Mof_C 	C 	0.92247	0.84023	0.58423	-0.117
Mof_C 	C 	0.89467	0.78883	0.59013	0.082
Mof_C 	C 	0.87817	0.74853	0.57753	-0.119
Mof_C 	C 	0.88957	0.75953	0.55893	0.174
Mof_C 	C 	0.91737	0.81093	0.55303	-0.068
Mof_C 	C 	0.93387	0.85133	0.56573	0.074
Mof_C 	C 	0.79267	0.02433	0.67763	-0.009
Mof_C 	C 	0.76427	0.99033	0.70543	0.011
Mof_C 	C 	0.75337	0.80423	0.69233	0.109
Mof_C 	C 	0.44637	0.72073	0.76413	0.291
Mof_C 	C 	0.58317	0.88963	0.73223	0.017
Mof_C 	C 	0.55437	0.90963	0.74103	0.004
Mof_C 	C 	0.58247	0.89553	0.71323	0.036
Mof_C 	C 	0.63477	0.91683	0.73763	0.016
Mof_C 	C 	0.57867	0.71703	0.72673	0.119
Mof_C 	C 	0.69077	0.72573	0.70663	0.063
Mof_C 	C 	0.71997	0.69423	0.70553	-0.013
Mof_C 	C 	0.70287	0.64753	0.71673	0.008
Mof_C 	C 	0.65527	0.62943	0.72703	0.01
Mof_C 	C 	0.61357	0.64153	0.72063	0.008
Mof_C 	C 	0.63697	0.69723	0.70883	0.027
Mof_C 	C 	0.72177	0.45203	0.48793	0.299
Mof_C 	C 	0.82517	0.64893	0.48723	0.012
Mof_C 	C 	0.87437	0.69003	0.49133	0.028
Mof_C 	C 	0.79167	0.66933	0.48773	0.045
Mof_C 	C 	0.82667	0.63733	0.46833	0.003
Mof_C 	C 	0.79167	0.54503	0.54603	0.077
Mof_C 	C 	0.94177	0.88643	0.59763	0.327
Mof_C 	C 	0.93297	0.82933	0.53263	0.017
Mof_C 	C 	0.97667	0.82433	0.52793	0.009
Mof_C 	C 	0.94997	0.88333	0.53073	0.002
Mof_C 	C 	0.89237	0.80303	0.51993	0.036
Mof_C 	C 	0.84907	0.69813	0.58543	0.085
Mof_C 	C 	0.77387	0.56833	0.57603	0.038
Mof_C 	C 	0.72677	0.51333	0.58293	-0.006
Mof_C 	C 	0.69527	0.51283	0.59903	0.009
Mof_C 	C 	0.72297	0.55333	0.61243	-0
Mof_C 	C 	0.77057	0.60633	0.60723	-0.004
Mof_C 	C 	0.77287	0.61023	0.58453	0.027
Mof_Cl	Cl	0.60777	0.79003	0.67763	-0.459
Mof_Cl	Cl	0.74277	0.66243	0.54183	-0.409
Mof_Mn	Mn	0.65637	0.80063	0.70221	1.218
Mof_Mn	Mn	0.80957	0.65123	0.54851	1.129
Mof_N 	N 	0.70477	0.77203	0.69813	-0.216
Mof_N 	N 	0.61877	0.73173	0.71523	-0.207
Mof_N 	N 	0.78247	0.57653	0.55743	-0.22
Mof_N 	N 	0.80777	0.65993	0.57653	-0.21
Mof_O 	O 	0.90217	0.90803	0.64803	-0.455
Mof_O 	O 	0.90907	0.99203	0.64933	-0.452
Mof_O 	O 	0.70757	0.87433	0.70203	-0.429
Mof_O 	O 	0.43187	0.67453	0.77063	-0.464
Mof_O 	O 	0.42617	0.75253	0.76583	-0.455
Mof_O 	O 	0.62787	0.83313	0.71703	-0.385
Mof_O 	O 	0.69687	0.40393	0.49563	-0.445
Mof_O 	O 	0.71807	0.45403	0.46943	-0.443
Mof_O 	O 	0.84067	0.64743	0.52633	-0.356
Mof_O 	O 	0.93707	0.87903	0.61553	-0.483
Mof_O 	O 	0.96167	0.93203	0.58913	-0.476
Mof_O 	O 	0.87127	0.71643	0.54573	-0.337
Mof_Zn	Zn	0.96152	0.9286	0.63385	1.219
Mof_Zn	Zn	0.70294	0.40418	0.44936	1.208
Mof_C 	C 	0.47007	0.46423	0.86923	0.144
Mof_C 	C 	0.68817	0.82103	0.72013	-0.503
Mof_C 	C 	0.52977	0.51553	0.86503	-0.211
Mof_C 	C 	0.68277	0.85333	0.71533	0.371
Mof_C 	C 	0.50443	0.25497	0.00028	-0.107
Mof_C 	C 	0.48083	0.20527	0.00777	0.082
Mof_C 	C 	0.43803	0.18857	0.01927	-0.139
Mof_C 	C 	0.41863	0.22157	0.02327	0.209
Mof_C 	C 	0.44223	0.27127	0.01577	-0.08
Mof_C 	C 	0.48513	0.28797	0.00427	0.071
Mof_C 	C 	0.55213	0.27387	0.98737	0.282
Mof_C 	C 	0.16153	0.08487	0.08501	-0.099
Mof_C 	C 	0.18453	0.05827	0.07747	0.082
Mof_C 	C 	0.22813	0.08437	0.06627	-0.124
Mof_C 	C 	0.24863	0.13707	0.06267	0.2
Mof_C 	C 	0.22563	0.16367	0.07017	-0.075
Mof_C 	C 	0.18203	0.13757	0.08137	0.076
Mof_C 	C 	0.42413	0.31097	0.02007	0.026
Mof_C 	C 	0.41973	0.83677	0.83197	-0.112
Mof_C 	C 	0.42683	0.83677	0.85087	0.078
Mof_C 	C 	0.45533	0.88357	0.86017	-0.12
Mof_C 	C 	0.47683	0.93037	0.85067	0.163
Mof_C 	C 	0.46973	0.93047	0.83177	-0.057
Mof_C 	C 	0.44123	0.88367	0.82237	0.067
Mof_C 	C 	0.37243	0.29067	0.01547	0.023
Mof_C 	C 	0.58913	0.17357	0.91757	-0.117
Mof_C 	C 	0.56133	0.12217	0.92347	0.081
Mof_C 	C 	0.54483	0.08187	0.91087	-0.118
Mof_C 	C 	0.55623	0.09287	0.89227	0.173
Mof_C 	C 	0.58403	0.14427	0.88637	-0.068
Mof_C 	C 	0.60053	0.18467	0.89907	0.073
Mof_C 	C 	0.45933	0.35767	0.01097	-0.005
Mof_C 	C 	0.43093	0.32367	0.03877	0.01
Mof_C 	C 	0.42003	0.13757	0.02567	0.109
Mof_C 	C 	0.11303	0.05407	0.09747	0.291
Mof_C 	C 	0.24983	0.22297	0.06557	0.018
Mof_C 	C 	0.22103	0.24297	0.07437	0.002
Mof_C 	C 	0.24913	0.22887	0.04657	0.035
Mof_C 	C 	0.30143	0.25017	0.07097	0.015
Mof_C 	C 	0.24533	0.05037	0.06007	0.118
Mof_C 	C 	0.35743	0.05907	0.03997	0.064
Mof_C 	C 	0.38663	0.02757	0.03887	-0.015
Mof_C 	C 	0.36953	0.98087	0.05007	0.01
Mof_C 	C 	0.32193	0.96277	0.06037	0.009
Mof_C 	C 	0.28023	0.97487	0.05397	0.01
Mof_C 	C 	0.30363	0.03057	0.04217	0.025
Mof_C 	C 	0.38843	0.78537	0.82127	0.299
Mof_C 	C 	0.49183	0.98227	0.82057	0.018
Mof_C 	C 	0.54103	0.02337	0.82467	0.023
Mof_C 	C 	0.45833	0.00267	0.82107	0.04
Mof_C 	C 	0.49333	0.97067	0.80167	0.003
Mof_C 	C 	0.45833	0.87837	0.87937	0.077
Mof_C 	C 	0.60843	0.21977	0.93097	0.327
Mof_C 	C 	0.59963	0.16267	0.86597	0.018
Mof_C 	C 	0.64333	0.15767	0.86127	0.007
Mof_C 	C 	0.61663	0.21667	0.86407	-0
Mof_C 	C 	0.55903	0.13637	0.85327	0.035
Mof_C 	C 	0.51573	0.03147	0.91877	0.082
Mof_C 	C 	0.44053	0.90167	0.90937	0.038
Mof_C 	C 	0.39343	0.84667	0.91627	-0.006
Mof_C 	C 	0.36193	0.84617	0.93237	0.009
Mof_C 	C 	0.38963	0.88667	0.94577	-0
Mof_C 	C 	0.43723	0.93967	0.94057	-0.003
Mof_C 	C 	0.43953	0.94357	0.91787	0.027
Mof_Cl	Cl	0.27443	0.12337	0.01097	-0.46
Mof_Cl	Cl	0.40943	0.99577	0.87517	-0.407
Mof_Mn	Mn	0.32303	0.13397	0.03555	1.218
Mof_Mn	Mn	0.47623	0.98457	0.88185	1.136
Mof_N 	N 	0.37143	0.10537	0.03147	-0.216
Mof_N 	N 	0.28543	0.06507	0.04857	-0.207
Mof_N 	N 	0.44913	0.90987	0.89077	-0.221
Mof_N 	N 	0.47443	0.99327	0.90987	-0.208
Mof_O 	O 	0.56883	0.24137	0.98137	-0.456
Mof_O 	O 	0.57573	0.32537	0.98267	-0.454
Mof_O 	O 	0.37423	0.20767	0.03537	-0.429
Mof_O 	O 	0.09853	0.00787	0.10397	-0.465
Mof_O 	O 	0.09283	0.08587	0.09917	-0.456
Mof_O 	O 	0.29453	0.16647	0.05037	-0.385
Mof_O 	O 	0.36353	0.73727	0.82897	-0.445
Mof_O 	O 	0.38473	0.78737	0.80277	-0.443
Mof_O 	O 	0.50733	0.98077	0.85967	-0.35
Mof_O 	O 	0.60373	0.21237	0.94887	-0.484
Mof_O 	O 	0.62833	0.26537	0.92247	-0.478
Mof_O 	O 	0.53793	0.04977	0.87907	-0.336
Mof_Zn	Zn	0.62818	0.26194	0.96719	1.218
Mof_Zn	Zn	0.3696	0.73752	0.7827	1.208
Mof_C 	C 	0.13673	0.79757	0.20257	0.143
Mof_C 	C 	0.35483	0.15437	0.05347	-0.503
Mof_C 	C 	0.19643	0.84887	0.19837	-0.212
Mof_C 	C 	0.34943	0.18667	0.04867	0.371
Mof_Zn	Zn	-7.2867e-33	-7.2867e-33	0.15177	1.201
Mof_O 	O 	-3.64335e-33	-7.2867e-33	0.1249	-0.978
Mof_Zn	Zn	0.66667	0.33333	0.4851	1.202
Mof_O 	O 	0.66667	0.33333	0.45823	-0.976
Mof_Zn	Zn	0.33333	0.66667	0.81844	1.202
Mof_O 	O 	0.33333	0.66667	0.79157	-0.976
Mof_Zn	Zn	0.33333	0.66667	0.26516	1.228
Mof_O 	O 	0.33333	0.66667	0.2908	-0.958
Mof_Zn	Zn	-2.91468e-32	-2.91468e-32	0.59849	1.227
Mof_O 	O 	-2.91468e-32	-2.91468e-32	0.62413	-0.961
Mof_Zn	Zn	0.66667	0.33333	0.93183	1.228
Mof_O 	O 	0.66667	0.33333	0.95747	-0.958
Mof_C 	C 	0.5828	0.4117	0.66639	-0.107
Mof_C 	C 	0.6089	0.4614	0.6589	0.082
Mof_C 	C 	0.5828	0.4781	0.6474	-0.139
Mof_C 	C 	0.5304	0.4451	0.6434	0.209
Mof_C 	C 	0.5043	0.3954	0.6509	-0.08
Mof_C 	C 	0.5305	0.3787	0.6624	0.071
Mof_C 	C 	0.6116	0.3928	0.6793	0.282
Mof_C 	C 	0.41	0.5818	0.58166	-0.099
Mof_C 	C 	0.4596	0.6084	0.5892	0.083
Mof_C 	C 	0.4771	0.5823	0.6004	-0.124
Mof_C 	C 	0.4449	0.5296	0.604	0.2
Mof_C 	C 	0.3953	0.503	0.5965	-0.075
Mof_C 	C 	0.3778	0.5291	0.5853	0.076
Mof_C 	C 	0.4465	0.3557	0.6466	0.026
Mof_C 	C 	0.9163	0.8299	0.8347	-0.112
Mof_C 	C 	0.9234	0.8299	0.8158	0.079
Mof_C 	C 	0.9051	0.7831	0.8065	-0.121
Mof_C 	C 	0.8798	0.7363	0.816	0.164
Mof_C 	C 	0.8726	0.7362	0.8349	-0.057
Mof_C 	C 	0.8909	0.783	0.8443	0.067
Mof_C 	C 	0.4151	0.376	0.6512	0.023
Mof_C 	C 	0.7489	0.4931	0.7491	-0.117
Mof_C 	C 	0.7725	0.5445	0.7432	0.082
Mof_C 	C 	0.7963	0.5848	0.7558	-0.119
Mof_C 	C 	0.7967	0.5738	0.7744	0.174
Mof_C 	C 	0.7731	0.5224	0.7803	-0.068
Mof_C 	C 	0.7492	0.482	0.7676	0.073
Mof_C 	C 	0.435	0.309	0.6557	-0.005
Mof_C 	C 	0.4406	0.343	0.6279	0.01
Mof_C 	C 	0.6158	0.5291	0.641	0.109
Mof_C 	C 	0.3923	0.6126	0.5692	0.291
Mof_C 	C 	0.3602	0.4437	0.6011	0.018
Mof_C 	C 	0.3114	0.4237	0.5923	0.003
Mof_C 	C 	0.3536	0.4378	0.6201	0.036
Mof_C 	C 	0.3846	0.4165	0.5957	0.015
Mof_C 	C 	0.5283	0.6163	0.6066	0.119
Mof_C 	C 	0.6317	0.6076	0.6267	0.063
Mof_C 	C 	0.6924	0.6391	0.6278	-0.013
Mof_C 	C 	0.722	0.6858	0.6166	0.008
Mof_C 	C 	0.6925	0.7039	0.6063	0.01
Mof_C 	C 	0.6387	0.6918	0.6127	0.008
Mof_C 	C 	0.6064	0.6361	0.6245	0.027
Mof_C 	C 	0.9364	0.8813	0.8454	0.299
Mof_C 	C 	0.8429	0.6844	0.8461	0.012
Mof_C 	C 	0.851	0.6433	0.842	0.028
Mof_C 	C 	0.789	0.664	0.8456	0.045
Mof_C 	C 	0.856	0.696	0.865	0.003
Mof_C 	C 	0.9133	0.7883	0.7873	0.077
Mof_C 	C 	0.722	0.4469	0.7357	0.327
Mof_C 	C 	0.7703	0.504	0.8007	0.018
Mof_C 	C 	0.819	0.509	0.8054	0.007
Mof_C 	C 	0.7333	0.45	0.8026	-0
Mof_C 	C 	0.756	0.5303	0.8134	0.035
Mof_C 	C 	0.8176	0.6352	0.7479	0.085
Mof_C 	C 	0.8722	0.765	0.7573	0.038
Mof_C 	C 	0.8801	0.82	0.7504	-0.005
Mof_C 	C 	0.8491	0.8205	0.7343	0.01
Mof_C 	C 	0.8363	0.78	0.7209	-0
Mof_C 	C 	0.8309	0.727	0.7261	-0.004
Mof_C 	C 	0.8293	0.7231	0.7488	0.027
Mof_Cl	Cl	0.4844	0.5433	0.6557	-0.459
Mof_Cl	Cl	0.747	0.6709	0.7915	-0.409
Mof_Mn	Mn	0.5224	0.5327	0.63112	1.218
Mof_Mn	Mn	0.825	0.6821	0.78482	1.129
Mof_N 	N 	0.5994	0.5613	0.6352	-0.216
Mof_N 	N 	0.5537	0.6016	0.6181	-0.207
Mof_N 	N 	0.8726	0.7568	0.7759	-0.22
Mof_N 	N 	0.8145	0.6734	0.7568	-0.21
Mof_O 	O 	0.6608	0.4253	0.6853	-0.456
Mof_O 	O 	0.5837	0.3413	0.684	-0.454
Mof_O 	O 	0.4999	0.459	0.6313	-0.429
Mof_O 	O 	0.424	0.6588	0.5627	-0.464
Mof_O 	O 	0.3403	0.5808	0.5675	-0.455
Mof_O 	O 	0.4614	0.5002	0.6163	-0.385
Mof_O 	O 	0.9596	0.9294	0.8377	-0.443
Mof_O 	O 	0.9307	0.8793	0.8639	-0.442
Mof_O 	O 	0.8599	0.6859	0.807	-0.356
Mof_O 	O 	0.7247	0.4543	0.7178	-0.484
Mof_O 	O 	0.6963	0.4013	0.7442	-0.478
Mof_O 	O 	0.8215	0.6169	0.7876	-0.337
Mof_Zn	Zn	0.69958	0.40473	0.69948	1.218
Mof_Zn	Zn	0.96542	0.92915	0.88397	1.209
Mof_C 	C 	0.6725	0.8691	0.4641	0.144
Mof_C 	C 	0.5338	0.5123	0.6132	-0.503
Mof_C 	C 	0.6809	0.8178	0.4683	-0.212
Mof_C 	C 	0.4961	0.48	0.618	0.371
Mof_C 	C 	0.24947	0.74503	0.99972	-0.107
Mof_C 	C 	0.27557	0.79473	0.99223	0.082
Mof_C 	C 	0.24947	0.81143	0.98073	-0.139
Mof_C 	C 	0.19707	0.77843	0.97673	0.209
Mof_C 	C 	0.17097	0.72873	0.98423	-0.08
Mof_C 	C 	0.19717	0.71203	0.99573	0.071
Mof_C 	C 	0.27827	0.72613	0.01263	0.282
Mof_C 	C 	0.07667	0.91513	0.91499	-0.099
Mof_C 	C 	0.12627	0.94173	0.92253	0.084
Mof_C 	C 	0.14377	0.91563	0.93373	-0.125
Mof_C 	C 	0.11157	0.86293	0.93733	0.201
Mof_C 	C 	0.06197	0.83633	0.92983	-0.075
Mof_C 	C 	0.04447	0.86243	0.91863	0.075
Mof_C 	C 	0.11317	0.68903	0.97993	0.026
Mof_C 	C 	0.58297	0.16323	0.16803	-0.112
Mof_C 	C 	0.59007	0.16323	0.14913	0.078
Mof_C 	C 	0.57177	0.11643	0.13983	-0.121
Mof_C 	C 	0.54647	0.06963	0.14933	0.164
Mof_C 	C 	0.53927	0.06953	0.16823	-0.057
Mof_C 	C 	0.55757	0.11633	0.17763	0.067
Mof_C 	C 	0.08177	0.70933	0.98453	0.023
Mof_C 	C 	0.41557	0.82643	0.08243	-0.118
Mof_C 	C 	0.43917	0.87783	0.07653	0.082
Mof_C 	C 	0.46297	0.91813	0.08913	-0.119
Mof_C 	C 	0.46337	0.90713	0.10773	0.175
Mof_C 	C 	0.43977	0.85573	0.11363	-0.068
Mof_C 	C 	0.41587	0.81533	0.10093	0.074
Mof_C 	C 	0.10167	0.64233	0.98903	-0.006
Mof_C 	C 	0.10727	0.67633	0.96123	0.009
Mof_C 	C 	0.28247	0.86243	0.97433	0.109
Mof_C 	C 	0.05897	0.94593	0.90253	0.291
Mof_C 	C 	0.02687	0.77703	0.93443	0.016
Mof_C 	C 	0.97807	0.75703	0.92563	0.005
Mof_C 	C 	0.02027	0.77113	0.95343	0.035
Mof_C 	C 	0.05127	0.74983	0.92903	0.015
Mof_C 	C 	0.19497	0.94963	0.93993	0.12
Mof_C 	C 	0.29837	0.94093	0.96003	0.062
Mof_C 	C 	0.35907	0.97243	0.96113	-0.01
Mof_C 	C 	0.38867	0.01913	0.94993	0.004
Mof_C 	C 	0.35917	0.03723	0.93963	0.01
Mof_C 	C 	0.30537	0.02513	0.94603	0.005
Mof_C 	C 	0.27307	0.96943	0.95783	0.029
Mof_C 	C 	0.60307	0.21463	0.17873	0.299
Mof_C 	C 	0.50957	0.01773	0.17943	0.009
Mof_C 	C 	0.51767	0.97663	0.17533	0.03
Mof_C 	C 	0.45567	0.99733	0.17893	0.047
Mof_C 	C 	0.52267	0.02933	0.19833	0.002
Mof_C 	C 	0.57997	0.12163	0.12063	0.076
Mof_C 	C 	0.38867	0.78023	0.06903	0.327
Mof_C 	C 	0.43697	0.83733	0.13403	0.018
Mof_C 	C 	0.48567	0.84233	0.13873	0.007
Mof_C 	C 	0.39997	0.78333	0.13593	-0
Mof_C 	C 	0.42267	0.86363	0.14673	0.035
Mof_C 	C 	0.48427	0.96853	0.08123	0.087
Mof_C 	C 	0.53887	0.09833	0.09063	0.038
Mof_C 	C 	0.54677	0.15333	0.08373	-0.006
Mof_C 	C 	0.51577	0.15383	0.06763	0.009
Mof_C 	C 	0.50297	0.11333	0.05423	-0
Mof_C 	C 	0.49757	0.06033	0.05943	-0.005
Mof_C 	C 	0.49597	0.05643	0.08213	0.027
Mof_Cl	Cl	0.15107	0.87663	0.98903	-0.459
Mof_Cl	Cl	0.41367	0.00423	0.12483	-0.411
Mof_Mn	Mn	0.18907	0.86603	0.96445	1.218
Mof_Mn	Mn	0.49167	0.01543	0.11815	1.125
Mof_N 	N 	0.26607	0.89463	0.96853	-0.215
Mof_N 	N 	0.22037	0.93493	0.95143	-0.207
Mof_N 	N 	0.53927	0.09013	0.10923	-0.22
Mof_N 	N 	0.48117	0.00673	0.09013	-0.211
Mof_O 	O 	0.32747	0.75863	0.01863	-0.456
Mof_O 	O 	0.25037	0.67463	0.01733	-0.454
Mof_O 	O 	0.16657	0.79233	0.96463	-0.429
Mof_O 	O 	0.09067	0.99213	0.89603	-0.462
Mof_O 	O 	0.00697	0.91413	0.90083	-0.455
Mof_O 	O 	0.12807	0.83353	0.94963	-0.385
Mof_O 	O 	0.62627	0.26273	0.17103	-0.445
Mof_O 	O 	0.59737	0.21263	0.19723	-0.443
Mof_O 	O 	0.52657	0.01923	0.14033	-0.36
Mof_O 	O 	0.39137	0.78763	0.05113	-0.484
Mof_O 	O 	0.36297	0.73463	0.07753	-0.478
Mof_O 	O 	0.48817	0.95023	0.12093	-0.337
Mof_Zn	Zn	0.36625	0.73806	0.03281	1.218
Mof_Zn	Zn	0.63209	0.26248	0.2173	1.208
Mof_C 	C 	0.33917	0.20243	0.79743	0.143
Mof_C 	C 	0.20047	0.84563	0.94653	-0.503
Mof_C 	C 	0.34757	0.15113	0.80163	-0.212
Mof_C 	C 	0.16277	0.81333	0.95133	0.371
Mof_C 	C 	0.91613	0.07837	0.33306	-0.107
Mof_C 	C 	0.94223	0.12807	0.32557	0.083
Mof_C 	C 	0.91613	0.14477	0.31407	-0.139
Mof_C 	C 	0.86373	0.11177	0.31007	0.209
Mof_C 	C 	0.83763	0.06207	0.31757	-0.079
Mof_C 	C 	0.86383	0.04537	0.32907	0.071
Mof_C 	C 	0.94493	0.05947	0.34597	0.283
Mof_C 	C 	0.74333	0.24847	0.24833	-0.099
Mof_C 	C 	0.79293	0.27507	0.25587	0.084
Mof_C 	C 	0.81043	0.24897	0.26707	-0.124
Mof_C 	C 	0.77823	0.19627	0.27067	0.201
Mof_C 	C 	0.72863	0.16967	0.26317	-0.075
Mof_C 	C 	0.71113	0.19577	0.25197	0.076
Mof_C 	C 	0.77983	0.02237	0.31327	0.024
Mof_C 	C 	0.24963	0.49657	0.50137	-0.112
Mof_C 	C 	0.25673	0.49657	0.48247	0.078
Mof_C 	C 	0.23843	0.44977	0.47317	-0.121
Mof_C 	C 	0.21313	0.40297	0.48267	0.163
Mof_C 	C 	0.20593	0.40287	0.50157	-0.057
Mof_C 	C 	0.22423	0.44967	0.51097	0.067
Mof_C 	C 	0.74843	0.04267	0.31787	0.023
Mof_C 	C 	0.08223	0.15977	0.41577	-0.118
Mof_C 	C 	0.10583	0.21117	0.40987	0.082
Mof_C 	C 	0.12963	0.25147	0.42247	-0.119
Mof_C 	C 	0.13003	0.24047	0.44107	0.174
Mof_C 	C 	0.10643	0.18907	0.44697	-0.068
Mof_C 	C 	0.08253	0.14867	0.43427	0.073
Mof_C 	C 	0.76833	0.97567	0.32237	-0.003
Mof_C 	C 	0.77393	0.00967	0.29457	0.009
Mof_C 	C 	0.94913	0.19577	0.30767	0.111
Mof_C 	C 	0.72563	0.27927	0.23587	0.291
Mof_C 	C 	0.69353	0.11037	0.26777	0.018
Mof_C 	C 	0.64473	0.09037	0.25897	0.002
Mof_C 	C 	0.68693	0.10447	0.28677	0.035
Mof_C 	C 	0.71793	0.08317	0.26237	0.015
Mof_C 	C 	0.86163	0.28297	0.27327	0.119
Mof_C 	C 	0.96503	0.27427	0.29337	0.067
Mof_C 	C 	0.02573	0.30577	0.29447	-0.017
Mof_C 	C 	0.05533	0.35247	0.28327	0.009
Mof_C 	C 	0.02583	0.37057	0.27297	0.006
Mof_C 	C 	0.97203	0.35847	0.27937	0.012
Mof_C 	C 	0.93973	0.30277	0.29117	0.026
Mof_C 	C 	0.26973	0.54797	0.51207	0.299
Mof_C 	C 	0.17623	0.35107	0.51277	0.012
Mof_C 	C 	0.18433	0.30997	0.50867	0.027
Mof_C 	C 	0.12233	0.33067	0.51227	0.044
Mof_C 	C 	0.18933	0.36267	0.53167	0.002
Mof_C 	C 	0.24663	0.45497	0.45397	0.076
Mof_C 	C 	0.05533	0.11357	0.40237	0.327
Mof_C 	C 	0.10363	0.17067	0.46737	0.019
Mof_C 	C 	0.15233	0.17567	0.47207	0.006
Mof_C 	C 	0.06663	0.11667	0.46927	-0.002
Mof_C 	C 	0.08933	0.19697	0.48007	0.034
Mof_C 	C 	0.15093	0.30187	0.41457	0.084
Mof_C 	C 	0.20553	0.43167	0.42397	0.038
Mof_C 	C 	0.21343	0.48667	0.41707	-0.006
Mof_C 	C 	0.18243	0.48717	0.40097	0.009
Mof_C 	C 	0.16963	0.44667	0.38757	-0
Mof_C 	C 	0.16423	0.39367	0.39277	-0.004
Mof_C 	C 	0.16263	0.38977	0.41547	0.027
Mof_Cl	Cl	0.81773	0.20997	0.32237	-0.459
Mof_Cl	Cl	0.08033	0.33757	0.45817	-0.41
Mof_Mn	Mn	0.85573	0.19937	0.29779	1.218
Mof_Mn	Mn	0.15833	0.34877	0.45149	1.129
Mof_N 	N 	0.93273	0.22797	0.30187	-0.216
Mof_N 	N 	0.88703	0.26827	0.28477	-0.207
Mof_N 	N 	0.20593	0.42347	0.44257	-0.22
Mof_N 	N 	0.14783	0.34007	0.42347	-0.21
Mof_O 	O 	0.99413	0.09197	0.35197	-0.454
Mof_O 	O 	0.91703	0.00797	0.35067	-0.454
Mof_O 	O 	0.83323	0.12567	0.29797	-0.429
Mof_O 	O 	0.75733	0.32547	0.22937	-0.464
Mof_O 	O 	0.67363	0.24747	0.23417	-0.455
Mof_O 	O 	0.79473	0.16687	0.28297	-0.385
Mof_O 	O 	0.29293	0.59607	0.50437	-0.445
Mof_O 	O 	0.26403	0.54597	0.53057	-0.443
Mof_O 	O 	0.19323	0.35257	0.47367	-0.356
Mof_O 	O 	0.05803	0.12097	0.38447	-0.485
Mof_O 	O 	0.02963	0.06797	0.41087	-0.479
Mof_O 	O 	0.15483	0.28357	0.45427	-0.337
Mof_Zn	Zn	0.03291	0.0714	0.36615	1.217
Mof_Zn	Zn	0.29875	0.59582	0.55064	1.208
Mof_C 	C 	0.00583	0.53577	0.13077	0.137
Mof_C 	C 	0.86713	0.17897	0.27987	-0.502
Mof_C 	C 	0.01423	0.48447	0.13497	-0.217
Mof_C 	C 	0.82943	0.14667	0.28467	0.371
Mof_C 	C 	0.8289	0.4172	0.66639	-0.107
Mof_C 	C 	0.8525	0.3911	0.6589	0.082
Mof_C 	C 	0.8953	0.4172	0.6474	-0.139
Mof_C 	C 	0.9147	0.4696	0.6434	0.209
Mof_C 	C 	0.8911	0.4957	0.6509	-0.08
Mof_C 	C 	0.8482	0.4695	0.6624	0.072
Mof_C 	C 	0.7812	0.3884	0.6793	0.282
Mof_C 	C 	0.1718	0.59	0.58166	-0.099
Mof_C 	C 	0.1488	0.5404	0.5892	0.083
Mof_C 	C 	0.1052	0.5229	0.6004	-0.124
Mof_C 	C 	0.0847	0.5551	0.604	0.201
Mof_C 	C 	0.1077	0.6047	0.5965	-0.075
Mof_C 	C 	0.1513	0.6222	0.5853	0.076
Mof_C 	C 	0.9092	0.5535	0.6466	0.025
Mof_C 	C 	0.9136	0.0837	0.8347	-0.112
Mof_C 	C 	0.9065	0.0766	0.8158	0.077
Mof_C 	C 	0.878	0.0949	0.8065	-0.121
Mof_C 	C 	0.8565	0.1202	0.816	0.163
Mof_C 	C 	0.8636	0.1274	0.8349	-0.057
Mof_C 	C 	0.8921	0.1091	0.8443	0.067
Mof_C 	C 	0.9609	0.5849	0.6512	0.025
Mof_C 	C 	0.7442	0.2511	0.7491	-0.117
Mof_C 	C 	0.772	0.2275	0.7432	0.082
Mof_C 	C 	0.7885	0.2037	0.7558	-0.119
Mof_C 	C 	0.7771	0.2033	0.7744	0.174
Mof_C 	C 	0.7493	0.2269	0.7803	-0.068
Mof_C 	C 	0.7328	0.2508	0.7676	0.073
Mof_C 	C 	0.874	0.565	0.6557	-0.005
Mof_C 	C 	0.9024	0.5594	0.6279	0.01
Mof_C 	C 	0.9133	0.3842	0.641	0.109
Mof_C 	C 	0.2203	0.6077	0.5692	0.291
Mof_C 	C 	0.0835	0.6398	0.6011	0.018
Mof_C 	C 	0.1123	0.6886	0.5923	0.002
Mof_C 	C 	0.0842	0.6464	0.6201	0.035
Mof_C 	C 	0.0319	0.6154	0.5957	0.014
Mof_C 	C 	0.088	0.4717	0.6066	0.118
Mof_C 	C 	0.9759	0.3683	0.6267	0.066
Mof_C 	C 	0.9467	0.3076	0.6278	-0.014
Mof_C 	C 	0.9638	0.278	0.6166	0.01
Mof_C 	C 	0.0114	0.3075	0.6063	0.007
Mof_C 	C 	0.0531	0.3613	0.6127	0.008
Mof_C 	C 	0.0297	0.3936	0.6245	0.025
Mof_C 	C 	0.9449	0.0636	0.8454	0.299
Mof_C 	C 	0.8415	0.1571	0.8461	0.012
Mof_C 	C 	0.7923	0.149	0.842	0.027
Mof_C 	C 	0.875	0.211	0.8456	0.045
Mof_C 	C 	0.84	0.144	0.865	0.002
Mof_C 	C 	0.875	0.0867	0.7873	0.076
Mof_C 	C 	0.7249	0.278	0.7357	0.327
Mof_C 	C 	0.7337	0.2297	0.8007	0.018
Mof_C 	C 	0.69	0.181	0.8054	0.007
Mof_C 	C 	0.7167	0.2667	0.8026	-0
Mof_C 	C 	0.7743	0.244	0.8134	0.035
Mof_C 	C 	0.8176	0.1824	0.7479	0.084
Mof_C 	C 	0.8928	0.1278	0.7573	0.037
Mof_C 	C 	0.9399	0.1199	0.7504	-0.006
Mof_C 	C 	0.9714	0.1509	0.7343	0.01
Mof_C 	C 	0.9437	0.1637	0.7209	-0
Mof_C 	C 	0.8961	0.1691	0.7261	-0.004
Mof_C 	C 	0.8938	0.1707	0.7488	0.027
Mof_Cl	Cl	0.0589	0.5156	0.6557	-0.459
Mof_Cl	Cl	0.9239	0.253	0.7915	-0.409
Mof_Mn	Mn	0.0103	0.4776	0.63112	1.214
Mof_Mn	Mn	0.8571	0.175	0.78482	1.129
Mof_N 	N 	0.9619	0.4006	0.6352	-0.215
Mof_N 	N 	0.0479	0.4463	0.6181	-0.207
Mof_N 	N 	0.8842	0.1274	0.7759	-0.22
Mof_N 	N 	0.8589	0.1855	0.7568	-0.21
Mof_O 	O 	0.7645	0.3392	0.6853	-0.456
Mof_O 	O 	0.7576	0.4163	0.684	-0.454
Mof_O 	O 	0.9591	0.5001	0.6313	-0.428
Mof_O 	O 	0.2348	0.576	0.5627	-0.464
Mof_O 	O 	0.2405	0.6597	0.5675	-0.455
Mof_O 	O 	0.0388	0.5386	0.6163	-0.386
Mof_O 	O 	0.9698	0.0404	0.8377	-0.445
Mof_O 	O 	0.9486	0.0693	0.8639	-0.443
Mof_O 	O 	0.826	0.1401	0.807	-0.356
Mof_O 	O 	0.7296	0.2753	0.7178	-0.484
Mof_O 	O 	0.705	0.3037	0.7442	-0.478
Mof_O 	O 	0.7954	0.1785	0.7876	-0.337
Mof_Zn	Zn	0.70515	0.30042	0.69948	1.218
Mof_Zn	Zn	0.96373	0.03458	0.88397	1.208
Mof_C 	C 	0.1966	0.3275	0.4641	0.143
Mof_C 	C 	0.9785	0.4662	0.6132	-0.501
Mof_C 	C 	0.1369	0.3191	0.4683	-0.212
Mof_C 	C 	0.9839	0.5039	0.618	0.373
Mof_C 	C 	0.49557	0.75053	0.99972	-0.107
Mof_C 	C 	0.51917	0.72443	0.99223	0.082
Mof_C 	C 	0.56197	0.75053	0.98073	-0.139
Mof_C 	C 	0.58137	0.80293	0.97673	0.209
Mof_C 	C 	0.55777	0.82903	0.98423	-0.08
Mof_C 	C 	0.51487	0.80283	0.99573	0.072
Mof_C 	C 	0.44787	0.72173	0.01263	0.282
Mof_C 	C 	0.83847	0.92333	0.91499	-0.099
Mof_C 	C 	0.81547	0.87373	0.92253	0.084
Mof_C 	C 	0.77187	0.85623	0.93373	-0.125
Mof_C 	C 	0.75137	0.88843	0.93733	0.201
Mof_C 	C 	0.77437	0.93803	0.92983	-0.075
Mof_C 	C 	0.81797	0.95553	0.91863	0.077
Mof_C 	C 	0.57587	0.88683	0.97993	0.026
Mof_C 	C 	0.58027	0.41703	0.16803	-0.112
Mof_C 	C 	0.57317	0.40993	0.14913	0.078
Mof_C 	C 	0.54467	0.42823	0.13983	-0.121
Mof_C 	C 	0.52317	0.45353	0.14933	0.164
Mof_C 	C 	0.53027	0.46073	0.16823	-0.057
Mof_C 	C 	0.55877	0.44243	0.17763	0.067
Mof_C 	C 	0.62757	0.91823	0.98453	0.024
Mof_C 	C 	0.41087	0.58443	0.08243	-0.117
Mof_C 	C 	0.43867	0.56083	0.07653	0.082
Mof_C 	C 	0.45517	0.53703	0.08913	-0.119
Mof_C 	C 	0.44377	0.53663	0.10773	0.174
Mof_C 	C 	0.41597	0.56023	0.11363	-0.068
Mof_C 	C 	0.39947	0.58413	0.10093	0.073
Mof_C 	C 	0.54067	0.89833	0.98903	-0.005
Mof_C 	C 	0.56907	0.89273	0.96123	0.01
Mof_C 	C 	0.57997	0.71753	0.97433	0.109
Mof_C 	C 	0.88697	0.94103	0.90253	0.292
Mof_C 	C 	0.75017	0.97313	0.93443	0.02
Mof_C 	C 	0.77897	0.02193	0.92563	-0
Mof_C 	C 	0.75087	0.97973	0.95343	0.036
Mof_C 	C 	0.69857	0.94873	0.92903	0.016
Mof_C 	C 	0.75467	0.80503	0.93993	0.119
Mof_C 	C 	0.64257	0.70163	0.96003	0.063
Mof_C 	C 	0.61337	0.64093	0.96113	-0.013
Mof_C 	C 	0.63047	0.61133	0.94993	0.008
Mof_C 	C 	0.67807	0.64083	0.93963	0.01
Mof_C 	C 	0.71977	0.69463	0.94603	0.008
Mof_C 	C 	0.69637	0.72693	0.95783	0.027
Mof_C 	C 	0.61157	0.39693	0.17873	0.299
Mof_C 	C 	0.50817	0.49043	0.17943	0.012
Mof_C 	C 	0.45897	0.48233	0.17533	0.027
Mof_C 	C 	0.54167	0.54433	0.17893	0.045
Mof_C 	C 	0.50667	0.47733	0.19833	0.003
Mof_C 	C 	0.54167	0.42003	0.12063	0.076
Mof_C 	C 	0.39157	0.61133	0.06903	0.327
Mof_C 	C 	0.40037	0.56303	0.13403	0.018
Mof_C 	C 	0.35667	0.51433	0.13873	0.007
Mof_C 	C 	0.38337	0.60003	0.13593	-0
Mof_C 	C 	0.44097	0.57733	0.14673	0.035
Mof_C 	C 	0.48427	0.51573	0.08123	0.085
Mof_C 	C 	0.55947	0.46113	0.09063	0.038
Mof_C 	C 	0.60657	0.45323	0.08373	-0.006
Mof_C 	C 	0.63807	0.48423	0.06763	0.009
Mof_C 	C 	0.61037	0.49703	0.05423	-0
Mof_C 	C 	0.56277	0.50243	0.05943	-0.004
Mof_C 	C 	0.56047	0.50403	0.08213	0.027
Mof_Cl	Cl	0.72557	0.84893	0.98903	-0.458
Mof_Cl	Cl	0.59057	0.58633	0.12483	-0.409
Mof_Mn	Mn	0.67697	0.81093	0.96445	1.218
Mof_Mn	Mn	0.52377	0.50833	0.11815	1.129
Mof_N 	N 	0.62857	0.73393	0.96853	-0.216
Mof_N 	N 	0.71457	0.77963	0.95143	-0.207
Mof_N 	N 	0.55087	0.46073	0.10923	-0.22
Mof_N 	N 	0.52557	0.51883	0.09013	-0.21
Mof_O 	O 	0.43117	0.67253	0.01863	-0.456
Mof_O 	O 	0.42427	0.74963	0.01733	-0.454
Mof_O 	O 	0.62577	0.83343	0.96463	-0.429
Mof_O 	O 	0.90147	0.90933	0.89603	-0.463
Mof_O 	O 	0.90717	0.99303	0.90083	-0.453
Mof_O 	O 	0.70547	0.87193	0.94963	-0.385
Mof_O 	O 	0.63647	0.37373	0.17103	-0.445
Mof_O 	O 	0.61527	0.40263	0.19723	-0.443
Mof_O 	O 	0.49267	0.47343	0.14033	-0.356
Mof_O 	O 	0.39627	0.60863	0.05113	-0.484
Mof_O 	O 	0.37167	0.63703	0.07753	-0.478
Mof_O 	O 	0.46207	0.51183	0.12093	-0.337
Mof_Zn	Zn	0.37182	0.63375	0.03281	1.218
Mof_Zn	Zn	0.6304	0.36791	0.2173	1.208
Mof_C 	C 	0.86327	0.66083	0.79743	0.144
Mof_C 	C 	0.64517	0.79953	0.94653	-0.503
Mof_C 	C 	0.80357	0.65243	0.80163	-0.212
Mof_C 	C 	0.65057	0.83723	0.95133	0.371
Mof_C 	C 	0.16223	0.08387	0.33306	-0.107
Mof_C 	C 	0.18583	0.05777	0.32557	0.081
Mof_C 	C 	0.22863	0.08387	0.31407	-0.138
Mof_C 	C 	0.24803	0.13627	0.31007	0.208
Mof_C 	C 	0.22443	0.16237	0.31757	-0.08
Mof_C 	C 	0.18153	0.13617	0.32907	0.071
Mof_C 	C 	0.11453	0.05507	0.34597	0.282
Mof_C 	C 	0.50513	0.25667	0.24833	-0.099
Mof_C 	C 	0.48213	0.20707	0.25587	0.083
Mof_C 	C 	0.43853	0.18957	0.26707	-0.124
Mof_C 	C 	0.41803	0.22177	0.27067	0.2
Mof_C 	C 	0.44103	0.27137	0.26317	-0.075
Mof_C 	C 	0.48463	0.28887	0.25197	0.076
Mof_C 	C 	0.24253	0.22017	0.31327	0.026
Mof_C 	C 	0.24693	0.75037	0.50137	-0.112
Mof_C 	C 	0.23983	0.74327	0.48247	0.078
Mof_C 	C 	0.21133	0.76157	0.47317	-0.121
Mof_C 	C 	0.18983	0.78687	0.48267	0.163
Mof_C 	C 	0.19693	0.79407	0.50157	-0.057
Mof_C 	C 	0.22543	0.77577	0.51097	0.067
Mof_C 	C 	0.29423	0.25157	0.31787	0.023
Mof_C 	C 	0.07753	0.91777	0.41577	-0.117
Mof_C 	C 	0.10533	0.89417	0.40987	0.082
Mof_C 	C 	0.12183	0.87037	0.42247	-0.119
Mof_C 	C 	0.11043	0.86997	0.44107	0.174
Mof_C 	C 	0.08263	0.89357	0.44697	-0.068
Mof_C 	C 	0.06613	0.91747	0.43427	0.073
Mof_C 	C 	0.20733	0.23167	0.32237	-0.006
Mof_C 	C 	0.23573	0.22607	0.29457	0.009
Mof_C 	C 	0.24663	0.05087	0.30767	0.108
Mof_C 	C 	0.55363	0.27437	0.23587	0.291
Mof_C 	C 	0.41683	0.30647	0.26777	0.018
Mof_C 	C 	0.44563	0.35527	0.25897	0.003
Mof_C 	C 	0.41753	0.31307	0.28677	0.036
Mof_C 	C 	0.36523	0.28207	0.26237	0.015
Mof_C 	C 	0.42133	0.13837	0.27327	0.119
Mof_C 	C 	0.30923	0.03497	0.29337	0.061
Mof_C 	C 	0.28003	0.97427	0.29447	-0.011
Mof_C 	C 	0.29713	0.94467	0.28327	0.007
Mof_C 	C 	0.34473	0.97417	0.27297	0.012
Mof_C 	C 	0.38643	0.02797	0.27937	0.006
Mof_C 	C 	0.36303	0.06027	0.29117	0.027
Mof_C 	C 	0.27823	0.73027	0.51207	0.299
Mof_C 	C 	0.17483	0.82377	0.51277	0.012
Mof_C 	C 	0.12563	0.81567	0.50867	0.027
Mof_C 	C 	0.20833	0.87767	0.51227	0.046
Mof_C 	C 	0.17333	0.81067	0.53167	0.003
Mof_C 	C 	0.20833	0.75337	0.45397	0.076
Mof_C 	C 	0.05823	0.94467	0.40237	0.327
Mof_C 	C 	0.06703	0.89637	0.46737	0.018
Mof_C 	C 	0.02333	0.84767	0.47207	0.006
Mof_C 	C 	0.05003	0.93337	0.46927	-0
Mof_C 	C 	0.10763	0.91067	0.48007	0.036
Mof_C 	C 	0.15093	0.84907	0.41457	0.084
Mof_C 	C 	0.22613	0.79447	0.42397	0.038
Mof_C 	C 	0.27323	0.78657	0.41707	-0.006
Mof_C 	C 	0.30473	0.81757	0.40097	0.009
Mof_C 	C 	0.27703	0.83037	0.38757	-0
Mof_C 	C 	0.22943	0.83577	0.39277	-0.004
Mof_C 	C 	0.22713	0.83737	0.41547	0.027
Mof_Cl	Cl	0.39223	0.18227	0.32237	-0.459
Mof_Cl	Cl	0.25723	0.91967	0.45817	-0.408
Mof_Mn	Mn	0.34363	0.14427	0.29779	1.218
Mof_Mn	Mn	0.19043	0.84167	0.45149	1.129
Mof_N 	N 	0.29523	0.06727	0.30187	-0.215
Mof_N 	N 	0.38123	0.11297	0.28477	-0.207
Mof_N 	N 	0.21753	0.79407	0.44257	-0.22
Mof_N 	N 	0.19223	0.85217	0.42347	-0.21
Mof_O 	O 	0.09783	0.00587	0.35197	-0.457
Mof_O 	O 	0.09093	0.08297	0.35067	-0.455
Mof_O 	O 	0.29243	0.16677	0.29797	-0.429
Mof_O 	O 	0.56813	0.24267	0.22937	-0.464
Mof_O 	O 	0.57383	0.32637	0.23417	-0.455
Mof_O 	O 	0.37213	0.20527	0.28297	-0.385
Mof_O 	O 	0.30313	0.70707	0.50437	-0.445
Mof_O 	O 	0.28193	0.73597	0.53057	-0.443
Mof_O 	O 	0.15933	0.80677	0.47367	-0.356
Mof_O 	O 	0.06293	0.94197	0.38447	-0.484
Mof_O 	O 	0.03833	0.97037	0.41087	-0.478
Mof_O 	O 	0.12873	0.84517	0.45427	-0.337
Mof_Zn	Zn	0.03848	0.96709	0.36615	1.218
Mof_Zn	Zn	0.29706	0.70125	0.55064	1.208
Mof_C 	C 	0.52993	0.99417	0.13077	0.148
Mof_C 	C 	0.31183	0.13287	0.27987	-0.503
Mof_C 	C 	0.47023	0.98577	0.13497	-0.208
Mof_C 	C 	0.31723	0.17057	0.28467	0.371
Mof_C 	C 	0.5883	0.1711	0.66639	-0.107
Mof_C 	C 	0.5386	0.1475	0.6589	0.082
Mof_C 	C 	0.5219	0.1047	0.6474	-0.139
Mof_C 	C 	0.5549	0.0853	0.6434	0.208
Mof_C 	C 	0.6046	0.1089	0.6509	-0.08
Mof_C 	C 	0.6213	0.1518	0.6624	0.071
Mof_C 	C 	0.6072	0.2188	0.6793	0.282
Mof_C 	C 	0.4182	0.8282	0.58166	-0.099
Mof_C 	C 	0.3916	0.8512	0.5892	0.083
Mof_C 	C 	0.4177	0.8948	0.6004	-0.124
Mof_C 	C 	0.4704	0.9153	0.604	0.2
Mof_C 	C 	0.497	0.8923	0.5965	-0.074
Mof_C 	C 	0.4709	0.8487	0.5853	0.076
Mof_C 	C 	0.6443	0.0908	0.6466	0.027
Mof_C 	C 	0.1701	0.0864	0.8347	-0.112
Mof_C 	C 	0.1701	0.0935	0.8158	0.077
Mof_C 	C 	0.2169	0.122	0.8065	-0.121
Mof_C 	C 	0.2637	0.1435	0.816	0.163
Mof_C 	C 	0.2638	0.1364	0.8349	-0.057
Mof_C 	C 	0.217	0.1079	0.8443	0.066
Mof_C 	C 	0.624	0.0391	0.6512	0.021
Mof_C 	C 	0.5069	0.2558	0.7491	-0.117
Mof_C 	C 	0.4555	0.228	0.7432	0.082
Mof_C 	C 	0.4152	0.2115	0.7558	-0.119
Mof_C 	C 	0.4262	0.2229	0.7744	0.174
Mof_C 	C 	0.4776	0.2507	0.7803	-0.068
Mof_C 	C 	0.518	0.2672	0.7676	0.073
Mof_C 	C 	0.691	0.126	0.6557	-0.006
Mof_C 	C 	0.657	0.0976	0.6279	0.009
Mof_C 	C 	0.4709	0.0867	0.641	0.108
Mof_C 	C 	0.3874	0.7797	0.5692	0.291
Mof_C 	C 	0.5563	0.9165	0.6011	0.017
Mof_C 	C 	0.5763	0.8877	0.5923	0.003
Mof_C 	C 	0.5622	0.9158	0.6201	0.037
Mof_C 	C 	0.5835	0.9681	0.5957	0.017
Mof_C 	C 	0.3837	0.912	0.6066	0.119
Mof_C 	C 	0.3924	0.0241	0.6267	0.059
Mof_C 	C 	0.3609	0.0533	0.6278	-0.012
Mof_C 	C 	0.3142	0.0362	0.6166	0.003
Mof_C 	C 	0.2961	0.9886	0.6063	0.014
Mof_C 	C 	0.3082	0.9469	0.6127	0.007
Mof_C 	C 	0.3639	0.9703	0.6245	0.031
Mof_C 	C 	0.1187	0.0551	0.8454	0.298
Mof_C 	C 	0.3156	0.1585	0.8461	0.012
Mof_C 	C 	0.3567	0.2077	0.842	0.027
Mof_C 	C 	0.336	0.125	0.8456	0.044
Mof_C 	C 	0.304	0.16	0.865	0.002
Mof_C 	C 	0.2117	0.125	0.7873	0.076
Mof_C 	C 	0.5531	0.2751	0.7357	0.327
Mof_C 	C 	0.496	0.2663	0.8007	0.018
Mof_C 	C 	0.491	0.31	0.8054	0.007
Mof_C 	C 	0.55	0.2833	0.8026	-0
Mof_C 	C 	0.4697	0.2257	0.8134	0.035
Mof_C 	C 	0.3648	0.1824	0.7479	0.084
Mof_C 	C 	0.235	0.1072	0.7573	0.038
Mof_C 	C 	0.18	0.0601	0.7504	-0.006
Mof_C 	C 	0.1795	0.0286	0.7343	0.008
Mof_C 	C 	0.22	0.0563	0.7209	-0.001
Mof_C 	C 	0.273	0.1039	0.7261	-0.004
Mof_C 	C 	0.2769	0.1062	0.7488	0.027
Mof_Cl	Cl	0.4567	0.9411	0.6557	-0.459
Mof_Cl	Cl	0.3291	0.0761	0.7915	-0.41
Mof_Mn	Mn	0.4673	0.9897	0.63112	1.225
Mof_Mn	Mn	0.3179	0.1429	0.78482	1.129
Mof_N 	N 	0.4387	0.0381	0.6352	-0.216
Mof_N 	N 	0.3984	0.9521	0.6181	-0.207
Mof_N 	N 	0.2432	0.1158	0.7759	-0.22
Mof_N 	N 	0.3266	0.1411	0.7568	-0.21
Mof_O 	O 	0.5747	0.2355	0.6853	-0.456
Mof_O 	O 	0.6587	0.2424	0.684	-0.454
Mof_O 	O 	0.541	0.0409	0.6313	-0.429
Mof_O 	O 	0.3412	0.7652	0.5627	-0.464
Mof_O 	O 	0.4192	0.7595	0.5675	-0.455
Mof_O 	O 	0.4998	0.9612	0.6163	-0.384
Mof_O 	O 	0.0706	0.0302	0.8377	-0.446
Mof_O 	O 	0.1207	0.0514	0.8639	-0.444
Mof_O 	O 	0.3141	0.174	0.807	-0.356
Mof_O 	O 	0.5457	0.2704	0.7178	-0.484
Mof_O 	O 	0.5987	0.295	0.7442	-0.478
Mof_O 	O 	0.3831	0.2046	0.7876	-0.337
Mof_Zn	Zn	0.59527	0.29485	0.69948	1.218
Mof_Zn	Zn	0.07085	0.03627	0.88397	1.207
Mof_C 	C 	0.1309	0.8034	0.4641	0.143
Mof_C 	C 	0.4877	0.0215	0.6132	-0.506
Mof_C 	C 	0.1822	0.8631	0.4683	-0.212
Mof_C 	C 	0.52	0.0161	0.618	0.368
Mof_C 	C 	0.25497	0.50443	0.99972	-0.107
Mof_C 	C 	0.20527	0.48083	0.99223	0.082
Mof_C 	C 	0.18857	0.43803	0.98073	-0.139
Mof_C 	C 	0.22157	0.41863	0.97673	0.209
Mof_C 	C 	0.27127	0.44223	0.98423	-0.08
Mof_C 	C 	0.28797	0.48513	0.99573	0.071
Mof_C 	C 	0.27387	0.55213	0.01263	0.282
Mof_C 	C 	0.08487	0.16153	0.91499	-0.099
Mof_C 	C 	0.05827	0.18453	0.92253	0.082
Mof_C 	C 	0.08437	0.22813	0.93373	-0.124
Mof_C 	C 	0.13707	0.24863	0.93733	0.2
Mof_C 	C 	0.16367	0.22563	0.92983	-0.075
Mof_C 	C 	0.13757	0.18203	0.91863	0.076
Mof_C 	C 	0.31097	0.42413	0.97993	0.026
Mof_C 	C 	0.83677	0.41973	0.16803	-0.112
Mof_C 	C 	0.83677	0.42683	0.14913	0.078
Mof_C 	C 	0.88357	0.45533	0.13983	-0.12
Mof_C 	C 	0.93037	0.47683	0.14933	0.163
Mof_C 	C 	0.93047	0.46973	0.16823	-0.057
Mof_C 	C 	0.88367	0.44123	0.17763	0.067
Mof_C 	C 	0.29067	0.37243	0.98453	0.023
Mof_C 	C 	0.17357	0.58913	0.08243	-0.117
Mof_C 	C 	0.12217	0.56133	0.07653	0.081
Mof_C 	C 	0.08187	0.54483	0.08913	-0.118
Mof_C 	C 	0.09287	0.55623	0.10773	0.173
Mof_C 	C 	0.14427	0.58403	0.11363	-0.068
Mof_C 	C 	0.18467	0.60053	0.10093	0.073
Mof_C 	C 	0.35767	0.45933	0.98903	-0.005
Mof_C 	C 	0.32367	0.43093	0.96123	0.01
Mof_C 	C 	0.13757	0.42003	0.97433	0.109
Mof_C 	C 	0.05407	0.11303	0.90253	0.291
Mof_C 	C 	0.22297	0.24983	0.93443	0.018
Mof_C 	C 	0.24297	0.22103	0.92563	0.002
Mof_C 	C 	0.22887	0.24913	0.95343	0.035
Mof_C 	C 	0.25017	0.30143	0.92903	0.015
Mof_C 	C 	0.05037	0.24533	0.93993	0.118
Mof_C 	C 	0.05907	0.35743	0.96003	0.064
Mof_C 	C 	0.02757	0.38663	0.96113	-0.015
Mof_C 	C 	0.98087	0.36953	0.94993	0.01
Mof_C 	C 	0.96277	0.32193	0.93963	0.009
Mof_C 	C 	0.97487	0.28023	0.94603	0.01
Mof_C 	C 	0.03057	0.30363	0.95783	0.025
Mof_C 	C 	0.78537	0.38843	0.17873	0.299
Mof_C 	C 	0.98227	0.49183	0.17943	0.018
Mof_C 	C 	0.02337	0.54103	0.17533	0.023
Mof_C 	C 	0.00267	0.45833	0.17893	0.04
Mof_C 	C 	0.97067	0.49333	0.19833	0.003
Mof_C 	C 	0.87837	0.45833	0.12063	0.077
Mof_C 	C 	0.21977	0.60843	0.06903	0.327
Mof_C 	C 	0.16267	0.59963	0.13403	0.018
Mof_C 	C 	0.15767	0.64333	0.13873	0.007
Mof_C 	C 	0.21667	0.61663	0.13593	-0
Mof_C 	C 	0.13637	0.55903	0.14673	0.035
Mof_C 	C 	0.03147	0.51573	0.08123	0.082
Mof_C 	C 	0.90167	0.44053	0.09063	0.038
Mof_C 	C 	0.84667	0.39343	0.08373	-0.006
Mof_C 	C 	0.84617	0.36193	0.06763	0.009
Mof_C 	C 	0.88667	0.38963	0.05423	-0
Mof_C 	C 	0.93967	0.43723	0.05943	-0.003
Mof_C 	C 	0.94357	0.43953	0.08213	0.027
Mof_Cl	Cl	0.12337	0.27443	0.98903	-0.46
Mof_Cl	Cl	0.99577	0.40943	0.12483	-0.407
Mof_Mn	Mn	0.13397	0.32303	0.96445	1.218
Mof_Mn	Mn	0.98457	0.47623	0.11815	1.136
Mof_N 	N 	0.10537	0.37143	0.96853	-0.216
Mof_N 	N 	0.06507	0.28543	0.95143	-0.207
Mof_N 	N 	0.90987	0.44913	0.10923	-0.221
Mof_N 	N 	0.99327	0.47443	0.09013	-0.208
Mof_O 	O 	0.24137	0.56883	0.01863	-0.456
Mof_O 	O 	0.32537	0.57573	0.01733	-0.454
Mof_O 	O 	0.20767	0.37423	0.96463	-0.429
Mof_O 	O 	0.00787	0.09853	0.89603	-0.465
Mof_O 	O 	0.08587	0.09283	0.90083	-0.456
Mof_O 	O 	0.16647	0.29453	0.94963	-0.385
Mof_O 	O 	0.73727	0.36353	0.17103	-0.445
Mof_O 	O 	0.78737	0.38473	0.19723	-0.443
Mof_O 	O 	0.98077	0.50733	0.14033	-0.35
Mof_O 	O 	0.21237	0.60373	0.05113	-0.484
Mof_O 	O 	0.26537	0.62833	0.07753	-0.478
Mof_O 	O 	0.04977	0.53793	0.12093	-0.336
Mof_Zn	Zn	0.26194	0.62818	0.03281	1.218
Mof_Zn	Zn	0.73752	0.3696	0.2173	1.208
Mof_C 	C 	0.79757	0.13673	0.79743	0.143
Mof_C 	C 	0.15437	0.35483	0.94653	-0.503
Mof_C 	C 	0.84887	0.19643	0.80163	-0.212
Mof_C 	C 	0.18667	0.34943	0.95133	0.371
Mof_C 	C 	0.92163	0.83777	0.33306	-0.107
Mof_C 	C 	0.87193	0.81417	0.32557	0.083
Mof_C 	C 	0.85523	0.77137	0.31407	-0.139
Mof_C 	C 	0.88823	0.75197	0.31007	0.209
Mof_C 	C 	0.93793	0.77557	0.31757	-0.08
Mof_C 	C 	0.95463	0.81847	0.32907	0.073
Mof_C 	C 	0.94053	0.88547	0.34597	0.283
Mof_C 	C 	0.75153	0.49487	0.24833	-0.099
Mof_C 	C 	0.72493	0.51787	0.25587	0.083
Mof_C 	C 	0.75103	0.56147	0.26707	-0.124
Mof_C 	C 	0.80373	0.58197	0.27067	0.2
Mof_C 	C 	0.83033	0.55897	0.26317	-0.075
Mof_C 	C 	0.80423	0.51537	0.25197	0.076
Mof_C 	C 	0.97763	0.75747	0.31327	0.029
Mof_C 	C 	0.50343	0.75307	0.50137	-0.112
Mof_C 	C 	0.50343	0.76017	0.48247	0.078
Mof_C 	C 	0.55023	0.78867	0.47317	-0.121
Mof_C 	C 	0.59703	0.81017	0.48267	0.164
Mof_C 	C 	0.59713	0.80307	0.50157	-0.057
Mof_C 	C 	0.55033	0.77457	0.51097	0.067
Mof_C 	C 	0.95733	0.70577	0.31787	0.024
Mof_C 	C 	0.84023	0.92247	0.41577	-0.117
Mof_C 	C 	0.78883	0.89467	0.40987	0.082
Mof_C 	C 	0.74853	0.87817	0.42247	-0.119
Mof_C 	C 	0.75953	0.88957	0.44107	0.174
Mof_C 	C 	0.81093	0.91737	0.44697	-0.068
Mof_C 	C 	0.85133	0.93387	0.43427	0.074
Mof_C 	C 	0.02433	0.79267	0.32237	-0.009
Mof_C 	C 	0.99033	0.76427	0.29457	0.011
Mof_C 	C 	0.80423	0.75337	0.30767	0.109
Mof_C 	C 	0.72073	0.44637	0.23587	0.291
Mof_C 	C 	0.88963	0.58317	0.26777	0.017
Mof_C 	C 	0.90963	0.55437	0.25897	0.004
Mof_C 	C 	0.89553	0.58247	0.28677	0.036
Mof_C 	C 	0.91683	0.63477	0.26237	0.016
Mof_C 	C 	0.71703	0.57867	0.27327	0.119
Mof_C 	C 	0.72573	0.69077	0.29337	0.063
Mof_C 	C 	0.69423	0.71997	0.29447	-0.013
Mof_C 	C 	0.64753	0.70287	0.28327	0.008
Mof_C 	C 	0.62943	0.65527	0.27297	0.01
Mof_C 	C 	0.64153	0.61357	0.27937	0.008
Mof_C 	C 	0.69723	0.63697	0.29117	0.027
Mof_C 	C 	0.45203	0.72177	0.51207	0.299
Mof_C 	C 	0.64893	0.82517	0.51277	0.012
Mof_C 	C 	0.69003	0.87437	0.50867	0.028
Mof_C 	C 	0.66933	0.79167	0.51227	0.045
Mof_C 	C 	0.63733	0.82667	0.53167	0.003
Mof_C 	C 	0.54503	0.79167	0.45397	0.077
Mof_C 	C 	0.88643	0.94177	0.40237	0.327
Mof_C 	C 	0.82933	0.93297	0.46737	0.017
Mof_C 	C 	0.82433	0.97667	0.47207	0.009
Mof_C 	C 	0.88333	0.94997	0.46927	0.002
Mof_C 	C 	0.80303	0.89237	0.48007	0.036
Mof_C 	C 	0.69813	0.84907	0.41457	0.085
Mof_C 	C 	0.56833	0.77387	0.42397	0.038
Mof_C 	C 	0.51333	0.72677	0.41707	-0.006
Mof_C 	C 	0.51283	0.69527	0.40097	0.009
Mof_C 	C 	0.55333	0.72297	0.38757	-0
Mof_C 	C 	0.60633	0.77057	0.39277	-0.004
Mof_C 	C 	0.61023	0.77287	0.41547	0.027
Mof_Cl	Cl	0.79003	0.60777	0.32237	-0.459
Mof_Cl	Cl	0.66243	0.74277	0.45817	-0.409
Mof_Mn	Mn	0.80063	0.65637	0.29779	1.218
Mof_Mn	Mn	0.65123	0.80957	0.45149	1.129
Mof_N 	N 	0.77203	0.70477	0.30187	-0.216
Mof_N 	N 	0.73173	0.61877	0.28477	-0.207
Mof_N 	N 	0.57653	0.78247	0.44257	-0.22
Mof_N 	N 	0.65993	0.80777	0.42347	-0.21
Mof_O 	O 	0.90803	0.90217	0.35197	-0.455
Mof_O 	O 	0.99203	0.90907	0.35067	-0.452
Mof_O 	O 	0.87433	0.70757	0.29797	-0.429
Mof_O 	O 	0.67453	0.43187	0.22937	-0.464
Mof_O 	O 	0.75253	0.42617	0.23417	-0.455
Mof_O 	O 	0.83313	0.62787	0.28297	-0.385
Mof_O 	O 	0.40393	0.69687	0.50437	-0.445
Mof_O 	O 	0.45403	0.71807	0.53057	-0.443
Mof_O 	O 	0.64743	0.84067	0.47367	-0.356
Mof_O 	O 	0.87903	0.93707	0.38447	-0.483
Mof_O 	O 	0.93203	0.96167	0.41087	-0.476
Mof_O 	O 	0.71643	0.87127	0.45427	-0.337
Mof_Zn	Zn	0.9286	0.96152	0.36615	1.219
Mof_Zn	Zn	0.40418	0.70294	0.55064	1.208
Mof_C 	C 	0.46423	0.47007	0.13077	0.144
Mof_C 	C 	0.82103	0.68817	0.27987	-0.503
Mof_C 	C 	0.51553	0.52977	0.13497	-0.211
Mof_C 	C 	0.85333	0.68277	0.28467	0.371
Mof_Zn	Zn	-0	-2.91468e-32	0.84823	1.201
Mof_O 	O 	2.91468e-32	0	0.8751	-0.978
Mof_Zn	Zn	0.66667	0.33333	0.18156	1.202
Mof_O 	O 	0.66667	0.33333	0.20843	-0.976
Mof_Zn	Zn	0.33333	0.66667	0.5149	1.202
Mof_O 	O 	0.33333	0.66667	0.54177	-0.976
Mof_Zn	Zn	0.66667	0.33333	0.73484	1.228
Mof_O 	O 	0.66667	0.33333	0.7092	-0.958
Mof_Zn	Zn	0.33333	0.66667	0.06817	1.228
Mof_O 	O 	0.33333	0.66667	0.04253	-0.958
Mof_Zn	Zn	-1.45734e-32	-1.45734e-32	0.40151	1.227
Mof_O 	O 	-2.18601e-32	-1.45734e-32	0.37587	-0.961
_end
