data_functionalizedCrystal
_audit_creation_method	'EQeq! by Chris Wilmer'
_symmetry_space_group_name_H-M	'P1'
_symmetry_Int_Tables_number	1
_symmetry_cell_setting	triclinic
loop_
_symmetry_equiv_pos_as_xyz
  x,y,z
_cell_length_a	21.883
_cell_length_b	21.883
_cell_length_c	40.184
_cell_angle_alpha	90
_cell_angle_beta	90
_cell_angle_gamma	90
loop_
_atom_site_label
_atom_site_type_symbol
_atom_site_fract_x
_atom_site_fract_y
_atom_site_fract_z
_atom_site_charge
Mof_Zn	Zn	0.81815	0.98971	0.71423	1.239
Mof_Zn	Zn	0.26248	0.43103	0.96485	1.24
Mof_Zn	Zn	0.77967	0.34323	0.71025	1.189
Mof_Zn	Zn	0.19345	0.51765	0.02536	1.193
Mof_Zn	Zn	0.74044	0.91381	0.77389	1.197
Mof_Zn	Zn	0.19075	0.92763	0.98954	1.207
Mof_Zn	Zn	0.62981	0.46669	0.96705	1.227
Mof_Zn	Zn	0.20024	0.96973	0.74438	1.184
Mof_Zn	Zn	0.6556	0.39563	0.74446	1.172
Mof_Zn	Zn	0.74917	0.42299	0.01151	1.17
Mof_Zn	Zn	0.68185	0.01029	0.21423	1.24
Mof_Zn	Zn	0.23752	0.56897	0.46485	1.241
Mof_Zn	Zn	0.72033	0.65677	0.21025	1.19
Mof_Zn	Zn	0.30655	0.48235	0.52536	1.194
Mof_Zn	Zn	0.75956	0.08619	0.27389	1.197
Mof_Zn	Zn	0.30925	0.07237	0.48954	1.207
Mof_Zn	Zn	0.87019	0.53331	0.46705	1.227
Mof_Zn	Zn	0.29976	0.03027	0.24438	1.184
Mof_Zn	Zn	0.8444	0.60437	0.24446	1.172
Mof_Zn	Zn	0.75083	0.57701	0.51151	1.17
Mof_Zn	Zn	0.18185	0.48971	0.78577	1.24
Mof_Zn	Zn	0.73752	0.93103	0.53515	1.241
Mof_Zn	Zn	0.22033	0.84323	0.78975	1.19
Mof_Zn	Zn	0.80655	0.01765	0.47464	1.194
Mof_Zn	Zn	0.25956	0.41381	0.72611	1.197
Mof_Zn	Zn	0.80925	0.42763	0.51046	1.207
Mof_Zn	Zn	0.37019	0.96669	0.53295	1.227
Mof_Zn	Zn	0.79976	0.46973	0.75562	1.184
Mof_Zn	Zn	0.3444	0.89563	0.75554	1.172
Mof_Zn	Zn	0.25083	0.92299	0.48849	1.17
Mof_Zn	Zn	0.31815	0.51029	0.28577	1.24
Mof_Zn	Zn	0.76248	0.06897	0.03515	1.241
Mof_Zn	Zn	0.27967	0.15677	0.28975	1.19
Mof_Zn	Zn	0.69345	0.98235	0.97464	1.194
Mof_Zn	Zn	0.24044	0.58619	0.22611	1.197
Mof_Zn	Zn	0.69075	0.57237	0.01046	1.207
Mof_Zn	Zn	0.12981	0.03331	0.03295	1.227
Mof_Zn	Zn	0.70024	0.53027	0.25562	1.184
Mof_Zn	Zn	0.1556	0.10437	0.25554	1.172
Mof_Zn	Zn	0.24917	0.07701	0.98849	1.17
Mof_H 	H 	0.2626	0.4082	0.8528	0.056
Mof_H 	H 	0.3718	0.286	0.8967	0.085
Mof_H 	H 	0.3507	0.2896	0.7964	0.071
Mof_H 	H 	0.4644	0.2487	0.8763	0.045
Mof_H 	H 	0.4165	0.1987	0.8868	0.044
Mof_H 	H 	0.5607	0.1209	0.8809	0.039
Mof_H 	H 	0.5088	0.1372	0.9066	0.039
Mof_H 	H 	0.5447	0.2193	0.8325	0.041
Mof_H 	H 	0.4942	0.1906	0.8095	0.036
Mof_H 	H 	0.6119	0.1222	0.9309	0.069
Mof_H 	H 	0.7051	0.2352	0.9917	0.038
Mof_H 	H 	0.593	0.3024	0.9218	0.085
Mof_H 	H 	0.6315	0.0576	0.7968	0.067
Mof_H 	H 	0.7359	0.1616	0.7367	0.041
Mof_H 	H 	0.5937	0.2343	0.7846	0.071
Mof_H 	H 	0.389	0.0099	0.8327	0.066
Mof_H 	H 	0.4778	0.0733	0.8446	0.03
Mof_H 	H 	0.421	0.1127	0.8337	0.032
Mof_H 	H 	0.3623	0.0501	0.9295	0.057
Mof_H 	H 	0.269	0.9167	0.887	0.042
Mof_H 	H 	0.7145	0.5037	0.8804	0.053
Mof_H 	H 	0.8008	0.6346	0.9281	0.081
Mof_H 	H 	0.8472	0.5972	0.8334	0.094
Mof_H 	H 	0.8522	0.7342	0.9103	0.029
Mof_H 	H 	0.8937	0.6809	0.9238	0.037
Mof_H 	H 	0.8956	0.8131	0.8739	0.033
Mof_H 	H 	0.9126	0.7613	0.8484	0.035
Mof_H 	H 	0.8892	0.8616	0.8214	0.066
Mof_H 	H 	0.993	0.9482	0.7546	0.055
Mof_H 	H 	0.0723	0.8551	0.8303	0.07
Mof_H 	H 	0.0273	0.7256	0.8762	0.043
Mof_H 	H 	0.9787	0.676	0.8659	0.048
Mof_H 	H 	0.0604	0.6237	0.8554	0.088
Mof_H 	H 	0.1735	0.5033	0.8951	0.069
Mof_H 	H 	0.0688	0.6071	0.9543	0.08
Mof_H 	H 	0.8383	0.8836	0.9582	0.066
Mof_H 	H 	0.9999	0.8067	0.919	0.047
Mof_H 	H 	0.9807	0.7529	0.9429	0.047
Mof_H 	H 	0.019	0.8553	0.9644	0.071
Mof_H 	H 	0.9458	0.9966	0.0124	0.047
Mof_H 	H 	0.2374	0.5918	0.3528	0.056
Mof_H 	H 	0.1282	0.714	0.3967	0.085
Mof_H 	H 	0.1493	0.7104	0.2964	0.071
Mof_H 	H 	0.0356	0.7513	0.3763	0.045
Mof_H 	H 	0.0835	0.8013	0.3868	0.044
Mof_H 	H 	0.9393	0.8791	0.3809	0.039
Mof_H 	H 	0.9912	0.8628	0.4066	0.039
Mof_H 	H 	0.9553	0.7807	0.3325	0.041
Mof_H 	H 	0.0058	0.8094	0.3095	0.036
Mof_H 	H 	0.8881	0.8778	0.4309	0.069
Mof_H 	H 	0.7949	0.7648	0.4917	0.038
Mof_H 	H 	0.907	0.6976	0.4218	0.085
Mof_H 	H 	0.8685	0.9424	0.2968	0.067
Mof_H 	H 	0.7641	0.8384	0.2367	0.041
Mof_H 	H 	0.9063	0.7657	0.2846	0.071
Mof_H 	H 	0.111	0.9901	0.3327	0.066
Mof_H 	H 	0.0222	0.9267	0.3446	0.03
Mof_H 	H 	0.079	0.8873	0.3337	0.032
Mof_H 	H 	0.1377	0.9499	0.4295	0.057
Mof_H 	H 	0.231	0.0833	0.387	0.042
Mof_H 	H 	0.7855	0.4963	0.3804	0.053
Mof_H 	H 	0.6992	0.3654	0.4281	0.081
Mof_H 	H 	0.6528	0.4028	0.3334	0.094
Mof_H 	H 	0.6478	0.2658	0.4103	0.029
Mof_H 	H 	0.6063	0.3191	0.4238	0.037
Mof_H 	H 	0.6044	0.1869	0.3739	0.033
Mof_H 	H 	0.5874	0.2387	0.3484	0.035
Mof_H 	H 	0.6108	0.1384	0.3214	0.067
Mof_H 	H 	0.507	0.0518	0.2546	0.055
Mof_H 	H 	0.4277	0.1449	0.3303	0.07
Mof_H 	H 	0.4727	0.2744	0.3762	0.042
Mof_H 	H 	0.5213	0.324	0.3659	0.048
Mof_H 	H 	0.4396	0.3763	0.3554	0.088
Mof_H 	H 	0.3265	0.4967	0.3951	0.069
Mof_H 	H 	0.4312	0.3929	0.4543	0.08
Mof_H 	H 	0.6617	0.1164	0.4582	0.066
Mof_H 	H 	0.5001	0.1933	0.419	0.047
Mof_H 	H 	0.5193	0.2471	0.4429	0.047
Mof_H 	H 	0.481	0.1447	0.4644	0.071
Mof_H 	H 	0.5542	0.0034	0.5124	0.047
Mof_H 	H 	0.7374	0.9082	0.6472	0.056
Mof_H 	H 	0.6282	0.786	0.6033	0.085
Mof_H 	H 	0.6493	0.7896	0.7036	0.071
Mof_H 	H 	0.5356	0.7487	0.6237	0.045
Mof_H 	H 	0.5835	0.6987	0.6132	0.044
Mof_H 	H 	0.4393	0.6209	0.6191	0.039
Mof_H 	H 	0.4912	0.6372	0.5934	0.039
Mof_H 	H 	0.4553	0.7193	0.6675	0.041
Mof_H 	H 	0.5058	0.6906	0.6905	0.036
Mof_H 	H 	0.3881	0.6222	0.5691	0.069
Mof_H 	H 	0.2949	0.7352	0.5083	0.038
Mof_H 	H 	0.407	0.8024	0.5782	0.085
Mof_H 	H 	0.3685	0.5576	0.7032	0.067
Mof_H 	H 	0.2641	0.6616	0.7633	0.041
Mof_H 	H 	0.4063	0.7343	0.7154	0.071
Mof_H 	H 	0.611	0.5099	0.6673	0.066
Mof_H 	H 	0.5222	0.5733	0.6554	0.03
Mof_H 	H 	0.579	0.6127	0.6663	0.032
Mof_H 	H 	0.6377	0.5501	0.5705	0.058
Mof_H 	H 	0.731	0.4167	0.613	0.042
Mof_H 	H 	0.2855	0.0037	0.6196	0.053
Mof_H 	H 	0.1992	0.1346	0.5719	0.081
Mof_H 	H 	0.1528	0.0972	0.6666	0.094
Mof_H 	H 	0.1478	0.2342	0.5897	0.029
Mof_H 	H 	0.1063	0.1809	0.5762	0.037
Mof_H 	H 	0.1044	0.3131	0.6261	0.033
Mof_H 	H 	0.0874	0.2613	0.6516	0.035
Mof_H 	H 	0.1108	0.3616	0.6786	0.067
Mof_H 	H 	0.007	0.4482	0.7454	0.055
Mof_H 	H 	0.9277	0.3551	0.6697	0.07
Mof_H 	H 	0.9727	0.2256	0.6238	0.043
Mof_H 	H 	0.0213	0.176	0.6341	0.048
Mof_H 	H 	0.9396	0.1237	0.6446	0.088
Mof_H 	H 	0.8265	0.0033	0.6049	0.069
Mof_H 	H 	0.9312	0.1071	0.5457	0.08
Mof_H 	H 	0.1617	0.3836	0.5418	0.066
Mof_H 	H 	0.0001	0.3067	0.581	0.047
Mof_H 	H 	0.0193	0.2529	0.5571	0.047
Mof_H 	H 	0.981	0.3553	0.5356	0.071
Mof_H 	H 	0.0542	0.4966	0.4876	0.047
Mof_H 	H 	0.7626	0.0918	0.1472	0.056
Mof_H 	H 	0.8718	0.214	0.1033	0.085
Mof_H 	H 	0.8507	0.2104	0.2036	0.071
Mof_H 	H 	0.9644	0.2513	0.1237	0.045
Mof_H 	H 	0.9165	0.3013	0.1132	0.044
Mof_H 	H 	0.0607	0.3791	0.1191	0.039
Mof_H 	H 	0.0088	0.3628	0.0934	0.039
Mof_H 	H 	0.0447	0.2807	0.1675	0.041
Mof_H 	H 	0.9942	0.3094	0.1905	0.036
Mof_H 	H 	0.1119	0.3778	0.0691	0.069
Mof_H 	H 	0.2051	0.2648	0.0083	0.038
Mof_H 	H 	0.093	0.1976	0.0782	0.085
Mof_H 	H 	0.1315	0.4424	0.2032	0.066
Mof_H 	H 	0.2359	0.3384	0.2633	0.041
Mof_H 	H 	0.0937	0.2657	0.2154	0.071
Mof_H 	H 	0.889	0.4901	0.1673	0.066
Mof_H 	H 	0.9778	0.4267	0.1554	0.03
Mof_H 	H 	0.921	0.3873	0.1663	0.032
Mof_H 	H 	0.8623	0.4499	0.0705	0.058
Mof_H 	H 	0.769	0.5833	0.113	0.042
Mof_H 	H 	0.2145	0.9963	0.1196	0.053
Mof_H 	H 	0.3008	0.8654	0.0719	0.081
Mof_H 	H 	0.3472	0.9028	0.1666	0.094
Mof_H 	H 	0.3522	0.7658	0.0897	0.029
Mof_H 	H 	0.3937	0.8191	0.0762	0.037
Mof_H 	H 	0.3956	0.6869	0.1261	0.033
Mof_H 	H 	0.4126	0.7387	0.1516	0.035
Mof_H 	H 	0.3892	0.6384	0.1786	0.067
Mof_H 	H 	0.493	0.5518	0.2454	0.055
Mof_H 	H 	0.5723	0.6449	0.1697	0.07
Mof_H 	H 	0.5273	0.7744	0.1238	0.042
Mof_H 	H 	0.4787	0.824	0.1341	0.048
Mof_H 	H 	0.5604	0.8763	0.1446	0.088
Mof_H 	H 	0.6735	0.9967	0.1049	0.069
Mof_H 	H 	0.5688	0.8929	0.0457	0.08
Mof_H 	H 	0.3383	0.6164	0.0418	0.066
Mof_H 	H 	0.4999	0.6933	0.081	0.047
Mof_H 	H 	0.4807	0.7471	0.0571	0.047
Mof_H 	H 	0.519	0.6447	0.0356	0.071
Mof_H 	H 	0.4458	0.5034	0.9876	0.047
Mof_C 	C 	0.8774	0.9269	0.76924	0.406
Mof_C 	C 	0.7272	0.0451	0.75717	0.422
Mof_C 	C 	0.2765	0.3816	0.7897	0.45
Mof_C 	C 	0.3019	0.3524	0.81967	-0.107
Mof_C 	C 	0.2899	0.3758	0.85101	0.014
Mof_C 	C 	0.3157	0.3539	0.87888	-0.054
Mof_C 	C 	0.3552	0.3024	0.87739	-0.12
Mof_C 	C 	0.3687	0.2766	0.84605	0.164
Mof_C 	C 	0.3412	0.3048	0.81734	-0.081
Mof_C 	C 	0.4418	0.2132	0.86863	0.006
Mof_C 	C 	0.486	0.1634	0.85803	0.006
Mof_C 	C 	0.5307	0.1515	0.8871	0.009
Mof_C 	C 	0.5218	0.1823	0.82778	0.017
Mof_C 	C 	0.5984	0.2112	0.92049	0.159
Mof_C 	C 	0.6224	0.1618	0.93703	-0.1
Mof_C 	C 	0.6636	0.1726	0.96375	-0.085
Mof_C 	C 	0.6778	0.2293	0.9743	0.024
Mof_C 	C 	0.6508	0.2783	0.95868	-0.093
Mof_C 	C 	0.6112	0.2689	0.932	-0.091
Mof_C 	C 	0.6643	0.3423	0.97049	0.443
Mof_C 	C 	0.6075	0.1463	0.79526	0.143
Mof_C 	C 	0.6411	0.0952	0.7873	-0.084
Mof_C 	C 	0.6895	0.1	0.76503	-0.094
Mof_C 	C 	0.7027	0.1571	0.75098	0.022
Mof_C 	C 	0.6665	0.206	0.75842	-0.089
Mof_C 	C 	0.6185	0.2007	0.78018	-0.093
Mof_C 	C 	0.6806	0.2665	0.7445	0.394
Mof_C 	C 	0.3121	0.9223	0.8237	0.421
Mof_C 	C 	0.3261	0.9595	0.85507	-0.089
Mof_C 	C 	0.3683	0.004	0.85262	-0.1
Mof_C 	C 	0.3812	0.0417	0.88012	0.151
Mof_C 	C 	0.4504	0.1058	0.85137	0.024
Mof_C 	C 	0.3527	0.0277	0.91047	-0.101
Mof_C 	C 	0.3111	0.9814	0.91213	-0.079
Mof_C 	C 	0.2976	0.9479	0.8854	0.011
Mof_C 	C 	0.2791	0.9718	0.94521	0.346
Mof_C 	C 	0.1072	0.9225	0.77963	0.35
Mof_C 	C 	0.7737	0.5034	0.82144	0.347
Mof_C 	C 	0.7804	0.5427	0.85211	-0.048
Mof_C 	C 	0.7452	0.5331	0.88065	-0.015
Mof_C 	C 	0.7549	0.565	0.90778	-0.062
Mof_C 	C 	0.7189	0.5509	0.93869	0.381
Mof_C 	C 	0.0517	0.9488	0.00102	0.379
Mof_C 	C 	0.7953	0.6123	0.90865	-0.126
Mof_C 	C 	0.8284	0.6272	0.88022	0.182
Mof_C 	C 	0.8229	0.5902	0.85196	-0.124
Mof_C 	C 	0.8854	0.7068	0.90468	0.03
Mof_C 	C 	0.9426	0.7432	0.8952	0.009
Mof_C 	C 	0.9274	0.7847	0.86719	0.022
Mof_C 	C 	0.9795	0.8505	0.82979	0.154
Mof_C 	C 	0.9278	0.8715	0.81343	-0.097
Mof_C 	C 	0.9336	0.9062	0.78615	-0.082
Mof_C 	C 	0.9902	0.924	0.77359	0.001
Mof_C 	C 	0.044	0.9039	0.79068	-0.068
Mof_C 	C 	0.0378	0.8679	0.81873	-0.102
Mof_C 	C 	0.9929	0.7017	0.88405	0.006
Mof_C 	C 	0.0548	0.6209	0.90552	0.164
Mof_C 	C 	0.0756	0.6039	0.8742	-0.124
Mof_C 	C 	0.1178	0.5588	0.87062	-0.031
Mof_C 	C 	0.1377	0.5405	0.83676	0.306
Mof_C 	C 	0.1444	0.5339	0.89766	-0.01
Mof_C 	C 	0.1281	0.5544	0.93029	-0.088
Mof_C 	C 	0.0821	0.5956	0.93325	-0.093
Mof_C 	C 	0.1574	0.5275	0.95923	0.438
Mof_C 	C 	0.6918	0.1172	0.98068	0.43
Mof_C 	C 	0.3036	0.3756	0.9157	0.394
Mof_C 	C 	0.8238	0.9791	0.9972	0.459
Mof_C 	C 	0.8803	0.9453	0.98866	-0.105
Mof_C 	C 	0.8761	0.8947	0.96694	-0.084
Mof_C 	C 	0.9269	0.8623	0.95864	0.152
Mof_C 	C 	0.9665	0.7802	0.92557	-0.003
Mof_C 	C 	0.9848	0.8781	0.97036	-0.094
Mof_C 	C 	0.9906	0.9286	0.99103	-0.086
Mof_C 	C 	0.9408	0.9619	0.99937	0.026
Mof_C 	C 	0.6226	0.0731	0.26924	0.406
Mof_C 	C 	0.7728	0.9549	0.25717	0.422
Mof_C 	C 	0.2235	0.6184	0.2897	0.45
Mof_C 	C 	0.1981	0.6476	0.31967	-0.107
Mof_C 	C 	0.2101	0.6242	0.35101	0.014
Mof_C 	C 	0.1843	0.6461	0.37888	-0.054
Mof_C 	C 	0.1448	0.6976	0.37739	-0.12
Mof_C 	C 	0.1313	0.7234	0.34605	0.164
Mof_C 	C 	0.1588	0.6952	0.31734	-0.081
Mof_C 	C 	0.0582	0.7868	0.36863	0.006
Mof_C 	C 	0.014	0.8366	0.35803	0.006
Mof_C 	C 	0.9693	0.8485	0.3871	0.009
Mof_C 	C 	0.9782	0.8177	0.32778	0.017
Mof_C 	C 	0.9016	0.7888	0.42049	0.159
Mof_C 	C 	0.8776	0.8382	0.43703	-0.101
Mof_C 	C 	0.8364	0.8274	0.46375	-0.085
Mof_C 	C 	0.8222	0.7707	0.4743	0.024
Mof_C 	C 	0.8492	0.7217	0.45868	-0.093
Mof_C 	C 	0.8888	0.7311	0.432	-0.091
Mof_C 	C 	0.8357	0.6577	0.47049	0.443
Mof_C 	C 	0.8925	0.8537	0.29526	0.143
Mof_C 	C 	0.8589	0.9048	0.2873	-0.084
Mof_C 	C 	0.8105	0.9	0.26503	-0.094
Mof_C 	C 	0.7973	0.8429	0.25098	0.022
Mof_C 	C 	0.8335	0.794	0.25842	-0.089
Mof_C 	C 	0.8815	0.7993	0.28018	-0.093
Mof_C 	C 	0.8194	0.7335	0.2445	0.394
Mof_C 	C 	0.1879	0.0777	0.3237	0.421
Mof_C 	C 	0.1739	0.0405	0.35507	-0.088
Mof_C 	C 	0.1317	0.996	0.35262	-0.1
Mof_C 	C 	0.1188	0.9583	0.38012	0.152
Mof_C 	C 	0.0496	0.8942	0.35137	0.024
Mof_C 	C 	0.1473	0.9723	0.41047	-0.102
Mof_C 	C 	0.1889	0.0186	0.41213	-0.079
Mof_C 	C 	0.2024	0.0521	0.3854	0.011
Mof_C 	C 	0.2209	0.0282	0.44521	0.346
Mof_C 	C 	0.3928	0.0775	0.27963	0.35
Mof_C 	C 	0.7263	0.4966	0.32144	0.347
Mof_C 	C 	0.7196	0.4573	0.35211	-0.048
Mof_C 	C 	0.7548	0.4669	0.38065	-0.015
Mof_C 	C 	0.7451	0.435	0.40778	-0.062
Mof_C 	C 	0.7811	0.4491	0.43869	0.381
Mof_C 	C 	0.4483	0.0512	0.50102	0.378
Mof_C 	C 	0.7047	0.3877	0.40865	-0.126
Mof_C 	C 	0.6716	0.3728	0.38022	0.182
Mof_C 	C 	0.6771	0.4098	0.35196	-0.124
Mof_C 	C 	0.6146	0.2932	0.40468	0.03
Mof_C 	C 	0.5574	0.2568	0.3952	0.009
Mof_C 	C 	0.5726	0.2153	0.36719	0.022
Mof_C 	C 	0.5205	0.1495	0.32979	0.154
Mof_C 	C 	0.5722	0.1285	0.31343	-0.097
Mof_C 	C 	0.5664	0.0938	0.28615	-0.082
Mof_C 	C 	0.5098	0.076	0.27359	0.001
Mof_C 	C 	0.456	0.0961	0.29068	-0.068
Mof_C 	C 	0.4622	0.1321	0.31873	-0.102
Mof_C 	C 	0.5071	0.2983	0.38405	0.006
Mof_C 	C 	0.4452	0.3791	0.40552	0.164
Mof_C 	C 	0.4244	0.3961	0.3742	-0.124
Mof_C 	C 	0.3822	0.4412	0.37062	-0.031
Mof_C 	C 	0.3623	0.4595	0.33676	0.306
Mof_C 	C 	0.3556	0.4661	0.39766	-0.01
Mof_C 	C 	0.3719	0.4456	0.43029	-0.088
Mof_C 	C 	0.4179	0.4044	0.43325	-0.093
Mof_C 	C 	0.3426	0.4725	0.45923	0.438
Mof_C 	C 	0.8082	0.8828	0.48068	0.43
Mof_C 	C 	0.1964	0.6244	0.4157	0.394
Mof_C 	C 	0.6762	0.0209	0.4972	0.459
Mof_C 	C 	0.6197	0.0547	0.48866	-0.105
Mof_C 	C 	0.6239	0.1053	0.46694	-0.083
Mof_C 	C 	0.5731	0.1377	0.45864	0.152
Mof_C 	C 	0.5335	0.2198	0.42557	-0.004
Mof_C 	C 	0.5152	0.1219	0.47036	-0.093
Mof_C 	C 	0.5094	0.0714	0.49103	-0.086
Mof_C 	C 	0.5592	0.0381	0.49937	0.027
Mof_C 	C 	0.1226	0.4269	0.73076	0.406
Mof_C 	C 	0.2728	0.5451	0.74283	0.422
Mof_C 	C 	0.7235	0.8816	0.7103	0.45
Mof_C 	C 	0.6981	0.8524	0.68033	-0.107
Mof_C 	C 	0.7101	0.8758	0.64899	0.014
Mof_C 	C 	0.6843	0.8539	0.62112	-0.054
Mof_C 	C 	0.6448	0.8024	0.62261	-0.12
Mof_C 	C 	0.6313	0.7766	0.65395	0.164
Mof_C 	C 	0.6588	0.8048	0.68266	-0.081
Mof_C 	C 	0.5582	0.7132	0.63137	0.006
Mof_C 	C 	0.514	0.6634	0.64197	0.006
Mof_C 	C 	0.4693	0.6515	0.6129	0.009
Mof_C 	C 	0.4782	0.6823	0.67222	0.017
Mof_C 	C 	0.4016	0.7112	0.57951	0.159
Mof_C 	C 	0.3776	0.6618	0.56297	-0.101
Mof_C 	C 	0.3364	0.6726	0.53625	-0.085
Mof_C 	C 	0.3222	0.7293	0.5257	0.024
Mof_C 	C 	0.3492	0.7783	0.54132	-0.093
Mof_C 	C 	0.3888	0.7689	0.568	-0.091
Mof_C 	C 	0.3357	0.8423	0.52951	0.443
Mof_C 	C 	0.3925	0.6463	0.70474	0.143
Mof_C 	C 	0.3589	0.5952	0.7127	-0.084
Mof_C 	C 	0.3105	0.6	0.73497	-0.094
Mof_C 	C 	0.2973	0.6571	0.74902	0.022
Mof_C 	C 	0.3335	0.706	0.74158	-0.089
Mof_C 	C 	0.3815	0.7007	0.71982	-0.093
Mof_C 	C 	0.3194	0.7665	0.7555	0.394
Mof_C 	C 	0.6879	0.4223	0.6763	0.421
Mof_C 	C 	0.6739	0.4595	0.64493	-0.087
Mof_C 	C 	0.6317	0.504	0.64738	-0.101
Mof_C 	C 	0.6188	0.5417	0.61988	0.152
Mof_C 	C 	0.5496	0.6058	0.64863	0.024
Mof_C 	C 	0.6473	0.5277	0.58953	-0.103
Mof_C 	C 	0.6889	0.4814	0.58787	-0.078
Mof_C 	C 	0.7024	0.4479	0.6146	0.01
Mof_C 	C 	0.7209	0.4718	0.55479	0.346
Mof_C 	C 	0.8928	0.4225	0.72037	0.35
Mof_C 	C 	0.2263	0.0034	0.67856	0.348
Mof_C 	C 	0.2196	0.0427	0.64789	-0.048
Mof_C 	C 	0.2548	0.0331	0.61935	-0.015
Mof_C 	C 	0.2451	0.065	0.59222	-0.062
Mof_C 	C 	0.2811	0.0509	0.56131	0.381
Mof_C 	C 	0.9483	0.4488	0.49898	0.378
Mof_C 	C 	0.2047	0.1123	0.59135	-0.126
Mof_C 	C 	0.1716	0.1272	0.61978	0.182
Mof_C 	C 	0.1771	0.0902	0.64804	-0.123
Mof_C 	C 	0.1146	0.2068	0.59532	0.03
Mof_C 	C 	0.0574	0.2432	0.6048	0.009
Mof_C 	C 	0.0726	0.2847	0.63281	0.022
Mof_C 	C 	0.0205	0.3505	0.67021	0.154
Mof_C 	C 	0.0722	0.3715	0.68657	-0.097
Mof_C 	C 	0.0664	0.4062	0.71385	-0.082
Mof_C 	C 	0.0098	0.424	0.72641	0.001
Mof_C 	C 	0.956	0.4039	0.70932	-0.068
Mof_C 	C 	0.9622	0.3679	0.68127	-0.102
Mof_C 	C 	0.0071	0.2017	0.61595	0.006
Mof_C 	C 	0.9452	0.1209	0.59448	0.164
Mof_C 	C 	0.9244	0.1039	0.6258	-0.124
Mof_C 	C 	0.8822	0.0588	0.62938	-0.031
Mof_C 	C 	0.8623	0.0405	0.66324	0.307
Mof_C 	C 	0.8556	0.0339	0.60234	-0.01
Mof_C 	C 	0.8719	0.0544	0.56971	-0.088
Mof_C 	C 	0.9179	0.0956	0.56675	-0.093
Mof_C 	C 	0.8426	0.0275	0.54077	0.438
Mof_C 	C 	0.3082	0.6172	0.51932	0.43
Mof_C 	C 	0.6964	0.8756	0.5843	0.394
Mof_C 	C 	0.1762	0.4791	0.5028	0.459
Mof_C 	C 	0.1197	0.4453	0.51134	-0.105
Mof_C 	C 	0.1239	0.3947	0.53306	-0.083
Mof_C 	C 	0.0731	0.3623	0.54136	0.152
Mof_C 	C 	0.0335	0.2802	0.57443	-0.004
Mof_C 	C 	0.0152	0.3781	0.52964	-0.093
Mof_C 	C 	0.0094	0.4286	0.50897	-0.086
Mof_C 	C 	0.0592	0.4619	0.50063	0.027
Mof_C 	C 	0.3774	0.5731	0.23076	0.406
Mof_C 	C 	0.2272	0.4549	0.24283	0.422
Mof_C 	C 	0.7765	0.1184	0.2103	0.45
Mof_C 	C 	0.8019	0.1476	0.18033	-0.107
Mof_C 	C 	0.7899	0.1242	0.14899	0.014
Mof_C 	C 	0.8157	0.1461	0.12112	-0.054
Mof_C 	C 	0.8552	0.1976	0.12261	-0.12
Mof_C 	C 	0.8687	0.2234	0.15395	0.164
Mof_C 	C 	0.8412	0.1952	0.18266	-0.081
Mof_C 	C 	0.9418	0.2868	0.13137	0.006
Mof_C 	C 	0.986	0.3366	0.14197	0.006
Mof_C 	C 	0.0307	0.3485	0.1129	0.009
Mof_C 	C 	0.0218	0.3177	0.17222	0.017
Mof_C 	C 	0.0984	0.2888	0.07951	0.159
Mof_C 	C 	0.1224	0.3382	0.06297	-0.101
Mof_C 	C 	0.1636	0.3274	0.03625	-0.085
Mof_C 	C 	0.1778	0.2707	0.0257	0.024
Mof_C 	C 	0.1508	0.2217	0.04132	-0.093
Mof_C 	C 	0.1112	0.2311	0.068	-0.091
Mof_C 	C 	0.1643	0.1577	0.02951	0.443
Mof_C 	C 	0.1075	0.3537	0.20474	0.143
Mof_C 	C 	0.1411	0.4048	0.2127	-0.084
Mof_C 	C 	0.1895	0.4	0.23497	-0.094
Mof_C 	C 	0.2027	0.3429	0.24902	0.022
Mof_C 	C 	0.1665	0.294	0.24158	-0.089
Mof_C 	C 	0.1185	0.2993	0.21982	-0.093
Mof_C 	C 	0.1806	0.2335	0.2555	0.394
Mof_C 	C 	0.8121	0.5777	0.1763	0.421
Mof_C 	C 	0.8261	0.5405	0.14493	-0.087
Mof_C 	C 	0.8683	0.496	0.14738	-0.101
Mof_C 	C 	0.8812	0.4583	0.11988	0.152
Mof_C 	C 	0.9504	0.3942	0.14863	0.024
Mof_C 	C 	0.8527	0.4723	0.08953	-0.103
Mof_C 	C 	0.8111	0.5186	0.08787	-0.078
Mof_C 	C 	0.7976	0.5521	0.1146	0.01
Mof_C 	C 	0.7791	0.5282	0.05479	0.346
Mof_C 	C 	0.6072	0.5775	0.22037	0.35
Mof_C 	C 	0.2737	0.9966	0.17856	0.348
Mof_C 	C 	0.2804	0.9573	0.14789	-0.048
Mof_C 	C 	0.2452	0.9669	0.11935	-0.015
Mof_C 	C 	0.2549	0.935	0.09222	-0.062
Mof_C 	C 	0.2189	0.9491	0.06131	0.381
Mof_C 	C 	0.5517	0.5512	0.99898	0.378
Mof_C 	C 	0.2953	0.8877	0.09135	-0.126
Mof_C 	C 	0.3284	0.8728	0.11978	0.182
Mof_C 	C 	0.3229	0.9098	0.14804	-0.123
Mof_C 	C 	0.3854	0.7932	0.09532	0.03
Mof_C 	C 	0.4426	0.7568	0.1048	0.009
Mof_C 	C 	0.4274	0.7153	0.13281	0.022
Mof_C 	C 	0.4795	0.6495	0.17021	0.154
Mof_C 	C 	0.4278	0.6285	0.18657	-0.097
Mof_C 	C 	0.4336	0.5938	0.21385	-0.082
Mof_C 	C 	0.4902	0.576	0.22641	0.001
Mof_C 	C 	0.544	0.5961	0.20932	-0.068
Mof_C 	C 	0.5378	0.6321	0.18127	-0.102
Mof_C 	C 	0.4929	0.7983	0.11595	0.006
Mof_C 	C 	0.5548	0.8791	0.09448	0.164
Mof_C 	C 	0.5756	0.8961	0.1258	-0.124
Mof_C 	C 	0.6178	0.9412	0.12938	-0.031
Mof_C 	C 	0.6377	0.9595	0.16324	0.306
Mof_C 	C 	0.6444	0.9661	0.10234	-0.01
Mof_C 	C 	0.6281	0.9456	0.06971	-0.088
Mof_C 	C 	0.5821	0.9044	0.06675	-0.093
Mof_C 	C 	0.6574	0.9725	0.04077	0.438
Mof_C 	C 	0.1918	0.3828	0.01932	0.429
Mof_C 	C 	0.8036	0.1244	0.0843	0.394
Mof_C 	C 	0.3238	0.5209	0.0028	0.459
Mof_C 	C 	0.3803	0.5547	0.01134	-0.105
Mof_C 	C 	0.3761	0.6053	0.03306	-0.084
Mof_C 	C 	0.4269	0.6377	0.04136	0.152
Mof_C 	C 	0.4665	0.7198	0.07443	-0.004
Mof_C 	C 	0.4848	0.6219	0.02964	-0.093
Mof_C 	C 	0.4906	0.5714	0.00897	-0.086
Mof_C 	C 	0.4408	0.5381	0.00063	0.027
Mof_O 	O 	0.88238	0.95803	0.74247	-0.484
Mof_O 	O 	0.82709	0.90909	0.78011	-0.545
Mof_O 	O 	0.7131	0.99716	0.77139	-0.551
Mof_O 	O 	0.76854	0.05194	0.7356	-0.495
Mof_O 	O 	0.2385	0.42	0.79203	-0.55
Mof_O 	O 	0.2937	0.36378	0.7609	-0.521
Mof_O 	O 	0.40437	0.22944	0.84102	-0.233
Mof_O 	O 	0.56177	0.13551	0.81911	-0.224
Mof_O 	O 	0.55998	0.20839	0.89388	-0.223
Mof_O 	O 	0.64519	0.30957	0.75207	-0.531
Mof_O 	O 	0.72541	0.27059	0.72447	-0.493
Mof_O 	O 	0.62917	0.38243	0.95769	-0.525
Mof_O 	O 	0.7036	0.35061	0.99027	-0.557
Mof_O 	O 	0.75133	0.39587	0.75185	-0.702
Mof_O 	O 	0.34488	0.9331	0.79889	-0.573
Mof_O 	O 	0.27232	0.8838	0.82518	-0.522
Mof_O 	O 	0.15105	0.9047	0.79774	-0.52
Mof_O 	O 	0.11306	0.9515	0.75348	-0.483
Mof_O 	O 	0.8075	0.5151	0.79697	-0.492
Mof_O 	O 	0.7335	0.4653	0.82204	-0.355
Mof_O 	O 	0.05541	0.99468	0.01998	-0.495
Mof_O 	O 	0.0987	0.91874	0.99086	-0.49
Mof_O 	O 	0.67812	0.51156	0.93475	-0.517
Mof_O 	O 	0.72922	0.57844	0.9655	-0.514
Mof_O 	O 	0.17991	0.02158	0.99237	-0.699
Mof_O 	O 	0.29733	0.00386	0.9698	-0.504
Mof_O 	O 	0.23615	0.93413	0.94667	-0.479
Mof_O 	O 	0.87013	0.6716	0.87745	-0.239
Mof_O 	O 	0.42017	0.08959	0.88056	-0.234
Mof_O 	O 	0.97958	0.81641	0.85845	-0.228
Mof_O 	O 	0.1186	0.5678	0.81121	-0.334
Mof_O 	O 	0.17118	0.49563	0.83378	-0.428
Mof_O 	O 	0.14398	0.54775	0.98752	-0.509
Mof_O 	O 	0.1943	0.4867	0.95496	-0.52
Mof_O 	O 	0.67724	0.06657	0.96849	-0.555
Mof_O 	O 	0.72663	0.12739	0.00396	-0.506
Mof_O 	O 	0.77721	0.9617	0.98439	-0.575
Mof_O 	O 	0.83043	0.02401	0.01606	-0.502
Mof_O 	O 	0.2676	0.4198	0.91621	-0.439
Mof_O 	O 	0.3258	0.358	0.93865	-0.406
Mof_O 	O 	0.91493	0.81573	0.93707	-0.222
Mof_O 	O 	0.01107	0.66491	0.91124	-0.222
Mof_O 	O 	0.61762	0.04197	0.24247	-0.484
Mof_O 	O 	0.67291	0.09091	0.28011	-0.545
Mof_O 	O 	0.7869	0.00284	0.27139	-0.55
Mof_O 	O 	0.73146	0.94806	0.2356	-0.495
Mof_O 	O 	0.2615	0.58	0.29203	-0.55
Mof_O 	O 	0.2063	0.63622	0.2609	-0.521
Mof_O 	O 	0.09563	0.77056	0.34102	-0.233
Mof_O 	O 	0.93823	0.86449	0.31911	-0.224
Mof_O 	O 	0.94002	0.79161	0.39388	-0.223
Mof_O 	O 	0.85481	0.69043	0.25207	-0.531
Mof_O 	O 	0.77459	0.72941	0.22447	-0.493
Mof_O 	O 	0.87083	0.61757	0.45769	-0.525
Mof_O 	O 	0.7964	0.64939	0.49027	-0.557
Mof_O 	O 	0.74867	0.60413	0.25185	-0.702
Mof_O 	O 	0.15512	0.0669	0.29889	-0.573
Mof_O 	O 	0.22768	0.1162	0.32518	-0.522
Mof_O 	O 	0.34895	0.0953	0.29774	-0.52
Mof_O 	O 	0.38694	0.0485	0.25348	-0.483
Mof_O 	O 	0.6925	0.4849	0.29697	-0.492
Mof_O 	O 	0.7665	0.5347	0.32204	-0.355
Mof_O 	O 	0.44459	0.00532	0.51998	-0.494
Mof_O 	O 	0.4013	0.08126	0.49086	-0.49
Mof_O 	O 	0.82188	0.48844	0.43475	-0.517
Mof_O 	O 	0.77078	0.42156	0.4655	-0.514
Mof_O 	O 	0.32009	0.97842	0.49237	-0.699
Mof_O 	O 	0.20267	0.99614	0.4698	-0.504
Mof_O 	O 	0.26385	0.06587	0.44667	-0.479
Mof_O 	O 	0.62987	0.3284	0.37745	-0.239
Mof_O 	O 	0.07983	0.91041	0.38056	-0.234
Mof_O 	O 	0.52042	0.18359	0.35845	-0.228
Mof_O 	O 	0.3814	0.4322	0.31121	-0.334
Mof_O 	O 	0.32882	0.50437	0.33378	-0.428
Mof_O 	O 	0.35602	0.45225	0.48752	-0.509
Mof_O 	O 	0.3057	0.5133	0.45496	-0.52
Mof_O 	O 	0.82276	0.93343	0.46849	-0.555
Mof_O 	O 	0.77337	0.87261	0.50396	-0.506
Mof_O 	O 	0.72279	0.0383	0.48439	-0.575
Mof_O 	O 	0.66957	0.97599	0.51606	-0.502
Mof_O 	O 	0.2324	0.5802	0.41621	-0.439
Mof_O 	O 	0.1742	0.642	0.43865	-0.407
Mof_O 	O 	0.58507	0.18427	0.43707	-0.222
Mof_O 	O 	0.48893	0.33509	0.41124	-0.222
Mof_O 	O 	0.11762	0.45803	0.75753	-0.484
Mof_O 	O 	0.17291	0.40909	0.71989	-0.545
Mof_O 	O 	0.2869	0.49716	0.72861	-0.55
Mof_O 	O 	0.23146	0.55194	0.7644	-0.495
Mof_O 	O 	0.7615	0.92	0.70797	-0.55
Mof_O 	O 	0.7063	0.86378	0.7391	-0.521
Mof_O 	O 	0.59563	0.72944	0.65898	-0.233
Mof_O 	O 	0.43823	0.63551	0.68089	-0.224
Mof_O 	O 	0.44002	0.70839	0.60612	-0.223
Mof_O 	O 	0.35481	0.80957	0.74793	-0.531
Mof_O 	O 	0.27459	0.77059	0.77553	-0.493
Mof_O 	O 	0.37083	0.88243	0.54231	-0.525
Mof_O 	O 	0.2964	0.85061	0.50973	-0.557
Mof_O 	O 	0.24867	0.89587	0.74815	-0.702
Mof_O 	O 	0.65512	0.4331	0.70111	-0.573
Mof_O 	O 	0.72768	0.3838	0.67482	-0.522
Mof_O 	O 	0.84895	0.4047	0.70226	-0.52
Mof_O 	O 	0.88694	0.4515	0.74652	-0.483
Mof_O 	O 	0.1925	0.0151	0.70303	-0.492
Mof_O 	O 	0.2665	0.9653	0.67796	-0.355
Mof_O 	O 	0.94459	0.49468	0.48002	-0.495
Mof_O 	O 	0.9013	0.41874	0.50914	-0.49
Mof_O 	O 	0.32188	0.01156	0.56525	-0.517
Mof_O 	O 	0.27078	0.07844	0.5345	-0.514
Mof_O 	O 	0.82009	0.52158	0.50763	-0.699
Mof_O 	O 	0.70267	0.50386	0.5302	-0.504
Mof_O 	O 	0.76385	0.43413	0.55333	-0.479
Mof_O 	O 	0.12987	0.1716	0.62255	-0.239
Mof_O 	O 	0.57983	0.58959	0.61944	-0.234
Mof_O 	O 	0.02042	0.31641	0.64155	-0.228
Mof_O 	O 	0.8814	0.0678	0.68879	-0.334
Mof_O 	O 	0.82882	0.99563	0.66622	-0.429
Mof_O 	O 	0.85602	0.04775	0.51248	-0.509
Mof_O 	O 	0.8057	0.9867	0.54504	-0.52
Mof_O 	O 	0.32276	0.56657	0.53151	-0.555
Mof_O 	O 	0.27337	0.62739	0.49604	-0.506
Mof_O 	O 	0.22279	0.4617	0.51561	-0.575
Mof_O 	O 	0.16957	0.52401	0.48394	-0.502
Mof_O 	O 	0.7324	0.9198	0.58379	-0.439
Mof_O 	O 	0.6742	0.858	0.56135	-0.406
Mof_O 	O 	0.08507	0.31573	0.56293	-0.222
Mof_O 	O 	0.98893	0.16491	0.58876	-0.222
Mof_O 	O 	0.38238	0.54197	0.25753	-0.484
Mof_O 	O 	0.32709	0.59091	0.21989	-0.545
Mof_O 	O 	0.2131	0.50284	0.22861	-0.55
Mof_O 	O 	0.26854	0.44806	0.2644	-0.495
Mof_O 	O 	0.7385	0.08	0.20797	-0.55
Mof_O 	O 	0.7937	0.13622	0.2391	-0.521
Mof_O 	O 	0.90437	0.27056	0.15898	-0.233
Mof_O 	O 	0.06177	0.36449	0.18089	-0.224
Mof_O 	O 	0.05998	0.29161	0.10612	-0.223
Mof_O 	O 	0.14519	0.19043	0.24793	-0.531
Mof_O 	O 	0.22541	0.22941	0.27553	-0.493
Mof_O 	O 	0.12917	0.11757	0.04231	-0.525
Mof_O 	O 	0.2036	0.14939	0.00973	-0.557
Mof_O 	O 	0.25133	0.10413	0.24815	-0.702
Mof_O 	O 	0.84488	0.5669	0.20111	-0.573
Mof_O 	O 	0.77232	0.6162	0.17482	-0.522
Mof_O 	O 	0.65105	0.5953	0.20226	-0.52
Mof_O 	O 	0.61306	0.5485	0.24652	-0.483
Mof_O 	O 	0.3075	0.9849	0.20303	-0.492
Mof_O 	O 	0.2335	0.0347	0.17796	-0.355
Mof_O 	O 	0.55541	0.50532	0.98002	-0.494
Mof_O 	O 	0.5987	0.58126	0.00914	-0.49
Mof_O 	O 	0.17812	0.98844	0.06525	-0.517
Mof_O 	O 	0.22922	0.92156	0.0345	-0.514
Mof_O 	O 	0.67991	0.47842	0.00763	-0.699
Mof_O 	O 	0.79733	0.49614	0.0302	-0.504
Mof_O 	O 	0.73615	0.56587	0.05333	-0.479
Mof_O 	O 	0.37013	0.8284	0.12255	-0.239
Mof_O 	O 	0.92017	0.41041	0.11944	-0.234
Mof_O 	O 	0.47958	0.68359	0.14155	-0.228
Mof_O 	O 	0.6186	0.9322	0.18879	-0.334
Mof_O 	O 	0.67118	0.00437	0.16622	-0.428
Mof_O 	O 	0.64398	0.95225	0.01248	-0.509
Mof_O 	O 	0.6943	0.0133	0.04504	-0.52
Mof_O 	O 	0.17724	0.43343	0.03151	-0.555
Mof_O 	O 	0.22663	0.37261	0.99604	-0.506
Mof_O 	O 	0.27721	0.5383	0.01561	-0.575
Mof_O 	O 	0.33043	0.47599	0.98394	-0.502
Mof_O 	O 	0.7676	0.0802	0.08379	-0.439
Mof_O 	O 	0.8258	0.142	0.06135	-0.407
Mof_O 	O 	0.41493	0.68427	0.06293	-0.222
Mof_O 	O 	0.51107	0.83509	0.08876	-0.222
_end
