data_functionalizedCrystal
_audit_creation_method	'EQeq! by Chris Wilmer'
_symmetry_space_group_name_H-M	'P1'
_symmetry_Int_Tables_number	1
_symmetry_cell_setting	triclinic
loop_
_symmetry_equiv_pos_as_xyz
  x,y,z
_cell_length_a	30.4589
_cell_length_b	30.4589
_cell_length_c	44.287
_cell_angle_alpha	90
_cell_angle_beta	90
_cell_angle_gamma	90
loop_
_atom_site_label
_atom_site_type_symbol
_atom_site_fract_x
_atom_site_fract_y
_atom_site_fract_z
_atom_site_charge
Mof_Zn	Zn	0.02166	0.24479	0.13005	1.259
Mof_Zn	Zn	0.01255	0.15081	0.17314	1.186
Mof_C 	C 	0.7804	0.25	0.096	-0.078
Mof_H 	H 	0.793	0.2366	0.1128	0.068
Mof_C 	C 	0.7895	0.2421	0.0676	0.1
Mof_C 	C 	0.8243	0.2088	0.0516	-0.056
Mof_C 	C 	0.8327	0.1954	0.0196	0.136
Mof_C 	C 	0.8625	0.1642	0.0152	-0.095
Mof_H 	H 	0.8785	0.1474	0.0289	0.076
Mof_O 	O 	0.794	0.0664	0.116	-0.46
Mof_O 	O 	0.8465	0.0645	0.1489	-0.519
Mof_O 	O 	0.9687	0.1671	0.144	-0.517
Mof_O 	O 	0.9735	0.2226	0.1123	-0.525
Mof_C 	C 	0.9515	0.1932	0.1206	0.444
Mof_C 	C 	0.9111	0.1727	0.1117	-0.187
Mof_C 	C 	0.889	0.1375	0.1233	0.141
Mof_H 	H 	0.9024	0.1221	0.1389	-0.032
Mof_C 	C 	0.8495	0.1233	0.1139	-0.193
Mof_C 	C 	0.8269	0.0882	0.1266	0.399
Mof_C 	C 	0.8258	0.1467	0.0921	0.02
Mof_H 	H 	0.7972	0.1387	0.0873	0.048
Mof_C 	C 	0.8456	0.182	0.0779	-0.006
Mof_C 	C 	0.8864	0.1965	0.0897	0.012
Mof_H 	H 	0.8977	0.223	0.0827	0.052
Mof_O 	O 	0.0328	0.2982	0.1106	-0.39
Mof_O 	O 	0.0937	0.2923	0.1409	-0.264
Mof_C 	C 	0.0702	0.3142	0.1212	0.228
Mof_C 	C 	0.0894	0.3583	0.1128	0.049
Mof_C 	C 	0.0661	0.3804	0.0921	-0.142
Mof_H 	H 	0.0394	0.3689	0.0857	0.111
Mof_C 	C 	0.0431	0.4103	0.2495	0.142
Mof_C 	C 	0.0823	0.3875	0.252	-0.09
Mof_H 	H 	0.0862	0.3572	0.2533	0.07
Mof_C 	C 	0.0043	0.2665	0.223	0.043
Mof_C 	C 	0.0026	0.3128	0.226	-0.162
Mof_H 	H 	0.0034	0.3286	0.208	0.109
Mof_O 	O 	0.0052	0.2669	0.1673	-0.447
Mof_O 	O 	0.0138	0.1968	0.1972	-0.53
Mof_C 	C 	0.0124	0.242	0.1898	0.244
Mof_Zn	Zn	0.52166	0.74479	0.63005	1.259
Mof_Zn	Zn	0.51255	0.65081	0.67314	1.186
Mof_C 	C 	0.2804	0.75	0.596	-0.079
Mof_H 	H 	0.293	0.7366	0.6128	0.066
Mof_C 	C 	0.2895	0.7421	0.5676	0.099
Mof_C 	C 	0.3243	0.7088	0.5516	-0.057
Mof_C 	C 	0.3327	0.6954	0.5196	0.135
Mof_C 	C 	0.3625	0.6642	0.5152	-0.097
Mof_H 	H 	0.3785	0.6474	0.5289	0.075
Mof_O 	O 	0.294	0.5664	0.616	-0.461
Mof_O 	O 	0.3465	0.5645	0.6489	-0.52
Mof_O 	O 	0.4687	0.6671	0.644	-0.52
Mof_O 	O 	0.4735	0.7226	0.6123	-0.528
Mof_C 	C 	0.4515	0.6932	0.6206	0.444
Mof_C 	C 	0.4111	0.6727	0.6117	-0.189
Mof_C 	C 	0.389	0.6375	0.6233	0.14
Mof_H 	H 	0.4024	0.6221	0.6389	-0.033
Mof_C 	C 	0.3495	0.6233	0.6139	-0.195
Mof_C 	C 	0.3269	0.5882	0.6266	0.398
Mof_C 	C 	0.3258	0.6467	0.5921	0.019
Mof_H 	H 	0.2972	0.6387	0.5873	0.047
Mof_C 	C 	0.3456	0.682	0.5779	-0.008
Mof_C 	C 	0.3864	0.6965	0.5897	0.011
Mof_H 	H 	0.3977	0.723	0.5827	0.05
Mof_O 	O 	0.5328	0.7982	0.6106	-0.39
Mof_O 	O 	0.5937	0.7923	0.6409	-0.265
Mof_C 	C 	0.5702	0.8142	0.6212	0.227
Mof_C 	C 	0.5894	0.8583	0.6128	0.049
Mof_C 	C 	0.5661	0.8804	0.5921	-0.142
Mof_H 	H 	0.5394	0.8689	0.5857	0.112
Mof_C 	C 	0.5431	0.9103	0.7495	0.141
Mof_C 	C 	0.5823	0.8875	0.752	-0.088
Mof_H 	H 	0.5862	0.8572	0.7533	0.07
Mof_C 	C 	0.5043	0.7665	0.723	0.044
Mof_C 	C 	0.5026	0.8128	0.726	-0.163
Mof_H 	H 	0.5034	0.8286	0.708	0.11
Mof_O 	O 	0.5052	0.7669	0.6673	-0.445
Mof_O 	O 	0.5138	0.6968	0.6972	-0.529
Mof_C 	C 	0.5124	0.742	0.6898	0.245
Mof_Zn	Zn	0.97834	0.75521	0.13005	1.26
Mof_Zn	Zn	0.98745	0.84919	0.17314	1.187
Mof_C 	C 	0.2196	0.75	0.096	-0.079
Mof_H 	H 	0.207	0.7634	0.1128	0.066
Mof_C 	C 	0.2105	0.7579	0.0676	0.098
Mof_C 	C 	0.1757	0.7912	0.0516	-0.057
Mof_C 	C 	0.1673	0.8046	0.0196	0.135
Mof_C 	C 	0.1375	0.8358	0.0152	-0.096
Mof_H 	H 	0.1215	0.8526	0.0289	0.075
Mof_O 	O 	0.206	0.9336	0.116	-0.46
Mof_O 	O 	0.1535	0.9355	0.1489	-0.519
Mof_O 	O 	0.0313	0.8329	0.144	-0.522
Mof_O 	O 	0.0265	0.7774	0.1123	-0.531
Mof_C 	C 	0.0485	0.8068	0.1206	0.444
Mof_C 	C 	0.0889	0.8273	0.1117	-0.189
Mof_C 	C 	0.111	0.8625	0.1233	0.141
Mof_H 	H 	0.0976	0.8779	0.1389	-0.033
Mof_C 	C 	0.1505	0.8767	0.1139	-0.195
Mof_C 	C 	0.1731	0.9118	0.1266	0.398
Mof_C 	C 	0.1742	0.8533	0.0921	0.019
Mof_H 	H 	0.2028	0.8613	0.0873	0.047
Mof_C 	C 	0.1544	0.818	0.0779	-0.008
Mof_C 	C 	0.1136	0.8035	0.0897	0.011
Mof_H 	H 	0.1023	0.777	0.0827	0.049
Mof_O 	O 	0.9672	0.7018	0.1106	-0.389
Mof_O 	O 	0.9063	0.7077	0.1409	-0.265
Mof_C 	C 	0.9298	0.6858	0.1212	0.227
Mof_C 	C 	0.9106	0.6417	0.1128	0.05
Mof_C 	C 	0.9339	0.6196	0.0921	-0.142
Mof_H 	H 	0.9606	0.6311	0.0857	0.112
Mof_C 	C 	0.9569	0.5897	0.2495	0.147
Mof_C 	C 	0.9177	0.6125	0.252	-0.092
Mof_H 	H 	0.9138	0.6428	0.2533	0.072
Mof_C 	C 	0.9957	0.7335	0.223	0.047
Mof_C 	C 	0.9974	0.6872	0.226	-0.156
Mof_H 	H 	0.9966	0.6714	0.208	0.109
Mof_O 	O 	0.9948	0.7331	0.1673	-0.444
Mof_O 	O 	0.9862	0.8032	0.1972	-0.527
Mof_C 	C 	0.9876	0.758	0.1898	0.244
Mof_Zn	Zn	0.47834	0.25521	0.63005	1.259
Mof_Zn	Zn	0.48745	0.34919	0.67314	1.186
Mof_C 	C 	0.7196	0.25	0.596	-0.079
Mof_H 	H 	0.707	0.2634	0.6128	0.066
Mof_C 	C 	0.7105	0.2579	0.5676	0.098
Mof_C 	C 	0.6757	0.2912	0.5516	-0.057
Mof_C 	C 	0.6673	0.3046	0.5196	0.135
Mof_C 	C 	0.6375	0.3358	0.5152	-0.097
Mof_H 	H 	0.6215	0.3526	0.5289	0.075
Mof_O 	O 	0.706	0.4336	0.616	-0.461
Mof_O 	O 	0.6535	0.4355	0.6489	-0.52
Mof_O 	O 	0.5313	0.3329	0.644	-0.52
Mof_O 	O 	0.5265	0.2774	0.6123	-0.529
Mof_C 	C 	0.5485	0.3068	0.6206	0.444
Mof_C 	C 	0.5889	0.3273	0.6117	-0.189
Mof_C 	C 	0.611	0.3625	0.6233	0.14
Mof_H 	H 	0.5976	0.3779	0.6389	-0.033
Mof_C 	C 	0.6505	0.3767	0.6139	-0.195
Mof_C 	C 	0.6731	0.4118	0.6266	0.398
Mof_C 	C 	0.6742	0.3533	0.5921	0.019
Mof_H 	H 	0.7028	0.3613	0.5873	0.047
Mof_C 	C 	0.6544	0.318	0.5779	-0.008
Mof_C 	C 	0.6136	0.3035	0.5897	0.011
Mof_H 	H 	0.6023	0.277	0.5827	0.05
Mof_O 	O 	0.4672	0.2018	0.6106	-0.39
Mof_O 	O 	0.4063	0.2077	0.6409	-0.265
Mof_C 	C 	0.4298	0.1858	0.6212	0.227
Mof_C 	C 	0.4106	0.1417	0.6128	0.049
Mof_C 	C 	0.4339	0.1196	0.5921	-0.142
Mof_H 	H 	0.4606	0.1311	0.5857	0.111
Mof_C 	C 	0.4569	0.0897	0.7495	0.141
Mof_C 	C 	0.4177	0.1125	0.752	-0.089
Mof_H 	H 	0.4138	0.1428	0.7533	0.07
Mof_C 	C 	0.4957	0.2335	0.723	0.043
Mof_C 	C 	0.4974	0.1872	0.726	-0.163
Mof_H 	H 	0.4966	0.1714	0.708	0.11
Mof_O 	O 	0.4948	0.2331	0.6673	-0.446
Mof_O 	O 	0.4862	0.3032	0.6972	-0.529
Mof_C 	C 	0.4876	0.258	0.6898	0.245
Mof_Zn	Zn	0.75521	0.02166	0.13005	1.258
Mof_Zn	Zn	0.84919	0.01255	0.17314	1.185
Mof_C 	C 	0.75	0.7804	0.096	-0.079
Mof_H 	H 	0.7634	0.793	0.1128	0.067
Mof_C 	C 	0.7579	0.7895	0.0676	0.099
Mof_C 	C 	0.7912	0.8243	0.0516	-0.057
Mof_C 	C 	0.8046	0.8327	0.0196	0.135
Mof_C 	C 	0.8358	0.8625	0.0152	-0.096
Mof_H 	H 	0.8526	0.8785	0.0289	0.076
Mof_O 	O 	0.9336	0.794	0.116	-0.46
Mof_O 	O 	0.9355	0.8465	0.1489	-0.518
Mof_O 	O 	0.8329	0.9687	0.144	-0.517
Mof_O 	O 	0.7774	0.9735	0.1123	-0.525
Mof_C 	C 	0.8068	0.9515	0.1206	0.443
Mof_C 	C 	0.8273	0.9111	0.1117	-0.187
Mof_C 	C 	0.8625	0.889	0.1233	0.139
Mof_H 	H 	0.8779	0.9024	0.1389	-0.032
Mof_C 	C 	0.8767	0.8495	0.1139	-0.193
Mof_C 	C 	0.9118	0.8269	0.1266	0.398
Mof_C 	C 	0.8533	0.8258	0.0921	0.018
Mof_H 	H 	0.8613	0.7972	0.0873	0.047
Mof_C 	C 	0.818	0.8456	0.0779	-0.007
Mof_C 	C 	0.8035	0.8864	0.0897	0.011
Mof_H 	H 	0.777	0.8977	0.0827	0.051
Mof_O 	O 	0.7018	0.0328	0.1106	-0.391
Mof_O 	O 	0.7077	0.0937	0.1409	-0.265
Mof_C 	C 	0.6858	0.0702	0.1212	0.227
Mof_C 	C 	0.6417	0.0894	0.1128	0.048
Mof_C 	C 	0.6196	0.0661	0.0921	-0.142
Mof_H 	H 	0.6311	0.0394	0.0857	0.111
Mof_C 	C 	0.5897	0.0431	0.2495	0.142
Mof_C 	C 	0.6125	0.0823	0.252	-0.09
Mof_H 	H 	0.6428	0.0862	0.2533	0.07
Mof_C 	C 	0.7335	0.0043	0.223	0.044
Mof_C 	C 	0.6872	0.0026	0.226	-0.162
Mof_H 	H 	0.6714	0.0034	0.208	0.109
Mof_O 	O 	0.7331	0.0052	0.1673	-0.446
Mof_O 	O 	0.8032	0.0138	0.1972	-0.53
Mof_C 	C 	0.758	0.0124	0.1898	0.244
Mof_Zn	Zn	0.25521	0.52166	0.63005	1.259
Mof_Zn	Zn	0.34919	0.51255	0.67314	1.186
Mof_C 	C 	0.25	0.2804	0.596	-0.079
Mof_H 	H 	0.2634	0.293	0.6128	0.066
Mof_C 	C 	0.2579	0.2895	0.5676	0.098
Mof_C 	C 	0.2912	0.3243	0.5516	-0.057
Mof_C 	C 	0.3046	0.3327	0.5196	0.135
Mof_C 	C 	0.3358	0.3625	0.5152	-0.097
Mof_H 	H 	0.3526	0.3785	0.5289	0.075
Mof_O 	O 	0.4336	0.294	0.616	-0.461
Mof_O 	O 	0.4355	0.3465	0.6489	-0.52
Mof_O 	O 	0.3329	0.4687	0.644	-0.52
Mof_O 	O 	0.2774	0.4735	0.6123	-0.529
Mof_C 	C 	0.3068	0.4515	0.6206	0.444
Mof_C 	C 	0.3273	0.4111	0.6117	-0.189
Mof_C 	C 	0.3625	0.389	0.6233	0.14
Mof_H 	H 	0.3779	0.4024	0.6389	-0.033
Mof_C 	C 	0.3767	0.3495	0.6139	-0.195
Mof_C 	C 	0.4118	0.3269	0.6266	0.398
Mof_C 	C 	0.3533	0.3258	0.5921	0.019
Mof_H 	H 	0.3613	0.2972	0.5873	0.047
Mof_C 	C 	0.318	0.3456	0.5779	-0.008
Mof_C 	C 	0.3035	0.3864	0.5897	0.011
Mof_H 	H 	0.277	0.3977	0.5827	0.05
Mof_O 	O 	0.2018	0.5328	0.6106	-0.39
Mof_O 	O 	0.2077	0.5937	0.6409	-0.265
Mof_C 	C 	0.1858	0.5702	0.6212	0.227
Mof_C 	C 	0.1417	0.5894	0.6128	0.049
Mof_C 	C 	0.1196	0.5661	0.5921	-0.142
Mof_H 	H 	0.1311	0.5394	0.5857	0.111
Mof_C 	C 	0.0897	0.5431	0.7495	0.141
Mof_C 	C 	0.1125	0.5823	0.752	-0.089
Mof_H 	H 	0.1428	0.5862	0.7533	0.07
Mof_C 	C 	0.2335	0.5043	0.723	0.043
Mof_C 	C 	0.1872	0.5026	0.726	-0.163
Mof_H 	H 	0.1714	0.5034	0.708	0.11
Mof_O 	O 	0.2331	0.5052	0.6673	-0.446
Mof_O 	O 	0.3032	0.5138	0.6972	-0.529
Mof_C 	C 	0.258	0.5124	0.6898	0.245
Mof_Zn	Zn	0.24479	0.97834	0.13005	1.26
Mof_Zn	Zn	0.15081	0.98745	0.17314	1.187
Mof_C 	C 	0.25	0.2196	0.096	-0.079
Mof_H 	H 	0.2366	0.207	0.1128	0.066
Mof_C 	C 	0.2421	0.2105	0.0676	0.098
Mof_C 	C 	0.2088	0.1757	0.0516	-0.057
Mof_C 	C 	0.1954	0.1673	0.0196	0.134
Mof_C 	C 	0.1642	0.1375	0.0152	-0.097
Mof_H 	H 	0.1474	0.1215	0.0289	0.074
Mof_O 	O 	0.0664	0.206	0.116	-0.462
Mof_O 	O 	0.0645	0.1535	0.1489	-0.521
Mof_O 	O 	0.1671	0.0313	0.144	-0.523
Mof_O 	O 	0.2226	0.0265	0.1123	-0.531
Mof_C 	C 	0.1932	0.0485	0.1206	0.444
Mof_C 	C 	0.1727	0.0889	0.1117	-0.19
Mof_C 	C 	0.1375	0.111	0.1233	0.141
Mof_H 	H 	0.1221	0.0976	0.1389	-0.034
Mof_C 	C 	0.1233	0.1505	0.1139	-0.196
Mof_C 	C 	0.0882	0.1731	0.1266	0.399
Mof_C 	C 	0.1467	0.1742	0.0921	0.02
Mof_H 	H 	0.1387	0.2028	0.0873	0.046
Mof_C 	C 	0.182	0.1544	0.0779	-0.008
Mof_C 	C 	0.1965	0.1136	0.0897	0.012
Mof_H 	H 	0.223	0.1023	0.0827	0.049
Mof_O 	O 	0.2982	0.9672	0.1106	-0.389
Mof_O 	O 	0.2923	0.9063	0.1409	-0.265
Mof_C 	C 	0.3142	0.9298	0.1212	0.227
Mof_C 	C 	0.3583	0.9106	0.1128	0.05
Mof_C 	C 	0.3804	0.9339	0.0921	-0.142
Mof_H 	H 	0.3689	0.9606	0.0857	0.112
Mof_C 	C 	0.4103	0.9569	0.2495	0.147
Mof_C 	C 	0.3875	0.9177	0.252	-0.092
Mof_H 	H 	0.3572	0.9138	0.2533	0.072
Mof_C 	C 	0.2665	0.9957	0.223	0.047
Mof_C 	C 	0.3128	0.9974	0.226	-0.156
Mof_H 	H 	0.3286	0.9966	0.208	0.109
Mof_O 	O 	0.2669	0.9948	0.1673	-0.444
Mof_O 	O 	0.1968	0.9862	0.1972	-0.527
Mof_C 	C 	0.242	0.9876	0.1898	0.245
Mof_Zn	Zn	0.74479	0.47834	0.63005	1.259
Mof_Zn	Zn	0.65081	0.48745	0.67314	1.186
Mof_C 	C 	0.75	0.7196	0.596	-0.079
Mof_H 	H 	0.7366	0.707	0.6128	0.066
Mof_C 	C 	0.7421	0.7105	0.5676	0.099
Mof_C 	C 	0.7088	0.6757	0.5516	-0.057
Mof_C 	C 	0.6954	0.6673	0.5196	0.135
Mof_C 	C 	0.6642	0.6375	0.5152	-0.097
Mof_H 	H 	0.6474	0.6215	0.5289	0.075
Mof_O 	O 	0.5664	0.706	0.616	-0.461
Mof_O 	O 	0.5645	0.6535	0.6489	-0.52
Mof_O 	O 	0.6671	0.5313	0.644	-0.52
Mof_O 	O 	0.7226	0.5265	0.6123	-0.528
Mof_C 	C 	0.6932	0.5485	0.6206	0.444
Mof_C 	C 	0.6727	0.5889	0.6117	-0.189
Mof_C 	C 	0.6375	0.611	0.6233	0.14
Mof_H 	H 	0.6221	0.5976	0.6389	-0.033
Mof_C 	C 	0.6233	0.6505	0.6139	-0.195
Mof_C 	C 	0.5882	0.6731	0.6266	0.398
Mof_C 	C 	0.6467	0.6742	0.5921	0.019
Mof_H 	H 	0.6387	0.7028	0.5873	0.047
Mof_C 	C 	0.682	0.6544	0.5779	-0.008
Mof_C 	C 	0.6965	0.6136	0.5897	0.011
Mof_H 	H 	0.723	0.6023	0.5827	0.05
Mof_O 	O 	0.7982	0.4672	0.6106	-0.39
Mof_O 	O 	0.7923	0.4063	0.6409	-0.265
Mof_C 	C 	0.8142	0.4298	0.6212	0.227
Mof_C 	C 	0.8583	0.4106	0.6128	0.049
Mof_C 	C 	0.8804	0.4339	0.5921	-0.142
Mof_H 	H 	0.8689	0.4606	0.5857	0.112
Mof_C 	C 	0.9103	0.4569	0.7495	0.141
Mof_C 	C 	0.8875	0.4177	0.752	-0.088
Mof_H 	H 	0.8572	0.4138	0.7533	0.07
Mof_C 	C 	0.7665	0.4957	0.723	0.044
Mof_C 	C 	0.8128	0.4974	0.726	-0.163
Mof_H 	H 	0.8286	0.4966	0.708	0.11
Mof_O 	O 	0.7669	0.4948	0.6673	-0.445
Mof_O 	O 	0.6968	0.4862	0.6972	-0.529
Mof_C 	C 	0.742	0.4876	0.6898	0.245
Mof_Zn	Zn	0.97834	0.24479	0.36995	1.26
Mof_Zn	Zn	0.98745	0.15081	0.32686	1.187
Mof_C 	C 	0.2196	0.25	0.404	-0.079
Mof_H 	H 	0.207	0.2366	0.3872	0.066
Mof_C 	C 	0.2105	0.2421	0.4324	0.098
Mof_C 	C 	0.1757	0.2088	0.4484	-0.057
Mof_C 	C 	0.1673	0.1954	0.4804	0.135
Mof_C 	C 	0.1375	0.1642	0.4848	-0.098
Mof_H 	H 	0.1215	0.1474	0.4711	0.074
Mof_O 	O 	0.206	0.0664	0.384	-0.462
Mof_O 	O 	0.1535	0.0645	0.3511	-0.521
Mof_O 	O 	0.0313	0.1671	0.356	-0.523
Mof_O 	O 	0.0265	0.2226	0.3877	-0.531
Mof_C 	C 	0.0485	0.1932	0.3794	0.444
Mof_C 	C 	0.0889	0.1727	0.3883	-0.19
Mof_C 	C 	0.111	0.1375	0.3767	0.141
Mof_H 	H 	0.0976	0.1221	0.3611	-0.034
Mof_C 	C 	0.1505	0.1233	0.3861	-0.196
Mof_C 	C 	0.1731	0.0882	0.3734	0.399
Mof_C 	C 	0.1742	0.1467	0.4079	0.02
Mof_H 	H 	0.2028	0.1387	0.4127	0.046
Mof_C 	C 	0.1544	0.182	0.4221	-0.008
Mof_C 	C 	0.1136	0.1965	0.4103	0.012
Mof_H 	H 	0.1023	0.223	0.4173	0.049
Mof_O 	O 	0.9672	0.2982	0.3894	-0.389
Mof_O 	O 	0.9063	0.2923	0.3591	-0.265
Mof_C 	C 	0.9298	0.3142	0.3788	0.227
Mof_C 	C 	0.9106	0.3583	0.3872	0.05
Mof_C 	C 	0.9339	0.3804	0.4079	-0.142
Mof_H 	H 	0.9606	0.3689	0.4143	0.112
Mof_C 	C 	0.9569	0.4103	0.2505	0.147
Mof_C 	C 	0.9177	0.3875	0.248	-0.092
Mof_H 	H 	0.9138	0.3572	0.2467	0.072
Mof_C 	C 	0.9957	0.2665	0.277	0.047
Mof_C 	C 	0.9974	0.3128	0.274	-0.156
Mof_H 	H 	0.9966	0.3286	0.292	0.109
Mof_O 	O 	0.9948	0.2669	0.3327	-0.444
Mof_O 	O 	0.9862	0.1968	0.3028	-0.527
Mof_C 	C 	0.9876	0.242	0.3102	0.245
Mof_Zn	Zn	0.47834	0.74479	0.86995	1.259
Mof_Zn	Zn	0.48745	0.65081	0.82686	1.186
Mof_C 	C 	0.7196	0.75	0.904	-0.079
Mof_H 	H 	0.707	0.7366	0.8872	0.066
Mof_C 	C 	0.7105	0.7421	0.9324	0.098
Mof_C 	C 	0.6757	0.7088	0.9484	-0.057
Mof_C 	C 	0.6673	0.6954	0.9804	0.135
Mof_C 	C 	0.6375	0.6642	0.9848	-0.098
Mof_H 	H 	0.6215	0.6474	0.9711	0.075
Mof_O 	O 	0.706	0.5664	0.884	-0.461
Mof_O 	O 	0.6535	0.5645	0.8511	-0.52
Mof_O 	O 	0.5313	0.6671	0.856	-0.52
Mof_O 	O 	0.5265	0.7226	0.8877	-0.529
Mof_C 	C 	0.5485	0.6932	0.8794	0.444
Mof_C 	C 	0.5889	0.6727	0.8883	-0.189
Mof_C 	C 	0.611	0.6375	0.8767	0.14
Mof_H 	H 	0.5976	0.6221	0.8611	-0.033
Mof_C 	C 	0.6505	0.6233	0.8861	-0.195
Mof_C 	C 	0.6731	0.5882	0.8734	0.398
Mof_C 	C 	0.6742	0.6467	0.9079	0.019
Mof_H 	H 	0.7028	0.6387	0.9127	0.047
Mof_C 	C 	0.6544	0.682	0.9221	-0.008
Mof_C 	C 	0.6136	0.6965	0.9103	0.011
Mof_H 	H 	0.6023	0.723	0.9173	0.05
Mof_O 	O 	0.4672	0.7982	0.8894	-0.39
Mof_O 	O 	0.4063	0.7923	0.8591	-0.265
Mof_C 	C 	0.4298	0.8142	0.8788	0.227
Mof_C 	C 	0.4106	0.8583	0.8872	0.049
Mof_C 	C 	0.4339	0.8804	0.9079	-0.142
Mof_H 	H 	0.4606	0.8689	0.9143	0.112
Mof_C 	C 	0.4569	0.9103	0.7505	0.141
Mof_C 	C 	0.4177	0.8875	0.748	-0.088
Mof_H 	H 	0.4138	0.8572	0.7467	0.07
Mof_C 	C 	0.4957	0.7665	0.777	0.044
Mof_C 	C 	0.4974	0.8128	0.774	-0.163
Mof_H 	H 	0.4966	0.8286	0.792	0.11
Mof_O 	O 	0.4948	0.7669	0.8327	-0.445
Mof_O 	O 	0.4862	0.6968	0.8028	-0.529
Mof_C 	C 	0.4876	0.742	0.8102	0.245
Mof_Zn	Zn	0.02166	0.75521	0.36995	1.258
Mof_Zn	Zn	0.01255	0.84919	0.32686	1.185
Mof_C 	C 	0.7804	0.75	0.404	-0.079
Mof_H 	H 	0.793	0.7634	0.3872	0.067
Mof_C 	C 	0.7895	0.7579	0.4324	0.099
Mof_C 	C 	0.8243	0.7912	0.4484	-0.057
Mof_C 	C 	0.8327	0.8046	0.4804	0.135
Mof_C 	C 	0.8625	0.8358	0.4848	-0.097
Mof_H 	H 	0.8785	0.8526	0.4711	0.076
Mof_O 	O 	0.794	0.9336	0.384	-0.46
Mof_O 	O 	0.8465	0.9355	0.3511	-0.518
Mof_O 	O 	0.9687	0.8329	0.356	-0.517
Mof_O 	O 	0.9735	0.7774	0.3877	-0.525
Mof_C 	C 	0.9515	0.8068	0.3794	0.443
Mof_C 	C 	0.9111	0.8273	0.3883	-0.187
Mof_C 	C 	0.889	0.8625	0.3767	0.139
Mof_H 	H 	0.9024	0.8779	0.3611	-0.032
Mof_C 	C 	0.8495	0.8767	0.3861	-0.193
Mof_C 	C 	0.8269	0.9118	0.3734	0.398
Mof_C 	C 	0.8258	0.8533	0.4079	0.018
Mof_H 	H 	0.7972	0.8613	0.4127	0.047
Mof_C 	C 	0.8456	0.818	0.4221	-0.007
Mof_C 	C 	0.8864	0.8035	0.4103	0.011
Mof_H 	H 	0.8977	0.777	0.4173	0.051
Mof_O 	O 	0.0328	0.7018	0.3894	-0.391
Mof_O 	O 	0.0937	0.7077	0.3591	-0.265
Mof_C 	C 	0.0702	0.6858	0.3788	0.227
Mof_C 	C 	0.0894	0.6417	0.3872	0.048
Mof_C 	C 	0.0661	0.6196	0.4079	-0.142
Mof_H 	H 	0.0394	0.6311	0.4143	0.111
Mof_C 	C 	0.0431	0.5897	0.2505	0.142
Mof_C 	C 	0.0823	0.6125	0.248	-0.09
Mof_H 	H 	0.0862	0.6428	0.2467	0.07
Mof_C 	C 	0.0043	0.7335	0.277	0.044
Mof_C 	C 	0.0026	0.6872	0.274	-0.162
Mof_H 	H 	0.0034	0.6714	0.292	0.109
Mof_O 	O 	0.0052	0.7331	0.3327	-0.446
Mof_O 	O 	0.0138	0.8032	0.3028	-0.53
Mof_C 	C 	0.0124	0.758	0.3102	0.244
Mof_Zn	Zn	0.52166	0.25521	0.86995	1.259
Mof_Zn	Zn	0.51255	0.34919	0.82686	1.186
Mof_C 	C 	0.2804	0.25	0.904	-0.079
Mof_H 	H 	0.293	0.2634	0.8872	0.066
Mof_C 	C 	0.2895	0.2579	0.9324	0.098
Mof_C 	C 	0.3243	0.2912	0.9484	-0.057
Mof_C 	C 	0.3327	0.3046	0.9804	0.135
Mof_C 	C 	0.3625	0.3358	0.9848	-0.098
Mof_H 	H 	0.3785	0.3526	0.9711	0.075
Mof_O 	O 	0.294	0.4336	0.884	-0.461
Mof_O 	O 	0.3465	0.4355	0.8511	-0.52
Mof_O 	O 	0.4687	0.3329	0.856	-0.52
Mof_O 	O 	0.4735	0.2774	0.8877	-0.529
Mof_C 	C 	0.4515	0.3068	0.8794	0.444
Mof_C 	C 	0.4111	0.3273	0.8883	-0.189
Mof_C 	C 	0.389	0.3625	0.8767	0.14
Mof_H 	H 	0.4024	0.3779	0.8611	-0.033
Mof_C 	C 	0.3495	0.3767	0.8861	-0.195
Mof_C 	C 	0.3269	0.4118	0.8734	0.398
Mof_C 	C 	0.3258	0.3533	0.9079	0.019
Mof_H 	H 	0.2972	0.3613	0.9127	0.047
Mof_C 	C 	0.3456	0.318	0.9221	-0.008
Mof_C 	C 	0.3864	0.3035	0.9103	0.011
Mof_H 	H 	0.3977	0.277	0.9173	0.05
Mof_O 	O 	0.5328	0.2018	0.8894	-0.39
Mof_O 	O 	0.5937	0.2077	0.8591	-0.265
Mof_C 	C 	0.5702	0.1858	0.8788	0.227
Mof_C 	C 	0.5894	0.1417	0.8872	0.049
Mof_C 	C 	0.5661	0.1196	0.9079	-0.142
Mof_H 	H 	0.5394	0.1311	0.9143	0.111
Mof_C 	C 	0.5431	0.0897	0.7505	0.141
Mof_C 	C 	0.5823	0.1125	0.748	-0.089
Mof_H 	H 	0.5862	0.1428	0.7467	0.07
Mof_C 	C 	0.5043	0.2335	0.777	0.043
Mof_C 	C 	0.5026	0.1872	0.774	-0.163
Mof_H 	H 	0.5034	0.1714	0.792	0.11
Mof_O 	O 	0.5052	0.2331	0.8327	-0.446
Mof_O 	O 	0.5138	0.3032	0.8028	-0.529
Mof_C 	C 	0.5124	0.258	0.8102	0.245
Mof_Zn	Zn	0.24479	0.02166	0.36995	1.258
Mof_Zn	Zn	0.15081	0.01255	0.32686	1.185
Mof_C 	C 	0.25	0.7804	0.404	-0.079
Mof_H 	H 	0.2366	0.793	0.3872	0.067
Mof_C 	C 	0.2421	0.7895	0.4324	0.099
Mof_C 	C 	0.2088	0.8243	0.4484	-0.057
Mof_C 	C 	0.1954	0.8327	0.4804	0.135
Mof_C 	C 	0.1642	0.8625	0.4848	-0.097
Mof_H 	H 	0.1474	0.8785	0.4711	0.075
Mof_O 	O 	0.0664	0.794	0.384	-0.461
Mof_O 	O 	0.0645	0.8465	0.3511	-0.52
Mof_O 	O 	0.1671	0.9687	0.356	-0.518
Mof_O 	O 	0.2226	0.9735	0.3877	-0.526
Mof_C 	C 	0.1932	0.9515	0.3794	0.443
Mof_C 	C 	0.1727	0.9111	0.3883	-0.188
Mof_C 	C 	0.1375	0.889	0.3767	0.14
Mof_H 	H 	0.1221	0.9024	0.3611	-0.033
Mof_C 	C 	0.1233	0.8495	0.3861	-0.194
Mof_C 	C 	0.0882	0.8269	0.3734	0.398
Mof_C 	C 	0.1467	0.8258	0.4079	0.019
Mof_H 	H 	0.1387	0.7972	0.4127	0.047
Mof_C 	C 	0.182	0.8456	0.4221	-0.007
Mof_C 	C 	0.1965	0.8864	0.4103	0.011
Mof_H 	H 	0.223	0.8977	0.4173	0.051
Mof_O 	O 	0.2982	0.0328	0.3894	-0.391
Mof_O 	O 	0.2923	0.0937	0.3591	-0.265
Mof_C 	C 	0.3142	0.0702	0.3788	0.227
Mof_C 	C 	0.3583	0.0894	0.3872	0.048
Mof_C 	C 	0.3804	0.0661	0.4079	-0.142
Mof_H 	H 	0.3689	0.0394	0.4143	0.111
Mof_C 	C 	0.4103	0.0431	0.2505	0.142
Mof_C 	C 	0.3875	0.0823	0.248	-0.09
Mof_H 	H 	0.3572	0.0862	0.2467	0.07
Mof_C 	C 	0.2665	0.0043	0.277	0.043
Mof_C 	C 	0.3128	0.0026	0.274	-0.162
Mof_H 	H 	0.3286	0.0034	0.292	0.109
Mof_O 	O 	0.2669	0.0052	0.3327	-0.446
Mof_O 	O 	0.1968	0.0138	0.3028	-0.53
Mof_C 	C 	0.242	0.0124	0.3102	0.244
Mof_Zn	Zn	0.74479	0.52166	0.86995	1.259
Mof_Zn	Zn	0.65081	0.51255	0.82686	1.186
Mof_C 	C 	0.75	0.2804	0.904	-0.079
Mof_H 	H 	0.7366	0.293	0.8872	0.066
Mof_C 	C 	0.7421	0.2895	0.9324	0.098
Mof_C 	C 	0.7088	0.3243	0.9484	-0.057
Mof_C 	C 	0.6954	0.3327	0.9804	0.135
Mof_C 	C 	0.6642	0.3625	0.9848	-0.098
Mof_H 	H 	0.6474	0.3785	0.9711	0.075
Mof_O 	O 	0.5664	0.294	0.884	-0.461
Mof_O 	O 	0.5645	0.3465	0.8511	-0.52
Mof_O 	O 	0.6671	0.4687	0.856	-0.52
Mof_O 	O 	0.7226	0.4735	0.8877	-0.529
Mof_C 	C 	0.6932	0.4515	0.8794	0.444
Mof_C 	C 	0.6727	0.4111	0.8883	-0.189
Mof_C 	C 	0.6375	0.389	0.8767	0.14
Mof_H 	H 	0.6221	0.4024	0.8611	-0.033
Mof_C 	C 	0.6233	0.3495	0.8861	-0.195
Mof_C 	C 	0.5882	0.3269	0.8734	0.398
Mof_C 	C 	0.6467	0.3258	0.9079	0.019
Mof_H 	H 	0.6387	0.2972	0.9127	0.047
Mof_C 	C 	0.682	0.3456	0.9221	-0.008
Mof_C 	C 	0.6965	0.3864	0.9103	0.011
Mof_H 	H 	0.723	0.3977	0.9173	0.05
Mof_O 	O 	0.7982	0.5328	0.8894	-0.39
Mof_O 	O 	0.7923	0.5937	0.8591	-0.265
Mof_C 	C 	0.8142	0.5702	0.8788	0.227
Mof_C 	C 	0.8583	0.5894	0.8872	0.049
Mof_C 	C 	0.8804	0.5661	0.9079	-0.142
Mof_H 	H 	0.8689	0.5394	0.9143	0.112
Mof_C 	C 	0.9103	0.5431	0.7505	0.141
Mof_C 	C 	0.8875	0.5823	0.748	-0.088
Mof_H 	H 	0.8572	0.5862	0.7467	0.07
Mof_C 	C 	0.7665	0.5043	0.777	0.044
Mof_C 	C 	0.8128	0.5026	0.774	-0.163
Mof_H 	H 	0.8286	0.5034	0.792	0.11
Mof_O 	O 	0.7669	0.5052	0.8327	-0.445
Mof_O 	O 	0.6968	0.5138	0.8028	-0.529
Mof_C 	C 	0.742	0.5124	0.8102	0.245
Mof_Zn	Zn	0.75521	0.97834	0.36995	1.26
Mof_Zn	Zn	0.84919	0.98745	0.32686	1.187
Mof_C 	C 	0.75	0.2196	0.404	-0.079
Mof_H 	H 	0.7634	0.207	0.3872	0.066
Mof_C 	C 	0.7579	0.2105	0.4324	0.098
Mof_C 	C 	0.7912	0.1757	0.4484	-0.057
Mof_C 	C 	0.8046	0.1673	0.4804	0.135
Mof_C 	C 	0.8358	0.1375	0.4848	-0.097
Mof_H 	H 	0.8526	0.1215	0.4711	0.075
Mof_O 	O 	0.9336	0.206	0.384	-0.46
Mof_O 	O 	0.9355	0.1535	0.3511	-0.519
Mof_O 	O 	0.8329	0.0313	0.356	-0.522
Mof_O 	O 	0.7774	0.0265	0.3877	-0.531
Mof_C 	C 	0.8068	0.0485	0.3794	0.444
Mof_C 	C 	0.8273	0.0889	0.3883	-0.189
Mof_C 	C 	0.8625	0.111	0.3767	0.141
Mof_H 	H 	0.8779	0.0976	0.3611	-0.033
Mof_C 	C 	0.8767	0.1505	0.3861	-0.195
Mof_C 	C 	0.9118	0.1731	0.3734	0.398
Mof_C 	C 	0.8533	0.1742	0.4079	0.019
Mof_H 	H 	0.8613	0.2028	0.4127	0.047
Mof_C 	C 	0.818	0.1544	0.4221	-0.008
Mof_C 	C 	0.8035	0.1136	0.4103	0.011
Mof_H 	H 	0.777	0.1023	0.4173	0.049
Mof_O 	O 	0.7018	0.9672	0.3894	-0.389
Mof_O 	O 	0.7077	0.9063	0.3591	-0.265
Mof_C 	C 	0.6858	0.9298	0.3788	0.227
Mof_C 	C 	0.6417	0.9106	0.3872	0.05
Mof_C 	C 	0.6196	0.9339	0.4079	-0.142
Mof_H 	H 	0.6311	0.9606	0.4143	0.112
Mof_C 	C 	0.5897	0.9569	0.2505	0.147
Mof_C 	C 	0.6125	0.9177	0.248	-0.092
Mof_H 	H 	0.6428	0.9138	0.2467	0.072
Mof_C 	C 	0.7335	0.9957	0.277	0.047
Mof_C 	C 	0.6872	0.9974	0.274	-0.156
Mof_H 	H 	0.6714	0.9966	0.292	0.109
Mof_O 	O 	0.7331	0.9948	0.3327	-0.444
Mof_O 	O 	0.8032	0.9862	0.3028	-0.527
Mof_C 	C 	0.758	0.9876	0.3102	0.244
Mof_Zn	Zn	0.25521	0.47834	0.86995	1.259
Mof_Zn	Zn	0.34919	0.48745	0.82686	1.186
Mof_C 	C 	0.25	0.7196	0.904	-0.079
Mof_H 	H 	0.2634	0.707	0.8872	0.066
Mof_C 	C 	0.2579	0.7105	0.9324	0.098
Mof_C 	C 	0.2912	0.6757	0.9484	-0.057
Mof_C 	C 	0.3046	0.6673	0.9804	0.135
Mof_C 	C 	0.3358	0.6375	0.9848	-0.098
Mof_H 	H 	0.3526	0.6215	0.9711	0.075
Mof_O 	O 	0.4336	0.706	0.884	-0.461
Mof_O 	O 	0.4355	0.6535	0.8511	-0.52
Mof_O 	O 	0.3329	0.5313	0.856	-0.52
Mof_O 	O 	0.2774	0.5265	0.8877	-0.529
Mof_C 	C 	0.3068	0.5485	0.8794	0.444
Mof_C 	C 	0.3273	0.5889	0.8883	-0.189
Mof_C 	C 	0.3625	0.611	0.8767	0.14
Mof_H 	H 	0.3779	0.5976	0.8611	-0.033
Mof_C 	C 	0.3767	0.6505	0.8861	-0.195
Mof_C 	C 	0.4118	0.6731	0.8734	0.398
Mof_C 	C 	0.3533	0.6742	0.9079	0.019
Mof_H 	H 	0.3613	0.7028	0.9127	0.047
Mof_C 	C 	0.318	0.6544	0.9221	-0.008
Mof_C 	C 	0.3035	0.6136	0.9103	0.011
Mof_H 	H 	0.277	0.6023	0.9173	0.05
Mof_O 	O 	0.2018	0.4672	0.8894	-0.39
Mof_O 	O 	0.2077	0.4063	0.8591	-0.265
Mof_C 	C 	0.1858	0.4298	0.8788	0.227
Mof_C 	C 	0.1417	0.4106	0.8872	0.049
Mof_C 	C 	0.1196	0.4339	0.9079	-0.142
Mof_H 	H 	0.1311	0.4606	0.9143	0.111
Mof_C 	C 	0.0897	0.4569	0.7505	0.141
Mof_C 	C 	0.1125	0.4177	0.748	-0.089
Mof_H 	H 	0.1428	0.4138	0.7467	0.07
Mof_C 	C 	0.2335	0.4957	0.777	0.043
Mof_C 	C 	0.1872	0.4974	0.774	-0.163
Mof_H 	H 	0.1714	0.4966	0.792	0.11
Mof_O 	O 	0.2331	0.4948	0.8327	-0.446
Mof_O 	O 	0.3032	0.4862	0.8028	-0.529
Mof_C 	C 	0.258	0.4876	0.8102	0.245
Mof_Zn	Zn	0.97834	0.75521	0.86995	1.26
Mof_Zn	Zn	0.98745	0.84919	0.82686	1.187
Mof_C 	C 	0.2196	0.75	0.904	-0.079
Mof_H 	H 	0.207	0.7634	0.8872	0.066
Mof_C 	C 	0.2105	0.7579	0.9324	0.098
Mof_C 	C 	0.1757	0.7912	0.9484	-0.057
Mof_C 	C 	0.1673	0.8046	0.9804	0.135
Mof_C 	C 	0.1375	0.8358	0.9848	-0.098
Mof_H 	H 	0.1215	0.8526	0.9711	0.075
Mof_O 	O 	0.206	0.9336	0.884	-0.46
Mof_O 	O 	0.1535	0.9355	0.8511	-0.519
Mof_O 	O 	0.0313	0.8329	0.856	-0.522
Mof_O 	O 	0.0265	0.7774	0.8877	-0.531
Mof_C 	C 	0.0485	0.8068	0.8794	0.444
Mof_C 	C 	0.0889	0.8273	0.8883	-0.189
Mof_C 	C 	0.111	0.8625	0.8767	0.141
Mof_H 	H 	0.0976	0.8779	0.8611	-0.033
Mof_C 	C 	0.1505	0.8767	0.8861	-0.195
Mof_C 	C 	0.1731	0.9118	0.8734	0.398
Mof_C 	C 	0.1742	0.8533	0.9079	0.019
Mof_H 	H 	0.2028	0.8613	0.9127	0.047
Mof_C 	C 	0.1544	0.818	0.9221	-0.008
Mof_C 	C 	0.1136	0.8035	0.9103	0.011
Mof_H 	H 	0.1023	0.777	0.9173	0.049
Mof_O 	O 	0.9672	0.7018	0.8894	-0.389
Mof_O 	O 	0.9063	0.7077	0.8591	-0.265
Mof_C 	C 	0.9298	0.6858	0.8788	0.227
Mof_C 	C 	0.9106	0.6417	0.8872	0.05
Mof_C 	C 	0.9339	0.6196	0.9079	-0.142
Mof_H 	H 	0.9606	0.6311	0.9143	0.112
Mof_C 	C 	0.9569	0.5897	0.7505	0.147
Mof_C 	C 	0.9177	0.6125	0.748	-0.092
Mof_H 	H 	0.9138	0.6428	0.7467	0.072
Mof_C 	C 	0.9957	0.7335	0.777	0.047
Mof_C 	C 	0.9974	0.6872	0.774	-0.156
Mof_H 	H 	0.9966	0.6714	0.792	0.109
Mof_O 	O 	0.9948	0.7331	0.8327	-0.444
Mof_O 	O 	0.9862	0.8032	0.8028	-0.527
Mof_C 	C 	0.9876	0.758	0.8102	0.244
Mof_Zn	Zn	0.47834	0.25521	0.36995	1.259
Mof_Zn	Zn	0.48745	0.34919	0.32686	1.186
Mof_C 	C 	0.7196	0.25	0.404	-0.079
Mof_H 	H 	0.707	0.2634	0.3872	0.066
Mof_C 	C 	0.7105	0.2579	0.4324	0.098
Mof_C 	C 	0.6757	0.2912	0.4484	-0.057
Mof_C 	C 	0.6673	0.3046	0.4804	0.135
Mof_C 	C 	0.6375	0.3358	0.4848	-0.097
Mof_H 	H 	0.6215	0.3526	0.4711	0.075
Mof_O 	O 	0.706	0.4336	0.384	-0.461
Mof_O 	O 	0.6535	0.4355	0.3511	-0.52
Mof_O 	O 	0.5313	0.3329	0.356	-0.52
Mof_O 	O 	0.5265	0.2774	0.3877	-0.529
Mof_C 	C 	0.5485	0.3068	0.3794	0.444
Mof_C 	C 	0.5889	0.3273	0.3883	-0.189
Mof_C 	C 	0.611	0.3625	0.3767	0.14
Mof_H 	H 	0.5976	0.3779	0.3611	-0.033
Mof_C 	C 	0.6505	0.3767	0.3861	-0.195
Mof_C 	C 	0.6731	0.4118	0.3734	0.398
Mof_C 	C 	0.6742	0.3533	0.4079	0.019
Mof_H 	H 	0.7028	0.3613	0.4127	0.047
Mof_C 	C 	0.6544	0.318	0.4221	-0.008
Mof_C 	C 	0.6136	0.3035	0.4103	0.011
Mof_H 	H 	0.6023	0.277	0.4173	0.05
Mof_O 	O 	0.4672	0.2018	0.3894	-0.39
Mof_O 	O 	0.4063	0.2077	0.3591	-0.265
Mof_C 	C 	0.4298	0.1858	0.3788	0.227
Mof_C 	C 	0.4106	0.1417	0.3872	0.049
Mof_C 	C 	0.4339	0.1196	0.4079	-0.142
Mof_H 	H 	0.4606	0.1311	0.4143	0.111
Mof_C 	C 	0.4569	0.0897	0.2505	0.141
Mof_C 	C 	0.4177	0.1125	0.248	-0.089
Mof_H 	H 	0.4138	0.1428	0.2467	0.07
Mof_C 	C 	0.4957	0.2335	0.277	0.043
Mof_C 	C 	0.4974	0.1872	0.274	-0.163
Mof_H 	H 	0.4966	0.1714	0.292	0.11
Mof_O 	O 	0.4948	0.2331	0.3327	-0.446
Mof_O 	O 	0.4862	0.3032	0.3028	-0.529
Mof_C 	C 	0.4876	0.258	0.3102	0.245
Mof_Zn	Zn	0.02166	0.24479	0.86995	1.258
Mof_Zn	Zn	0.01255	0.15081	0.82686	1.185
Mof_C 	C 	0.7804	0.25	0.904	-0.079
Mof_H 	H 	0.793	0.2366	0.8872	0.067
Mof_C 	C 	0.7895	0.2421	0.9324	0.099
Mof_C 	C 	0.8243	0.2088	0.9484	-0.057
Mof_C 	C 	0.8327	0.1954	0.9804	0.135
Mof_C 	C 	0.8625	0.1642	0.9848	-0.098
Mof_H 	H 	0.8785	0.1474	0.9711	0.075
Mof_O 	O 	0.794	0.0664	0.884	-0.462
Mof_O 	O 	0.8465	0.0645	0.8511	-0.52
Mof_O 	O 	0.9687	0.1671	0.856	-0.518
Mof_O 	O 	0.9735	0.2226	0.8877	-0.526
Mof_C 	C 	0.9515	0.1932	0.8794	0.443
Mof_C 	C 	0.9111	0.1727	0.8883	-0.188
Mof_C 	C 	0.889	0.1375	0.8767	0.14
Mof_H 	H 	0.9024	0.1221	0.8611	-0.033
Mof_C 	C 	0.8495	0.1233	0.8861	-0.194
Mof_C 	C 	0.8269	0.0882	0.8734	0.398
Mof_C 	C 	0.8258	0.1467	0.9079	0.019
Mof_H 	H 	0.7972	0.1387	0.9127	0.047
Mof_C 	C 	0.8456	0.182	0.9221	-0.007
Mof_C 	C 	0.8864	0.1965	0.9103	0.011
Mof_H 	H 	0.8977	0.223	0.9173	0.051
Mof_O 	O 	0.0328	0.2982	0.8894	-0.391
Mof_O 	O 	0.0937	0.2923	0.8591	-0.265
Mof_C 	C 	0.0702	0.3142	0.8788	0.227
Mof_C 	C 	0.0894	0.3583	0.8872	0.048
Mof_C 	C 	0.0661	0.3804	0.9079	-0.142
Mof_H 	H 	0.0394	0.3689	0.9143	0.111
Mof_C 	C 	0.0431	0.4103	0.7505	0.142
Mof_C 	C 	0.0823	0.3875	0.748	-0.09
Mof_H 	H 	0.0862	0.3572	0.7467	0.07
Mof_C 	C 	0.0043	0.2665	0.777	0.043
Mof_C 	C 	0.0026	0.3128	0.774	-0.162
Mof_H 	H 	0.0034	0.3286	0.792	0.109
Mof_O 	O 	0.0052	0.2669	0.8327	-0.446
Mof_O 	O 	0.0138	0.1968	0.8028	-0.53
Mof_C 	C 	0.0124	0.242	0.8102	0.244
Mof_Zn	Zn	0.52166	0.74479	0.36995	1.259
Mof_Zn	Zn	0.51255	0.65081	0.32686	1.186
Mof_C 	C 	0.2804	0.75	0.404	-0.079
Mof_H 	H 	0.293	0.7366	0.3872	0.066
Mof_C 	C 	0.2895	0.7421	0.4324	0.099
Mof_C 	C 	0.3243	0.7088	0.4484	-0.057
Mof_C 	C 	0.3327	0.6954	0.4804	0.135
Mof_C 	C 	0.3625	0.6642	0.4848	-0.097
Mof_H 	H 	0.3785	0.6474	0.4711	0.075
Mof_O 	O 	0.294	0.5664	0.384	-0.461
Mof_O 	O 	0.3465	0.5645	0.3511	-0.52
Mof_O 	O 	0.4687	0.6671	0.356	-0.52
Mof_O 	O 	0.4735	0.7226	0.3877	-0.528
Mof_C 	C 	0.4515	0.6932	0.3794	0.444
Mof_C 	C 	0.4111	0.6727	0.3883	-0.189
Mof_C 	C 	0.389	0.6375	0.3767	0.14
Mof_H 	H 	0.4024	0.6221	0.3611	-0.033
Mof_C 	C 	0.3495	0.6233	0.3861	-0.195
Mof_C 	C 	0.3269	0.5882	0.3734	0.398
Mof_C 	C 	0.3258	0.6467	0.4079	0.019
Mof_H 	H 	0.2972	0.6387	0.4127	0.047
Mof_C 	C 	0.3456	0.682	0.4221	-0.008
Mof_C 	C 	0.3864	0.6965	0.4103	0.011
Mof_H 	H 	0.3977	0.723	0.4173	0.05
Mof_O 	O 	0.5328	0.7982	0.3894	-0.39
Mof_O 	O 	0.5937	0.7923	0.3591	-0.265
Mof_C 	C 	0.5702	0.8142	0.3788	0.227
Mof_C 	C 	0.5894	0.8583	0.3872	0.049
Mof_C 	C 	0.5661	0.8804	0.4079	-0.142
Mof_H 	H 	0.5394	0.8689	0.4143	0.112
Mof_C 	C 	0.5431	0.9103	0.2505	0.141
Mof_C 	C 	0.5823	0.8875	0.248	-0.088
Mof_H 	H 	0.5862	0.8572	0.2467	0.07
Mof_C 	C 	0.5043	0.7665	0.277	0.044
Mof_C 	C 	0.5026	0.8128	0.274	-0.163
Mof_H 	H 	0.5034	0.8286	0.292	0.11
Mof_O 	O 	0.5052	0.7669	0.3327	-0.445
Mof_O 	O 	0.5138	0.6968	0.3028	-0.529
Mof_C 	C 	0.5124	0.742	0.3102	0.245
Mof_Zn	Zn	0.24479	0.97834	0.86995	1.26
Mof_Zn	Zn	0.15081	0.98745	0.82686	1.187
Mof_C 	C 	0.25	0.2196	0.904	-0.079
Mof_H 	H 	0.2366	0.207	0.8872	0.066
Mof_C 	C 	0.2421	0.2105	0.9324	0.098
Mof_C 	C 	0.2088	0.1757	0.9484	-0.057
Mof_C 	C 	0.1954	0.1673	0.9804	0.134
Mof_C 	C 	0.1642	0.1375	0.9848	-0.098
Mof_H 	H 	0.1474	0.1215	0.9711	0.075
Mof_O 	O 	0.0664	0.206	0.884	-0.462
Mof_O 	O 	0.0645	0.1535	0.8511	-0.521
Mof_O 	O 	0.1671	0.0313	0.856	-0.523
Mof_O 	O 	0.2226	0.0265	0.8877	-0.531
Mof_C 	C 	0.1932	0.0485	0.8794	0.444
Mof_C 	C 	0.1727	0.0889	0.8883	-0.19
Mof_C 	C 	0.1375	0.111	0.8767	0.141
Mof_H 	H 	0.1221	0.0976	0.8611	-0.034
Mof_C 	C 	0.1233	0.1505	0.8861	-0.196
Mof_C 	C 	0.0882	0.1731	0.8734	0.399
Mof_C 	C 	0.1467	0.1742	0.9079	0.02
Mof_H 	H 	0.1387	0.2028	0.9127	0.046
Mof_C 	C 	0.182	0.1544	0.9221	-0.008
Mof_C 	C 	0.1965	0.1136	0.9103	0.012
Mof_H 	H 	0.223	0.1023	0.9173	0.049
Mof_O 	O 	0.2982	0.9672	0.8894	-0.389
Mof_O 	O 	0.2923	0.9063	0.8591	-0.265
Mof_C 	C 	0.3142	0.9298	0.8788	0.227
Mof_C 	C 	0.3583	0.9106	0.8872	0.05
Mof_C 	C 	0.3804	0.9339	0.9079	-0.142
Mof_H 	H 	0.3689	0.9606	0.9143	0.112
Mof_C 	C 	0.4103	0.9569	0.7505	0.147
Mof_C 	C 	0.3875	0.9177	0.748	-0.092
Mof_H 	H 	0.3572	0.9138	0.7467	0.072
Mof_C 	C 	0.2665	0.9957	0.777	0.047
Mof_C 	C 	0.3128	0.9974	0.774	-0.156
Mof_H 	H 	0.3286	0.9966	0.792	0.109
Mof_O 	O 	0.2669	0.9948	0.8327	-0.444
Mof_O 	O 	0.1968	0.9862	0.8028	-0.527
Mof_C 	C 	0.242	0.9876	0.8102	0.245
Mof_Zn	Zn	0.74479	0.47834	0.36995	1.259
Mof_Zn	Zn	0.65081	0.48745	0.32686	1.186
Mof_C 	C 	0.75	0.7196	0.404	-0.079
Mof_H 	H 	0.7366	0.707	0.3872	0.066
Mof_C 	C 	0.7421	0.7105	0.4324	0.099
Mof_C 	C 	0.7088	0.6757	0.4484	-0.057
Mof_C 	C 	0.6954	0.6673	0.4804	0.135
Mof_C 	C 	0.6642	0.6375	0.4848	-0.097
Mof_H 	H 	0.6474	0.6215	0.4711	0.075
Mof_O 	O 	0.5664	0.706	0.384	-0.461
Mof_O 	O 	0.5645	0.6535	0.3511	-0.52
Mof_O 	O 	0.6671	0.5313	0.356	-0.52
Mof_O 	O 	0.7226	0.5265	0.3877	-0.528
Mof_C 	C 	0.6932	0.5485	0.3794	0.444
Mof_C 	C 	0.6727	0.5889	0.3883	-0.189
Mof_C 	C 	0.6375	0.611	0.3767	0.14
Mof_H 	H 	0.6221	0.5976	0.3611	-0.033
Mof_C 	C 	0.6233	0.6505	0.3861	-0.195
Mof_C 	C 	0.5882	0.6731	0.3734	0.398
Mof_C 	C 	0.6467	0.6742	0.4079	0.019
Mof_H 	H 	0.6387	0.7028	0.4127	0.047
Mof_C 	C 	0.682	0.6544	0.4221	-0.008
Mof_C 	C 	0.6965	0.6136	0.4103	0.011
Mof_H 	H 	0.723	0.6023	0.4173	0.05
Mof_O 	O 	0.7982	0.4672	0.3894	-0.39
Mof_O 	O 	0.7923	0.4063	0.3591	-0.265
Mof_C 	C 	0.8142	0.4298	0.3788	0.227
Mof_C 	C 	0.8583	0.4106	0.3872	0.049
Mof_C 	C 	0.8804	0.4339	0.4079	-0.142
Mof_H 	H 	0.8689	0.4606	0.4143	0.112
Mof_C 	C 	0.9103	0.4569	0.2505	0.141
Mof_C 	C 	0.8875	0.4177	0.248	-0.088
Mof_H 	H 	0.8572	0.4138	0.2467	0.07
Mof_C 	C 	0.7665	0.4957	0.277	0.044
Mof_C 	C 	0.8128	0.4974	0.274	-0.163
Mof_H 	H 	0.8286	0.4966	0.292	0.11
Mof_O 	O 	0.7669	0.4948	0.3327	-0.445
Mof_O 	O 	0.6968	0.4862	0.3028	-0.529
Mof_C 	C 	0.742	0.4876	0.3102	0.245
Mof_Zn	Zn	0.75521	0.02166	0.86995	1.258
Mof_Zn	Zn	0.84919	0.01255	0.82686	1.185
Mof_C 	C 	0.75	0.7804	0.904	-0.079
Mof_H 	H 	0.7634	0.793	0.8872	0.067
Mof_C 	C 	0.7579	0.7895	0.9324	0.099
Mof_C 	C 	0.7912	0.8243	0.9484	-0.057
Mof_C 	C 	0.8046	0.8327	0.9804	0.135
Mof_C 	C 	0.8358	0.8625	0.9848	-0.098
Mof_H 	H 	0.8526	0.8785	0.9711	0.076
Mof_O 	O 	0.9336	0.794	0.884	-0.46
Mof_O 	O 	0.9355	0.8465	0.8511	-0.518
Mof_O 	O 	0.8329	0.9687	0.856	-0.517
Mof_O 	O 	0.7774	0.9735	0.8877	-0.526
Mof_C 	C 	0.8068	0.9515	0.8794	0.443
Mof_C 	C 	0.8273	0.9111	0.8883	-0.187
Mof_C 	C 	0.8625	0.889	0.8767	0.139
Mof_H 	H 	0.8779	0.9024	0.8611	-0.032
Mof_C 	C 	0.8767	0.8495	0.8861	-0.193
Mof_C 	C 	0.9118	0.8269	0.8734	0.398
Mof_C 	C 	0.8533	0.8258	0.9079	0.018
Mof_H 	H 	0.8613	0.7972	0.9127	0.047
Mof_C 	C 	0.818	0.8456	0.9221	-0.007
Mof_C 	C 	0.8035	0.8864	0.9103	0.011
Mof_H 	H 	0.777	0.8977	0.9173	0.051
Mof_O 	O 	0.7018	0.0328	0.8894	-0.391
Mof_O 	O 	0.7077	0.0937	0.8591	-0.265
Mof_C 	C 	0.6858	0.0702	0.8788	0.227
Mof_C 	C 	0.6417	0.0894	0.8872	0.048
Mof_C 	C 	0.6196	0.0661	0.9079	-0.142
Mof_H 	H 	0.6311	0.0394	0.9143	0.111
Mof_C 	C 	0.5897	0.0431	0.7505	0.142
Mof_C 	C 	0.6125	0.0823	0.748	-0.09
Mof_H 	H 	0.6428	0.0862	0.7467	0.07
Mof_C 	C 	0.7335	0.0043	0.777	0.044
Mof_C 	C 	0.6872	0.0026	0.774	-0.162
Mof_H 	H 	0.6714	0.0034	0.792	0.109
Mof_O 	O 	0.7331	0.0052	0.8327	-0.446
Mof_O 	O 	0.8032	0.0138	0.8028	-0.53
Mof_C 	C 	0.758	0.0124	0.8102	0.244
Mof_Zn	Zn	0.25521	0.52166	0.36995	1.259
Mof_Zn	Zn	0.34919	0.51255	0.32686	1.186
Mof_C 	C 	0.25	0.2804	0.404	-0.079
Mof_H 	H 	0.2634	0.293	0.3872	0.066
Mof_C 	C 	0.2579	0.2895	0.4324	0.098
Mof_C 	C 	0.2912	0.3243	0.4484	-0.057
Mof_C 	C 	0.3046	0.3327	0.4804	0.135
Mof_C 	C 	0.3358	0.3625	0.4848	-0.097
Mof_H 	H 	0.3526	0.3785	0.4711	0.075
Mof_O 	O 	0.4336	0.294	0.384	-0.461
Mof_O 	O 	0.4355	0.3465	0.3511	-0.52
Mof_O 	O 	0.3329	0.4687	0.356	-0.52
Mof_O 	O 	0.2774	0.4735	0.3877	-0.529
Mof_C 	C 	0.3068	0.4515	0.3794	0.444
Mof_C 	C 	0.3273	0.4111	0.3883	-0.189
Mof_C 	C 	0.3625	0.389	0.3767	0.14
Mof_H 	H 	0.3779	0.4024	0.3611	-0.033
Mof_C 	C 	0.3767	0.3495	0.3861	-0.195
Mof_C 	C 	0.4118	0.3269	0.3734	0.398
Mof_C 	C 	0.3533	0.3258	0.4079	0.019
Mof_H 	H 	0.3613	0.2972	0.4127	0.047
Mof_C 	C 	0.318	0.3456	0.4221	-0.008
Mof_C 	C 	0.3035	0.3864	0.4103	0.011
Mof_H 	H 	0.277	0.3977	0.4173	0.05
Mof_O 	O 	0.2018	0.5328	0.3894	-0.39
Mof_O 	O 	0.2077	0.5937	0.3591	-0.265
Mof_C 	C 	0.1858	0.5702	0.3788	0.227
Mof_C 	C 	0.1417	0.5894	0.3872	0.049
Mof_C 	C 	0.1196	0.5661	0.4079	-0.142
Mof_H 	H 	0.1311	0.5394	0.4143	0.111
Mof_C 	C 	0.0897	0.5431	0.2505	0.141
Mof_C 	C 	0.1125	0.5823	0.248	-0.089
Mof_H 	H 	0.1428	0.5862	0.2467	0.07
Mof_C 	C 	0.2335	0.5043	0.277	0.043
Mof_C 	C 	0.1872	0.5026	0.274	-0.163
Mof_H 	H 	0.1714	0.5034	0.292	0.11
Mof_O 	O 	0.2331	0.5052	0.3327	-0.446
Mof_O 	O 	0.3032	0.5138	0.3028	-0.529
Mof_C 	C 	0.258	0.5124	0.3102	0.245
Mof_Zn	Zn	0.02166	0.75521	0.63005	1.258
Mof_Zn	Zn	0.01255	0.84919	0.67314	1.185
Mof_C 	C 	0.7804	0.75	0.596	-0.079
Mof_H 	H 	0.793	0.7634	0.6128	0.067
Mof_C 	C 	0.7895	0.7579	0.5676	0.099
Mof_C 	C 	0.8243	0.7912	0.5516	-0.057
Mof_C 	C 	0.8327	0.8046	0.5196	0.135
Mof_C 	C 	0.8625	0.8358	0.5152	-0.097
Mof_H 	H 	0.8785	0.8526	0.5289	0.076
Mof_O 	O 	0.794	0.9336	0.616	-0.46
Mof_O 	O 	0.8465	0.9355	0.6489	-0.518
Mof_O 	O 	0.9687	0.8329	0.644	-0.517
Mof_O 	O 	0.9735	0.7774	0.6123	-0.525
Mof_C 	C 	0.9515	0.8068	0.6206	0.443
Mof_C 	C 	0.9111	0.8273	0.6117	-0.187
Mof_C 	C 	0.889	0.8625	0.6233	0.139
Mof_H 	H 	0.9024	0.8779	0.6389	-0.032
Mof_C 	C 	0.8495	0.8767	0.6139	-0.193
Mof_C 	C 	0.8269	0.9118	0.6266	0.398
Mof_C 	C 	0.8258	0.8533	0.5921	0.018
Mof_H 	H 	0.7972	0.8613	0.5873	0.047
Mof_C 	C 	0.8456	0.818	0.5779	-0.007
Mof_C 	C 	0.8864	0.8035	0.5897	0.011
Mof_H 	H 	0.8977	0.777	0.5827	0.051
Mof_O 	O 	0.0328	0.7018	0.6106	-0.391
Mof_O 	O 	0.0937	0.7077	0.6409	-0.265
Mof_C 	C 	0.0702	0.6858	0.6212	0.227
Mof_C 	C 	0.0894	0.6417	0.6128	0.048
Mof_C 	C 	0.0661	0.6196	0.5921	-0.142
Mof_H 	H 	0.0394	0.6311	0.5857	0.111
Mof_C 	C 	0.0431	0.5897	0.7495	0.142
Mof_C 	C 	0.0823	0.6125	0.752	-0.09
Mof_H 	H 	0.0862	0.6428	0.7533	0.07
Mof_C 	C 	0.0043	0.7335	0.723	0.044
Mof_C 	C 	0.0026	0.6872	0.726	-0.162
Mof_H 	H 	0.0034	0.6714	0.708	0.109
Mof_O 	O 	0.0052	0.7331	0.6673	-0.446
Mof_O 	O 	0.0138	0.8032	0.6972	-0.53
Mof_C 	C 	0.0124	0.758	0.6898	0.244
Mof_Zn	Zn	0.52166	0.25521	0.13005	1.259
Mof_Zn	Zn	0.51255	0.34919	0.17314	1.186
Mof_C 	C 	0.2804	0.25	0.096	-0.079
Mof_H 	H 	0.293	0.2634	0.1128	0.066
Mof_C 	C 	0.2895	0.2579	0.0676	0.098
Mof_C 	C 	0.3243	0.2912	0.0516	-0.057
Mof_C 	C 	0.3327	0.3046	0.0196	0.135
Mof_C 	C 	0.3625	0.3358	0.0152	-0.096
Mof_H 	H 	0.3785	0.3526	0.0289	0.075
Mof_O 	O 	0.294	0.4336	0.116	-0.461
Mof_O 	O 	0.3465	0.4355	0.1489	-0.52
Mof_O 	O 	0.4687	0.3329	0.144	-0.52
Mof_O 	O 	0.4735	0.2774	0.1123	-0.529
Mof_C 	C 	0.4515	0.3068	0.1206	0.444
Mof_C 	C 	0.4111	0.3273	0.1117	-0.189
Mof_C 	C 	0.389	0.3625	0.1233	0.14
Mof_H 	H 	0.4024	0.3779	0.1389	-0.033
Mof_C 	C 	0.3495	0.3767	0.1139	-0.195
Mof_C 	C 	0.3269	0.4118	0.1266	0.398
Mof_C 	C 	0.3258	0.3533	0.0921	0.019
Mof_H 	H 	0.2972	0.3613	0.0873	0.047
Mof_C 	C 	0.3456	0.318	0.0779	-0.008
Mof_C 	C 	0.3864	0.3035	0.0897	0.011
Mof_H 	H 	0.3977	0.277	0.0827	0.05
Mof_O 	O 	0.5328	0.2018	0.1106	-0.39
Mof_O 	O 	0.5937	0.2077	0.1409	-0.265
Mof_C 	C 	0.5702	0.1858	0.1212	0.227
Mof_C 	C 	0.5894	0.1417	0.1128	0.049
Mof_C 	C 	0.5661	0.1196	0.0921	-0.142
Mof_H 	H 	0.5394	0.1311	0.0857	0.111
Mof_C 	C 	0.5431	0.0897	0.2495	0.141
Mof_C 	C 	0.5823	0.1125	0.252	-0.089
Mof_H 	H 	0.5862	0.1428	0.2533	0.07
Mof_C 	C 	0.5043	0.2335	0.223	0.043
Mof_C 	C 	0.5026	0.1872	0.226	-0.163
Mof_H 	H 	0.5034	0.1714	0.208	0.11
Mof_O 	O 	0.5052	0.2331	0.1673	-0.446
Mof_O 	O 	0.5138	0.3032	0.1972	-0.529
Mof_C 	C 	0.5124	0.258	0.1898	0.245
Mof_Zn	Zn	0.97834	0.24479	0.63005	1.26
Mof_Zn	Zn	0.98745	0.15081	0.67314	1.187
Mof_C 	C 	0.2196	0.25	0.596	-0.079
Mof_H 	H 	0.207	0.2366	0.6128	0.066
Mof_C 	C 	0.2105	0.2421	0.5676	0.098
Mof_C 	C 	0.1757	0.2088	0.5516	-0.057
Mof_C 	C 	0.1673	0.1954	0.5196	0.135
Mof_C 	C 	0.1375	0.1642	0.5152	-0.098
Mof_H 	H 	0.1215	0.1474	0.5289	0.074
Mof_O 	O 	0.206	0.0664	0.616	-0.462
Mof_O 	O 	0.1535	0.0645	0.6489	-0.521
Mof_O 	O 	0.0313	0.1671	0.644	-0.523
Mof_O 	O 	0.0265	0.2226	0.6123	-0.531
Mof_C 	C 	0.0485	0.1932	0.6206	0.444
Mof_C 	C 	0.0889	0.1727	0.6117	-0.19
Mof_C 	C 	0.111	0.1375	0.6233	0.141
Mof_H 	H 	0.0976	0.1221	0.6389	-0.034
Mof_C 	C 	0.1505	0.1233	0.6139	-0.196
Mof_C 	C 	0.1731	0.0882	0.6266	0.399
Mof_C 	C 	0.1742	0.1467	0.5921	0.02
Mof_H 	H 	0.2028	0.1387	0.5873	0.046
Mof_C 	C 	0.1544	0.182	0.5779	-0.008
Mof_C 	C 	0.1136	0.1965	0.5897	0.012
Mof_H 	H 	0.1023	0.223	0.5827	0.049
Mof_O 	O 	0.9672	0.2982	0.6106	-0.389
Mof_O 	O 	0.9063	0.2923	0.6409	-0.265
Mof_C 	C 	0.9298	0.3142	0.6212	0.227
Mof_C 	C 	0.9106	0.3583	0.6128	0.05
Mof_C 	C 	0.9339	0.3804	0.5921	-0.142
Mof_H 	H 	0.9606	0.3689	0.5857	0.112
Mof_C 	C 	0.9569	0.4103	0.7495	0.147
Mof_C 	C 	0.9177	0.3875	0.752	-0.092
Mof_H 	H 	0.9138	0.3572	0.7533	0.072
Mof_C 	C 	0.9957	0.2665	0.723	0.047
Mof_C 	C 	0.9974	0.3128	0.726	-0.156
Mof_H 	H 	0.9966	0.3286	0.708	0.109
Mof_O 	O 	0.9948	0.2669	0.6673	-0.444
Mof_O 	O 	0.9862	0.1968	0.6972	-0.527
Mof_C 	C 	0.9876	0.242	0.6898	0.245
Mof_Zn	Zn	0.47834	0.74479	0.13005	1.259
Mof_Zn	Zn	0.48745	0.65081	0.17314	1.186
Mof_C 	C 	0.7196	0.75	0.096	-0.079
Mof_H 	H 	0.707	0.7366	0.1128	0.066
Mof_C 	C 	0.7105	0.7421	0.0676	0.098
Mof_C 	C 	0.6757	0.7088	0.0516	-0.057
Mof_C 	C 	0.6673	0.6954	0.0196	0.135
Mof_C 	C 	0.6375	0.6642	0.0152	-0.096
Mof_H 	H 	0.6215	0.6474	0.0289	0.075
Mof_O 	O 	0.706	0.5664	0.116	-0.461
Mof_O 	O 	0.6535	0.5645	0.1489	-0.52
Mof_O 	O 	0.5313	0.6671	0.144	-0.52
Mof_O 	O 	0.5265	0.7226	0.1123	-0.528
Mof_C 	C 	0.5485	0.6932	0.1206	0.444
Mof_C 	C 	0.5889	0.6727	0.1117	-0.189
Mof_C 	C 	0.611	0.6375	0.1233	0.14
Mof_H 	H 	0.5976	0.6221	0.1389	-0.033
Mof_C 	C 	0.6505	0.6233	0.1139	-0.195
Mof_C 	C 	0.6731	0.5882	0.1266	0.398
Mof_C 	C 	0.6742	0.6467	0.0921	0.019
Mof_H 	H 	0.7028	0.6387	0.0873	0.047
Mof_C 	C 	0.6544	0.682	0.0779	-0.008
Mof_C 	C 	0.6136	0.6965	0.0897	0.011
Mof_H 	H 	0.6023	0.723	0.0827	0.05
Mof_O 	O 	0.4672	0.7982	0.1106	-0.39
Mof_O 	O 	0.4063	0.7923	0.1409	-0.265
Mof_C 	C 	0.4298	0.8142	0.1212	0.227
Mof_C 	C 	0.4106	0.8583	0.1128	0.049
Mof_C 	C 	0.4339	0.8804	0.0921	-0.142
Mof_H 	H 	0.4606	0.8689	0.0857	0.112
Mof_C 	C 	0.4569	0.9103	0.2495	0.141
Mof_C 	C 	0.4177	0.8875	0.252	-0.088
Mof_H 	H 	0.4138	0.8572	0.2533	0.07
Mof_C 	C 	0.4957	0.7665	0.223	0.044
Mof_C 	C 	0.4974	0.8128	0.226	-0.163
Mof_H 	H 	0.4966	0.8286	0.208	0.11
Mof_O 	O 	0.4948	0.7669	0.1673	-0.445
Mof_O 	O 	0.4862	0.6968	0.1972	-0.529
Mof_C 	C 	0.4876	0.742	0.1898	0.245
Mof_Zn	Zn	0.75521	0.97834	0.63005	1.26
Mof_Zn	Zn	0.84919	0.98745	0.67314	1.187
Mof_C 	C 	0.75	0.2196	0.596	-0.079
Mof_H 	H 	0.7634	0.207	0.6128	0.066
Mof_C 	C 	0.7579	0.2105	0.5676	0.098
Mof_C 	C 	0.7912	0.1757	0.5516	-0.057
Mof_C 	C 	0.8046	0.1673	0.5196	0.135
Mof_C 	C 	0.8358	0.1375	0.5152	-0.097
Mof_H 	H 	0.8526	0.1215	0.5289	0.075
Mof_O 	O 	0.9336	0.206	0.616	-0.46
Mof_O 	O 	0.9355	0.1535	0.6489	-0.519
Mof_O 	O 	0.8329	0.0313	0.644	-0.522
Mof_O 	O 	0.7774	0.0265	0.6123	-0.531
Mof_C 	C 	0.8068	0.0485	0.6206	0.444
Mof_C 	C 	0.8273	0.0889	0.6117	-0.189
Mof_C 	C 	0.8625	0.111	0.6233	0.141
Mof_H 	H 	0.8779	0.0976	0.6389	-0.033
Mof_C 	C 	0.8767	0.1505	0.6139	-0.195
Mof_C 	C 	0.9118	0.1731	0.6266	0.398
Mof_C 	C 	0.8533	0.1742	0.5921	0.019
Mof_H 	H 	0.8613	0.2028	0.5873	0.047
Mof_C 	C 	0.818	0.1544	0.5779	-0.008
Mof_C 	C 	0.8035	0.1136	0.5897	0.011
Mof_H 	H 	0.777	0.1023	0.5827	0.049
Mof_O 	O 	0.7018	0.9672	0.6106	-0.389
Mof_O 	O 	0.7077	0.9063	0.6409	-0.265
Mof_C 	C 	0.6858	0.9298	0.6212	0.227
Mof_C 	C 	0.6417	0.9106	0.6128	0.05
Mof_C 	C 	0.6196	0.9339	0.5921	-0.142
Mof_H 	H 	0.6311	0.9606	0.5857	0.112
Mof_C 	C 	0.5897	0.9569	0.7495	0.147
Mof_C 	C 	0.6125	0.9177	0.752	-0.092
Mof_H 	H 	0.6428	0.9138	0.7533	0.072
Mof_C 	C 	0.7335	0.9957	0.723	0.047
Mof_C 	C 	0.6872	0.9974	0.726	-0.156
Mof_H 	H 	0.6714	0.9966	0.708	0.109
Mof_O 	O 	0.7331	0.9948	0.6673	-0.444
Mof_O 	O 	0.8032	0.9862	0.6972	-0.527
Mof_C 	C 	0.758	0.9876	0.6898	0.244
Mof_Zn	Zn	0.25521	0.47834	0.13005	1.259
Mof_Zn	Zn	0.34919	0.48745	0.17314	1.186
Mof_C 	C 	0.25	0.7196	0.096	-0.079
Mof_H 	H 	0.2634	0.707	0.1128	0.066
Mof_C 	C 	0.2579	0.7105	0.0676	0.098
Mof_C 	C 	0.2912	0.6757	0.0516	-0.057
Mof_C 	C 	0.3046	0.6673	0.0196	0.135
Mof_C 	C 	0.3358	0.6375	0.0152	-0.096
Mof_H 	H 	0.3526	0.6215	0.0289	0.075
Mof_O 	O 	0.4336	0.706	0.116	-0.461
Mof_O 	O 	0.4355	0.6535	0.1489	-0.52
Mof_O 	O 	0.3329	0.5313	0.144	-0.52
Mof_O 	O 	0.2774	0.5265	0.1123	-0.529
Mof_C 	C 	0.3068	0.5485	0.1206	0.444
Mof_C 	C 	0.3273	0.5889	0.1117	-0.189
Mof_C 	C 	0.3625	0.611	0.1233	0.14
Mof_H 	H 	0.3779	0.5976	0.1389	-0.033
Mof_C 	C 	0.3767	0.6505	0.1139	-0.195
Mof_C 	C 	0.4118	0.6731	0.1266	0.398
Mof_C 	C 	0.3533	0.6742	0.0921	0.019
Mof_H 	H 	0.3613	0.7028	0.0873	0.047
Mof_C 	C 	0.318	0.6544	0.0779	-0.008
Mof_C 	C 	0.3035	0.6136	0.0897	0.011
Mof_H 	H 	0.277	0.6023	0.0827	0.05
Mof_O 	O 	0.2018	0.4672	0.1106	-0.39
Mof_O 	O 	0.2077	0.4063	0.1409	-0.265
Mof_C 	C 	0.1858	0.4298	0.1212	0.227
Mof_C 	C 	0.1417	0.4106	0.1128	0.049
Mof_C 	C 	0.1196	0.4339	0.0921	-0.142
Mof_H 	H 	0.1311	0.4606	0.0857	0.111
Mof_C 	C 	0.0897	0.4569	0.2495	0.141
Mof_C 	C 	0.1125	0.4177	0.252	-0.089
Mof_H 	H 	0.1428	0.4138	0.2533	0.07
Mof_C 	C 	0.2335	0.4957	0.223	0.043
Mof_C 	C 	0.1872	0.4974	0.226	-0.163
Mof_H 	H 	0.1714	0.4966	0.208	0.11
Mof_O 	O 	0.2331	0.4948	0.1673	-0.446
Mof_O 	O 	0.3032	0.4862	0.1972	-0.529
Mof_C 	C 	0.258	0.4876	0.1898	0.245
Mof_Zn	Zn	0.24479	0.02166	0.63005	1.258
Mof_Zn	Zn	0.15081	0.01255	0.67314	1.185
Mof_C 	C 	0.25	0.7804	0.596	-0.079
Mof_H 	H 	0.2366	0.793	0.6128	0.067
Mof_C 	C 	0.2421	0.7895	0.5676	0.099
Mof_C 	C 	0.2088	0.8243	0.5516	-0.057
Mof_C 	C 	0.1954	0.8327	0.5196	0.135
Mof_C 	C 	0.1642	0.8625	0.5152	-0.097
Mof_H 	H 	0.1474	0.8785	0.5289	0.075
Mof_O 	O 	0.0664	0.794	0.616	-0.461
Mof_O 	O 	0.0645	0.8465	0.6489	-0.52
Mof_O 	O 	0.1671	0.9687	0.644	-0.518
Mof_O 	O 	0.2226	0.9735	0.6123	-0.526
Mof_C 	C 	0.1932	0.9515	0.6206	0.443
Mof_C 	C 	0.1727	0.9111	0.6117	-0.188
Mof_C 	C 	0.1375	0.889	0.6233	0.14
Mof_H 	H 	0.1221	0.9024	0.6389	-0.033
Mof_C 	C 	0.1233	0.8495	0.6139	-0.194
Mof_C 	C 	0.0882	0.8269	0.6266	0.398
Mof_C 	C 	0.1467	0.8258	0.5921	0.019
Mof_H 	H 	0.1387	0.7972	0.5873	0.047
Mof_C 	C 	0.182	0.8456	0.5779	-0.007
Mof_C 	C 	0.1965	0.8864	0.5897	0.011
Mof_H 	H 	0.223	0.8977	0.5827	0.051
Mof_O 	O 	0.2982	0.0328	0.6106	-0.391
Mof_O 	O 	0.2923	0.0937	0.6409	-0.265
Mof_C 	C 	0.3142	0.0702	0.6212	0.227
Mof_C 	C 	0.3583	0.0894	0.6128	0.048
Mof_C 	C 	0.3804	0.0661	0.5921	-0.142
Mof_H 	H 	0.3689	0.0394	0.5857	0.111
Mof_C 	C 	0.4103	0.0431	0.7495	0.142
Mof_C 	C 	0.3875	0.0823	0.752	-0.09
Mof_H 	H 	0.3572	0.0862	0.7533	0.07
Mof_C 	C 	0.2665	0.0043	0.723	0.043
Mof_C 	C 	0.3128	0.0026	0.726	-0.162
Mof_H 	H 	0.3286	0.0034	0.708	0.109
Mof_O 	O 	0.2669	0.0052	0.6673	-0.446
Mof_O 	O 	0.1968	0.0138	0.6972	-0.53
Mof_C 	C 	0.242	0.0124	0.6898	0.244
Mof_Zn	Zn	0.74479	0.52166	0.13005	1.259
Mof_Zn	Zn	0.65081	0.51255	0.17314	1.186
Mof_C 	C 	0.75	0.2804	0.096	-0.079
Mof_H 	H 	0.7366	0.293	0.1128	0.066
Mof_C 	C 	0.7421	0.2895	0.0676	0.099
Mof_C 	C 	0.7088	0.3243	0.0516	-0.057
Mof_C 	C 	0.6954	0.3327	0.0196	0.135
Mof_C 	C 	0.6642	0.3625	0.0152	-0.096
Mof_H 	H 	0.6474	0.3785	0.0289	0.075
Mof_O 	O 	0.5664	0.294	0.116	-0.461
Mof_O 	O 	0.5645	0.3465	0.1489	-0.52
Mof_O 	O 	0.6671	0.4687	0.144	-0.52
Mof_O 	O 	0.7226	0.4735	0.1123	-0.528
Mof_C 	C 	0.6932	0.4515	0.1206	0.444
Mof_C 	C 	0.6727	0.4111	0.1117	-0.189
Mof_C 	C 	0.6375	0.389	0.1233	0.14
Mof_H 	H 	0.6221	0.4024	0.1389	-0.033
Mof_C 	C 	0.6233	0.3495	0.1139	-0.195
Mof_C 	C 	0.5882	0.3269	0.1266	0.398
Mof_C 	C 	0.6467	0.3258	0.0921	0.019
Mof_H 	H 	0.6387	0.2972	0.0873	0.047
Mof_C 	C 	0.682	0.3456	0.0779	-0.008
Mof_C 	C 	0.6965	0.3864	0.0897	0.011
Mof_H 	H 	0.723	0.3977	0.0827	0.05
Mof_O 	O 	0.7982	0.5328	0.1106	-0.39
Mof_O 	O 	0.7923	0.5937	0.1409	-0.265
Mof_C 	C 	0.8142	0.5702	0.1212	0.227
Mof_C 	C 	0.8583	0.5894	0.1128	0.049
Mof_C 	C 	0.8804	0.5661	0.0921	-0.142
Mof_H 	H 	0.8689	0.5394	0.0857	0.112
Mof_C 	C 	0.9103	0.5431	0.2495	0.141
Mof_C 	C 	0.8875	0.5823	0.252	-0.088
Mof_H 	H 	0.8572	0.5862	0.2533	0.07
Mof_C 	C 	0.7665	0.5043	0.223	0.044
Mof_C 	C 	0.8128	0.5026	0.226	-0.163
Mof_H 	H 	0.8286	0.5034	0.208	0.11
Mof_O 	O 	0.7669	0.5052	0.1673	-0.445
Mof_O 	O 	0.6968	0.5138	0.1972	-0.529
Mof_C 	C 	0.742	0.5124	0.1898	0.245
Mof_Mn	Mn	0.76769	0.26769	-0	1.012
Mof_Cl	Cl	0.7101	0.2101	-0	-0.39
Mof_Cl	Cl	0.8203	0.3203	-0	-0.413
Mof_Cl	Cl	0.9469	0.4469	-0	-0.428
Mof_Mn	Mn	0.23231	0.73231	-0	1.012
Mof_Cl	Cl	0.2899	0.7899	-0	-0.39
Mof_Cl	Cl	0.1797	0.6797	-0	-0.414
Mof_Cl	Cl	0.0531	0.5531	-0	-0.433
Mof_Mn	Mn	0.73231	0.76769	-0	1.013
Mof_Cl	Cl	0.7899	0.7101	-0	-0.39
Mof_Cl	Cl	0.6797	0.8203	-0	-0.413
Mof_Cl	Cl	0.5531	0.9469	-0	-0.428
Mof_Mn	Mn	0.23231	0.26769	0.5	1.012
Mof_Cl	Cl	0.2899	0.2101	0.5	-0.39
Mof_Cl	Cl	0.1797	0.3203	0.5	-0.414
Mof_Cl	Cl	0.0531	0.4469	0.5	-0.433
Mof_Mn	Mn	0.26769	0.23231	-0	1.012
Mof_Cl	Cl	0.2101	0.2899	-0	-0.39
Mof_Cl	Cl	0.3203	0.1797	-0	-0.414
Mof_Cl	Cl	0.4469	0.0531	-0	-0.433
Mof_Mn	Mn	0.76769	0.73231	0.5	1.012
Mof_Cl	Cl	0.7101	0.7899	0.5	-0.39
Mof_Cl	Cl	0.8203	0.6797	0.5	-0.413
Mof_Cl	Cl	0.9469	0.5531	0.5	-0.428
Mof_Mn	Mn	0.26769	0.76769	0.5	1.012
Mof_Cl	Cl	0.2101	0.7101	0.5	-0.39
Mof_Cl	Cl	0.3203	0.8203	0.5	-0.413
Mof_Cl	Cl	0.4469	0.9469	0.5	-0.428
Mof_Mn	Mn	0.73231	0.23231	0.5	1.012
Mof_Cl	Cl	0.7899	0.2899	0.5	-0.39
Mof_Cl	Cl	0.6797	0.1797	0.5	-0.414
Mof_Cl	Cl	0.5531	0.0531	0.5	-0.433
Mof_N 	N 	0.812	0.2173	-0	-0.23
Mof_N 	N 	0.312	0.7173	0.5	-0.231
Mof_N 	N 	0.188	0.7827	-0	-0.23
Mof_N 	N 	0.688	0.2827	0.5	-0.231
Mof_N 	N 	0.7827	0.812	-0	-0.23
Mof_N 	N 	0.2827	0.312	0.5	-0.231
Mof_N 	N 	0.2173	0.188	-0	-0.23
Mof_N 	N 	0.7173	0.688	0.5	-0.231
Mof_N 	N 	0.188	0.2173	0.5	-0.231
Mof_N 	N 	0.688	0.7173	-0	-0.23
Mof_N 	N 	0.812	0.7827	0.5	-0.231
Mof_N 	N 	0.312	0.2827	-0	-0.23
Mof_N 	N 	0.2173	0.812	0.5	-0.231
Mof_N 	N 	0.7173	0.312	-0	-0.23
Mof_N 	N 	0.7827	0.188	0.5	-0.231
Mof_N 	N 	0.2827	0.688	-0	-0.23
Mof_N 	N 	0.7656	0.2656	0.0439	-0.21
Mof_N 	N 	0.2344	0.7344	0.0439	-0.21
Mof_N 	N 	0.7344	0.7656	0.0439	-0.21
Mof_N 	N 	0.2344	0.2656	0.5439	-0.21
Mof_N 	N 	0.2656	0.2344	0.0439	-0.21
Mof_N 	N 	0.2344	0.2656	0.4561	-0.21
Mof_N 	N 	0.7656	0.7344	0.4561	-0.21
Mof_N 	N 	0.2656	0.7656	0.4561	-0.21
Mof_N 	N 	0.7344	0.2344	0.4561	-0.21
Mof_N 	N 	0.2344	0.7344	0.9561	-0.21
Mof_N 	N 	0.7656	0.2656	0.9561	-0.21
Mof_N 	N 	0.2656	0.2344	0.9561	-0.21
Mof_N 	N 	0.7344	0.7656	0.9561	-0.21
Mof_N 	N 	0.7656	0.7344	0.5439	-0.21
Mof_N 	N 	0.7344	0.2344	0.5439	-0.21
Mof_N 	N 	0.2656	0.7656	0.5439	-0.21
Mof_Mn	Mn	-0	0.5	-0	1.482
Mof_Mn	Mn	0.5	0	0.5	1.481
Mof_Mn	Mn	0.5	0	-0	1.482
Mof_Mn	Mn	-7.10448e-33	0.5	0.5	1.481
Mof_N 	N 	0.0467	0.4533	-0	-0.24
Mof_N 	N 	0.9533	0.5467	-0	-0.239
Mof_N 	N 	0.4533	0.0467	0.5	-0.24
Mof_N 	N 	0.5467	0.0467	-0	-0.24
Mof_N 	N 	0.4533	0.9533	-0	-0.239
Mof_N 	N 	0.9533	0.4533	0.5	-0.239
Mof_N 	N 	0.0467	0.5467	0.5	-0.24
Mof_N 	N 	0.5467	0.9533	0.5	-0.239
Mof_N 	N 	-4.36125e-34	0.5	0.0327	-0.429
Mof_Cl	Cl	-1.37543e-33	0.5	0.1985	-0.438
Mof_N 	N 	0.5	-6.14392e-34	0.0327	-0.429
Mof_Cl	Cl	0.5	-2.45757e-33	0.1985	-0.438
Mof_N 	N 	-2.36761e-33	0.5	0.4673	-0.429
Mof_Cl	Cl	-3.27148e-33	0.5	0.3015	-0.438
Mof_N 	N 	0.5	0	0.4673	-0.429
Mof_Cl	Cl	0.5	0	0.3015	-0.438
Mof_N 	N 	5.27333e-33	0.5	0.9673	-0.429
Mof_Cl	Cl	4.36946e-33	0.5	0.8015	-0.438
Mof_N 	N 	0.5	0	0.9673	-0.429
Mof_Cl	Cl	0.5	0	0.8015	-0.438
Mof_N 	N 	2.90407e-33	0.5	0.5327	-0.429
Mof_Cl	Cl	3.80794e-33	0.5	0.6985	-0.438
Mof_N 	N 	0.5	0	0.5327	-0.429
Mof_Cl	Cl	0.5	0	0.6985	-0.438
Mof_C 	C 	0.0983	0.4017	0.0143	-0.071
Mof_H 	H 	0.1157	0.3843	0.0268	0.08
Mof_C 	C 	0.0653	0.4347	0.0242	0.133
Mof_C 	C 	0.0544	0.4456	0.0551	-0.103
Mof_C 	C 	0.0212	0.4788	0.0616	0.131
Mof_C 	C 	0.0148	0.4852	0.0936	-0.088
Mof_H 	H 	0.0286	0.4714	0.1098	0.086
Mof_C 	C 	0.1246	0.3754	0.1251	-0.102
Mof_H 	H 	0.1371	0.3629	0.1421	0.099
Mof_C 	C 	0.0805	0.4195	0.0801	0.113
Mof_N 	N 	0.0473	0.4527	0.2509	-0.229
Mof_C 	C 	0.9017	0.5983	0.0143	-0.07
Mof_H 	H 	0.8843	0.6157	0.0268	0.08
Mof_C 	C 	0.9347	0.5653	0.0242	0.134
Mof_C 	C 	0.9456	0.5544	0.0551	-0.102
Mof_C 	C 	0.9788	0.5212	0.0616	0.131
Mof_C 	C 	0.9852	0.5148	0.0936	-0.066
Mof_H 	H 	0.9714	0.5286	0.1098	0.08
Mof_C 	C 	0.8754	0.6246	0.1251	-0.103
Mof_H 	H 	0.8629	0.6371	0.1421	0.099
Mof_C 	C 	0.9195	0.5805	0.0801	0.114
Mof_N 	N 	0.9527	0.5473	0.2509	-0.228
Mof_C 	C 	0.4017	0.0983	0.5143	-0.072
Mof_H 	H 	0.3843	0.1157	0.5268	0.08
Mof_C 	C 	0.4347	0.0653	0.5242	0.134
Mof_C 	C 	0.4456	0.0544	0.5551	-0.103
Mof_C 	C 	0.4788	0.0212	0.5616	0.131
Mof_C 	C 	0.4852	0.0148	0.5936	-0.087
Mof_H 	H 	0.4714	0.0286	0.6098	0.086
Mof_C 	C 	0.3754	0.1246	0.6251	-0.102
Mof_H 	H 	0.3629	0.1371	0.6421	0.099
Mof_C 	C 	0.4195	0.0805	0.5801	0.114
Mof_N 	N 	0.4527	0.0473	0.7509	-0.229
Mof_C 	C 	0.5983	0.0983	0.0143	-0.071
Mof_H 	H 	0.6157	0.1157	0.0268	0.08
Mof_C 	C 	0.5653	0.0653	0.0242	0.133
Mof_C 	C 	0.5544	0.0544	0.0551	-0.103
Mof_C 	C 	0.5212	0.0212	0.0616	0.131
Mof_C 	C 	0.5148	0.0148	0.0936	-0.088
Mof_H 	H 	0.5286	0.0286	0.1098	0.086
Mof_C 	C 	0.6246	0.1246	0.1251	-0.102
Mof_H 	H 	0.6371	0.1371	0.1421	0.099
Mof_C 	C 	0.5805	0.0805	0.0801	0.114
Mof_N 	N 	0.5473	0.0473	0.2509	-0.229
Mof_C 	C 	0.4017	0.9017	0.0143	-0.07
Mof_H 	H 	0.3843	0.8843	0.0268	0.08
Mof_C 	C 	0.4347	0.9347	0.0242	0.134
Mof_C 	C 	0.4456	0.9456	0.0551	-0.102
Mof_C 	C 	0.4788	0.9788	0.0616	0.131
Mof_C 	C 	0.4852	0.9852	0.0936	-0.066
Mof_H 	H 	0.4714	0.9714	0.1098	0.08
Mof_C 	C 	0.3754	0.8754	0.1251	-0.103
Mof_H 	H 	0.3629	0.8629	0.1421	0.099
Mof_C 	C 	0.4195	0.9195	0.0801	0.114
Mof_N 	N 	0.4527	0.9527	0.2509	-0.228
Mof_C 	C 	0.9017	0.4017	0.4857	-0.072
Mof_H 	H 	0.8843	0.3843	0.4732	0.08
Mof_C 	C 	0.9347	0.4347	0.4758	0.134
Mof_C 	C 	0.9456	0.4456	0.4449	-0.102
Mof_C 	C 	0.9788	0.4788	0.4384	0.131
Mof_C 	C 	0.9852	0.4852	0.4064	-0.066
Mof_H 	H 	0.9714	0.4714	0.3902	0.08
Mof_C 	C 	0.8754	0.3754	0.3749	-0.103
Mof_H 	H 	0.8629	0.3629	0.3579	0.099
Mof_C 	C 	0.9195	0.4195	0.4199	0.114
Mof_N 	N 	0.9527	0.4527	0.2491	-0.228
Mof_C 	C 	0.0983	0.5983	0.4857	-0.072
Mof_H 	H 	0.1157	0.6157	0.4732	0.08
Mof_C 	C 	0.0653	0.5653	0.4758	0.134
Mof_C 	C 	0.0544	0.5544	0.4449	-0.103
Mof_C 	C 	0.0212	0.5212	0.4384	0.131
Mof_C 	C 	0.0148	0.5148	0.4064	-0.087
Mof_H 	H 	0.0286	0.5286	0.3902	0.086
Mof_C 	C 	0.1246	0.6246	0.3749	-0.102
Mof_H 	H 	0.1371	0.6371	0.3579	0.099
Mof_C 	C 	0.0805	0.5805	0.4199	0.114
Mof_N 	N 	0.0473	0.5473	0.2491	-0.229
Mof_C 	C 	0.4017	0.0983	0.4857	-0.072
Mof_H 	H 	0.3843	0.1157	0.4732	0.08
Mof_C 	C 	0.4347	0.0653	0.4758	0.134
Mof_C 	C 	0.4456	0.0544	0.4449	-0.103
Mof_C 	C 	0.4788	0.0212	0.4384	0.131
Mof_C 	C 	0.4852	0.0148	0.4064	-0.087
Mof_H 	H 	0.4714	0.0286	0.3902	0.086
Mof_C 	C 	0.3754	0.1246	0.3749	-0.102
Mof_H 	H 	0.3629	0.1371	0.3579	0.099
Mof_C 	C 	0.4195	0.0805	0.4199	0.114
Mof_N 	N 	0.4527	0.0473	0.2491	-0.229
Mof_C 	C 	0.5983	0.9017	0.4857	-0.072
Mof_H 	H 	0.6157	0.8843	0.4732	0.08
Mof_C 	C 	0.5653	0.9347	0.4758	0.134
Mof_C 	C 	0.5544	0.9456	0.4449	-0.102
Mof_C 	C 	0.5212	0.9788	0.4384	0.131
Mof_C 	C 	0.5148	0.9852	0.4064	-0.066
Mof_H 	H 	0.5286	0.9714	0.3902	0.08
Mof_C 	C 	0.6246	0.8754	0.3749	-0.103
Mof_H 	H 	0.6371	0.8629	0.3579	0.099
Mof_C 	C 	0.5805	0.9195	0.4199	0.114
Mof_N 	N 	0.5473	0.9527	0.2491	-0.228
Mof_C 	C 	0.9017	0.5983	0.9857	-0.073
Mof_H 	H 	0.8843	0.6157	0.9732	0.081
Mof_C 	C 	0.9347	0.5653	0.9758	0.134
Mof_C 	C 	0.9456	0.5544	0.9449	-0.102
Mof_C 	C 	0.9788	0.5212	0.9384	0.131
Mof_C 	C 	0.9852	0.5148	0.9064	-0.066
Mof_H 	H 	0.9714	0.5286	0.8902	0.08
Mof_C 	C 	0.8754	0.6246	0.8749	-0.103
Mof_H 	H 	0.8629	0.6371	0.8579	0.099
Mof_C 	C 	0.9195	0.5805	0.9199	0.114
Mof_N 	N 	0.9527	0.5473	0.7491	-0.228
Mof_C 	C 	0.0983	0.4017	0.9857	-0.073
Mof_H 	H 	0.1157	0.3843	0.9732	0.08
Mof_C 	C 	0.0653	0.4347	0.9758	0.133
Mof_C 	C 	0.0544	0.4456	0.9449	-0.103
Mof_C 	C 	0.0212	0.4788	0.9384	0.131
Mof_C 	C 	0.0148	0.4852	0.9064	-0.087
Mof_H 	H 	0.0286	0.4714	0.8902	0.086
Mof_C 	C 	0.1246	0.3754	0.8749	-0.102
Mof_H 	H 	0.1371	0.3629	0.8579	0.099
Mof_C 	C 	0.0805	0.4195	0.9199	0.114
Mof_N 	N 	0.0473	0.4527	0.7491	-0.229
Mof_C 	C 	0.4017	0.9017	0.9857	-0.073
Mof_H 	H 	0.3843	0.8843	0.9732	0.081
Mof_C 	C 	0.4347	0.9347	0.9758	0.134
Mof_C 	C 	0.4456	0.9456	0.9449	-0.102
Mof_C 	C 	0.4788	0.9788	0.9384	0.131
Mof_C 	C 	0.4852	0.9852	0.9064	-0.066
Mof_H 	H 	0.4714	0.9714	0.8902	0.08
Mof_C 	C 	0.3754	0.8754	0.8749	-0.103
Mof_H 	H 	0.3629	0.8629	0.8579	0.099
Mof_C 	C 	0.4195	0.9195	0.9199	0.114
Mof_N 	N 	0.4527	0.9527	0.7491	-0.228
Mof_C 	C 	0.5983	0.0983	0.9857	-0.073
Mof_H 	H 	0.6157	0.1157	0.9732	0.08
Mof_C 	C 	0.5653	0.0653	0.9758	0.133
Mof_C 	C 	0.5544	0.0544	0.9449	-0.103
Mof_C 	C 	0.5212	0.0212	0.9384	0.131
Mof_C 	C 	0.5148	0.0148	0.9064	-0.087
Mof_H 	H 	0.5286	0.0286	0.8902	0.086
Mof_C 	C 	0.6246	0.1246	0.8749	-0.102
Mof_H 	H 	0.6371	0.1371	0.8579	0.099
Mof_C 	C 	0.5805	0.0805	0.9199	0.114
Mof_N 	N 	0.5473	0.0473	0.7491	-0.229
Mof_C 	C 	0.0983	0.5983	0.5143	-0.072
Mof_H 	H 	0.1157	0.6157	0.5268	0.08
Mof_C 	C 	0.0653	0.5653	0.5242	0.134
Mof_C 	C 	0.0544	0.5544	0.5551	-0.103
Mof_C 	C 	0.0212	0.5212	0.5616	0.131
Mof_C 	C 	0.0148	0.5148	0.5936	-0.087
Mof_H 	H 	0.0286	0.5286	0.6098	0.086
Mof_C 	C 	0.1246	0.6246	0.6251	-0.102
Mof_H 	H 	0.1371	0.6371	0.6421	0.099
Mof_C 	C 	0.0805	0.5805	0.5801	0.114
Mof_N 	N 	0.0473	0.5473	0.7509	-0.229
Mof_C 	C 	0.9017	0.4017	0.5143	-0.072
Mof_H 	H 	0.8843	0.3843	0.5268	0.08
Mof_C 	C 	0.9347	0.4347	0.5242	0.134
Mof_C 	C 	0.9456	0.4456	0.5551	-0.102
Mof_C 	C 	0.9788	0.4788	0.5616	0.131
Mof_C 	C 	0.9852	0.4852	0.5936	-0.066
Mof_H 	H 	0.9714	0.4714	0.6098	0.08
Mof_C 	C 	0.8754	0.3754	0.6251	-0.103
Mof_H 	H 	0.8629	0.3629	0.6421	0.099
Mof_C 	C 	0.9195	0.4195	0.5801	0.114
Mof_N 	N 	0.9527	0.4527	0.7509	-0.228
Mof_C 	C 	0.5983	0.9017	0.5143	-0.072
Mof_H 	H 	0.6157	0.8843	0.5268	0.08
Mof_C 	C 	0.5653	0.9347	0.5242	0.134
Mof_C 	C 	0.5544	0.9456	0.5551	-0.102
Mof_C 	C 	0.5212	0.9788	0.5616	0.131
Mof_C 	C 	0.5148	0.9852	0.5936	-0.066
Mof_H 	H 	0.5286	0.9714	0.6098	0.08
Mof_C 	C 	0.6246	0.8754	0.6251	-0.103
Mof_H 	H 	0.6371	0.8629	0.6421	0.099
Mof_C 	C 	0.5805	0.9195	0.5801	0.114
Mof_N 	N 	0.5473	0.9527	0.7509	-0.228
Mof_Mn	Mn	-3.55224e-33	0.5	0.25	1.017
Mof_Mn	Mn	0.5	0	0.25	1.017
Mof_Mn	Mn	4.0887e-33	0.5	0.75	1.017
Mof_Mn	Mn	0.5	0	0.75	1.017
Mof_C 	C 	-8.46738e-33	0.3872	0.25	-0.128
Mof_C 	C 	-3.55224e-33	0.2452	0.25	-0.099
Mof_H 	H 	-8.46738e-33	0.2147	0.25	0.061
Mof_C 	C 	1.3629e-33	0.3358	0.25	0.138
Mof_C 	C 	0.5	0.8872	0.75	-0.124
Mof_C 	C 	0.5	0.7452	0.75	-0.093
Mof_H 	H 	0.5	0.7147	0.75	0.061
Mof_C 	C 	0.5	0.8358	0.75	0.145
Mof_C 	C 	6.27804e-33	0.6128	0.25	-0.128
Mof_C 	C 	-3.55224e-33	0.7548	0.25	-0.099
Mof_H 	H 	-3.55224e-33	0.7853	0.25	0.061
Mof_C 	C 	-1.33825e-32	0.6642	0.25	0.138
Mof_C 	C 	0.5	0.1128	0.75	-0.125
Mof_C 	C 	0.5	0.2548	0.75	-0.093
Mof_H 	H 	0.5	0.2853	0.75	0.061
Mof_C 	C 	0.5	0.1642	0.75	0.145
Mof_C 	C 	0.6128	0	0.25	-0.128
Mof_C 	C 	0.7548	0	0.25	-0.099
Mof_H 	H 	0.7853	0	0.25	0.061
Mof_C 	C 	0.6642	0	0.25	0.138
Mof_C 	C 	0.1128	0.5	0.75	-0.125
Mof_C 	C 	0.2548	0.5	0.75	-0.093
Mof_H 	H 	0.2853	0.5	0.75	0.061
Mof_C 	C 	0.1642	0.5	0.75	0.145
Mof_C 	C 	0.3872	0	0.25	-0.128
Mof_C 	C 	0.2452	0	0.25	-0.099
Mof_H 	H 	0.2147	0	0.25	0.061
Mof_C 	C 	0.3358	0	0.25	0.138
Mof_C 	C 	0.8872	0.5	0.75	-0.124
Mof_C 	C 	0.7452	0.5	0.75	-0.093
Mof_H 	H 	0.7147	0.5	0.75	0.061
Mof_C 	C 	0.8358	0.5	0.75	0.145
Mof_C 	C 	1.3919e-32	0.6128	0.75	-0.128
Mof_C 	C 	-5.74158e-33	0.7548	0.75	-0.099
Mof_H 	H 	1.3919e-32	0.7853	0.75	0.061
Mof_C 	C 	1.3919e-32	0.6642	0.75	0.138
Mof_C 	C 	0.5	0.1128	0.25	-0.125
Mof_C 	C 	0.5	0.2548	0.25	-0.093
Mof_H 	H 	0.5	0.2853	0.25	0.061
Mof_C 	C 	0.5	0.1642	0.25	0.145
Mof_C 	C 	1.3919e-32	0.3872	0.75	-0.128
Mof_C 	C 	1.3919e-32	0.2452	0.75	-0.099
Mof_H 	H 	1.3919e-32	0.2147	0.75	0.061
Mof_C 	C 	4.0887e-33	0.3358	0.75	0.138
Mof_C 	C 	0.5	0.8872	0.25	-0.124
Mof_C 	C 	0.5	0.7452	0.25	-0.093
Mof_H 	H 	0.5	0.7147	0.25	0.061
Mof_C 	C 	0.5	0.8358	0.25	0.145
Mof_C 	C 	0.3872	0	0.75	-0.128
Mof_C 	C 	0.2452	0	0.75	-0.099
Mof_H 	H 	0.2147	0	0.75	0.061
Mof_C 	C 	0.3358	0	0.75	0.138
Mof_C 	C 	0.8872	0.5	0.25	-0.124
Mof_C 	C 	0.7452	0.5	0.25	-0.093
Mof_H 	H 	0.7147	0.5	0.25	0.061
Mof_C 	C 	0.8358	0.5	0.25	0.145
Mof_C 	C 	0.6128	0	0.75	-0.128
Mof_C 	C 	0.7548	0	0.75	-0.099
Mof_H 	H 	0.7853	0	0.75	0.061
Mof_C 	C 	0.6642	0	0.75	0.138
Mof_C 	C 	0.1128	0.5	0.25	-0.125
Mof_C 	C 	0.2548	0.5	0.25	-0.093
Mof_H 	H 	0.2853	0.5	0.25	0.061
Mof_C 	C 	0.1642	0.5	0.25	0.145
_end
