# CIF file generated by openbabel 3.1.0, see https://openbabel.org
data_I
_chemical_name_common 'image0'
_cell_length_a 11.4393
_cell_length_b 24.6749
_cell_length_c 20.3245
_cell_angle_alpha 90
_cell_angle_beta 92.3471
_cell_angle_gamma 90
_space_group_name_H-M_alt 'P 1'
_space_group_name_Hall 'P 1'
loop_
    _symmetry_equiv_pos_as_xyz
    x,y,z
loop_
    _atom_site_label
    _atom_site_type_symbol
    _atom_site_fract_x
    _atom_site_fract_y
    _atom_site_fract_z
    _atom_site_occupancy
    Co1      Co       0.44476    0.50937    0.26380    1.000
    O1       O        0.44760    0.54463    0.35628    1.000
    O2       O        0.44030    0.48149    0.16943    1.000
    N1       N        0.63420    0.50885    0.26294    1.000
    O3       O        0.43920    0.59571    0.24304    1.000
    N2       N        0.53870    0.92852    0.69835    1.000
    N3       N        0.25470    0.50366    0.26588    1.000
    C1       C        0.42730    0.59431    0.36099    1.000
    C2       C        0.44170    0.50525    0.11468    1.000
    C3       C        0.69310    0.51420    0.20790    1.000
    C4       C        0.69740    0.50030    0.31920    1.000
    H1       H        0.50000    0.60560    0.22300    1.000
    C5       C        0.42030    0.62900    0.29834    1.000
    O4       O        0.41650    0.61951    0.41481    1.000
    O5       O        0.45430    0.55515    0.10625    1.000
    C6       C        0.42630    0.46817    0.05460    1.000
    H2       H        0.64990    0.52020    0.16760    1.000
    C7       C        0.81370    0.51140    0.20670    1.000
    H3       H        0.65710    0.49610    0.35880    1.000
    C8       C        0.81830    0.49741    0.32220    1.000
    H4       H        0.48440    0.65660    0.30160    1.000
    C9       C        0.30400    0.65884    0.29190    1.000
    Co2      Co       0.42515    0.59158    0.51020    1.000
    Co3      Co       0.44296    0.58768    0.01172    1.000
    O6       O        0.41610    0.50088    0.99655    1.000
    H5       H        0.35270    0.44670    0.05850    1.000
    C10      C        0.52880    0.42941    0.05270    1.000
    H6       H        0.85170    0.51500    0.16620    1.000
    C11      C        0.87870    0.50351    0.26460    1.000
    H7       H        0.85950    0.49130    0.36310    1.000
    C12      C        0.21210    0.63930    0.25260    1.000
    C13      C        0.28810    0.70590    0.32850    1.000
    N4       N        0.23490    0.59855    0.51147    1.000
    O7       O        0.44060    0.55693    0.60427    1.000
    N5       N        0.43340    0.67116    0.55227    1.000
    O8       O        0.40420    0.50476    0.49331    1.000
    N6       N        0.61500    0.59677    0.50697    1.000
    N7       N        0.63250    0.58825    0.00906    1.000
    O9       O        0.43710    0.61401    0.91606    1.000
    N8       N        0.45700    0.66706    0.05336    1.000
    N9       N        0.25240    0.59586    0.01249    1.000
    H8       H        0.34700    0.49830    0.97370    1.000
    C14      C        0.51780    0.37780    0.07830    1.000
    C15      C        0.63390    0.44480    0.02710    1.000
    C16      C        0.00910    0.50218    0.26540    1.000
    H9       H        0.22290    0.60800    0.22630    1.000
    C17      C        0.10300    0.66540    0.25120    1.000
    H10      H        0.35120    0.72060    0.35460    1.000
    C18      C        0.17850    0.73150    0.32670    1.000
    C19      C        0.17610    0.58260    0.56350    1.000
    C20      C        0.17160    0.62046    0.46060    1.000
    C21      C        0.44270    0.50659    0.61085    1.000
    C22      C        0.41730    0.67963    0.61590    1.000
    C23      C        0.46580    0.71440    0.51680    1.000
    C24      C        0.43200    0.47085    0.54890    1.000
    H11      H        0.33300    0.49700    0.47600    1.000
    C25      C        0.69230    0.58180    0.95380    1.000
    C26      C        0.69490    0.60119    0.06460    1.000
    C27      C        0.44690    0.58978    0.86230    1.000
    C28      C        0.41020    0.67877    0.11090    1.000
    C29      C        0.51860    0.70620    0.02470    1.000
    H12      H        0.44590    0.36670    0.09580    1.000
    C30      C        0.61380    0.34160    0.07840    1.000
    H13      H        0.64150    0.48020    0.00940    1.000
    C31      C        0.72920    0.40930    0.02670    1.000
    C32      C        0.07470    0.51567    0.32110    1.000
    C33      C        0.06880    0.48759    0.20930    1.000
    H14      H        0.04040    0.65160    0.22390    1.000
    C34      C        0.08640    0.71030    0.28870    1.000
    H15      H        0.16750    0.76350    0.35170    1.000
    H16      H        0.21900    0.56850    0.60060    1.000
    C35      C        0.05530    0.58590    0.56580    1.000
    C36      C        0.05080    0.62409    0.45920    1.000
    H17      H        0.21190    0.63400    0.42420    1.000
    O10      O        0.45190    0.48145    0.66462    1.000
    H18      H        0.39220    0.65000    0.64160    1.000
    C37      C        0.43510    0.72932    0.64660    1.000
    C38      C        0.48450    0.76510    0.54400    1.000
    H19      H        0.47630    0.70980    0.47110    1.000
    C39      C        0.54430    0.43972    0.54120    1.000
    H20      H        0.36670    0.44440    0.55410    1.000
    H21      H        0.64980    0.57390    0.91380    1.000
    C40      C        0.81340    0.58610    0.95270    1.000
    H22      H        0.65410    0.60730    0.10370    1.000
    C41      C        0.81550    0.60602    0.06740    1.000
    O11      O        0.46040    0.53954    0.85534    1.000
    C42      C        0.44320    0.62591    0.80050    1.000
    H23      H        0.36510    0.65180    0.13140    1.000
    C43      C        0.42430    0.72813    0.14170    1.000
    C44      C        0.53720    0.75650    0.05270    1.000
    H24      H        0.55080    0.69880    0.98330    1.000
    H25      H        0.60740    0.30630    0.09640    1.000
    C45      C        0.71730    0.35860    0.05180    1.000
    H26      H        0.80110    0.42040    0.00920    1.000
    C46      C        0.19650    0.51590    0.31980    1.000
    H27      H        0.03730    0.52480    0.36050    1.000
    C47      C        0.18960    0.48842    0.21190    1.000
    H28      H        0.02680    0.47730    0.16990    1.000
    H29      H        0.01160    0.72710    0.28880    1.000
    C48      C        0.99000    0.60515    0.51250    1.000
    H30      H        0.01760    0.57480    0.60430    1.000
    H31      H        0.00980    0.63940    0.42210    1.000
    Co4      Co       0.45771    0.50598    0.76112    1.000
    H32      H        0.42260    0.73310    0.69230    1.000
    C49      C        0.47120    0.77326    0.61060    1.000
    H33      H        0.50660    0.79450    0.51690    1.000
    C50      C        0.56060    0.39170    0.57390    1.000
    C51      C        0.63010    0.45930    0.50330    1.000
    H34      H        0.85210    0.58130    0.91270    1.000
    C52      C        0.87710    0.59738    0.01050    1.000
    H35      H        0.85590    0.61510    0.10760    1.000
    O12      O        0.46520    0.59294    0.74470    1.000
    H36      H        0.50700    0.65350    0.80550    1.000
    C53      C        0.32690    0.65540    0.79269    1.000
    C54      C        0.48960    0.76845    0.11250    1.000
    H37      H        0.38960    0.73470    0.18260    1.000
    H38      H        0.58250    0.78280    0.03110    1.000
    H39      H        0.78150    0.33420    0.05110    1.000
    H40      H        0.24020    0.52520    0.35890    1.000
    H41      H        0.22920    0.47770    0.17380    1.000
    C55      C        0.86000    0.60489    0.51100    1.000
    N10      N        0.64680    0.50138    0.75968    1.000
    N11      N        0.53500    0.92605    0.19923    1.000
    N12      N        0.26700    0.50109    0.75998    1.000
    C56      C        0.49450    0.82663    0.64150    1.000
    C57      C        0.67030    0.36560    0.57010    1.000
    H42      H        0.50000    0.37630    0.59850    1.000
    C58      C        0.73690    0.43330    0.50090    1.000
    H43      H        0.61650    0.49130    0.47820    1.000
    C59      C        0.00710    0.59946    0.01150    1.000
    H44      H        0.51400    0.60300    0.72600    1.000
    C60      C        0.23790    0.63671    0.75110    1.000
    C61      C        0.30850    0.70170    0.83060    1.000
    C62      C        0.50670    0.82268    0.14350    1.000
    C63      C        0.79600    0.59833    0.45170    1.000
    C64      C        0.79750    0.60950    0.56770    1.000
    C65      C        0.70460    0.50880    0.70450    1.000
    C66      C        0.71130    0.49117    0.81440    1.000
    C67      C        0.44760    0.84164    0.70090    1.000
    C68      C        0.56660    0.86440    0.61220    1.000
    C69      C        0.75640    0.38630    0.53350    1.000
    H45      H        0.68410    0.33280    0.59360    1.000
    H46      H        0.79720    0.44870    0.47610    1.000
    C70      C        0.07320    0.58320    0.06730    1.000
    C71      C        0.06730    0.61555    0.95730    1.000
    H47      H        0.25010    0.60570    0.72440    1.000
    C72      C        0.12940    0.66300    0.74770    1.000
    H48      H        0.36940    0.71500    0.85940    1.000
    C73      C        0.20160    0.72840    0.82630    1.000
    C74      C        0.50780    0.83050    0.21070    1.000
    C75      C        0.52100    0.86800    0.10520    1.000
    C76      C        0.67530    0.59493    0.45200    1.000
    H49      H        0.83500    0.59620    0.41140    1.000
    C77      C        0.67710    0.60510    0.56360    1.000
    H50      H        0.83720    0.61560    0.60900    1.000
    C78      C        0.82450    0.50700    0.70250    1.000
    H51      H        0.66060    0.51570    0.66470    1.000
    C79      C        0.83190    0.48875    0.81730    1.000
    H52      H        0.67170    0.48520    0.85390    1.000
    C80      C        0.47170    0.89193    0.72730    1.000
    H53      H        0.39880    0.81710    0.72320    1.000
    C81      C        0.58540    0.91490    0.64190    1.000
    H54      H        0.60270    0.85590    0.57220    1.000
    H55      H        0.82910    0.36790    0.53090    1.000
    H56      H        0.03550    0.57350    0.10640    1.000
    C82      C        0.19370    0.58131    0.06536    1.000
    C83      C        0.18910    0.61365    0.95980    1.000
    H57      H        0.02590    0.62780    0.91870    1.000
    H58      H        0.06810    0.64960    0.71930    1.000
    C84      C        0.11130    0.70820    0.78550    1.000
    H59      H        0.19010    0.76030    0.85130    1.000
    C85      C        0.52120    0.88250    0.23610    1.000
    H60      H        0.49940    0.80050    0.23950    1.000
    C86      C        0.53430    0.91800    0.13470    1.000
    H61      H        0.52170    0.86480    0.05860    1.000
    H62      H        0.63310    0.59110    0.41100    1.000
    H63      H        0.63590    0.60810    0.60310    1.000
    C87      C        0.89170    0.49760    0.75980    1.000
    H64      H        0.86140    0.51220    0.66200    1.000
    H65      H        0.87350    0.48120    0.85770    1.000
    H66      H        0.43930    0.90110    0.76820    1.000
    H67      H        0.63350    0.94050    0.62100    1.000
    H68      H        0.23710    0.56910    0.10340    1.000
    H69      H        0.22920    0.62550    0.92240    1.000
    H70      H        0.03720    0.72560    0.78360    1.000
    H71      H        0.52050    0.88700    0.28250    1.000
    H72      H        0.54350    0.94860    0.10710    1.000
    C88      C        0.02150    0.49792    0.76010    1.000
    C89      C        0.08780    0.51133    0.81570    1.000
    C90      C        0.08220    0.48450    0.70380    1.000
    C91      C        0.20820    0.51242    0.81400    1.000
    H73      H        0.05060    0.51980    0.85540    1.000
    C92      C        0.20230    0.48630    0.70630    1.000
    H74      H        0.04060    0.47420    0.66440    1.000
    H75      H        0.25180    0.52170    0.85320    1.000
    H76      H        0.24190    0.47650    0.66780    1.000
    Co5      Co       0.55524    0.00937    0.73620    1.000
    O13      O        0.55240    0.04463    0.64372    1.000
    O14      O        0.55970    0.98149    0.83057    1.000
    N13      N        0.36580    0.00885    0.73706    1.000
    O15      O        0.56080    0.09571    0.75696    1.000
    N14      N        0.46130    0.42852    0.30165    1.000
    N15      N        0.74530    0.00366    0.73412    1.000
    C93      C        0.57270    0.09431    0.63901    1.000
    C94      C        0.55830    0.00525    0.88532    1.000
    C95      C        0.30690    0.01420    0.79210    1.000
    C96      C        0.30260    0.00030    0.68080    1.000
    H77      H        0.50000    0.10560    0.77700    1.000
    C97      C        0.57970    0.12900    0.70166    1.000
    O16      O        0.58350    0.11951    0.58519    1.000
    O17      O        0.54570    0.05515    0.89375    1.000
    C98      C        0.57370    0.96817    0.94540    1.000
    H78      H        0.35010    0.02020    0.83240    1.000
    C99      C        0.18630    0.01140    0.79330    1.000
    H79      H        0.34290    0.99610    0.64120    1.000
    C100     C        0.18170    0.99741    0.67780    1.000
    H80      H        0.51560    0.15660    0.69840    1.000
    C101     C        0.69600    0.15884    0.70810    1.000
    Co6      Co       0.57485    0.09158    0.48980    1.000
    Co7      Co       0.55704    0.08768    0.98828    1.000
    O18      O        0.58390    0.00088    0.00345    1.000
    H81      H        0.64730    0.94670    0.94150    1.000
    C102     C        0.47120    0.92941    0.94730    1.000
    H82      H        0.14830    0.01500    0.83380    1.000
    C103     C        0.12130    0.00351    0.73540    1.000
    H83      H        0.14050    0.99130    0.63690    1.000
    C104     C        0.78790    0.13930    0.74740    1.000
    C105     C        0.71190    0.20590    0.67150    1.000
    N16      N        0.76510    0.09855    0.48853    1.000
    O19      O        0.55940    0.05693    0.39573    1.000
    N17      N        0.56660    0.17116    0.44773    1.000
    O20      O        0.59580    0.00476    0.50669    1.000
    N18      N        0.38500    0.09677    0.49303    1.000
    N19      N        0.36750    0.08825    0.99094    1.000
    O21      O        0.56290    0.11401    0.08394    1.000
    N20      N        0.54300    0.16706    0.94664    1.000
    N21      N        0.74760    0.09586    0.98751    1.000
    H84      H        0.65300    0.99830    0.02630    1.000
    C106     C        0.48220    0.87780    0.92170    1.000
    C107     C        0.36610    0.94480    0.97290    1.000
    C108     C        0.99090    0.00218    0.73460    1.000
    H85      H        0.77710    0.10800    0.77370    1.000
    C109     C        0.89700    0.16540    0.74880    1.000
    H86      H        0.64880    0.22060    0.64540    1.000
    C110     C        0.82150    0.23150    0.67330    1.000
    C111     C        0.82390    0.08260    0.43650    1.000
    C112     C        0.82840    0.12046    0.53940    1.000
    C113     C        0.55730    0.00659    0.38915    1.000
    C114     C        0.58270    0.17963    0.38410    1.000
    C115     C        0.53420    0.21440    0.48320    1.000
    C116     C        0.56800    0.97085    0.45110    1.000
    H87      H        0.66700    0.99700    0.52400    1.000
    C117     C        0.30770    0.08180    0.04620    1.000
    C118     C        0.30510    0.10119    0.93540    1.000
    C119     C        0.55310    0.08978    0.13770    1.000
    C120     C        0.58980    0.17877    0.88910    1.000
    C121     C        0.48140    0.20620    0.97530    1.000
    H88      H        0.55410    0.86670    0.90420    1.000
    C122     C        0.38620    0.84160    0.92160    1.000
    H89      H        0.35850    0.98020    0.99060    1.000
    C123     C        0.27080    0.90930    0.97330    1.000
    C124     C        0.92530    0.01567    0.67890    1.000
    C125     C        0.93120    0.98759    0.79070    1.000
    H90      H        0.95960    0.15160    0.77610    1.000
    C126     C        0.91360    0.21030    0.71130    1.000
    H91      H        0.83250    0.26350    0.64830    1.000
    H92      H        0.78100    0.06850    0.39940    1.000
    C127     C        0.94470    0.08590    0.43420    1.000
    C128     C        0.94920    0.12409    0.54080    1.000
    H93      H        0.78810    0.13400    0.57580    1.000
    O22      O        0.54810    0.98145    0.33538    1.000
    H94      H        0.60780    0.15000    0.35840    1.000
    C129     C        0.56490    0.22932    0.35340    1.000
    C130     C        0.51550    0.26510    0.45600    1.000
    H95      H        0.52370    0.20980    0.52890    1.000
    C131     C        0.45570    0.93972    0.45880    1.000
    H96      H        0.63330    0.94440    0.44590    1.000
    H97      H        0.35020    0.07390    0.08620    1.000
    C132     C        0.18660    0.08610    0.04730    1.000
    H98      H        0.34590    0.10730    0.89630    1.000
    C133     C        0.18450    0.10602    0.93260    1.000
    O23      O        0.53960    0.03954    0.14466    1.000
    C134     C        0.55680    0.12591    0.19950    1.000
    H99      H        0.63490    0.15180    0.86860    1.000
    C135     C        0.57570    0.22813    0.85830    1.000
    C136     C        0.46280    0.25650    0.94730    1.000
    H100     H        0.44920    0.19880    0.01670    1.000
    H101     H        0.39260    0.80630    0.90360    1.000
    C137     C        0.28270    0.85860    0.94820    1.000
    H102     H        0.19890    0.92040    0.99080    1.000
    C138     C        0.80350    0.01590    0.68020    1.000
    H103     H        0.96270    0.02480    0.63950    1.000
    C139     C        0.81040    0.98842    0.78810    1.000
    H104     H        0.97320    0.97730    0.83010    1.000
    H105     H        0.98840    0.22710    0.71120    1.000
    C140     C        0.01000    0.10515    0.48750    1.000
    H106     H        0.98240    0.07480    0.39570    1.000
    H107     H        0.99020    0.13940    0.57790    1.000
    Co8      Co       0.54229    0.00598    0.23888    1.000
    H108     H        0.57740    0.23310    0.30770    1.000
    C141     C        0.52880    0.27326    0.38940    1.000
    H109     H        0.49340    0.29450    0.48310    1.000
    C142     C        0.43940    0.89170    0.42610    1.000
    C143     C        0.36990    0.95930    0.49670    1.000
    H110     H        0.14790    0.08130    0.08730    1.000
    C144     C        0.12290    0.09738    0.98950    1.000
    H111     H        0.14410    0.11510    0.89240    1.000
    O24      O        0.53480    0.09294    0.25530    1.000
    H112     H        0.49300    0.15350    0.19450    1.000
    C145     C        0.67310    0.15540    0.20731    1.000
    C146     C        0.51040    0.26845    0.88750    1.000
    H113     H        0.61040    0.23470    0.81740    1.000
    H114     H        0.41750    0.28280    0.96890    1.000
    H115     H        0.21850    0.83420    0.94890    1.000
    H116     H        0.75980    0.02520    0.64110    1.000
    H117     H        0.77080    0.97770    0.82620    1.000
    C147     C        0.14000    0.10489    0.48900    1.000
    N22      N        0.35320    0.00138    0.24032    1.000
    N23      N        0.46500    0.42605    0.80077    1.000
    N24      N        0.73300    0.00109    0.24002    1.000
    C148     C        0.50550    0.32663    0.35850    1.000
    C149     C        0.32970    0.86560    0.42990    1.000
    H118     H        0.50000    0.87630    0.40150    1.000
    C150     C        0.26310    0.93330    0.49910    1.000
    H119     H        0.38350    0.99130    0.52180    1.000
    C151     C        0.99290    0.09946    0.98850    1.000
    H120     H        0.48600    0.10300    0.27400    1.000
    C152     C        0.76210    0.13671    0.24890    1.000
    C153     C        0.69150    0.20170    0.16940    1.000
    C154     C        0.49330    0.32268    0.85650    1.000
    C155     C        0.20400    0.09833    0.54830    1.000
    C156     C        0.20250    0.10950    0.43230    1.000
    C157     C        0.29540    0.00880    0.29550    1.000
    C158     C        0.28870    0.99117    0.18560    1.000
    C159     C        0.55240    0.34164    0.29910    1.000
    C160     C        0.43340    0.36440    0.38780    1.000
    C161     C        0.24360    0.88630    0.46650    1.000
    H121     H        0.31590    0.83280    0.40640    1.000
    H122     H        0.20280    0.94870    0.52390    1.000
    C162     C        0.92680    0.08320    0.93270    1.000
    C163     C        0.93270    0.11555    0.04270    1.000
    H123     H        0.74990    0.10570    0.27560    1.000
    C164     C        0.87060    0.16300    0.25230    1.000
    H124     H        0.63060    0.21500    0.14060    1.000
    C165     C        0.79840    0.22840    0.17370    1.000
    C166     C        0.49220    0.33050    0.78930    1.000
    C167     C        0.47900    0.36800    0.89480    1.000
    C168     C        0.32470    0.09493    0.54800    1.000
    H125     H        0.16500    0.09620    0.58860    1.000
    C169     C        0.32290    0.10510    0.43640    1.000
    H126     H        0.16280    0.11560    0.39100    1.000
    C170     C        0.17550    0.00700    0.29750    1.000
    H127     H        0.33940    0.01570    0.33530    1.000
    C171     C        0.16810    0.98875    0.18270    1.000
    H128     H        0.32830    0.98520    0.14610    1.000
    C172     C        0.52830    0.39193    0.27270    1.000
    H129     H        0.60120    0.31710    0.27680    1.000
    C173     C        0.41460    0.41490    0.35810    1.000
    H130     H        0.39730    0.35590    0.42780    1.000
    H131     H        0.17090    0.86790    0.46910    1.000
    H132     H        0.96450    0.07350    0.89360    1.000
    C174     C        0.80630    0.08131    0.93464    1.000
    C175     C        0.81090    0.11365    0.04020    1.000
    H133     H        0.97410    0.12780    0.08130    1.000
    H134     H        0.93190    0.14960    0.28070    1.000
    C176     C        0.88870    0.20820    0.21450    1.000
    H135     H        0.80990    0.26030    0.14870    1.000
    C177     C        0.47880    0.38250    0.76390    1.000
    H136     H        0.50060    0.30050    0.76050    1.000
    C178     C        0.46570    0.41800    0.86530    1.000
    H137     H        0.47830    0.36480    0.94140    1.000
    H138     H        0.36690    0.09110    0.58900    1.000
    H139     H        0.36410    0.10810    0.39690    1.000
    C179     C        0.10830    0.99760    0.24020    1.000
    H140     H        0.13860    0.01220    0.33800    1.000
    H141     H        0.12650    0.98120    0.14230    1.000
    H142     H        0.56070    0.40110    0.23180    1.000
    H143     H        0.36650    0.44050    0.37900    1.000
    H144     H        0.76290    0.06910    0.89660    1.000
    H145     H        0.77080    0.12550    0.07760    1.000
    H146     H        0.96280    0.22560    0.21640    1.000
    H147     H        0.47950    0.38700    0.71750    1.000
    H148     H        0.45650    0.44860    0.89290    1.000
    C180     C        0.97850    0.99792    0.23990    1.000
    C181     C        0.91220    0.01133    0.18430    1.000
    C182     C        0.91780    0.98450    0.29620    1.000
    C183     C        0.79180    0.01242    0.18600    1.000
    H149     H        0.94940    0.01980    0.14460    1.000
    C184     C        0.79770    0.98630    0.29370    1.000
    H150     H        0.95940    0.97420    0.33560    1.000
    H151     H        0.74820    0.02170    0.14680    1.000
    H152     H        0.75810    0.97650    0.33220    1.000
