data_functionalizedCrystal
_audit_creation_method	'EQeq! by Chris Wilmer'
_symmetry_space_group_name_H-M	'P1'
_symmetry_Int_Tables_number	1
_symmetry_cell_setting	triclinic
loop_
_symmetry_equiv_pos_as_xyz
  x,y,z
_cell_length_a	28.7595
_cell_length_b	28.7595
_cell_length_c	28.7595
_cell_angle_alpha	90
_cell_angle_beta	90
_cell_angle_gamma	90
loop_
_atom_site_label
_atom_site_type_symbol
_atom_site_fract_x
_atom_site_fract_y
_atom_site_fract_z
_atom_site_charge
Mof_Co	Co	0.3965	0.1044	0.2515	1.109
Mof_C 	C 	0.3359	0.0232	0.2221	0.063
Mof_C 	C 	0.309	0.0535	0.201	-0.149
Mof_H 	H 	0.2986	0.0823	0.1989	0.065
Mof_C 	C 	0.2663	0.029	0.18	-0.034
Mof_H 	H 	0.2405	0.0402	0.1662	0.033
Mof_C 	C 	0.402	0.114	0.148	-0.118
Mof_C 	C 	0.41	0.069	0.139	0.14
Mof_H 	H 	0.4132	0.04	0.1556	-0.038
Mof_C 	C 	0.414	0.054	0.088	-0.083
Mof_H 	H 	0.4171	0.0224	0.0775	0.043
Mof_C 	C 	0.3554	0.1729	0.3194	0.041
Mof_C 	C 	0.3848	0.2117	0.3144	-0.118
Mof_H 	H 	0.4095	0.2154	0.2944	0.044
Mof_C 	C 	0.3747	0.2499	0.3428	-0.013
Mof_H 	H 	0.3882	0.2836	0.3299	0.021
Mof_C 	C 	0.477	0.077	0.314	0.089
Mof_C 	C 	0.453	0.058	0.348	-0.105
Mof_H 	H 	0.4179	0.0602	0.3544	0.031
Mof_C 	C 	0.478	0.032	0.387	-0.017
Mof_H 	H 	0.4615	0.0162	0.4084	0.021
Mof_N 	N 	0.3767	0.0385	0.2427	-0.272
Mof_N 	N 	0.3986	0.1339	0.1903	-0.278
Mof_N 	N 	0.3536	0.1301	0.2972	-0.298
Mof_N 	N 	0.4606	0.1006	0.2768	-0.281
Mof_C 	C 	0.427	0.118	0.153	0.161
Mof_C 	C 	0.445	0.076	0.146	-0.267
Mof_H 	H 	0.4418	0.0502	0.168	0.084
Mof_C 	C 	0.461	0.071	0.103	0.045
Mof_H 	H 	0.4752	0.0422	0.0966	0.007
Mof_H 	H 	0.3025	0.0835	0.3184	-0.038
Mof_C 	C 	0.4747	0.1015	0.3231	-0.042
Mof_C 	C 	0.4499	0.0957	0.3647	0.009
Mof_H 	H 	0.4176	0.0949	0.3652	0.002
Mof_C 	C 	0.475	0.093	0.406	-0.05
Mof_H 	H 	0.4607	0.0882	0.4336	0.036
Mof_Co	Co	0.6035	0.8956	0.2515	1.109
Mof_C 	C 	0.6641	0.9768	0.2221	0.069
Mof_C 	C 	0.691	0.9465	0.201	-0.153
Mof_H 	H 	0.7014	0.9177	0.1989	0.067
Mof_C 	C 	0.7337	0.971	0.18	-0.03
Mof_H 	H 	0.7595	0.9598	0.1662	0.032
Mof_C 	C 	0.598	0.886	0.148	-0.118
Mof_C 	C 	0.59	0.931	0.139	0.14
Mof_H 	H 	0.5868	0.96	0.1556	-0.038
Mof_C 	C 	0.586	0.946	0.088	-0.083
Mof_H 	H 	0.5829	0.9776	0.0775	0.044
Mof_C 	C 	0.6446	0.8271	0.3194	0.041
Mof_C 	C 	0.6152	0.7883	0.3144	-0.118
Mof_H 	H 	0.5905	0.7846	0.2944	0.044
Mof_C 	C 	0.6253	0.7501	0.3428	-0.013
Mof_H 	H 	0.6118	0.7164	0.3299	0.021
Mof_C 	C 	0.523	0.923	0.314	0.089
Mof_C 	C 	0.547	0.942	0.348	-0.104
Mof_H 	H 	0.5821	0.9398	0.3544	0.031
Mof_C 	C 	0.522	0.968	0.387	-0.017
Mof_H 	H 	0.5385	0.9838	0.4084	0.023
Mof_N 	N 	0.6233	0.9615	0.2427	-0.273
Mof_N 	N 	0.6014	0.8661	0.1903	-0.278
Mof_N 	N 	0.6464	0.8699	0.2972	-0.298
Mof_N 	N 	0.5394	0.8994	0.2768	-0.28
Mof_C 	C 	0.573	0.882	0.153	0.162
Mof_C 	C 	0.555	0.924	0.146	-0.266
Mof_H 	H 	0.5582	0.9498	0.168	0.086
Mof_C 	C 	0.539	0.929	0.103	0.047
Mof_H 	H 	0.5248	0.9578	0.0966	0.008
Mof_H 	H 	0.6975	0.9165	0.3184	-0.037
Mof_C 	C 	0.5253	0.8985	0.3231	-0.041
Mof_C 	C 	0.5501	0.9043	0.3647	0.009
Mof_H 	H 	0.5824	0.9051	0.3652	0.003
Mof_C 	C 	0.525	0.907	0.406	-0.049
Mof_H 	H 	0.5393	0.9118	0.4336	0.037
Mof_Co	Co	0.6035	0.1044	0.7485	1.11
Mof_C 	C 	0.6641	0.0232	0.7779	0.064
Mof_C 	C 	0.691	0.0535	0.799	-0.148
Mof_H 	H 	0.7014	0.0823	0.8011	0.066
Mof_C 	C 	0.7337	0.029	0.82	-0.033
Mof_H 	H 	0.7595	0.0402	0.8338	0.035
Mof_C 	C 	0.598	0.114	0.852	-0.117
Mof_C 	C 	0.59	0.069	0.861	0.141
Mof_H 	H 	0.5868	0.04	0.8444	-0.037
Mof_C 	C 	0.586	0.054	0.912	-0.082
Mof_H 	H 	0.5829	0.0224	0.9225	0.044
Mof_C 	C 	0.6446	0.1729	0.6806	0.042
Mof_C 	C 	0.6152	0.2117	0.6856	-0.117
Mof_H 	H 	0.5905	0.2154	0.7056	0.045
Mof_C 	C 	0.6253	0.2499	0.6572	-0.012
Mof_H 	H 	0.6118	0.2836	0.6701	0.022
Mof_C 	C 	0.523	0.077	0.686	0.09
Mof_C 	C 	0.547	0.058	0.652	-0.104
Mof_H 	H 	0.5821	0.0602	0.6456	0.032
Mof_C 	C 	0.522	0.032	0.613	-0.016
Mof_H 	H 	0.5385	0.0162	0.5916	0.022
Mof_N 	N 	0.6233	0.0385	0.7573	-0.271
Mof_N 	N 	0.6014	0.1339	0.8097	-0.277
Mof_N 	N 	0.6464	0.1301	0.7028	-0.297
Mof_N 	N 	0.5394	0.1006	0.7232	-0.28
Mof_C 	C 	0.573	0.118	0.847	0.162
Mof_C 	C 	0.555	0.076	0.854	-0.266
Mof_H 	H 	0.5582	0.0502	0.832	0.085
Mof_C 	C 	0.539	0.071	0.897	0.046
Mof_H 	H 	0.5248	0.0422	0.9034	0.008
Mof_H 	H 	0.6975	0.0835	0.6816	-0.037
Mof_C 	C 	0.5253	0.1015	0.6769	-0.041
Mof_C 	C 	0.5501	0.0957	0.6353	0.01
Mof_H 	H 	0.5824	0.0949	0.6348	0.003
Mof_C 	C 	0.525	0.093	0.594	-0.049
Mof_H 	H 	0.5393	0.0882	0.5664	0.037
Mof_Co	Co	0.3965	0.8956	0.7485	1.11
Mof_C 	C 	0.3359	0.9768	0.7779	0.07
Mof_C 	C 	0.309	0.9465	0.799	-0.152
Mof_H 	H 	0.2986	0.9177	0.8011	0.068
Mof_C 	C 	0.2663	0.971	0.82	-0.029
Mof_H 	H 	0.2405	0.9598	0.8338	0.033
Mof_C 	C 	0.402	0.886	0.852	-0.117
Mof_C 	C 	0.41	0.931	0.861	0.141
Mof_H 	H 	0.4132	0.96	0.8444	-0.037
Mof_C 	C 	0.414	0.946	0.912	-0.082
Mof_H 	H 	0.4171	0.9776	0.9225	0.045
Mof_C 	C 	0.3554	0.8271	0.6806	0.042
Mof_C 	C 	0.3848	0.7883	0.6856	-0.117
Mof_H 	H 	0.4095	0.7846	0.7056	0.045
Mof_C 	C 	0.3747	0.7501	0.6572	-0.012
Mof_H 	H 	0.3882	0.7164	0.6701	0.022
Mof_C 	C 	0.477	0.923	0.686	0.09
Mof_C 	C 	0.453	0.942	0.652	-0.103
Mof_H 	H 	0.4179	0.9398	0.6456	0.032
Mof_C 	C 	0.478	0.968	0.613	-0.016
Mof_H 	H 	0.4615	0.9838	0.5916	0.024
Mof_N 	N 	0.3767	0.9615	0.7573	-0.272
Mof_N 	N 	0.3986	0.8661	0.8097	-0.277
Mof_N 	N 	0.3536	0.8699	0.7028	-0.297
Mof_N 	N 	0.4606	0.8994	0.7232	-0.28
Mof_C 	C 	0.427	0.882	0.847	0.162
Mof_C 	C 	0.445	0.924	0.854	-0.266
Mof_H 	H 	0.4418	0.9498	0.832	0.086
Mof_C 	C 	0.461	0.929	0.897	0.047
Mof_H 	H 	0.4752	0.9578	0.9034	0.008
Mof_H 	H 	0.3025	0.9165	0.6816	-0.037
Mof_C 	C 	0.4747	0.8985	0.6769	-0.041
Mof_C 	C 	0.4499	0.9043	0.6353	0.009
Mof_H 	H 	0.4176	0.9051	0.6348	0.003
Mof_C 	C 	0.475	0.907	0.594	-0.049
Mof_H 	H 	0.4607	0.9118	0.5664	0.037
Mof_Co	Co	0.2515	0.3965	0.1044	1.11
Mof_C 	C 	0.2221	0.3359	0.0232	0.064
Mof_C 	C 	0.201	0.309	0.0535	-0.148
Mof_H 	H 	0.1989	0.2986	0.0823	0.066
Mof_C 	C 	0.18	0.2663	0.029	-0.033
Mof_H 	H 	0.1662	0.2405	0.0402	0.034
Mof_C 	C 	0.148	0.402	0.114	-0.117
Mof_C 	C 	0.139	0.41	0.069	0.141
Mof_H 	H 	0.1556	0.4132	0.04	-0.037
Mof_C 	C 	0.088	0.414	0.054	-0.082
Mof_H 	H 	0.0775	0.4171	0.0224	0.044
Mof_C 	C 	0.3194	0.3554	0.1729	0.042
Mof_C 	C 	0.3144	0.3848	0.2117	-0.117
Mof_H 	H 	0.2944	0.4095	0.2154	0.045
Mof_C 	C 	0.3428	0.3747	0.2499	-0.012
Mof_H 	H 	0.3299	0.3882	0.2836	0.022
Mof_C 	C 	0.314	0.477	0.077	0.09
Mof_C 	C 	0.348	0.453	0.058	-0.104
Mof_H 	H 	0.3544	0.4179	0.0602	0.032
Mof_C 	C 	0.387	0.478	0.032	-0.016
Mof_H 	H 	0.4084	0.4615	0.0162	0.022
Mof_N 	N 	0.2427	0.3767	0.0385	-0.271
Mof_N 	N 	0.1903	0.3986	0.1339	-0.277
Mof_N 	N 	0.2972	0.3536	0.1301	-0.297
Mof_N 	N 	0.2768	0.4606	0.1006	-0.28
Mof_C 	C 	0.153	0.427	0.118	0.162
Mof_C 	C 	0.146	0.445	0.076	-0.266
Mof_H 	H 	0.168	0.4418	0.0502	0.085
Mof_C 	C 	0.103	0.461	0.071	0.046
Mof_H 	H 	0.0966	0.4752	0.0422	0.008
Mof_H 	H 	0.3184	0.3025	0.0835	-0.037
Mof_C 	C 	0.3231	0.4747	0.1015	-0.041
Mof_C 	C 	0.3647	0.4499	0.0957	0.01
Mof_H 	H 	0.3652	0.4176	0.0949	0.003
Mof_C 	C 	0.406	0.475	0.093	-0.049
Mof_H 	H 	0.4336	0.4607	0.0882	0.037
Mof_Co	Co	0.2515	0.6035	0.8956	1.11
Mof_C 	C 	0.2221	0.6641	0.9768	0.07
Mof_C 	C 	0.201	0.691	0.9465	-0.152
Mof_H 	H 	0.1989	0.7014	0.9177	0.068
Mof_C 	C 	0.18	0.7337	0.971	-0.029
Mof_H 	H 	0.1662	0.7595	0.9598	0.033
Mof_C 	C 	0.148	0.598	0.886	-0.117
Mof_C 	C 	0.139	0.59	0.931	0.141
Mof_H 	H 	0.1556	0.5868	0.96	-0.037
Mof_C 	C 	0.088	0.586	0.946	-0.082
Mof_H 	H 	0.0775	0.5829	0.9776	0.045
Mof_C 	C 	0.3194	0.6446	0.8271	0.042
Mof_C 	C 	0.3144	0.6152	0.7883	-0.117
Mof_H 	H 	0.2944	0.5905	0.7846	0.045
Mof_C 	C 	0.3428	0.6253	0.7501	-0.012
Mof_H 	H 	0.3299	0.6118	0.7164	0.022
Mof_C 	C 	0.314	0.523	0.923	0.09
Mof_C 	C 	0.348	0.547	0.942	-0.103
Mof_H 	H 	0.3544	0.5821	0.9398	0.032
Mof_C 	C 	0.387	0.522	0.968	-0.016
Mof_H 	H 	0.4084	0.5385	0.9838	0.024
Mof_N 	N 	0.2427	0.6233	0.9615	-0.272
Mof_N 	N 	0.1903	0.6014	0.8661	-0.277
Mof_N 	N 	0.2972	0.6464	0.8699	-0.297
Mof_N 	N 	0.2768	0.5394	0.8994	-0.28
Mof_C 	C 	0.153	0.573	0.882	0.162
Mof_C 	C 	0.146	0.555	0.924	-0.266
Mof_H 	H 	0.168	0.5582	0.9498	0.086
Mof_C 	C 	0.103	0.539	0.929	0.047
Mof_H 	H 	0.0966	0.5248	0.9578	0.008
Mof_H 	H 	0.3184	0.6975	0.9165	-0.037
Mof_C 	C 	0.3231	0.5253	0.8985	-0.041
Mof_C 	C 	0.3647	0.5501	0.9043	0.009
Mof_H 	H 	0.3652	0.5824	0.9051	0.003
Mof_C 	C 	0.406	0.525	0.907	-0.049
Mof_H 	H 	0.4336	0.5393	0.9118	0.037
Mof_Co	Co	0.7485	0.6035	0.1044	1.11
Mof_C 	C 	0.7779	0.6641	0.0232	0.064
Mof_C 	C 	0.799	0.691	0.0535	-0.148
Mof_H 	H 	0.8011	0.7014	0.0823	0.066
Mof_C 	C 	0.82	0.7337	0.029	-0.033
Mof_H 	H 	0.8338	0.7595	0.0402	0.035
Mof_C 	C 	0.852	0.598	0.114	-0.117
Mof_C 	C 	0.861	0.59	0.069	0.141
Mof_H 	H 	0.8444	0.5868	0.04	-0.037
Mof_C 	C 	0.912	0.586	0.054	-0.082
Mof_H 	H 	0.9225	0.5829	0.0224	0.044
Mof_C 	C 	0.6806	0.6446	0.1729	0.042
Mof_C 	C 	0.6856	0.6152	0.2117	-0.117
Mof_H 	H 	0.7056	0.5905	0.2154	0.045
Mof_C 	C 	0.6572	0.6253	0.2499	-0.012
Mof_H 	H 	0.6701	0.6118	0.2836	0.022
Mof_C 	C 	0.686	0.523	0.077	0.09
Mof_C 	C 	0.652	0.547	0.058	-0.104
Mof_H 	H 	0.6456	0.5821	0.0602	0.032
Mof_C 	C 	0.613	0.522	0.032	-0.016
Mof_H 	H 	0.5916	0.5385	0.0162	0.022
Mof_N 	N 	0.7573	0.6233	0.0385	-0.271
Mof_N 	N 	0.8097	0.6014	0.1339	-0.277
Mof_N 	N 	0.7028	0.6464	0.1301	-0.297
Mof_N 	N 	0.7232	0.5394	0.1006	-0.28
Mof_C 	C 	0.847	0.573	0.118	0.162
Mof_C 	C 	0.854	0.555	0.076	-0.266
Mof_H 	H 	0.832	0.5582	0.0502	0.085
Mof_C 	C 	0.897	0.539	0.071	0.046
Mof_H 	H 	0.9034	0.5248	0.0422	0.008
Mof_H 	H 	0.6816	0.6975	0.0835	-0.037
Mof_C 	C 	0.6769	0.5253	0.1015	-0.041
Mof_C 	C 	0.6353	0.5501	0.0957	0.01
Mof_H 	H 	0.6348	0.5824	0.0949	0.003
Mof_C 	C 	0.594	0.525	0.093	-0.049
Mof_H 	H 	0.5664	0.5393	0.0882	0.037
Mof_Co	Co	0.7485	0.3965	0.8956	1.11
Mof_C 	C 	0.7779	0.3359	0.9768	0.07
Mof_C 	C 	0.799	0.309	0.9465	-0.152
Mof_H 	H 	0.8011	0.2986	0.9177	0.068
Mof_C 	C 	0.82	0.2663	0.971	-0.029
Mof_H 	H 	0.8338	0.2405	0.9598	0.033
Mof_C 	C 	0.852	0.402	0.886	-0.117
Mof_C 	C 	0.861	0.41	0.931	0.141
Mof_H 	H 	0.8444	0.4132	0.96	-0.037
Mof_C 	C 	0.912	0.414	0.946	-0.082
Mof_H 	H 	0.9225	0.4171	0.9776	0.045
Mof_C 	C 	0.6806	0.3554	0.8271	0.042
Mof_C 	C 	0.6856	0.3848	0.7883	-0.117
Mof_H 	H 	0.7056	0.4095	0.7846	0.045
Mof_C 	C 	0.6572	0.3747	0.7501	-0.012
Mof_H 	H 	0.6701	0.3882	0.7164	0.022
Mof_C 	C 	0.686	0.477	0.923	0.09
Mof_C 	C 	0.652	0.453	0.942	-0.103
Mof_H 	H 	0.6456	0.4179	0.9398	0.032
Mof_C 	C 	0.613	0.478	0.968	-0.016
Mof_H 	H 	0.5916	0.4615	0.9838	0.024
Mof_N 	N 	0.7573	0.3767	0.9615	-0.272
Mof_N 	N 	0.8097	0.3986	0.8661	-0.277
Mof_N 	N 	0.7028	0.3536	0.8699	-0.297
Mof_N 	N 	0.7232	0.4606	0.8994	-0.28
Mof_C 	C 	0.847	0.427	0.882	0.162
Mof_C 	C 	0.854	0.445	0.924	-0.266
Mof_H 	H 	0.832	0.4418	0.9498	0.086
Mof_C 	C 	0.897	0.461	0.929	0.047
Mof_H 	H 	0.9034	0.4752	0.9578	0.008
Mof_H 	H 	0.6816	0.3025	0.9165	-0.037
Mof_C 	C 	0.6769	0.4747	0.8985	-0.041
Mof_C 	C 	0.6353	0.4499	0.9043	0.009
Mof_H 	H 	0.6348	0.4176	0.9051	0.003
Mof_C 	C 	0.594	0.475	0.907	-0.049
Mof_H 	H 	0.5664	0.4607	0.9118	0.037
Mof_Co	Co	0.1044	0.2515	0.3965	1.11
Mof_C 	C 	0.0232	0.2221	0.3359	0.064
Mof_C 	C 	0.0535	0.201	0.309	-0.148
Mof_H 	H 	0.0823	0.1989	0.2986	0.066
Mof_C 	C 	0.029	0.18	0.2663	-0.033
Mof_H 	H 	0.0402	0.1662	0.2405	0.034
Mof_C 	C 	0.114	0.148	0.402	-0.117
Mof_C 	C 	0.069	0.139	0.41	0.141
Mof_H 	H 	0.04	0.1556	0.4132	-0.037
Mof_C 	C 	0.054	0.088	0.414	-0.082
Mof_H 	H 	0.0224	0.0775	0.4171	0.044
Mof_C 	C 	0.1729	0.3194	0.3554	0.042
Mof_C 	C 	0.2117	0.3144	0.3848	-0.117
Mof_H 	H 	0.2154	0.2944	0.4095	0.045
Mof_C 	C 	0.2499	0.3428	0.3747	-0.012
Mof_H 	H 	0.2836	0.3299	0.3882	0.022
Mof_C 	C 	0.077	0.314	0.477	0.09
Mof_C 	C 	0.058	0.348	0.453	-0.104
Mof_H 	H 	0.0602	0.3544	0.4179	0.032
Mof_C 	C 	0.032	0.387	0.478	-0.016
Mof_H 	H 	0.0162	0.4084	0.4615	0.022
Mof_N 	N 	0.0385	0.2427	0.3767	-0.271
Mof_N 	N 	0.1339	0.1903	0.3986	-0.277
Mof_N 	N 	0.1301	0.2972	0.3536	-0.297
Mof_N 	N 	0.1006	0.2768	0.4606	-0.28
Mof_C 	C 	0.118	0.153	0.427	0.162
Mof_C 	C 	0.076	0.146	0.445	-0.266
Mof_H 	H 	0.0502	0.168	0.4418	0.085
Mof_C 	C 	0.071	0.103	0.461	0.046
Mof_H 	H 	0.0422	0.0966	0.4752	0.008
Mof_H 	H 	0.0835	0.3184	0.3025	-0.037
Mof_C 	C 	0.1015	0.3231	0.4747	-0.041
Mof_C 	C 	0.0957	0.3647	0.4499	0.01
Mof_H 	H 	0.0949	0.3652	0.4176	0.003
Mof_C 	C 	0.093	0.406	0.475	-0.049
Mof_H 	H 	0.0882	0.4336	0.4607	0.037
Mof_Co	Co	0.8956	0.2515	0.6035	1.11
Mof_C 	C 	0.9768	0.2221	0.6641	0.07
Mof_C 	C 	0.9465	0.201	0.691	-0.152
Mof_H 	H 	0.9177	0.1989	0.7014	0.068
Mof_C 	C 	0.971	0.18	0.7337	-0.029
Mof_H 	H 	0.9598	0.1662	0.7595	0.033
Mof_C 	C 	0.886	0.148	0.598	-0.117
Mof_C 	C 	0.931	0.139	0.59	0.141
Mof_H 	H 	0.96	0.1556	0.5868	-0.037
Mof_C 	C 	0.946	0.088	0.586	-0.082
Mof_H 	H 	0.9776	0.0775	0.5829	0.045
Mof_C 	C 	0.8271	0.3194	0.6446	0.042
Mof_C 	C 	0.7883	0.3144	0.6152	-0.117
Mof_H 	H 	0.7846	0.2944	0.5905	0.045
Mof_C 	C 	0.7501	0.3428	0.6253	-0.012
Mof_H 	H 	0.7164	0.3299	0.6118	0.022
Mof_C 	C 	0.923	0.314	0.523	0.09
Mof_C 	C 	0.942	0.348	0.547	-0.103
Mof_H 	H 	0.9398	0.3544	0.5821	0.032
Mof_C 	C 	0.968	0.387	0.522	-0.016
Mof_H 	H 	0.9838	0.4084	0.5385	0.024
Mof_N 	N 	0.9615	0.2427	0.6233	-0.272
Mof_N 	N 	0.8661	0.1903	0.6014	-0.277
Mof_N 	N 	0.8699	0.2972	0.6464	-0.297
Mof_N 	N 	0.8994	0.2768	0.5394	-0.28
Mof_C 	C 	0.882	0.153	0.573	0.162
Mof_C 	C 	0.924	0.146	0.555	-0.266
Mof_H 	H 	0.9498	0.168	0.5582	0.086
Mof_C 	C 	0.929	0.103	0.539	0.047
Mof_H 	H 	0.9578	0.0966	0.5248	0.008
Mof_H 	H 	0.9165	0.3184	0.6975	-0.037
Mof_C 	C 	0.8985	0.3231	0.5253	-0.041
Mof_C 	C 	0.9043	0.3647	0.5501	0.009
Mof_H 	H 	0.9051	0.3652	0.5824	0.003
Mof_C 	C 	0.907	0.406	0.525	-0.049
Mof_H 	H 	0.9118	0.4336	0.5393	0.037
Mof_Co	Co	0.1044	0.7485	0.6035	1.11
Mof_C 	C 	0.0232	0.7779	0.6641	0.064
Mof_C 	C 	0.0535	0.799	0.691	-0.148
Mof_H 	H 	0.0823	0.8011	0.7014	0.066
Mof_C 	C 	0.029	0.82	0.7337	-0.033
Mof_H 	H 	0.0402	0.8338	0.7595	0.035
Mof_C 	C 	0.114	0.852	0.598	-0.117
Mof_C 	C 	0.069	0.861	0.59	0.141
Mof_H 	H 	0.04	0.8444	0.5868	-0.037
Mof_C 	C 	0.054	0.912	0.586	-0.082
Mof_H 	H 	0.0224	0.9225	0.5829	0.044
Mof_C 	C 	0.1729	0.6806	0.6446	0.042
Mof_C 	C 	0.2117	0.6856	0.6152	-0.117
Mof_H 	H 	0.2154	0.7056	0.5905	0.045
Mof_C 	C 	0.2499	0.6572	0.6253	-0.012
Mof_H 	H 	0.2836	0.6701	0.6118	0.022
Mof_C 	C 	0.077	0.686	0.523	0.09
Mof_C 	C 	0.058	0.652	0.547	-0.104
Mof_H 	H 	0.0602	0.6456	0.5821	0.032
Mof_C 	C 	0.032	0.613	0.522	-0.016
Mof_H 	H 	0.0162	0.5916	0.5385	0.022
Mof_N 	N 	0.0385	0.7573	0.6233	-0.271
Mof_N 	N 	0.1339	0.8097	0.6014	-0.277
Mof_N 	N 	0.1301	0.7028	0.6464	-0.297
Mof_N 	N 	0.1006	0.7232	0.5394	-0.28
Mof_C 	C 	0.118	0.847	0.573	0.162
Mof_C 	C 	0.076	0.854	0.555	-0.266
Mof_H 	H 	0.0502	0.832	0.5582	0.085
Mof_C 	C 	0.071	0.897	0.539	0.046
Mof_H 	H 	0.0422	0.9034	0.5248	0.008
Mof_H 	H 	0.0835	0.6816	0.6975	-0.037
Mof_C 	C 	0.1015	0.6769	0.5253	-0.041
Mof_C 	C 	0.0957	0.6353	0.5501	0.01
Mof_H 	H 	0.0949	0.6348	0.5824	0.003
Mof_C 	C 	0.093	0.594	0.525	-0.049
Mof_H 	H 	0.0882	0.5664	0.5393	0.037
Mof_Co	Co	0.8956	0.7485	0.3965	1.11
Mof_C 	C 	0.9768	0.7779	0.3359	0.07
Mof_C 	C 	0.9465	0.799	0.309	-0.152
Mof_H 	H 	0.9177	0.8011	0.2986	0.068
Mof_C 	C 	0.971	0.82	0.2663	-0.029
Mof_H 	H 	0.9598	0.8338	0.2405	0.033
Mof_C 	C 	0.886	0.852	0.402	-0.117
Mof_C 	C 	0.931	0.861	0.41	0.141
Mof_H 	H 	0.96	0.8444	0.4132	-0.037
Mof_C 	C 	0.946	0.912	0.414	-0.082
Mof_H 	H 	0.9776	0.9225	0.4171	0.045
Mof_C 	C 	0.8271	0.6806	0.3554	0.042
Mof_C 	C 	0.7883	0.6856	0.3848	-0.117
Mof_H 	H 	0.7846	0.7056	0.4095	0.045
Mof_C 	C 	0.7501	0.6572	0.3747	-0.012
Mof_H 	H 	0.7164	0.6701	0.3882	0.022
Mof_C 	C 	0.923	0.686	0.477	0.09
Mof_C 	C 	0.942	0.652	0.453	-0.103
Mof_H 	H 	0.9398	0.6456	0.4179	0.032
Mof_C 	C 	0.968	0.613	0.478	-0.016
Mof_H 	H 	0.9838	0.5916	0.4615	0.024
Mof_N 	N 	0.9615	0.7573	0.3767	-0.272
Mof_N 	N 	0.8661	0.8097	0.3986	-0.277
Mof_N 	N 	0.8699	0.7028	0.3536	-0.297
Mof_N 	N 	0.8994	0.7232	0.4606	-0.28
Mof_C 	C 	0.882	0.847	0.427	0.162
Mof_C 	C 	0.924	0.854	0.445	-0.266
Mof_H 	H 	0.9498	0.832	0.4418	0.086
Mof_C 	C 	0.929	0.897	0.461	0.047
Mof_H 	H 	0.9578	0.9034	0.4752	0.008
Mof_H 	H 	0.9165	0.6816	0.3025	-0.037
Mof_C 	C 	0.8985	0.6769	0.4747	-0.041
Mof_C 	C 	0.9043	0.6353	0.4499	0.009
Mof_H 	H 	0.9051	0.6348	0.4176	0.003
Mof_C 	C 	0.907	0.594	0.475	-0.049
Mof_H 	H 	0.9118	0.5664	0.4607	0.037
Mof_Co	Co	0.1044	0.3965	0.7485	1.11
Mof_C 	C 	0.0232	0.3359	0.7779	0.064
Mof_C 	C 	0.0535	0.309	0.799	-0.148
Mof_H 	H 	0.0823	0.2986	0.8011	0.066
Mof_C 	C 	0.029	0.2663	0.82	-0.033
Mof_H 	H 	0.0402	0.2405	0.8338	0.035
Mof_C 	C 	0.114	0.402	0.852	-0.117
Mof_C 	C 	0.069	0.41	0.861	0.141
Mof_H 	H 	0.04	0.4132	0.8444	-0.037
Mof_C 	C 	0.054	0.414	0.912	-0.082
Mof_H 	H 	0.0224	0.4171	0.9225	0.044
Mof_C 	C 	0.1729	0.3554	0.6806	0.042
Mof_C 	C 	0.2117	0.3848	0.6856	-0.117
Mof_H 	H 	0.2154	0.4095	0.7056	0.045
Mof_C 	C 	0.2499	0.3747	0.6572	-0.012
Mof_H 	H 	0.2836	0.3882	0.6701	0.022
Mof_C 	C 	0.077	0.477	0.686	0.09
Mof_C 	C 	0.058	0.453	0.652	-0.104
Mof_H 	H 	0.0602	0.4179	0.6456	0.032
Mof_C 	C 	0.032	0.478	0.613	-0.016
Mof_H 	H 	0.0162	0.4615	0.5916	0.022
Mof_N 	N 	0.0385	0.3767	0.7573	-0.271
Mof_N 	N 	0.1339	0.3986	0.8097	-0.277
Mof_N 	N 	0.1301	0.3536	0.7028	-0.297
Mof_N 	N 	0.1006	0.4606	0.7232	-0.28
Mof_C 	C 	0.118	0.427	0.847	0.162
Mof_C 	C 	0.076	0.445	0.854	-0.266
Mof_H 	H 	0.0502	0.4418	0.832	0.085
Mof_C 	C 	0.071	0.461	0.897	0.046
Mof_H 	H 	0.0422	0.4752	0.9034	0.008
Mof_H 	H 	0.0835	0.3025	0.6816	-0.037
Mof_C 	C 	0.1015	0.4747	0.6769	-0.041
Mof_C 	C 	0.0957	0.4499	0.6353	0.01
Mof_H 	H 	0.0949	0.4176	0.6348	0.003
Mof_C 	C 	0.093	0.475	0.594	-0.049
Mof_H 	H 	0.0882	0.4607	0.5664	0.037
Mof_Co	Co	0.8956	0.6035	0.7485	1.11
Mof_C 	C 	0.9768	0.6641	0.7779	0.07
Mof_C 	C 	0.9465	0.691	0.799	-0.152
Mof_H 	H 	0.9177	0.7014	0.8011	0.068
Mof_C 	C 	0.971	0.7337	0.82	-0.029
Mof_H 	H 	0.9598	0.7595	0.8338	0.034
Mof_C 	C 	0.886	0.598	0.852	-0.117
Mof_C 	C 	0.931	0.59	0.861	0.141
Mof_H 	H 	0.96	0.5868	0.8444	-0.037
Mof_C 	C 	0.946	0.586	0.912	-0.082
Mof_H 	H 	0.9776	0.5829	0.9225	0.045
Mof_C 	C 	0.8271	0.6446	0.6806	0.042
Mof_C 	C 	0.7883	0.6152	0.6856	-0.117
Mof_H 	H 	0.7846	0.5905	0.7056	0.045
Mof_C 	C 	0.7501	0.6253	0.6572	-0.012
Mof_H 	H 	0.7164	0.6118	0.6701	0.022
Mof_C 	C 	0.923	0.523	0.686	0.09
Mof_C 	C 	0.942	0.547	0.652	-0.103
Mof_H 	H 	0.9398	0.5821	0.6456	0.032
Mof_C 	C 	0.968	0.522	0.613	-0.016
Mof_H 	H 	0.9838	0.5385	0.5916	0.024
Mof_N 	N 	0.9615	0.6233	0.7573	-0.272
Mof_N 	N 	0.8661	0.6014	0.8097	-0.277
Mof_N 	N 	0.8699	0.6464	0.7028	-0.297
Mof_N 	N 	0.8994	0.5394	0.7232	-0.28
Mof_C 	C 	0.882	0.573	0.847	0.162
Mof_C 	C 	0.924	0.555	0.854	-0.266
Mof_H 	H 	0.9498	0.5582	0.832	0.086
Mof_C 	C 	0.929	0.539	0.897	0.047
Mof_H 	H 	0.9578	0.5248	0.9034	0.008
Mof_H 	H 	0.9165	0.6975	0.6816	-0.037
Mof_C 	C 	0.8985	0.5253	0.6769	-0.041
Mof_C 	C 	0.9043	0.5501	0.6353	0.009
Mof_H 	H 	0.9051	0.5824	0.6348	0.003
Mof_C 	C 	0.907	0.525	0.594	-0.049
Mof_H 	H 	0.9118	0.5393	0.5664	0.037
Mof_Co	Co	0.1044	0.6035	0.2515	1.11
Mof_C 	C 	0.0232	0.6641	0.2221	0.064
Mof_C 	C 	0.0535	0.691	0.201	-0.148
Mof_H 	H 	0.0823	0.7014	0.1989	0.066
Mof_C 	C 	0.029	0.7337	0.18	-0.033
Mof_H 	H 	0.0402	0.7595	0.1662	0.035
Mof_C 	C 	0.114	0.598	0.148	-0.117
Mof_C 	C 	0.069	0.59	0.139	0.141
Mof_H 	H 	0.04	0.5868	0.1556	-0.037
Mof_C 	C 	0.054	0.586	0.088	-0.082
Mof_H 	H 	0.0224	0.5829	0.0775	0.044
Mof_C 	C 	0.1729	0.6446	0.3194	0.042
Mof_C 	C 	0.2117	0.6152	0.3144	-0.117
Mof_H 	H 	0.2154	0.5905	0.2944	0.045
Mof_C 	C 	0.2499	0.6253	0.3428	-0.012
Mof_H 	H 	0.2836	0.6118	0.3299	0.022
Mof_C 	C 	0.077	0.523	0.314	0.09
Mof_C 	C 	0.058	0.547	0.348	-0.104
Mof_H 	H 	0.0602	0.5821	0.3544	0.032
Mof_C 	C 	0.032	0.522	0.387	-0.016
Mof_H 	H 	0.0162	0.5385	0.4084	0.022
Mof_N 	N 	0.0385	0.6233	0.2427	-0.271
Mof_N 	N 	0.1339	0.6014	0.1903	-0.277
Mof_N 	N 	0.1301	0.6464	0.2972	-0.297
Mof_N 	N 	0.1006	0.5394	0.2768	-0.28
Mof_C 	C 	0.118	0.573	0.153	0.162
Mof_C 	C 	0.076	0.555	0.146	-0.266
Mof_H 	H 	0.0502	0.5582	0.168	0.085
Mof_C 	C 	0.071	0.539	0.103	0.046
Mof_H 	H 	0.0422	0.5248	0.0966	0.008
Mof_H 	H 	0.0835	0.6975	0.3184	-0.037
Mof_C 	C 	0.1015	0.5253	0.3231	-0.041
Mof_C 	C 	0.0957	0.5501	0.3647	0.01
Mof_H 	H 	0.0949	0.5824	0.3652	0.003
Mof_C 	C 	0.093	0.525	0.406	-0.049
Mof_H 	H 	0.0882	0.5393	0.4336	0.037
Mof_Co	Co	0.8956	0.3965	0.2515	1.11
Mof_C 	C 	0.9768	0.3359	0.2221	0.07
Mof_C 	C 	0.9465	0.309	0.201	-0.152
Mof_H 	H 	0.9177	0.2986	0.1989	0.068
Mof_C 	C 	0.971	0.2663	0.18	-0.029
Mof_H 	H 	0.9598	0.2405	0.1662	0.033
Mof_C 	C 	0.886	0.402	0.148	-0.117
Mof_C 	C 	0.931	0.41	0.139	0.141
Mof_H 	H 	0.96	0.4132	0.1556	-0.037
Mof_C 	C 	0.946	0.414	0.088	-0.082
Mof_H 	H 	0.9776	0.4171	0.0775	0.045
Mof_C 	C 	0.8271	0.3554	0.3194	0.042
Mof_C 	C 	0.7883	0.3848	0.3144	-0.117
Mof_H 	H 	0.7846	0.4095	0.2944	0.045
Mof_C 	C 	0.7501	0.3747	0.3428	-0.012
Mof_H 	H 	0.7164	0.3882	0.3299	0.022
Mof_C 	C 	0.923	0.477	0.314	0.09
Mof_C 	C 	0.942	0.453	0.348	-0.103
Mof_H 	H 	0.9398	0.4179	0.3544	0.032
Mof_C 	C 	0.968	0.478	0.387	-0.016
Mof_H 	H 	0.9838	0.4615	0.4084	0.024
Mof_N 	N 	0.9615	0.3767	0.2427	-0.272
Mof_N 	N 	0.8661	0.3986	0.1903	-0.277
Mof_N 	N 	0.8699	0.3536	0.2972	-0.297
Mof_N 	N 	0.8994	0.4606	0.2768	-0.28
Mof_C 	C 	0.882	0.427	0.153	0.162
Mof_C 	C 	0.924	0.445	0.146	-0.266
Mof_H 	H 	0.9498	0.4418	0.168	0.086
Mof_C 	C 	0.929	0.461	0.103	0.047
Mof_H 	H 	0.9578	0.4752	0.0966	0.008
Mof_H 	H 	0.9165	0.3025	0.3184	-0.037
Mof_C 	C 	0.8985	0.4747	0.3231	-0.041
Mof_C 	C 	0.9043	0.4499	0.3647	0.009
Mof_H 	H 	0.9051	0.4176	0.3652	0.003
Mof_C 	C 	0.907	0.475	0.406	-0.049
Mof_H 	H 	0.9118	0.4607	0.4336	0.037
Mof_Co	Co	0.3965	0.2515	0.8956	1.11
Mof_C 	C 	0.3359	0.2221	0.9768	0.07
Mof_C 	C 	0.309	0.201	0.9465	-0.152
Mof_H 	H 	0.2986	0.1989	0.9177	0.068
Mof_C 	C 	0.2663	0.18	0.971	-0.029
Mof_H 	H 	0.2405	0.1662	0.9598	0.033
Mof_C 	C 	0.402	0.148	0.886	-0.117
Mof_C 	C 	0.41	0.139	0.931	0.141
Mof_H 	H 	0.4132	0.1556	0.96	-0.037
Mof_C 	C 	0.414	0.088	0.946	-0.082
Mof_H 	H 	0.4171	0.0775	0.9776	0.045
Mof_C 	C 	0.3554	0.3194	0.8271	0.042
Mof_C 	C 	0.3848	0.3144	0.7883	-0.117
Mof_H 	H 	0.4095	0.2944	0.7846	0.045
Mof_C 	C 	0.3747	0.3428	0.7501	-0.012
Mof_H 	H 	0.3882	0.3299	0.7164	0.022
Mof_C 	C 	0.477	0.314	0.923	0.09
Mof_C 	C 	0.453	0.348	0.942	-0.103
Mof_H 	H 	0.4179	0.3544	0.9398	0.032
Mof_C 	C 	0.478	0.387	0.968	-0.016
Mof_H 	H 	0.4615	0.4084	0.9838	0.024
Mof_N 	N 	0.3767	0.2427	0.9615	-0.272
Mof_N 	N 	0.3986	0.1903	0.8661	-0.277
Mof_N 	N 	0.3536	0.2972	0.8699	-0.297
Mof_N 	N 	0.4606	0.2768	0.8994	-0.28
Mof_C 	C 	0.427	0.153	0.882	0.162
Mof_C 	C 	0.445	0.146	0.924	-0.266
Mof_H 	H 	0.4418	0.168	0.9498	0.086
Mof_C 	C 	0.461	0.103	0.929	0.047
Mof_H 	H 	0.4752	0.0966	0.9578	0.008
Mof_H 	H 	0.3025	0.3184	0.9165	-0.037
Mof_C 	C 	0.4747	0.3231	0.8985	-0.041
Mof_C 	C 	0.4499	0.3647	0.9043	0.009
Mof_H 	H 	0.4176	0.3652	0.9051	0.003
Mof_C 	C 	0.475	0.406	0.907	-0.049
Mof_H 	H 	0.4607	0.4336	0.9118	0.037
Mof_Co	Co	0.6035	0.2515	0.1044	1.11
Mof_C 	C 	0.6641	0.2221	0.0232	0.064
Mof_C 	C 	0.691	0.201	0.0535	-0.148
Mof_H 	H 	0.7014	0.1989	0.0823	0.066
Mof_C 	C 	0.7337	0.18	0.029	-0.033
Mof_H 	H 	0.7595	0.1662	0.0402	0.035
Mof_C 	C 	0.598	0.148	0.114	-0.117
Mof_C 	C 	0.59	0.139	0.069	0.141
Mof_H 	H 	0.5868	0.1556	0.04	-0.037
Mof_C 	C 	0.586	0.088	0.054	-0.082
Mof_H 	H 	0.5829	0.0775	0.0224	0.044
Mof_C 	C 	0.6446	0.3194	0.1729	0.042
Mof_C 	C 	0.6152	0.3144	0.2117	-0.117
Mof_H 	H 	0.5905	0.2944	0.2154	0.045
Mof_C 	C 	0.6253	0.3428	0.2499	-0.012
Mof_H 	H 	0.6118	0.3299	0.2836	0.022
Mof_C 	C 	0.523	0.314	0.077	0.09
Mof_C 	C 	0.547	0.348	0.058	-0.104
Mof_H 	H 	0.5821	0.3544	0.0602	0.032
Mof_C 	C 	0.522	0.387	0.032	-0.016
Mof_H 	H 	0.5385	0.4084	0.0162	0.022
Mof_N 	N 	0.6233	0.2427	0.0385	-0.271
Mof_N 	N 	0.6014	0.1903	0.1339	-0.277
Mof_N 	N 	0.6464	0.2972	0.1301	-0.297
Mof_N 	N 	0.5394	0.2768	0.1006	-0.28
Mof_C 	C 	0.573	0.153	0.118	0.162
Mof_C 	C 	0.555	0.146	0.076	-0.266
Mof_H 	H 	0.5582	0.168	0.0502	0.085
Mof_C 	C 	0.539	0.103	0.071	0.046
Mof_H 	H 	0.5248	0.0966	0.0422	0.008
Mof_H 	H 	0.6975	0.3184	0.0835	-0.037
Mof_C 	C 	0.5253	0.3231	0.1015	-0.041
Mof_C 	C 	0.5501	0.3647	0.0957	0.01
Mof_H 	H 	0.5824	0.3652	0.0949	0.003
Mof_C 	C 	0.525	0.406	0.093	-0.049
Mof_H 	H 	0.5393	0.4336	0.0882	0.037
Mof_Co	Co	0.6035	0.7485	0.8956	1.11
Mof_C 	C 	0.6641	0.7779	0.9768	0.07
Mof_C 	C 	0.691	0.799	0.9465	-0.152
Mof_H 	H 	0.7014	0.8011	0.9177	0.068
Mof_C 	C 	0.7337	0.82	0.971	-0.029
Mof_H 	H 	0.7595	0.8338	0.9598	0.034
Mof_C 	C 	0.598	0.852	0.886	-0.117
Mof_C 	C 	0.59	0.861	0.931	0.141
Mof_H 	H 	0.5868	0.8444	0.96	-0.037
Mof_C 	C 	0.586	0.912	0.946	-0.082
Mof_H 	H 	0.5829	0.9225	0.9776	0.045
Mof_C 	C 	0.6446	0.6806	0.8271	0.042
Mof_C 	C 	0.6152	0.6856	0.7883	-0.117
Mof_H 	H 	0.5905	0.7056	0.7846	0.045
Mof_C 	C 	0.6253	0.6572	0.7501	-0.012
Mof_H 	H 	0.6118	0.6701	0.7164	0.022
Mof_C 	C 	0.523	0.686	0.923	0.09
Mof_C 	C 	0.547	0.652	0.942	-0.103
Mof_H 	H 	0.5821	0.6456	0.9398	0.032
Mof_C 	C 	0.522	0.613	0.968	-0.016
Mof_H 	H 	0.5385	0.5916	0.9838	0.024
Mof_N 	N 	0.6233	0.7573	0.9615	-0.272
Mof_N 	N 	0.6014	0.8097	0.8661	-0.277
Mof_N 	N 	0.6464	0.7028	0.8699	-0.297
Mof_N 	N 	0.5394	0.7232	0.8994	-0.28
Mof_C 	C 	0.573	0.847	0.882	0.162
Mof_C 	C 	0.555	0.854	0.924	-0.266
Mof_H 	H 	0.5582	0.832	0.9498	0.086
Mof_C 	C 	0.539	0.897	0.929	0.047
Mof_H 	H 	0.5248	0.9034	0.9578	0.008
Mof_H 	H 	0.6975	0.6816	0.9165	-0.037
Mof_C 	C 	0.5253	0.6769	0.8985	-0.041
Mof_C 	C 	0.5501	0.6353	0.9043	0.009
Mof_H 	H 	0.5824	0.6348	0.9051	0.003
Mof_C 	C 	0.525	0.594	0.907	-0.049
Mof_H 	H 	0.5393	0.5664	0.9118	0.037
Mof_Co	Co	0.3965	0.7485	0.1044	1.11
Mof_C 	C 	0.3359	0.7779	0.0232	0.064
Mof_C 	C 	0.309	0.799	0.0535	-0.148
Mof_H 	H 	0.2986	0.8011	0.0823	0.066
Mof_C 	C 	0.2663	0.82	0.029	-0.033
Mof_H 	H 	0.2405	0.8338	0.0402	0.035
Mof_C 	C 	0.402	0.852	0.114	-0.117
Mof_C 	C 	0.41	0.861	0.069	0.141
Mof_H 	H 	0.4132	0.8444	0.04	-0.037
Mof_C 	C 	0.414	0.912	0.054	-0.082
Mof_H 	H 	0.4171	0.9225	0.0224	0.044
Mof_C 	C 	0.3554	0.6806	0.1729	0.042
Mof_C 	C 	0.3848	0.6856	0.2117	-0.117
Mof_H 	H 	0.4095	0.7056	0.2154	0.045
Mof_C 	C 	0.3747	0.6572	0.2499	-0.012
Mof_H 	H 	0.3882	0.6701	0.2836	0.022
Mof_C 	C 	0.477	0.686	0.077	0.09
Mof_C 	C 	0.453	0.652	0.058	-0.104
Mof_H 	H 	0.4179	0.6456	0.0602	0.032
Mof_C 	C 	0.478	0.613	0.032	-0.016
Mof_H 	H 	0.4615	0.5916	0.0162	0.022
Mof_N 	N 	0.3767	0.7573	0.0385	-0.271
Mof_N 	N 	0.3986	0.8097	0.1339	-0.277
Mof_N 	N 	0.3536	0.7028	0.1301	-0.297
Mof_N 	N 	0.4606	0.7232	0.1006	-0.28
Mof_C 	C 	0.427	0.847	0.118	0.162
Mof_C 	C 	0.445	0.854	0.076	-0.266
Mof_H 	H 	0.4418	0.832	0.0502	0.085
Mof_C 	C 	0.461	0.897	0.071	0.046
Mof_H 	H 	0.4752	0.9034	0.0422	0.008
Mof_H 	H 	0.3025	0.6816	0.0835	-0.037
Mof_C 	C 	0.4747	0.6769	0.1015	-0.041
Mof_C 	C 	0.4499	0.6353	0.0957	0.01
Mof_H 	H 	0.4176	0.6348	0.0949	0.003
Mof_C 	C 	0.475	0.594	0.093	-0.049
Mof_H 	H 	0.4607	0.5664	0.0882	0.037
Mof_Co	Co	0.2515	0.1044	0.6035	1.11
Mof_C 	C 	0.2221	0.0232	0.6641	0.064
Mof_C 	C 	0.201	0.0535	0.691	-0.148
Mof_H 	H 	0.1989	0.0823	0.7014	0.066
Mof_C 	C 	0.18	0.029	0.7337	-0.033
Mof_H 	H 	0.1662	0.0402	0.7595	0.035
Mof_C 	C 	0.148	0.114	0.598	-0.117
Mof_C 	C 	0.139	0.069	0.59	0.141
Mof_H 	H 	0.1556	0.04	0.5868	-0.037
Mof_C 	C 	0.088	0.054	0.586	-0.082
Mof_H 	H 	0.0775	0.0224	0.5829	0.044
Mof_C 	C 	0.3194	0.1729	0.6446	0.042
Mof_C 	C 	0.3144	0.2117	0.6152	-0.117
Mof_H 	H 	0.2944	0.2154	0.5905	0.045
Mof_C 	C 	0.3428	0.2499	0.6253	-0.012
Mof_H 	H 	0.3299	0.2836	0.6118	0.022
Mof_C 	C 	0.314	0.077	0.523	0.09
Mof_C 	C 	0.348	0.058	0.547	-0.104
Mof_H 	H 	0.3544	0.0602	0.5821	0.032
Mof_C 	C 	0.387	0.032	0.522	-0.016
Mof_H 	H 	0.4084	0.0162	0.5385	0.022
Mof_N 	N 	0.2427	0.0385	0.6233	-0.271
Mof_N 	N 	0.1903	0.1339	0.6014	-0.277
Mof_N 	N 	0.2972	0.1301	0.6464	-0.297
Mof_N 	N 	0.2768	0.1006	0.5394	-0.28
Mof_C 	C 	0.153	0.118	0.573	0.162
Mof_C 	C 	0.146	0.076	0.555	-0.266
Mof_H 	H 	0.168	0.0502	0.5582	0.085
Mof_C 	C 	0.103	0.071	0.539	0.046
Mof_H 	H 	0.0966	0.0422	0.5248	0.008
Mof_H 	H 	0.3184	0.0835	0.6975	-0.037
Mof_C 	C 	0.3231	0.1015	0.5253	-0.041
Mof_C 	C 	0.3647	0.0957	0.5501	0.01
Mof_H 	H 	0.3652	0.0949	0.5824	0.003
Mof_C 	C 	0.406	0.093	0.525	-0.049
Mof_H 	H 	0.4336	0.0882	0.5393	0.037
Mof_Co	Co	0.2515	0.8956	0.3965	1.11
Mof_C 	C 	0.2221	0.9768	0.3359	0.07
Mof_C 	C 	0.201	0.9465	0.309	-0.152
Mof_H 	H 	0.1989	0.9177	0.2986	0.068
Mof_C 	C 	0.18	0.971	0.2663	-0.029
Mof_H 	H 	0.1662	0.9598	0.2405	0.033
Mof_C 	C 	0.148	0.886	0.402	-0.117
Mof_C 	C 	0.139	0.931	0.41	0.141
Mof_H 	H 	0.1556	0.96	0.4132	-0.037
Mof_C 	C 	0.088	0.946	0.414	-0.082
Mof_H 	H 	0.0775	0.9776	0.4171	0.045
Mof_C 	C 	0.3194	0.8271	0.3554	0.042
Mof_C 	C 	0.3144	0.7883	0.3848	-0.117
Mof_H 	H 	0.2944	0.7846	0.4095	0.045
Mof_C 	C 	0.3428	0.7501	0.3747	-0.012
Mof_H 	H 	0.3299	0.7164	0.3882	0.022
Mof_C 	C 	0.314	0.923	0.477	0.09
Mof_C 	C 	0.348	0.942	0.453	-0.103
Mof_H 	H 	0.3544	0.9398	0.4179	0.032
Mof_C 	C 	0.387	0.968	0.478	-0.016
Mof_H 	H 	0.4084	0.9838	0.4615	0.024
Mof_N 	N 	0.2427	0.9615	0.3767	-0.272
Mof_N 	N 	0.1903	0.8661	0.3986	-0.277
Mof_N 	N 	0.2972	0.8699	0.3536	-0.297
Mof_N 	N 	0.2768	0.8994	0.4606	-0.28
Mof_C 	C 	0.153	0.882	0.427	0.162
Mof_C 	C 	0.146	0.924	0.445	-0.266
Mof_H 	H 	0.168	0.9498	0.4418	0.086
Mof_C 	C 	0.103	0.929	0.461	0.047
Mof_H 	H 	0.0966	0.9578	0.4752	0.008
Mof_H 	H 	0.3184	0.9165	0.3025	-0.037
Mof_C 	C 	0.3231	0.8985	0.4747	-0.041
Mof_C 	C 	0.3647	0.9043	0.4499	0.009
Mof_H 	H 	0.3652	0.9051	0.4176	0.003
Mof_C 	C 	0.406	0.907	0.475	-0.049
Mof_H 	H 	0.4336	0.9118	0.4607	0.037
Mof_Co	Co	0.7485	0.1044	0.3965	1.11
Mof_C 	C 	0.7779	0.0232	0.3359	0.064
Mof_C 	C 	0.799	0.0535	0.309	-0.148
Mof_H 	H 	0.8011	0.0823	0.2986	0.066
Mof_C 	C 	0.82	0.029	0.2663	-0.033
Mof_H 	H 	0.8338	0.0402	0.2405	0.035
Mof_C 	C 	0.852	0.114	0.402	-0.117
Mof_C 	C 	0.861	0.069	0.41	0.141
Mof_H 	H 	0.8444	0.04	0.4132	-0.037
Mof_C 	C 	0.912	0.054	0.414	-0.082
Mof_H 	H 	0.9225	0.0224	0.4171	0.044
Mof_C 	C 	0.6806	0.1729	0.3554	0.042
Mof_C 	C 	0.6856	0.2117	0.3848	-0.117
Mof_H 	H 	0.7056	0.2154	0.4095	0.045
Mof_C 	C 	0.6572	0.2499	0.3747	-0.012
Mof_H 	H 	0.6701	0.2836	0.3882	0.022
Mof_C 	C 	0.686	0.077	0.477	0.09
Mof_C 	C 	0.652	0.058	0.453	-0.104
Mof_H 	H 	0.6456	0.0602	0.4179	0.032
Mof_C 	C 	0.613	0.032	0.478	-0.016
Mof_H 	H 	0.5916	0.0162	0.4615	0.022
Mof_N 	N 	0.7573	0.0385	0.3767	-0.271
Mof_N 	N 	0.8097	0.1339	0.3986	-0.277
Mof_N 	N 	0.7028	0.1301	0.3536	-0.297
Mof_N 	N 	0.7232	0.1006	0.4606	-0.28
Mof_C 	C 	0.847	0.118	0.427	0.162
Mof_C 	C 	0.854	0.076	0.445	-0.266
Mof_H 	H 	0.832	0.0502	0.4418	0.085
Mof_C 	C 	0.897	0.071	0.461	0.046
Mof_H 	H 	0.9034	0.0422	0.4752	0.008
Mof_H 	H 	0.6816	0.0835	0.3025	-0.037
Mof_C 	C 	0.6769	0.1015	0.4747	-0.041
Mof_C 	C 	0.6353	0.0957	0.4499	0.01
Mof_H 	H 	0.6348	0.0949	0.4176	0.003
Mof_C 	C 	0.594	0.093	0.475	-0.049
Mof_H 	H 	0.5664	0.0882	0.4607	0.037
Mof_Co	Co	0.7485	0.8956	0.6035	1.11
Mof_C 	C 	0.7779	0.9768	0.6641	0.07
Mof_C 	C 	0.799	0.9465	0.691	-0.152
Mof_H 	H 	0.8011	0.9177	0.7014	0.068
Mof_C 	C 	0.82	0.971	0.7337	-0.029
Mof_H 	H 	0.8338	0.9598	0.7595	0.034
Mof_C 	C 	0.852	0.886	0.598	-0.117
Mof_C 	C 	0.861	0.931	0.59	0.141
Mof_H 	H 	0.8444	0.96	0.5868	-0.037
Mof_C 	C 	0.912	0.946	0.586	-0.082
Mof_H 	H 	0.9225	0.9776	0.5829	0.045
Mof_C 	C 	0.6806	0.8271	0.6446	0.042
Mof_C 	C 	0.6856	0.7883	0.6152	-0.117
Mof_H 	H 	0.7056	0.7846	0.5905	0.045
Mof_C 	C 	0.6572	0.7501	0.6253	-0.012
Mof_H 	H 	0.6701	0.7164	0.6118	0.022
Mof_C 	C 	0.686	0.923	0.523	0.09
Mof_C 	C 	0.652	0.942	0.547	-0.103
Mof_H 	H 	0.6456	0.9398	0.5821	0.032
Mof_C 	C 	0.613	0.968	0.522	-0.016
Mof_H 	H 	0.5916	0.9838	0.5385	0.024
Mof_N 	N 	0.7573	0.9615	0.6233	-0.272
Mof_N 	N 	0.8097	0.8661	0.6014	-0.277
Mof_N 	N 	0.7028	0.8699	0.6464	-0.297
Mof_N 	N 	0.7232	0.8994	0.5394	-0.28
Mof_C 	C 	0.847	0.882	0.573	0.162
Mof_C 	C 	0.854	0.924	0.555	-0.266
Mof_H 	H 	0.832	0.9498	0.5582	0.086
Mof_C 	C 	0.897	0.929	0.539	0.047
Mof_H 	H 	0.9034	0.9578	0.5248	0.008
Mof_H 	H 	0.6816	0.9165	0.6975	-0.037
Mof_C 	C 	0.6769	0.8985	0.5253	-0.041
Mof_C 	C 	0.6353	0.9043	0.5501	0.009
Mof_H 	H 	0.6348	0.9051	0.5824	0.003
Mof_C 	C 	0.594	0.907	0.525	-0.049
Mof_H 	H 	0.5664	0.9118	0.5393	0.037
Mof_Co	Co	0.6035	0.8956	0.7485	1.11
Mof_C 	C 	0.6641	0.9768	0.7779	0.07
Mof_C 	C 	0.691	0.9465	0.799	-0.152
Mof_H 	H 	0.7014	0.9177	0.8011	0.068
Mof_C 	C 	0.7337	0.971	0.82	-0.029
Mof_H 	H 	0.7595	0.9598	0.8338	0.034
Mof_C 	C 	0.598	0.886	0.852	-0.117
Mof_C 	C 	0.59	0.931	0.861	0.141
Mof_H 	H 	0.5868	0.96	0.8444	-0.037
Mof_C 	C 	0.586	0.946	0.912	-0.082
Mof_H 	H 	0.5829	0.9776	0.9225	0.045
Mof_C 	C 	0.6446	0.8271	0.6806	0.042
Mof_C 	C 	0.6152	0.7883	0.6856	-0.117
Mof_H 	H 	0.5905	0.7846	0.7056	0.045
Mof_C 	C 	0.6253	0.7501	0.6572	-0.012
Mof_H 	H 	0.6118	0.7164	0.6701	0.022
Mof_C 	C 	0.523	0.923	0.686	0.09
Mof_C 	C 	0.547	0.942	0.652	-0.103
Mof_H 	H 	0.5821	0.9398	0.6456	0.032
Mof_C 	C 	0.522	0.968	0.613	-0.016
Mof_H 	H 	0.5385	0.9838	0.5916	0.024
Mof_N 	N 	0.6233	0.9615	0.7573	-0.272
Mof_N 	N 	0.6014	0.8661	0.8097	-0.277
Mof_N 	N 	0.6464	0.8699	0.7028	-0.297
Mof_N 	N 	0.5394	0.8994	0.7232	-0.28
Mof_C 	C 	0.573	0.882	0.847	0.162
Mof_C 	C 	0.555	0.924	0.854	-0.266
Mof_H 	H 	0.5582	0.9498	0.832	0.086
Mof_C 	C 	0.539	0.929	0.897	0.047
Mof_H 	H 	0.5248	0.9578	0.9034	0.008
Mof_H 	H 	0.6975	0.9165	0.6816	-0.037
Mof_C 	C 	0.5253	0.8985	0.6769	-0.041
Mof_C 	C 	0.5501	0.9043	0.6353	0.009
Mof_H 	H 	0.5824	0.9051	0.6348	0.003
Mof_C 	C 	0.525	0.907	0.594	-0.049
Mof_H 	H 	0.5393	0.9118	0.5664	0.037
Mof_Co	Co	0.3965	0.1044	0.7485	1.11
Mof_C 	C 	0.3359	0.0232	0.7779	0.064
Mof_C 	C 	0.309	0.0535	0.799	-0.148
Mof_H 	H 	0.2986	0.0823	0.8011	0.066
Mof_C 	C 	0.2663	0.029	0.82	-0.033
Mof_H 	H 	0.2405	0.0402	0.8338	0.035
Mof_C 	C 	0.402	0.114	0.852	-0.117
Mof_C 	C 	0.41	0.069	0.861	0.141
Mof_H 	H 	0.4132	0.04	0.8444	-0.037
Mof_C 	C 	0.414	0.054	0.912	-0.082
Mof_H 	H 	0.4171	0.0224	0.9225	0.044
Mof_C 	C 	0.3554	0.1729	0.6806	0.042
Mof_C 	C 	0.3848	0.2117	0.6856	-0.117
Mof_H 	H 	0.4095	0.2154	0.7056	0.045
Mof_C 	C 	0.3747	0.2499	0.6572	-0.012
Mof_H 	H 	0.3882	0.2836	0.6701	0.022
Mof_C 	C 	0.477	0.077	0.686	0.09
Mof_C 	C 	0.453	0.058	0.652	-0.104
Mof_H 	H 	0.4179	0.0602	0.6456	0.032
Mof_C 	C 	0.478	0.032	0.613	-0.016
Mof_H 	H 	0.4615	0.0162	0.5916	0.022
Mof_N 	N 	0.3767	0.0385	0.7573	-0.271
Mof_N 	N 	0.3986	0.1339	0.8097	-0.277
Mof_N 	N 	0.3536	0.1301	0.7028	-0.297
Mof_N 	N 	0.4606	0.1006	0.7232	-0.28
Mof_C 	C 	0.427	0.118	0.847	0.162
Mof_C 	C 	0.445	0.076	0.854	-0.266
Mof_H 	H 	0.4418	0.0502	0.832	0.085
Mof_C 	C 	0.461	0.071	0.897	0.046
Mof_H 	H 	0.4752	0.0422	0.9034	0.008
Mof_H 	H 	0.3025	0.0835	0.6816	-0.037
Mof_C 	C 	0.4747	0.1015	0.6769	-0.041
Mof_C 	C 	0.4499	0.0957	0.6353	0.01
Mof_H 	H 	0.4176	0.0949	0.6348	0.003
Mof_C 	C 	0.475	0.093	0.594	-0.049
Mof_H 	H 	0.4607	0.0882	0.5664	0.037
Mof_Co	Co	0.3965	0.8956	0.2515	1.11
Mof_C 	C 	0.3359	0.9768	0.2221	0.07
Mof_C 	C 	0.309	0.9465	0.201	-0.152
Mof_H 	H 	0.2986	0.9177	0.1989	0.068
Mof_C 	C 	0.2663	0.971	0.18	-0.029
Mof_H 	H 	0.2405	0.9598	0.1662	0.033
Mof_C 	C 	0.402	0.886	0.148	-0.117
Mof_C 	C 	0.41	0.931	0.139	0.141
Mof_H 	H 	0.4132	0.96	0.1556	-0.037
Mof_C 	C 	0.414	0.946	0.088	-0.082
Mof_H 	H 	0.4171	0.9776	0.0775	0.045
Mof_C 	C 	0.3554	0.8271	0.3194	0.042
Mof_C 	C 	0.3848	0.7883	0.3144	-0.117
Mof_H 	H 	0.4095	0.7846	0.2944	0.045
Mof_C 	C 	0.3747	0.7501	0.3428	-0.012
Mof_H 	H 	0.3882	0.7164	0.3299	0.022
Mof_C 	C 	0.477	0.923	0.314	0.09
Mof_C 	C 	0.453	0.942	0.348	-0.103
Mof_H 	H 	0.4179	0.9398	0.3544	0.032
Mof_C 	C 	0.478	0.968	0.387	-0.016
Mof_H 	H 	0.4615	0.9838	0.4084	0.024
Mof_N 	N 	0.3767	0.9615	0.2427	-0.272
Mof_N 	N 	0.3986	0.8661	0.1903	-0.277
Mof_N 	N 	0.3536	0.8699	0.2972	-0.297
Mof_N 	N 	0.4606	0.8994	0.2768	-0.28
Mof_C 	C 	0.427	0.882	0.153	0.162
Mof_C 	C 	0.445	0.924	0.146	-0.266
Mof_H 	H 	0.4418	0.9498	0.168	0.086
Mof_C 	C 	0.461	0.929	0.103	0.047
Mof_H 	H 	0.4752	0.9578	0.0966	0.008
Mof_H 	H 	0.3025	0.9165	0.3184	-0.037
Mof_C 	C 	0.4747	0.8985	0.3231	-0.041
Mof_C 	C 	0.4499	0.9043	0.3647	0.009
Mof_H 	H 	0.4176	0.9051	0.3652	0.003
Mof_C 	C 	0.475	0.907	0.406	-0.049
Mof_H 	H 	0.4607	0.9118	0.4336	0.037
Mof_Co	Co	0.6035	0.1044	0.2515	1.11
Mof_C 	C 	0.6641	0.0232	0.2221	0.064
Mof_C 	C 	0.691	0.0535	0.201	-0.148
Mof_H 	H 	0.7014	0.0823	0.1989	0.066
Mof_C 	C 	0.7337	0.029	0.18	-0.033
Mof_H 	H 	0.7595	0.0402	0.1662	0.035
Mof_C 	C 	0.598	0.114	0.148	-0.117
Mof_C 	C 	0.59	0.069	0.139	0.141
Mof_H 	H 	0.5868	0.04	0.1556	-0.037
Mof_C 	C 	0.586	0.054	0.088	-0.082
Mof_H 	H 	0.5829	0.0224	0.0775	0.044
Mof_C 	C 	0.6446	0.1729	0.3194	0.042
Mof_C 	C 	0.6152	0.2117	0.3144	-0.117
Mof_H 	H 	0.5905	0.2154	0.2944	0.045
Mof_C 	C 	0.6253	0.2499	0.3428	-0.012
Mof_H 	H 	0.6118	0.2836	0.3299	0.022
Mof_C 	C 	0.523	0.077	0.314	0.09
Mof_C 	C 	0.547	0.058	0.348	-0.104
Mof_H 	H 	0.5821	0.0602	0.3544	0.032
Mof_C 	C 	0.522	0.032	0.387	-0.016
Mof_H 	H 	0.5385	0.0162	0.4084	0.022
Mof_N 	N 	0.6233	0.0385	0.2427	-0.271
Mof_N 	N 	0.6014	0.1339	0.1903	-0.277
Mof_N 	N 	0.6464	0.1301	0.2972	-0.297
Mof_N 	N 	0.5394	0.1006	0.2768	-0.28
Mof_C 	C 	0.573	0.118	0.153	0.162
Mof_C 	C 	0.555	0.076	0.146	-0.266
Mof_H 	H 	0.5582	0.0502	0.168	0.085
Mof_C 	C 	0.539	0.071	0.103	0.046
Mof_H 	H 	0.5248	0.0422	0.0966	0.008
Mof_H 	H 	0.6975	0.0835	0.3184	-0.037
Mof_C 	C 	0.5253	0.1015	0.3231	-0.041
Mof_C 	C 	0.5501	0.0957	0.3647	0.01
Mof_H 	H 	0.5824	0.0949	0.3652	0.003
Mof_C 	C 	0.525	0.093	0.406	-0.049
Mof_H 	H 	0.5393	0.0882	0.4336	0.037
Mof_Co	Co	0.7485	0.6035	0.8956	1.11
Mof_C 	C 	0.7779	0.6641	0.9768	0.07
Mof_C 	C 	0.799	0.691	0.9465	-0.152
Mof_H 	H 	0.8011	0.7014	0.9177	0.068
Mof_C 	C 	0.82	0.7337	0.971	-0.029
Mof_H 	H 	0.8338	0.7595	0.9598	0.034
Mof_C 	C 	0.852	0.598	0.886	-0.117
Mof_C 	C 	0.861	0.59	0.931	0.141
Mof_H 	H 	0.8444	0.5868	0.96	-0.037
Mof_C 	C 	0.912	0.586	0.946	-0.082
Mof_H 	H 	0.9225	0.5829	0.9776	0.045
Mof_C 	C 	0.6806	0.6446	0.8271	0.042
Mof_C 	C 	0.6856	0.6152	0.7883	-0.117
Mof_H 	H 	0.7056	0.5905	0.7846	0.045
Mof_C 	C 	0.6572	0.6253	0.7501	-0.012
Mof_H 	H 	0.6701	0.6118	0.7164	0.022
Mof_C 	C 	0.686	0.523	0.923	0.09
Mof_C 	C 	0.652	0.547	0.942	-0.103
Mof_H 	H 	0.6456	0.5821	0.9398	0.032
Mof_C 	C 	0.613	0.522	0.968	-0.016
Mof_H 	H 	0.5916	0.5385	0.9838	0.024
Mof_N 	N 	0.7573	0.6233	0.9615	-0.272
Mof_N 	N 	0.8097	0.6014	0.8661	-0.277
Mof_N 	N 	0.7028	0.6464	0.8699	-0.297
Mof_N 	N 	0.7232	0.5394	0.8994	-0.28
Mof_C 	C 	0.847	0.573	0.882	0.162
Mof_C 	C 	0.854	0.555	0.924	-0.266
Mof_H 	H 	0.832	0.5582	0.9498	0.086
Mof_C 	C 	0.897	0.539	0.929	0.047
Mof_H 	H 	0.9034	0.5248	0.9578	0.008
Mof_H 	H 	0.6816	0.6975	0.9165	-0.037
Mof_C 	C 	0.6769	0.5253	0.8985	-0.041
Mof_C 	C 	0.6353	0.5501	0.9043	0.009
Mof_H 	H 	0.6348	0.5824	0.9051	0.003
Mof_C 	C 	0.594	0.525	0.907	-0.049
Mof_H 	H 	0.5664	0.5393	0.9118	0.037
Mof_Co	Co	0.7485	0.3965	0.1044	1.11
Mof_C 	C 	0.7779	0.3359	0.0232	0.064
Mof_C 	C 	0.799	0.309	0.0535	-0.148
Mof_H 	H 	0.8011	0.2986	0.0823	0.066
Mof_C 	C 	0.82	0.2663	0.029	-0.033
Mof_H 	H 	0.8338	0.2405	0.0402	0.035
Mof_C 	C 	0.852	0.402	0.114	-0.117
Mof_C 	C 	0.861	0.41	0.069	0.141
Mof_H 	H 	0.8444	0.4132	0.04	-0.037
Mof_C 	C 	0.912	0.414	0.054	-0.082
Mof_H 	H 	0.9225	0.4171	0.0224	0.044
Mof_C 	C 	0.6806	0.3554	0.1729	0.042
Mof_C 	C 	0.6856	0.3848	0.2117	-0.117
Mof_H 	H 	0.7056	0.4095	0.2154	0.045
Mof_C 	C 	0.6572	0.3747	0.2499	-0.012
Mof_H 	H 	0.6701	0.3882	0.2836	0.022
Mof_C 	C 	0.686	0.477	0.077	0.09
Mof_C 	C 	0.652	0.453	0.058	-0.104
Mof_H 	H 	0.6456	0.4179	0.0602	0.032
Mof_C 	C 	0.613	0.478	0.032	-0.016
Mof_H 	H 	0.5916	0.4615	0.0162	0.022
Mof_N 	N 	0.7573	0.3767	0.0385	-0.271
Mof_N 	N 	0.8097	0.3986	0.1339	-0.277
Mof_N 	N 	0.7028	0.3536	0.1301	-0.297
Mof_N 	N 	0.7232	0.4606	0.1006	-0.28
Mof_C 	C 	0.847	0.427	0.118	0.162
Mof_C 	C 	0.854	0.445	0.076	-0.266
Mof_H 	H 	0.832	0.4418	0.0502	0.085
Mof_C 	C 	0.897	0.461	0.071	0.046
Mof_H 	H 	0.9034	0.4752	0.0422	0.008
Mof_H 	H 	0.6816	0.3025	0.0835	-0.037
Mof_C 	C 	0.6769	0.4747	0.1015	-0.041
Mof_C 	C 	0.6353	0.4499	0.0957	0.01
Mof_H 	H 	0.6348	0.4176	0.0949	0.003
Mof_C 	C 	0.594	0.475	0.093	-0.049
Mof_H 	H 	0.5664	0.4607	0.0882	0.037
Mof_Co	Co	0.2515	0.3965	0.8956	1.11
Mof_C 	C 	0.2221	0.3359	0.9768	0.07
Mof_C 	C 	0.201	0.309	0.9465	-0.152
Mof_H 	H 	0.1989	0.2986	0.9177	0.068
Mof_C 	C 	0.18	0.2663	0.971	-0.029
Mof_H 	H 	0.1662	0.2405	0.9598	0.033
Mof_C 	C 	0.148	0.402	0.886	-0.117
Mof_C 	C 	0.139	0.41	0.931	0.141
Mof_H 	H 	0.1556	0.4132	0.96	-0.037
Mof_C 	C 	0.088	0.414	0.946	-0.082
Mof_H 	H 	0.0775	0.4171	0.9776	0.045
Mof_C 	C 	0.3194	0.3554	0.8271	0.042
Mof_C 	C 	0.3144	0.3848	0.7883	-0.117
Mof_H 	H 	0.2944	0.4095	0.7846	0.045
Mof_C 	C 	0.3428	0.3747	0.7501	-0.012
Mof_H 	H 	0.3299	0.3882	0.7164	0.022
Mof_C 	C 	0.314	0.477	0.923	0.09
Mof_C 	C 	0.348	0.453	0.942	-0.103
Mof_H 	H 	0.3544	0.4179	0.9398	0.032
Mof_C 	C 	0.387	0.478	0.968	-0.016
Mof_H 	H 	0.4084	0.4615	0.9838	0.024
Mof_N 	N 	0.2427	0.3767	0.9615	-0.272
Mof_N 	N 	0.1903	0.3986	0.8661	-0.277
Mof_N 	N 	0.2972	0.3536	0.8699	-0.297
Mof_N 	N 	0.2768	0.4606	0.8994	-0.28
Mof_C 	C 	0.153	0.427	0.882	0.162
Mof_C 	C 	0.146	0.445	0.924	-0.266
Mof_H 	H 	0.168	0.4418	0.9498	0.086
Mof_C 	C 	0.103	0.461	0.929	0.047
Mof_H 	H 	0.0966	0.4752	0.9578	0.008
Mof_H 	H 	0.3184	0.3025	0.9165	-0.037
Mof_C 	C 	0.3231	0.4747	0.8985	-0.041
Mof_C 	C 	0.3647	0.4499	0.9043	0.009
Mof_H 	H 	0.3652	0.4176	0.9051	0.003
Mof_C 	C 	0.406	0.475	0.907	-0.049
Mof_H 	H 	0.4336	0.4607	0.9118	0.037
Mof_Co	Co	0.2515	0.6035	0.1044	1.11
Mof_C 	C 	0.2221	0.6641	0.0232	0.064
Mof_C 	C 	0.201	0.691	0.0535	-0.148
Mof_H 	H 	0.1989	0.7014	0.0823	0.066
Mof_C 	C 	0.18	0.7337	0.029	-0.033
Mof_H 	H 	0.1662	0.7595	0.0402	0.035
Mof_C 	C 	0.148	0.598	0.114	-0.117
Mof_C 	C 	0.139	0.59	0.069	0.141
Mof_H 	H 	0.1556	0.5868	0.04	-0.037
Mof_C 	C 	0.088	0.586	0.054	-0.082
Mof_H 	H 	0.0775	0.5829	0.0224	0.044
Mof_C 	C 	0.3194	0.6446	0.1729	0.042
Mof_C 	C 	0.3144	0.6152	0.2117	-0.117
Mof_H 	H 	0.2944	0.5905	0.2154	0.045
Mof_C 	C 	0.3428	0.6253	0.2499	-0.012
Mof_H 	H 	0.3299	0.6118	0.2836	0.022
Mof_C 	C 	0.314	0.523	0.077	0.09
Mof_C 	C 	0.348	0.547	0.058	-0.104
Mof_H 	H 	0.3544	0.5821	0.0602	0.032
Mof_C 	C 	0.387	0.522	0.032	-0.016
Mof_H 	H 	0.4084	0.5385	0.0162	0.022
Mof_N 	N 	0.2427	0.6233	0.0385	-0.271
Mof_N 	N 	0.1903	0.6014	0.1339	-0.277
Mof_N 	N 	0.2972	0.6464	0.1301	-0.297
Mof_N 	N 	0.2768	0.5394	0.1006	-0.28
Mof_C 	C 	0.153	0.573	0.118	0.162
Mof_C 	C 	0.146	0.555	0.076	-0.266
Mof_H 	H 	0.168	0.5582	0.0502	0.085
Mof_C 	C 	0.103	0.539	0.071	0.046
Mof_H 	H 	0.0966	0.5248	0.0422	0.008
Mof_H 	H 	0.3184	0.6975	0.0835	-0.037
Mof_C 	C 	0.3231	0.5253	0.1015	-0.041
Mof_C 	C 	0.3647	0.5501	0.0957	0.01
Mof_H 	H 	0.3652	0.5824	0.0949	0.003
Mof_C 	C 	0.406	0.525	0.093	-0.049
Mof_H 	H 	0.4336	0.5393	0.0882	0.037
Mof_Co	Co	0.8956	0.7485	0.6035	1.11
Mof_C 	C 	0.9768	0.7779	0.6641	0.07
Mof_C 	C 	0.9465	0.799	0.691	-0.152
Mof_H 	H 	0.9177	0.8011	0.7014	0.068
Mof_C 	C 	0.971	0.82	0.7337	-0.029
Mof_H 	H 	0.9598	0.8338	0.7595	0.034
Mof_C 	C 	0.886	0.852	0.598	-0.117
Mof_C 	C 	0.931	0.861	0.59	0.141
Mof_H 	H 	0.96	0.8444	0.5868	-0.037
Mof_C 	C 	0.946	0.912	0.586	-0.082
Mof_H 	H 	0.9776	0.9225	0.5829	0.045
Mof_C 	C 	0.8271	0.6806	0.6446	0.042
Mof_C 	C 	0.7883	0.6856	0.6152	-0.117
Mof_H 	H 	0.7846	0.7056	0.5905	0.045
Mof_C 	C 	0.7501	0.6572	0.6253	-0.012
Mof_H 	H 	0.7164	0.6701	0.6118	0.022
Mof_C 	C 	0.923	0.686	0.523	0.09
Mof_C 	C 	0.942	0.652	0.547	-0.103
Mof_H 	H 	0.9398	0.6456	0.5821	0.032
Mof_C 	C 	0.968	0.613	0.522	-0.016
Mof_H 	H 	0.9838	0.5916	0.5385	0.024
Mof_N 	N 	0.9615	0.7573	0.6233	-0.272
Mof_N 	N 	0.8661	0.8097	0.6014	-0.277
Mof_N 	N 	0.8699	0.7028	0.6464	-0.297
Mof_N 	N 	0.8994	0.7232	0.5394	-0.28
Mof_C 	C 	0.882	0.847	0.573	0.162
Mof_C 	C 	0.924	0.854	0.555	-0.266
Mof_H 	H 	0.9498	0.832	0.5582	0.086
Mof_C 	C 	0.929	0.897	0.539	0.047
Mof_H 	H 	0.9578	0.9034	0.5248	0.008
Mof_H 	H 	0.9165	0.6816	0.6975	-0.037
Mof_C 	C 	0.8985	0.6769	0.5253	-0.041
Mof_C 	C 	0.9043	0.6353	0.5501	0.009
Mof_H 	H 	0.9051	0.6348	0.5824	0.003
Mof_C 	C 	0.907	0.594	0.525	-0.049
Mof_H 	H 	0.9118	0.5664	0.5393	0.037
Mof_Co	Co	0.1044	0.7485	0.3965	1.11
Mof_C 	C 	0.0232	0.7779	0.3359	0.064
Mof_C 	C 	0.0535	0.799	0.309	-0.148
Mof_H 	H 	0.0823	0.8011	0.2986	0.066
Mof_C 	C 	0.029	0.82	0.2663	-0.033
Mof_H 	H 	0.0402	0.8338	0.2405	0.035
Mof_C 	C 	0.114	0.852	0.402	-0.117
Mof_C 	C 	0.069	0.861	0.41	0.141
Mof_H 	H 	0.04	0.8444	0.4132	-0.037
Mof_C 	C 	0.054	0.912	0.414	-0.082
Mof_H 	H 	0.0224	0.9225	0.4171	0.044
Mof_C 	C 	0.1729	0.6806	0.3554	0.042
Mof_C 	C 	0.2117	0.6856	0.3848	-0.117
Mof_H 	H 	0.2154	0.7056	0.4095	0.045
Mof_C 	C 	0.2499	0.6572	0.3747	-0.012
Mof_H 	H 	0.2836	0.6701	0.3882	0.022
Mof_C 	C 	0.077	0.686	0.477	0.09
Mof_C 	C 	0.058	0.652	0.453	-0.104
Mof_H 	H 	0.0602	0.6456	0.4179	0.032
Mof_C 	C 	0.032	0.613	0.478	-0.016
Mof_H 	H 	0.0162	0.5916	0.4615	0.022
Mof_N 	N 	0.0385	0.7573	0.3767	-0.271
Mof_N 	N 	0.1339	0.8097	0.3986	-0.277
Mof_N 	N 	0.1301	0.7028	0.3536	-0.297
Mof_N 	N 	0.1006	0.7232	0.4606	-0.28
Mof_C 	C 	0.118	0.847	0.427	0.162
Mof_C 	C 	0.076	0.854	0.445	-0.266
Mof_H 	H 	0.0502	0.832	0.4418	0.085
Mof_C 	C 	0.071	0.897	0.461	0.046
Mof_H 	H 	0.0422	0.9034	0.4752	0.008
Mof_H 	H 	0.0835	0.6816	0.3025	-0.037
Mof_C 	C 	0.1015	0.6769	0.4747	-0.041
Mof_C 	C 	0.0957	0.6353	0.4499	0.01
Mof_H 	H 	0.0949	0.6348	0.4176	0.003
Mof_C 	C 	0.093	0.594	0.475	-0.049
Mof_H 	H 	0.0882	0.5664	0.4607	0.037
Mof_Co	Co	0.8956	0.2515	0.3965	1.11
Mof_C 	C 	0.9768	0.2221	0.3359	0.07
Mof_C 	C 	0.9465	0.201	0.309	-0.152
Mof_H 	H 	0.9177	0.1989	0.2986	0.068
Mof_C 	C 	0.971	0.18	0.2663	-0.029
Mof_H 	H 	0.9598	0.1662	0.2405	0.033
Mof_C 	C 	0.886	0.148	0.402	-0.117
Mof_C 	C 	0.931	0.139	0.41	0.141
Mof_H 	H 	0.96	0.1556	0.4132	-0.037
Mof_C 	C 	0.946	0.088	0.414	-0.082
Mof_H 	H 	0.9776	0.0775	0.4171	0.045
Mof_C 	C 	0.8271	0.3194	0.3554	0.042
Mof_C 	C 	0.7883	0.3144	0.3848	-0.117
Mof_H 	H 	0.7846	0.2944	0.4095	0.045
Mof_C 	C 	0.7501	0.3428	0.3747	-0.012
Mof_H 	H 	0.7164	0.3299	0.3882	0.022
Mof_C 	C 	0.923	0.314	0.477	0.09
Mof_C 	C 	0.942	0.348	0.453	-0.103
Mof_H 	H 	0.9398	0.3544	0.4179	0.032
Mof_C 	C 	0.968	0.387	0.478	-0.016
Mof_H 	H 	0.9838	0.4084	0.4615	0.024
Mof_N 	N 	0.9615	0.2427	0.3767	-0.272
Mof_N 	N 	0.8661	0.1903	0.3986	-0.277
Mof_N 	N 	0.8699	0.2972	0.3536	-0.297
Mof_N 	N 	0.8994	0.2768	0.4606	-0.28
Mof_C 	C 	0.882	0.153	0.427	0.162
Mof_C 	C 	0.924	0.146	0.445	-0.266
Mof_H 	H 	0.9498	0.168	0.4418	0.086
Mof_C 	C 	0.929	0.103	0.461	0.047
Mof_H 	H 	0.9578	0.0966	0.4752	0.008
Mof_H 	H 	0.9165	0.3184	0.3025	-0.037
Mof_C 	C 	0.8985	0.3231	0.4747	-0.041
Mof_C 	C 	0.9043	0.3647	0.4499	0.009
Mof_H 	H 	0.9051	0.3652	0.4176	0.003
Mof_C 	C 	0.907	0.406	0.475	-0.049
Mof_H 	H 	0.9118	0.4336	0.4607	0.037
Mof_Co	Co	0.1044	0.2515	0.6035	1.11
Mof_C 	C 	0.0232	0.2221	0.6641	0.064
Mof_C 	C 	0.0535	0.201	0.691	-0.148
Mof_H 	H 	0.0823	0.1989	0.7014	0.066
Mof_C 	C 	0.029	0.18	0.7337	-0.033
Mof_H 	H 	0.0402	0.1662	0.7595	0.035
Mof_C 	C 	0.114	0.148	0.598	-0.117
Mof_C 	C 	0.069	0.139	0.59	0.141
Mof_H 	H 	0.04	0.1556	0.5868	-0.037
Mof_C 	C 	0.054	0.088	0.586	-0.082
Mof_H 	H 	0.0224	0.0775	0.5829	0.044
Mof_C 	C 	0.1729	0.3194	0.6446	0.042
Mof_C 	C 	0.2117	0.3144	0.6152	-0.117
Mof_H 	H 	0.2154	0.2944	0.5905	0.045
Mof_C 	C 	0.2499	0.3428	0.6253	-0.012
Mof_H 	H 	0.2836	0.3299	0.6118	0.022
Mof_C 	C 	0.077	0.314	0.523	0.09
Mof_C 	C 	0.058	0.348	0.547	-0.104
Mof_H 	H 	0.0602	0.3544	0.5821	0.032
Mof_C 	C 	0.032	0.387	0.522	-0.016
Mof_H 	H 	0.0162	0.4084	0.5385	0.022
Mof_N 	N 	0.0385	0.2427	0.6233	-0.271
Mof_N 	N 	0.1339	0.1903	0.6014	-0.277
Mof_N 	N 	0.1301	0.2972	0.6464	-0.297
Mof_N 	N 	0.1006	0.2768	0.5394	-0.28
Mof_C 	C 	0.118	0.153	0.573	0.162
Mof_C 	C 	0.076	0.146	0.555	-0.266
Mof_H 	H 	0.0502	0.168	0.5582	0.085
Mof_C 	C 	0.071	0.103	0.539	0.046
Mof_H 	H 	0.0422	0.0966	0.5248	0.008
Mof_H 	H 	0.0835	0.3184	0.6975	-0.037
Mof_C 	C 	0.1015	0.3231	0.5253	-0.041
Mof_C 	C 	0.0957	0.3647	0.5501	0.01
Mof_H 	H 	0.0949	0.3652	0.5824	0.003
Mof_C 	C 	0.093	0.406	0.525	-0.049
Mof_H 	H 	0.0882	0.4336	0.5393	0.037
Mof_Co	Co	0.8956	0.6035	0.2515	1.11
Mof_C 	C 	0.9768	0.6641	0.2221	0.07
Mof_C 	C 	0.9465	0.691	0.201	-0.152
Mof_H 	H 	0.9177	0.7014	0.1989	0.068
Mof_C 	C 	0.971	0.7337	0.18	-0.029
Mof_H 	H 	0.9598	0.7595	0.1662	0.033
Mof_C 	C 	0.886	0.598	0.148	-0.117
Mof_C 	C 	0.931	0.59	0.139	0.141
Mof_H 	H 	0.96	0.5868	0.1556	-0.037
Mof_C 	C 	0.946	0.586	0.088	-0.082
Mof_H 	H 	0.9776	0.5829	0.0775	0.045
Mof_C 	C 	0.8271	0.6446	0.3194	0.042
Mof_C 	C 	0.7883	0.6152	0.3144	-0.117
Mof_H 	H 	0.7846	0.5905	0.2944	0.045
Mof_C 	C 	0.7501	0.6253	0.3428	-0.012
Mof_H 	H 	0.7164	0.6118	0.3299	0.022
Mof_C 	C 	0.923	0.523	0.314	0.09
Mof_C 	C 	0.942	0.547	0.348	-0.103
Mof_H 	H 	0.9398	0.5821	0.3544	0.032
Mof_C 	C 	0.968	0.522	0.387	-0.016
Mof_H 	H 	0.9838	0.5385	0.4084	0.024
Mof_N 	N 	0.9615	0.6233	0.2427	-0.272
Mof_N 	N 	0.8661	0.6014	0.1903	-0.277
Mof_N 	N 	0.8699	0.6464	0.2972	-0.297
Mof_N 	N 	0.8994	0.5394	0.2768	-0.28
Mof_C 	C 	0.882	0.573	0.153	0.162
Mof_C 	C 	0.924	0.555	0.146	-0.266
Mof_H 	H 	0.9498	0.5582	0.168	0.086
Mof_C 	C 	0.929	0.539	0.103	0.047
Mof_H 	H 	0.9578	0.5248	0.0966	0.008
Mof_H 	H 	0.9165	0.6975	0.3184	-0.037
Mof_C 	C 	0.8985	0.5253	0.3231	-0.041
Mof_C 	C 	0.9043	0.5501	0.3647	0.009
Mof_H 	H 	0.9051	0.5824	0.3652	0.003
Mof_C 	C 	0.907	0.525	0.406	-0.049
Mof_H 	H 	0.9118	0.5393	0.4336	0.037
Mof_Co	Co	0.1044	0.3965	0.2515	1.11
Mof_C 	C 	0.0232	0.3359	0.2221	0.064
Mof_C 	C 	0.0535	0.309	0.201	-0.148
Mof_H 	H 	0.0823	0.2986	0.1989	0.066
Mof_C 	C 	0.029	0.2663	0.18	-0.033
Mof_H 	H 	0.0402	0.2405	0.1662	0.034
Mof_C 	C 	0.114	0.402	0.148	-0.117
Mof_C 	C 	0.069	0.41	0.139	0.141
Mof_H 	H 	0.04	0.4132	0.1556	-0.037
Mof_C 	C 	0.054	0.414	0.088	-0.082
Mof_H 	H 	0.0224	0.4171	0.0775	0.044
Mof_C 	C 	0.1729	0.3554	0.3194	0.042
Mof_C 	C 	0.2117	0.3848	0.3144	-0.117
Mof_H 	H 	0.2154	0.4095	0.2944	0.045
Mof_C 	C 	0.2499	0.3747	0.3428	-0.012
Mof_H 	H 	0.2836	0.3882	0.3299	0.022
Mof_C 	C 	0.077	0.477	0.314	0.09
Mof_C 	C 	0.058	0.453	0.348	-0.104
Mof_H 	H 	0.0602	0.4179	0.3544	0.032
Mof_C 	C 	0.032	0.478	0.387	-0.016
Mof_H 	H 	0.0162	0.4615	0.4084	0.022
Mof_N 	N 	0.0385	0.3767	0.2427	-0.271
Mof_N 	N 	0.1339	0.3986	0.1903	-0.277
Mof_N 	N 	0.1301	0.3536	0.2972	-0.297
Mof_N 	N 	0.1006	0.4606	0.2768	-0.28
Mof_C 	C 	0.118	0.427	0.153	0.162
Mof_C 	C 	0.076	0.445	0.146	-0.266
Mof_H 	H 	0.0502	0.4418	0.168	0.085
Mof_C 	C 	0.071	0.461	0.103	0.046
Mof_H 	H 	0.0422	0.4752	0.0966	0.008
Mof_H 	H 	0.0835	0.3025	0.3184	-0.037
Mof_C 	C 	0.1015	0.4747	0.3231	-0.041
Mof_C 	C 	0.0957	0.4499	0.3647	0.01
Mof_H 	H 	0.0949	0.4176	0.3652	0.003
Mof_C 	C 	0.093	0.475	0.406	-0.049
Mof_H 	H 	0.0882	0.4607	0.4336	0.037
Mof_Co	Co	0.8956	0.3965	0.7485	1.11
Mof_C 	C 	0.9768	0.3359	0.7779	0.07
Mof_C 	C 	0.9465	0.309	0.799	-0.152
Mof_H 	H 	0.9177	0.2986	0.8011	0.068
Mof_C 	C 	0.971	0.2663	0.82	-0.029
Mof_H 	H 	0.9598	0.2405	0.8338	0.033
Mof_C 	C 	0.886	0.402	0.852	-0.117
Mof_C 	C 	0.931	0.41	0.861	0.141
Mof_H 	H 	0.96	0.4132	0.8444	-0.037
Mof_C 	C 	0.946	0.414	0.912	-0.082
Mof_H 	H 	0.9776	0.4171	0.9225	0.045
Mof_C 	C 	0.8271	0.3554	0.6806	0.042
Mof_C 	C 	0.7883	0.3848	0.6856	-0.117
Mof_H 	H 	0.7846	0.4095	0.7056	0.045
Mof_C 	C 	0.7501	0.3747	0.6572	-0.012
Mof_H 	H 	0.7164	0.3882	0.6701	0.022
Mof_C 	C 	0.923	0.477	0.686	0.09
Mof_C 	C 	0.942	0.453	0.652	-0.103
Mof_H 	H 	0.9398	0.4179	0.6456	0.032
Mof_C 	C 	0.968	0.478	0.613	-0.016
Mof_H 	H 	0.9838	0.4615	0.5916	0.024
Mof_N 	N 	0.9615	0.3767	0.7573	-0.272
Mof_N 	N 	0.8661	0.3986	0.8097	-0.277
Mof_N 	N 	0.8699	0.3536	0.7028	-0.297
Mof_N 	N 	0.8994	0.4606	0.7232	-0.28
Mof_C 	C 	0.882	0.427	0.847	0.162
Mof_C 	C 	0.924	0.445	0.854	-0.266
Mof_H 	H 	0.9498	0.4418	0.832	0.086
Mof_C 	C 	0.929	0.461	0.897	0.047
Mof_H 	H 	0.9578	0.4752	0.9034	0.008
Mof_H 	H 	0.9165	0.3025	0.6816	-0.037
Mof_C 	C 	0.8985	0.4747	0.6769	-0.041
Mof_C 	C 	0.9043	0.4499	0.6353	0.009
Mof_H 	H 	0.9051	0.4176	0.6348	0.003
Mof_C 	C 	0.907	0.475	0.594	-0.049
Mof_H 	H 	0.9118	0.4607	0.5664	0.037
Mof_Co	Co	0.1044	0.6035	0.7485	1.11
Mof_C 	C 	0.0232	0.6641	0.7779	0.064
Mof_C 	C 	0.0535	0.691	0.799	-0.148
Mof_H 	H 	0.0823	0.7014	0.8011	0.066
Mof_C 	C 	0.029	0.7337	0.82	-0.033
Mof_H 	H 	0.0402	0.7595	0.8338	0.035
Mof_C 	C 	0.114	0.598	0.852	-0.117
Mof_C 	C 	0.069	0.59	0.861	0.141
Mof_H 	H 	0.04	0.5868	0.8444	-0.037
Mof_C 	C 	0.054	0.586	0.912	-0.082
Mof_H 	H 	0.0224	0.5829	0.9225	0.044
Mof_C 	C 	0.1729	0.6446	0.6806	0.042
Mof_C 	C 	0.2117	0.6152	0.6856	-0.117
Mof_H 	H 	0.2154	0.5905	0.7056	0.045
Mof_C 	C 	0.2499	0.6253	0.6572	-0.012
Mof_H 	H 	0.2836	0.6118	0.6701	0.022
Mof_C 	C 	0.077	0.523	0.686	0.09
Mof_C 	C 	0.058	0.547	0.652	-0.104
Mof_H 	H 	0.0602	0.5821	0.6456	0.032
Mof_C 	C 	0.032	0.522	0.613	-0.016
Mof_H 	H 	0.0162	0.5385	0.5916	0.022
Mof_N 	N 	0.0385	0.6233	0.7573	-0.271
Mof_N 	N 	0.1339	0.6014	0.8097	-0.277
Mof_N 	N 	0.1301	0.6464	0.7028	-0.297
Mof_N 	N 	0.1006	0.5394	0.7232	-0.28
Mof_C 	C 	0.118	0.573	0.847	0.162
Mof_C 	C 	0.076	0.555	0.854	-0.266
Mof_H 	H 	0.0502	0.5582	0.832	0.085
Mof_C 	C 	0.071	0.539	0.897	0.046
Mof_H 	H 	0.0422	0.5248	0.9034	0.008
Mof_H 	H 	0.0835	0.6975	0.6816	-0.037
Mof_C 	C 	0.1015	0.5253	0.6769	-0.041
Mof_C 	C 	0.0957	0.5501	0.6353	0.01
Mof_H 	H 	0.0949	0.5824	0.6348	0.003
Mof_C 	C 	0.093	0.525	0.594	-0.049
Mof_H 	H 	0.0882	0.5393	0.5664	0.037
Mof_Co	Co	0.6035	0.7485	0.1044	1.11
Mof_C 	C 	0.6641	0.7779	0.0232	0.064
Mof_C 	C 	0.691	0.799	0.0535	-0.148
Mof_H 	H 	0.7014	0.8011	0.0823	0.066
Mof_C 	C 	0.7337	0.82	0.029	-0.033
Mof_H 	H 	0.7595	0.8338	0.0402	0.035
Mof_C 	C 	0.598	0.852	0.114	-0.117
Mof_C 	C 	0.59	0.861	0.069	0.141
Mof_H 	H 	0.5868	0.8444	0.04	-0.037
Mof_C 	C 	0.586	0.912	0.054	-0.082
Mof_H 	H 	0.5829	0.9225	0.0224	0.044
Mof_C 	C 	0.6446	0.6806	0.1729	0.042
Mof_C 	C 	0.6152	0.6856	0.2117	-0.117
Mof_H 	H 	0.5905	0.7056	0.2154	0.045
Mof_C 	C 	0.6253	0.6572	0.2499	-0.012
Mof_H 	H 	0.6118	0.6701	0.2836	0.022
Mof_C 	C 	0.523	0.686	0.077	0.09
Mof_C 	C 	0.547	0.652	0.058	-0.104
Mof_H 	H 	0.5821	0.6456	0.0602	0.032
Mof_C 	C 	0.522	0.613	0.032	-0.016
Mof_H 	H 	0.5385	0.5916	0.0162	0.022
Mof_N 	N 	0.6233	0.7573	0.0385	-0.271
Mof_N 	N 	0.6014	0.8097	0.1339	-0.277
Mof_N 	N 	0.6464	0.7028	0.1301	-0.297
Mof_N 	N 	0.5394	0.7232	0.1006	-0.28
Mof_C 	C 	0.573	0.847	0.118	0.162
Mof_C 	C 	0.555	0.854	0.076	-0.266
Mof_H 	H 	0.5582	0.832	0.0502	0.085
Mof_C 	C 	0.539	0.897	0.071	0.046
Mof_H 	H 	0.5248	0.9034	0.0422	0.008
Mof_H 	H 	0.6975	0.6816	0.0835	-0.037
Mof_C 	C 	0.5253	0.6769	0.1015	-0.041
Mof_C 	C 	0.5501	0.6353	0.0957	0.01
Mof_H 	H 	0.5824	0.6348	0.0949	0.003
Mof_C 	C 	0.525	0.594	0.093	-0.049
Mof_H 	H 	0.5393	0.5664	0.0882	0.037
Mof_Co	Co	0.3965	0.7485	0.8956	1.11
Mof_C 	C 	0.3359	0.7779	0.9768	0.07
Mof_C 	C 	0.309	0.799	0.9465	-0.152
Mof_H 	H 	0.2986	0.8011	0.9177	0.068
Mof_C 	C 	0.2663	0.82	0.971	-0.029
Mof_H 	H 	0.2405	0.8338	0.9598	0.033
Mof_C 	C 	0.402	0.852	0.886	-0.117
Mof_C 	C 	0.41	0.861	0.931	0.141
Mof_H 	H 	0.4132	0.8444	0.96	-0.037
Mof_C 	C 	0.414	0.912	0.946	-0.082
Mof_H 	H 	0.4171	0.9225	0.9776	0.045
Mof_C 	C 	0.3554	0.6806	0.8271	0.042
Mof_C 	C 	0.3848	0.6856	0.7883	-0.117
Mof_H 	H 	0.4095	0.7056	0.7846	0.045
Mof_C 	C 	0.3747	0.6572	0.7501	-0.012
Mof_H 	H 	0.3882	0.6701	0.7164	0.022
Mof_C 	C 	0.477	0.686	0.923	0.09
Mof_C 	C 	0.453	0.652	0.942	-0.103
Mof_H 	H 	0.4179	0.6456	0.9398	0.032
Mof_C 	C 	0.478	0.613	0.968	-0.016
Mof_H 	H 	0.4615	0.5916	0.9838	0.024
Mof_N 	N 	0.3767	0.7573	0.9615	-0.272
Mof_N 	N 	0.3986	0.8097	0.8661	-0.277
Mof_N 	N 	0.3536	0.7028	0.8699	-0.297
Mof_N 	N 	0.4606	0.7232	0.8994	-0.28
Mof_C 	C 	0.427	0.847	0.882	0.162
Mof_C 	C 	0.445	0.854	0.924	-0.266
Mof_H 	H 	0.4418	0.832	0.9498	0.086
Mof_C 	C 	0.461	0.897	0.929	0.047
Mof_H 	H 	0.4752	0.9034	0.9578	0.008
Mof_H 	H 	0.3025	0.6816	0.9165	-0.037
Mof_C 	C 	0.4747	0.6769	0.8985	-0.041
Mof_C 	C 	0.4499	0.6353	0.9043	0.009
Mof_H 	H 	0.4176	0.6348	0.9051	0.003
Mof_C 	C 	0.475	0.594	0.907	-0.049
Mof_H 	H 	0.4607	0.5664	0.9118	0.037
Mof_Co	Co	0.3965	0.2515	0.1044	1.11
Mof_C 	C 	0.3359	0.2221	0.0232	0.064
Mof_C 	C 	0.309	0.201	0.0535	-0.148
Mof_H 	H 	0.2986	0.1989	0.0823	0.066
Mof_C 	C 	0.2663	0.18	0.029	-0.033
Mof_H 	H 	0.2405	0.1662	0.0402	0.034
Mof_C 	C 	0.402	0.148	0.114	-0.117
Mof_C 	C 	0.41	0.139	0.069	0.141
Mof_H 	H 	0.4132	0.1556	0.04	-0.037
Mof_C 	C 	0.414	0.088	0.054	-0.082
Mof_H 	H 	0.4171	0.0775	0.0224	0.044
Mof_C 	C 	0.3554	0.3194	0.1729	0.042
Mof_C 	C 	0.3848	0.3144	0.2117	-0.117
Mof_H 	H 	0.4095	0.2944	0.2154	0.045
Mof_C 	C 	0.3747	0.3428	0.2499	-0.012
Mof_H 	H 	0.3882	0.3299	0.2836	0.022
Mof_C 	C 	0.477	0.314	0.077	0.09
Mof_C 	C 	0.453	0.348	0.058	-0.104
Mof_H 	H 	0.4179	0.3544	0.0602	0.032
Mof_C 	C 	0.478	0.387	0.032	-0.016
Mof_H 	H 	0.4615	0.4084	0.0162	0.022
Mof_N 	N 	0.3767	0.2427	0.0385	-0.271
Mof_N 	N 	0.3986	0.1903	0.1339	-0.277
Mof_N 	N 	0.3536	0.2972	0.1301	-0.297
Mof_N 	N 	0.4606	0.2768	0.1006	-0.28
Mof_C 	C 	0.427	0.153	0.118	0.162
Mof_C 	C 	0.445	0.146	0.076	-0.266
Mof_H 	H 	0.4418	0.168	0.0502	0.085
Mof_C 	C 	0.461	0.103	0.071	0.046
Mof_H 	H 	0.4752	0.0966	0.0422	0.008
Mof_H 	H 	0.3025	0.3184	0.0835	-0.037
Mof_C 	C 	0.4747	0.3231	0.1015	-0.041
Mof_C 	C 	0.4499	0.3647	0.0957	0.01
Mof_H 	H 	0.4176	0.3652	0.0949	0.003
Mof_C 	C 	0.475	0.406	0.093	-0.049
Mof_H 	H 	0.4607	0.4336	0.0882	0.037
Mof_Co	Co	0.6035	0.2515	0.8956	1.11
Mof_C 	C 	0.6641	0.2221	0.9768	0.07
Mof_C 	C 	0.691	0.201	0.9465	-0.152
Mof_H 	H 	0.7014	0.1989	0.9177	0.068
Mof_C 	C 	0.7337	0.18	0.971	-0.029
Mof_H 	H 	0.7595	0.1662	0.9598	0.033
Mof_C 	C 	0.598	0.148	0.886	-0.117
Mof_C 	C 	0.59	0.139	0.931	0.141
Mof_H 	H 	0.5868	0.1556	0.96	-0.037
Mof_C 	C 	0.586	0.088	0.946	-0.082
Mof_H 	H 	0.5829	0.0775	0.9776	0.045
Mof_C 	C 	0.6446	0.3194	0.8271	0.042
Mof_C 	C 	0.6152	0.3144	0.7883	-0.117
Mof_H 	H 	0.5905	0.2944	0.7846	0.045
Mof_C 	C 	0.6253	0.3428	0.7501	-0.012
Mof_H 	H 	0.6118	0.3299	0.7164	0.022
Mof_C 	C 	0.523	0.314	0.923	0.09
Mof_C 	C 	0.547	0.348	0.942	-0.103
Mof_H 	H 	0.5821	0.3544	0.9398	0.032
Mof_C 	C 	0.522	0.387	0.968	-0.016
Mof_H 	H 	0.5385	0.4084	0.9838	0.024
Mof_N 	N 	0.6233	0.2427	0.9615	-0.272
Mof_N 	N 	0.6014	0.1903	0.8661	-0.277
Mof_N 	N 	0.6464	0.2972	0.8699	-0.297
Mof_N 	N 	0.5394	0.2768	0.8994	-0.28
Mof_C 	C 	0.573	0.153	0.882	0.162
Mof_C 	C 	0.555	0.146	0.924	-0.266
Mof_H 	H 	0.5582	0.168	0.9498	0.086
Mof_C 	C 	0.539	0.103	0.929	0.047
Mof_H 	H 	0.5248	0.0966	0.9578	0.008
Mof_H 	H 	0.6975	0.3184	0.9165	-0.037
Mof_C 	C 	0.5253	0.3231	0.8985	-0.041
Mof_C 	C 	0.5501	0.3647	0.9043	0.009
Mof_H 	H 	0.5824	0.3652	0.9051	0.003
Mof_C 	C 	0.525	0.406	0.907	-0.049
Mof_H 	H 	0.5393	0.4336	0.9118	0.037
Mof_Co	Co	0.7485	0.8956	0.3965	1.11
Mof_C 	C 	0.7779	0.9768	0.3359	0.07
Mof_C 	C 	0.799	0.9465	0.309	-0.152
Mof_H 	H 	0.8011	0.9177	0.2986	0.068
Mof_C 	C 	0.82	0.971	0.2663	-0.029
Mof_H 	H 	0.8338	0.9598	0.2405	0.033
Mof_C 	C 	0.852	0.886	0.402	-0.117
Mof_C 	C 	0.861	0.931	0.41	0.141
Mof_H 	H 	0.8444	0.96	0.4132	-0.037
Mof_C 	C 	0.912	0.946	0.414	-0.082
Mof_H 	H 	0.9225	0.9776	0.4171	0.045
Mof_C 	C 	0.6806	0.8271	0.3554	0.042
Mof_C 	C 	0.6856	0.7883	0.3848	-0.117
Mof_H 	H 	0.7056	0.7846	0.4095	0.045
Mof_C 	C 	0.6572	0.7501	0.3747	-0.012
Mof_H 	H 	0.6701	0.7164	0.3882	0.022
Mof_C 	C 	0.686	0.923	0.477	0.09
Mof_C 	C 	0.652	0.942	0.453	-0.103
Mof_H 	H 	0.6456	0.9398	0.4179	0.032
Mof_C 	C 	0.613	0.968	0.478	-0.016
Mof_H 	H 	0.5916	0.9838	0.4615	0.024
Mof_N 	N 	0.7573	0.9615	0.3767	-0.272
Mof_N 	N 	0.8097	0.8661	0.3986	-0.277
Mof_N 	N 	0.7028	0.8699	0.3536	-0.297
Mof_N 	N 	0.7232	0.8994	0.4606	-0.28
Mof_C 	C 	0.847	0.882	0.427	0.162
Mof_C 	C 	0.854	0.924	0.445	-0.266
Mof_H 	H 	0.832	0.9498	0.4418	0.086
Mof_C 	C 	0.897	0.929	0.461	0.047
Mof_H 	H 	0.9034	0.9578	0.4752	0.008
Mof_H 	H 	0.6816	0.9165	0.3025	-0.037
Mof_C 	C 	0.6769	0.8985	0.4747	-0.041
Mof_C 	C 	0.6353	0.9043	0.4499	0.009
Mof_H 	H 	0.6348	0.9051	0.4176	0.003
Mof_C 	C 	0.594	0.907	0.475	-0.049
Mof_H 	H 	0.5664	0.9118	0.4607	0.037
Mof_Co	Co	0.7485	0.1044	0.6035	1.11
Mof_C 	C 	0.7779	0.0232	0.6641	0.064
Mof_C 	C 	0.799	0.0535	0.691	-0.148
Mof_H 	H 	0.8011	0.0823	0.7014	0.066
Mof_C 	C 	0.82	0.029	0.7337	-0.033
Mof_H 	H 	0.8338	0.0402	0.7595	0.035
Mof_C 	C 	0.852	0.114	0.598	-0.117
Mof_C 	C 	0.861	0.069	0.59	0.141
Mof_H 	H 	0.8444	0.04	0.5868	-0.037
Mof_C 	C 	0.912	0.054	0.586	-0.082
Mof_H 	H 	0.9225	0.0224	0.5829	0.044
Mof_C 	C 	0.6806	0.1729	0.6446	0.042
Mof_C 	C 	0.6856	0.2117	0.6152	-0.117
Mof_H 	H 	0.7056	0.2154	0.5905	0.045
Mof_C 	C 	0.6572	0.2499	0.6253	-0.012
Mof_H 	H 	0.6701	0.2836	0.6118	0.022
Mof_C 	C 	0.686	0.077	0.523	0.09
Mof_C 	C 	0.652	0.058	0.547	-0.104
Mof_H 	H 	0.6456	0.0602	0.5821	0.032
Mof_C 	C 	0.613	0.032	0.522	-0.016
Mof_H 	H 	0.5916	0.0162	0.5385	0.022
Mof_N 	N 	0.7573	0.0385	0.6233	-0.271
Mof_N 	N 	0.8097	0.1339	0.6014	-0.277
Mof_N 	N 	0.7028	0.1301	0.6464	-0.297
Mof_N 	N 	0.7232	0.1006	0.5394	-0.28
Mof_C 	C 	0.847	0.118	0.573	0.162
Mof_C 	C 	0.854	0.076	0.555	-0.266
Mof_H 	H 	0.832	0.0502	0.5582	0.085
Mof_C 	C 	0.897	0.071	0.539	0.046
Mof_H 	H 	0.9034	0.0422	0.5248	0.008
Mof_H 	H 	0.6816	0.0835	0.6975	-0.037
Mof_C 	C 	0.6769	0.1015	0.5253	-0.041
Mof_C 	C 	0.6353	0.0957	0.5501	0.01
Mof_H 	H 	0.6348	0.0949	0.5824	0.003
Mof_C 	C 	0.594	0.093	0.525	-0.049
Mof_H 	H 	0.5664	0.0882	0.5393	0.037
Mof_Co	Co	0.2515	0.8956	0.6035	1.11
Mof_C 	C 	0.2221	0.9768	0.6641	0.07
Mof_C 	C 	0.201	0.9465	0.691	-0.152
Mof_H 	H 	0.1989	0.9177	0.7014	0.068
Mof_C 	C 	0.18	0.971	0.7337	-0.029
Mof_H 	H 	0.1662	0.9598	0.7595	0.033
Mof_C 	C 	0.148	0.886	0.598	-0.117
Mof_C 	C 	0.139	0.931	0.59	0.141
Mof_H 	H 	0.1556	0.96	0.5868	-0.037
Mof_C 	C 	0.088	0.946	0.586	-0.082
Mof_H 	H 	0.0775	0.9776	0.5829	0.045
Mof_C 	C 	0.3194	0.8271	0.6446	0.042
Mof_C 	C 	0.3144	0.7883	0.6152	-0.117
Mof_H 	H 	0.2944	0.7846	0.5905	0.045
Mof_C 	C 	0.3428	0.7501	0.6253	-0.012
Mof_H 	H 	0.3299	0.7164	0.6118	0.022
Mof_C 	C 	0.314	0.923	0.523	0.09
Mof_C 	C 	0.348	0.942	0.547	-0.103
Mof_H 	H 	0.3544	0.9398	0.5821	0.032
Mof_C 	C 	0.387	0.968	0.522	-0.016
Mof_H 	H 	0.4084	0.9838	0.5385	0.024
Mof_N 	N 	0.2427	0.9615	0.6233	-0.272
Mof_N 	N 	0.1903	0.8661	0.6014	-0.277
Mof_N 	N 	0.2972	0.8699	0.6464	-0.297
Mof_N 	N 	0.2768	0.8994	0.5394	-0.28
Mof_C 	C 	0.153	0.882	0.573	0.162
Mof_C 	C 	0.146	0.924	0.555	-0.266
Mof_H 	H 	0.168	0.9498	0.5582	0.086
Mof_C 	C 	0.103	0.929	0.539	0.047
Mof_H 	H 	0.0966	0.9578	0.5248	0.008
Mof_H 	H 	0.3184	0.9165	0.6975	-0.037
Mof_C 	C 	0.3231	0.8985	0.5253	-0.041
Mof_C 	C 	0.3647	0.9043	0.5501	0.009
Mof_H 	H 	0.3652	0.9051	0.5824	0.003
Mof_C 	C 	0.406	0.907	0.525	-0.049
Mof_H 	H 	0.4336	0.9118	0.5393	0.037
Mof_Co	Co	0.2515	0.1044	0.3965	1.11
Mof_C 	C 	0.2221	0.0232	0.3359	0.064
Mof_C 	C 	0.201	0.0535	0.309	-0.148
Mof_H 	H 	0.1989	0.0823	0.2986	0.066
Mof_C 	C 	0.18	0.029	0.2663	-0.033
Mof_H 	H 	0.1662	0.0402	0.2405	0.034
Mof_C 	C 	0.148	0.114	0.402	-0.117
Mof_C 	C 	0.139	0.069	0.41	0.141
Mof_H 	H 	0.1556	0.04	0.4132	-0.037
Mof_C 	C 	0.088	0.054	0.414	-0.082
Mof_H 	H 	0.0775	0.0224	0.4171	0.044
Mof_C 	C 	0.3194	0.1729	0.3554	0.042
Mof_C 	C 	0.3144	0.2117	0.3848	-0.117
Mof_H 	H 	0.2944	0.2154	0.4095	0.045
Mof_C 	C 	0.3428	0.2499	0.3747	-0.012
Mof_H 	H 	0.3299	0.2836	0.3882	0.022
Mof_C 	C 	0.314	0.077	0.477	0.09
Mof_C 	C 	0.348	0.058	0.453	-0.104
Mof_H 	H 	0.3544	0.0602	0.4179	0.032
Mof_C 	C 	0.387	0.032	0.478	-0.016
Mof_H 	H 	0.4084	0.0162	0.4615	0.022
Mof_N 	N 	0.2427	0.0385	0.3767	-0.271
Mof_N 	N 	0.1903	0.1339	0.3986	-0.277
Mof_N 	N 	0.2972	0.1301	0.3536	-0.297
Mof_N 	N 	0.2768	0.1006	0.4606	-0.28
Mof_C 	C 	0.153	0.118	0.427	0.162
Mof_C 	C 	0.146	0.076	0.445	-0.266
Mof_H 	H 	0.168	0.0502	0.4418	0.085
Mof_C 	C 	0.103	0.071	0.461	0.046
Mof_H 	H 	0.0966	0.0422	0.4752	0.008
Mof_H 	H 	0.3184	0.0835	0.3025	-0.037
Mof_C 	C 	0.3231	0.1015	0.4747	-0.041
Mof_C 	C 	0.3647	0.0957	0.4499	0.01
Mof_H 	H 	0.3652	0.0949	0.4176	0.003
Mof_C 	C 	0.406	0.093	0.475	-0.049
Mof_H 	H 	0.4336	0.0882	0.4607	0.037
Mof_C 	C 	0.4001	-2.12244e-33	0.2599	0.073
Mof_H 	H 	0.4227	-2.12244e-33	0.2728	-0.041
Mof_C 	C 	0.5999	-2.12244e-33	0.2599	0.073
Mof_H 	H 	0.5773	-2.12244e-33	0.2728	-0.041
Mof_C 	C 	0.5999	-8.48978e-33	0.7401	0.073
Mof_H 	H 	0.5773	0	0.7272	-0.041
Mof_C 	C 	0.4001	-8.48978e-33	0.7401	0.073
Mof_H 	H 	0.4227	0	0.7272	-0.041
Mof_C 	C 	0.2599	0.4001	-0	0.073
Mof_H 	H 	0.2728	0.4227	-0	-0.041
Mof_C 	C 	0.2599	0.5999	-0	0.073
Mof_H 	H 	0.2728	0.5773	-0	-0.041
Mof_C 	C 	0.7401	0.5999	-0	0.073
Mof_H 	H 	0.7272	0.5773	-0	-0.041
Mof_C 	C 	0.7401	0.4001	-0	0.073
Mof_H 	H 	0.7272	0.4227	-0	-0.041
Mof_C 	C 	-2.74475e-33	0.2599	0.4001	0.073
Mof_H 	H 	-6.90491e-33	0.2728	0.4227	-0.041
Mof_C 	C 	1.0739e-32	0.2599	0.5999	0.073
Mof_H 	H 	-6.32525e-33	0.2728	0.5773	-0.041
Mof_C 	C 	1.49839e-32	0.7401	0.5999	0.073
Mof_H 	H 	-2.08036e-33	0.7272	0.5773	-0.041
Mof_C 	C 	-6.98964e-33	0.7401	0.4001	0.073
Mof_H 	H 	5.82976e-33	0.7272	0.4227	-0.041
Mof_C 	C 	-1.42046e-32	0.4001	0.7401	0.073
Mof_H 	H 	2.72656e-33	0.4227	0.7272	-0.041
Mof_C 	C 	1.97545e-32	0.5999	0.7401	0.073
Mof_H 	H 	2.72656e-33	0.5773	0.7272	-0.041
Mof_C 	C 	1.15867e-32	0.5999	0.2599	0.073
Mof_H 	H 	-5.3445e-33	0.5773	0.2728	-0.041
Mof_C 	C 	-1.14798e-33	0.4001	0.2599	0.073
Mof_H 	H 	-5.3445e-33	0.4227	0.2728	-0.041
Mof_C 	C 	0.4001	0.2599	-0	0.073
Mof_H 	H 	0.4227	0.2728	-0	-0.041
Mof_C 	C 	0.5999	0.2599	-0	0.073
Mof_H 	H 	0.5773	0.2728	-0	-0.041
Mof_C 	C 	0.5999	0.7401	-0	0.073
Mof_H 	H 	0.5773	0.7272	-0	-0.041
Mof_C 	C 	0.4001	0.7401	-0	0.073
Mof_H 	H 	0.4227	0.7272	-0	-0.041
Mof_C 	C 	0.2599	4.24489e-33	0.5999	0.073
Mof_H 	H 	0.2728	0	0.5773	-0.041
Mof_C 	C 	0.2599	0	0.4001	0.073
Mof_H 	H 	0.2728	0	0.4227	-0.041
Mof_C 	C 	0.7401	0	0.4001	0.073
Mof_H 	H 	0.7272	0	0.4227	-0.041
Mof_C 	C 	0.7401	4.24489e-33	0.5999	0.073
Mof_H 	H 	0.7272	0	0.5773	-0.041
Mof_C 	C 	0.393	0.1793	0.1793	0.071
Mof_H 	H 	0.3796	0.2007	0.2007	-0.044
Mof_C 	C 	0.607	0.8207	0.1793	0.071
Mof_H 	H 	0.6204	0.7993	0.2007	-0.044
Mof_C 	C 	0.607	0.1793	0.8207	0.071
Mof_H 	H 	0.6204	0.2007	0.7993	-0.044
Mof_C 	C 	0.393	0.8207	0.8207	0.071
Mof_H 	H 	0.3796	0.7993	0.7993	-0.044
Mof_C 	C 	0.1793	0.393	0.1793	0.071
Mof_H 	H 	0.2007	0.3796	0.2007	-0.044
Mof_C 	C 	0.1793	0.607	0.8207	0.071
Mof_H 	H 	0.2007	0.6204	0.7993	-0.044
Mof_C 	C 	0.8207	0.607	0.1793	0.071
Mof_H 	H 	0.7993	0.6204	0.2007	-0.044
Mof_C 	C 	0.8207	0.393	0.8207	0.071
Mof_H 	H 	0.7993	0.3796	0.7993	-0.044
Mof_C 	C 	0.1793	0.1793	0.393	0.071
Mof_H 	H 	0.2007	0.2007	0.3796	-0.044
Mof_C 	C 	0.8207	0.1793	0.607	0.071
Mof_H 	H 	0.7993	0.2007	0.6204	-0.044
Mof_C 	C 	0.1793	0.8207	0.607	0.071
Mof_H 	H 	0.2007	0.7993	0.6204	-0.044
Mof_C 	C 	0.8207	0.8207	0.393	0.071
Mof_H 	H 	0.7993	0.7993	0.3796	-0.044
Mof_C 	C 	0.1793	0.393	0.8207	0.071
Mof_H 	H 	0.2007	0.3796	0.7993	-0.044
Mof_C 	C 	0.8207	0.607	0.8207	0.071
Mof_H 	H 	0.7993	0.6204	0.7993	-0.044
Mof_C 	C 	0.1793	0.607	0.1793	0.071
Mof_H 	H 	0.2007	0.6204	0.2007	-0.044
Mof_C 	C 	0.8207	0.393	0.1793	0.071
Mof_H 	H 	0.7993	0.3796	0.2007	-0.044
Mof_C 	C 	0.393	0.1793	0.8207	0.071
Mof_H 	H 	0.3796	0.2007	0.7993	-0.044
Mof_C 	C 	0.607	0.1793	0.1793	0.071
Mof_H 	H 	0.6204	0.2007	0.2007	-0.044
Mof_C 	C 	0.607	0.8207	0.8207	0.071
Mof_H 	H 	0.6204	0.7993	0.7993	-0.044
Mof_C 	C 	0.393	0.8207	0.1793	0.071
Mof_H 	H 	0.3796	0.7993	0.2007	-0.044
Mof_C 	C 	0.1793	0.1793	0.607	0.071
Mof_H 	H 	0.2007	0.2007	0.6204	-0.044
Mof_C 	C 	0.1793	0.8207	0.393	0.071
Mof_H 	H 	0.2007	0.7993	0.3796	-0.044
Mof_C 	C 	0.8207	0.1793	0.393	0.071
Mof_H 	H 	0.7993	0.2007	0.3796	-0.044
Mof_C 	C 	0.8207	0.8207	0.607	0.071
Mof_H 	H 	0.7993	0.7993	0.6204	-0.044
Mof_C 	C 	0.3203	0.109	0.3203	0.138
Mof_C 	C 	0.6797	0.891	0.3203	0.138
Mof_C 	C 	0.6797	0.109	0.6797	0.138
Mof_C 	C 	0.3203	0.891	0.6797	0.138
Mof_C 	C 	0.3203	0.3203	0.109	0.138
Mof_C 	C 	0.3203	0.6797	0.891	0.138
Mof_C 	C 	0.6797	0.6797	0.109	0.138
Mof_C 	C 	0.6797	0.3203	0.891	0.138
Mof_C 	C 	0.109	0.3203	0.3203	0.138
Mof_C 	C 	0.891	0.3203	0.6797	0.138
Mof_C 	C 	0.109	0.6797	0.6797	0.138
Mof_C 	C 	0.891	0.6797	0.3203	0.138
Mof_C 	C 	0.109	0.3203	0.6797	0.138
Mof_C 	C 	0.891	0.6797	0.6797	0.138
Mof_C 	C 	0.109	0.6797	0.3203	0.138
Mof_C 	C 	0.891	0.3203	0.3203	0.138
Mof_C 	C 	0.3203	0.3203	0.891	0.138
Mof_C 	C 	0.6797	0.3203	0.109	0.138
Mof_C 	C 	0.6797	0.6797	0.891	0.138
Mof_C 	C 	0.3203	0.6797	0.109	0.138
Mof_C 	C 	0.3203	0.109	0.6797	0.138
Mof_C 	C 	0.3203	0.891	0.3203	0.138
Mof_C 	C 	0.6797	0.109	0.3203	0.138
Mof_C 	C 	0.6797	0.891	0.6797	0.138
Mof_C 	C 	0.5	0.1065	0.2534	0.078
Mof_H 	H 	0.5	0.1215	0.2228	-0.043
Mof_C 	C 	0.5	0.8935	0.2534	0.079
Mof_H 	H 	0.5	0.8785	0.2228	-0.043
Mof_C 	C 	0.5	0.1065	0.7466	0.078
Mof_H 	H 	0.5	0.1215	0.7772	-0.043
Mof_C 	C 	0.5	0.8935	0.7466	0.079
Mof_H 	H 	0.5	0.8785	0.7772	-0.043
Mof_C 	C 	0.2534	0.5	0.1065	0.078
Mof_H 	H 	0.2228	0.5	0.1215	-0.043
Mof_C 	C 	0.2534	0.5	0.8935	0.079
Mof_H 	H 	0.2228	0.5	0.8785	-0.043
Mof_C 	C 	0.7466	0.5	0.1065	0.078
Mof_H 	H 	0.7772	0.5	0.1215	-0.043
Mof_C 	C 	0.7466	0.5	0.8935	0.079
Mof_H 	H 	0.7772	0.5	0.8785	-0.043
Mof_C 	C 	0.1065	0.2534	0.5	0.078
Mof_H 	H 	0.1215	0.2228	0.5	-0.043
Mof_C 	C 	0.8935	0.2534	0.5	0.079
Mof_H 	H 	0.8785	0.2228	0.5	-0.043
Mof_C 	C 	0.1065	0.7466	0.5	0.078
Mof_H 	H 	0.1215	0.7772	0.5	-0.043
Mof_C 	C 	0.8935	0.7466	0.5	0.079
Mof_H 	H 	0.8785	0.7772	0.5	-0.043
Mof_C 	C 	0.1065	0.5	0.7466	0.078
Mof_H 	H 	0.1215	0.5	0.7772	-0.043
Mof_C 	C 	0.8935	0.5	0.7466	0.079
Mof_H 	H 	0.8785	0.5	0.7772	-0.043
Mof_C 	C 	0.1065	0.5	0.2534	0.078
Mof_H 	H 	0.1215	0.5	0.2228	-0.043
Mof_C 	C 	0.8935	0.5	0.2534	0.079
Mof_H 	H 	0.8785	0.5	0.2228	-0.043
Mof_C 	C 	0.5	0.2534	0.8935	0.079
Mof_H 	H 	0.5	0.2228	0.8785	-0.043
Mof_C 	C 	0.5	0.2534	0.1065	0.078
Mof_H 	H 	0.5	0.2228	0.1215	-0.043
Mof_C 	C 	0.5	0.7466	0.8935	0.079
Mof_H 	H 	0.5	0.7772	0.8785	-0.043
Mof_C 	C 	0.5	0.7466	0.1065	0.078
Mof_H 	H 	0.5	0.7772	0.1215	-0.043
Mof_C 	C 	0.2534	0.1065	0.5	0.078
Mof_H 	H 	0.2228	0.1215	0.5	-0.043
Mof_C 	C 	0.2534	0.8935	0.5	0.079
Mof_H 	H 	0.2228	0.8785	0.5	-0.043
Mof_C 	C 	0.7466	0.1065	0.5	0.078
Mof_H 	H 	0.7772	0.1215	0.5	-0.043
Mof_C 	C 	0.7466	0.8935	0.5	0.079
Mof_H 	H 	0.7772	0.8785	0.5	-0.043
_end
