data_functionalizedCrystal
_audit_creation_method	'EQeq! by Chris Wilmer'
_symmetry_space_group_name_H-M	'P1'
_symmetry_Int_Tables_number	1
_symmetry_cell_setting	triclinic
loop_
_symmetry_equiv_pos_as_xyz
  x,y,z
_cell_length_a	9.4366
_cell_length_b	9.4366
_cell_length_c	16.424
_cell_angle_alpha	88.5049
_cell_angle_beta	88.5049
_cell_angle_gamma	83.7416
loop_
_atom_site_label
_atom_site_type_symbol
_atom_site_fract_x
_atom_site_fract_y
_atom_site_fract_z
_atom_site_charge
Mof_Cu	Cu	0.49224	0.13618	0.50256	0.742
Mof_Cu	Cu	0.86382	0.50776	0.99744	0.8
Mof_Cu	Cu	0.50776	0.86382	0.49744	0.789
Mof_Cu	Cu	0.13618	0.49224	0.00256	0.732
Mof_Cu	Cu	6.11298e-19	0	0.5	0.64
Mof_Cu	Cu	-0	0	-0	0.629
Mof_Cu	Cu	0.63662	0.36338	0.75	0.75
Mof_Cu	Cu	0.36338	0.63662	0.25	0.747
Mof_Cu	Cu	0.6022	0.3978	0.25	0.748
Mof_Cu	Cu	0.3978	0.6022	0.75	0.751
Mof_C 	C 	0.3166	0.0406	0.5108	-0.45
Mof_C 	C 	0.5715	0.2829	0.6614	-0.4
Mof_C 	C 	0.538	0.3064	0.3399	-0.398
Mof_C 	C 	0.9594	0.6834	0.9892	-0.309
Mof_C 	C 	0.7171	0.4285	0.8386	-0.373
Mof_C 	C 	0.6936	0.462	0.1601	-0.374
Mof_C 	C 	0.6834	0.9594	0.4892	-0.323
Mof_C 	C 	0.4285	0.7171	0.3386	-0.38
Mof_C 	C 	0.462	0.6936	0.6601	-0.367
Mof_C 	C 	0.0406	0.3166	0.0108	-0.464
Mof_C 	C 	0.2829	0.5715	0.1614	-0.407
Mof_C 	C 	0.3064	0.538	0.8399	-0.39
Mof_N 	N 	0.1989	0.0253	0.5134	-0.281
Mof_N 	N 	0.5422	0.2292	0.6034	-0.23
Mof_N 	N 	0.5158	0.2448	0.3983	-0.229
Mof_N 	N 	0.9747	0.8011	0.9866	-0.19
Mof_N 	N 	0.7708	0.4578	0.8966	-0.203
Mof_N 	N 	0.7552	0.4842	0.1017	-0.213
Mof_N 	N 	0.8011	0.9747	0.4866	-0.197
Mof_N 	N 	0.4578	0.7708	0.3966	-0.207
Mof_N 	N 	0.4842	0.7552	0.6017	-0.205
Mof_N 	N 	0.0253	0.1989	0.0134	-0.284
Mof_N 	N 	0.2292	0.5422	0.1034	-0.234
Mof_N 	N 	0.2448	0.5158	0.8983	-0.22
_end
