data_functionalizedCrystal
_audit_creation_method	'EQeq! by Chris Wilmer'
_symmetry_space_group_name_H-M	'P1'
_symmetry_Int_Tables_number	1
_symmetry_cell_setting	triclinic
loop_
_symmetry_equiv_pos_as_xyz
  x,y,z
_cell_length_a	9.1985
_cell_length_b	15.9576
_cell_length_c	16.0966
_cell_angle_alpha	73.171
_cell_angle_beta	74.44
_cell_angle_gamma	76.392
loop_
_atom_site_label
_atom_site_type_symbol
_atom_site_fract_x
_atom_site_fract_y
_atom_site_fract_z
_atom_site_charge
Mof_Co	Co	0.5	0.5	-0	1.098
Mof_Co	Co	-3.31006e-17	0	0.5	1.076
Mof_Co	Co	-8.60616e-17	0.5	0.5	1.102
Mof_H 	H 	0.9739	0.6759	0.0298	0.082
Mof_H 	H 	0.9628	0.7311	0.1513	0.069
Mof_H 	H 	0.1724	0.6915	0.2156	0.051
Mof_H 	H 	0.3865	0.6018	0.1603	0.005
Mof_H 	H 	0.1827	0.3888	0.6422	-0.03
Mof_H 	H 	0.2596	0.3978	0.7623	0.112
Mof_H 	H 	0.9825	0.6312	0.7559	0.202
Mof_H 	H 	0.9158	0.6177	0.6339	-0.067
Mof_H 	H 	0.9514	0.0108	0.8122	0.031
Mof_H 	H 	0.1015	0.1171	0.7891	0.049
Mof_H 	H 	0.2143	0.1837	0.6435	0.049
Mof_H 	H 	0.175	0.1416	0.529	0.004
Mof_H 	H 	0.6329	0.6577	0.994	0.012
Mof_H 	H 	0.7321	0.7777	0.9042	0.111
Mof_H 	H 	0.652	0.7203	0.6986	0.097
Mof_H 	H 	0.5527	0.6003	0.7938	-0.003
Mof_H 	H 	0.4913	0.4159	0.6486	0.083
Mof_H 	H 	0.5607	0.2624	0.6821	0.008
Mof_H 	H 	0.8174	0.2008	0.6422	0.09
Mof_H 	H 	0.992	0.2923	0.5701	0.005
Mof_H 	H 	0.362	0.9585	0.4588	0.011
Mof_H 	H 	0.5626	0.8458	0.4737	0.089
Mof_H 	H 	0.2687	0.6795	0.5979	0.092
Mof_H 	H 	0.0751	0.7971	0.5804	-0.02
Mof_H 	H 	0.0261	0.3241	0.9702	0.075
Mof_H 	H 	0.0372	0.2689	0.8487	-0.055
Mof_H 	H 	0.8276	0.3085	0.7844	0.115
Mof_H 	H 	0.6135	0.3982	0.8397	-0.015
Mof_H 	H 	0.8173	0.6112	0.3578	0.011
Mof_H 	H 	0.7404	0.6022	0.2377	0.053
Mof_H 	H 	0.0175	0.3688	0.2441	-0.019
Mof_H 	H 	0.0842	0.3823	0.3661	0.049
Mof_H 	H 	0.0486	0.9892	0.1878	0.122
Mof_H 	H 	0.8985	0.8829	0.2109	-0.023
Mof_H 	H 	0.7857	0.8163	0.3565	0.107
Mof_H 	H 	0.825	0.8584	0.471	-0.012
Mof_H 	H 	0.3671	0.3423	0.006	-0.036
Mof_H 	H 	0.2679	0.2223	0.0958	0.068
Mof_H 	H 	0.348	0.2797	0.3014	0.086
Mof_H 	H 	0.4473	0.3997	0.2062	-0.004
Mof_H 	H 	0.5087	0.5841	0.3514	0.083
Mof_H 	H 	0.4393	0.7376	0.3179	0.008
Mof_H 	H 	0.1826	0.7992	0.3578	0.083
Mof_H 	H 	0.008	0.7077	0.4299	-0.027
Mof_H 	H 	0.638	0.0415	0.5412	-0.026
Mof_H 	H 	0.4374	0.1542	0.5263	0.079
Mof_H 	H 	0.7313	0.3205	0.4021	0.095
Mof_H 	H 	0.9249	0.2029	0.4196	0.006
Mof_C 	C 	0.1878	0.526	0.8459	0.044
Mof_C 	C 	0.2077	0.5675	0.9523	0.141
Mof_C 	C 	0.1887	0.607	0.0261	-0.023
Mof_C 	C 	0.0569	0.6614	0.057	-0.107
Mof_C 	C 	0.0501	0.6941	0.1292	-0.058
Mof_C 	C 	0.1747	0.6707	0.1669	-0.075
Mof_C 	C 	0.303	0.6168	0.1335	0.041
Mof_C 	C 	0.1432	0.4391	0.6646	0.13
Mof_C 	C 	0.1898	0.4439	0.7369	-0.23
Mof_C 	C 	0.133	0.5169	0.7717	0.18
Mof_C 	C 	0.0269	0.5817	0.7329	-0.382
Mof_C 	C 	0.9866	0.5728	0.6598	0.279
Mof_C 	C 	0.7761	0.8392	0.7317	0.085
Mof_C 	C 	0.8932	0.9465	0.6901	0.149
Mof_C 	C 	0.9802	0.0137	0.6831	-0.025
Mof_C 	C 	0.9985	0.0374	0.7549	0.013
Mof_C 	C 	0.087	0.1009	0.7412	-0.09
Mof_C 	C 	0.1544	0.1405	0.6547	-0.07
Mof_C 	C 	0.1306	0.1145	0.5868	0.021
Mof_C 	C 	0.6365	0.6702	0.9334	0.102
Mof_C 	C 	0.6965	0.7424	0.8798	-0.148
Mof_C 	C 	0.7051	0.7637	0.7901	0.084
Mof_C 	C 	0.6494	0.7087	0.759	-0.15
Mof_C 	C 	0.5896	0.6365	0.8165	0.096
Mof_C 	C 	0.5648	0.6705	0.5429	0.076
Mof_C 	C 	0.6714	0.5382	0.5679	0.065
Mof_C 	C 	0.7043	0.4413	0.5918	0.062
Mof_C 	C 	0.5932	0.3896	0.6336	-0.127
Mof_C 	C 	0.6341	0.2986	0.6533	0.061
Mof_C 	C 	0.7862	0.2621	0.6294	-0.147
Mof_C 	C 	0.8898	0.3173	0.5867	0.089
Mof_C 	C 	0.3422	0.9014	0.4869	0.088
Mof_C 	C 	0.4635	0.8336	0.4955	-0.144
Mof_C 	C 	0.4419	0.7483	0.5356	0.075
Mof_C 	C 	0.2912	0.7359	0.5686	-0.148
Mof_C 	C 	0.1752	0.8074	0.5576	0.092
Mof_C 	C 	0.8122	0.474	0.1541	0.122
Mof_C 	C 	0.7923	0.4325	0.0477	0.007
Mof_C 	C 	0.8113	0.393	0.9739	0.131
Mof_C 	C 	0.9431	0.3386	0.943	-0.129
Mof_C 	C 	0.9499	0.3059	0.8708	0.172
Mof_C 	C 	0.8253	0.3293	0.8331	-0.21
Mof_C 	C 	0.697	0.3832	0.8665	0.128
Mof_C 	C 	0.8568	0.5609	0.3354	0.037
Mof_C 	C 	0.8102	0.5561	0.2631	-0.059
Mof_C 	C 	0.867	0.4831	0.2283	-0.034
Mof_C 	C 	0.9731	0.4183	0.2671	0.093
Mof_C 	C 	0.0134	0.4272	0.3402	-0.111
Mof_C 	C 	0.2239	0.1608	0.2683	0.071
Mof_C 	C 	0.1068	0.0535	0.3099	-0.016
Mof_C 	C 	0.0198	0.9863	0.3169	0.125
Mof_C 	C 	0.0015	0.9626	0.2451	-0.244
Mof_C 	C 	0.913	0.8991	0.2588	0.176
Mof_C 	C 	0.8456	0.8595	0.3453	-0.206
Mof_C 	C 	0.8694	0.8855	0.4132	0.13
Mof_C 	C 	0.3635	0.3298	0.0666	0.08
Mof_C 	C 	0.3035	0.2576	0.1202	-0.15
Mof_C 	C 	0.2949	0.2363	0.2099	0.063
Mof_C 	C 	0.3506	0.2913	0.241	-0.145
Mof_C 	C 	0.4104	0.3635	0.1835	0.082
Mof_C 	C 	0.4352	0.3295	0.4571	0.076
Mof_C 	C 	0.3286	0.4618	0.4321	0.062
Mof_C 	C 	0.2957	0.5587	0.4082	0.059
Mof_C 	C 	0.4068	0.6104	0.3664	-0.129
Mof_C 	C 	0.3659	0.7014	0.3467	0.062
Mof_C 	C 	0.2138	0.7379	0.3706	-0.154
Mof_C 	C 	0.1102	0.6827	0.4133	0.087
Mof_C 	C 	0.6578	0.0986	0.5131	0.083
Mof_C 	C 	0.5365	0.1664	0.5045	-0.15
Mof_C 	C 	0.5581	0.2517	0.4644	0.071
Mof_C 	C 	0.7088	0.2641	0.4314	-0.143
Mof_C 	C 	0.8248	0.1926	0.4424	0.088
Mof_N 	N 	0.3358	0.5116	0.9315	-0.206
Mof_N 	N 	0.325	0.4832	0.8622	-0.087
Mof_N 	N 	0.1107	0.5805	0.8991	-0.129
Mof_N 	N 	0.3125	0.5849	0.0634	-0.227
Mof_N 	N 	0.0441	0.503	0.6246	-0.304
Mof_N 	N 	0.873	0.9318	0.6164	-0.195
Mof_N 	N 	0.7959	0.8613	0.6432	-0.089
Mof_N 	N 	0.8343	0.8905	0.7646	-0.121
Mof_N 	N 	0.0467	0.0518	0.5982	-0.245
Mof_N 	N 	0.5827	0.6164	0.904	-0.227
Mof_N 	N 	0.7831	0.5854	0.5257	-0.193
Mof_N 	N 	0.7145	0.6724	0.5092	-0.094
Mof_N 	N 	0.5317	0.5874	0.58	-0.124
Mof_N 	N 	0.852	0.4057	0.5676	-0.235
Mof_N 	N 	0.1959	0.8897	0.517	-0.23
Mof_N 	N 	0.6642	0.4884	0.0685	-0.215
Mof_N 	N 	0.675	0.5168	0.1378	-0.109
Mof_N 	N 	0.8893	0.4195	0.1009	-0.121
Mof_N 	N 	0.6875	0.4151	0.9366	-0.238
Mof_N 	N 	0.9559	0.497	0.3754	-0.178
Mof_N 	N 	0.127	0.0682	0.3836	-0.216
Mof_N 	N 	0.2041	0.1387	0.3568	-0.107
Mof_N 	N 	0.1657	0.1095	0.2354	-0.132
Mof_N 	N 	0.9533	0.9482	0.4018	-0.219
Mof_N 	N 	0.4173	0.3836	0.096	-0.246
Mof_N 	N 	0.2169	0.4146	0.4743	-0.204
Mof_N 	N 	0.2855	0.3276	0.4908	-0.103
Mof_N 	N 	0.4683	0.4126	0.42	-0.124
Mof_N 	N 	0.148	0.5943	0.4324	-0.25
Mof_N 	N 	0.8041	0.1103	0.483	-0.237
_end
