# CIF file generated by openbabel 3.1.0, see https://openbabel.org
data_I
_chemical_name_common 'image0'
_cell_length_a 10.2117
_cell_length_b 13.87
_cell_length_c 12.3107
_cell_angle_alpha 90
_cell_angle_beta 90.198
_cell_angle_gamma 90
_space_group_name_H-M_alt 'P 1'
_space_group_name_Hall 'P 1'
loop_
    _symmetry_equiv_pos_as_xyz
    x,y,z
loop_
    _atom_site_label
    _atom_site_type_symbol
    _atom_site_fract_x
    _atom_site_fract_y
    _atom_site_fract_z
    _atom_site_occupancy
    Cd1      Cd       0.14715    0.43769    0.92096    1.000
    C1       C        0.64760    0.29360    0.65540    1.000
    C2       C        0.52810    0.32250    0.69760    1.000
    H1       H        0.45130    0.30010    0.66570    1.000
    C3       C        0.52020    0.38480    0.78750    1.000
    C4       C        0.63810    0.41890    0.83240    1.000
    H2       H        0.63620    0.46020    0.89190    1.000
    C5       C        0.75610    0.39150    0.78890    1.000
    C6       C        0.76090    0.32940    0.70140    1.000
    H3       H        0.84160    0.31140    0.67320    1.000
    C7       C        0.65460    0.22130    0.56510    1.000
    C8       C        0.39110    0.41170    0.83210    1.000
    C9       C        0.88560    0.42440    0.84080    1.000
    O1       O        0.76190    0.19200    0.53410    1.000
    O2       O        0.54990    0.18910    0.52550    1.000
    O3       O        0.29320    0.37410    0.79190    1.000
    O4       O        0.38590    0.47020    0.90800    1.000
    O5       O        0.88220    0.47710    0.92110    1.000
    O6       O        0.99040    0.39460    0.79730    1.000
    Cd2      Cd       0.35285    0.93769    0.57904    1.000
    C10      C        0.85240    0.79360    0.84460    1.000
    C11      C        0.97190    0.82250    0.80240    1.000
    H4       H        0.04870    0.80010    0.83430    1.000
    C12      C        0.97980    0.88480    0.71250    1.000
    C13      C        0.86190    0.91890    0.66760    1.000
    H5       H        0.86380    0.96020    0.60810    1.000
    C14      C        0.74390    0.89150    0.71110    1.000
    C15      C        0.73910    0.82940    0.79860    1.000
    H6       H        0.65840    0.81140    0.82680    1.000
    C16      C        0.84540    0.72130    0.93490    1.000
    C17      C        0.10890    0.91170    0.66790    1.000
    C18      C        0.61440    0.92440    0.65920    1.000
    O7       O        0.73810    0.69200    0.96590    1.000
    O8       O        0.95010    0.68910    0.97450    1.000
    O9       O        0.20680    0.87410    0.70810    1.000
    O10      O        0.11410    0.97020    0.59200    1.000
    O11      O        0.61780    0.97710    0.57890    1.000
    O12      O        0.50960    0.89460    0.70270    1.000
    Cd3      Cd       0.85285    0.56231    0.07904    1.000
    C19      C        0.35240    0.70640    0.34460    1.000
    C20      C        0.47190    0.67750    0.30240    1.000
    H7       H        0.54870    0.69990    0.33430    1.000
    C21      C        0.47980    0.61520    0.21250    1.000
    C22      C        0.36190    0.58110    0.16760    1.000
    H8       H        0.36380    0.53980    0.10810    1.000
    C23      C        0.24390    0.60850    0.21110    1.000
    C24      C        0.23910    0.67060    0.29860    1.000
    H9       H        0.15840    0.68860    0.32680    1.000
    C25      C        0.34540    0.77870    0.43490    1.000
    C26      C        0.60890    0.58830    0.16790    1.000
    C27      C        0.11440    0.57560    0.15920    1.000
    O13      O        0.23810    0.80800    0.46590    1.000
    O14      O        0.45010    0.81090    0.47450    1.000
    O15      O        0.70680    0.62590    0.20810    1.000
    O16      O        0.61410    0.52980    0.09200    1.000
    O17      O        0.11780    0.52290    0.07890    1.000
    O18      O        0.00960    0.60540    0.20270    1.000
    Cd4      Cd       0.64715    0.06231    0.42096    1.000
    C28      C        0.14760    0.20640    0.15540    1.000
    C29      C        0.02810    0.17750    0.19760    1.000
    H10      H        0.95130    0.19990    0.16570    1.000
    C30      C        0.02020    0.11520    0.28750    1.000
    C31      C        0.13810    0.08110    0.33240    1.000
    H11      H        0.13620    0.03980    0.39190    1.000
    C32      C        0.25610    0.10850    0.28890    1.000
    C33      C        0.26090    0.17060    0.20140    1.000
    H12      H        0.34160    0.18860    0.17320    1.000
    C34      C        0.15460    0.27870    0.06510    1.000
    C35      C        0.89110    0.08830    0.33210    1.000
    C36      C        0.38560    0.07560    0.34080    1.000
    O19      O        0.26190    0.30800    0.03410    1.000
    O20      O        0.04990    0.31090    0.02550    1.000
    O21      O        0.79320    0.12590    0.29190    1.000
    O22      O        0.88590    0.02980    0.40800    1.000
    O23      O        0.38220    0.02290    0.42110    1.000
    O24      O        0.49040    0.10540    0.29730    1.000
