data_functionalizedCrystal
_audit_creation_method	'EQeq! by Chris Wilmer'
_symmetry_space_group_name_H-M	'P1'
_symmetry_Int_Tables_number	1
_symmetry_cell_setting	triclinic
loop_
_symmetry_equiv_pos_as_xyz
  x,y,z
_cell_length_a	42.559
_cell_length_b	42.559
_cell_length_c	42.559
_cell_angle_alpha	90
_cell_angle_beta	90
_cell_angle_gamma	90
loop_
_atom_site_label
_atom_site_type_symbol
_atom_site_fract_x
_atom_site_fract_y
_atom_site_fract_z
_atom_site_charge
Mof_C 	C 	0.38171	0.8648	0.94991	0.287
Mof_C 	C 	0.38794	0.86715	0.98421	-0.009
Mof_C 	C 	0.41473	0.8877	0.99428	-0.135
Mof_H 	H 	0.4322	0.8849	0.9803	0.016
Mof_H 	H 	0.4212	0.8819	0.0151	0.025
Mof_C 	C 	0.4044	0.92172	0.9938	0.023
Mof_C 	C 	0.3759	0.9335	0.9993	-0.029
Mof_H 	H 	0.3585	0.9212	0.0043	0.066
Mof_C 	C 	0.375	0.9683	0.9967	-0.006
Mof_H 	H 	0.3571	0.9804	0.9998	0.012
Mof_C 	C 	0.4028	0.9802	0.9893	-0.022
Mof_H 	H 	0.4067	0.0015	0.9865	-0.036
Mof_S 	S 	0.43055	0.95123	0.9854	-0.054
Mof_C 	C 	0.36982	0.85007	0.00348	-0.119
Mof_H 	H 	0.3554	0.8368	0.9938	0.099
Mof_C 	C 	0.36984	0.84969	0.03736	0.08
Mof_C 	C 	0.37629	0.87212	0.05945	-0.085
Mof_H 	H 	0.3845	0.8919	0.0551	0.052
Mof_C 	C 	0.35754	0.83201	0.0854	0.104
Mof_C 	C 	0.3424	0.79624	0.0417	-0.019
Mof_C 	C 	0.30717	0.80104	0.04071	0.103
Mof_C 	C 	0.29374	0.83087	0.04111	-0.159
Mof_H 	H 	0.3067	0.8485	0.0412	0.111
Mof_C 	C 	0.2617	0.83461	0.04139	0.102
Mof_H 	H 	0.2531	0.8547	0.0417	0.03
Mof_C 	C 	0.24216	0.80872	0.04117	-0.173
Mof_C 	C 	0.25536	0.77899	0.03988	0.093
Mof_H 	H 	0.2424	0.7614	0.0389	-0.019
Mof_C 	C 	0.28732	0.77529	0.04004	-0.167
Mof_H 	H 	0.2958	0.7552	0.0397	0.059
Mof_C 	C 	0.20775	0.81265	0.04316	0.434
Mof_C 	C 	0.34718	0.81112	0.11148	-0.093
Mof_H 	H 	0.3291	0.7993	0.1048	-0.08
Mof_H 	H 	0.3411	0.8238	0.1291	-0.03
Mof_C 	C 	0.3737	0.788	0.121	-0.445
Mof_H 	H 	0.3923	0.7996	0.1273	-0.348
Mof_H 	H 	0.3792	0.7747	0.1033	0.056
Mof_C 	C 	0.3617	0.7676	0.1487	-1.917
Mof_H 	H 	0.3411	0.7593	0.1436	0.519
Mof_H 	H 	0.3758	0.7499	0.1517	0.534
Mof_C 	C 	0.3597	0.7864	0.1794	0.69
Mof_H 	H 	0.3523	0.7731	0.196	-0.218
Mof_H 	H 	0.3802	0.7943	0.1847	1.264
Mof_H 	H 	0.3455	0.8037	0.1767	-0.715
Mof_N 	N 	0.36888	0.86119	0.0891	-0.253
Mof_N 	N 	0.35794	0.82414	0.05469	-0.139
Mof_O 	O 	0.40084	0.87671	0.9306	-0.385
Mof_O 	O 	0.35741	0.85118	0.93945	-0.388
Mof_O 	O 	0.19883	0.84183	0.04485	-0.521
Mof_H 	H 	0.1804	0.8474	0.0481	0.332
Mof_O 	O 	0.18897	0.79078	0.04289	-0.299
Mof_H 	H 	0.4333	0.8811	0.9833	0.048
Mof_H 	H 	0.4183	0.8843	0.0163	-0.005
Mof_C 	C 	0.4104	0.9224	0.9895	0.026
Mof_C 	C 	0.4299	0.9444	0.9788	-0.032
Mof_H 	H 	0.4504	0.9405	0.9725	0.049
Mof_C 	C 	0.4148	0.976	0.9783	-0.014
Mof_H 	H 	0.4248	0.9942	0.9714	-0.004
Mof_C 	C 	0.3853	0.9754	0.9889	-0.021
Mof_H 	H 	0.3723	0.9928	0.9905	-0.041
Mof_S 	S 	0.37477	0.93822	0.99897	-0.048
Mof_H 	H 	0.3391	0.792	0.1026	0.142
Mof_H 	H 	0.3301	0.8213	0.1222	0.074
Mof_C 	C 	0.3733	0.8014	0.1347	0.03
Mof_H 	H 	0.3848	0.8198	0.1416	-0.013
Mof_H 	H 	0.3879	0.7873	0.1245	0.596
Mof_C 	C 	0.3577	0.7848	0.1634	1.841
Mof_H 	H 	0.343	0.7991	0.1734	-0.044
Mof_H 	H 	0.346	0.7666	0.1563	-0.064
Mof_C 	C 	0.3826	0.7745	0.1873	-5.682
Mof_H 	H 	0.3726	0.7643	0.2048	1.751
Mof_H 	H 	0.397	0.7601	0.1775	1.719
Mof_H 	H 	0.3939	0.7926	0.1947	0.931
Mof_C 	C 	0.88171	0.3648	0.44991	0.287
Mof_C 	C 	0.88794	0.36715	0.48421	-0.009
Mof_C 	C 	0.91473	0.3877	0.49428	-0.135
Mof_H 	H 	0.9322	0.3849	0.4803	0.016
Mof_H 	H 	0.9212	0.3819	0.5151	0.025
Mof_C 	C 	0.9044	0.42172	0.4938	0.023
Mof_C 	C 	0.8759	0.4335	0.4993	-0.029
Mof_H 	H 	0.8585	0.4212	0.5043	0.066
Mof_C 	C 	0.875	0.4683	0.4967	-0.006
Mof_H 	H 	0.8571	0.4804	0.4998	0.012
Mof_C 	C 	0.9028	0.4802	0.4893	-0.022
Mof_H 	H 	0.9067	0.5015	0.4865	-0.037
Mof_S 	S 	0.93055	0.45123	0.4854	-0.055
Mof_C 	C 	0.86982	0.35007	0.50348	-0.12
Mof_H 	H 	0.8554	0.3368	0.4938	0.098
Mof_C 	C 	0.86984	0.34969	0.53736	0.079
Mof_C 	C 	0.87629	0.37212	0.55945	-0.086
Mof_H 	H 	0.8845	0.3919	0.5551	0.051
Mof_C 	C 	0.85754	0.33201	0.5854	0.103
Mof_C 	C 	0.8424	0.29624	0.5417	-0.02
Mof_C 	C 	0.80717	0.30104	0.54071	0.102
Mof_C 	C 	0.79374	0.33087	0.54111	-0.16
Mof_H 	H 	0.8067	0.3485	0.5412	0.11
Mof_C 	C 	0.7617	0.33461	0.54139	0.101
Mof_H 	H 	0.7531	0.3547	0.5417	0.029
Mof_C 	C 	0.74216	0.30872	0.54117	-0.175
Mof_C 	C 	0.75536	0.27899	0.53988	0.092
Mof_H 	H 	0.7424	0.2614	0.5389	-0.02
Mof_C 	C 	0.78732	0.27529	0.54004	-0.168
Mof_H 	H 	0.7958	0.2552	0.5397	0.058
Mof_C 	C 	0.70775	0.31265	0.54316	0.433
Mof_C 	C 	0.84718	0.31112	0.61148	-0.094
Mof_H 	H 	0.8291	0.2993	0.6048	-0.081
Mof_H 	H 	0.8411	0.3238	0.6291	-0.031
Mof_C 	C 	0.8737	0.288	0.621	-0.446
Mof_H 	H 	0.8923	0.2996	0.6273	-0.349
Mof_H 	H 	0.8792	0.2747	0.6033	0.055
Mof_C 	C 	0.8617	0.2676	0.6487	-1.918
Mof_H 	H 	0.8411	0.2593	0.6436	0.518
Mof_H 	H 	0.8758	0.2499	0.6517	0.533
Mof_C 	C 	0.8597	0.2864	0.6794	0.689
Mof_H 	H 	0.8523	0.2731	0.696	-0.219
Mof_H 	H 	0.8802	0.2943	0.6847	1.263
Mof_H 	H 	0.8455	0.3037	0.6767	-0.716
Mof_N 	N 	0.86888	0.36119	0.5891	-0.254
Mof_N 	N 	0.85794	0.32414	0.55469	-0.14
Mof_O 	O 	0.90084	0.37671	0.4306	-0.386
Mof_O 	O 	0.85741	0.35118	0.43945	-0.389
Mof_O 	O 	0.69883	0.34183	0.54485	-0.522
Mof_H 	H 	0.6804	0.3474	0.5481	0.331
Mof_O 	O 	0.68897	0.29078	0.54289	-0.3
Mof_H 	H 	0.9333	0.3811	0.4833	0.047
Mof_H 	H 	0.9183	0.3843	0.5163	-0.006
Mof_C 	C 	0.9104	0.4224	0.4895	0.025
Mof_C 	C 	0.9299	0.4444	0.4788	-0.033
Mof_H 	H 	0.9504	0.4405	0.4725	0.048
Mof_C 	C 	0.9148	0.476	0.4783	-0.015
Mof_H 	H 	0.9248	0.4942	0.4714	-0.005
Mof_C 	C 	0.8853	0.4754	0.4889	-0.022
Mof_H 	H 	0.8723	0.4928	0.4905	-0.042
Mof_S 	S 	0.87477	0.43822	0.49897	-0.049
Mof_H 	H 	0.8391	0.292	0.6026	0.141
Mof_H 	H 	0.8301	0.3213	0.6222	0.073
Mof_C 	C 	0.8733	0.3014	0.6347	0.029
Mof_H 	H 	0.8848	0.3198	0.6416	-0.014
Mof_H 	H 	0.8879	0.2873	0.6245	0.595
Mof_C 	C 	0.8577	0.2848	0.6634	1.84
Mof_H 	H 	0.843	0.2991	0.6734	-0.045
Mof_H 	H 	0.846	0.2666	0.6563	-0.065
Mof_C 	C 	0.8826	0.2745	0.6873	-5.683
Mof_H 	H 	0.8726	0.2643	0.7048	1.75
Mof_H 	H 	0.897	0.2601	0.6775	1.718
Mof_H 	H 	0.8939	0.2926	0.6947	0.93
Mof_C 	C 	0.11829	0.1352	0.44991	0.286
Mof_C 	C 	0.11206	0.13285	0.48421	-0.01
Mof_C 	C 	0.08527	0.1123	0.49428	-0.136
Mof_H 	H 	0.0678	0.1151	0.4803	0.015
Mof_H 	H 	0.0788	0.1181	0.5151	0.024
Mof_C 	C 	0.0956	0.07828	0.4938	0.022
Mof_C 	C 	0.1241	0.0665	0.4993	-0.03
Mof_H 	H 	0.1415	0.0788	0.5043	0.065
Mof_C 	C 	0.125	0.0317	0.4967	-0.007
Mof_H 	H 	0.1429	0.0196	0.4998	0.011
Mof_C 	C 	0.0972	0.0198	0.4893	-0.023
Mof_H 	H 	0.0933	0.9985	0.4865	-0.037
Mof_S 	S 	0.06945	0.04877	0.4854	-0.055
Mof_C 	C 	0.13018	0.14993	0.50348	-0.12
Mof_H 	H 	0.1446	0.1632	0.4938	0.098
Mof_C 	C 	0.13016	0.15031	0.53736	0.079
Mof_C 	C 	0.12371	0.12788	0.55945	-0.086
Mof_H 	H 	0.1155	0.1081	0.5551	0.051
Mof_C 	C 	0.14246	0.16799	0.5854	0.103
Mof_C 	C 	0.1576	0.20376	0.5417	-0.02
Mof_C 	C 	0.19283	0.19896	0.54071	0.102
Mof_C 	C 	0.20626	0.16913	0.54111	-0.16
Mof_H 	H 	0.1933	0.1515	0.5412	0.11
Mof_C 	C 	0.2383	0.16539	0.54139	0.101
Mof_H 	H 	0.2469	0.1453	0.5417	0.029
Mof_C 	C 	0.25784	0.19128	0.54117	-0.175
Mof_C 	C 	0.24464	0.22101	0.53988	0.092
Mof_H 	H 	0.2576	0.2386	0.5389	-0.02
Mof_C 	C 	0.21268	0.22471	0.54004	-0.168
Mof_H 	H 	0.2042	0.2448	0.5397	0.058
Mof_C 	C 	0.29225	0.18735	0.54316	0.433
Mof_C 	C 	0.15282	0.18888	0.61148	-0.094
Mof_H 	H 	0.1709	0.2007	0.6048	-0.081
Mof_H 	H 	0.1589	0.1762	0.6291	-0.031
Mof_C 	C 	0.1263	0.212	0.621	-0.446
Mof_H 	H 	0.1077	0.2004	0.6273	-0.349
Mof_H 	H 	0.1208	0.2253	0.6033	0.055
Mof_C 	C 	0.1383	0.2324	0.6487	-1.918
Mof_H 	H 	0.1589	0.2407	0.6436	0.518
Mof_H 	H 	0.1242	0.2501	0.6517	0.533
Mof_C 	C 	0.1403	0.2136	0.6794	0.689
Mof_H 	H 	0.1477	0.2269	0.696	-0.219
Mof_H 	H 	0.1198	0.2057	0.6847	1.263
Mof_H 	H 	0.1545	0.1963	0.6767	-0.716
Mof_N 	N 	0.13112	0.13881	0.5891	-0.254
Mof_N 	N 	0.14206	0.17586	0.55469	-0.14
Mof_O 	O 	0.09916	0.12329	0.4306	-0.386
Mof_O 	O 	0.14259	0.14882	0.43945	-0.389
Mof_O 	O 	0.30117	0.15817	0.54485	-0.522
Mof_H 	H 	0.3196	0.1526	0.5481	0.331
Mof_O 	O 	0.31103	0.20922	0.54289	-0.3
Mof_H 	H 	0.0667	0.1189	0.4833	0.047
Mof_H 	H 	0.0817	0.1157	0.5163	-0.006
Mof_C 	C 	0.0896	0.0776	0.4895	0.025
Mof_C 	C 	0.0701	0.0556	0.4788	-0.033
Mof_H 	H 	0.0496	0.0595	0.4725	0.048
Mof_C 	C 	0.0852	0.024	0.4783	-0.015
Mof_H 	H 	0.0752	0.0058	0.4714	-0.005
Mof_C 	C 	0.1147	0.0246	0.4889	-0.022
Mof_H 	H 	0.1277	0.0072	0.4905	-0.042
Mof_S 	S 	0.12523	0.06178	0.49897	-0.049
Mof_H 	H 	0.1609	0.208	0.6026	0.141
Mof_H 	H 	0.1699	0.1787	0.6222	0.073
Mof_C 	C 	0.1267	0.1986	0.6347	0.029
Mof_H 	H 	0.1152	0.1802	0.6416	-0.014
Mof_H 	H 	0.1121	0.2127	0.6245	0.595
Mof_C 	C 	0.1423	0.2152	0.6634	1.84
Mof_H 	H 	0.157	0.2009	0.6734	-0.045
Mof_H 	H 	0.154	0.2334	0.6563	-0.065
Mof_C 	C 	0.1174	0.2255	0.6873	-5.683
Mof_H 	H 	0.1274	0.2357	0.7048	1.75
Mof_H 	H 	0.103	0.2399	0.6775	1.718
Mof_H 	H 	0.1061	0.2074	0.6947	0.93
Mof_C 	C 	0.61829	0.6352	0.94991	0.286
Mof_C 	C 	0.61206	0.63285	0.98421	-0.01
Mof_C 	C 	0.58527	0.6123	0.99428	-0.136
Mof_H 	H 	0.5678	0.6151	0.9803	0.015
Mof_H 	H 	0.5788	0.6181	0.0151	0.024
Mof_C 	C 	0.5956	0.57828	0.9938	0.022
Mof_C 	C 	0.6241	0.5665	0.9993	-0.03
Mof_H 	H 	0.6415	0.5788	0.0043	0.065
Mof_C 	C 	0.625	0.5317	0.9967	-0.007
Mof_H 	H 	0.6429	0.5196	0.9998	0.011
Mof_C 	C 	0.5972	0.5198	0.9893	-0.023
Mof_H 	H 	0.5933	0.4985	0.9865	-0.037
Mof_S 	S 	0.56945	0.54877	0.9854	-0.055
Mof_C 	C 	0.63018	0.64993	0.00348	-0.12
Mof_H 	H 	0.6446	0.6632	0.9938	0.098
Mof_C 	C 	0.63016	0.65031	0.03736	0.079
Mof_C 	C 	0.62371	0.62788	0.05945	-0.086
Mof_H 	H 	0.6155	0.6081	0.0551	0.051
Mof_C 	C 	0.64246	0.66799	0.0854	0.103
Mof_C 	C 	0.6576	0.70376	0.0417	-0.02
Mof_C 	C 	0.69283	0.69896	0.04071	0.102
Mof_C 	C 	0.70626	0.66913	0.04111	-0.16
Mof_H 	H 	0.6933	0.6515	0.0412	0.11
Mof_C 	C 	0.7383	0.66539	0.04139	0.101
Mof_H 	H 	0.7469	0.6453	0.0417	0.029
Mof_C 	C 	0.75784	0.69128	0.04117	-0.174
Mof_C 	C 	0.74464	0.72101	0.03988	0.092
Mof_H 	H 	0.7576	0.7386	0.0389	-0.02
Mof_C 	C 	0.71268	0.72471	0.04004	-0.168
Mof_H 	H 	0.7042	0.7448	0.0397	0.058
Mof_C 	C 	0.79225	0.68735	0.04316	0.433
Mof_C 	C 	0.65282	0.68888	0.11148	-0.094
Mof_H 	H 	0.6709	0.7007	0.1048	-0.081
Mof_H 	H 	0.6589	0.6762	0.1291	-0.031
Mof_C 	C 	0.6263	0.712	0.121	-0.446
Mof_H 	H 	0.6077	0.7004	0.1273	-0.349
Mof_H 	H 	0.6208	0.7253	0.1033	0.055
Mof_C 	C 	0.6383	0.7324	0.1487	-1.918
Mof_H 	H 	0.6589	0.7407	0.1436	0.518
Mof_H 	H 	0.6242	0.7501	0.1517	0.533
Mof_C 	C 	0.6403	0.7136	0.1794	0.689
Mof_H 	H 	0.6477	0.7269	0.196	-0.219
Mof_H 	H 	0.6198	0.7057	0.1847	1.263
Mof_H 	H 	0.6545	0.6963	0.1767	-0.716
Mof_N 	N 	0.63112	0.63881	0.0891	-0.254
Mof_N 	N 	0.64206	0.67586	0.05469	-0.14
Mof_O 	O 	0.59916	0.62329	0.9306	-0.386
Mof_O 	O 	0.64259	0.64882	0.93945	-0.389
Mof_O 	O 	0.80117	0.65817	0.04485	-0.522
Mof_H 	H 	0.8196	0.6526	0.0481	0.331
Mof_O 	O 	0.81103	0.70922	0.04289	-0.3
Mof_H 	H 	0.5667	0.6189	0.9833	0.047
Mof_H 	H 	0.5817	0.6157	0.0163	-0.006
Mof_C 	C 	0.5896	0.5776	0.9895	0.025
Mof_C 	C 	0.5701	0.5556	0.9788	-0.033
Mof_H 	H 	0.5496	0.5595	0.9725	0.048
Mof_C 	C 	0.5852	0.524	0.9783	-0.015
Mof_H 	H 	0.5752	0.5058	0.9714	-0.005
Mof_C 	C 	0.6147	0.5246	0.9889	-0.022
Mof_H 	H 	0.6277	0.5072	0.9905	-0.042
Mof_S 	S 	0.62523	0.56178	0.99897	-0.049
Mof_H 	H 	0.6609	0.708	0.1026	0.141
Mof_H 	H 	0.6699	0.6787	0.1222	0.073
Mof_C 	C 	0.6267	0.6986	0.1347	0.029
Mof_H 	H 	0.6152	0.6802	0.1416	-0.014
Mof_H 	H 	0.6121	0.7127	0.1245	0.595
Mof_C 	C 	0.6423	0.7152	0.1634	1.84
Mof_H 	H 	0.657	0.7009	0.1734	-0.045
Mof_H 	H 	0.654	0.7334	0.1563	-0.065
Mof_C 	C 	0.6174	0.7255	0.1873	-5.683
Mof_H 	H 	0.6274	0.7357	0.2048	1.75
Mof_H 	H 	0.603	0.7399	0.1775	1.718
Mof_H 	H 	0.6061	0.7074	0.1947	0.93
Mof_C 	C 	0.61829	0.3648	0.55009	0.286
Mof_C 	C 	0.61206	0.36715	0.51579	-0.01
Mof_C 	C 	0.58527	0.3877	0.50572	-0.136
Mof_H 	H 	0.5678	0.3849	0.5197	0.015
Mof_H 	H 	0.5788	0.3819	0.4849	0.024
Mof_C 	C 	0.5956	0.42172	0.5062	0.022
Mof_C 	C 	0.6241	0.4335	0.5007	-0.03
Mof_H 	H 	0.6415	0.4212	0.4957	0.065
Mof_C 	C 	0.625	0.4683	0.5033	-0.007
Mof_H 	H 	0.6429	0.4804	0.5002	0.011
Mof_C 	C 	0.5972	0.4802	0.5107	-0.023
Mof_H 	H 	0.5933	0.5015	0.5135	-0.037
Mof_S 	S 	0.56945	0.45123	0.5146	-0.055
Mof_C 	C 	0.63018	0.35007	0.49652	-0.12
Mof_H 	H 	0.6446	0.3368	0.5062	0.098
Mof_C 	C 	0.63016	0.34969	0.46264	0.079
Mof_C 	C 	0.62371	0.37212	0.44055	-0.086
Mof_H 	H 	0.6155	0.3919	0.4449	0.051
Mof_C 	C 	0.64246	0.33201	0.4146	0.103
Mof_C 	C 	0.6576	0.29624	0.4583	-0.02
Mof_C 	C 	0.69283	0.30104	0.45929	0.102
Mof_C 	C 	0.70626	0.33087	0.45889	-0.16
Mof_H 	H 	0.6933	0.3485	0.4588	0.11
Mof_C 	C 	0.7383	0.33461	0.45861	0.101
Mof_H 	H 	0.7469	0.3547	0.4583	0.029
Mof_C 	C 	0.75784	0.30872	0.45883	-0.175
Mof_C 	C 	0.74464	0.27899	0.46012	0.092
Mof_H 	H 	0.7576	0.2614	0.4611	-0.02
Mof_C 	C 	0.71268	0.27529	0.45996	-0.168
Mof_H 	H 	0.7042	0.2552	0.4603	0.058
Mof_C 	C 	0.79225	0.31265	0.45684	0.433
Mof_C 	C 	0.65282	0.31112	0.38852	-0.094
Mof_H 	H 	0.6709	0.2993	0.3952	-0.081
Mof_H 	H 	0.6589	0.3238	0.3709	-0.031
Mof_C 	C 	0.6263	0.288	0.379	-0.446
Mof_H 	H 	0.6077	0.2996	0.3727	-0.349
Mof_H 	H 	0.6208	0.2747	0.3967	0.055
Mof_C 	C 	0.6383	0.2676	0.3513	-1.918
Mof_H 	H 	0.6589	0.2593	0.3564	0.518
Mof_H 	H 	0.6242	0.2499	0.3483	0.533
Mof_C 	C 	0.6403	0.2864	0.3206	0.689
Mof_H 	H 	0.6477	0.2731	0.304	-0.219
Mof_H 	H 	0.6198	0.2943	0.3153	1.263
Mof_H 	H 	0.6545	0.3037	0.3233	-0.716
Mof_N 	N 	0.63112	0.36119	0.4109	-0.254
Mof_N 	N 	0.64206	0.32414	0.44531	-0.14
Mof_O 	O 	0.59916	0.37671	0.5694	-0.386
Mof_O 	O 	0.64259	0.35118	0.56055	-0.389
Mof_O 	O 	0.80117	0.34183	0.45515	-0.522
Mof_H 	H 	0.8196	0.3474	0.4519	0.331
Mof_O 	O 	0.81103	0.29078	0.45711	-0.3
Mof_H 	H 	0.5667	0.3811	0.5167	0.047
Mof_H 	H 	0.5817	0.3843	0.4837	-0.006
Mof_C 	C 	0.5896	0.4224	0.5105	0.025
Mof_C 	C 	0.5701	0.4444	0.5212	-0.033
Mof_H 	H 	0.5496	0.4405	0.5275	0.048
Mof_C 	C 	0.5852	0.476	0.5217	-0.015
Mof_H 	H 	0.5752	0.4942	0.5286	-0.005
Mof_C 	C 	0.6147	0.4754	0.5111	-0.022
Mof_H 	H 	0.6277	0.4928	0.5095	-0.042
Mof_S 	S 	0.62523	0.43822	0.50103	-0.049
Mof_H 	H 	0.6609	0.292	0.3974	0.141
Mof_H 	H 	0.6699	0.3213	0.3778	0.073
Mof_C 	C 	0.6267	0.3014	0.3653	0.029
Mof_H 	H 	0.6152	0.3198	0.3584	-0.014
Mof_H 	H 	0.6121	0.2873	0.3755	0.595
Mof_C 	C 	0.6423	0.2848	0.3366	1.84
Mof_H 	H 	0.657	0.2991	0.3266	-0.045
Mof_H 	H 	0.654	0.2666	0.3437	-0.065
Mof_C 	C 	0.6174	0.2745	0.3127	-5.683
Mof_H 	H 	0.6274	0.2643	0.2952	1.75
Mof_H 	H 	0.603	0.2601	0.3225	1.718
Mof_H 	H 	0.6061	0.2926	0.3053	0.93
Mof_C 	C 	0.11829	0.8648	0.05009	0.286
Mof_C 	C 	0.11206	0.86715	0.01579	-0.01
Mof_C 	C 	0.08527	0.8877	0.00572	-0.136
Mof_H 	H 	0.0678	0.8849	0.0197	0.015
Mof_H 	H 	0.0788	0.8819	0.9849	0.024
Mof_C 	C 	0.0956	0.92172	0.0062	0.022
Mof_C 	C 	0.1241	0.9335	0.0007	-0.03
Mof_H 	H 	0.1415	0.9212	0.9957	0.065
Mof_C 	C 	0.125	0.9683	0.0033	-0.007
Mof_H 	H 	0.1429	0.9804	0.0002	0.011
Mof_C 	C 	0.0972	0.9802	0.0107	-0.023
Mof_H 	H 	0.0933	0.0015	0.0135	-0.037
Mof_S 	S 	0.06945	0.95123	0.0146	-0.055
Mof_C 	C 	0.13018	0.85007	0.99652	-0.12
Mof_H 	H 	0.1446	0.8368	0.0062	0.098
Mof_C 	C 	0.13016	0.84969	0.96264	0.079
Mof_C 	C 	0.12371	0.87212	0.94055	-0.086
Mof_H 	H 	0.1155	0.8919	0.9449	0.051
Mof_C 	C 	0.14246	0.83201	0.9146	0.103
Mof_C 	C 	0.1576	0.79624	0.9583	-0.02
Mof_C 	C 	0.19283	0.80104	0.95929	0.102
Mof_C 	C 	0.20626	0.83087	0.95889	-0.16
Mof_H 	H 	0.1933	0.8485	0.9588	0.11
Mof_C 	C 	0.2383	0.83461	0.95861	0.101
Mof_H 	H 	0.2469	0.8547	0.9583	0.029
Mof_C 	C 	0.25784	0.80872	0.95883	-0.174
Mof_C 	C 	0.24464	0.77899	0.96012	0.092
Mof_H 	H 	0.2576	0.7614	0.9611	-0.02
Mof_C 	C 	0.21268	0.77529	0.95996	-0.168
Mof_H 	H 	0.2042	0.7552	0.9603	0.058
Mof_C 	C 	0.29225	0.81265	0.95684	0.433
Mof_C 	C 	0.15282	0.81112	0.88852	-0.094
Mof_H 	H 	0.1709	0.7993	0.8952	-0.081
Mof_H 	H 	0.1589	0.8238	0.8709	-0.031
Mof_C 	C 	0.1263	0.788	0.879	-0.446
Mof_H 	H 	0.1077	0.7996	0.8727	-0.349
Mof_H 	H 	0.1208	0.7747	0.8967	0.055
Mof_C 	C 	0.1383	0.7676	0.8513	-1.918
Mof_H 	H 	0.1589	0.7593	0.8564	0.518
Mof_H 	H 	0.1242	0.7499	0.8483	0.533
Mof_C 	C 	0.1403	0.7864	0.8206	0.689
Mof_H 	H 	0.1477	0.7731	0.804	-0.219
Mof_H 	H 	0.1198	0.7943	0.8153	1.263
Mof_H 	H 	0.1545	0.8037	0.8233	-0.716
Mof_N 	N 	0.13112	0.86119	0.9109	-0.254
Mof_N 	N 	0.14206	0.82414	0.94531	-0.14
Mof_O 	O 	0.09916	0.87671	0.0694	-0.386
Mof_O 	O 	0.14259	0.85118	0.06055	-0.389
Mof_O 	O 	0.30117	0.84183	0.95515	-0.522
Mof_H 	H 	0.3196	0.8474	0.9519	0.331
Mof_O 	O 	0.31103	0.79078	0.95711	-0.3
Mof_H 	H 	0.0667	0.8811	0.0167	0.047
Mof_H 	H 	0.0817	0.8843	0.9837	-0.006
Mof_C 	C 	0.0896	0.9224	0.0105	0.025
Mof_C 	C 	0.0701	0.9444	0.0212	-0.033
Mof_H 	H 	0.0496	0.9405	0.0275	0.048
Mof_C 	C 	0.0852	0.976	0.0217	-0.015
Mof_H 	H 	0.0752	0.9942	0.0286	-0.005
Mof_C 	C 	0.1147	0.9754	0.0111	-0.022
Mof_H 	H 	0.1277	0.9928	0.0095	-0.042
Mof_S 	S 	0.12523	0.93822	0.00103	-0.049
Mof_H 	H 	0.1609	0.792	0.8974	0.141
Mof_H 	H 	0.1699	0.8213	0.8778	0.073
Mof_C 	C 	0.1267	0.8014	0.8653	0.029
Mof_H 	H 	0.1152	0.8198	0.8584	-0.014
Mof_H 	H 	0.1121	0.7873	0.8755	0.595
Mof_C 	C 	0.1423	0.7848	0.8366	1.84
Mof_H 	H 	0.157	0.7991	0.8266	-0.045
Mof_H 	H 	0.154	0.7666	0.8437	-0.065
Mof_C 	C 	0.1174	0.7745	0.8127	-5.683
Mof_H 	H 	0.1274	0.7643	0.7952	1.75
Mof_H 	H 	0.103	0.7601	0.8225	1.718
Mof_H 	H 	0.1061	0.7926	0.8053	0.93
Mof_C 	C 	0.88171	0.6352	0.05009	0.286
Mof_C 	C 	0.88794	0.63285	0.01579	-0.01
Mof_C 	C 	0.91473	0.6123	0.00572	-0.136
Mof_H 	H 	0.9322	0.6151	0.0197	0.015
Mof_H 	H 	0.9212	0.6181	0.9849	0.024
Mof_C 	C 	0.9044	0.57828	0.0062	0.022
Mof_C 	C 	0.8759	0.5665	0.0007	-0.03
Mof_H 	H 	0.8585	0.5788	0.9957	0.065
Mof_C 	C 	0.875	0.5317	0.0033	-0.007
Mof_H 	H 	0.8571	0.5196	0.0002	0.011
Mof_C 	C 	0.9028	0.5198	0.0107	-0.023
Mof_H 	H 	0.9067	0.4985	0.0135	-0.037
Mof_S 	S 	0.93055	0.54877	0.0146	-0.055
Mof_C 	C 	0.86982	0.64993	0.99652	-0.12
Mof_H 	H 	0.8554	0.6632	0.0062	0.098
Mof_C 	C 	0.86984	0.65031	0.96264	0.079
Mof_C 	C 	0.87629	0.62788	0.94055	-0.086
Mof_H 	H 	0.8845	0.6081	0.9449	0.051
Mof_C 	C 	0.85754	0.66799	0.9146	0.103
Mof_C 	C 	0.8424	0.70376	0.9583	-0.02
Mof_C 	C 	0.80717	0.69896	0.95929	0.102
Mof_C 	C 	0.79374	0.66913	0.95889	-0.16
Mof_H 	H 	0.8067	0.6515	0.9588	0.11
Mof_C 	C 	0.7617	0.66539	0.95861	0.101
Mof_H 	H 	0.7531	0.6453	0.9583	0.029
Mof_C 	C 	0.74216	0.69128	0.95883	-0.174
Mof_C 	C 	0.75536	0.72101	0.96012	0.092
Mof_H 	H 	0.7424	0.7386	0.9611	-0.02
Mof_C 	C 	0.78732	0.72471	0.95996	-0.168
Mof_H 	H 	0.7958	0.7448	0.9603	0.058
Mof_C 	C 	0.70775	0.68735	0.95684	0.433
Mof_C 	C 	0.84718	0.68888	0.88852	-0.094
Mof_H 	H 	0.8291	0.7007	0.8952	-0.081
Mof_H 	H 	0.8411	0.6762	0.8709	-0.031
Mof_C 	C 	0.8737	0.712	0.879	-0.446
Mof_H 	H 	0.8923	0.7004	0.8727	-0.349
Mof_H 	H 	0.8792	0.7253	0.8967	0.055
Mof_C 	C 	0.8617	0.7324	0.8513	-1.918
Mof_H 	H 	0.8411	0.7407	0.8564	0.518
Mof_H 	H 	0.8758	0.7501	0.8483	0.533
Mof_C 	C 	0.8597	0.7136	0.8206	0.689
Mof_H 	H 	0.8523	0.7269	0.804	-0.219
Mof_H 	H 	0.8802	0.7057	0.8153	1.263
Mof_H 	H 	0.8455	0.6963	0.8233	-0.716
Mof_N 	N 	0.86888	0.63881	0.9109	-0.254
Mof_N 	N 	0.85794	0.67586	0.94531	-0.14
Mof_O 	O 	0.90084	0.62329	0.0694	-0.386
Mof_O 	O 	0.85741	0.64882	0.06055	-0.389
Mof_O 	O 	0.69883	0.65817	0.95515	-0.522
Mof_H 	H 	0.6804	0.6526	0.9519	0.331
Mof_O 	O 	0.68897	0.70922	0.95711	-0.3
Mof_H 	H 	0.9333	0.6189	0.0167	0.047
Mof_H 	H 	0.9183	0.6157	0.9837	-0.006
Mof_C 	C 	0.9104	0.5776	0.0105	0.025
Mof_C 	C 	0.9299	0.5556	0.0212	-0.033
Mof_H 	H 	0.9504	0.5595	0.0275	0.048
Mof_C 	C 	0.9148	0.524	0.0217	-0.015
Mof_H 	H 	0.9248	0.5058	0.0286	-0.005
Mof_C 	C 	0.8853	0.5246	0.0111	-0.022
Mof_H 	H 	0.8723	0.5072	0.0095	-0.042
Mof_S 	S 	0.87477	0.56178	0.00103	-0.049
Mof_H 	H 	0.8391	0.708	0.8974	0.141
Mof_H 	H 	0.8301	0.6787	0.8778	0.073
Mof_C 	C 	0.8733	0.6986	0.8653	0.029
Mof_H 	H 	0.8848	0.6802	0.8584	-0.014
Mof_H 	H 	0.8879	0.7127	0.8755	0.595
Mof_C 	C 	0.8577	0.7152	0.8366	1.84
Mof_H 	H 	0.843	0.7009	0.8266	-0.045
Mof_H 	H 	0.846	0.7334	0.8437	-0.065
Mof_C 	C 	0.8826	0.7255	0.8127	-5.683
Mof_H 	H 	0.8726	0.7357	0.7952	1.75
Mof_H 	H 	0.897	0.7399	0.8225	1.718
Mof_H 	H 	0.8939	0.7074	0.8053	0.93
Mof_C 	C 	0.38171	0.1352	0.55009	0.286
Mof_C 	C 	0.38794	0.13285	0.51579	-0.01
Mof_C 	C 	0.41473	0.1123	0.50572	-0.136
Mof_H 	H 	0.4322	0.1151	0.5197	0.015
Mof_H 	H 	0.4212	0.1181	0.4849	0.024
Mof_C 	C 	0.4044	0.07828	0.5062	0.022
Mof_C 	C 	0.3759	0.0665	0.5007	-0.03
Mof_H 	H 	0.3585	0.0788	0.4957	0.065
Mof_C 	C 	0.375	0.0317	0.5033	-0.007
Mof_H 	H 	0.3571	0.0196	0.5002	0.011
Mof_C 	C 	0.4028	0.0198	0.5107	-0.023
Mof_H 	H 	0.4067	0.9985	0.5135	-0.037
Mof_S 	S 	0.43055	0.04877	0.5146	-0.055
Mof_C 	C 	0.36982	0.14993	0.49652	-0.12
Mof_H 	H 	0.3554	0.1632	0.5062	0.098
Mof_C 	C 	0.36984	0.15031	0.46264	0.079
Mof_C 	C 	0.37629	0.12788	0.44055	-0.086
Mof_H 	H 	0.3845	0.1081	0.4449	0.051
Mof_C 	C 	0.35754	0.16799	0.4146	0.103
Mof_C 	C 	0.3424	0.20376	0.4583	-0.02
Mof_C 	C 	0.30717	0.19896	0.45929	0.102
Mof_C 	C 	0.29374	0.16913	0.45889	-0.16
Mof_H 	H 	0.3067	0.1515	0.4588	0.11
Mof_C 	C 	0.2617	0.16539	0.45861	0.101
Mof_H 	H 	0.2531	0.1453	0.4583	0.029
Mof_C 	C 	0.24216	0.19128	0.45883	-0.175
Mof_C 	C 	0.25536	0.22101	0.46012	0.092
Mof_H 	H 	0.2424	0.2386	0.4611	-0.02
Mof_C 	C 	0.28732	0.22471	0.45996	-0.168
Mof_H 	H 	0.2958	0.2448	0.4603	0.058
Mof_C 	C 	0.20775	0.18735	0.45684	0.433
Mof_C 	C 	0.34718	0.18888	0.38852	-0.094
Mof_H 	H 	0.3291	0.2007	0.3952	-0.081
Mof_H 	H 	0.3411	0.1762	0.3709	-0.031
Mof_C 	C 	0.3737	0.212	0.379	-0.446
Mof_H 	H 	0.3923	0.2004	0.3727	-0.349
Mof_H 	H 	0.3792	0.2253	0.3967	0.055
Mof_C 	C 	0.3617	0.2324	0.3513	-1.918
Mof_H 	H 	0.3411	0.2407	0.3564	0.518
Mof_H 	H 	0.3758	0.2501	0.3483	0.533
Mof_C 	C 	0.3597	0.2136	0.3206	0.689
Mof_H 	H 	0.3523	0.2269	0.304	-0.219
Mof_H 	H 	0.3802	0.2057	0.3153	1.263
Mof_H 	H 	0.3455	0.1963	0.3233	-0.716
Mof_N 	N 	0.36888	0.13881	0.4109	-0.254
Mof_N 	N 	0.35794	0.17586	0.44531	-0.14
Mof_O 	O 	0.40084	0.12329	0.5694	-0.386
Mof_O 	O 	0.35741	0.14882	0.56055	-0.389
Mof_O 	O 	0.19883	0.15817	0.45515	-0.522
Mof_H 	H 	0.1804	0.1526	0.4519	0.331
Mof_O 	O 	0.18897	0.20922	0.45711	-0.3
Mof_H 	H 	0.4333	0.1189	0.5167	0.047
Mof_H 	H 	0.4183	0.1157	0.4837	-0.006
Mof_C 	C 	0.4104	0.0776	0.5105	0.025
Mof_C 	C 	0.4299	0.0556	0.5212	-0.033
Mof_H 	H 	0.4504	0.0595	0.5275	0.048
Mof_C 	C 	0.4148	0.024	0.5217	-0.015
Mof_H 	H 	0.4248	0.0058	0.5286	-0.005
Mof_C 	C 	0.3853	0.0246	0.5111	-0.022
Mof_H 	H 	0.3723	0.0072	0.5095	-0.042
Mof_S 	S 	0.37477	0.06178	0.50103	-0.049
Mof_H 	H 	0.3391	0.208	0.3974	0.141
Mof_H 	H 	0.3301	0.1787	0.3778	0.073
Mof_C 	C 	0.3733	0.1986	0.3653	0.029
Mof_H 	H 	0.3848	0.1802	0.3584	-0.014
Mof_H 	H 	0.3879	0.2127	0.3755	0.595
Mof_C 	C 	0.3577	0.2152	0.3366	1.84
Mof_H 	H 	0.343	0.2009	0.3266	-0.045
Mof_H 	H 	0.346	0.2334	0.3437	-0.065
Mof_C 	C 	0.3826	0.2255	0.3127	-5.683
Mof_H 	H 	0.3726	0.2357	0.2952	1.75
Mof_H 	H 	0.397	0.2399	0.3225	1.718
Mof_H 	H 	0.3939	0.2074	0.3053	0.93
Mof_C 	C 	0.94991	0.38171	0.8648	0.286
Mof_C 	C 	0.98421	0.38794	0.86715	-0.01
Mof_C 	C 	0.99428	0.41473	0.8877	-0.136
Mof_H 	H 	0.9803	0.4322	0.8849	0.015
Mof_H 	H 	0.0151	0.4212	0.8819	0.024
Mof_C 	C 	0.9938	0.4044	0.92172	0.022
Mof_C 	C 	0.9993	0.3759	0.9335	-0.03
Mof_H 	H 	0.0043	0.3585	0.9212	0.065
Mof_C 	C 	0.9967	0.375	0.9683	-0.007
Mof_H 	H 	0.9998	0.3571	0.9804	0.011
Mof_C 	C 	0.9893	0.4028	0.9802	-0.023
Mof_H 	H 	0.9865	0.4067	0.0015	-0.037
Mof_S 	S 	0.9854	0.43055	0.95123	-0.055
Mof_C 	C 	0.00348	0.36982	0.85007	-0.12
Mof_H 	H 	0.9938	0.3554	0.8368	0.098
Mof_C 	C 	0.03736	0.36984	0.84969	0.079
Mof_C 	C 	0.05945	0.37629	0.87212	-0.086
Mof_H 	H 	0.0551	0.3845	0.8919	0.051
Mof_C 	C 	0.0854	0.35754	0.83201	0.103
Mof_C 	C 	0.0417	0.3424	0.79624	-0.02
Mof_C 	C 	0.04071	0.30717	0.80104	0.102
Mof_C 	C 	0.04111	0.29374	0.83087	-0.16
Mof_H 	H 	0.0412	0.3067	0.8485	0.11
Mof_C 	C 	0.04139	0.2617	0.83461	0.101
Mof_H 	H 	0.0417	0.2531	0.8547	0.029
Mof_C 	C 	0.04117	0.24216	0.80872	-0.174
Mof_C 	C 	0.03988	0.25536	0.77899	0.092
Mof_H 	H 	0.0389	0.2424	0.7614	-0.02
Mof_C 	C 	0.04004	0.28732	0.77529	-0.168
Mof_H 	H 	0.0397	0.2958	0.7552	0.058
Mof_C 	C 	0.04316	0.20775	0.81265	0.433
Mof_C 	C 	0.11148	0.34718	0.81112	-0.094
Mof_H 	H 	0.1048	0.3291	0.7993	-0.081
Mof_H 	H 	0.1291	0.3411	0.8238	-0.031
Mof_C 	C 	0.121	0.3737	0.788	-0.446
Mof_H 	H 	0.1273	0.3923	0.7996	-0.349
Mof_H 	H 	0.1033	0.3792	0.7747	0.055
Mof_C 	C 	0.1487	0.3617	0.7676	-1.918
Mof_H 	H 	0.1436	0.3411	0.7593	0.518
Mof_H 	H 	0.1517	0.3758	0.7499	0.533
Mof_C 	C 	0.1794	0.3597	0.7864	0.689
Mof_H 	H 	0.196	0.3523	0.7731	-0.219
Mof_H 	H 	0.1847	0.3802	0.7943	1.263
Mof_H 	H 	0.1767	0.3455	0.8037	-0.716
Mof_N 	N 	0.0891	0.36888	0.86119	-0.254
Mof_N 	N 	0.05469	0.35794	0.82414	-0.14
Mof_O 	O 	0.9306	0.40084	0.87671	-0.386
Mof_O 	O 	0.93945	0.35741	0.85118	-0.389
Mof_O 	O 	0.04485	0.19883	0.84183	-0.522
Mof_H 	H 	0.0481	0.1804	0.8474	0.331
Mof_O 	O 	0.04289	0.18897	0.79078	-0.3
Mof_H 	H 	0.9833	0.4333	0.8811	0.047
Mof_H 	H 	0.0163	0.4183	0.8843	-0.006
Mof_C 	C 	0.9895	0.4104	0.9224	0.025
Mof_C 	C 	0.9788	0.4299	0.9444	-0.033
Mof_H 	H 	0.9725	0.4504	0.9405	0.048
Mof_C 	C 	0.9783	0.4148	0.976	-0.015
Mof_H 	H 	0.9714	0.4248	0.9942	-0.005
Mof_C 	C 	0.9889	0.3853	0.9754	-0.022
Mof_H 	H 	0.9905	0.3723	0.9928	-0.042
Mof_S 	S 	0.99897	0.37477	0.93822	-0.049
Mof_H 	H 	0.1026	0.3391	0.792	0.141
Mof_H 	H 	0.1222	0.3301	0.8213	0.073
Mof_C 	C 	0.1347	0.3733	0.8014	0.029
Mof_H 	H 	0.1416	0.3848	0.8198	-0.014
Mof_H 	H 	0.1245	0.3879	0.7873	0.595
Mof_C 	C 	0.1634	0.3577	0.7848	1.84
Mof_H 	H 	0.1734	0.343	0.7991	-0.045
Mof_H 	H 	0.1563	0.346	0.7666	-0.065
Mof_C 	C 	0.1873	0.3826	0.7745	-5.683
Mof_H 	H 	0.2048	0.3726	0.7643	1.75
Mof_H 	H 	0.1775	0.397	0.7601	1.718
Mof_H 	H 	0.1947	0.3939	0.7926	0.93
Mof_C 	C 	0.44991	0.88171	0.3648	0.286
Mof_C 	C 	0.48421	0.88794	0.36715	-0.01
Mof_C 	C 	0.49428	0.91473	0.3877	-0.136
Mof_H 	H 	0.4803	0.9322	0.3849	0.015
Mof_H 	H 	0.5151	0.9212	0.3819	0.024
Mof_C 	C 	0.4938	0.9044	0.42172	0.022
Mof_C 	C 	0.4993	0.8759	0.4335	-0.03
Mof_H 	H 	0.5043	0.8585	0.4212	0.065
Mof_C 	C 	0.4967	0.875	0.4683	-0.007
Mof_H 	H 	0.4998	0.8571	0.4804	0.011
Mof_C 	C 	0.4893	0.9028	0.4802	-0.023
Mof_H 	H 	0.4865	0.9067	0.5015	-0.037
Mof_S 	S 	0.4854	0.93055	0.45123	-0.055
Mof_C 	C 	0.50348	0.86982	0.35007	-0.12
Mof_H 	H 	0.4938	0.8554	0.3368	0.098
Mof_C 	C 	0.53736	0.86984	0.34969	0.079
Mof_C 	C 	0.55945	0.87629	0.37212	-0.086
Mof_H 	H 	0.5551	0.8845	0.3919	0.051
Mof_C 	C 	0.5854	0.85754	0.33201	0.103
Mof_C 	C 	0.5417	0.8424	0.29624	-0.02
Mof_C 	C 	0.54071	0.80717	0.30104	0.102
Mof_C 	C 	0.54111	0.79374	0.33087	-0.16
Mof_H 	H 	0.5412	0.8067	0.3485	0.11
Mof_C 	C 	0.54139	0.7617	0.33461	0.101
Mof_H 	H 	0.5417	0.7531	0.3547	0.029
Mof_C 	C 	0.54117	0.74216	0.30872	-0.175
Mof_C 	C 	0.53988	0.75536	0.27899	0.092
Mof_H 	H 	0.5389	0.7424	0.2614	-0.02
Mof_C 	C 	0.54004	0.78732	0.27529	-0.168
Mof_H 	H 	0.5397	0.7958	0.2552	0.058
Mof_C 	C 	0.54316	0.70775	0.31265	0.433
Mof_C 	C 	0.61148	0.84718	0.31112	-0.094
Mof_H 	H 	0.6048	0.8291	0.2993	-0.081
Mof_H 	H 	0.6291	0.8411	0.3238	-0.031
Mof_C 	C 	0.621	0.8737	0.288	-0.446
Mof_H 	H 	0.6273	0.8923	0.2996	-0.349
Mof_H 	H 	0.6033	0.8792	0.2747	0.055
Mof_C 	C 	0.6487	0.8617	0.2676	-1.918
Mof_H 	H 	0.6436	0.8411	0.2593	0.518
Mof_H 	H 	0.6517	0.8758	0.2499	0.533
Mof_C 	C 	0.6794	0.8597	0.2864	0.689
Mof_H 	H 	0.696	0.8523	0.2731	-0.219
Mof_H 	H 	0.6847	0.8802	0.2943	1.263
Mof_H 	H 	0.6767	0.8455	0.3037	-0.716
Mof_N 	N 	0.5891	0.86888	0.36119	-0.254
Mof_N 	N 	0.55469	0.85794	0.32414	-0.14
Mof_O 	O 	0.4306	0.90084	0.37671	-0.386
Mof_O 	O 	0.43945	0.85741	0.35118	-0.389
Mof_O 	O 	0.54485	0.69883	0.34183	-0.522
Mof_H 	H 	0.5481	0.6804	0.3474	0.331
Mof_O 	O 	0.54289	0.68897	0.29078	-0.3
Mof_H 	H 	0.4833	0.9333	0.3811	0.047
Mof_H 	H 	0.5163	0.9183	0.3843	-0.006
Mof_C 	C 	0.4895	0.9104	0.4224	0.025
Mof_C 	C 	0.4788	0.9299	0.4444	-0.033
Mof_H 	H 	0.4725	0.9504	0.4405	0.048
Mof_C 	C 	0.4783	0.9148	0.476	-0.015
Mof_H 	H 	0.4714	0.9248	0.4942	-0.005
Mof_C 	C 	0.4889	0.8853	0.4754	-0.022
Mof_H 	H 	0.4905	0.8723	0.4928	-0.042
Mof_S 	S 	0.49897	0.87477	0.43822	-0.049
Mof_H 	H 	0.6026	0.8391	0.292	0.141
Mof_H 	H 	0.6222	0.8301	0.3213	0.073
Mof_C 	C 	0.6347	0.8733	0.3014	0.029
Mof_H 	H 	0.6416	0.8848	0.3198	-0.014
Mof_H 	H 	0.6245	0.8879	0.2873	0.595
Mof_C 	C 	0.6634	0.8577	0.2848	1.84
Mof_H 	H 	0.6734	0.843	0.2991	-0.045
Mof_H 	H 	0.6563	0.846	0.2666	-0.065
Mof_C 	C 	0.6873	0.8826	0.2745	-5.683
Mof_H 	H 	0.7048	0.8726	0.2643	1.75
Mof_H 	H 	0.6775	0.897	0.2601	1.718
Mof_H 	H 	0.6947	0.8939	0.2926	0.93
Mof_C 	C 	0.44991	0.11829	0.1352	0.286
Mof_C 	C 	0.48421	0.11206	0.13285	-0.01
Mof_C 	C 	0.49428	0.08527	0.1123	-0.136
Mof_H 	H 	0.4803	0.0678	0.1151	0.015
Mof_H 	H 	0.5151	0.0788	0.1181	0.024
Mof_C 	C 	0.4938	0.0956	0.07828	0.022
Mof_C 	C 	0.4993	0.1241	0.0665	-0.03
Mof_H 	H 	0.5043	0.1415	0.0788	0.065
Mof_C 	C 	0.4967	0.125	0.0317	-0.007
Mof_H 	H 	0.4998	0.1429	0.0196	0.011
Mof_C 	C 	0.4893	0.0972	0.0198	-0.023
Mof_H 	H 	0.4865	0.0933	0.9985	-0.037
Mof_S 	S 	0.4854	0.06945	0.04877	-0.055
Mof_C 	C 	0.50348	0.13018	0.14993	-0.12
Mof_H 	H 	0.4938	0.1446	0.1632	0.098
Mof_C 	C 	0.53736	0.13016	0.15031	0.079
Mof_C 	C 	0.55945	0.12371	0.12788	-0.086
Mof_H 	H 	0.5551	0.1155	0.1081	0.051
Mof_C 	C 	0.5854	0.14246	0.16799	0.103
Mof_C 	C 	0.5417	0.1576	0.20376	-0.02
Mof_C 	C 	0.54071	0.19283	0.19896	0.102
Mof_C 	C 	0.54111	0.20626	0.16913	-0.16
Mof_H 	H 	0.5412	0.1933	0.1515	0.11
Mof_C 	C 	0.54139	0.2383	0.16539	0.101
Mof_H 	H 	0.5417	0.2469	0.1453	0.029
Mof_C 	C 	0.54117	0.25784	0.19128	-0.175
Mof_C 	C 	0.53988	0.24464	0.22101	0.092
Mof_H 	H 	0.5389	0.2576	0.2386	-0.02
Mof_C 	C 	0.54004	0.21268	0.22471	-0.168
Mof_H 	H 	0.5397	0.2042	0.2448	0.058
Mof_C 	C 	0.54316	0.29225	0.18735	0.433
Mof_C 	C 	0.61148	0.15282	0.18888	-0.094
Mof_H 	H 	0.6048	0.1709	0.2007	-0.081
Mof_H 	H 	0.6291	0.1589	0.1762	-0.031
Mof_C 	C 	0.621	0.1263	0.212	-0.446
Mof_H 	H 	0.6273	0.1077	0.2004	-0.349
Mof_H 	H 	0.6033	0.1208	0.2253	0.055
Mof_C 	C 	0.6487	0.1383	0.2324	-1.918
Mof_H 	H 	0.6436	0.1589	0.2407	0.518
Mof_H 	H 	0.6517	0.1242	0.2501	0.533
Mof_C 	C 	0.6794	0.1403	0.2136	0.689
Mof_H 	H 	0.696	0.1477	0.2269	-0.219
Mof_H 	H 	0.6847	0.1198	0.2057	1.263
Mof_H 	H 	0.6767	0.1545	0.1963	-0.716
Mof_N 	N 	0.5891	0.13112	0.13881	-0.254
Mof_N 	N 	0.55469	0.14206	0.17586	-0.14
Mof_O 	O 	0.4306	0.09916	0.12329	-0.386
Mof_O 	O 	0.43945	0.14259	0.14882	-0.389
Mof_O 	O 	0.54485	0.30117	0.15817	-0.522
Mof_H 	H 	0.5481	0.3196	0.1526	0.331
Mof_O 	O 	0.54289	0.31103	0.20922	-0.3
Mof_H 	H 	0.4833	0.0667	0.1189	0.047
Mof_H 	H 	0.5163	0.0817	0.1157	-0.006
Mof_C 	C 	0.4895	0.0896	0.0776	0.025
Mof_C 	C 	0.4788	0.0701	0.0556	-0.033
Mof_H 	H 	0.4725	0.0496	0.0595	0.048
Mof_C 	C 	0.4783	0.0852	0.024	-0.015
Mof_H 	H 	0.4714	0.0752	0.0058	-0.005
Mof_C 	C 	0.4889	0.1147	0.0246	-0.022
Mof_H 	H 	0.4905	0.1277	0.0072	-0.042
Mof_S 	S 	0.49897	0.12523	0.06178	-0.049
Mof_H 	H 	0.6026	0.1609	0.208	0.141
Mof_H 	H 	0.6222	0.1699	0.1787	0.073
Mof_C 	C 	0.6347	0.1267	0.1986	0.029
Mof_H 	H 	0.6416	0.1152	0.1802	-0.014
Mof_H 	H 	0.6245	0.1121	0.2127	0.595
Mof_C 	C 	0.6634	0.1423	0.2152	1.84
Mof_H 	H 	0.6734	0.157	0.2009	-0.045
Mof_H 	H 	0.6563	0.154	0.2334	-0.065
Mof_C 	C 	0.6873	0.1174	0.2255	-5.683
Mof_H 	H 	0.7048	0.1274	0.2357	1.75
Mof_H 	H 	0.6775	0.103	0.2399	1.718
Mof_H 	H 	0.6947	0.1061	0.2074	0.93
Mof_C 	C 	0.94991	0.61829	0.6352	0.286
Mof_C 	C 	0.98421	0.61206	0.63285	-0.01
Mof_C 	C 	0.99428	0.58527	0.6123	-0.136
Mof_H 	H 	0.9803	0.5678	0.6151	0.015
Mof_H 	H 	0.0151	0.5788	0.6181	0.024
Mof_C 	C 	0.9938	0.5956	0.57828	0.022
Mof_C 	C 	0.9993	0.6241	0.5665	-0.03
Mof_H 	H 	0.0043	0.6415	0.5788	0.065
Mof_C 	C 	0.9967	0.625	0.5317	-0.007
Mof_H 	H 	0.9998	0.6429	0.5196	0.011
Mof_C 	C 	0.9893	0.5972	0.5198	-0.023
Mof_H 	H 	0.9865	0.5933	0.4985	-0.037
Mof_S 	S 	0.9854	0.56945	0.54877	-0.055
Mof_C 	C 	0.00348	0.63018	0.64993	-0.12
Mof_H 	H 	0.9938	0.6446	0.6632	0.098
Mof_C 	C 	0.03736	0.63016	0.65031	0.079
Mof_C 	C 	0.05945	0.62371	0.62788	-0.086
Mof_H 	H 	0.0551	0.6155	0.6081	0.051
Mof_C 	C 	0.0854	0.64246	0.66799	0.103
Mof_C 	C 	0.0417	0.6576	0.70376	-0.02
Mof_C 	C 	0.04071	0.69283	0.69896	0.102
Mof_C 	C 	0.04111	0.70626	0.66913	-0.16
Mof_H 	H 	0.0412	0.6933	0.6515	0.11
Mof_C 	C 	0.04139	0.7383	0.66539	0.101
Mof_H 	H 	0.0417	0.7469	0.6453	0.029
Mof_C 	C 	0.04117	0.75784	0.69128	-0.174
Mof_C 	C 	0.03988	0.74464	0.72101	0.092
Mof_H 	H 	0.0389	0.7576	0.7386	-0.02
Mof_C 	C 	0.04004	0.71268	0.72471	-0.168
Mof_H 	H 	0.0397	0.7042	0.7448	0.058
Mof_C 	C 	0.04316	0.79225	0.68735	0.433
Mof_C 	C 	0.11148	0.65282	0.68888	-0.094
Mof_H 	H 	0.1048	0.6709	0.7007	-0.081
Mof_H 	H 	0.1291	0.6589	0.6762	-0.031
Mof_C 	C 	0.121	0.6263	0.712	-0.446
Mof_H 	H 	0.1273	0.6077	0.7004	-0.349
Mof_H 	H 	0.1033	0.6208	0.7253	0.055
Mof_C 	C 	0.1487	0.6383	0.7324	-1.918
Mof_H 	H 	0.1436	0.6589	0.7407	0.518
Mof_H 	H 	0.1517	0.6242	0.7501	0.533
Mof_C 	C 	0.1794	0.6403	0.7136	0.689
Mof_H 	H 	0.196	0.6477	0.7269	-0.219
Mof_H 	H 	0.1847	0.6198	0.7057	1.263
Mof_H 	H 	0.1767	0.6545	0.6963	-0.716
Mof_N 	N 	0.0891	0.63112	0.63881	-0.254
Mof_N 	N 	0.05469	0.64206	0.67586	-0.14
Mof_O 	O 	0.9306	0.59916	0.62329	-0.386
Mof_O 	O 	0.93945	0.64259	0.64882	-0.389
Mof_O 	O 	0.04485	0.80117	0.65817	-0.522
Mof_H 	H 	0.0481	0.8196	0.6526	0.331
Mof_O 	O 	0.04289	0.81103	0.70922	-0.3
Mof_H 	H 	0.9833	0.5667	0.6189	0.047
Mof_H 	H 	0.0163	0.5817	0.6157	-0.006
Mof_C 	C 	0.9895	0.5896	0.5776	0.025
Mof_C 	C 	0.9788	0.5701	0.5556	-0.033
Mof_H 	H 	0.9725	0.5496	0.5595	0.048
Mof_C 	C 	0.9783	0.5852	0.524	-0.015
Mof_H 	H 	0.9714	0.5752	0.5058	-0.005
Mof_C 	C 	0.9889	0.6147	0.5246	-0.022
Mof_H 	H 	0.9905	0.6277	0.5072	-0.042
Mof_S 	S 	0.99897	0.62523	0.56178	-0.049
Mof_H 	H 	0.1026	0.6609	0.708	0.141
Mof_H 	H 	0.1222	0.6699	0.6787	0.073
Mof_C 	C 	0.1347	0.6267	0.6986	0.029
Mof_H 	H 	0.1416	0.6152	0.6802	-0.014
Mof_H 	H 	0.1245	0.6121	0.7127	0.595
Mof_C 	C 	0.1634	0.6423	0.7152	1.84
Mof_H 	H 	0.1734	0.657	0.7009	-0.045
Mof_H 	H 	0.1563	0.654	0.7334	-0.065
Mof_C 	C 	0.1873	0.6174	0.7255	-5.683
Mof_H 	H 	0.2048	0.6274	0.7357	1.75
Mof_H 	H 	0.1775	0.603	0.7399	1.718
Mof_H 	H 	0.1947	0.6061	0.7074	0.93
Mof_C 	C 	0.55009	0.61829	0.3648	0.286
Mof_C 	C 	0.51579	0.61206	0.36715	-0.01
Mof_C 	C 	0.50572	0.58527	0.3877	-0.136
Mof_H 	H 	0.5197	0.5678	0.3849	0.015
Mof_H 	H 	0.4849	0.5788	0.3819	0.024
Mof_C 	C 	0.5062	0.5956	0.42172	0.022
Mof_C 	C 	0.5007	0.6241	0.4335	-0.03
Mof_H 	H 	0.4957	0.6415	0.4212	0.065
Mof_C 	C 	0.5033	0.625	0.4683	-0.007
Mof_H 	H 	0.5002	0.6429	0.4804	0.011
Mof_C 	C 	0.5107	0.5972	0.4802	-0.023
Mof_H 	H 	0.5135	0.5933	0.5015	-0.037
Mof_S 	S 	0.5146	0.56945	0.45123	-0.055
Mof_C 	C 	0.49652	0.63018	0.35007	-0.12
Mof_H 	H 	0.5062	0.6446	0.3368	0.098
Mof_C 	C 	0.46264	0.63016	0.34969	0.079
Mof_C 	C 	0.44055	0.62371	0.37212	-0.086
Mof_H 	H 	0.4449	0.6155	0.3919	0.051
Mof_C 	C 	0.4146	0.64246	0.33201	0.103
Mof_C 	C 	0.4583	0.6576	0.29624	-0.02
Mof_C 	C 	0.45929	0.69283	0.30104	0.102
Mof_C 	C 	0.45889	0.70626	0.33087	-0.16
Mof_H 	H 	0.4588	0.6933	0.3485	0.11
Mof_C 	C 	0.45861	0.7383	0.33461	0.101
Mof_H 	H 	0.4583	0.7469	0.3547	0.029
Mof_C 	C 	0.45883	0.75784	0.30872	-0.175
Mof_C 	C 	0.46012	0.74464	0.27899	0.092
Mof_H 	H 	0.4611	0.7576	0.2614	-0.02
Mof_C 	C 	0.45996	0.71268	0.27529	-0.168
Mof_H 	H 	0.4603	0.7042	0.2552	0.058
Mof_C 	C 	0.45684	0.79225	0.31265	0.433
Mof_C 	C 	0.38852	0.65282	0.31112	-0.094
Mof_H 	H 	0.3952	0.6709	0.2993	-0.081
Mof_H 	H 	0.3709	0.6589	0.3238	-0.031
Mof_C 	C 	0.379	0.6263	0.288	-0.446
Mof_H 	H 	0.3727	0.6077	0.2996	-0.349
Mof_H 	H 	0.3967	0.6208	0.2747	0.055
Mof_C 	C 	0.3513	0.6383	0.2676	-1.918
Mof_H 	H 	0.3564	0.6589	0.2593	0.518
Mof_H 	H 	0.3483	0.6242	0.2499	0.533
Mof_C 	C 	0.3206	0.6403	0.2864	0.689
Mof_H 	H 	0.304	0.6477	0.2731	-0.219
Mof_H 	H 	0.3153	0.6198	0.2943	1.263
Mof_H 	H 	0.3233	0.6545	0.3037	-0.716
Mof_N 	N 	0.4109	0.63112	0.36119	-0.254
Mof_N 	N 	0.44531	0.64206	0.32414	-0.14
Mof_O 	O 	0.5694	0.59916	0.37671	-0.386
Mof_O 	O 	0.56055	0.64259	0.35118	-0.389
Mof_O 	O 	0.45515	0.80117	0.34183	-0.522
Mof_H 	H 	0.4519	0.8196	0.3474	0.331
Mof_O 	O 	0.45711	0.81103	0.29078	-0.3
Mof_H 	H 	0.5167	0.5667	0.3811	0.047
Mof_H 	H 	0.4837	0.5817	0.3843	-0.006
Mof_C 	C 	0.5105	0.5896	0.4224	0.025
Mof_C 	C 	0.5212	0.5701	0.4444	-0.033
Mof_H 	H 	0.5275	0.5496	0.4405	0.048
Mof_C 	C 	0.5217	0.5852	0.476	-0.015
Mof_H 	H 	0.5286	0.5752	0.4942	-0.005
Mof_C 	C 	0.5111	0.6147	0.4754	-0.022
Mof_H 	H 	0.5095	0.6277	0.4928	-0.042
Mof_S 	S 	0.50103	0.62523	0.43822	-0.049
Mof_H 	H 	0.3974	0.6609	0.292	0.141
Mof_H 	H 	0.3778	0.6699	0.3213	0.073
Mof_C 	C 	0.3653	0.6267	0.3014	0.029
Mof_H 	H 	0.3584	0.6152	0.3198	-0.014
Mof_H 	H 	0.3755	0.6121	0.2873	0.595
Mof_C 	C 	0.3366	0.6423	0.2848	1.84
Mof_H 	H 	0.3266	0.657	0.2991	-0.045
Mof_H 	H 	0.3437	0.654	0.2666	-0.065
Mof_C 	C 	0.3127	0.6174	0.2745	-5.683
Mof_H 	H 	0.2952	0.6274	0.2643	1.75
Mof_H 	H 	0.3225	0.603	0.2601	1.718
Mof_H 	H 	0.3053	0.6061	0.2926	0.93
Mof_C 	C 	0.05009	0.11829	0.8648	0.286
Mof_C 	C 	0.01579	0.11206	0.86715	-0.01
Mof_C 	C 	0.00572	0.08527	0.8877	-0.136
Mof_H 	H 	0.0197	0.0678	0.8849	0.015
Mof_H 	H 	0.9849	0.0788	0.8819	0.024
Mof_C 	C 	0.0062	0.0956	0.92172	0.022
Mof_C 	C 	0.0007	0.1241	0.9335	-0.03
Mof_H 	H 	0.9957	0.1415	0.9212	0.065
Mof_C 	C 	0.0033	0.125	0.9683	-0.007
Mof_H 	H 	0.0002	0.1429	0.9804	0.011
Mof_C 	C 	0.0107	0.0972	0.9802	-0.023
Mof_H 	H 	0.0135	0.0933	0.0015	-0.037
Mof_S 	S 	0.0146	0.06945	0.95123	-0.055
Mof_C 	C 	0.99652	0.13018	0.85007	-0.12
Mof_H 	H 	0.0062	0.1446	0.8368	0.098
Mof_C 	C 	0.96264	0.13016	0.84969	0.079
Mof_C 	C 	0.94055	0.12371	0.87212	-0.086
Mof_H 	H 	0.9449	0.1155	0.8919	0.051
Mof_C 	C 	0.9146	0.14246	0.83201	0.103
Mof_C 	C 	0.9583	0.1576	0.79624	-0.02
Mof_C 	C 	0.95929	0.19283	0.80104	0.102
Mof_C 	C 	0.95889	0.20626	0.83087	-0.16
Mof_H 	H 	0.9588	0.1933	0.8485	0.11
Mof_C 	C 	0.95861	0.2383	0.83461	0.101
Mof_H 	H 	0.9583	0.2469	0.8547	0.029
Mof_C 	C 	0.95883	0.25784	0.80872	-0.174
Mof_C 	C 	0.96012	0.24464	0.77899	0.092
Mof_H 	H 	0.9611	0.2576	0.7614	-0.02
Mof_C 	C 	0.95996	0.21268	0.77529	-0.168
Mof_H 	H 	0.9603	0.2042	0.7552	0.058
Mof_C 	C 	0.95684	0.29225	0.81265	0.433
Mof_C 	C 	0.88852	0.15282	0.81112	-0.094
Mof_H 	H 	0.8952	0.1709	0.7993	-0.081
Mof_H 	H 	0.8709	0.1589	0.8238	-0.031
Mof_C 	C 	0.879	0.1263	0.788	-0.446
Mof_H 	H 	0.8727	0.1077	0.7996	-0.349
Mof_H 	H 	0.8967	0.1208	0.7747	0.055
Mof_C 	C 	0.8513	0.1383	0.7676	-1.918
Mof_H 	H 	0.8564	0.1589	0.7593	0.518
Mof_H 	H 	0.8483	0.1242	0.7499	0.533
Mof_C 	C 	0.8206	0.1403	0.7864	0.689
Mof_H 	H 	0.804	0.1477	0.7731	-0.219
Mof_H 	H 	0.8153	0.1198	0.7943	1.263
Mof_H 	H 	0.8233	0.1545	0.8037	-0.716
Mof_N 	N 	0.9109	0.13112	0.86119	-0.254
Mof_N 	N 	0.94531	0.14206	0.82414	-0.14
Mof_O 	O 	0.0694	0.09916	0.87671	-0.386
Mof_O 	O 	0.06055	0.14259	0.85118	-0.389
Mof_O 	O 	0.95515	0.30117	0.84183	-0.522
Mof_H 	H 	0.9519	0.3196	0.8474	0.331
Mof_O 	O 	0.95711	0.31103	0.79078	-0.3
Mof_H 	H 	0.0167	0.0667	0.8811	0.047
Mof_H 	H 	0.9837	0.0817	0.8843	-0.006
Mof_C 	C 	0.0105	0.0896	0.9224	0.025
Mof_C 	C 	0.0212	0.0701	0.9444	-0.033
Mof_H 	H 	0.0275	0.0496	0.9405	0.048
Mof_C 	C 	0.0217	0.0852	0.976	-0.015
Mof_H 	H 	0.0286	0.0752	0.9942	-0.005
Mof_C 	C 	0.0111	0.1147	0.9754	-0.022
Mof_H 	H 	0.0095	0.1277	0.9928	-0.042
Mof_S 	S 	0.00103	0.12523	0.93822	-0.049
Mof_H 	H 	0.8974	0.1609	0.792	0.141
Mof_H 	H 	0.8778	0.1699	0.8213	0.073
Mof_C 	C 	0.8653	0.1267	0.8014	0.029
Mof_H 	H 	0.8584	0.1152	0.8198	-0.014
Mof_H 	H 	0.8755	0.1121	0.7873	0.595
Mof_C 	C 	0.8366	0.1423	0.7848	1.84
Mof_H 	H 	0.8266	0.157	0.7991	-0.045
Mof_H 	H 	0.8437	0.154	0.7666	-0.065
Mof_C 	C 	0.8127	0.1174	0.7745	-5.683
Mof_H 	H 	0.7952	0.1274	0.7643	1.75
Mof_H 	H 	0.8225	0.103	0.7601	1.718
Mof_H 	H 	0.8053	0.1061	0.7926	0.93
Mof_C 	C 	0.05009	0.88171	0.6352	0.286
Mof_C 	C 	0.01579	0.88794	0.63285	-0.01
Mof_C 	C 	0.00572	0.91473	0.6123	-0.136
Mof_H 	H 	0.0197	0.9322	0.6151	0.015
Mof_H 	H 	0.9849	0.9212	0.6181	0.024
Mof_C 	C 	0.0062	0.9044	0.57828	0.022
Mof_C 	C 	0.0007	0.8759	0.5665	-0.03
Mof_H 	H 	0.9957	0.8585	0.5788	0.065
Mof_C 	C 	0.0033	0.875	0.5317	-0.007
Mof_H 	H 	0.0002	0.8571	0.5196	0.011
Mof_C 	C 	0.0107	0.9028	0.5198	-0.023
Mof_H 	H 	0.0135	0.9067	0.4985	-0.037
Mof_S 	S 	0.0146	0.93055	0.54877	-0.055
Mof_C 	C 	0.99652	0.86982	0.64993	-0.12
Mof_H 	H 	0.0062	0.8554	0.6632	0.098
Mof_C 	C 	0.96264	0.86984	0.65031	0.079
Mof_C 	C 	0.94055	0.87629	0.62788	-0.086
Mof_H 	H 	0.9449	0.8845	0.6081	0.051
Mof_C 	C 	0.9146	0.85754	0.66799	0.103
Mof_C 	C 	0.9583	0.8424	0.70376	-0.02
Mof_C 	C 	0.95929	0.80717	0.69896	0.102
Mof_C 	C 	0.95889	0.79374	0.66913	-0.16
Mof_H 	H 	0.9588	0.8067	0.6515	0.11
Mof_C 	C 	0.95861	0.7617	0.66539	0.101
Mof_H 	H 	0.9583	0.7531	0.6453	0.029
Mof_C 	C 	0.95883	0.74216	0.69128	-0.174
Mof_C 	C 	0.96012	0.75536	0.72101	0.092
Mof_H 	H 	0.9611	0.7424	0.7386	-0.02
Mof_C 	C 	0.95996	0.78732	0.72471	-0.168
Mof_H 	H 	0.9603	0.7958	0.7448	0.058
Mof_C 	C 	0.95684	0.70775	0.68735	0.433
Mof_C 	C 	0.88852	0.84718	0.68888	-0.094
Mof_H 	H 	0.8952	0.8291	0.7007	-0.081
Mof_H 	H 	0.8709	0.8411	0.6762	-0.031
Mof_C 	C 	0.879	0.8737	0.712	-0.446
Mof_H 	H 	0.8727	0.8923	0.7004	-0.349
Mof_H 	H 	0.8967	0.8792	0.7253	0.055
Mof_C 	C 	0.8513	0.8617	0.7324	-1.918
Mof_H 	H 	0.8564	0.8411	0.7407	0.518
Mof_H 	H 	0.8483	0.8758	0.7501	0.533
Mof_C 	C 	0.8206	0.8597	0.7136	0.689
Mof_H 	H 	0.804	0.8523	0.7269	-0.219
Mof_H 	H 	0.8153	0.8802	0.7057	1.263
Mof_H 	H 	0.8233	0.8455	0.6963	-0.716
Mof_N 	N 	0.9109	0.86888	0.63881	-0.254
Mof_N 	N 	0.94531	0.85794	0.67586	-0.14
Mof_O 	O 	0.0694	0.90084	0.62329	-0.386
Mof_O 	O 	0.06055	0.85741	0.64882	-0.389
Mof_O 	O 	0.95515	0.69883	0.65817	-0.522
Mof_H 	H 	0.9519	0.6804	0.6526	0.331
Mof_O 	O 	0.95711	0.68897	0.70922	-0.3
Mof_H 	H 	0.0167	0.9333	0.6189	0.047
Mof_H 	H 	0.9837	0.9183	0.6157	-0.006
Mof_C 	C 	0.0105	0.9104	0.5776	0.025
Mof_C 	C 	0.0212	0.9299	0.5556	-0.033
Mof_H 	H 	0.0275	0.9504	0.5595	0.048
Mof_C 	C 	0.0217	0.9148	0.524	-0.015
Mof_H 	H 	0.0286	0.9248	0.5058	-0.005
Mof_C 	C 	0.0111	0.8853	0.5246	-0.022
Mof_H 	H 	0.0095	0.8723	0.5072	-0.042
Mof_S 	S 	0.00103	0.87477	0.56178	-0.049
Mof_H 	H 	0.8974	0.8391	0.708	0.141
Mof_H 	H 	0.8778	0.8301	0.6787	0.073
Mof_C 	C 	0.8653	0.8733	0.6986	0.029
Mof_H 	H 	0.8584	0.8848	0.6802	-0.014
Mof_H 	H 	0.8755	0.8879	0.7127	0.595
Mof_C 	C 	0.8366	0.8577	0.7152	1.84
Mof_H 	H 	0.8266	0.843	0.7009	-0.045
Mof_H 	H 	0.8437	0.846	0.7334	-0.065
Mof_C 	C 	0.8127	0.8826	0.7255	-5.683
Mof_H 	H 	0.7952	0.8726	0.7357	1.75
Mof_H 	H 	0.8225	0.897	0.7399	1.718
Mof_H 	H 	0.8053	0.8939	0.7074	0.93
Mof_C 	C 	0.55009	0.38171	0.1352	0.286
Mof_C 	C 	0.51579	0.38794	0.13285	-0.01
Mof_C 	C 	0.50572	0.41473	0.1123	-0.136
Mof_H 	H 	0.5197	0.4322	0.1151	0.015
Mof_H 	H 	0.4849	0.4212	0.1181	0.024
Mof_C 	C 	0.5062	0.4044	0.07828	0.022
Mof_C 	C 	0.5007	0.3759	0.0665	-0.03
Mof_H 	H 	0.4957	0.3585	0.0788	0.065
Mof_C 	C 	0.5033	0.375	0.0317	-0.007
Mof_H 	H 	0.5002	0.3571	0.0196	0.011
Mof_C 	C 	0.5107	0.4028	0.0198	-0.023
Mof_H 	H 	0.5135	0.4067	0.9985	-0.037
Mof_S 	S 	0.5146	0.43055	0.04877	-0.055
Mof_C 	C 	0.49652	0.36982	0.14993	-0.12
Mof_H 	H 	0.5062	0.3554	0.1632	0.098
Mof_C 	C 	0.46264	0.36984	0.15031	0.079
Mof_C 	C 	0.44055	0.37629	0.12788	-0.086
Mof_H 	H 	0.4449	0.3845	0.1081	0.051
Mof_C 	C 	0.4146	0.35754	0.16799	0.103
Mof_C 	C 	0.4583	0.3424	0.20376	-0.02
Mof_C 	C 	0.45929	0.30717	0.19896	0.102
Mof_C 	C 	0.45889	0.29374	0.16913	-0.16
Mof_H 	H 	0.4588	0.3067	0.1515	0.11
Mof_C 	C 	0.45861	0.2617	0.16539	0.101
Mof_H 	H 	0.4583	0.2531	0.1453	0.029
Mof_C 	C 	0.45883	0.24216	0.19128	-0.175
Mof_C 	C 	0.46012	0.25536	0.22101	0.092
Mof_H 	H 	0.4611	0.2424	0.2386	-0.02
Mof_C 	C 	0.45996	0.28732	0.22471	-0.168
Mof_H 	H 	0.4603	0.2958	0.2448	0.058
Mof_C 	C 	0.45684	0.20775	0.18735	0.433
Mof_C 	C 	0.38852	0.34718	0.18888	-0.094
Mof_H 	H 	0.3952	0.3291	0.2007	-0.081
Mof_H 	H 	0.3709	0.3411	0.1762	-0.031
Mof_C 	C 	0.379	0.3737	0.212	-0.446
Mof_H 	H 	0.3727	0.3923	0.2004	-0.349
Mof_H 	H 	0.3967	0.3792	0.2253	0.055
Mof_C 	C 	0.3513	0.3617	0.2324	-1.918
Mof_H 	H 	0.3564	0.3411	0.2407	0.518
Mof_H 	H 	0.3483	0.3758	0.2501	0.533
Mof_C 	C 	0.3206	0.3597	0.2136	0.689
Mof_H 	H 	0.304	0.3523	0.2269	-0.219
Mof_H 	H 	0.3153	0.3802	0.2057	1.263
Mof_H 	H 	0.3233	0.3455	0.1963	-0.716
Mof_N 	N 	0.4109	0.36888	0.13881	-0.254
Mof_N 	N 	0.44531	0.35794	0.17586	-0.14
Mof_O 	O 	0.5694	0.40084	0.12329	-0.386
Mof_O 	O 	0.56055	0.35741	0.14882	-0.389
Mof_O 	O 	0.45515	0.19883	0.15817	-0.522
Mof_H 	H 	0.4519	0.1804	0.1526	0.331
Mof_O 	O 	0.45711	0.18897	0.20922	-0.3
Mof_H 	H 	0.5167	0.4333	0.1189	0.047
Mof_H 	H 	0.4837	0.4183	0.1157	-0.006
Mof_C 	C 	0.5105	0.4104	0.0776	0.025
Mof_C 	C 	0.5212	0.4299	0.0556	-0.033
Mof_H 	H 	0.5275	0.4504	0.0595	0.048
Mof_C 	C 	0.5217	0.4148	0.024	-0.015
Mof_H 	H 	0.5286	0.4248	0.0058	-0.005
Mof_C 	C 	0.5111	0.3853	0.0246	-0.022
Mof_H 	H 	0.5095	0.3723	0.0072	-0.042
Mof_S 	S 	0.50103	0.37477	0.06178	-0.049
Mof_H 	H 	0.3974	0.3391	0.208	0.141
Mof_H 	H 	0.3778	0.3301	0.1787	0.073
Mof_C 	C 	0.3653	0.3733	0.1986	0.029
Mof_H 	H 	0.3584	0.3848	0.1802	-0.014
Mof_H 	H 	0.3755	0.3879	0.2127	0.595
Mof_C 	C 	0.3366	0.3577	0.2152	1.84
Mof_H 	H 	0.3266	0.343	0.2009	-0.045
Mof_H 	H 	0.3437	0.346	0.2334	-0.065
Mof_C 	C 	0.3127	0.3826	0.2255	-5.683
Mof_H 	H 	0.2952	0.3726	0.2357	1.75
Mof_H 	H 	0.3225	0.397	0.2399	1.718
Mof_H 	H 	0.3053	0.3939	0.2074	0.93
Mof_C 	C 	0.8648	0.94991	0.38171	0.286
Mof_C 	C 	0.86715	0.98421	0.38794	-0.01
Mof_C 	C 	0.8877	0.99428	0.41473	-0.136
Mof_H 	H 	0.8849	0.9803	0.4322	0.015
Mof_H 	H 	0.8819	0.0151	0.4212	0.024
Mof_C 	C 	0.92172	0.9938	0.4044	0.022
Mof_C 	C 	0.9335	0.9993	0.3759	-0.03
Mof_H 	H 	0.9212	0.0043	0.3585	0.065
Mof_C 	C 	0.9683	0.9967	0.375	-0.007
Mof_H 	H 	0.9804	0.9998	0.3571	0.011
Mof_C 	C 	0.9802	0.9893	0.4028	-0.023
Mof_H 	H 	0.0015	0.9865	0.4067	-0.037
Mof_S 	S 	0.95123	0.9854	0.43055	-0.055
Mof_C 	C 	0.85007	0.00348	0.36982	-0.12
Mof_H 	H 	0.8368	0.9938	0.3554	0.098
Mof_C 	C 	0.84969	0.03736	0.36984	0.079
Mof_C 	C 	0.87212	0.05945	0.37629	-0.086
Mof_H 	H 	0.8919	0.0551	0.3845	0.051
Mof_C 	C 	0.83201	0.0854	0.35754	0.103
Mof_C 	C 	0.79624	0.0417	0.3424	-0.02
Mof_C 	C 	0.80104	0.04071	0.30717	0.102
Mof_C 	C 	0.83087	0.04111	0.29374	-0.16
Mof_H 	H 	0.8485	0.0412	0.3067	0.11
Mof_C 	C 	0.83461	0.04139	0.2617	0.101
Mof_H 	H 	0.8547	0.0417	0.2531	0.029
Mof_C 	C 	0.80872	0.04117	0.24216	-0.174
Mof_C 	C 	0.77899	0.03988	0.25536	0.092
Mof_H 	H 	0.7614	0.0389	0.2424	-0.02
Mof_C 	C 	0.77529	0.04004	0.28732	-0.168
Mof_H 	H 	0.7552	0.0397	0.2958	0.058
Mof_C 	C 	0.81265	0.04316	0.20775	0.433
Mof_C 	C 	0.81112	0.11148	0.34718	-0.094
Mof_H 	H 	0.7993	0.1048	0.3291	-0.081
Mof_H 	H 	0.8238	0.1291	0.3411	-0.031
Mof_C 	C 	0.788	0.121	0.3737	-0.446
Mof_H 	H 	0.7996	0.1273	0.3923	-0.349
Mof_H 	H 	0.7747	0.1033	0.3792	0.055
Mof_C 	C 	0.7676	0.1487	0.3617	-1.918
Mof_H 	H 	0.7593	0.1436	0.3411	0.518
Mof_H 	H 	0.7499	0.1517	0.3758	0.533
Mof_C 	C 	0.7864	0.1794	0.3597	0.689
Mof_H 	H 	0.7731	0.196	0.3523	-0.219
Mof_H 	H 	0.7943	0.1847	0.3802	1.263
Mof_H 	H 	0.8037	0.1767	0.3455	-0.716
Mof_N 	N 	0.86119	0.0891	0.36888	-0.254
Mof_N 	N 	0.82414	0.05469	0.35794	-0.14
Mof_O 	O 	0.87671	0.9306	0.40084	-0.386
Mof_O 	O 	0.85118	0.93945	0.35741	-0.389
Mof_O 	O 	0.84183	0.04485	0.19883	-0.522
Mof_H 	H 	0.8474	0.0481	0.1804	0.331
Mof_O 	O 	0.79078	0.04289	0.18897	-0.3
Mof_H 	H 	0.8811	0.9833	0.4333	0.047
Mof_H 	H 	0.8843	0.0163	0.4183	-0.006
Mof_C 	C 	0.9224	0.9895	0.4104	0.025
Mof_C 	C 	0.9444	0.9788	0.4299	-0.033
Mof_H 	H 	0.9405	0.9725	0.4504	0.048
Mof_C 	C 	0.976	0.9783	0.4148	-0.015
Mof_H 	H 	0.9942	0.9714	0.4248	-0.005
Mof_C 	C 	0.9754	0.9889	0.3853	-0.022
Mof_H 	H 	0.9928	0.9905	0.3723	-0.042
Mof_S 	S 	0.93822	0.99897	0.37477	-0.049
Mof_H 	H 	0.792	0.1026	0.3391	0.141
Mof_H 	H 	0.8213	0.1222	0.3301	0.073
Mof_C 	C 	0.8014	0.1347	0.3733	0.029
Mof_H 	H 	0.8198	0.1416	0.3848	-0.014
Mof_H 	H 	0.7873	0.1245	0.3879	0.595
Mof_C 	C 	0.7848	0.1634	0.3577	1.84
Mof_H 	H 	0.7991	0.1734	0.343	-0.045
Mof_H 	H 	0.7666	0.1563	0.346	-0.065
Mof_C 	C 	0.7745	0.1873	0.3826	-5.683
Mof_H 	H 	0.7643	0.2048	0.3726	1.75
Mof_H 	H 	0.7601	0.1775	0.397	1.718
Mof_H 	H 	0.7926	0.1947	0.3939	0.93
Mof_C 	C 	0.3648	0.44991	0.88171	0.286
Mof_C 	C 	0.36715	0.48421	0.88794	-0.01
Mof_C 	C 	0.3877	0.49428	0.91473	-0.136
Mof_H 	H 	0.3849	0.4803	0.9322	0.015
Mof_H 	H 	0.3819	0.5151	0.9212	0.024
Mof_C 	C 	0.42172	0.4938	0.9044	0.022
Mof_C 	C 	0.4335	0.4993	0.8759	-0.03
Mof_H 	H 	0.4212	0.5043	0.8585	0.065
Mof_C 	C 	0.4683	0.4967	0.875	-0.007
Mof_H 	H 	0.4804	0.4998	0.8571	0.011
Mof_C 	C 	0.4802	0.4893	0.9028	-0.023
Mof_H 	H 	0.5015	0.4865	0.9067	-0.037
Mof_S 	S 	0.45123	0.4854	0.93055	-0.055
Mof_C 	C 	0.35007	0.50348	0.86982	-0.12
Mof_H 	H 	0.3368	0.4938	0.8554	0.098
Mof_C 	C 	0.34969	0.53736	0.86984	0.079
Mof_C 	C 	0.37212	0.55945	0.87629	-0.086
Mof_H 	H 	0.3919	0.5551	0.8845	0.051
Mof_C 	C 	0.33201	0.5854	0.85754	0.103
Mof_C 	C 	0.29624	0.5417	0.8424	-0.02
Mof_C 	C 	0.30104	0.54071	0.80717	0.102
Mof_C 	C 	0.33087	0.54111	0.79374	-0.16
Mof_H 	H 	0.3485	0.5412	0.8067	0.11
Mof_C 	C 	0.33461	0.54139	0.7617	0.101
Mof_H 	H 	0.3547	0.5417	0.7531	0.029
Mof_C 	C 	0.30872	0.54117	0.74216	-0.175
Mof_C 	C 	0.27899	0.53988	0.75536	0.092
Mof_H 	H 	0.2614	0.5389	0.7424	-0.02
Mof_C 	C 	0.27529	0.54004	0.78732	-0.168
Mof_H 	H 	0.2552	0.5397	0.7958	0.058
Mof_C 	C 	0.31265	0.54316	0.70775	0.433
Mof_C 	C 	0.31112	0.61148	0.84718	-0.094
Mof_H 	H 	0.2993	0.6048	0.8291	-0.081
Mof_H 	H 	0.3238	0.6291	0.8411	-0.031
Mof_C 	C 	0.288	0.621	0.8737	-0.446
Mof_H 	H 	0.2996	0.6273	0.8923	-0.349
Mof_H 	H 	0.2747	0.6033	0.8792	0.055
Mof_C 	C 	0.2676	0.6487	0.8617	-1.918
Mof_H 	H 	0.2593	0.6436	0.8411	0.518
Mof_H 	H 	0.2499	0.6517	0.8758	0.533
Mof_C 	C 	0.2864	0.6794	0.8597	0.689
Mof_H 	H 	0.2731	0.696	0.8523	-0.219
Mof_H 	H 	0.2943	0.6847	0.8802	1.263
Mof_H 	H 	0.3037	0.6767	0.8455	-0.716
Mof_N 	N 	0.36119	0.5891	0.86888	-0.254
Mof_N 	N 	0.32414	0.55469	0.85794	-0.14
Mof_O 	O 	0.37671	0.4306	0.90084	-0.386
Mof_O 	O 	0.35118	0.43945	0.85741	-0.389
Mof_O 	O 	0.34183	0.54485	0.69883	-0.522
Mof_H 	H 	0.3474	0.5481	0.6804	0.331
Mof_O 	O 	0.29078	0.54289	0.68897	-0.3
Mof_H 	H 	0.3811	0.4833	0.9333	0.047
Mof_H 	H 	0.3843	0.5163	0.9183	-0.006
Mof_C 	C 	0.4224	0.4895	0.9104	0.025
Mof_C 	C 	0.4444	0.4788	0.9299	-0.033
Mof_H 	H 	0.4405	0.4725	0.9504	0.048
Mof_C 	C 	0.476	0.4783	0.9148	-0.015
Mof_H 	H 	0.4942	0.4714	0.9248	-0.005
Mof_C 	C 	0.4754	0.4889	0.8853	-0.022
Mof_H 	H 	0.4928	0.4905	0.8723	-0.042
Mof_S 	S 	0.43822	0.49897	0.87477	-0.049
Mof_H 	H 	0.292	0.6026	0.8391	0.141
Mof_H 	H 	0.3213	0.6222	0.8301	0.073
Mof_C 	C 	0.3014	0.6347	0.8733	0.029
Mof_H 	H 	0.3198	0.6416	0.8848	-0.014
Mof_H 	H 	0.2873	0.6245	0.8879	0.595
Mof_C 	C 	0.2848	0.6634	0.8577	1.84
Mof_H 	H 	0.2991	0.6734	0.843	-0.045
Mof_H 	H 	0.2666	0.6563	0.846	-0.065
Mof_C 	C 	0.2745	0.6873	0.8826	-5.683
Mof_H 	H 	0.2643	0.7048	0.8726	1.75
Mof_H 	H 	0.2601	0.6775	0.897	1.718
Mof_H 	H 	0.2926	0.6947	0.8939	0.93
Mof_C 	C 	0.1352	0.44991	0.11829	0.286
Mof_C 	C 	0.13285	0.48421	0.11206	-0.01
Mof_C 	C 	0.1123	0.49428	0.08527	-0.136
Mof_H 	H 	0.1151	0.4803	0.0678	0.015
Mof_H 	H 	0.1181	0.5151	0.0788	0.024
Mof_C 	C 	0.07828	0.4938	0.0956	0.022
Mof_C 	C 	0.0665	0.4993	0.1241	-0.03
Mof_H 	H 	0.0788	0.5043	0.1415	0.065
Mof_C 	C 	0.0317	0.4967	0.125	-0.007
Mof_H 	H 	0.0196	0.4998	0.1429	0.011
Mof_C 	C 	0.0198	0.4893	0.0972	-0.023
Mof_H 	H 	0.9985	0.4865	0.0933	-0.037
Mof_S 	S 	0.04877	0.4854	0.06945	-0.055
Mof_C 	C 	0.14993	0.50348	0.13018	-0.12
Mof_H 	H 	0.1632	0.4938	0.1446	0.098
Mof_C 	C 	0.15031	0.53736	0.13016	0.079
Mof_C 	C 	0.12788	0.55945	0.12371	-0.086
Mof_H 	H 	0.1081	0.5551	0.1155	0.051
Mof_C 	C 	0.16799	0.5854	0.14246	0.103
Mof_C 	C 	0.20376	0.5417	0.1576	-0.02
Mof_C 	C 	0.19896	0.54071	0.19283	0.102
Mof_C 	C 	0.16913	0.54111	0.20626	-0.16
Mof_H 	H 	0.1515	0.5412	0.1933	0.11
Mof_C 	C 	0.16539	0.54139	0.2383	0.101
Mof_H 	H 	0.1453	0.5417	0.2469	0.029
Mof_C 	C 	0.19128	0.54117	0.25784	-0.175
Mof_C 	C 	0.22101	0.53988	0.24464	0.092
Mof_H 	H 	0.2386	0.5389	0.2576	-0.02
Mof_C 	C 	0.22471	0.54004	0.21268	-0.168
Mof_H 	H 	0.2448	0.5397	0.2042	0.058
Mof_C 	C 	0.18735	0.54316	0.29225	0.433
Mof_C 	C 	0.18888	0.61148	0.15282	-0.094
Mof_H 	H 	0.2007	0.6048	0.1709	-0.081
Mof_H 	H 	0.1762	0.6291	0.1589	-0.031
Mof_C 	C 	0.212	0.621	0.1263	-0.446
Mof_H 	H 	0.2004	0.6273	0.1077	-0.349
Mof_H 	H 	0.2253	0.6033	0.1208	0.055
Mof_C 	C 	0.2324	0.6487	0.1383	-1.918
Mof_H 	H 	0.2407	0.6436	0.1589	0.518
Mof_H 	H 	0.2501	0.6517	0.1242	0.533
Mof_C 	C 	0.2136	0.6794	0.1403	0.689
Mof_H 	H 	0.2269	0.696	0.1477	-0.219
Mof_H 	H 	0.2057	0.6847	0.1198	1.263
Mof_H 	H 	0.1963	0.6767	0.1545	-0.716
Mof_N 	N 	0.13881	0.5891	0.13112	-0.254
Mof_N 	N 	0.17586	0.55469	0.14206	-0.14
Mof_O 	O 	0.12329	0.4306	0.09916	-0.386
Mof_O 	O 	0.14882	0.43945	0.14259	-0.389
Mof_O 	O 	0.15817	0.54485	0.30117	-0.522
Mof_H 	H 	0.1526	0.5481	0.3196	0.331
Mof_O 	O 	0.20922	0.54289	0.31103	-0.3
Mof_H 	H 	0.1189	0.4833	0.0667	0.047
Mof_H 	H 	0.1157	0.5163	0.0817	-0.006
Mof_C 	C 	0.0776	0.4895	0.0896	0.025
Mof_C 	C 	0.0556	0.4788	0.0701	-0.033
Mof_H 	H 	0.0595	0.4725	0.0496	0.048
Mof_C 	C 	0.024	0.4783	0.0852	-0.015
Mof_H 	H 	0.0058	0.4714	0.0752	-0.005
Mof_C 	C 	0.0246	0.4889	0.1147	-0.022
Mof_H 	H 	0.0072	0.4905	0.1277	-0.042
Mof_S 	S 	0.06178	0.49897	0.12523	-0.049
Mof_H 	H 	0.208	0.6026	0.1609	0.141
Mof_H 	H 	0.1787	0.6222	0.1699	0.073
Mof_C 	C 	0.1986	0.6347	0.1267	0.029
Mof_H 	H 	0.1802	0.6416	0.1152	-0.014
Mof_H 	H 	0.2127	0.6245	0.1121	0.595
Mof_C 	C 	0.2152	0.6634	0.1423	1.84
Mof_H 	H 	0.2009	0.6734	0.157	-0.045
Mof_H 	H 	0.2334	0.6563	0.154	-0.065
Mof_C 	C 	0.2255	0.6873	0.1174	-5.683
Mof_H 	H 	0.2357	0.7048	0.1274	1.75
Mof_H 	H 	0.2399	0.6775	0.103	1.718
Mof_H 	H 	0.2074	0.6947	0.1061	0.93
Mof_C 	C 	0.6352	0.94991	0.61829	0.286
Mof_C 	C 	0.63285	0.98421	0.61206	-0.01
Mof_C 	C 	0.6123	0.99428	0.58527	-0.136
Mof_H 	H 	0.6151	0.9803	0.5678	0.015
Mof_H 	H 	0.6181	0.0151	0.5788	0.024
Mof_C 	C 	0.57828	0.9938	0.5956	0.022
Mof_C 	C 	0.5665	0.9993	0.6241	-0.03
Mof_H 	H 	0.5788	0.0043	0.6415	0.065
Mof_C 	C 	0.5317	0.9967	0.625	-0.007
Mof_H 	H 	0.5196	0.9998	0.6429	0.011
Mof_C 	C 	0.5198	0.9893	0.5972	-0.023
Mof_H 	H 	0.4985	0.9865	0.5933	-0.037
Mof_S 	S 	0.54877	0.9854	0.56945	-0.055
Mof_C 	C 	0.64993	0.00348	0.63018	-0.12
Mof_H 	H 	0.6632	0.9938	0.6446	0.098
Mof_C 	C 	0.65031	0.03736	0.63016	0.079
Mof_C 	C 	0.62788	0.05945	0.62371	-0.086
Mof_H 	H 	0.6081	0.0551	0.6155	0.051
Mof_C 	C 	0.66799	0.0854	0.64246	0.103
Mof_C 	C 	0.70376	0.0417	0.6576	-0.02
Mof_C 	C 	0.69896	0.04071	0.69283	0.102
Mof_C 	C 	0.66913	0.04111	0.70626	-0.16
Mof_H 	H 	0.6515	0.0412	0.6933	0.11
Mof_C 	C 	0.66539	0.04139	0.7383	0.101
Mof_H 	H 	0.6453	0.0417	0.7469	0.029
Mof_C 	C 	0.69128	0.04117	0.75784	-0.174
Mof_C 	C 	0.72101	0.03988	0.74464	0.092
Mof_H 	H 	0.7386	0.0389	0.7576	-0.02
Mof_C 	C 	0.72471	0.04004	0.71268	-0.168
Mof_H 	H 	0.7448	0.0397	0.7042	0.058
Mof_C 	C 	0.68735	0.04316	0.79225	0.433
Mof_C 	C 	0.68888	0.11148	0.65282	-0.094
Mof_H 	H 	0.7007	0.1048	0.6709	-0.081
Mof_H 	H 	0.6762	0.1291	0.6589	-0.031
Mof_C 	C 	0.712	0.121	0.6263	-0.446
Mof_H 	H 	0.7004	0.1273	0.6077	-0.349
Mof_H 	H 	0.7253	0.1033	0.6208	0.055
Mof_C 	C 	0.7324	0.1487	0.6383	-1.918
Mof_H 	H 	0.7407	0.1436	0.6589	0.518
Mof_H 	H 	0.7501	0.1517	0.6242	0.533
Mof_C 	C 	0.7136	0.1794	0.6403	0.689
Mof_H 	H 	0.7269	0.196	0.6477	-0.219
Mof_H 	H 	0.7057	0.1847	0.6198	1.263
Mof_H 	H 	0.6963	0.1767	0.6545	-0.716
Mof_N 	N 	0.63881	0.0891	0.63112	-0.254
Mof_N 	N 	0.67586	0.05469	0.64206	-0.14
Mof_O 	O 	0.62329	0.9306	0.59916	-0.386
Mof_O 	O 	0.64882	0.93945	0.64259	-0.389
Mof_O 	O 	0.65817	0.04485	0.80117	-0.522
Mof_H 	H 	0.6526	0.0481	0.8196	0.331
Mof_O 	O 	0.70922	0.04289	0.81103	-0.3
Mof_H 	H 	0.6189	0.9833	0.5667	0.047
Mof_H 	H 	0.6157	0.0163	0.5817	-0.006
Mof_C 	C 	0.5776	0.9895	0.5896	0.025
Mof_C 	C 	0.5556	0.9788	0.5701	-0.033
Mof_H 	H 	0.5595	0.9725	0.5496	0.048
Mof_C 	C 	0.524	0.9783	0.5852	-0.015
Mof_H 	H 	0.5058	0.9714	0.5752	-0.005
Mof_C 	C 	0.5246	0.9889	0.6147	-0.022
Mof_H 	H 	0.5072	0.9905	0.6277	-0.042
Mof_S 	S 	0.56178	0.99897	0.62523	-0.049
Mof_H 	H 	0.708	0.1026	0.6609	0.141
Mof_H 	H 	0.6787	0.1222	0.6699	0.073
Mof_C 	C 	0.6986	0.1347	0.6267	0.029
Mof_H 	H 	0.6802	0.1416	0.6152	-0.014
Mof_H 	H 	0.7127	0.1245	0.6121	0.595
Mof_C 	C 	0.7152	0.1634	0.6423	1.84
Mof_H 	H 	0.7009	0.1734	0.657	-0.045
Mof_H 	H 	0.7334	0.1563	0.654	-0.065
Mof_C 	C 	0.7255	0.1873	0.6174	-5.683
Mof_H 	H 	0.7357	0.2048	0.6274	1.75
Mof_H 	H 	0.7399	0.1775	0.603	1.718
Mof_H 	H 	0.7074	0.1947	0.6061	0.93
Mof_C 	C 	0.3648	0.55009	0.61829	0.286
Mof_C 	C 	0.36715	0.51579	0.61206	-0.01
Mof_C 	C 	0.3877	0.50572	0.58527	-0.136
Mof_H 	H 	0.3849	0.5197	0.5678	0.015
Mof_H 	H 	0.3819	0.4849	0.5788	0.024
Mof_C 	C 	0.42172	0.5062	0.5956	0.022
Mof_C 	C 	0.4335	0.5007	0.6241	-0.03
Mof_H 	H 	0.4212	0.4957	0.6415	0.065
Mof_C 	C 	0.4683	0.5033	0.625	-0.007
Mof_H 	H 	0.4804	0.5002	0.6429	0.011
Mof_C 	C 	0.4802	0.5107	0.5972	-0.023
Mof_H 	H 	0.5015	0.5135	0.5933	-0.037
Mof_S 	S 	0.45123	0.5146	0.56945	-0.055
Mof_C 	C 	0.35007	0.49652	0.63018	-0.12
Mof_H 	H 	0.3368	0.5062	0.6446	0.098
Mof_C 	C 	0.34969	0.46264	0.63016	0.079
Mof_C 	C 	0.37212	0.44055	0.62371	-0.086
Mof_H 	H 	0.3919	0.4449	0.6155	0.051
Mof_C 	C 	0.33201	0.4146	0.64246	0.103
Mof_C 	C 	0.29624	0.4583	0.6576	-0.02
Mof_C 	C 	0.30104	0.45929	0.69283	0.102
Mof_C 	C 	0.33087	0.45889	0.70626	-0.16
Mof_H 	H 	0.3485	0.4588	0.6933	0.11
Mof_C 	C 	0.33461	0.45861	0.7383	0.101
Mof_H 	H 	0.3547	0.4583	0.7469	0.029
Mof_C 	C 	0.30872	0.45883	0.75784	-0.175
Mof_C 	C 	0.27899	0.46012	0.74464	0.092
Mof_H 	H 	0.2614	0.4611	0.7576	-0.02
Mof_C 	C 	0.27529	0.45996	0.71268	-0.168
Mof_H 	H 	0.2552	0.4603	0.7042	0.058
Mof_C 	C 	0.31265	0.45684	0.79225	0.433
Mof_C 	C 	0.31112	0.38852	0.65282	-0.094
Mof_H 	H 	0.2993	0.3952	0.6709	-0.081
Mof_H 	H 	0.3238	0.3709	0.6589	-0.031
Mof_C 	C 	0.288	0.379	0.6263	-0.446
Mof_H 	H 	0.2996	0.3727	0.6077	-0.349
Mof_H 	H 	0.2747	0.3967	0.6208	0.055
Mof_C 	C 	0.2676	0.3513	0.6383	-1.918
Mof_H 	H 	0.2593	0.3564	0.6589	0.518
Mof_H 	H 	0.2499	0.3483	0.6242	0.533
Mof_C 	C 	0.2864	0.3206	0.6403	0.689
Mof_H 	H 	0.2731	0.304	0.6477	-0.219
Mof_H 	H 	0.2943	0.3153	0.6198	1.263
Mof_H 	H 	0.3037	0.3233	0.6545	-0.716
Mof_N 	N 	0.36119	0.4109	0.63112	-0.254
Mof_N 	N 	0.32414	0.44531	0.64206	-0.14
Mof_O 	O 	0.37671	0.5694	0.59916	-0.386
Mof_O 	O 	0.35118	0.56055	0.64259	-0.389
Mof_O 	O 	0.34183	0.45515	0.80117	-0.522
Mof_H 	H 	0.3474	0.4519	0.8196	0.331
Mof_O 	O 	0.29078	0.45711	0.81103	-0.3
Mof_H 	H 	0.3811	0.5167	0.5667	0.047
Mof_H 	H 	0.3843	0.4837	0.5817	-0.006
Mof_C 	C 	0.4224	0.5105	0.5896	0.025
Mof_C 	C 	0.4444	0.5212	0.5701	-0.033
Mof_H 	H 	0.4405	0.5275	0.5496	0.048
Mof_C 	C 	0.476	0.5217	0.5852	-0.015
Mof_H 	H 	0.4942	0.5286	0.5752	-0.005
Mof_C 	C 	0.4754	0.5111	0.6147	-0.022
Mof_H 	H 	0.4928	0.5095	0.6277	-0.042
Mof_S 	S 	0.43822	0.50103	0.62523	-0.049
Mof_H 	H 	0.292	0.3974	0.6609	0.141
Mof_H 	H 	0.3213	0.3778	0.6699	0.073
Mof_C 	C 	0.3014	0.3653	0.6267	0.029
Mof_H 	H 	0.3198	0.3584	0.6152	-0.014
Mof_H 	H 	0.2873	0.3755	0.6121	0.595
Mof_C 	C 	0.2848	0.3366	0.6423	1.84
Mof_H 	H 	0.2991	0.3266	0.657	-0.045
Mof_H 	H 	0.2666	0.3437	0.654	-0.065
Mof_C 	C 	0.2745	0.3127	0.6174	-5.683
Mof_H 	H 	0.2643	0.2952	0.6274	1.75
Mof_H 	H 	0.2601	0.3225	0.603	1.718
Mof_H 	H 	0.2926	0.3053	0.6061	0.93
Mof_C 	C 	0.8648	0.05009	0.11829	0.286
Mof_C 	C 	0.86715	0.01579	0.11206	-0.01
Mof_C 	C 	0.8877	0.00572	0.08527	-0.136
Mof_H 	H 	0.8849	0.0197	0.0678	0.015
Mof_H 	H 	0.8819	0.9849	0.0788	0.024
Mof_C 	C 	0.92172	0.0062	0.0956	0.022
Mof_C 	C 	0.9335	0.0007	0.1241	-0.03
Mof_H 	H 	0.9212	0.9957	0.1415	0.065
Mof_C 	C 	0.9683	0.0033	0.125	-0.007
Mof_H 	H 	0.9804	0.0002	0.1429	0.011
Mof_C 	C 	0.9802	0.0107	0.0972	-0.023
Mof_H 	H 	0.0015	0.0135	0.0933	-0.037
Mof_S 	S 	0.95123	0.0146	0.06945	-0.055
Mof_C 	C 	0.85007	0.99652	0.13018	-0.12
Mof_H 	H 	0.8368	0.0062	0.1446	0.098
Mof_C 	C 	0.84969	0.96264	0.13016	0.079
Mof_C 	C 	0.87212	0.94055	0.12371	-0.086
Mof_H 	H 	0.8919	0.9449	0.1155	0.051
Mof_C 	C 	0.83201	0.9146	0.14246	0.103
Mof_C 	C 	0.79624	0.9583	0.1576	-0.02
Mof_C 	C 	0.80104	0.95929	0.19283	0.102
Mof_C 	C 	0.83087	0.95889	0.20626	-0.16
Mof_H 	H 	0.8485	0.9588	0.1933	0.11
Mof_C 	C 	0.83461	0.95861	0.2383	0.101
Mof_H 	H 	0.8547	0.9583	0.2469	0.029
Mof_C 	C 	0.80872	0.95883	0.25784	-0.174
Mof_C 	C 	0.77899	0.96012	0.24464	0.092
Mof_H 	H 	0.7614	0.9611	0.2576	-0.02
Mof_C 	C 	0.77529	0.95996	0.21268	-0.168
Mof_H 	H 	0.7552	0.9603	0.2042	0.058
Mof_C 	C 	0.81265	0.95684	0.29225	0.433
Mof_C 	C 	0.81112	0.88852	0.15282	-0.094
Mof_H 	H 	0.7993	0.8952	0.1709	-0.081
Mof_H 	H 	0.8238	0.8709	0.1589	-0.031
Mof_C 	C 	0.788	0.879	0.1263	-0.446
Mof_H 	H 	0.7996	0.8727	0.1077	-0.349
Mof_H 	H 	0.7747	0.8967	0.1208	0.055
Mof_C 	C 	0.7676	0.8513	0.1383	-1.918
Mof_H 	H 	0.7593	0.8564	0.1589	0.518
Mof_H 	H 	0.7499	0.8483	0.1242	0.533
Mof_C 	C 	0.7864	0.8206	0.1403	0.689
Mof_H 	H 	0.7731	0.804	0.1477	-0.219
Mof_H 	H 	0.7943	0.8153	0.1198	1.263
Mof_H 	H 	0.8037	0.8233	0.1545	-0.716
Mof_N 	N 	0.86119	0.9109	0.13112	-0.254
Mof_N 	N 	0.82414	0.94531	0.14206	-0.14
Mof_O 	O 	0.87671	0.0694	0.09916	-0.386
Mof_O 	O 	0.85118	0.06055	0.14259	-0.389
Mof_O 	O 	0.84183	0.95515	0.30117	-0.522
Mof_H 	H 	0.8474	0.9519	0.3196	0.331
Mof_O 	O 	0.79078	0.95711	0.31103	-0.3
Mof_H 	H 	0.8811	0.0167	0.0667	0.047
Mof_H 	H 	0.8843	0.9837	0.0817	-0.006
Mof_C 	C 	0.9224	0.0105	0.0896	0.025
Mof_C 	C 	0.9444	0.0212	0.0701	-0.033
Mof_H 	H 	0.9405	0.0275	0.0496	0.048
Mof_C 	C 	0.976	0.0217	0.0852	-0.015
Mof_H 	H 	0.9942	0.0286	0.0752	-0.005
Mof_C 	C 	0.9754	0.0111	0.1147	-0.022
Mof_H 	H 	0.9928	0.0095	0.1277	-0.042
Mof_S 	S 	0.93822	0.00103	0.12523	-0.049
Mof_H 	H 	0.792	0.8974	0.1609	0.141
Mof_H 	H 	0.8213	0.8778	0.1699	0.073
Mof_C 	C 	0.8014	0.8653	0.1267	0.029
Mof_H 	H 	0.8198	0.8584	0.1152	-0.014
Mof_H 	H 	0.7873	0.8755	0.1121	0.595
Mof_C 	C 	0.7848	0.8366	0.1423	1.84
Mof_H 	H 	0.7991	0.8266	0.157	-0.045
Mof_H 	H 	0.7666	0.8437	0.154	-0.065
Mof_C 	C 	0.7745	0.8127	0.1174	-5.683
Mof_H 	H 	0.7643	0.7952	0.1274	1.75
Mof_H 	H 	0.7601	0.8225	0.103	1.718
Mof_H 	H 	0.7926	0.8053	0.1061	0.93
Mof_C 	C 	0.6352	0.05009	0.88171	0.286
Mof_C 	C 	0.63285	0.01579	0.88794	-0.01
Mof_C 	C 	0.6123	0.00572	0.91473	-0.136
Mof_H 	H 	0.6151	0.0197	0.9322	0.015
Mof_H 	H 	0.6181	0.9849	0.9212	0.024
Mof_C 	C 	0.57828	0.0062	0.9044	0.022
Mof_C 	C 	0.5665	0.0007	0.8759	-0.03
Mof_H 	H 	0.5788	0.9957	0.8585	0.065
Mof_C 	C 	0.5317	0.0033	0.875	-0.007
Mof_H 	H 	0.5196	0.0002	0.8571	0.011
Mof_C 	C 	0.5198	0.0107	0.9028	-0.023
Mof_H 	H 	0.4985	0.0135	0.9067	-0.037
Mof_S 	S 	0.54877	0.0146	0.93055	-0.055
Mof_C 	C 	0.64993	0.99652	0.86982	-0.12
Mof_H 	H 	0.6632	0.0062	0.8554	0.098
Mof_C 	C 	0.65031	0.96264	0.86984	0.079
Mof_C 	C 	0.62788	0.94055	0.87629	-0.086
Mof_H 	H 	0.6081	0.9449	0.8845	0.051
Mof_C 	C 	0.66799	0.9146	0.85754	0.103
Mof_C 	C 	0.70376	0.9583	0.8424	-0.02
Mof_C 	C 	0.69896	0.95929	0.80717	0.102
Mof_C 	C 	0.66913	0.95889	0.79374	-0.16
Mof_H 	H 	0.6515	0.9588	0.8067	0.11
Mof_C 	C 	0.66539	0.95861	0.7617	0.101
Mof_H 	H 	0.6453	0.9583	0.7531	0.029
Mof_C 	C 	0.69128	0.95883	0.74216	-0.174
Mof_C 	C 	0.72101	0.96012	0.75536	0.092
Mof_H 	H 	0.7386	0.9611	0.7424	-0.02
Mof_C 	C 	0.72471	0.95996	0.78732	-0.168
Mof_H 	H 	0.7448	0.9603	0.7958	0.058
Mof_C 	C 	0.68735	0.95684	0.70775	0.433
Mof_C 	C 	0.68888	0.88852	0.84718	-0.094
Mof_H 	H 	0.7007	0.8952	0.8291	-0.081
Mof_H 	H 	0.6762	0.8709	0.8411	-0.031
Mof_C 	C 	0.712	0.879	0.8737	-0.446
Mof_H 	H 	0.7004	0.8727	0.8923	-0.349
Mof_H 	H 	0.7253	0.8967	0.8792	0.055
Mof_C 	C 	0.7324	0.8513	0.8617	-1.918
Mof_H 	H 	0.7407	0.8564	0.8411	0.518
Mof_H 	H 	0.7501	0.8483	0.8758	0.533
Mof_C 	C 	0.7136	0.8206	0.8597	0.689
Mof_H 	H 	0.7269	0.804	0.8523	-0.219
Mof_H 	H 	0.7057	0.8153	0.8802	1.263
Mof_H 	H 	0.6963	0.8233	0.8455	-0.716
Mof_N 	N 	0.63881	0.9109	0.86888	-0.254
Mof_N 	N 	0.67586	0.94531	0.85794	-0.14
Mof_O 	O 	0.62329	0.0694	0.90084	-0.386
Mof_O 	O 	0.64882	0.06055	0.85741	-0.389
Mof_O 	O 	0.65817	0.95515	0.69883	-0.522
Mof_H 	H 	0.6526	0.9519	0.6804	0.331
Mof_O 	O 	0.70922	0.95711	0.68897	-0.3
Mof_H 	H 	0.6189	0.0167	0.9333	0.047
Mof_H 	H 	0.6157	0.9837	0.9183	-0.006
Mof_C 	C 	0.5776	0.0105	0.9104	0.025
Mof_C 	C 	0.5556	0.0212	0.9299	-0.033
Mof_H 	H 	0.5595	0.0275	0.9504	0.048
Mof_C 	C 	0.524	0.0217	0.9148	-0.015
Mof_H 	H 	0.5058	0.0286	0.9248	-0.005
Mof_C 	C 	0.5246	0.0111	0.8853	-0.022
Mof_H 	H 	0.5072	0.0095	0.8723	-0.042
Mof_S 	S 	0.56178	0.00103	0.87477	-0.049
Mof_H 	H 	0.708	0.8974	0.8391	0.141
Mof_H 	H 	0.6787	0.8778	0.8301	0.073
Mof_C 	C 	0.6986	0.8653	0.8733	0.029
Mof_H 	H 	0.6802	0.8584	0.8848	-0.014
Mof_H 	H 	0.7127	0.8755	0.8879	0.595
Mof_C 	C 	0.7152	0.8366	0.8577	1.84
Mof_H 	H 	0.7009	0.8266	0.843	-0.045
Mof_H 	H 	0.7334	0.8437	0.846	-0.065
Mof_C 	C 	0.7255	0.8127	0.8826	-5.683
Mof_H 	H 	0.7357	0.7952	0.8726	1.75
Mof_H 	H 	0.7399	0.8225	0.897	1.718
Mof_H 	H 	0.7074	0.8053	0.8939	0.93
Mof_C 	C 	0.1352	0.55009	0.38171	0.286
Mof_C 	C 	0.13285	0.51579	0.38794	-0.01
Mof_C 	C 	0.1123	0.50572	0.41473	-0.136
Mof_H 	H 	0.1151	0.5197	0.4322	0.015
Mof_H 	H 	0.1181	0.4849	0.4212	0.024
Mof_C 	C 	0.07828	0.5062	0.4044	0.022
Mof_C 	C 	0.0665	0.5007	0.3759	-0.03
Mof_H 	H 	0.0788	0.4957	0.3585	0.065
Mof_C 	C 	0.0317	0.5033	0.375	-0.007
Mof_H 	H 	0.0196	0.5002	0.3571	0.011
Mof_C 	C 	0.0198	0.5107	0.4028	-0.023
Mof_H 	H 	0.9985	0.5135	0.4067	-0.037
Mof_S 	S 	0.04877	0.5146	0.43055	-0.055
Mof_C 	C 	0.14993	0.49652	0.36982	-0.12
Mof_H 	H 	0.1632	0.5062	0.3554	0.098
Mof_C 	C 	0.15031	0.46264	0.36984	0.079
Mof_C 	C 	0.12788	0.44055	0.37629	-0.086
Mof_H 	H 	0.1081	0.4449	0.3845	0.051
Mof_C 	C 	0.16799	0.4146	0.35754	0.103
Mof_C 	C 	0.20376	0.4583	0.3424	-0.02
Mof_C 	C 	0.19896	0.45929	0.30717	0.102
Mof_C 	C 	0.16913	0.45889	0.29374	-0.16
Mof_H 	H 	0.1515	0.4588	0.3067	0.11
Mof_C 	C 	0.16539	0.45861	0.2617	0.101
Mof_H 	H 	0.1453	0.4583	0.2531	0.029
Mof_C 	C 	0.19128	0.45883	0.24216	-0.175
Mof_C 	C 	0.22101	0.46012	0.25536	0.092
Mof_H 	H 	0.2386	0.4611	0.2424	-0.02
Mof_C 	C 	0.22471	0.45996	0.28732	-0.168
Mof_H 	H 	0.2448	0.4603	0.2958	0.058
Mof_C 	C 	0.18735	0.45684	0.20775	0.433
Mof_C 	C 	0.18888	0.38852	0.34718	-0.094
Mof_H 	H 	0.2007	0.3952	0.3291	-0.081
Mof_H 	H 	0.1762	0.3709	0.3411	-0.031
Mof_C 	C 	0.212	0.379	0.3737	-0.446
Mof_H 	H 	0.2004	0.3727	0.3923	-0.349
Mof_H 	H 	0.2253	0.3967	0.3792	0.055
Mof_C 	C 	0.2324	0.3513	0.3617	-1.918
Mof_H 	H 	0.2407	0.3564	0.3411	0.518
Mof_H 	H 	0.2501	0.3483	0.3758	0.533
Mof_C 	C 	0.2136	0.3206	0.3597	0.689
Mof_H 	H 	0.2269	0.304	0.3523	-0.219
Mof_H 	H 	0.2057	0.3153	0.3802	1.263
Mof_H 	H 	0.1963	0.3233	0.3455	-0.716
Mof_N 	N 	0.13881	0.4109	0.36888	-0.254
Mof_N 	N 	0.17586	0.44531	0.35794	-0.14
Mof_O 	O 	0.12329	0.5694	0.40084	-0.386
Mof_O 	O 	0.14882	0.56055	0.35741	-0.389
Mof_O 	O 	0.15817	0.45515	0.19883	-0.522
Mof_H 	H 	0.1526	0.4519	0.1804	0.331
Mof_O 	O 	0.20922	0.45711	0.18897	-0.3
Mof_H 	H 	0.1189	0.5167	0.4333	0.047
Mof_H 	H 	0.1157	0.4837	0.4183	-0.006
Mof_C 	C 	0.0776	0.5105	0.4104	0.025
Mof_C 	C 	0.0556	0.5212	0.4299	-0.033
Mof_H 	H 	0.0595	0.5275	0.4504	0.048
Mof_C 	C 	0.024	0.5217	0.4148	-0.015
Mof_H 	H 	0.0058	0.5286	0.4248	-0.005
Mof_C 	C 	0.0246	0.5111	0.3853	-0.022
Mof_H 	H 	0.0072	0.5095	0.3723	-0.042
Mof_S 	S 	0.06178	0.50103	0.37477	-0.049
Mof_H 	H 	0.208	0.3974	0.3391	0.141
Mof_H 	H 	0.1787	0.3778	0.3301	0.073
Mof_C 	C 	0.1986	0.3653	0.3733	0.029
Mof_H 	H 	0.1802	0.3584	0.3848	-0.014
Mof_H 	H 	0.2127	0.3755	0.3879	0.595
Mof_C 	C 	0.2152	0.3366	0.3577	1.84
Mof_H 	H 	0.2009	0.3266	0.343	-0.045
Mof_H 	H 	0.2334	0.3437	0.346	-0.065
Mof_C 	C 	0.2255	0.3127	0.3826	-5.683
Mof_H 	H 	0.2357	0.2952	0.3726	1.75
Mof_H 	H 	0.2399	0.3225	0.397	1.718
Mof_H 	H 	0.2074	0.3053	0.3939	0.93
Mof_C 	C 	0.6148	0.63171	0.30009	0.286
Mof_C 	C 	0.61715	0.63794	0.26579	-0.01
Mof_C 	C 	0.6377	0.66473	0.25572	-0.136
Mof_H 	H 	0.6349	0.6822	0.2697	0.015
Mof_H 	H 	0.6319	0.6712	0.2349	0.024
Mof_C 	C 	0.67172	0.6544	0.2562	0.022
Mof_C 	C 	0.6835	0.6259	0.2507	-0.03
Mof_H 	H 	0.6712	0.6085	0.2457	0.065
Mof_C 	C 	0.7183	0.625	0.2533	-0.007
Mof_H 	H 	0.7304	0.6071	0.2502	0.011
Mof_C 	C 	0.7302	0.6528	0.2607	-0.023
Mof_H 	H 	0.7515	0.6567	0.2635	-0.037
Mof_S 	S 	0.70123	0.68055	0.2646	-0.055
Mof_C 	C 	0.60007	0.61982	0.24652	-0.12
Mof_H 	H 	0.5868	0.6054	0.2562	0.098
Mof_C 	C 	0.59969	0.61984	0.21264	0.079
Mof_C 	C 	0.62212	0.62629	0.19055	-0.086
Mof_H 	H 	0.6419	0.6345	0.1949	0.051
Mof_C 	C 	0.58201	0.60754	0.1646	0.103
Mof_C 	C 	0.54624	0.5924	0.2083	-0.02
Mof_C 	C 	0.55104	0.55717	0.20929	0.102
Mof_C 	C 	0.58087	0.54374	0.20889	-0.16
Mof_H 	H 	0.5985	0.5567	0.2088	0.11
Mof_C 	C 	0.58461	0.5117	0.20861	0.101
Mof_H 	H 	0.6047	0.5031	0.2083	0.029
Mof_C 	C 	0.55872	0.49216	0.20883	-0.175
Mof_C 	C 	0.52899	0.50536	0.21012	0.092
Mof_H 	H 	0.5114	0.4924	0.2111	-0.02
Mof_C 	C 	0.52529	0.53732	0.20996	-0.168
Mof_H 	H 	0.5052	0.5458	0.2103	0.058
Mof_C 	C 	0.56265	0.45775	0.20684	0.433
Mof_C 	C 	0.56112	0.59718	0.13852	-0.094
Mof_H 	H 	0.5493	0.5791	0.1452	-0.081
Mof_H 	H 	0.5738	0.5911	0.1209	-0.031
Mof_C 	C 	0.538	0.6237	0.129	-0.446
Mof_H 	H 	0.5496	0.6423	0.1227	-0.349
Mof_H 	H 	0.5247	0.6292	0.1467	0.055
Mof_C 	C 	0.5176	0.6117	0.1013	-1.918
Mof_H 	H 	0.5093	0.5911	0.1064	0.518
Mof_H 	H 	0.4999	0.6258	0.0983	0.533
Mof_C 	C 	0.5364	0.6097	0.0706	0.689
Mof_H 	H 	0.5231	0.6023	0.054	-0.219
Mof_H 	H 	0.5443	0.6302	0.0653	1.263
Mof_H 	H 	0.5537	0.5955	0.0733	-0.716
Mof_N 	N 	0.61119	0.61888	0.1609	-0.254
Mof_N 	N 	0.57414	0.60794	0.19531	-0.14
Mof_O 	O 	0.62671	0.65084	0.3194	-0.386
Mof_O 	O 	0.60118	0.60741	0.31055	-0.389
Mof_O 	O 	0.59183	0.44883	0.20515	-0.522
Mof_H 	H 	0.5974	0.4304	0.2019	0.331
Mof_O 	O 	0.54078	0.43897	0.20711	-0.3
Mof_H 	H 	0.6311	0.6833	0.2667	0.047
Mof_H 	H 	0.6343	0.6683	0.2337	-0.006
Mof_C 	C 	0.6724	0.6604	0.2605	0.025
Mof_C 	C 	0.6944	0.6799	0.2712	-0.033
Mof_H 	H 	0.6905	0.7004	0.2775	0.048
Mof_C 	C 	0.726	0.6648	0.2717	-0.015
Mof_H 	H 	0.7442	0.6748	0.2786	-0.005
Mof_C 	C 	0.7254	0.6353	0.2611	-0.022
Mof_H 	H 	0.7428	0.6223	0.2595	-0.042
Mof_S 	S 	0.68822	0.62477	0.25103	-0.049
Mof_H 	H 	0.542	0.5891	0.1474	0.141
Mof_H 	H 	0.5713	0.5801	0.1278	0.073
Mof_C 	C 	0.5514	0.6233	0.1153	0.029
Mof_H 	H 	0.5698	0.6348	0.1084	-0.014
Mof_H 	H 	0.5373	0.6379	0.1255	0.595
Mof_C 	C 	0.5348	0.6077	0.0866	1.84
Mof_H 	H 	0.5491	0.593	0.0766	-0.045
Mof_H 	H 	0.5166	0.596	0.0937	-0.065
Mof_C 	C 	0.5245	0.6326	0.0627	-5.683
Mof_H 	H 	0.5143	0.6226	0.0452	1.75
Mof_H 	H 	0.5101	0.647	0.0725	1.718
Mof_H 	H 	0.5426	0.6439	0.0553	0.93
Mof_C 	C 	0.1148	0.13171	0.80009	0.286
Mof_C 	C 	0.11715	0.13794	0.76579	-0.01
Mof_C 	C 	0.1377	0.16473	0.75572	-0.136
Mof_H 	H 	0.1349	0.1822	0.7697	0.015
Mof_H 	H 	0.1319	0.1712	0.7349	0.024
Mof_C 	C 	0.17172	0.1544	0.7562	0.022
Mof_C 	C 	0.1835	0.1259	0.7507	-0.03
Mof_H 	H 	0.1712	0.1085	0.7457	0.065
Mof_C 	C 	0.2183	0.125	0.7533	-0.007
Mof_H 	H 	0.2304	0.1071	0.7502	0.011
Mof_C 	C 	0.2302	0.1528	0.7607	-0.023
Mof_H 	H 	0.2515	0.1567	0.7635	-0.037
Mof_S 	S 	0.20123	0.18055	0.7646	-0.055
Mof_C 	C 	0.10007	0.11982	0.74652	-0.12
Mof_H 	H 	0.0868	0.1054	0.7562	0.098
Mof_C 	C 	0.09969	0.11984	0.71264	0.079
Mof_C 	C 	0.12212	0.12629	0.69055	-0.086
Mof_H 	H 	0.1419	0.1345	0.6949	0.051
Mof_C 	C 	0.08201	0.10754	0.6646	0.103
Mof_C 	C 	0.04624	0.0924	0.7083	-0.02
Mof_C 	C 	0.05104	0.05717	0.70929	0.102
Mof_C 	C 	0.08087	0.04374	0.70889	-0.16
Mof_H 	H 	0.0985	0.0567	0.7088	0.11
Mof_C 	C 	0.08461	0.0117	0.70861	0.101
Mof_H 	H 	0.1047	0.0031	0.7083	0.029
Mof_C 	C 	0.05872	0.99216	0.70883	-0.174
Mof_C 	C 	0.02899	0.00536	0.71012	0.092
Mof_H 	H 	0.0114	0.9924	0.7111	-0.02
Mof_C 	C 	0.02529	0.03732	0.70996	-0.168
Mof_H 	H 	0.0052	0.0458	0.7103	0.058
Mof_C 	C 	0.06265	0.95775	0.70684	0.433
Mof_C 	C 	0.06112	0.09718	0.63852	-0.094
Mof_H 	H 	0.0493	0.0791	0.6452	-0.081
Mof_H 	H 	0.0738	0.0911	0.6209	-0.031
Mof_C 	C 	0.038	0.1237	0.629	-0.446
Mof_H 	H 	0.0496	0.1423	0.6227	-0.349
Mof_H 	H 	0.0247	0.1292	0.6467	0.055
Mof_C 	C 	0.0176	0.1117	0.6013	-1.918
Mof_H 	H 	0.0093	0.0911	0.6064	0.518
Mof_H 	H 	0.9999	0.1258	0.5983	0.533
Mof_C 	C 	0.0364	0.1097	0.5706	0.689
Mof_H 	H 	0.0231	0.1023	0.554	-0.219
Mof_H 	H 	0.0443	0.1302	0.5653	1.263
Mof_H 	H 	0.0537	0.0955	0.5733	-0.716
Mof_N 	N 	0.11119	0.11888	0.6609	-0.254
Mof_N 	N 	0.07414	0.10794	0.69531	-0.14
Mof_O 	O 	0.12671	0.15084	0.8194	-0.386
Mof_O 	O 	0.10118	0.10741	0.81055	-0.389
Mof_O 	O 	0.09183	0.94883	0.70515	-0.522
Mof_H 	H 	0.0974	0.9304	0.7019	0.331
Mof_O 	O 	0.04078	0.93897	0.70711	-0.3
Mof_H 	H 	0.1311	0.1833	0.7667	0.047
Mof_H 	H 	0.1343	0.1683	0.7337	-0.006
Mof_C 	C 	0.1724	0.1604	0.7605	0.025
Mof_C 	C 	0.1944	0.1799	0.7712	-0.033
Mof_H 	H 	0.1905	0.2004	0.7775	0.048
Mof_C 	C 	0.226	0.1648	0.7717	-0.015
Mof_H 	H 	0.2442	0.1748	0.7786	-0.005
Mof_C 	C 	0.2254	0.1353	0.7611	-0.022
Mof_H 	H 	0.2428	0.1223	0.7595	-0.042
Mof_S 	S 	0.18822	0.12477	0.75103	-0.049
Mof_H 	H 	0.042	0.0891	0.6474	0.141
Mof_H 	H 	0.0713	0.0801	0.6278	0.073
Mof_C 	C 	0.0514	0.1233	0.6153	0.029
Mof_H 	H 	0.0698	0.1348	0.6084	-0.014
Mof_H 	H 	0.0373	0.1379	0.6255	0.595
Mof_C 	C 	0.0348	0.1077	0.5866	1.84
Mof_H 	H 	0.0491	0.093	0.5766	-0.045
Mof_H 	H 	0.0166	0.096	0.5937	-0.065
Mof_C 	C 	0.0245	0.1326	0.5627	-5.683
Mof_H 	H 	0.0143	0.1226	0.5452	1.75
Mof_H 	H 	0.0101	0.147	0.5725	1.718
Mof_H 	H 	0.0426	0.1439	0.5553	0.93
Mof_C 	C 	0.8852	0.36829	0.80009	0.286
Mof_C 	C 	0.88285	0.36206	0.76579	-0.01
Mof_C 	C 	0.8623	0.33527	0.75572	-0.136
Mof_H 	H 	0.8651	0.3178	0.7697	0.015
Mof_H 	H 	0.8681	0.3288	0.7349	0.024
Mof_C 	C 	0.82828	0.3456	0.7562	0.022
Mof_C 	C 	0.8165	0.3741	0.7507	-0.03
Mof_H 	H 	0.8288	0.3915	0.7457	0.065
Mof_C 	C 	0.7817	0.375	0.7533	-0.007
Mof_H 	H 	0.7696	0.3929	0.7502	0.011
Mof_C 	C 	0.7698	0.3472	0.7607	-0.023
Mof_H 	H 	0.7485	0.3433	0.7635	-0.037
Mof_S 	S 	0.79877	0.31945	0.7646	-0.055
Mof_C 	C 	0.89993	0.38018	0.74652	-0.12
Mof_H 	H 	0.9132	0.3946	0.7562	0.098
Mof_C 	C 	0.90031	0.38016	0.71264	0.079
Mof_C 	C 	0.87788	0.37371	0.69055	-0.086
Mof_H 	H 	0.8581	0.3655	0.6949	0.051
Mof_C 	C 	0.91799	0.39246	0.6646	0.103
Mof_C 	C 	0.95376	0.4076	0.7083	-0.02
Mof_C 	C 	0.94896	0.44283	0.70929	0.102
Mof_C 	C 	0.91913	0.45626	0.70889	-0.16
Mof_H 	H 	0.9015	0.4433	0.7088	0.11
Mof_C 	C 	0.91539	0.4883	0.70861	0.101
Mof_H 	H 	0.8953	0.4969	0.7083	0.029
Mof_C 	C 	0.94128	0.50784	0.70883	-0.174
Mof_C 	C 	0.97101	0.49464	0.71012	0.092
Mof_H 	H 	0.9886	0.5076	0.7111	-0.02
Mof_C 	C 	0.97471	0.46268	0.70996	-0.168
Mof_H 	H 	0.9948	0.4542	0.7103	0.058
Mof_C 	C 	0.93735	0.54225	0.70684	0.433
Mof_C 	C 	0.93888	0.40282	0.63852	-0.094
Mof_H 	H 	0.9507	0.4209	0.6452	-0.081
Mof_H 	H 	0.9262	0.4089	0.6209	-0.031
Mof_C 	C 	0.962	0.3763	0.629	-0.446
Mof_H 	H 	0.9504	0.3577	0.6227	-0.349
Mof_H 	H 	0.9753	0.3708	0.6467	0.055
Mof_C 	C 	0.9824	0.3883	0.6013	-1.918
Mof_H 	H 	0.9907	0.4089	0.6064	0.518
Mof_H 	H 	0.0001	0.3742	0.5983	0.533
Mof_C 	C 	0.9636	0.3903	0.5706	0.689
Mof_H 	H 	0.9769	0.3977	0.554	-0.219
Mof_H 	H 	0.9557	0.3698	0.5653	1.263
Mof_H 	H 	0.9463	0.4045	0.5733	-0.716
Mof_N 	N 	0.88881	0.38112	0.6609	-0.254
Mof_N 	N 	0.92586	0.39206	0.69531	-0.14
Mof_O 	O 	0.87329	0.34916	0.8194	-0.386
Mof_O 	O 	0.89882	0.39259	0.81055	-0.389
Mof_O 	O 	0.90817	0.55117	0.70515	-0.522
Mof_H 	H 	0.9026	0.5696	0.7019	0.331
Mof_O 	O 	0.95922	0.56103	0.70711	-0.3
Mof_H 	H 	0.8689	0.3167	0.7667	0.047
Mof_H 	H 	0.8657	0.3317	0.7337	-0.006
Mof_C 	C 	0.8276	0.3396	0.7605	0.025
Mof_C 	C 	0.8056	0.3201	0.7712	-0.033
Mof_H 	H 	0.8095	0.2996	0.7775	0.048
Mof_C 	C 	0.774	0.3352	0.7717	-0.015
Mof_H 	H 	0.7558	0.3252	0.7786	-0.005
Mof_C 	C 	0.7746	0.3647	0.7611	-0.022
Mof_H 	H 	0.7572	0.3777	0.7595	-0.042
Mof_S 	S 	0.81178	0.37523	0.75103	-0.049
Mof_H 	H 	0.958	0.4109	0.6474	0.141
Mof_H 	H 	0.9287	0.4199	0.6278	0.073
Mof_C 	C 	0.9486	0.3767	0.6153	0.029
Mof_H 	H 	0.9302	0.3652	0.6084	-0.014
Mof_H 	H 	0.9627	0.3621	0.6255	0.595
Mof_C 	C 	0.9652	0.3923	0.5866	1.84
Mof_H 	H 	0.9509	0.407	0.5766	-0.045
Mof_H 	H 	0.9834	0.404	0.5937	-0.065
Mof_C 	C 	0.9755	0.3674	0.5627	-5.683
Mof_H 	H 	0.9857	0.3774	0.5452	1.75
Mof_H 	H 	0.9899	0.353	0.5725	1.718
Mof_H 	H 	0.9574	0.3561	0.5553	0.93
Mof_C 	C 	0.3852	0.86829	0.30009	0.286
Mof_C 	C 	0.38285	0.86206	0.26579	-0.01
Mof_C 	C 	0.3623	0.83527	0.25572	-0.136
Mof_H 	H 	0.3651	0.8178	0.2697	0.015
Mof_H 	H 	0.3681	0.8288	0.2349	0.024
Mof_C 	C 	0.32828	0.8456	0.2562	0.022
Mof_C 	C 	0.3165	0.8741	0.2507	-0.03
Mof_H 	H 	0.3288	0.8915	0.2457	0.065
Mof_C 	C 	0.2817	0.875	0.2533	-0.007
Mof_H 	H 	0.2696	0.8929	0.2502	0.011
Mof_C 	C 	0.2698	0.8472	0.2607	-0.023
Mof_H 	H 	0.2485	0.8433	0.2635	-0.037
Mof_S 	S 	0.29877	0.81945	0.2646	-0.055
Mof_C 	C 	0.39993	0.88018	0.24652	-0.12
Mof_H 	H 	0.4132	0.8946	0.2562	0.098
Mof_C 	C 	0.40031	0.88016	0.21264	0.079
Mof_C 	C 	0.37788	0.87371	0.19055	-0.086
Mof_H 	H 	0.3581	0.8655	0.1949	0.051
Mof_C 	C 	0.41799	0.89246	0.1646	0.103
Mof_C 	C 	0.45376	0.9076	0.2083	-0.02
Mof_C 	C 	0.44896	0.94283	0.20929	0.102
Mof_C 	C 	0.41913	0.95626	0.20889	-0.16
Mof_H 	H 	0.4015	0.9433	0.2088	0.11
Mof_C 	C 	0.41539	0.9883	0.20861	0.101
Mof_H 	H 	0.3953	0.9969	0.2083	0.029
Mof_C 	C 	0.44128	0.00784	0.20883	-0.174
Mof_C 	C 	0.47101	0.99464	0.21012	0.092
Mof_H 	H 	0.4886	0.0076	0.2111	-0.02
Mof_C 	C 	0.47471	0.96268	0.20996	-0.168
Mof_H 	H 	0.4948	0.9542	0.2103	0.058
Mof_C 	C 	0.43735	0.04225	0.20684	0.433
Mof_C 	C 	0.43888	0.90282	0.13852	-0.094
Mof_H 	H 	0.4507	0.9209	0.1452	-0.081
Mof_H 	H 	0.4262	0.9089	0.1209	-0.031
Mof_C 	C 	0.462	0.8763	0.129	-0.446
Mof_H 	H 	0.4504	0.8577	0.1227	-0.349
Mof_H 	H 	0.4753	0.8708	0.1467	0.055
Mof_C 	C 	0.4824	0.8883	0.1013	-1.918
Mof_H 	H 	0.4907	0.9089	0.1064	0.518
Mof_H 	H 	0.5001	0.8742	0.0983	0.533
Mof_C 	C 	0.4636	0.8903	0.0706	0.689
Mof_H 	H 	0.4769	0.8977	0.054	-0.219
Mof_H 	H 	0.4557	0.8698	0.0653	1.263
Mof_H 	H 	0.4463	0.9045	0.0733	-0.716
Mof_N 	N 	0.38881	0.88112	0.1609	-0.254
Mof_N 	N 	0.42586	0.89206	0.19531	-0.14
Mof_O 	O 	0.37329	0.84916	0.3194	-0.386
Mof_O 	O 	0.39882	0.89259	0.31055	-0.389
Mof_O 	O 	0.40817	0.05117	0.20515	-0.522
Mof_H 	H 	0.4026	0.0696	0.2019	0.331
Mof_O 	O 	0.45922	0.06103	0.20711	-0.3
Mof_H 	H 	0.3689	0.8167	0.2667	0.047
Mof_H 	H 	0.3657	0.8317	0.2337	-0.006
Mof_C 	C 	0.3276	0.8396	0.2605	0.025
Mof_C 	C 	0.3056	0.8201	0.2712	-0.033
Mof_H 	H 	0.3095	0.7996	0.2775	0.048
Mof_C 	C 	0.274	0.8352	0.2717	-0.015
Mof_H 	H 	0.2558	0.8252	0.2786	-0.005
Mof_C 	C 	0.2746	0.8647	0.2611	-0.022
Mof_H 	H 	0.2572	0.8777	0.2595	-0.042
Mof_S 	S 	0.31178	0.87523	0.25103	-0.049
Mof_H 	H 	0.458	0.9109	0.1474	0.141
Mof_H 	H 	0.4287	0.9199	0.1278	0.073
Mof_C 	C 	0.4486	0.8767	0.1153	0.029
Mof_H 	H 	0.4302	0.8652	0.1084	-0.014
Mof_H 	H 	0.4627	0.8621	0.1255	0.595
Mof_C 	C 	0.4652	0.8923	0.0866	1.84
Mof_H 	H 	0.4509	0.907	0.0766	-0.045
Mof_H 	H 	0.4834	0.904	0.0937	-0.065
Mof_C 	C 	0.4755	0.8674	0.0627	-5.683
Mof_H 	H 	0.4857	0.8774	0.0452	1.75
Mof_H 	H 	0.4899	0.853	0.0725	1.718
Mof_H 	H 	0.4574	0.8561	0.0553	0.93
Mof_C 	C 	0.1148	0.86829	0.69991	0.286
Mof_C 	C 	0.11715	0.86206	0.73421	-0.01
Mof_C 	C 	0.1377	0.83527	0.74428	-0.136
Mof_H 	H 	0.1349	0.8178	0.7303	0.015
Mof_H 	H 	0.1319	0.8288	0.7651	0.024
Mof_C 	C 	0.17172	0.8456	0.7438	0.022
Mof_C 	C 	0.1835	0.8741	0.7493	-0.03
Mof_H 	H 	0.1712	0.8915	0.7543	0.065
Mof_C 	C 	0.2183	0.875	0.7467	-0.007
Mof_H 	H 	0.2304	0.8929	0.7498	0.011
Mof_C 	C 	0.2302	0.8472	0.7393	-0.023
Mof_H 	H 	0.2515	0.8433	0.7365	-0.037
Mof_S 	S 	0.20123	0.81945	0.7354	-0.055
Mof_C 	C 	0.10007	0.88018	0.75348	-0.12
Mof_H 	H 	0.0868	0.8946	0.7438	0.098
Mof_C 	C 	0.09969	0.88016	0.78736	0.079
Mof_C 	C 	0.12212	0.87371	0.80945	-0.086
Mof_H 	H 	0.1419	0.8655	0.8051	0.051
Mof_C 	C 	0.08201	0.89246	0.8354	0.103
Mof_C 	C 	0.04624	0.9076	0.7917	-0.02
Mof_C 	C 	0.05104	0.94283	0.79071	0.102
Mof_C 	C 	0.08087	0.95626	0.79111	-0.16
Mof_H 	H 	0.0985	0.9433	0.7912	0.11
Mof_C 	C 	0.08461	0.9883	0.79139	0.101
Mof_H 	H 	0.1047	0.9969	0.7917	0.029
Mof_C 	C 	0.05872	0.00784	0.79117	-0.174
Mof_C 	C 	0.02899	0.99464	0.78988	0.092
Mof_H 	H 	0.0114	0.0076	0.7889	-0.02
Mof_C 	C 	0.02529	0.96268	0.79004	-0.168
Mof_H 	H 	0.0052	0.9542	0.7897	0.058
Mof_C 	C 	0.06265	0.04225	0.79316	0.433
Mof_C 	C 	0.06112	0.90282	0.86148	-0.094
Mof_H 	H 	0.0493	0.9209	0.8548	-0.081
Mof_H 	H 	0.0738	0.9089	0.8791	-0.031
Mof_C 	C 	0.038	0.8763	0.871	-0.446
Mof_H 	H 	0.0496	0.8577	0.8773	-0.349
Mof_H 	H 	0.0247	0.8708	0.8533	0.055
Mof_C 	C 	0.0176	0.8883	0.8987	-1.918
Mof_H 	H 	0.0093	0.9089	0.8936	0.518
Mof_H 	H 	0.9999	0.8742	0.9017	0.533
Mof_C 	C 	0.0364	0.8903	0.9294	0.689
Mof_H 	H 	0.0231	0.8977	0.946	-0.219
Mof_H 	H 	0.0443	0.8698	0.9347	1.263
Mof_H 	H 	0.0537	0.9045	0.9267	-0.716
Mof_N 	N 	0.11119	0.88112	0.8391	-0.254
Mof_N 	N 	0.07414	0.89206	0.80469	-0.14
Mof_O 	O 	0.12671	0.84916	0.6806	-0.386
Mof_O 	O 	0.10118	0.89259	0.68945	-0.389
Mof_O 	O 	0.09183	0.05117	0.79485	-0.522
Mof_H 	H 	0.0974	0.0696	0.7981	0.331
Mof_O 	O 	0.04078	0.06103	0.79289	-0.3
Mof_H 	H 	0.1311	0.8167	0.7333	0.047
Mof_H 	H 	0.1343	0.8317	0.7663	-0.006
Mof_C 	C 	0.1724	0.8396	0.7395	0.025
Mof_C 	C 	0.1944	0.8201	0.7288	-0.033
Mof_H 	H 	0.1905	0.7996	0.7225	0.048
Mof_C 	C 	0.226	0.8352	0.7283	-0.015
Mof_H 	H 	0.2442	0.8252	0.7214	-0.005
Mof_C 	C 	0.2254	0.8647	0.7389	-0.022
Mof_H 	H 	0.2428	0.8777	0.7405	-0.042
Mof_S 	S 	0.18822	0.87523	0.74897	-0.049
Mof_H 	H 	0.042	0.9109	0.8526	0.141
Mof_H 	H 	0.0713	0.9199	0.8722	0.073
Mof_C 	C 	0.0514	0.8767	0.8847	0.029
Mof_H 	H 	0.0698	0.8652	0.8916	-0.014
Mof_H 	H 	0.0373	0.8621	0.8745	0.595
Mof_C 	C 	0.0348	0.8923	0.9134	1.84
Mof_H 	H 	0.0491	0.907	0.9234	-0.045
Mof_H 	H 	0.0166	0.904	0.9063	-0.065
Mof_C 	C 	0.0245	0.8674	0.9373	-5.683
Mof_H 	H 	0.0143	0.8774	0.9548	1.75
Mof_H 	H 	0.0101	0.853	0.9275	1.718
Mof_H 	H 	0.0426	0.8561	0.9447	0.93
Mof_C 	C 	0.6148	0.36829	0.19991	0.286
Mof_C 	C 	0.61715	0.36206	0.23421	-0.01
Mof_C 	C 	0.6377	0.33527	0.24428	-0.136
Mof_H 	H 	0.6349	0.3178	0.2303	0.015
Mof_H 	H 	0.6319	0.3288	0.2651	0.024
Mof_C 	C 	0.67172	0.3456	0.2438	0.022
Mof_C 	C 	0.6835	0.3741	0.2493	-0.03
Mof_H 	H 	0.6712	0.3915	0.2543	0.065
Mof_C 	C 	0.7183	0.375	0.2467	-0.007
Mof_H 	H 	0.7304	0.3929	0.2498	0.011
Mof_C 	C 	0.7302	0.3472	0.2393	-0.023
Mof_H 	H 	0.7515	0.3433	0.2365	-0.037
Mof_S 	S 	0.70123	0.31945	0.2354	-0.055
Mof_C 	C 	0.60007	0.38018	0.25348	-0.12
Mof_H 	H 	0.5868	0.3946	0.2438	0.098
Mof_C 	C 	0.59969	0.38016	0.28736	0.079
Mof_C 	C 	0.62212	0.37371	0.30945	-0.086
Mof_H 	H 	0.6419	0.3655	0.3051	0.051
Mof_C 	C 	0.58201	0.39246	0.3354	0.103
Mof_C 	C 	0.54624	0.4076	0.2917	-0.02
Mof_C 	C 	0.55104	0.44283	0.29071	0.102
Mof_C 	C 	0.58087	0.45626	0.29111	-0.16
Mof_H 	H 	0.5985	0.4433	0.2912	0.11
Mof_C 	C 	0.58461	0.4883	0.29139	0.101
Mof_H 	H 	0.6047	0.4969	0.2917	0.029
Mof_C 	C 	0.55872	0.50784	0.29117	-0.175
Mof_C 	C 	0.52899	0.49464	0.28988	0.092
Mof_H 	H 	0.5114	0.5076	0.2889	-0.02
Mof_C 	C 	0.52529	0.46268	0.29004	-0.168
Mof_H 	H 	0.5052	0.4542	0.2897	0.058
Mof_C 	C 	0.56265	0.54225	0.29316	0.433
Mof_C 	C 	0.56112	0.40282	0.36148	-0.094
Mof_H 	H 	0.5493	0.4209	0.3548	-0.081
Mof_H 	H 	0.5738	0.4089	0.3791	-0.031
Mof_C 	C 	0.538	0.3763	0.371	-0.446
Mof_H 	H 	0.5496	0.3577	0.3773	-0.349
Mof_H 	H 	0.5247	0.3708	0.3533	0.055
Mof_C 	C 	0.5176	0.3883	0.3987	-1.918
Mof_H 	H 	0.5093	0.4089	0.3936	0.518
Mof_H 	H 	0.4999	0.3742	0.4017	0.533
Mof_C 	C 	0.5364	0.3903	0.4294	0.689
Mof_H 	H 	0.5231	0.3977	0.446	-0.219
Mof_H 	H 	0.5443	0.3698	0.4347	1.263
Mof_H 	H 	0.5537	0.4045	0.4267	-0.716
Mof_N 	N 	0.61119	0.38112	0.3391	-0.254
Mof_N 	N 	0.57414	0.39206	0.30469	-0.14
Mof_O 	O 	0.62671	0.34916	0.1806	-0.386
Mof_O 	O 	0.60118	0.39259	0.18945	-0.389
Mof_O 	O 	0.59183	0.55117	0.29485	-0.522
Mof_H 	H 	0.5974	0.5696	0.2981	0.331
Mof_O 	O 	0.54078	0.56103	0.29289	-0.3
Mof_H 	H 	0.6311	0.3167	0.2333	0.047
Mof_H 	H 	0.6343	0.3317	0.2663	-0.006
Mof_C 	C 	0.6724	0.3396	0.2395	0.025
Mof_C 	C 	0.6944	0.3201	0.2288	-0.033
Mof_H 	H 	0.6905	0.2996	0.2225	0.048
Mof_C 	C 	0.726	0.3352	0.2283	-0.015
Mof_H 	H 	0.7442	0.3252	0.2214	-0.005
Mof_C 	C 	0.7254	0.3647	0.2389	-0.022
Mof_H 	H 	0.7428	0.3777	0.2405	-0.042
Mof_S 	S 	0.68822	0.37523	0.24897	-0.049
Mof_H 	H 	0.542	0.4109	0.3526	0.141
Mof_H 	H 	0.5713	0.4199	0.3722	0.073
Mof_C 	C 	0.5514	0.3767	0.3847	0.029
Mof_H 	H 	0.5698	0.3652	0.3916	-0.014
Mof_H 	H 	0.5373	0.3621	0.3745	0.595
Mof_C 	C 	0.5348	0.3923	0.4134	1.84
Mof_H 	H 	0.5491	0.407	0.4234	-0.045
Mof_H 	H 	0.5166	0.404	0.4063	-0.065
Mof_C 	C 	0.5245	0.3674	0.4373	-5.683
Mof_H 	H 	0.5143	0.3774	0.4548	1.75
Mof_H 	H 	0.5101	0.353	0.4275	1.718
Mof_H 	H 	0.5426	0.3561	0.4447	0.93
Mof_C 	C 	0.3852	0.13171	0.19991	0.286
Mof_C 	C 	0.38285	0.13794	0.23421	-0.01
Mof_C 	C 	0.3623	0.16473	0.24428	-0.136
Mof_H 	H 	0.3651	0.1822	0.2303	0.015
Mof_H 	H 	0.3681	0.1712	0.2651	0.024
Mof_C 	C 	0.32828	0.1544	0.2438	0.022
Mof_C 	C 	0.3165	0.1259	0.2493	-0.03
Mof_H 	H 	0.3288	0.1085	0.2543	0.065
Mof_C 	C 	0.2817	0.125	0.2467	-0.007
Mof_H 	H 	0.2696	0.1071	0.2498	0.011
Mof_C 	C 	0.2698	0.1528	0.2393	-0.023
Mof_H 	H 	0.2485	0.1567	0.2365	-0.037
Mof_S 	S 	0.29877	0.18055	0.2354	-0.055
Mof_C 	C 	0.39993	0.11982	0.25348	-0.12
Mof_H 	H 	0.4132	0.1054	0.2438	0.098
Mof_C 	C 	0.40031	0.11984	0.28736	0.079
Mof_C 	C 	0.37788	0.12629	0.30945	-0.086
Mof_H 	H 	0.3581	0.1345	0.3051	0.051
Mof_C 	C 	0.41799	0.10754	0.3354	0.103
Mof_C 	C 	0.45376	0.0924	0.2917	-0.02
Mof_C 	C 	0.44896	0.05717	0.29071	0.102
Mof_C 	C 	0.41913	0.04374	0.29111	-0.16
Mof_H 	H 	0.4015	0.0567	0.2912	0.11
Mof_C 	C 	0.41539	0.0117	0.29139	0.101
Mof_H 	H 	0.3953	0.0031	0.2917	0.029
Mof_C 	C 	0.44128	0.99216	0.29117	-0.174
Mof_C 	C 	0.47101	0.00536	0.28988	0.092
Mof_H 	H 	0.4886	0.9924	0.2889	-0.02
Mof_C 	C 	0.47471	0.03732	0.29004	-0.168
Mof_H 	H 	0.4948	0.0458	0.2897	0.058
Mof_C 	C 	0.43735	0.95775	0.29316	0.433
Mof_C 	C 	0.43888	0.09718	0.36148	-0.094
Mof_H 	H 	0.4507	0.0791	0.3548	-0.081
Mof_H 	H 	0.4262	0.0911	0.3791	-0.031
Mof_C 	C 	0.462	0.1237	0.371	-0.446
Mof_H 	H 	0.4504	0.1423	0.3773	-0.349
Mof_H 	H 	0.4753	0.1292	0.3533	0.055
Mof_C 	C 	0.4824	0.1117	0.3987	-1.918
Mof_H 	H 	0.4907	0.0911	0.3936	0.518
Mof_H 	H 	0.5001	0.1258	0.4017	0.533
Mof_C 	C 	0.4636	0.1097	0.4294	0.689
Mof_H 	H 	0.4769	0.1023	0.446	-0.219
Mof_H 	H 	0.4557	0.1302	0.4347	1.263
Mof_H 	H 	0.4463	0.0955	0.4267	-0.716
Mof_N 	N 	0.38881	0.11888	0.3391	-0.254
Mof_N 	N 	0.42586	0.10794	0.30469	-0.14
Mof_O 	O 	0.37329	0.15084	0.1806	-0.386
Mof_O 	O 	0.39882	0.10741	0.18945	-0.389
Mof_O 	O 	0.40817	0.94883	0.29485	-0.522
Mof_H 	H 	0.4026	0.9304	0.2981	0.331
Mof_O 	O 	0.45922	0.93897	0.29289	-0.3
Mof_H 	H 	0.3689	0.1833	0.2333	0.047
Mof_H 	H 	0.3657	0.1683	0.2663	-0.006
Mof_C 	C 	0.3276	0.1604	0.2395	0.025
Mof_C 	C 	0.3056	0.1799	0.2288	-0.033
Mof_H 	H 	0.3095	0.2004	0.2225	0.048
Mof_C 	C 	0.274	0.1648	0.2283	-0.015
Mof_H 	H 	0.2558	0.1748	0.2214	-0.005
Mof_C 	C 	0.2746	0.1353	0.2389	-0.022
Mof_H 	H 	0.2572	0.1223	0.2405	-0.042
Mof_S 	S 	0.31178	0.12477	0.24897	-0.049
Mof_H 	H 	0.458	0.0891	0.3526	0.141
Mof_H 	H 	0.4287	0.0801	0.3722	0.073
Mof_C 	C 	0.4486	0.1233	0.3847	0.029
Mof_H 	H 	0.4302	0.1348	0.3916	-0.014
Mof_H 	H 	0.4627	0.1379	0.3745	0.595
Mof_C 	C 	0.4652	0.1077	0.4134	1.84
Mof_H 	H 	0.4509	0.093	0.4234	-0.045
Mof_H 	H 	0.4834	0.096	0.4063	-0.065
Mof_C 	C 	0.4755	0.1326	0.4373	-5.683
Mof_H 	H 	0.4857	0.1226	0.4548	1.75
Mof_H 	H 	0.4899	0.147	0.4275	1.718
Mof_H 	H 	0.4574	0.1439	0.4447	0.93
Mof_C 	C 	0.8852	0.63171	0.69991	0.286
Mof_C 	C 	0.88285	0.63794	0.73421	-0.01
Mof_C 	C 	0.8623	0.66473	0.74428	-0.136
Mof_H 	H 	0.8651	0.6822	0.7303	0.015
Mof_H 	H 	0.8681	0.6712	0.7651	0.024
Mof_C 	C 	0.82828	0.6544	0.7438	0.022
Mof_C 	C 	0.8165	0.6259	0.7493	-0.03
Mof_H 	H 	0.8288	0.6085	0.7543	0.065
Mof_C 	C 	0.7817	0.625	0.7467	-0.007
Mof_H 	H 	0.7696	0.6071	0.7498	0.011
Mof_C 	C 	0.7698	0.6528	0.7393	-0.023
Mof_H 	H 	0.7485	0.6567	0.7365	-0.037
Mof_S 	S 	0.79877	0.68055	0.7354	-0.055
Mof_C 	C 	0.89993	0.61982	0.75348	-0.12
Mof_H 	H 	0.9132	0.6054	0.7438	0.098
Mof_C 	C 	0.90031	0.61984	0.78736	0.079
Mof_C 	C 	0.87788	0.62629	0.80945	-0.086
Mof_H 	H 	0.8581	0.6345	0.8051	0.051
Mof_C 	C 	0.91799	0.60754	0.8354	0.103
Mof_C 	C 	0.95376	0.5924	0.7917	-0.02
Mof_C 	C 	0.94896	0.55717	0.79071	0.102
Mof_C 	C 	0.91913	0.54374	0.79111	-0.16
Mof_H 	H 	0.9015	0.5567	0.7912	0.11
Mof_C 	C 	0.91539	0.5117	0.79139	0.101
Mof_H 	H 	0.8953	0.5031	0.7917	0.029
Mof_C 	C 	0.94128	0.49216	0.79117	-0.174
Mof_C 	C 	0.97101	0.50536	0.78988	0.092
Mof_H 	H 	0.9886	0.4924	0.7889	-0.02
Mof_C 	C 	0.97471	0.53732	0.79004	-0.168
Mof_H 	H 	0.9948	0.5458	0.7897	0.058
Mof_C 	C 	0.93735	0.45775	0.79316	0.433
Mof_C 	C 	0.93888	0.59718	0.86148	-0.094
Mof_H 	H 	0.9507	0.5791	0.8548	-0.081
Mof_H 	H 	0.9262	0.5911	0.8791	-0.031
Mof_C 	C 	0.962	0.6237	0.871	-0.446
Mof_H 	H 	0.9504	0.6423	0.8773	-0.349
Mof_H 	H 	0.9753	0.6292	0.8533	0.055
Mof_C 	C 	0.9824	0.6117	0.8987	-1.918
Mof_H 	H 	0.9907	0.5911	0.8936	0.518
Mof_H 	H 	0.0001	0.6258	0.9017	0.533
Mof_C 	C 	0.9636	0.6097	0.9294	0.689
Mof_H 	H 	0.9769	0.6023	0.946	-0.219
Mof_H 	H 	0.9557	0.6302	0.9347	1.263
Mof_H 	H 	0.9463	0.5955	0.9267	-0.716
Mof_N 	N 	0.88881	0.61888	0.8391	-0.254
Mof_N 	N 	0.92586	0.60794	0.80469	-0.14
Mof_O 	O 	0.87329	0.65084	0.6806	-0.386
Mof_O 	O 	0.89882	0.60741	0.68945	-0.389
Mof_O 	O 	0.90817	0.44883	0.79485	-0.522
Mof_H 	H 	0.9026	0.4304	0.7981	0.331
Mof_O 	O 	0.95922	0.43897	0.79289	-0.3
Mof_H 	H 	0.8689	0.6833	0.7333	0.047
Mof_H 	H 	0.8657	0.6683	0.7663	-0.006
Mof_C 	C 	0.8276	0.6604	0.7395	0.025
Mof_C 	C 	0.8056	0.6799	0.7288	-0.033
Mof_H 	H 	0.8095	0.7004	0.7225	0.048
Mof_C 	C 	0.774	0.6648	0.7283	-0.015
Mof_H 	H 	0.7558	0.6748	0.7214	-0.005
Mof_C 	C 	0.7746	0.6353	0.7389	-0.022
Mof_H 	H 	0.7572	0.6223	0.7405	-0.042
Mof_S 	S 	0.81178	0.62477	0.74897	-0.049
Mof_H 	H 	0.958	0.5891	0.8526	0.141
Mof_H 	H 	0.9287	0.5801	0.8722	0.073
Mof_C 	C 	0.9486	0.6233	0.8847	0.029
Mof_H 	H 	0.9302	0.6348	0.8916	-0.014
Mof_H 	H 	0.9627	0.6379	0.8745	0.595
Mof_C 	C 	0.9652	0.6077	0.9134	1.84
Mof_H 	H 	0.9509	0.593	0.9234	-0.045
Mof_H 	H 	0.9834	0.596	0.9063	-0.065
Mof_C 	C 	0.9755	0.6326	0.9373	-5.683
Mof_H 	H 	0.9857	0.6226	0.9548	1.75
Mof_H 	H 	0.9899	0.647	0.9275	1.718
Mof_H 	H 	0.9574	0.6439	0.9447	0.93
Mof_C 	C 	0.13171	0.19991	0.3852	0.286
Mof_C 	C 	0.13794	0.23421	0.38285	-0.01
Mof_C 	C 	0.16473	0.24428	0.3623	-0.136
Mof_H 	H 	0.1822	0.2303	0.3651	0.015
Mof_H 	H 	0.1712	0.2651	0.3681	0.024
Mof_C 	C 	0.1544	0.2438	0.32828	0.022
Mof_C 	C 	0.1259	0.2493	0.3165	-0.03
Mof_H 	H 	0.1085	0.2543	0.3288	0.065
Mof_C 	C 	0.125	0.2467	0.2817	-0.007
Mof_H 	H 	0.1071	0.2498	0.2696	0.011
Mof_C 	C 	0.1528	0.2393	0.2698	-0.023
Mof_H 	H 	0.1567	0.2365	0.2485	-0.037
Mof_S 	S 	0.18055	0.2354	0.29877	-0.055
Mof_C 	C 	0.11982	0.25348	0.39993	-0.12
Mof_H 	H 	0.1054	0.2438	0.4132	0.098
Mof_C 	C 	0.11984	0.28736	0.40031	0.079
Mof_C 	C 	0.12629	0.30945	0.37788	-0.086
Mof_H 	H 	0.1345	0.3051	0.3581	0.051
Mof_C 	C 	0.10754	0.3354	0.41799	0.103
Mof_C 	C 	0.0924	0.2917	0.45376	-0.02
Mof_C 	C 	0.05717	0.29071	0.44896	0.102
Mof_C 	C 	0.04374	0.29111	0.41913	-0.16
Mof_H 	H 	0.0567	0.2912	0.4015	0.11
Mof_C 	C 	0.0117	0.29139	0.41539	0.101
Mof_H 	H 	0.0031	0.2917	0.3953	0.029
Mof_C 	C 	0.99216	0.29117	0.44128	-0.174
Mof_C 	C 	0.00536	0.28988	0.47101	0.092
Mof_H 	H 	0.9924	0.2889	0.4886	-0.02
Mof_C 	C 	0.03732	0.29004	0.47471	-0.168
Mof_H 	H 	0.0458	0.2897	0.4948	0.058
Mof_C 	C 	0.95775	0.29316	0.43735	0.433
Mof_C 	C 	0.09718	0.36148	0.43888	-0.094
Mof_H 	H 	0.0791	0.3548	0.4507	-0.081
Mof_H 	H 	0.0911	0.3791	0.4262	-0.031
Mof_C 	C 	0.1237	0.371	0.462	-0.446
Mof_H 	H 	0.1423	0.3773	0.4504	-0.349
Mof_H 	H 	0.1292	0.3533	0.4753	0.055
Mof_C 	C 	0.1117	0.3987	0.4824	-1.918
Mof_H 	H 	0.0911	0.3936	0.4907	0.518
Mof_H 	H 	0.1258	0.4017	0.5001	0.533
Mof_C 	C 	0.1097	0.4294	0.4636	0.689
Mof_H 	H 	0.1023	0.446	0.4769	-0.219
Mof_H 	H 	0.1302	0.4347	0.4557	1.263
Mof_H 	H 	0.0955	0.4267	0.4463	-0.716
Mof_N 	N 	0.11888	0.3391	0.38881	-0.254
Mof_N 	N 	0.10794	0.30469	0.42586	-0.14
Mof_O 	O 	0.15084	0.1806	0.37329	-0.386
Mof_O 	O 	0.10741	0.18945	0.39882	-0.389
Mof_O 	O 	0.94883	0.29485	0.40817	-0.522
Mof_H 	H 	0.9304	0.2981	0.4026	0.331
Mof_O 	O 	0.93897	0.29289	0.45922	-0.3
Mof_H 	H 	0.1833	0.2333	0.3689	0.047
Mof_H 	H 	0.1683	0.2663	0.3657	-0.006
Mof_C 	C 	0.1604	0.2395	0.3276	0.025
Mof_C 	C 	0.1799	0.2288	0.3056	-0.033
Mof_H 	H 	0.2004	0.2225	0.3095	0.048
Mof_C 	C 	0.1648	0.2283	0.274	-0.015
Mof_H 	H 	0.1748	0.2214	0.2558	-0.005
Mof_C 	C 	0.1353	0.2389	0.2746	-0.022
Mof_H 	H 	0.1223	0.2405	0.2572	-0.042
Mof_S 	S 	0.12477	0.24897	0.31178	-0.049
Mof_H 	H 	0.0891	0.3526	0.458	0.141
Mof_H 	H 	0.0801	0.3722	0.4287	0.073
Mof_C 	C 	0.1233	0.3847	0.4486	0.029
Mof_H 	H 	0.1348	0.3916	0.4302	-0.014
Mof_H 	H 	0.1379	0.3745	0.4627	0.595
Mof_C 	C 	0.1077	0.4134	0.4652	1.84
Mof_H 	H 	0.093	0.4234	0.4509	-0.045
Mof_H 	H 	0.096	0.4063	0.4834	-0.065
Mof_C 	C 	0.1326	0.4373	0.4755	-5.683
Mof_H 	H 	0.1226	0.4548	0.4857	1.75
Mof_H 	H 	0.147	0.4275	0.4899	1.718
Mof_H 	H 	0.1439	0.4447	0.4574	0.93
Mof_C 	C 	0.63171	0.69991	0.8852	0.286
Mof_C 	C 	0.63794	0.73421	0.88285	-0.01
Mof_C 	C 	0.66473	0.74428	0.8623	-0.136
Mof_H 	H 	0.6822	0.7303	0.8651	0.015
Mof_H 	H 	0.6712	0.7651	0.8681	0.024
Mof_C 	C 	0.6544	0.7438	0.82828	0.022
Mof_C 	C 	0.6259	0.7493	0.8165	-0.03
Mof_H 	H 	0.6085	0.7543	0.8288	0.065
Mof_C 	C 	0.625	0.7467	0.7817	-0.007
Mof_H 	H 	0.6071	0.7498	0.7696	0.011
Mof_C 	C 	0.6528	0.7393	0.7698	-0.023
Mof_H 	H 	0.6567	0.7365	0.7485	-0.037
Mof_S 	S 	0.68055	0.7354	0.79877	-0.055
Mof_C 	C 	0.61982	0.75348	0.89993	-0.12
Mof_H 	H 	0.6054	0.7438	0.9132	0.098
Mof_C 	C 	0.61984	0.78736	0.90031	0.079
Mof_C 	C 	0.62629	0.80945	0.87788	-0.086
Mof_H 	H 	0.6345	0.8051	0.8581	0.051
Mof_C 	C 	0.60754	0.8354	0.91799	0.103
Mof_C 	C 	0.5924	0.7917	0.95376	-0.02
Mof_C 	C 	0.55717	0.79071	0.94896	0.102
Mof_C 	C 	0.54374	0.79111	0.91913	-0.16
Mof_H 	H 	0.5567	0.7912	0.9015	0.11
Mof_C 	C 	0.5117	0.79139	0.91539	0.101
Mof_H 	H 	0.5031	0.7917	0.8953	0.029
Mof_C 	C 	0.49216	0.79117	0.94128	-0.174
Mof_C 	C 	0.50536	0.78988	0.97101	0.092
Mof_H 	H 	0.4924	0.7889	0.9886	-0.02
Mof_C 	C 	0.53732	0.79004	0.97471	-0.168
Mof_H 	H 	0.5458	0.7897	0.9948	0.058
Mof_C 	C 	0.45775	0.79316	0.93735	0.433
Mof_C 	C 	0.59718	0.86148	0.93888	-0.094
Mof_H 	H 	0.5791	0.8548	0.9507	-0.081
Mof_H 	H 	0.5911	0.8791	0.9262	-0.031
Mof_C 	C 	0.6237	0.871	0.962	-0.446
Mof_H 	H 	0.6423	0.8773	0.9504	-0.349
Mof_H 	H 	0.6292	0.8533	0.9753	0.055
Mof_C 	C 	0.6117	0.8987	0.9824	-1.918
Mof_H 	H 	0.5911	0.8936	0.9907	0.518
Mof_H 	H 	0.6258	0.9017	0.0001	0.533
Mof_C 	C 	0.6097	0.9294	0.9636	0.689
Mof_H 	H 	0.6023	0.946	0.9769	-0.219
Mof_H 	H 	0.6302	0.9347	0.9557	1.263
Mof_H 	H 	0.5955	0.9267	0.9463	-0.716
Mof_N 	N 	0.61888	0.8391	0.88881	-0.254
Mof_N 	N 	0.60794	0.80469	0.92586	-0.14
Mof_O 	O 	0.65084	0.6806	0.87329	-0.386
Mof_O 	O 	0.60741	0.68945	0.89882	-0.389
Mof_O 	O 	0.44883	0.79485	0.90817	-0.522
Mof_H 	H 	0.4304	0.7981	0.9026	0.331
Mof_O 	O 	0.43897	0.79289	0.95922	-0.3
Mof_H 	H 	0.6833	0.7333	0.8689	0.047
Mof_H 	H 	0.6683	0.7663	0.8657	-0.006
Mof_C 	C 	0.6604	0.7395	0.8276	0.025
Mof_C 	C 	0.6799	0.7288	0.8056	-0.033
Mof_H 	H 	0.7004	0.7225	0.8095	0.048
Mof_C 	C 	0.6648	0.7283	0.774	-0.015
Mof_H 	H 	0.6748	0.7214	0.7558	-0.005
Mof_C 	C 	0.6353	0.7389	0.7746	-0.022
Mof_H 	H 	0.6223	0.7405	0.7572	-0.042
Mof_S 	S 	0.62477	0.74897	0.81178	-0.049
Mof_H 	H 	0.5891	0.8526	0.958	0.141
Mof_H 	H 	0.5801	0.8722	0.9287	0.073
Mof_C 	C 	0.6233	0.8847	0.9486	0.029
Mof_H 	H 	0.6348	0.8916	0.9302	-0.014
Mof_H 	H 	0.6379	0.8745	0.9627	0.595
Mof_C 	C 	0.6077	0.9134	0.9652	1.84
Mof_H 	H 	0.593	0.9234	0.9509	-0.045
Mof_H 	H 	0.596	0.9063	0.9834	-0.065
Mof_C 	C 	0.6326	0.9373	0.9755	-5.683
Mof_H 	H 	0.6226	0.9548	0.9857	1.75
Mof_H 	H 	0.647	0.9275	0.9899	1.718
Mof_H 	H 	0.6439	0.9447	0.9574	0.93
Mof_C 	C 	0.86829	0.69991	0.1148	0.286
Mof_C 	C 	0.86206	0.73421	0.11715	-0.01
Mof_C 	C 	0.83527	0.74428	0.1377	-0.136
Mof_H 	H 	0.8178	0.7303	0.1349	0.015
Mof_H 	H 	0.8288	0.7651	0.1319	0.024
Mof_C 	C 	0.8456	0.7438	0.17172	0.022
Mof_C 	C 	0.8741	0.7493	0.1835	-0.03
Mof_H 	H 	0.8915	0.7543	0.1712	0.065
Mof_C 	C 	0.875	0.7467	0.2183	-0.007
Mof_H 	H 	0.8929	0.7498	0.2304	0.011
Mof_C 	C 	0.8472	0.7393	0.2302	-0.023
Mof_H 	H 	0.8433	0.7365	0.2515	-0.037
Mof_S 	S 	0.81945	0.7354	0.20123	-0.055
Mof_C 	C 	0.88018	0.75348	0.10007	-0.12
Mof_H 	H 	0.8946	0.7438	0.0868	0.098
Mof_C 	C 	0.88016	0.78736	0.09969	0.079
Mof_C 	C 	0.87371	0.80945	0.12212	-0.086
Mof_H 	H 	0.8655	0.8051	0.1419	0.051
Mof_C 	C 	0.89246	0.8354	0.08201	0.103
Mof_C 	C 	0.9076	0.7917	0.04624	-0.02
Mof_C 	C 	0.94283	0.79071	0.05104	0.102
Mof_C 	C 	0.95626	0.79111	0.08087	-0.16
Mof_H 	H 	0.9433	0.7912	0.0985	0.11
Mof_C 	C 	0.9883	0.79139	0.08461	0.101
Mof_H 	H 	0.9969	0.7917	0.1047	0.029
Mof_C 	C 	0.00784	0.79117	0.05872	-0.174
Mof_C 	C 	0.99464	0.78988	0.02899	0.092
Mof_H 	H 	0.0076	0.7889	0.0114	-0.02
Mof_C 	C 	0.96268	0.79004	0.02529	-0.168
Mof_H 	H 	0.9542	0.7897	0.0052	0.058
Mof_C 	C 	0.04225	0.79316	0.06265	0.433
Mof_C 	C 	0.90282	0.86148	0.06112	-0.094
Mof_H 	H 	0.9209	0.8548	0.0493	-0.081
Mof_H 	H 	0.9089	0.8791	0.0738	-0.031
Mof_C 	C 	0.8763	0.871	0.038	-0.446
Mof_H 	H 	0.8577	0.8773	0.0496	-0.349
Mof_H 	H 	0.8708	0.8533	0.0247	0.055
Mof_C 	C 	0.8883	0.8987	0.0176	-1.918
Mof_H 	H 	0.9089	0.8936	0.0093	0.518
Mof_H 	H 	0.8742	0.9017	0.9999	0.533
Mof_C 	C 	0.8903	0.9294	0.0364	0.689
Mof_H 	H 	0.8977	0.946	0.0231	-0.219
Mof_H 	H 	0.8698	0.9347	0.0443	1.263
Mof_H 	H 	0.9045	0.9267	0.0537	-0.716
Mof_N 	N 	0.88112	0.8391	0.11119	-0.254
Mof_N 	N 	0.89206	0.80469	0.07414	-0.14
Mof_O 	O 	0.84916	0.6806	0.12671	-0.386
Mof_O 	O 	0.89259	0.68945	0.10118	-0.389
Mof_O 	O 	0.05117	0.79485	0.09183	-0.522
Mof_H 	H 	0.0696	0.7981	0.0974	0.331
Mof_O 	O 	0.06103	0.79289	0.04078	-0.3
Mof_H 	H 	0.8167	0.7333	0.1311	0.047
Mof_H 	H 	0.8317	0.7663	0.1343	-0.006
Mof_C 	C 	0.8396	0.7395	0.1724	0.025
Mof_C 	C 	0.8201	0.7288	0.1944	-0.033
Mof_H 	H 	0.7996	0.7225	0.1905	0.048
Mof_C 	C 	0.8352	0.7283	0.226	-0.015
Mof_H 	H 	0.8252	0.7214	0.2442	-0.005
Mof_C 	C 	0.8647	0.7389	0.2254	-0.022
Mof_H 	H 	0.8777	0.7405	0.2428	-0.042
Mof_S 	S 	0.87523	0.74897	0.18822	-0.049
Mof_H 	H 	0.9109	0.8526	0.042	0.141
Mof_H 	H 	0.9199	0.8722	0.0713	0.073
Mof_C 	C 	0.8767	0.8847	0.0514	0.029
Mof_H 	H 	0.8652	0.8916	0.0698	-0.014
Mof_H 	H 	0.8621	0.8745	0.0373	0.595
Mof_C 	C 	0.8923	0.9134	0.0348	1.84
Mof_H 	H 	0.907	0.9234	0.0491	-0.045
Mof_H 	H 	0.904	0.9063	0.0166	-0.065
Mof_C 	C 	0.8674	0.9373	0.0245	-5.683
Mof_H 	H 	0.8774	0.9548	0.0143	1.75
Mof_H 	H 	0.853	0.9275	0.0101	1.718
Mof_H 	H 	0.8561	0.9447	0.0426	0.93
Mof_C 	C 	0.36829	0.19991	0.6148	0.286
Mof_C 	C 	0.36206	0.23421	0.61715	-0.01
Mof_C 	C 	0.33527	0.24428	0.6377	-0.136
Mof_H 	H 	0.3178	0.2303	0.6349	0.015
Mof_H 	H 	0.3288	0.2651	0.6319	0.024
Mof_C 	C 	0.3456	0.2438	0.67172	0.022
Mof_C 	C 	0.3741	0.2493	0.6835	-0.03
Mof_H 	H 	0.3915	0.2543	0.6712	0.065
Mof_C 	C 	0.375	0.2467	0.7183	-0.007
Mof_H 	H 	0.3929	0.2498	0.7304	0.011
Mof_C 	C 	0.3472	0.2393	0.7302	-0.023
Mof_H 	H 	0.3433	0.2365	0.7515	-0.037
Mof_S 	S 	0.31945	0.2354	0.70123	-0.055
Mof_C 	C 	0.38018	0.25348	0.60007	-0.12
Mof_H 	H 	0.3946	0.2438	0.5868	0.098
Mof_C 	C 	0.38016	0.28736	0.59969	0.079
Mof_C 	C 	0.37371	0.30945	0.62212	-0.086
Mof_H 	H 	0.3655	0.3051	0.6419	0.051
Mof_C 	C 	0.39246	0.3354	0.58201	0.103
Mof_C 	C 	0.4076	0.2917	0.54624	-0.02
Mof_C 	C 	0.44283	0.29071	0.55104	0.102
Mof_C 	C 	0.45626	0.29111	0.58087	-0.16
Mof_H 	H 	0.4433	0.2912	0.5985	0.11
Mof_C 	C 	0.4883	0.29139	0.58461	0.101
Mof_H 	H 	0.4969	0.2917	0.6047	0.029
Mof_C 	C 	0.50784	0.29117	0.55872	-0.175
Mof_C 	C 	0.49464	0.28988	0.52899	0.092
Mof_H 	H 	0.5076	0.2889	0.5114	-0.02
Mof_C 	C 	0.46268	0.29004	0.52529	-0.168
Mof_H 	H 	0.4542	0.2897	0.5052	0.058
Mof_C 	C 	0.54225	0.29316	0.56265	0.433
Mof_C 	C 	0.40282	0.36148	0.56112	-0.094
Mof_H 	H 	0.4209	0.3548	0.5493	-0.081
Mof_H 	H 	0.4089	0.3791	0.5738	-0.031
Mof_C 	C 	0.3763	0.371	0.538	-0.446
Mof_H 	H 	0.3577	0.3773	0.5496	-0.349
Mof_H 	H 	0.3708	0.3533	0.5247	0.055
Mof_C 	C 	0.3883	0.3987	0.5176	-1.918
Mof_H 	H 	0.4089	0.3936	0.5093	0.518
Mof_H 	H 	0.3742	0.4017	0.4999	0.533
Mof_C 	C 	0.3903	0.4294	0.5364	0.689
Mof_H 	H 	0.3977	0.446	0.5231	-0.219
Mof_H 	H 	0.3698	0.4347	0.5443	1.263
Mof_H 	H 	0.4045	0.4267	0.5537	-0.716
Mof_N 	N 	0.38112	0.3391	0.61119	-0.254
Mof_N 	N 	0.39206	0.30469	0.57414	-0.14
Mof_O 	O 	0.34916	0.1806	0.62671	-0.386
Mof_O 	O 	0.39259	0.18945	0.60118	-0.389
Mof_O 	O 	0.55117	0.29485	0.59183	-0.522
Mof_H 	H 	0.5696	0.2981	0.5974	0.331
Mof_O 	O 	0.56103	0.29289	0.54078	-0.3
Mof_H 	H 	0.3167	0.2333	0.6311	0.047
Mof_H 	H 	0.3317	0.2663	0.6343	-0.006
Mof_C 	C 	0.3396	0.2395	0.6724	0.025
Mof_C 	C 	0.3201	0.2288	0.6944	-0.033
Mof_H 	H 	0.2996	0.2225	0.6905	0.048
Mof_C 	C 	0.3352	0.2283	0.726	-0.015
Mof_H 	H 	0.3252	0.2214	0.7442	-0.005
Mof_C 	C 	0.3647	0.2389	0.7254	-0.022
Mof_H 	H 	0.3777	0.2405	0.7428	-0.042
Mof_S 	S 	0.37523	0.24897	0.68822	-0.049
Mof_H 	H 	0.4109	0.3526	0.542	0.141
Mof_H 	H 	0.4199	0.3722	0.5713	0.073
Mof_C 	C 	0.3767	0.3847	0.5514	0.029
Mof_H 	H 	0.3652	0.3916	0.5698	-0.014
Mof_H 	H 	0.3621	0.3745	0.5373	0.595
Mof_C 	C 	0.3923	0.4134	0.5348	1.84
Mof_H 	H 	0.407	0.4234	0.5491	-0.045
Mof_H 	H 	0.404	0.4063	0.5166	-0.065
Mof_C 	C 	0.3674	0.4373	0.5245	-5.683
Mof_H 	H 	0.3774	0.4548	0.5143	1.75
Mof_H 	H 	0.353	0.4275	0.5101	1.718
Mof_H 	H 	0.3561	0.4447	0.5426	0.93
Mof_C 	C 	0.36829	0.80009	0.8852	0.286
Mof_C 	C 	0.36206	0.76579	0.88285	-0.01
Mof_C 	C 	0.33527	0.75572	0.8623	-0.136
Mof_H 	H 	0.3178	0.7697	0.8651	0.015
Mof_H 	H 	0.3288	0.7349	0.8681	0.024
Mof_C 	C 	0.3456	0.7562	0.82828	0.022
Mof_C 	C 	0.3741	0.7507	0.8165	-0.03
Mof_H 	H 	0.3915	0.7457	0.8288	0.065
Mof_C 	C 	0.375	0.7533	0.7817	-0.007
Mof_H 	H 	0.3929	0.7502	0.7696	0.011
Mof_C 	C 	0.3472	0.7607	0.7698	-0.023
Mof_H 	H 	0.3433	0.7635	0.7485	-0.037
Mof_S 	S 	0.31945	0.7646	0.79877	-0.055
Mof_C 	C 	0.38018	0.74652	0.89993	-0.12
Mof_H 	H 	0.3946	0.7562	0.9132	0.098
Mof_C 	C 	0.38016	0.71264	0.90031	0.079
Mof_C 	C 	0.37371	0.69055	0.87788	-0.086
Mof_H 	H 	0.3655	0.6949	0.8581	0.051
Mof_C 	C 	0.39246	0.6646	0.91799	0.103
Mof_C 	C 	0.4076	0.7083	0.95376	-0.02
Mof_C 	C 	0.44283	0.70929	0.94896	0.102
Mof_C 	C 	0.45626	0.70889	0.91913	-0.16
Mof_H 	H 	0.4433	0.7088	0.9015	0.11
Mof_C 	C 	0.4883	0.70861	0.91539	0.101
Mof_H 	H 	0.4969	0.7083	0.8953	0.029
Mof_C 	C 	0.50784	0.70883	0.94128	-0.174
Mof_C 	C 	0.49464	0.71012	0.97101	0.092
Mof_H 	H 	0.5076	0.7111	0.9886	-0.02
Mof_C 	C 	0.46268	0.70996	0.97471	-0.168
Mof_H 	H 	0.4542	0.7103	0.9948	0.058
Mof_C 	C 	0.54225	0.70684	0.93735	0.433
Mof_C 	C 	0.40282	0.63852	0.93888	-0.094
Mof_H 	H 	0.4209	0.6452	0.9507	-0.081
Mof_H 	H 	0.4089	0.6209	0.9262	-0.031
Mof_C 	C 	0.3763	0.629	0.962	-0.446
Mof_H 	H 	0.3577	0.6227	0.9504	-0.349
Mof_H 	H 	0.3708	0.6467	0.9753	0.055
Mof_C 	C 	0.3883	0.6013	0.9824	-1.918
Mof_H 	H 	0.4089	0.6064	0.9907	0.518
Mof_H 	H 	0.3742	0.5983	0.0001	0.533
Mof_C 	C 	0.3903	0.5706	0.9636	0.689
Mof_H 	H 	0.3977	0.554	0.9769	-0.219
Mof_H 	H 	0.3698	0.5653	0.9557	1.263
Mof_H 	H 	0.4045	0.5733	0.9463	-0.716
Mof_N 	N 	0.38112	0.6609	0.88881	-0.254
Mof_N 	N 	0.39206	0.69531	0.92586	-0.14
Mof_O 	O 	0.34916	0.8194	0.87329	-0.386
Mof_O 	O 	0.39259	0.81055	0.89882	-0.389
Mof_O 	O 	0.55117	0.70515	0.90817	-0.522
Mof_H 	H 	0.5696	0.7019	0.9026	0.331
Mof_O 	O 	0.56103	0.70711	0.95922	-0.3
Mof_H 	H 	0.3167	0.7667	0.8689	0.047
Mof_H 	H 	0.3317	0.7337	0.8657	-0.006
Mof_C 	C 	0.3396	0.7605	0.8276	0.025
Mof_C 	C 	0.3201	0.7712	0.8056	-0.033
Mof_H 	H 	0.2996	0.7775	0.8095	0.048
Mof_C 	C 	0.3352	0.7717	0.774	-0.015
Mof_H 	H 	0.3252	0.7786	0.7558	-0.005
Mof_C 	C 	0.3647	0.7611	0.7746	-0.022
Mof_H 	H 	0.3777	0.7595	0.7572	-0.042
Mof_S 	S 	0.37523	0.75103	0.81178	-0.049
Mof_H 	H 	0.4109	0.6474	0.958	0.141
Mof_H 	H 	0.4199	0.6278	0.9287	0.073
Mof_C 	C 	0.3767	0.6153	0.9486	0.029
Mof_H 	H 	0.3652	0.6084	0.9302	-0.014
Mof_H 	H 	0.3621	0.6255	0.9627	0.595
Mof_C 	C 	0.3923	0.5866	0.9652	1.84
Mof_H 	H 	0.407	0.5766	0.9509	-0.045
Mof_H 	H 	0.404	0.5937	0.9834	-0.065
Mof_C 	C 	0.3674	0.5627	0.9755	-5.683
Mof_H 	H 	0.3774	0.5452	0.9857	1.75
Mof_H 	H 	0.353	0.5725	0.9899	1.718
Mof_H 	H 	0.3561	0.5553	0.9574	0.93
Mof_C 	C 	0.86829	0.30009	0.3852	0.286
Mof_C 	C 	0.86206	0.26579	0.38285	-0.01
Mof_C 	C 	0.83527	0.25572	0.3623	-0.136
Mof_H 	H 	0.8178	0.2697	0.3651	0.015
Mof_H 	H 	0.8288	0.2349	0.3681	0.024
Mof_C 	C 	0.8456	0.2562	0.32828	0.022
Mof_C 	C 	0.8741	0.2507	0.3165	-0.03
Mof_H 	H 	0.8915	0.2457	0.3288	0.065
Mof_C 	C 	0.875	0.2533	0.2817	-0.007
Mof_H 	H 	0.8929	0.2502	0.2696	0.011
Mof_C 	C 	0.8472	0.2607	0.2698	-0.023
Mof_H 	H 	0.8433	0.2635	0.2485	-0.037
Mof_S 	S 	0.81945	0.2646	0.29877	-0.055
Mof_C 	C 	0.88018	0.24652	0.39993	-0.12
Mof_H 	H 	0.8946	0.2562	0.4132	0.098
Mof_C 	C 	0.88016	0.21264	0.40031	0.079
Mof_C 	C 	0.87371	0.19055	0.37788	-0.086
Mof_H 	H 	0.8655	0.1949	0.3581	0.051
Mof_C 	C 	0.89246	0.1646	0.41799	0.103
Mof_C 	C 	0.9076	0.2083	0.45376	-0.02
Mof_C 	C 	0.94283	0.20929	0.44896	0.102
Mof_C 	C 	0.95626	0.20889	0.41913	-0.16
Mof_H 	H 	0.9433	0.2088	0.4015	0.11
Mof_C 	C 	0.9883	0.20861	0.41539	0.101
Mof_H 	H 	0.9969	0.2083	0.3953	0.029
Mof_C 	C 	0.00784	0.20883	0.44128	-0.174
Mof_C 	C 	0.99464	0.21012	0.47101	0.092
Mof_H 	H 	0.0076	0.2111	0.4886	-0.02
Mof_C 	C 	0.96268	0.20996	0.47471	-0.168
Mof_H 	H 	0.9542	0.2103	0.4948	0.058
Mof_C 	C 	0.04225	0.20684	0.43735	0.433
Mof_C 	C 	0.90282	0.13852	0.43888	-0.094
Mof_H 	H 	0.9209	0.1452	0.4507	-0.081
Mof_H 	H 	0.9089	0.1209	0.4262	-0.031
Mof_C 	C 	0.8763	0.129	0.462	-0.446
Mof_H 	H 	0.8577	0.1227	0.4504	-0.349
Mof_H 	H 	0.8708	0.1467	0.4753	0.055
Mof_C 	C 	0.8883	0.1013	0.4824	-1.918
Mof_H 	H 	0.9089	0.1064	0.4907	0.518
Mof_H 	H 	0.8742	0.0983	0.5001	0.533
Mof_C 	C 	0.8903	0.0706	0.4636	0.689
Mof_H 	H 	0.8977	0.054	0.4769	-0.219
Mof_H 	H 	0.8698	0.0653	0.4557	1.263
Mof_H 	H 	0.9045	0.0733	0.4463	-0.716
Mof_N 	N 	0.88112	0.1609	0.38881	-0.254
Mof_N 	N 	0.89206	0.19531	0.42586	-0.14
Mof_O 	O 	0.84916	0.3194	0.37329	-0.386
Mof_O 	O 	0.89259	0.31055	0.39882	-0.389
Mof_O 	O 	0.05117	0.20515	0.40817	-0.522
Mof_H 	H 	0.0696	0.2019	0.4026	0.331
Mof_O 	O 	0.06103	0.20711	0.45922	-0.3
Mof_H 	H 	0.8167	0.2667	0.3689	0.047
Mof_H 	H 	0.8317	0.2337	0.3657	-0.006
Mof_C 	C 	0.8396	0.2605	0.3276	0.025
Mof_C 	C 	0.8201	0.2712	0.3056	-0.033
Mof_H 	H 	0.7996	0.2775	0.3095	0.048
Mof_C 	C 	0.8352	0.2717	0.274	-0.015
Mof_H 	H 	0.8252	0.2786	0.2558	-0.005
Mof_C 	C 	0.8647	0.2611	0.2746	-0.022
Mof_H 	H 	0.8777	0.2595	0.2572	-0.042
Mof_S 	S 	0.87523	0.25103	0.31178	-0.049
Mof_H 	H 	0.9109	0.1474	0.458	0.141
Mof_H 	H 	0.9199	0.1278	0.4287	0.073
Mof_C 	C 	0.8767	0.1153	0.4486	0.029
Mof_H 	H 	0.8652	0.1084	0.4302	-0.014
Mof_H 	H 	0.8621	0.1255	0.4627	0.595
Mof_C 	C 	0.8923	0.0866	0.4652	1.84
Mof_H 	H 	0.907	0.0766	0.4509	-0.045
Mof_H 	H 	0.904	0.0937	0.4834	-0.065
Mof_C 	C 	0.8674	0.0627	0.4755	-5.683
Mof_H 	H 	0.8774	0.0452	0.4857	1.75
Mof_H 	H 	0.853	0.0725	0.4899	1.718
Mof_H 	H 	0.8561	0.0553	0.4574	0.93
Mof_C 	C 	0.63171	0.30009	0.6148	0.286
Mof_C 	C 	0.63794	0.26579	0.61715	-0.01
Mof_C 	C 	0.66473	0.25572	0.6377	-0.136
Mof_H 	H 	0.6822	0.2697	0.6349	0.015
Mof_H 	H 	0.6712	0.2349	0.6319	0.024
Mof_C 	C 	0.6544	0.2562	0.67172	0.022
Mof_C 	C 	0.6259	0.2507	0.6835	-0.03
Mof_H 	H 	0.6085	0.2457	0.6712	0.065
Mof_C 	C 	0.625	0.2533	0.7183	-0.007
Mof_H 	H 	0.6071	0.2502	0.7304	0.011
Mof_C 	C 	0.6528	0.2607	0.7302	-0.023
Mof_H 	H 	0.6567	0.2635	0.7515	-0.037
Mof_S 	S 	0.68055	0.2646	0.70123	-0.055
Mof_C 	C 	0.61982	0.24652	0.60007	-0.12
Mof_H 	H 	0.6054	0.2562	0.5868	0.098
Mof_C 	C 	0.61984	0.21264	0.59969	0.079
Mof_C 	C 	0.62629	0.19055	0.62212	-0.086
Mof_H 	H 	0.6345	0.1949	0.6419	0.051
Mof_C 	C 	0.60754	0.1646	0.58201	0.103
Mof_C 	C 	0.5924	0.2083	0.54624	-0.02
Mof_C 	C 	0.55717	0.20929	0.55104	0.102
Mof_C 	C 	0.54374	0.20889	0.58087	-0.16
Mof_H 	H 	0.5567	0.2088	0.5985	0.11
Mof_C 	C 	0.5117	0.20861	0.58461	0.101
Mof_H 	H 	0.5031	0.2083	0.6047	0.029
Mof_C 	C 	0.49216	0.20883	0.55872	-0.175
Mof_C 	C 	0.50536	0.21012	0.52899	0.092
Mof_H 	H 	0.4924	0.2111	0.5114	-0.02
Mof_C 	C 	0.53732	0.20996	0.52529	-0.168
Mof_H 	H 	0.5458	0.2103	0.5052	0.058
Mof_C 	C 	0.45775	0.20684	0.56265	0.433
Mof_C 	C 	0.59718	0.13852	0.56112	-0.094
Mof_H 	H 	0.5791	0.1452	0.5493	-0.081
Mof_H 	H 	0.5911	0.1209	0.5738	-0.031
Mof_C 	C 	0.6237	0.129	0.538	-0.446
Mof_H 	H 	0.6423	0.1227	0.5496	-0.349
Mof_H 	H 	0.6292	0.1467	0.5247	0.055
Mof_C 	C 	0.6117	0.1013	0.5176	-1.918
Mof_H 	H 	0.5911	0.1064	0.5093	0.518
Mof_H 	H 	0.6258	0.0983	0.4999	0.533
Mof_C 	C 	0.6097	0.0706	0.5364	0.689
Mof_H 	H 	0.6023	0.054	0.5231	-0.219
Mof_H 	H 	0.6302	0.0653	0.5443	1.263
Mof_H 	H 	0.5955	0.0733	0.5537	-0.716
Mof_N 	N 	0.61888	0.1609	0.61119	-0.254
Mof_N 	N 	0.60794	0.19531	0.57414	-0.14
Mof_O 	O 	0.65084	0.3194	0.62671	-0.386
Mof_O 	O 	0.60741	0.31055	0.60118	-0.389
Mof_O 	O 	0.44883	0.20515	0.59183	-0.522
Mof_H 	H 	0.4304	0.2019	0.5974	0.331
Mof_O 	O 	0.43897	0.20711	0.54078	-0.3
Mof_H 	H 	0.6833	0.2667	0.6311	0.047
Mof_H 	H 	0.6683	0.2337	0.6343	-0.006
Mof_C 	C 	0.6604	0.2605	0.6724	0.025
Mof_C 	C 	0.6799	0.2712	0.6944	-0.033
Mof_H 	H 	0.7004	0.2775	0.6905	0.048
Mof_C 	C 	0.6648	0.2717	0.726	-0.015
Mof_H 	H 	0.6748	0.2786	0.7442	-0.005
Mof_C 	C 	0.6353	0.2611	0.7254	-0.022
Mof_H 	H 	0.6223	0.2595	0.7428	-0.042
Mof_S 	S 	0.62477	0.25103	0.68822	-0.049
Mof_H 	H 	0.5891	0.1474	0.542	0.141
Mof_H 	H 	0.5801	0.1278	0.5713	0.073
Mof_C 	C 	0.6233	0.1153	0.5514	0.029
Mof_H 	H 	0.6348	0.1084	0.5698	-0.014
Mof_H 	H 	0.6379	0.1255	0.5373	0.595
Mof_C 	C 	0.6077	0.0866	0.5348	1.84
Mof_H 	H 	0.593	0.0766	0.5491	-0.045
Mof_H 	H 	0.596	0.0937	0.5166	-0.065
Mof_C 	C 	0.6326	0.0627	0.5245	-5.683
Mof_H 	H 	0.6226	0.0452	0.5143	1.75
Mof_H 	H 	0.647	0.0725	0.5101	1.718
Mof_H 	H 	0.6439	0.0553	0.5426	0.93
Mof_C 	C 	0.13171	0.80009	0.1148	0.286
Mof_C 	C 	0.13794	0.76579	0.11715	-0.01
Mof_C 	C 	0.16473	0.75572	0.1377	-0.136
Mof_H 	H 	0.1822	0.7697	0.1349	0.015
Mof_H 	H 	0.1712	0.7349	0.1319	0.024
Mof_C 	C 	0.1544	0.7562	0.17172	0.022
Mof_C 	C 	0.1259	0.7507	0.1835	-0.03
Mof_H 	H 	0.1085	0.7457	0.1712	0.065
Mof_C 	C 	0.125	0.7533	0.2183	-0.007
Mof_H 	H 	0.1071	0.7502	0.2304	0.011
Mof_C 	C 	0.1528	0.7607	0.2302	-0.023
Mof_H 	H 	0.1567	0.7635	0.2515	-0.037
Mof_S 	S 	0.18055	0.7646	0.20123	-0.055
Mof_C 	C 	0.11982	0.74652	0.10007	-0.12
Mof_H 	H 	0.1054	0.7562	0.0868	0.098
Mof_C 	C 	0.11984	0.71264	0.09969	0.079
Mof_C 	C 	0.12629	0.69055	0.12212	-0.086
Mof_H 	H 	0.1345	0.6949	0.1419	0.051
Mof_C 	C 	0.10754	0.6646	0.08201	0.103
Mof_C 	C 	0.0924	0.7083	0.04624	-0.02
Mof_C 	C 	0.05717	0.70929	0.05104	0.102
Mof_C 	C 	0.04374	0.70889	0.08087	-0.16
Mof_H 	H 	0.0567	0.7088	0.0985	0.11
Mof_C 	C 	0.0117	0.70861	0.08461	0.101
Mof_H 	H 	0.0031	0.7083	0.1047	0.029
Mof_C 	C 	0.99216	0.70883	0.05872	-0.174
Mof_C 	C 	0.00536	0.71012	0.02899	0.092
Mof_H 	H 	0.9924	0.7111	0.0114	-0.02
Mof_C 	C 	0.03732	0.70996	0.02529	-0.168
Mof_H 	H 	0.0458	0.7103	0.0052	0.058
Mof_C 	C 	0.95775	0.70684	0.06265	0.433
Mof_C 	C 	0.09718	0.63852	0.06112	-0.094
Mof_H 	H 	0.0791	0.6452	0.0493	-0.081
Mof_H 	H 	0.0911	0.6209	0.0738	-0.031
Mof_C 	C 	0.1237	0.629	0.038	-0.446
Mof_H 	H 	0.1423	0.6227	0.0496	-0.349
Mof_H 	H 	0.1292	0.6467	0.0247	0.055
Mof_C 	C 	0.1117	0.6013	0.0176	-1.918
Mof_H 	H 	0.0911	0.6064	0.0093	0.518
Mof_H 	H 	0.1258	0.5983	0.9999	0.533
Mof_C 	C 	0.1097	0.5706	0.0364	0.689
Mof_H 	H 	0.1023	0.554	0.0231	-0.219
Mof_H 	H 	0.1302	0.5653	0.0443	1.263
Mof_H 	H 	0.0955	0.5733	0.0537	-0.716
Mof_N 	N 	0.11888	0.6609	0.11119	-0.254
Mof_N 	N 	0.10794	0.69531	0.07414	-0.14
Mof_O 	O 	0.15084	0.8194	0.12671	-0.386
Mof_O 	O 	0.10741	0.81055	0.10118	-0.389
Mof_O 	O 	0.94883	0.70515	0.09183	-0.522
Mof_H 	H 	0.9304	0.7019	0.0974	0.331
Mof_O 	O 	0.93897	0.70711	0.04078	-0.3
Mof_H 	H 	0.1833	0.7667	0.1311	0.047
Mof_H 	H 	0.1683	0.7337	0.1343	-0.006
Mof_C 	C 	0.1604	0.7605	0.1724	0.025
Mof_C 	C 	0.1799	0.7712	0.1944	-0.033
Mof_H 	H 	0.2004	0.7775	0.1905	0.048
Mof_C 	C 	0.1648	0.7717	0.226	-0.015
Mof_H 	H 	0.1748	0.7786	0.2442	-0.005
Mof_C 	C 	0.1353	0.7611	0.2254	-0.022
Mof_H 	H 	0.1223	0.7595	0.2428	-0.042
Mof_S 	S 	0.12477	0.75103	0.18822	-0.049
Mof_H 	H 	0.0891	0.6474	0.042	0.141
Mof_H 	H 	0.0801	0.6278	0.0713	0.073
Mof_C 	C 	0.1233	0.6153	0.0514	0.029
Mof_H 	H 	0.1348	0.6084	0.0698	-0.014
Mof_H 	H 	0.1379	0.6255	0.0373	0.595
Mof_C 	C 	0.1077	0.5866	0.0348	1.84
Mof_H 	H 	0.093	0.5766	0.0491	-0.045
Mof_H 	H 	0.096	0.5937	0.0166	-0.065
Mof_C 	C 	0.1326	0.5627	0.0245	-5.683
Mof_H 	H 	0.1226	0.5452	0.0143	1.75
Mof_H 	H 	0.147	0.5725	0.0101	1.718
Mof_H 	H 	0.1439	0.5553	0.0426	0.93
Mof_C 	C 	0.69991	0.1148	0.86829	0.286
Mof_C 	C 	0.73421	0.11715	0.86206	-0.01
Mof_C 	C 	0.74428	0.1377	0.83527	-0.136
Mof_H 	H 	0.7303	0.1349	0.8178	0.015
Mof_H 	H 	0.7651	0.1319	0.8288	0.024
Mof_C 	C 	0.7438	0.17172	0.8456	0.022
Mof_C 	C 	0.7493	0.1835	0.8741	-0.03
Mof_H 	H 	0.7543	0.1712	0.8915	0.065
Mof_C 	C 	0.7467	0.2183	0.875	-0.007
Mof_H 	H 	0.7498	0.2304	0.8929	0.011
Mof_C 	C 	0.7393	0.2302	0.8472	-0.023
Mof_H 	H 	0.7365	0.2515	0.8433	-0.037
Mof_S 	S 	0.7354	0.20123	0.81945	-0.055
Mof_C 	C 	0.75348	0.10007	0.88018	-0.12
Mof_H 	H 	0.7438	0.0868	0.8946	0.098
Mof_C 	C 	0.78736	0.09969	0.88016	0.079
Mof_C 	C 	0.80945	0.12212	0.87371	-0.086
Mof_H 	H 	0.8051	0.1419	0.8655	0.051
Mof_C 	C 	0.8354	0.08201	0.89246	0.103
Mof_C 	C 	0.7917	0.04624	0.9076	-0.02
Mof_C 	C 	0.79071	0.05104	0.94283	0.102
Mof_C 	C 	0.79111	0.08087	0.95626	-0.16
Mof_H 	H 	0.7912	0.0985	0.9433	0.11
Mof_C 	C 	0.79139	0.08461	0.9883	0.101
Mof_H 	H 	0.7917	0.1047	0.9969	0.029
Mof_C 	C 	0.79117	0.05872	0.00784	-0.174
Mof_C 	C 	0.78988	0.02899	0.99464	0.092
Mof_H 	H 	0.7889	0.0114	0.0076	-0.02
Mof_C 	C 	0.79004	0.02529	0.96268	-0.168
Mof_H 	H 	0.7897	0.0052	0.9542	0.058
Mof_C 	C 	0.79316	0.06265	0.04225	0.433
Mof_C 	C 	0.86148	0.06112	0.90282	-0.094
Mof_H 	H 	0.8548	0.0493	0.9209	-0.081
Mof_H 	H 	0.8791	0.0738	0.9089	-0.031
Mof_C 	C 	0.871	0.038	0.8763	-0.446
Mof_H 	H 	0.8773	0.0496	0.8577	-0.349
Mof_H 	H 	0.8533	0.0247	0.8708	0.055
Mof_C 	C 	0.8987	0.0176	0.8883	-1.918
Mof_H 	H 	0.8936	0.0093	0.9089	0.518
Mof_H 	H 	0.9017	0.9999	0.8742	0.533
Mof_C 	C 	0.9294	0.0364	0.8903	0.689
Mof_H 	H 	0.946	0.0231	0.8977	-0.219
Mof_H 	H 	0.9347	0.0443	0.8698	1.263
Mof_H 	H 	0.9267	0.0537	0.9045	-0.716
Mof_N 	N 	0.8391	0.11119	0.88112	-0.254
Mof_N 	N 	0.80469	0.07414	0.89206	-0.14
Mof_O 	O 	0.6806	0.12671	0.84916	-0.386
Mof_O 	O 	0.68945	0.10118	0.89259	-0.389
Mof_O 	O 	0.79485	0.09183	0.05117	-0.522
Mof_H 	H 	0.7981	0.0974	0.0696	0.331
Mof_O 	O 	0.79289	0.04078	0.06103	-0.3
Mof_H 	H 	0.7333	0.1311	0.8167	0.047
Mof_H 	H 	0.7663	0.1343	0.8317	-0.006
Mof_C 	C 	0.7395	0.1724	0.8396	0.025
Mof_C 	C 	0.7288	0.1944	0.8201	-0.033
Mof_H 	H 	0.7225	0.1905	0.7996	0.048
Mof_C 	C 	0.7283	0.226	0.8352	-0.015
Mof_H 	H 	0.7214	0.2442	0.8252	-0.005
Mof_C 	C 	0.7389	0.2254	0.8647	-0.022
Mof_H 	H 	0.7405	0.2428	0.8777	-0.042
Mof_S 	S 	0.74897	0.18822	0.87523	-0.049
Mof_H 	H 	0.8526	0.042	0.9109	0.141
Mof_H 	H 	0.8722	0.0713	0.9199	0.073
Mof_C 	C 	0.8847	0.0514	0.8767	0.029
Mof_H 	H 	0.8916	0.0698	0.8652	-0.014
Mof_H 	H 	0.8745	0.0373	0.8621	0.595
Mof_C 	C 	0.9134	0.0348	0.8923	1.84
Mof_H 	H 	0.9234	0.0491	0.907	-0.045
Mof_H 	H 	0.9063	0.0166	0.904	-0.065
Mof_C 	C 	0.9373	0.0245	0.8674	-5.683
Mof_H 	H 	0.9548	0.0143	0.8774	1.75
Mof_H 	H 	0.9275	0.0101	0.853	1.718
Mof_H 	H 	0.9447	0.0426	0.8561	0.93
Mof_C 	C 	0.19991	0.6148	0.36829	0.286
Mof_C 	C 	0.23421	0.61715	0.36206	-0.01
Mof_C 	C 	0.24428	0.6377	0.33527	-0.136
Mof_H 	H 	0.2303	0.6349	0.3178	0.015
Mof_H 	H 	0.2651	0.6319	0.3288	0.024
Mof_C 	C 	0.2438	0.67172	0.3456	0.022
Mof_C 	C 	0.2493	0.6835	0.3741	-0.03
Mof_H 	H 	0.2543	0.6712	0.3915	0.065
Mof_C 	C 	0.2467	0.7183	0.375	-0.007
Mof_H 	H 	0.2498	0.7304	0.3929	0.011
Mof_C 	C 	0.2393	0.7302	0.3472	-0.023
Mof_H 	H 	0.2365	0.7515	0.3433	-0.037
Mof_S 	S 	0.2354	0.70123	0.31945	-0.055
Mof_C 	C 	0.25348	0.60007	0.38018	-0.12
Mof_H 	H 	0.2438	0.5868	0.3946	0.098
Mof_C 	C 	0.28736	0.59969	0.38016	0.079
Mof_C 	C 	0.30945	0.62212	0.37371	-0.086
Mof_H 	H 	0.3051	0.6419	0.3655	0.051
Mof_C 	C 	0.3354	0.58201	0.39246	0.103
Mof_C 	C 	0.2917	0.54624	0.4076	-0.02
Mof_C 	C 	0.29071	0.55104	0.44283	0.102
Mof_C 	C 	0.29111	0.58087	0.45626	-0.16
Mof_H 	H 	0.2912	0.5985	0.4433	0.11
Mof_C 	C 	0.29139	0.58461	0.4883	0.101
Mof_H 	H 	0.2917	0.6047	0.4969	0.029
Mof_C 	C 	0.29117	0.55872	0.50784	-0.175
Mof_C 	C 	0.28988	0.52899	0.49464	0.092
Mof_H 	H 	0.2889	0.5114	0.5076	-0.02
Mof_C 	C 	0.29004	0.52529	0.46268	-0.168
Mof_H 	H 	0.2897	0.5052	0.4542	0.058
Mof_C 	C 	0.29316	0.56265	0.54225	0.433
Mof_C 	C 	0.36148	0.56112	0.40282	-0.094
Mof_H 	H 	0.3548	0.5493	0.4209	-0.081
Mof_H 	H 	0.3791	0.5738	0.4089	-0.031
Mof_C 	C 	0.371	0.538	0.3763	-0.446
Mof_H 	H 	0.3773	0.5496	0.3577	-0.349
Mof_H 	H 	0.3533	0.5247	0.3708	0.055
Mof_C 	C 	0.3987	0.5176	0.3883	-1.918
Mof_H 	H 	0.3936	0.5093	0.4089	0.518
Mof_H 	H 	0.4017	0.4999	0.3742	0.533
Mof_C 	C 	0.4294	0.5364	0.3903	0.689
Mof_H 	H 	0.446	0.5231	0.3977	-0.219
Mof_H 	H 	0.4347	0.5443	0.3698	1.263
Mof_H 	H 	0.4267	0.5537	0.4045	-0.716
Mof_N 	N 	0.3391	0.61119	0.38112	-0.254
Mof_N 	N 	0.30469	0.57414	0.39206	-0.14
Mof_O 	O 	0.1806	0.62671	0.34916	-0.386
Mof_O 	O 	0.18945	0.60118	0.39259	-0.389
Mof_O 	O 	0.29485	0.59183	0.55117	-0.522
Mof_H 	H 	0.2981	0.5974	0.5696	0.331
Mof_O 	O 	0.29289	0.54078	0.56103	-0.3
Mof_H 	H 	0.2333	0.6311	0.3167	0.047
Mof_H 	H 	0.2663	0.6343	0.3317	-0.006
Mof_C 	C 	0.2395	0.6724	0.3396	0.025
Mof_C 	C 	0.2288	0.6944	0.3201	-0.033
Mof_H 	H 	0.2225	0.6905	0.2996	0.048
Mof_C 	C 	0.2283	0.726	0.3352	-0.015
Mof_H 	H 	0.2214	0.7442	0.3252	-0.005
Mof_C 	C 	0.2389	0.7254	0.3647	-0.022
Mof_H 	H 	0.2405	0.7428	0.3777	-0.042
Mof_S 	S 	0.24897	0.68822	0.37523	-0.049
Mof_H 	H 	0.3526	0.542	0.4109	0.141
Mof_H 	H 	0.3722	0.5713	0.4199	0.073
Mof_C 	C 	0.3847	0.5514	0.3767	0.029
Mof_H 	H 	0.3916	0.5698	0.3652	-0.014
Mof_H 	H 	0.3745	0.5373	0.3621	0.595
Mof_C 	C 	0.4134	0.5348	0.3923	1.84
Mof_H 	H 	0.4234	0.5491	0.407	-0.045
Mof_H 	H 	0.4063	0.5166	0.404	-0.065
Mof_C 	C 	0.4373	0.5245	0.3674	-5.683
Mof_H 	H 	0.4548	0.5143	0.3774	1.75
Mof_H 	H 	0.4275	0.5101	0.353	1.718
Mof_H 	H 	0.4447	0.5426	0.3561	0.93
Mof_C 	C 	0.19991	0.3852	0.13171	0.286
Mof_C 	C 	0.23421	0.38285	0.13794	-0.01
Mof_C 	C 	0.24428	0.3623	0.16473	-0.136
Mof_H 	H 	0.2303	0.3651	0.1822	0.015
Mof_H 	H 	0.2651	0.3681	0.1712	0.024
Mof_C 	C 	0.2438	0.32828	0.1544	0.022
Mof_C 	C 	0.2493	0.3165	0.1259	-0.03
Mof_H 	H 	0.2543	0.3288	0.1085	0.065
Mof_C 	C 	0.2467	0.2817	0.125	-0.007
Mof_H 	H 	0.2498	0.2696	0.1071	0.011
Mof_C 	C 	0.2393	0.2698	0.1528	-0.023
Mof_H 	H 	0.2365	0.2485	0.1567	-0.037
Mof_S 	S 	0.2354	0.29877	0.18055	-0.055
Mof_C 	C 	0.25348	0.39993	0.11982	-0.12
Mof_H 	H 	0.2438	0.4132	0.1054	0.098
Mof_C 	C 	0.28736	0.40031	0.11984	0.079
Mof_C 	C 	0.30945	0.37788	0.12629	-0.086
Mof_H 	H 	0.3051	0.3581	0.1345	0.051
Mof_C 	C 	0.3354	0.41799	0.10754	0.103
Mof_C 	C 	0.2917	0.45376	0.0924	-0.02
Mof_C 	C 	0.29071	0.44896	0.05717	0.102
Mof_C 	C 	0.29111	0.41913	0.04374	-0.16
Mof_H 	H 	0.2912	0.4015	0.0567	0.11
Mof_C 	C 	0.29139	0.41539	0.0117	0.101
Mof_H 	H 	0.2917	0.3953	0.0031	0.029
Mof_C 	C 	0.29117	0.44128	0.99216	-0.174
Mof_C 	C 	0.28988	0.47101	0.00536	0.092
Mof_H 	H 	0.2889	0.4886	0.9924	-0.02
Mof_C 	C 	0.29004	0.47471	0.03732	-0.168
Mof_H 	H 	0.2897	0.4948	0.0458	0.058
Mof_C 	C 	0.29316	0.43735	0.95775	0.433
Mof_C 	C 	0.36148	0.43888	0.09718	-0.094
Mof_H 	H 	0.3548	0.4507	0.0791	-0.081
Mof_H 	H 	0.3791	0.4262	0.0911	-0.031
Mof_C 	C 	0.371	0.462	0.1237	-0.446
Mof_H 	H 	0.3773	0.4504	0.1423	-0.349
Mof_H 	H 	0.3533	0.4753	0.1292	0.055
Mof_C 	C 	0.3987	0.4824	0.1117	-1.918
Mof_H 	H 	0.3936	0.4907	0.0911	0.518
Mof_H 	H 	0.4017	0.5001	0.1258	0.533
Mof_C 	C 	0.4294	0.4636	0.1097	0.689
Mof_H 	H 	0.446	0.4769	0.1023	-0.219
Mof_H 	H 	0.4347	0.4557	0.1302	1.263
Mof_H 	H 	0.4267	0.4463	0.0955	-0.716
Mof_N 	N 	0.3391	0.38881	0.11888	-0.254
Mof_N 	N 	0.30469	0.42586	0.10794	-0.14
Mof_O 	O 	0.1806	0.37329	0.15084	-0.386
Mof_O 	O 	0.18945	0.39882	0.10741	-0.389
Mof_O 	O 	0.29485	0.40817	0.94883	-0.522
Mof_H 	H 	0.2981	0.4026	0.9304	0.331
Mof_O 	O 	0.29289	0.45922	0.93897	-0.3
Mof_H 	H 	0.2333	0.3689	0.1833	0.047
Mof_H 	H 	0.2663	0.3657	0.1683	-0.006
Mof_C 	C 	0.2395	0.3276	0.1604	0.025
Mof_C 	C 	0.2288	0.3056	0.1799	-0.033
Mof_H 	H 	0.2225	0.3095	0.2004	0.048
Mof_C 	C 	0.2283	0.274	0.1648	-0.015
Mof_H 	H 	0.2214	0.2558	0.1748	-0.005
Mof_C 	C 	0.2389	0.2746	0.1353	-0.022
Mof_H 	H 	0.2405	0.2572	0.1223	-0.042
Mof_S 	S 	0.24897	0.31178	0.12477	-0.049
Mof_H 	H 	0.3526	0.458	0.0891	0.141
Mof_H 	H 	0.3722	0.4287	0.0801	0.073
Mof_C 	C 	0.3847	0.4486	0.1233	0.029
Mof_H 	H 	0.3916	0.4302	0.1348	-0.014
Mof_H 	H 	0.3745	0.4627	0.1379	0.595
Mof_C 	C 	0.4134	0.4652	0.1077	1.84
Mof_H 	H 	0.4234	0.4509	0.093	-0.045
Mof_H 	H 	0.4063	0.4834	0.096	-0.065
Mof_C 	C 	0.4373	0.4755	0.1326	-5.683
Mof_H 	H 	0.4548	0.4857	0.1226	1.75
Mof_H 	H 	0.4275	0.4899	0.147	1.718
Mof_H 	H 	0.4447	0.4574	0.1439	0.93
Mof_C 	C 	0.69991	0.8852	0.63171	0.286
Mof_C 	C 	0.73421	0.88285	0.63794	-0.01
Mof_C 	C 	0.74428	0.8623	0.66473	-0.136
Mof_H 	H 	0.7303	0.8651	0.6822	0.015
Mof_H 	H 	0.7651	0.8681	0.6712	0.024
Mof_C 	C 	0.7438	0.82828	0.6544	0.022
Mof_C 	C 	0.7493	0.8165	0.6259	-0.03
Mof_H 	H 	0.7543	0.8288	0.6085	0.065
Mof_C 	C 	0.7467	0.7817	0.625	-0.007
Mof_H 	H 	0.7498	0.7696	0.6071	0.011
Mof_C 	C 	0.7393	0.7698	0.6528	-0.023
Mof_H 	H 	0.7365	0.7485	0.6567	-0.037
Mof_S 	S 	0.7354	0.79877	0.68055	-0.055
Mof_C 	C 	0.75348	0.89993	0.61982	-0.12
Mof_H 	H 	0.7438	0.9132	0.6054	0.098
Mof_C 	C 	0.78736	0.90031	0.61984	0.079
Mof_C 	C 	0.80945	0.87788	0.62629	-0.086
Mof_H 	H 	0.8051	0.8581	0.6345	0.051
Mof_C 	C 	0.8354	0.91799	0.60754	0.103
Mof_C 	C 	0.7917	0.95376	0.5924	-0.02
Mof_C 	C 	0.79071	0.94896	0.55717	0.102
Mof_C 	C 	0.79111	0.91913	0.54374	-0.16
Mof_H 	H 	0.7912	0.9015	0.5567	0.11
Mof_C 	C 	0.79139	0.91539	0.5117	0.101
Mof_H 	H 	0.7917	0.8953	0.5031	0.029
Mof_C 	C 	0.79117	0.94128	0.49216	-0.174
Mof_C 	C 	0.78988	0.97101	0.50536	0.092
Mof_H 	H 	0.7889	0.9886	0.4924	-0.02
Mof_C 	C 	0.79004	0.97471	0.53732	-0.168
Mof_H 	H 	0.7897	0.9948	0.5458	0.058
Mof_C 	C 	0.79316	0.93735	0.45775	0.433
Mof_C 	C 	0.86148	0.93888	0.59718	-0.094
Mof_H 	H 	0.8548	0.9507	0.5791	-0.081
Mof_H 	H 	0.8791	0.9262	0.5911	-0.031
Mof_C 	C 	0.871	0.962	0.6237	-0.446
Mof_H 	H 	0.8773	0.9504	0.6423	-0.349
Mof_H 	H 	0.8533	0.9753	0.6292	0.055
Mof_C 	C 	0.8987	0.9824	0.6117	-1.918
Mof_H 	H 	0.8936	0.9907	0.5911	0.518
Mof_H 	H 	0.9017	0.0001	0.6258	0.533
Mof_C 	C 	0.9294	0.9636	0.6097	0.689
Mof_H 	H 	0.946	0.9769	0.6023	-0.219
Mof_H 	H 	0.9347	0.9557	0.6302	1.263
Mof_H 	H 	0.9267	0.9463	0.5955	-0.716
Mof_N 	N 	0.8391	0.88881	0.61888	-0.254
Mof_N 	N 	0.80469	0.92586	0.60794	-0.14
Mof_O 	O 	0.6806	0.87329	0.65084	-0.386
Mof_O 	O 	0.68945	0.89882	0.60741	-0.389
Mof_O 	O 	0.79485	0.90817	0.44883	-0.522
Mof_H 	H 	0.7981	0.9026	0.4304	0.331
Mof_O 	O 	0.79289	0.95922	0.43897	-0.3
Mof_H 	H 	0.7333	0.8689	0.6833	0.047
Mof_H 	H 	0.7663	0.8657	0.6683	-0.006
Mof_C 	C 	0.7395	0.8276	0.6604	0.025
Mof_C 	C 	0.7288	0.8056	0.6799	-0.033
Mof_H 	H 	0.7225	0.8095	0.7004	0.048
Mof_C 	C 	0.7283	0.774	0.6648	-0.015
Mof_H 	H 	0.7214	0.7558	0.6748	-0.005
Mof_C 	C 	0.7389	0.7746	0.6353	-0.022
Mof_H 	H 	0.7405	0.7572	0.6223	-0.042
Mof_S 	S 	0.74897	0.81178	0.62477	-0.049
Mof_H 	H 	0.8526	0.958	0.5891	0.141
Mof_H 	H 	0.8722	0.9287	0.5801	0.073
Mof_C 	C 	0.8847	0.9486	0.6233	0.029
Mof_H 	H 	0.8916	0.9302	0.6348	-0.014
Mof_H 	H 	0.8745	0.9627	0.6379	0.595
Mof_C 	C 	0.9134	0.9652	0.6077	1.84
Mof_H 	H 	0.9234	0.9509	0.593	-0.045
Mof_H 	H 	0.9063	0.9834	0.596	-0.065
Mof_C 	C 	0.9373	0.9755	0.6326	-5.683
Mof_H 	H 	0.9548	0.9857	0.6226	1.75
Mof_H 	H 	0.9275	0.9899	0.647	1.718
Mof_H 	H 	0.9447	0.9574	0.6439	0.93
Mof_C 	C 	0.30009	0.6148	0.63171	0.286
Mof_C 	C 	0.26579	0.61715	0.63794	-0.01
Mof_C 	C 	0.25572	0.6377	0.66473	-0.136
Mof_H 	H 	0.2697	0.6349	0.6822	0.015
Mof_H 	H 	0.2349	0.6319	0.6712	0.024
Mof_C 	C 	0.2562	0.67172	0.6544	0.022
Mof_C 	C 	0.2507	0.6835	0.6259	-0.03
Mof_H 	H 	0.2457	0.6712	0.6085	0.065
Mof_C 	C 	0.2533	0.7183	0.625	-0.007
Mof_H 	H 	0.2502	0.7304	0.6071	0.011
Mof_C 	C 	0.2607	0.7302	0.6528	-0.023
Mof_H 	H 	0.2635	0.7515	0.6567	-0.037
Mof_S 	S 	0.2646	0.70123	0.68055	-0.055
Mof_C 	C 	0.24652	0.60007	0.61982	-0.12
Mof_H 	H 	0.2562	0.5868	0.6054	0.098
Mof_C 	C 	0.21264	0.59969	0.61984	0.079
Mof_C 	C 	0.19055	0.62212	0.62629	-0.086
Mof_H 	H 	0.1949	0.6419	0.6345	0.051
Mof_C 	C 	0.1646	0.58201	0.60754	0.103
Mof_C 	C 	0.2083	0.54624	0.5924	-0.02
Mof_C 	C 	0.20929	0.55104	0.55717	0.102
Mof_C 	C 	0.20889	0.58087	0.54374	-0.16
Mof_H 	H 	0.2088	0.5985	0.5567	0.11
Mof_C 	C 	0.20861	0.58461	0.5117	0.101
Mof_H 	H 	0.2083	0.6047	0.5031	0.029
Mof_C 	C 	0.20883	0.55872	0.49216	-0.175
Mof_C 	C 	0.21012	0.52899	0.50536	0.092
Mof_H 	H 	0.2111	0.5114	0.4924	-0.02
Mof_C 	C 	0.20996	0.52529	0.53732	-0.168
Mof_H 	H 	0.2103	0.5052	0.5458	0.058
Mof_C 	C 	0.20684	0.56265	0.45775	0.433
Mof_C 	C 	0.13852	0.56112	0.59718	-0.094
Mof_H 	H 	0.1452	0.5493	0.5791	-0.081
Mof_H 	H 	0.1209	0.5738	0.5911	-0.031
Mof_C 	C 	0.129	0.538	0.6237	-0.446
Mof_H 	H 	0.1227	0.5496	0.6423	-0.349
Mof_H 	H 	0.1467	0.5247	0.6292	0.055
Mof_C 	C 	0.1013	0.5176	0.6117	-1.918
Mof_H 	H 	0.1064	0.5093	0.5911	0.518
Mof_H 	H 	0.0983	0.4999	0.6258	0.533
Mof_C 	C 	0.0706	0.5364	0.6097	0.689
Mof_H 	H 	0.054	0.5231	0.6023	-0.219
Mof_H 	H 	0.0653	0.5443	0.6302	1.263
Mof_H 	H 	0.0733	0.5537	0.5955	-0.716
Mof_N 	N 	0.1609	0.61119	0.61888	-0.254
Mof_N 	N 	0.19531	0.57414	0.60794	-0.14
Mof_O 	O 	0.3194	0.62671	0.65084	-0.386
Mof_O 	O 	0.31055	0.60118	0.60741	-0.389
Mof_O 	O 	0.20515	0.59183	0.44883	-0.522
Mof_H 	H 	0.2019	0.5974	0.4304	0.331
Mof_O 	O 	0.20711	0.54078	0.43897	-0.3
Mof_H 	H 	0.2667	0.6311	0.6833	0.047
Mof_H 	H 	0.2337	0.6343	0.6683	-0.006
Mof_C 	C 	0.2605	0.6724	0.6604	0.025
Mof_C 	C 	0.2712	0.6944	0.6799	-0.033
Mof_H 	H 	0.2775	0.6905	0.7004	0.048
Mof_C 	C 	0.2717	0.726	0.6648	-0.015
Mof_H 	H 	0.2786	0.7442	0.6748	-0.005
Mof_C 	C 	0.2611	0.7254	0.6353	-0.022
Mof_H 	H 	0.2595	0.7428	0.6223	-0.042
Mof_S 	S 	0.25103	0.68822	0.62477	-0.049
Mof_H 	H 	0.1474	0.542	0.5891	0.141
Mof_H 	H 	0.1278	0.5713	0.5801	0.073
Mof_C 	C 	0.1153	0.5514	0.6233	0.029
Mof_H 	H 	0.1084	0.5698	0.6348	-0.014
Mof_H 	H 	0.1255	0.5373	0.6379	0.595
Mof_C 	C 	0.0866	0.5348	0.6077	1.84
Mof_H 	H 	0.0766	0.5491	0.593	-0.045
Mof_H 	H 	0.0937	0.5166	0.596	-0.065
Mof_C 	C 	0.0627	0.5245	0.6326	-5.683
Mof_H 	H 	0.0452	0.5143	0.6226	1.75
Mof_H 	H 	0.0725	0.5101	0.647	1.718
Mof_H 	H 	0.0553	0.5426	0.6439	0.93
Mof_C 	C 	0.80009	0.1148	0.13171	0.286
Mof_C 	C 	0.76579	0.11715	0.13794	-0.01
Mof_C 	C 	0.75572	0.1377	0.16473	-0.136
Mof_H 	H 	0.7697	0.1349	0.1822	0.015
Mof_H 	H 	0.7349	0.1319	0.1712	0.024
Mof_C 	C 	0.7562	0.17172	0.1544	0.022
Mof_C 	C 	0.7507	0.1835	0.1259	-0.03
Mof_H 	H 	0.7457	0.1712	0.1085	0.065
Mof_C 	C 	0.7533	0.2183	0.125	-0.007
Mof_H 	H 	0.7502	0.2304	0.1071	0.011
Mof_C 	C 	0.7607	0.2302	0.1528	-0.023
Mof_H 	H 	0.7635	0.2515	0.1567	-0.037
Mof_S 	S 	0.7646	0.20123	0.18055	-0.055
Mof_C 	C 	0.74652	0.10007	0.11982	-0.12
Mof_H 	H 	0.7562	0.0868	0.1054	0.098
Mof_C 	C 	0.71264	0.09969	0.11984	0.079
Mof_C 	C 	0.69055	0.12212	0.12629	-0.086
Mof_H 	H 	0.6949	0.1419	0.1345	0.051
Mof_C 	C 	0.6646	0.08201	0.10754	0.103
Mof_C 	C 	0.7083	0.04624	0.0924	-0.02
Mof_C 	C 	0.70929	0.05104	0.05717	0.102
Mof_C 	C 	0.70889	0.08087	0.04374	-0.16
Mof_H 	H 	0.7088	0.0985	0.0567	0.11
Mof_C 	C 	0.70861	0.08461	0.0117	0.101
Mof_H 	H 	0.7083	0.1047	0.0031	0.029
Mof_C 	C 	0.70883	0.05872	0.99216	-0.174
Mof_C 	C 	0.71012	0.02899	0.00536	0.092
Mof_H 	H 	0.7111	0.0114	0.9924	-0.02
Mof_C 	C 	0.70996	0.02529	0.03732	-0.168
Mof_H 	H 	0.7103	0.0052	0.0458	0.058
Mof_C 	C 	0.70684	0.06265	0.95775	0.433
Mof_C 	C 	0.63852	0.06112	0.09718	-0.094
Mof_H 	H 	0.6452	0.0493	0.0791	-0.081
Mof_H 	H 	0.6209	0.0738	0.0911	-0.031
Mof_C 	C 	0.629	0.038	0.1237	-0.446
Mof_H 	H 	0.6227	0.0496	0.1423	-0.349
Mof_H 	H 	0.6467	0.0247	0.1292	0.055
Mof_C 	C 	0.6013	0.0176	0.1117	-1.918
Mof_H 	H 	0.6064	0.0093	0.0911	0.518
Mof_H 	H 	0.5983	0.9999	0.1258	0.533
Mof_C 	C 	0.5706	0.0364	0.1097	0.689
Mof_H 	H 	0.554	0.0231	0.1023	-0.219
Mof_H 	H 	0.5653	0.0443	0.1302	1.263
Mof_H 	H 	0.5733	0.0537	0.0955	-0.716
Mof_N 	N 	0.6609	0.11119	0.11888	-0.254
Mof_N 	N 	0.69531	0.07414	0.10794	-0.14
Mof_O 	O 	0.8194	0.12671	0.15084	-0.386
Mof_O 	O 	0.81055	0.10118	0.10741	-0.389
Mof_O 	O 	0.70515	0.09183	0.94883	-0.522
Mof_H 	H 	0.7019	0.0974	0.9304	0.331
Mof_O 	O 	0.70711	0.04078	0.93897	-0.3
Mof_H 	H 	0.7667	0.1311	0.1833	0.047
Mof_H 	H 	0.7337	0.1343	0.1683	-0.006
Mof_C 	C 	0.7605	0.1724	0.1604	0.025
Mof_C 	C 	0.7712	0.1944	0.1799	-0.033
Mof_H 	H 	0.7775	0.1905	0.2004	0.048
Mof_C 	C 	0.7717	0.226	0.1648	-0.015
Mof_H 	H 	0.7786	0.2442	0.1748	-0.005
Mof_C 	C 	0.7611	0.2254	0.1353	-0.022
Mof_H 	H 	0.7595	0.2428	0.1223	-0.042
Mof_S 	S 	0.75103	0.18822	0.12477	-0.049
Mof_H 	H 	0.6474	0.042	0.0891	0.141
Mof_H 	H 	0.6278	0.0713	0.0801	0.073
Mof_C 	C 	0.6153	0.0514	0.1233	0.029
Mof_H 	H 	0.6084	0.0698	0.1348	-0.014
Mof_H 	H 	0.6255	0.0373	0.1379	0.595
Mof_C 	C 	0.5866	0.0348	0.1077	1.84
Mof_H 	H 	0.5766	0.0491	0.093	-0.045
Mof_H 	H 	0.5937	0.0166	0.096	-0.065
Mof_C 	C 	0.5627	0.0245	0.1326	-5.683
Mof_H 	H 	0.5452	0.0143	0.1226	1.75
Mof_H 	H 	0.5725	0.0101	0.147	1.718
Mof_H 	H 	0.5553	0.0426	0.1439	0.93
Mof_C 	C 	0.80009	0.8852	0.36829	0.286
Mof_C 	C 	0.76579	0.88285	0.36206	-0.01
Mof_C 	C 	0.75572	0.8623	0.33527	-0.136
Mof_H 	H 	0.7697	0.8651	0.3178	0.015
Mof_H 	H 	0.7349	0.8681	0.3288	0.024
Mof_C 	C 	0.7562	0.82828	0.3456	0.022
Mof_C 	C 	0.7507	0.8165	0.3741	-0.03
Mof_H 	H 	0.7457	0.8288	0.3915	0.065
Mof_C 	C 	0.7533	0.7817	0.375	-0.007
Mof_H 	H 	0.7502	0.7696	0.3929	0.011
Mof_C 	C 	0.7607	0.7698	0.3472	-0.023
Mof_H 	H 	0.7635	0.7485	0.3433	-0.037
Mof_S 	S 	0.7646	0.79877	0.31945	-0.055
Mof_C 	C 	0.74652	0.89993	0.38018	-0.12
Mof_H 	H 	0.7562	0.9132	0.3946	0.098
Mof_C 	C 	0.71264	0.90031	0.38016	0.079
Mof_C 	C 	0.69055	0.87788	0.37371	-0.086
Mof_H 	H 	0.6949	0.8581	0.3655	0.051
Mof_C 	C 	0.6646	0.91799	0.39246	0.103
Mof_C 	C 	0.7083	0.95376	0.4076	-0.02
Mof_C 	C 	0.70929	0.94896	0.44283	0.102
Mof_C 	C 	0.70889	0.91913	0.45626	-0.16
Mof_H 	H 	0.7088	0.9015	0.4433	0.11
Mof_C 	C 	0.70861	0.91539	0.4883	0.101
Mof_H 	H 	0.7083	0.8953	0.4969	0.029
Mof_C 	C 	0.70883	0.94128	0.50784	-0.174
Mof_C 	C 	0.71012	0.97101	0.49464	0.092
Mof_H 	H 	0.7111	0.9886	0.5076	-0.02
Mof_C 	C 	0.70996	0.97471	0.46268	-0.168
Mof_H 	H 	0.7103	0.9948	0.4542	0.058
Mof_C 	C 	0.70684	0.93735	0.54225	0.433
Mof_C 	C 	0.63852	0.93888	0.40282	-0.094
Mof_H 	H 	0.6452	0.9507	0.4209	-0.081
Mof_H 	H 	0.6209	0.9262	0.4089	-0.031
Mof_C 	C 	0.629	0.962	0.3763	-0.446
Mof_H 	H 	0.6227	0.9504	0.3577	-0.349
Mof_H 	H 	0.6467	0.9753	0.3708	0.055
Mof_C 	C 	0.6013	0.9824	0.3883	-1.918
Mof_H 	H 	0.6064	0.9907	0.4089	0.518
Mof_H 	H 	0.5983	0.0001	0.3742	0.533
Mof_C 	C 	0.5706	0.9636	0.3903	0.689
Mof_H 	H 	0.554	0.9769	0.3977	-0.219
Mof_H 	H 	0.5653	0.9557	0.3698	1.263
Mof_H 	H 	0.5733	0.9463	0.4045	-0.716
Mof_N 	N 	0.6609	0.88881	0.38112	-0.254
Mof_N 	N 	0.69531	0.92586	0.39206	-0.14
Mof_O 	O 	0.8194	0.87329	0.34916	-0.386
Mof_O 	O 	0.81055	0.89882	0.39259	-0.389
Mof_O 	O 	0.70515	0.90817	0.55117	-0.522
Mof_H 	H 	0.7019	0.9026	0.5696	0.331
Mof_O 	O 	0.70711	0.95922	0.56103	-0.3
Mof_H 	H 	0.7667	0.8689	0.3167	0.047
Mof_H 	H 	0.7337	0.8657	0.3317	-0.006
Mof_C 	C 	0.7605	0.8276	0.3396	0.025
Mof_C 	C 	0.7712	0.8056	0.3201	-0.033
Mof_H 	H 	0.7775	0.8095	0.2996	0.048
Mof_C 	C 	0.7717	0.774	0.3352	-0.015
Mof_H 	H 	0.7786	0.7558	0.3252	-0.005
Mof_C 	C 	0.7611	0.7746	0.3647	-0.022
Mof_H 	H 	0.7595	0.7572	0.3777	-0.042
Mof_S 	S 	0.75103	0.81178	0.37523	-0.049
Mof_H 	H 	0.6474	0.958	0.4109	0.141
Mof_H 	H 	0.6278	0.9287	0.4199	0.073
Mof_C 	C 	0.6153	0.9486	0.3767	0.029
Mof_H 	H 	0.6084	0.9302	0.3652	-0.014
Mof_H 	H 	0.6255	0.9627	0.3621	0.595
Mof_C 	C 	0.5866	0.9652	0.3923	1.84
Mof_H 	H 	0.5766	0.9509	0.407	-0.045
Mof_H 	H 	0.5937	0.9834	0.404	-0.065
Mof_C 	C 	0.5627	0.9755	0.3674	-5.683
Mof_H 	H 	0.5452	0.9857	0.3774	1.75
Mof_H 	H 	0.5725	0.9899	0.353	1.718
Mof_H 	H 	0.5553	0.9574	0.3561	0.93
Mof_C 	C 	0.30009	0.3852	0.86829	0.286
Mof_C 	C 	0.26579	0.38285	0.86206	-0.01
Mof_C 	C 	0.25572	0.3623	0.83527	-0.136
Mof_H 	H 	0.2697	0.3651	0.8178	0.015
Mof_H 	H 	0.2349	0.3681	0.8288	0.024
Mof_C 	C 	0.2562	0.32828	0.8456	0.022
Mof_C 	C 	0.2507	0.3165	0.8741	-0.03
Mof_H 	H 	0.2457	0.3288	0.8915	0.065
Mof_C 	C 	0.2533	0.2817	0.875	-0.007
Mof_H 	H 	0.2502	0.2696	0.8929	0.011
Mof_C 	C 	0.2607	0.2698	0.8472	-0.023
Mof_H 	H 	0.2635	0.2485	0.8433	-0.037
Mof_S 	S 	0.2646	0.29877	0.81945	-0.055
Mof_C 	C 	0.24652	0.39993	0.88018	-0.12
Mof_H 	H 	0.2562	0.4132	0.8946	0.098
Mof_C 	C 	0.21264	0.40031	0.88016	0.079
Mof_C 	C 	0.19055	0.37788	0.87371	-0.086
Mof_H 	H 	0.1949	0.3581	0.8655	0.051
Mof_C 	C 	0.1646	0.41799	0.89246	0.103
Mof_C 	C 	0.2083	0.45376	0.9076	-0.02
Mof_C 	C 	0.20929	0.44896	0.94283	0.102
Mof_C 	C 	0.20889	0.41913	0.95626	-0.16
Mof_H 	H 	0.2088	0.4015	0.9433	0.11
Mof_C 	C 	0.20861	0.41539	0.9883	0.101
Mof_H 	H 	0.2083	0.3953	0.9969	0.029
Mof_C 	C 	0.20883	0.44128	0.00784	-0.174
Mof_C 	C 	0.21012	0.47101	0.99464	0.092
Mof_H 	H 	0.2111	0.4886	0.0076	-0.02
Mof_C 	C 	0.20996	0.47471	0.96268	-0.168
Mof_H 	H 	0.2103	0.4948	0.9542	0.058
Mof_C 	C 	0.20684	0.43735	0.04225	0.433
Mof_C 	C 	0.13852	0.43888	0.90282	-0.094
Mof_H 	H 	0.1452	0.4507	0.9209	-0.081
Mof_H 	H 	0.1209	0.4262	0.9089	-0.031
Mof_C 	C 	0.129	0.462	0.8763	-0.446
Mof_H 	H 	0.1227	0.4504	0.8577	-0.349
Mof_H 	H 	0.1467	0.4753	0.8708	0.055
Mof_C 	C 	0.1013	0.4824	0.8883	-1.918
Mof_H 	H 	0.1064	0.4907	0.9089	0.518
Mof_H 	H 	0.0983	0.5001	0.8742	0.533
Mof_C 	C 	0.0706	0.4636	0.8903	0.689
Mof_H 	H 	0.054	0.4769	0.8977	-0.219
Mof_H 	H 	0.0653	0.4557	0.8698	1.263
Mof_H 	H 	0.0733	0.4463	0.9045	-0.716
Mof_N 	N 	0.1609	0.38881	0.88112	-0.254
Mof_N 	N 	0.19531	0.42586	0.89206	-0.14
Mof_O 	O 	0.3194	0.37329	0.84916	-0.386
Mof_O 	O 	0.31055	0.39882	0.89259	-0.389
Mof_O 	O 	0.20515	0.40817	0.05117	-0.522
Mof_H 	H 	0.2019	0.4026	0.0696	0.331
Mof_O 	O 	0.20711	0.45922	0.06103	-0.3
Mof_H 	H 	0.2667	0.3689	0.8167	0.047
Mof_H 	H 	0.2337	0.3657	0.8317	-0.006
Mof_C 	C 	0.2605	0.3276	0.8396	0.025
Mof_C 	C 	0.2712	0.3056	0.8201	-0.033
Mof_H 	H 	0.2775	0.3095	0.7996	0.048
Mof_C 	C 	0.2717	0.274	0.8352	-0.015
Mof_H 	H 	0.2786	0.2558	0.8252	-0.005
Mof_C 	C 	0.2611	0.2746	0.8647	-0.022
Mof_H 	H 	0.2595	0.2572	0.8777	-0.042
Mof_S 	S 	0.25103	0.31178	0.87523	-0.049
Mof_H 	H 	0.1474	0.458	0.9109	0.141
Mof_H 	H 	0.1278	0.4287	0.9199	0.073
Mof_C 	C 	0.1153	0.4486	0.8767	0.029
Mof_H 	H 	0.1084	0.4302	0.8652	-0.014
Mof_H 	H 	0.1255	0.4627	0.8621	0.595
Mof_C 	C 	0.0866	0.4652	0.8923	1.84
Mof_H 	H 	0.0766	0.4509	0.907	-0.045
Mof_H 	H 	0.0937	0.4834	0.904	-0.065
Mof_C 	C 	0.0627	0.4755	0.8674	-5.683
Mof_H 	H 	0.0452	0.4857	0.8774	1.75
Mof_H 	H 	0.0725	0.4899	0.853	1.718
Mof_H 	H 	0.0553	0.4574	0.8561	0.93
Mof_C 	C 	0.61829	0.1352	0.05009	0.286
Mof_C 	C 	0.61206	0.13285	0.01579	-0.01
Mof_C 	C 	0.58527	0.1123	0.00572	-0.136
Mof_H 	H 	0.5678	0.1151	0.0197	0.015
Mof_H 	H 	0.5788	0.1181	0.9849	0.024
Mof_C 	C 	0.5956	0.07828	0.0062	0.022
Mof_C 	C 	0.6241	0.0665	0.0007	-0.03
Mof_H 	H 	0.6415	0.0788	0.9957	0.065
Mof_C 	C 	0.625	0.0317	0.0033	-0.007
Mof_H 	H 	0.6429	0.0196	0.0002	0.011
Mof_C 	C 	0.5972	0.0198	0.0107	-0.023
Mof_H 	H 	0.5933	0.9985	0.0135	-0.037
Mof_S 	S 	0.56945	0.04877	0.0146	-0.055
Mof_C 	C 	0.63018	0.14993	0.99652	-0.12
Mof_H 	H 	0.6446	0.1632	0.0062	0.098
Mof_C 	C 	0.63016	0.15031	0.96264	0.079
Mof_C 	C 	0.62371	0.12788	0.94055	-0.086
Mof_H 	H 	0.6155	0.1081	0.9449	0.051
Mof_C 	C 	0.64246	0.16799	0.9146	0.103
Mof_C 	C 	0.6576	0.20376	0.9583	-0.02
Mof_C 	C 	0.69283	0.19896	0.95929	0.102
Mof_C 	C 	0.70626	0.16913	0.95889	-0.16
Mof_H 	H 	0.6933	0.1515	0.9588	0.11
Mof_C 	C 	0.7383	0.16539	0.95861	0.101
Mof_H 	H 	0.7469	0.1453	0.9583	0.029
Mof_C 	C 	0.75784	0.19128	0.95883	-0.174
Mof_C 	C 	0.74464	0.22101	0.96012	0.092
Mof_H 	H 	0.7576	0.2386	0.9611	-0.02
Mof_C 	C 	0.71268	0.22471	0.95996	-0.168
Mof_H 	H 	0.7042	0.2448	0.9603	0.058
Mof_C 	C 	0.79225	0.18735	0.95684	0.433
Mof_C 	C 	0.65282	0.18888	0.88852	-0.094
Mof_H 	H 	0.6709	0.2007	0.8952	-0.081
Mof_H 	H 	0.6589	0.1762	0.8709	-0.031
Mof_C 	C 	0.6263	0.212	0.879	-0.446
Mof_H 	H 	0.6077	0.2004	0.8727	-0.349
Mof_H 	H 	0.6208	0.2253	0.8967	0.055
Mof_C 	C 	0.6383	0.2324	0.8513	-1.918
Mof_H 	H 	0.6589	0.2407	0.8564	0.518
Mof_H 	H 	0.6242	0.2501	0.8483	0.533
Mof_C 	C 	0.6403	0.2136	0.8206	0.689
Mof_H 	H 	0.6477	0.2269	0.804	-0.219
Mof_H 	H 	0.6198	0.2057	0.8153	1.263
Mof_H 	H 	0.6545	0.1963	0.8233	-0.716
Mof_N 	N 	0.63112	0.13881	0.9109	-0.254
Mof_N 	N 	0.64206	0.17586	0.94531	-0.14
Mof_O 	O 	0.59916	0.12329	0.0694	-0.386
Mof_O 	O 	0.64259	0.14882	0.06055	-0.389
Mof_O 	O 	0.80117	0.15817	0.95515	-0.522
Mof_H 	H 	0.8196	0.1526	0.9519	0.331
Mof_O 	O 	0.81103	0.20922	0.95711	-0.3
Mof_H 	H 	0.5667	0.1189	0.0167	0.047
Mof_H 	H 	0.5817	0.1157	0.9837	-0.006
Mof_C 	C 	0.5896	0.0776	0.0105	0.025
Mof_C 	C 	0.5701	0.0556	0.0212	-0.033
Mof_H 	H 	0.5496	0.0595	0.0275	0.048
Mof_C 	C 	0.5852	0.024	0.0217	-0.015
Mof_H 	H 	0.5752	0.0058	0.0286	-0.005
Mof_C 	C 	0.6147	0.0246	0.0111	-0.022
Mof_H 	H 	0.6277	0.0072	0.0095	-0.042
Mof_S 	S 	0.62523	0.06178	0.00103	-0.049
Mof_H 	H 	0.6609	0.208	0.8974	0.141
Mof_H 	H 	0.6699	0.1787	0.8778	0.073
Mof_C 	C 	0.6267	0.1986	0.8653	0.029
Mof_H 	H 	0.6152	0.1802	0.8584	-0.014
Mof_H 	H 	0.6121	0.2127	0.8755	0.595
Mof_C 	C 	0.6423	0.2152	0.8366	1.84
Mof_H 	H 	0.657	0.2009	0.8266	-0.045
Mof_H 	H 	0.654	0.2334	0.8437	-0.065
Mof_C 	C 	0.6174	0.2255	0.8127	-5.683
Mof_H 	H 	0.6274	0.2357	0.7952	1.75
Mof_H 	H 	0.603	0.2399	0.8225	1.718
Mof_H 	H 	0.6061	0.2074	0.8053	0.93
Mof_C 	C 	0.11829	0.6352	0.55009	0.286
Mof_C 	C 	0.11206	0.63285	0.51579	-0.01
Mof_C 	C 	0.08527	0.6123	0.50572	-0.136
Mof_H 	H 	0.0678	0.6151	0.5197	0.015
Mof_H 	H 	0.0788	0.6181	0.4849	0.024
Mof_C 	C 	0.0956	0.57828	0.5062	0.022
Mof_C 	C 	0.1241	0.5665	0.5007	-0.03
Mof_H 	H 	0.1415	0.5788	0.4957	0.065
Mof_C 	C 	0.125	0.5317	0.5033	-0.007
Mof_H 	H 	0.1429	0.5196	0.5002	0.011
Mof_C 	C 	0.0972	0.5198	0.5107	-0.023
Mof_H 	H 	0.0933	0.4985	0.5135	-0.037
Mof_S 	S 	0.06945	0.54877	0.5146	-0.055
Mof_C 	C 	0.13018	0.64993	0.49652	-0.12
Mof_H 	H 	0.1446	0.6632	0.5062	0.098
Mof_C 	C 	0.13016	0.65031	0.46264	0.079
Mof_C 	C 	0.12371	0.62788	0.44055	-0.086
Mof_H 	H 	0.1155	0.6081	0.4449	0.051
Mof_C 	C 	0.14246	0.66799	0.4146	0.103
Mof_C 	C 	0.1576	0.70376	0.4583	-0.02
Mof_C 	C 	0.19283	0.69896	0.45929	0.102
Mof_C 	C 	0.20626	0.66913	0.45889	-0.16
Mof_H 	H 	0.1933	0.6515	0.4588	0.11
Mof_C 	C 	0.2383	0.66539	0.45861	0.101
Mof_H 	H 	0.2469	0.6453	0.4583	0.029
Mof_C 	C 	0.25784	0.69128	0.45883	-0.175
Mof_C 	C 	0.24464	0.72101	0.46012	0.092
Mof_H 	H 	0.2576	0.7386	0.4611	-0.02
Mof_C 	C 	0.21268	0.72471	0.45996	-0.168
Mof_H 	H 	0.2042	0.7448	0.4603	0.058
Mof_C 	C 	0.29225	0.68735	0.45684	0.433
Mof_C 	C 	0.15282	0.68888	0.38852	-0.094
Mof_H 	H 	0.1709	0.7007	0.3952	-0.081
Mof_H 	H 	0.1589	0.6762	0.3709	-0.031
Mof_C 	C 	0.1263	0.712	0.379	-0.446
Mof_H 	H 	0.1077	0.7004	0.3727	-0.349
Mof_H 	H 	0.1208	0.7253	0.3967	0.055
Mof_C 	C 	0.1383	0.7324	0.3513	-1.918
Mof_H 	H 	0.1589	0.7407	0.3564	0.518
Mof_H 	H 	0.1242	0.7501	0.3483	0.533
Mof_C 	C 	0.1403	0.7136	0.3206	0.689
Mof_H 	H 	0.1477	0.7269	0.304	-0.219
Mof_H 	H 	0.1198	0.7057	0.3153	1.263
Mof_H 	H 	0.1545	0.6963	0.3233	-0.716
Mof_N 	N 	0.13112	0.63881	0.4109	-0.254
Mof_N 	N 	0.14206	0.67586	0.44531	-0.14
Mof_O 	O 	0.09916	0.62329	0.5694	-0.386
Mof_O 	O 	0.14259	0.64882	0.56055	-0.389
Mof_O 	O 	0.30117	0.65817	0.45515	-0.522
Mof_H 	H 	0.3196	0.6526	0.4519	0.331
Mof_O 	O 	0.31103	0.70922	0.45711	-0.3
Mof_H 	H 	0.0667	0.6189	0.5167	0.047
Mof_H 	H 	0.0817	0.6157	0.4837	-0.006
Mof_C 	C 	0.0896	0.5776	0.5105	0.025
Mof_C 	C 	0.0701	0.5556	0.5212	-0.033
Mof_H 	H 	0.0496	0.5595	0.5275	0.048
Mof_C 	C 	0.0852	0.524	0.5217	-0.015
Mof_H 	H 	0.0752	0.5058	0.5286	-0.005
Mof_C 	C 	0.1147	0.5246	0.5111	-0.022
Mof_H 	H 	0.1277	0.5072	0.5095	-0.042
Mof_S 	S 	0.12523	0.56178	0.50103	-0.049
Mof_H 	H 	0.1609	0.708	0.3974	0.141
Mof_H 	H 	0.1699	0.6787	0.3778	0.073
Mof_C 	C 	0.1267	0.6986	0.3653	0.029
Mof_H 	H 	0.1152	0.6802	0.3584	-0.014
Mof_H 	H 	0.1121	0.7127	0.3755	0.595
Mof_C 	C 	0.1423	0.7152	0.3366	1.84
Mof_H 	H 	0.157	0.7009	0.3266	-0.045
Mof_H 	H 	0.154	0.7334	0.3437	-0.065
Mof_C 	C 	0.1174	0.7255	0.3127	-5.683
Mof_H 	H 	0.1274	0.7357	0.2952	1.75
Mof_H 	H 	0.103	0.7399	0.3225	1.718
Mof_H 	H 	0.1061	0.7074	0.3053	0.93
Mof_C 	C 	0.88171	0.8648	0.55009	0.286
Mof_C 	C 	0.88794	0.86715	0.51579	-0.01
Mof_C 	C 	0.91473	0.8877	0.50572	-0.136
Mof_H 	H 	0.9322	0.8849	0.5197	0.015
Mof_H 	H 	0.9212	0.8819	0.4849	0.024
Mof_C 	C 	0.9044	0.92172	0.5062	0.022
Mof_C 	C 	0.8759	0.9335	0.5007	-0.03
Mof_H 	H 	0.8585	0.9212	0.4957	0.065
Mof_C 	C 	0.875	0.9683	0.5033	-0.007
Mof_H 	H 	0.8571	0.9804	0.5002	0.011
Mof_C 	C 	0.9028	0.9802	0.5107	-0.023
Mof_H 	H 	0.9067	0.0015	0.5135	-0.037
Mof_S 	S 	0.93055	0.95123	0.5146	-0.055
Mof_C 	C 	0.86982	0.85007	0.49652	-0.12
Mof_H 	H 	0.8554	0.8368	0.5062	0.098
Mof_C 	C 	0.86984	0.84969	0.46264	0.079
Mof_C 	C 	0.87629	0.87212	0.44055	-0.086
Mof_H 	H 	0.8845	0.8919	0.4449	0.051
Mof_C 	C 	0.85754	0.83201	0.4146	0.103
Mof_C 	C 	0.8424	0.79624	0.4583	-0.02
Mof_C 	C 	0.80717	0.80104	0.45929	0.102
Mof_C 	C 	0.79374	0.83087	0.45889	-0.16
Mof_H 	H 	0.8067	0.8485	0.4588	0.11
Mof_C 	C 	0.7617	0.83461	0.45861	0.101
Mof_H 	H 	0.7531	0.8547	0.4583	0.029
Mof_C 	C 	0.74216	0.80872	0.45883	-0.175
Mof_C 	C 	0.75536	0.77899	0.46012	0.092
Mof_H 	H 	0.7424	0.7614	0.4611	-0.02
Mof_C 	C 	0.78732	0.77529	0.45996	-0.168
Mof_H 	H 	0.7958	0.7552	0.4603	0.058
Mof_C 	C 	0.70775	0.81265	0.45684	0.433
Mof_C 	C 	0.84718	0.81112	0.38852	-0.094
Mof_H 	H 	0.8291	0.7993	0.3952	-0.081
Mof_H 	H 	0.8411	0.8238	0.3709	-0.031
Mof_C 	C 	0.8737	0.788	0.379	-0.446
Mof_H 	H 	0.8923	0.7996	0.3727	-0.349
Mof_H 	H 	0.8792	0.7747	0.3967	0.055
Mof_C 	C 	0.8617	0.7676	0.3513	-1.918
Mof_H 	H 	0.8411	0.7593	0.3564	0.518
Mof_H 	H 	0.8758	0.7499	0.3483	0.533
Mof_C 	C 	0.8597	0.7864	0.3206	0.689
Mof_H 	H 	0.8523	0.7731	0.304	-0.219
Mof_H 	H 	0.8802	0.7943	0.3153	1.263
Mof_H 	H 	0.8455	0.8037	0.3233	-0.716
Mof_N 	N 	0.86888	0.86119	0.4109	-0.254
Mof_N 	N 	0.85794	0.82414	0.44531	-0.14
Mof_O 	O 	0.90084	0.87671	0.5694	-0.386
Mof_O 	O 	0.85741	0.85118	0.56055	-0.389
Mof_O 	O 	0.69883	0.84183	0.45515	-0.522
Mof_H 	H 	0.6804	0.8474	0.4519	0.331
Mof_O 	O 	0.68897	0.79078	0.45711	-0.3
Mof_H 	H 	0.9333	0.8811	0.5167	0.047
Mof_H 	H 	0.9183	0.8843	0.4837	-0.006
Mof_C 	C 	0.9104	0.9224	0.5105	0.025
Mof_C 	C 	0.9299	0.9444	0.5212	-0.033
Mof_H 	H 	0.9504	0.9405	0.5275	0.048
Mof_C 	C 	0.9148	0.976	0.5217	-0.015
Mof_H 	H 	0.9248	0.9942	0.5286	-0.005
Mof_C 	C 	0.8853	0.9754	0.5111	-0.022
Mof_H 	H 	0.8723	0.9928	0.5095	-0.042
Mof_S 	S 	0.87477	0.93822	0.50103	-0.049
Mof_H 	H 	0.8391	0.792	0.3974	0.141
Mof_H 	H 	0.8301	0.8213	0.3778	0.073
Mof_C 	C 	0.8733	0.8014	0.3653	0.029
Mof_H 	H 	0.8848	0.8198	0.3584	-0.014
Mof_H 	H 	0.8879	0.7873	0.3755	0.595
Mof_C 	C 	0.8577	0.7848	0.3366	1.84
Mof_H 	H 	0.843	0.7991	0.3266	-0.045
Mof_H 	H 	0.846	0.7666	0.3437	-0.065
Mof_C 	C 	0.8826	0.7745	0.3127	-5.683
Mof_H 	H 	0.8726	0.7643	0.2952	1.75
Mof_H 	H 	0.897	0.7601	0.3225	1.718
Mof_H 	H 	0.8939	0.7926	0.3053	0.93
Mof_C 	C 	0.38171	0.3648	0.05009	0.286
Mof_C 	C 	0.38794	0.36715	0.01579	-0.01
Mof_C 	C 	0.41473	0.3877	0.00572	-0.136
Mof_H 	H 	0.4322	0.3849	0.0197	0.015
Mof_H 	H 	0.4212	0.3819	0.9849	0.024
Mof_C 	C 	0.4044	0.42172	0.0062	0.022
Mof_C 	C 	0.3759	0.4335	0.0007	-0.03
Mof_H 	H 	0.3585	0.4212	0.9957	0.065
Mof_C 	C 	0.375	0.4683	0.0033	-0.007
Mof_H 	H 	0.3571	0.4804	0.0002	0.011
Mof_C 	C 	0.4028	0.4802	0.0107	-0.023
Mof_H 	H 	0.4067	0.5015	0.0135	-0.037
Mof_S 	S 	0.43055	0.45123	0.0146	-0.055
Mof_C 	C 	0.36982	0.35007	0.99652	-0.12
Mof_H 	H 	0.3554	0.3368	0.0062	0.098
Mof_C 	C 	0.36984	0.34969	0.96264	0.079
Mof_C 	C 	0.37629	0.37212	0.94055	-0.086
Mof_H 	H 	0.3845	0.3919	0.9449	0.051
Mof_C 	C 	0.35754	0.33201	0.9146	0.103
Mof_C 	C 	0.3424	0.29624	0.9583	-0.02
Mof_C 	C 	0.30717	0.30104	0.95929	0.102
Mof_C 	C 	0.29374	0.33087	0.95889	-0.16
Mof_H 	H 	0.3067	0.3485	0.9588	0.11
Mof_C 	C 	0.2617	0.33461	0.95861	0.101
Mof_H 	H 	0.2531	0.3547	0.9583	0.029
Mof_C 	C 	0.24216	0.30872	0.95883	-0.174
Mof_C 	C 	0.25536	0.27899	0.96012	0.092
Mof_H 	H 	0.2424	0.2614	0.9611	-0.02
Mof_C 	C 	0.28732	0.27529	0.95996	-0.168
Mof_H 	H 	0.2958	0.2552	0.9603	0.058
Mof_C 	C 	0.20775	0.31265	0.95684	0.433
Mof_C 	C 	0.34718	0.31112	0.88852	-0.094
Mof_H 	H 	0.3291	0.2993	0.8952	-0.081
Mof_H 	H 	0.3411	0.3238	0.8709	-0.031
Mof_C 	C 	0.3737	0.288	0.879	-0.446
Mof_H 	H 	0.3923	0.2996	0.8727	-0.349
Mof_H 	H 	0.3792	0.2747	0.8967	0.055
Mof_C 	C 	0.3617	0.2676	0.8513	-1.918
Mof_H 	H 	0.3411	0.2593	0.8564	0.518
Mof_H 	H 	0.3758	0.2499	0.8483	0.533
Mof_C 	C 	0.3597	0.2864	0.8206	0.689
Mof_H 	H 	0.3523	0.2731	0.804	-0.219
Mof_H 	H 	0.3802	0.2943	0.8153	1.263
Mof_H 	H 	0.3455	0.3037	0.8233	-0.716
Mof_N 	N 	0.36888	0.36119	0.9109	-0.254
Mof_N 	N 	0.35794	0.32414	0.94531	-0.14
Mof_O 	O 	0.40084	0.37671	0.0694	-0.386
Mof_O 	O 	0.35741	0.35118	0.06055	-0.389
Mof_O 	O 	0.19883	0.34183	0.95515	-0.522
Mof_H 	H 	0.1804	0.3474	0.9519	0.331
Mof_O 	O 	0.18897	0.29078	0.95711	-0.3
Mof_H 	H 	0.4333	0.3811	0.0167	0.047
Mof_H 	H 	0.4183	0.3843	0.9837	-0.006
Mof_C 	C 	0.4104	0.4224	0.0105	0.025
Mof_C 	C 	0.4299	0.4444	0.0212	-0.033
Mof_H 	H 	0.4504	0.4405	0.0275	0.048
Mof_C 	C 	0.4148	0.476	0.0217	-0.015
Mof_H 	H 	0.4248	0.4942	0.0286	-0.005
Mof_C 	C 	0.3853	0.4754	0.0111	-0.022
Mof_H 	H 	0.3723	0.4928	0.0095	-0.042
Mof_S 	S 	0.37477	0.43822	0.00103	-0.049
Mof_H 	H 	0.3391	0.292	0.8974	0.141
Mof_H 	H 	0.3301	0.3213	0.8778	0.073
Mof_C 	C 	0.3733	0.3014	0.8653	0.029
Mof_H 	H 	0.3848	0.3198	0.8584	-0.014
Mof_H 	H 	0.3879	0.2873	0.8755	0.595
Mof_C 	C 	0.3577	0.2848	0.8366	1.84
Mof_H 	H 	0.343	0.2991	0.8266	-0.045
Mof_H 	H 	0.346	0.2666	0.8437	-0.065
Mof_C 	C 	0.3826	0.2745	0.8127	-5.683
Mof_H 	H 	0.3726	0.2643	0.7952	1.75
Mof_H 	H 	0.397	0.2601	0.8225	1.718
Mof_H 	H 	0.3939	0.2926	0.8053	0.93
Mof_C 	C 	0.38171	0.6352	0.44991	0.286
Mof_C 	C 	0.38794	0.63285	0.48421	-0.01
Mof_C 	C 	0.41473	0.6123	0.49428	-0.136
Mof_H 	H 	0.4322	0.6151	0.4803	0.015
Mof_H 	H 	0.4212	0.6181	0.5151	0.024
Mof_C 	C 	0.4044	0.57828	0.4938	0.022
Mof_C 	C 	0.3759	0.5665	0.4993	-0.03
Mof_H 	H 	0.3585	0.5788	0.5043	0.065
Mof_C 	C 	0.375	0.5317	0.4967	-0.007
Mof_H 	H 	0.3571	0.5196	0.4998	0.011
Mof_C 	C 	0.4028	0.5198	0.4893	-0.023
Mof_H 	H 	0.4067	0.4985	0.4865	-0.037
Mof_S 	S 	0.43055	0.54877	0.4854	-0.055
Mof_C 	C 	0.36982	0.64993	0.50348	-0.12
Mof_H 	H 	0.3554	0.6632	0.4938	0.098
Mof_C 	C 	0.36984	0.65031	0.53736	0.079
Mof_C 	C 	0.37629	0.62788	0.55945	-0.086
Mof_H 	H 	0.3845	0.6081	0.5551	0.051
Mof_C 	C 	0.35754	0.66799	0.5854	0.103
Mof_C 	C 	0.3424	0.70376	0.5417	-0.02
Mof_C 	C 	0.30717	0.69896	0.54071	0.102
Mof_C 	C 	0.29374	0.66913	0.54111	-0.16
Mof_H 	H 	0.3067	0.6515	0.5412	0.11
Mof_C 	C 	0.2617	0.66539	0.54139	0.101
Mof_H 	H 	0.2531	0.6453	0.5417	0.029
Mof_C 	C 	0.24216	0.69128	0.54117	-0.175
Mof_C 	C 	0.25536	0.72101	0.53988	0.092
Mof_H 	H 	0.2424	0.7386	0.5389	-0.02
Mof_C 	C 	0.28732	0.72471	0.54004	-0.168
Mof_H 	H 	0.2958	0.7448	0.5397	0.058
Mof_C 	C 	0.20775	0.68735	0.54316	0.433
Mof_C 	C 	0.34718	0.68888	0.61148	-0.094
Mof_H 	H 	0.3291	0.7007	0.6048	-0.081
Mof_H 	H 	0.3411	0.6762	0.6291	-0.031
Mof_C 	C 	0.3737	0.712	0.621	-0.446
Mof_H 	H 	0.3923	0.7004	0.6273	-0.349
Mof_H 	H 	0.3792	0.7253	0.6033	0.055
Mof_C 	C 	0.3617	0.7324	0.6487	-1.918
Mof_H 	H 	0.3411	0.7407	0.6436	0.518
Mof_H 	H 	0.3758	0.7501	0.6517	0.533
Mof_C 	C 	0.3597	0.7136	0.6794	0.689
Mof_H 	H 	0.3523	0.7269	0.696	-0.219
Mof_H 	H 	0.3802	0.7057	0.6847	1.263
Mof_H 	H 	0.3455	0.6963	0.6767	-0.716
Mof_N 	N 	0.36888	0.63881	0.5891	-0.254
Mof_N 	N 	0.35794	0.67586	0.55469	-0.14
Mof_O 	O 	0.40084	0.62329	0.4306	-0.386
Mof_O 	O 	0.35741	0.64882	0.43945	-0.389
Mof_O 	O 	0.19883	0.65817	0.54485	-0.522
Mof_H 	H 	0.1804	0.6526	0.5481	0.331
Mof_O 	O 	0.18897	0.70922	0.54289	-0.3
Mof_H 	H 	0.4333	0.6189	0.4833	0.047
Mof_H 	H 	0.4183	0.6157	0.5163	-0.006
Mof_C 	C 	0.4104	0.5776	0.4895	0.025
Mof_C 	C 	0.4299	0.5556	0.4788	-0.033
Mof_H 	H 	0.4504	0.5595	0.4725	0.048
Mof_C 	C 	0.4148	0.524	0.4783	-0.015
Mof_H 	H 	0.4248	0.5058	0.4714	-0.005
Mof_C 	C 	0.3853	0.5246	0.4889	-0.022
Mof_H 	H 	0.3723	0.5072	0.4905	-0.042
Mof_S 	S 	0.37477	0.56178	0.49897	-0.049
Mof_H 	H 	0.3391	0.708	0.6026	0.141
Mof_H 	H 	0.3301	0.6787	0.6222	0.073
Mof_C 	C 	0.3733	0.6986	0.6347	0.029
Mof_H 	H 	0.3848	0.6802	0.6416	-0.014
Mof_H 	H 	0.3879	0.7127	0.6245	0.595
Mof_C 	C 	0.3577	0.7152	0.6634	1.84
Mof_H 	H 	0.343	0.7009	0.6734	-0.045
Mof_H 	H 	0.346	0.7334	0.6563	-0.065
Mof_C 	C 	0.3826	0.7255	0.6873	-5.683
Mof_H 	H 	0.3726	0.7357	0.7048	1.75
Mof_H 	H 	0.397	0.7399	0.6775	1.718
Mof_H 	H 	0.3939	0.7074	0.6947	0.93
Mof_C 	C 	0.88171	0.1352	0.94991	0.286
Mof_C 	C 	0.88794	0.13285	0.98421	-0.01
Mof_C 	C 	0.91473	0.1123	0.99428	-0.136
Mof_H 	H 	0.9322	0.1151	0.9803	0.015
Mof_H 	H 	0.9212	0.1181	0.0151	0.024
Mof_C 	C 	0.9044	0.07828	0.9938	0.022
Mof_C 	C 	0.8759	0.0665	0.9993	-0.03
Mof_H 	H 	0.8585	0.0788	0.0043	0.065
Mof_C 	C 	0.875	0.0317	0.9967	-0.007
Mof_H 	H 	0.8571	0.0196	0.9998	0.011
Mof_C 	C 	0.9028	0.0198	0.9893	-0.023
Mof_H 	H 	0.9067	0.9985	0.9865	-0.037
Mof_S 	S 	0.93055	0.04877	0.9854	-0.055
Mof_C 	C 	0.86982	0.14993	0.00348	-0.12
Mof_H 	H 	0.8554	0.1632	0.9938	0.098
Mof_C 	C 	0.86984	0.15031	0.03736	0.079
Mof_C 	C 	0.87629	0.12788	0.05945	-0.086
Mof_H 	H 	0.8845	0.1081	0.0551	0.051
Mof_C 	C 	0.85754	0.16799	0.0854	0.103
Mof_C 	C 	0.8424	0.20376	0.0417	-0.02
Mof_C 	C 	0.80717	0.19896	0.04071	0.102
Mof_C 	C 	0.79374	0.16913	0.04111	-0.16
Mof_H 	H 	0.8067	0.1515	0.0412	0.11
Mof_C 	C 	0.7617	0.16539	0.04139	0.101
Mof_H 	H 	0.7531	0.1453	0.0417	0.029
Mof_C 	C 	0.74216	0.19128	0.04117	-0.174
Mof_C 	C 	0.75536	0.22101	0.03988	0.092
Mof_H 	H 	0.7424	0.2386	0.0389	-0.02
Mof_C 	C 	0.78732	0.22471	0.04004	-0.168
Mof_H 	H 	0.7958	0.2448	0.0397	0.058
Mof_C 	C 	0.70775	0.18735	0.04316	0.433
Mof_C 	C 	0.84718	0.18888	0.11148	-0.094
Mof_H 	H 	0.8291	0.2007	0.1048	-0.081
Mof_H 	H 	0.8411	0.1762	0.1291	-0.031
Mof_C 	C 	0.8737	0.212	0.121	-0.446
Mof_H 	H 	0.8923	0.2004	0.1273	-0.349
Mof_H 	H 	0.8792	0.2253	0.1033	0.055
Mof_C 	C 	0.8617	0.2324	0.1487	-1.918
Mof_H 	H 	0.8411	0.2407	0.1436	0.518
Mof_H 	H 	0.8758	0.2501	0.1517	0.533
Mof_C 	C 	0.8597	0.2136	0.1794	0.689
Mof_H 	H 	0.8523	0.2269	0.196	-0.219
Mof_H 	H 	0.8802	0.2057	0.1847	1.263
Mof_H 	H 	0.8455	0.1963	0.1767	-0.716
Mof_N 	N 	0.86888	0.13881	0.0891	-0.254
Mof_N 	N 	0.85794	0.17586	0.05469	-0.14
Mof_O 	O 	0.90084	0.12329	0.9306	-0.386
Mof_O 	O 	0.85741	0.14882	0.93945	-0.389
Mof_O 	O 	0.69883	0.15817	0.04485	-0.522
Mof_H 	H 	0.6804	0.1526	0.0481	0.331
Mof_O 	O 	0.68897	0.20922	0.04289	-0.3
Mof_H 	H 	0.9333	0.1189	0.9833	0.047
Mof_H 	H 	0.9183	0.1157	0.0163	-0.006
Mof_C 	C 	0.9104	0.0776	0.9895	0.025
Mof_C 	C 	0.9299	0.0556	0.9788	-0.033
Mof_H 	H 	0.9504	0.0595	0.9725	0.048
Mof_C 	C 	0.9148	0.024	0.9783	-0.015
Mof_H 	H 	0.9248	0.0058	0.9714	-0.005
Mof_C 	C 	0.8853	0.0246	0.9889	-0.022
Mof_H 	H 	0.8723	0.0072	0.9905	-0.042
Mof_S 	S 	0.87477	0.06178	0.99897	-0.049
Mof_H 	H 	0.8391	0.208	0.1026	0.141
Mof_H 	H 	0.8301	0.1787	0.1222	0.073
Mof_C 	C 	0.8733	0.1986	0.1347	0.029
Mof_H 	H 	0.8848	0.1802	0.1416	-0.014
Mof_H 	H 	0.8879	0.2127	0.1245	0.595
Mof_C 	C 	0.8577	0.2152	0.1634	1.84
Mof_H 	H 	0.843	0.2009	0.1734	-0.045
Mof_H 	H 	0.846	0.2334	0.1563	-0.065
Mof_C 	C 	0.8826	0.2255	0.1873	-5.683
Mof_H 	H 	0.8726	0.2357	0.2048	1.75
Mof_H 	H 	0.897	0.2399	0.1775	1.718
Mof_H 	H 	0.8939	0.2074	0.1947	0.93
Mof_C 	C 	0.11829	0.3648	0.94991	0.286
Mof_C 	C 	0.11206	0.36715	0.98421	-0.01
Mof_C 	C 	0.08527	0.3877	0.99428	-0.136
Mof_H 	H 	0.0678	0.3849	0.9803	0.015
Mof_H 	H 	0.0788	0.3819	0.0151	0.024
Mof_C 	C 	0.0956	0.42172	0.9938	0.022
Mof_C 	C 	0.1241	0.4335	0.9993	-0.03
Mof_H 	H 	0.1415	0.4212	0.0043	0.065
Mof_C 	C 	0.125	0.4683	0.9967	-0.007
Mof_H 	H 	0.1429	0.4804	0.9998	0.011
Mof_C 	C 	0.0972	0.4802	0.9893	-0.023
Mof_H 	H 	0.0933	0.5015	0.9865	-0.037
Mof_S 	S 	0.06945	0.45123	0.9854	-0.055
Mof_C 	C 	0.13018	0.35007	0.00348	-0.12
Mof_H 	H 	0.1446	0.3368	0.9938	0.098
Mof_C 	C 	0.13016	0.34969	0.03736	0.079
Mof_C 	C 	0.12371	0.37212	0.05945	-0.086
Mof_H 	H 	0.1155	0.3919	0.0551	0.051
Mof_C 	C 	0.14246	0.33201	0.0854	0.103
Mof_C 	C 	0.1576	0.29624	0.0417	-0.02
Mof_C 	C 	0.19283	0.30104	0.04071	0.102
Mof_C 	C 	0.20626	0.33087	0.04111	-0.16
Mof_H 	H 	0.1933	0.3485	0.0412	0.11
Mof_C 	C 	0.2383	0.33461	0.04139	0.101
Mof_H 	H 	0.2469	0.3547	0.0417	0.029
Mof_C 	C 	0.25784	0.30872	0.04117	-0.174
Mof_C 	C 	0.24464	0.27899	0.03988	0.092
Mof_H 	H 	0.2576	0.2614	0.0389	-0.02
Mof_C 	C 	0.21268	0.27529	0.04004	-0.168
Mof_H 	H 	0.2042	0.2552	0.0397	0.058
Mof_C 	C 	0.29225	0.31265	0.04316	0.433
Mof_C 	C 	0.15282	0.31112	0.11148	-0.094
Mof_H 	H 	0.1709	0.2993	0.1048	-0.081
Mof_H 	H 	0.1589	0.3238	0.1291	-0.031
Mof_C 	C 	0.1263	0.288	0.121	-0.446
Mof_H 	H 	0.1077	0.2996	0.1273	-0.349
Mof_H 	H 	0.1208	0.2747	0.1033	0.055
Mof_C 	C 	0.1383	0.2676	0.1487	-1.918
Mof_H 	H 	0.1589	0.2593	0.1436	0.518
Mof_H 	H 	0.1242	0.2499	0.1517	0.533
Mof_C 	C 	0.1403	0.2864	0.1794	0.689
Mof_H 	H 	0.1477	0.2731	0.196	-0.219
Mof_H 	H 	0.1198	0.2943	0.1847	1.263
Mof_H 	H 	0.1545	0.3037	0.1767	-0.716
Mof_N 	N 	0.13112	0.36119	0.0891	-0.254
Mof_N 	N 	0.14206	0.32414	0.05469	-0.14
Mof_O 	O 	0.09916	0.37671	0.9306	-0.386
Mof_O 	O 	0.14259	0.35118	0.93945	-0.389
Mof_O 	O 	0.30117	0.34183	0.04485	-0.522
Mof_H 	H 	0.3196	0.3474	0.0481	0.331
Mof_O 	O 	0.31103	0.29078	0.04289	-0.3
Mof_H 	H 	0.0667	0.3811	0.9833	0.047
Mof_H 	H 	0.0817	0.3843	0.0163	-0.006
Mof_C 	C 	0.0896	0.4224	0.9895	0.025
Mof_C 	C 	0.0701	0.4444	0.9788	-0.033
Mof_H 	H 	0.0496	0.4405	0.9725	0.048
Mof_C 	C 	0.0852	0.476	0.9783	-0.015
Mof_H 	H 	0.0752	0.4942	0.9714	-0.005
Mof_C 	C 	0.1147	0.4754	0.9889	-0.022
Mof_H 	H 	0.1277	0.4928	0.9905	-0.042
Mof_S 	S 	0.12523	0.43822	0.99897	-0.049
Mof_H 	H 	0.1609	0.292	0.1026	0.141
Mof_H 	H 	0.1699	0.3213	0.1222	0.073
Mof_C 	C 	0.1267	0.3014	0.1347	0.029
Mof_H 	H 	0.1152	0.3198	0.1416	-0.014
Mof_H 	H 	0.1121	0.2873	0.1245	0.595
Mof_C 	C 	0.1423	0.2848	0.1634	1.84
Mof_H 	H 	0.157	0.2991	0.1734	-0.045
Mof_H 	H 	0.154	0.2666	0.1563	-0.065
Mof_C 	C 	0.1174	0.2745	0.1873	-5.683
Mof_H 	H 	0.1274	0.2643	0.2048	1.75
Mof_H 	H 	0.103	0.2601	0.1775	1.718
Mof_H 	H 	0.1061	0.2926	0.1947	0.93
Mof_C 	C 	0.61829	0.8648	0.44991	0.286
Mof_C 	C 	0.61206	0.86715	0.48421	-0.01
Mof_C 	C 	0.58527	0.8877	0.49428	-0.136
Mof_H 	H 	0.5678	0.8849	0.4803	0.015
Mof_H 	H 	0.5788	0.8819	0.5151	0.024
Mof_C 	C 	0.5956	0.92172	0.4938	0.022
Mof_C 	C 	0.6241	0.9335	0.4993	-0.03
Mof_H 	H 	0.6415	0.9212	0.5043	0.065
Mof_C 	C 	0.625	0.9683	0.4967	-0.007
Mof_H 	H 	0.6429	0.9804	0.4998	0.011
Mof_C 	C 	0.5972	0.9802	0.4893	-0.023
Mof_H 	H 	0.5933	0.0015	0.4865	-0.037
Mof_S 	S 	0.56945	0.95123	0.4854	-0.055
Mof_C 	C 	0.63018	0.85007	0.50348	-0.12
Mof_H 	H 	0.6446	0.8368	0.4938	0.098
Mof_C 	C 	0.63016	0.84969	0.53736	0.079
Mof_C 	C 	0.62371	0.87212	0.55945	-0.086
Mof_H 	H 	0.6155	0.8919	0.5551	0.051
Mof_C 	C 	0.64246	0.83201	0.5854	0.103
Mof_C 	C 	0.6576	0.79624	0.5417	-0.02
Mof_C 	C 	0.69283	0.80104	0.54071	0.102
Mof_C 	C 	0.70626	0.83087	0.54111	-0.16
Mof_H 	H 	0.6933	0.8485	0.5412	0.11
Mof_C 	C 	0.7383	0.83461	0.54139	0.101
Mof_H 	H 	0.7469	0.8547	0.5417	0.029
Mof_C 	C 	0.75784	0.80872	0.54117	-0.175
Mof_C 	C 	0.74464	0.77899	0.53988	0.092
Mof_H 	H 	0.7576	0.7614	0.5389	-0.02
Mof_C 	C 	0.71268	0.77529	0.54004	-0.168
Mof_H 	H 	0.7042	0.7552	0.5397	0.058
Mof_C 	C 	0.79225	0.81265	0.54316	0.433
Mof_C 	C 	0.65282	0.81112	0.61148	-0.094
Mof_H 	H 	0.6709	0.7993	0.6048	-0.081
Mof_H 	H 	0.6589	0.8238	0.6291	-0.031
Mof_C 	C 	0.6263	0.788	0.621	-0.446
Mof_H 	H 	0.6077	0.7996	0.6273	-0.349
Mof_H 	H 	0.6208	0.7747	0.6033	0.055
Mof_C 	C 	0.6383	0.7676	0.6487	-1.918
Mof_H 	H 	0.6589	0.7593	0.6436	0.518
Mof_H 	H 	0.6242	0.7499	0.6517	0.533
Mof_C 	C 	0.6403	0.7864	0.6794	0.689
Mof_H 	H 	0.6477	0.7731	0.696	-0.219
Mof_H 	H 	0.6198	0.7943	0.6847	1.263
Mof_H 	H 	0.6545	0.8037	0.6767	-0.716
Mof_N 	N 	0.63112	0.86119	0.5891	-0.254
Mof_N 	N 	0.64206	0.82414	0.55469	-0.14
Mof_O 	O 	0.59916	0.87671	0.4306	-0.386
Mof_O 	O 	0.64259	0.85118	0.43945	-0.389
Mof_O 	O 	0.80117	0.84183	0.54485	-0.522
Mof_H 	H 	0.8196	0.8474	0.5481	0.331
Mof_O 	O 	0.81103	0.79078	0.54289	-0.3
Mof_H 	H 	0.5667	0.8811	0.4833	0.047
Mof_H 	H 	0.5817	0.8843	0.5163	-0.006
Mof_C 	C 	0.5896	0.9224	0.4895	0.025
Mof_C 	C 	0.5701	0.9444	0.4788	-0.033
Mof_H 	H 	0.5496	0.9405	0.4725	0.048
Mof_C 	C 	0.5852	0.976	0.4783	-0.015
Mof_H 	H 	0.5752	0.9942	0.4714	-0.005
Mof_C 	C 	0.6147	0.9754	0.4889	-0.022
Mof_H 	H 	0.6277	0.9928	0.4905	-0.042
Mof_S 	S 	0.62523	0.93822	0.49897	-0.049
Mof_H 	H 	0.6609	0.792	0.6026	0.141
Mof_H 	H 	0.6699	0.8213	0.6222	0.073
Mof_C 	C 	0.6267	0.8014	0.6347	0.029
Mof_H 	H 	0.6152	0.8198	0.6416	-0.014
Mof_H 	H 	0.6121	0.7873	0.6245	0.595
Mof_C 	C 	0.6423	0.7848	0.6634	1.84
Mof_H 	H 	0.657	0.7991	0.6734	-0.045
Mof_H 	H 	0.654	0.7666	0.6563	-0.065
Mof_C 	C 	0.6174	0.7745	0.6873	-5.683
Mof_H 	H 	0.6274	0.7643	0.7048	1.75
Mof_H 	H 	0.603	0.7601	0.6775	1.718
Mof_H 	H 	0.6061	0.7926	0.6947	0.93
Mof_C 	C 	0.05009	0.61829	0.1352	0.286
Mof_C 	C 	0.01579	0.61206	0.13285	-0.01
Mof_C 	C 	0.00572	0.58527	0.1123	-0.136
Mof_H 	H 	0.0197	0.5678	0.1151	0.015
Mof_H 	H 	0.9849	0.5788	0.1181	0.024
Mof_C 	C 	0.0062	0.5956	0.07828	0.022
Mof_C 	C 	0.0007	0.6241	0.0665	-0.03
Mof_H 	H 	0.9957	0.6415	0.0788	0.065
Mof_C 	C 	0.0033	0.625	0.0317	-0.007
Mof_H 	H 	0.0002	0.6429	0.0196	0.011
Mof_C 	C 	0.0107	0.5972	0.0198	-0.023
Mof_H 	H 	0.0135	0.5933	0.9985	-0.037
Mof_S 	S 	0.0146	0.56945	0.04877	-0.055
Mof_C 	C 	0.99652	0.63018	0.14993	-0.12
Mof_H 	H 	0.0062	0.6446	0.1632	0.098
Mof_C 	C 	0.96264	0.63016	0.15031	0.079
Mof_C 	C 	0.94055	0.62371	0.12788	-0.086
Mof_H 	H 	0.9449	0.6155	0.1081	0.051
Mof_C 	C 	0.9146	0.64246	0.16799	0.103
Mof_C 	C 	0.9583	0.6576	0.20376	-0.02
Mof_C 	C 	0.95929	0.69283	0.19896	0.102
Mof_C 	C 	0.95889	0.70626	0.16913	-0.16
Mof_H 	H 	0.9588	0.6933	0.1515	0.11
Mof_C 	C 	0.95861	0.7383	0.16539	0.101
Mof_H 	H 	0.9583	0.7469	0.1453	0.029
Mof_C 	C 	0.95883	0.75784	0.19128	-0.174
Mof_C 	C 	0.96012	0.74464	0.22101	0.092
Mof_H 	H 	0.9611	0.7576	0.2386	-0.02
Mof_C 	C 	0.95996	0.71268	0.22471	-0.168
Mof_H 	H 	0.9603	0.7042	0.2448	0.058
Mof_C 	C 	0.95684	0.79225	0.18735	0.433
Mof_C 	C 	0.88852	0.65282	0.18888	-0.094
Mof_H 	H 	0.8952	0.6709	0.2007	-0.081
Mof_H 	H 	0.8709	0.6589	0.1762	-0.031
Mof_C 	C 	0.879	0.6263	0.212	-0.446
Mof_H 	H 	0.8727	0.6077	0.2004	-0.349
Mof_H 	H 	0.8967	0.6208	0.2253	0.055
Mof_C 	C 	0.8513	0.6383	0.2324	-1.918
Mof_H 	H 	0.8564	0.6589	0.2407	0.518
Mof_H 	H 	0.8483	0.6242	0.2501	0.533
Mof_C 	C 	0.8206	0.6403	0.2136	0.689
Mof_H 	H 	0.804	0.6477	0.2269	-0.219
Mof_H 	H 	0.8153	0.6198	0.2057	1.263
Mof_H 	H 	0.8233	0.6545	0.1963	-0.716
Mof_N 	N 	0.9109	0.63112	0.13881	-0.254
Mof_N 	N 	0.94531	0.64206	0.17586	-0.14
Mof_O 	O 	0.0694	0.59916	0.12329	-0.386
Mof_O 	O 	0.06055	0.64259	0.14882	-0.389
Mof_O 	O 	0.95515	0.80117	0.15817	-0.522
Mof_H 	H 	0.9519	0.8196	0.1526	0.331
Mof_O 	O 	0.95711	0.81103	0.20922	-0.3
Mof_H 	H 	0.0167	0.5667	0.1189	0.047
Mof_H 	H 	0.9837	0.5817	0.1157	-0.006
Mof_C 	C 	0.0105	0.5896	0.0776	0.025
Mof_C 	C 	0.0212	0.5701	0.0556	-0.033
Mof_H 	H 	0.0275	0.5496	0.0595	0.048
Mof_C 	C 	0.0217	0.5852	0.024	-0.015
Mof_H 	H 	0.0286	0.5752	0.0058	-0.005
Mof_C 	C 	0.0111	0.6147	0.0246	-0.022
Mof_H 	H 	0.0095	0.6277	0.0072	-0.042
Mof_S 	S 	0.00103	0.62523	0.06178	-0.049
Mof_H 	H 	0.8974	0.6609	0.208	0.141
Mof_H 	H 	0.8778	0.6699	0.1787	0.073
Mof_C 	C 	0.8653	0.6267	0.1986	0.029
Mof_H 	H 	0.8584	0.6152	0.1802	-0.014
Mof_H 	H 	0.8755	0.6121	0.2127	0.595
Mof_C 	C 	0.8366	0.6423	0.2152	1.84
Mof_H 	H 	0.8266	0.657	0.2009	-0.045
Mof_H 	H 	0.8437	0.654	0.2334	-0.065
Mof_C 	C 	0.8127	0.6174	0.2255	-5.683
Mof_H 	H 	0.7952	0.6274	0.2357	1.75
Mof_H 	H 	0.8225	0.603	0.2399	1.718
Mof_H 	H 	0.8053	0.6061	0.2074	0.93
Mof_C 	C 	0.55009	0.11829	0.6352	0.286
Mof_C 	C 	0.51579	0.11206	0.63285	-0.01
Mof_C 	C 	0.50572	0.08527	0.6123	-0.136
Mof_H 	H 	0.5197	0.0678	0.6151	0.015
Mof_H 	H 	0.4849	0.0788	0.6181	0.024
Mof_C 	C 	0.5062	0.0956	0.57828	0.022
Mof_C 	C 	0.5007	0.1241	0.5665	-0.03
Mof_H 	H 	0.4957	0.1415	0.5788	0.065
Mof_C 	C 	0.5033	0.125	0.5317	-0.007
Mof_H 	H 	0.5002	0.1429	0.5196	0.011
Mof_C 	C 	0.5107	0.0972	0.5198	-0.023
Mof_H 	H 	0.5135	0.0933	0.4985	-0.037
Mof_S 	S 	0.5146	0.06945	0.54877	-0.055
Mof_C 	C 	0.49652	0.13018	0.64993	-0.12
Mof_H 	H 	0.5062	0.1446	0.6632	0.098
Mof_C 	C 	0.46264	0.13016	0.65031	0.079
Mof_C 	C 	0.44055	0.12371	0.62788	-0.086
Mof_H 	H 	0.4449	0.1155	0.6081	0.051
Mof_C 	C 	0.4146	0.14246	0.66799	0.103
Mof_C 	C 	0.4583	0.1576	0.70376	-0.02
Mof_C 	C 	0.45929	0.19283	0.69896	0.102
Mof_C 	C 	0.45889	0.20626	0.66913	-0.16
Mof_H 	H 	0.4588	0.1933	0.6515	0.11
Mof_C 	C 	0.45861	0.2383	0.66539	0.101
Mof_H 	H 	0.4583	0.2469	0.6453	0.029
Mof_C 	C 	0.45883	0.25784	0.69128	-0.175
Mof_C 	C 	0.46012	0.24464	0.72101	0.092
Mof_H 	H 	0.4611	0.2576	0.7386	-0.02
Mof_C 	C 	0.45996	0.21268	0.72471	-0.168
Mof_H 	H 	0.4603	0.2042	0.7448	0.058
Mof_C 	C 	0.45684	0.29225	0.68735	0.433
Mof_C 	C 	0.38852	0.15282	0.68888	-0.094
Mof_H 	H 	0.3952	0.1709	0.7007	-0.081
Mof_H 	H 	0.3709	0.1589	0.6762	-0.031
Mof_C 	C 	0.379	0.1263	0.712	-0.446
Mof_H 	H 	0.3727	0.1077	0.7004	-0.349
Mof_H 	H 	0.3967	0.1208	0.7253	0.055
Mof_C 	C 	0.3513	0.1383	0.7324	-1.918
Mof_H 	H 	0.3564	0.1589	0.7407	0.518
Mof_H 	H 	0.3483	0.1242	0.7501	0.533
Mof_C 	C 	0.3206	0.1403	0.7136	0.689
Mof_H 	H 	0.304	0.1477	0.7269	-0.219
Mof_H 	H 	0.3153	0.1198	0.7057	1.263
Mof_H 	H 	0.3233	0.1545	0.6963	-0.716
Mof_N 	N 	0.4109	0.13112	0.63881	-0.254
Mof_N 	N 	0.44531	0.14206	0.67586	-0.14
Mof_O 	O 	0.5694	0.09916	0.62329	-0.386
Mof_O 	O 	0.56055	0.14259	0.64882	-0.389
Mof_O 	O 	0.45515	0.30117	0.65817	-0.522
Mof_H 	H 	0.4519	0.3196	0.6526	0.331
Mof_O 	O 	0.45711	0.31103	0.70922	-0.3
Mof_H 	H 	0.5167	0.0667	0.6189	0.047
Mof_H 	H 	0.4837	0.0817	0.6157	-0.006
Mof_C 	C 	0.5105	0.0896	0.5776	0.025
Mof_C 	C 	0.5212	0.0701	0.5556	-0.033
Mof_H 	H 	0.5275	0.0496	0.5595	0.048
Mof_C 	C 	0.5217	0.0852	0.524	-0.015
Mof_H 	H 	0.5286	0.0752	0.5058	-0.005
Mof_C 	C 	0.5111	0.1147	0.5246	-0.022
Mof_H 	H 	0.5095	0.1277	0.5072	-0.042
Mof_S 	S 	0.50103	0.12523	0.56178	-0.049
Mof_H 	H 	0.3974	0.1609	0.708	0.141
Mof_H 	H 	0.3778	0.1699	0.6787	0.073
Mof_C 	C 	0.3653	0.1267	0.6986	0.029
Mof_H 	H 	0.3584	0.1152	0.6802	-0.014
Mof_H 	H 	0.3755	0.1121	0.7127	0.595
Mof_C 	C 	0.3366	0.1423	0.7152	1.84
Mof_H 	H 	0.3266	0.157	0.7009	-0.045
Mof_H 	H 	0.3437	0.154	0.7334	-0.065
Mof_C 	C 	0.3127	0.1174	0.7255	-5.683
Mof_H 	H 	0.2952	0.1274	0.7357	1.75
Mof_H 	H 	0.3225	0.103	0.7399	1.718
Mof_H 	H 	0.3053	0.1061	0.7074	0.93
Mof_C 	C 	0.55009	0.88171	0.8648	0.286
Mof_C 	C 	0.51579	0.88794	0.86715	-0.01
Mof_C 	C 	0.50572	0.91473	0.8877	-0.136
Mof_H 	H 	0.5197	0.9322	0.8849	0.015
Mof_H 	H 	0.4849	0.9212	0.8819	0.024
Mof_C 	C 	0.5062	0.9044	0.92172	0.022
Mof_C 	C 	0.5007	0.8759	0.9335	-0.03
Mof_H 	H 	0.4957	0.8585	0.9212	0.065
Mof_C 	C 	0.5033	0.875	0.9683	-0.007
Mof_H 	H 	0.5002	0.8571	0.9804	0.011
Mof_C 	C 	0.5107	0.9028	0.9802	-0.023
Mof_H 	H 	0.5135	0.9067	0.0015	-0.037
Mof_S 	S 	0.5146	0.93055	0.95123	-0.055
Mof_C 	C 	0.49652	0.86982	0.85007	-0.12
Mof_H 	H 	0.5062	0.8554	0.8368	0.098
Mof_C 	C 	0.46264	0.86984	0.84969	0.079
Mof_C 	C 	0.44055	0.87629	0.87212	-0.086
Mof_H 	H 	0.4449	0.8845	0.8919	0.051
Mof_C 	C 	0.4146	0.85754	0.83201	0.103
Mof_C 	C 	0.4583	0.8424	0.79624	-0.02
Mof_C 	C 	0.45929	0.80717	0.80104	0.102
Mof_C 	C 	0.45889	0.79374	0.83087	-0.16
Mof_H 	H 	0.4588	0.8067	0.8485	0.11
Mof_C 	C 	0.45861	0.7617	0.83461	0.101
Mof_H 	H 	0.4583	0.7531	0.8547	0.029
Mof_C 	C 	0.45883	0.74216	0.80872	-0.175
Mof_C 	C 	0.46012	0.75536	0.77899	0.092
Mof_H 	H 	0.4611	0.7424	0.7614	-0.02
Mof_C 	C 	0.45996	0.78732	0.77529	-0.168
Mof_H 	H 	0.4603	0.7958	0.7552	0.058
Mof_C 	C 	0.45684	0.70775	0.81265	0.433
Mof_C 	C 	0.38852	0.84718	0.81112	-0.094
Mof_H 	H 	0.3952	0.8291	0.7993	-0.081
Mof_H 	H 	0.3709	0.8411	0.8238	-0.031
Mof_C 	C 	0.379	0.8737	0.788	-0.446
Mof_H 	H 	0.3727	0.8923	0.7996	-0.349
Mof_H 	H 	0.3967	0.8792	0.7747	0.055
Mof_C 	C 	0.3513	0.8617	0.7676	-1.918
Mof_H 	H 	0.3564	0.8411	0.7593	0.518
Mof_H 	H 	0.3483	0.8758	0.7499	0.533
Mof_C 	C 	0.3206	0.8597	0.7864	0.689
Mof_H 	H 	0.304	0.8523	0.7731	-0.219
Mof_H 	H 	0.3153	0.8802	0.7943	1.263
Mof_H 	H 	0.3233	0.8455	0.8037	-0.716
Mof_N 	N 	0.4109	0.86888	0.86119	-0.254
Mof_N 	N 	0.44531	0.85794	0.82414	-0.14
Mof_O 	O 	0.5694	0.90084	0.87671	-0.386
Mof_O 	O 	0.56055	0.85741	0.85118	-0.389
Mof_O 	O 	0.45515	0.69883	0.84183	-0.522
Mof_H 	H 	0.4519	0.6804	0.8474	0.331
Mof_O 	O 	0.45711	0.68897	0.79078	-0.3
Mof_H 	H 	0.5167	0.9333	0.8811	0.047
Mof_H 	H 	0.4837	0.9183	0.8843	-0.006
Mof_C 	C 	0.5105	0.9104	0.9224	0.025
Mof_C 	C 	0.5212	0.9299	0.9444	-0.033
Mof_H 	H 	0.5275	0.9504	0.9405	0.048
Mof_C 	C 	0.5217	0.9148	0.976	-0.015
Mof_H 	H 	0.5286	0.9248	0.9942	-0.005
Mof_C 	C 	0.5111	0.8853	0.9754	-0.022
Mof_H 	H 	0.5095	0.8723	0.9928	-0.042
Mof_S 	S 	0.50103	0.87477	0.93822	-0.049
Mof_H 	H 	0.3974	0.8391	0.792	0.141
Mof_H 	H 	0.3778	0.8301	0.8213	0.073
Mof_C 	C 	0.3653	0.8733	0.8014	0.029
Mof_H 	H 	0.3584	0.8848	0.8198	-0.014
Mof_H 	H 	0.3755	0.8879	0.7873	0.595
Mof_C 	C 	0.3366	0.8577	0.7848	1.84
Mof_H 	H 	0.3266	0.843	0.7991	-0.045
Mof_H 	H 	0.3437	0.846	0.7666	-0.065
Mof_C 	C 	0.3127	0.8826	0.7745	-5.683
Mof_H 	H 	0.2952	0.8726	0.7643	1.75
Mof_H 	H 	0.3225	0.897	0.7601	1.718
Mof_H 	H 	0.3053	0.8939	0.7926	0.93
Mof_C 	C 	0.05009	0.38171	0.3648	0.286
Mof_C 	C 	0.01579	0.38794	0.36715	-0.01
Mof_C 	C 	0.00572	0.41473	0.3877	-0.136
Mof_H 	H 	0.0197	0.4322	0.3849	0.015
Mof_H 	H 	0.9849	0.4212	0.3819	0.024
Mof_C 	C 	0.0062	0.4044	0.42172	0.022
Mof_C 	C 	0.0007	0.3759	0.4335	-0.03
Mof_H 	H 	0.9957	0.3585	0.4212	0.065
Mof_C 	C 	0.0033	0.375	0.4683	-0.007
Mof_H 	H 	0.0002	0.3571	0.4804	0.011
Mof_C 	C 	0.0107	0.4028	0.4802	-0.023
Mof_H 	H 	0.0135	0.4067	0.5015	-0.037
Mof_S 	S 	0.0146	0.43055	0.45123	-0.055
Mof_C 	C 	0.99652	0.36982	0.35007	-0.12
Mof_H 	H 	0.0062	0.3554	0.3368	0.098
Mof_C 	C 	0.96264	0.36984	0.34969	0.079
Mof_C 	C 	0.94055	0.37629	0.37212	-0.086
Mof_H 	H 	0.9449	0.3845	0.3919	0.051
Mof_C 	C 	0.9146	0.35754	0.33201	0.103
Mof_C 	C 	0.9583	0.3424	0.29624	-0.02
Mof_C 	C 	0.95929	0.30717	0.30104	0.102
Mof_C 	C 	0.95889	0.29374	0.33087	-0.16
Mof_H 	H 	0.9588	0.3067	0.3485	0.11
Mof_C 	C 	0.95861	0.2617	0.33461	0.101
Mof_H 	H 	0.9583	0.2531	0.3547	0.029
Mof_C 	C 	0.95883	0.24216	0.30872	-0.174
Mof_C 	C 	0.96012	0.25536	0.27899	0.092
Mof_H 	H 	0.9611	0.2424	0.2614	-0.02
Mof_C 	C 	0.95996	0.28732	0.27529	-0.168
Mof_H 	H 	0.9603	0.2958	0.2552	0.058
Mof_C 	C 	0.95684	0.20775	0.31265	0.433
Mof_C 	C 	0.88852	0.34718	0.31112	-0.094
Mof_H 	H 	0.8952	0.3291	0.2993	-0.081
Mof_H 	H 	0.8709	0.3411	0.3238	-0.031
Mof_C 	C 	0.879	0.3737	0.288	-0.446
Mof_H 	H 	0.8727	0.3923	0.2996	-0.349
Mof_H 	H 	0.8967	0.3792	0.2747	0.055
Mof_C 	C 	0.8513	0.3617	0.2676	-1.918
Mof_H 	H 	0.8564	0.3411	0.2593	0.518
Mof_H 	H 	0.8483	0.3758	0.2499	0.533
Mof_C 	C 	0.8206	0.3597	0.2864	0.689
Mof_H 	H 	0.804	0.3523	0.2731	-0.219
Mof_H 	H 	0.8153	0.3802	0.2943	1.263
Mof_H 	H 	0.8233	0.3455	0.3037	-0.716
Mof_N 	N 	0.9109	0.36888	0.36119	-0.254
Mof_N 	N 	0.94531	0.35794	0.32414	-0.14
Mof_O 	O 	0.0694	0.40084	0.37671	-0.386
Mof_O 	O 	0.06055	0.35741	0.35118	-0.389
Mof_O 	O 	0.95515	0.19883	0.34183	-0.522
Mof_H 	H 	0.9519	0.1804	0.3474	0.331
Mof_O 	O 	0.95711	0.18897	0.29078	-0.3
Mof_H 	H 	0.0167	0.4333	0.3811	0.047
Mof_H 	H 	0.9837	0.4183	0.3843	-0.006
Mof_C 	C 	0.0105	0.4104	0.4224	0.025
Mof_C 	C 	0.0212	0.4299	0.4444	-0.033
Mof_H 	H 	0.0275	0.4504	0.4405	0.048
Mof_C 	C 	0.0217	0.4148	0.476	-0.015
Mof_H 	H 	0.0286	0.4248	0.4942	-0.005
Mof_C 	C 	0.0111	0.3853	0.4754	-0.022
Mof_H 	H 	0.0095	0.3723	0.4928	-0.042
Mof_S 	S 	0.00103	0.37477	0.43822	-0.049
Mof_H 	H 	0.8974	0.3391	0.292	0.141
Mof_H 	H 	0.8778	0.3301	0.3213	0.073
Mof_C 	C 	0.8653	0.3733	0.3014	0.029
Mof_H 	H 	0.8584	0.3848	0.3198	-0.014
Mof_H 	H 	0.8755	0.3879	0.2873	0.595
Mof_C 	C 	0.8366	0.3577	0.2848	1.84
Mof_H 	H 	0.8266	0.343	0.2991	-0.045
Mof_H 	H 	0.8437	0.346	0.2666	-0.065
Mof_C 	C 	0.8127	0.3826	0.2745	-5.683
Mof_H 	H 	0.7952	0.3726	0.2643	1.75
Mof_H 	H 	0.8225	0.397	0.2601	1.718
Mof_H 	H 	0.8053	0.3939	0.2926	0.93
Mof_C 	C 	0.44991	0.38171	0.6352	0.286
Mof_C 	C 	0.48421	0.38794	0.63285	-0.01
Mof_C 	C 	0.49428	0.41473	0.6123	-0.136
Mof_H 	H 	0.4803	0.4322	0.6151	0.015
Mof_H 	H 	0.5151	0.4212	0.6181	0.024
Mof_C 	C 	0.4938	0.4044	0.57828	0.022
Mof_C 	C 	0.4993	0.3759	0.5665	-0.03
Mof_H 	H 	0.5043	0.3585	0.5788	0.065
Mof_C 	C 	0.4967	0.375	0.5317	-0.007
Mof_H 	H 	0.4998	0.3571	0.5196	0.011
Mof_C 	C 	0.4893	0.4028	0.5198	-0.023
Mof_H 	H 	0.4865	0.4067	0.4985	-0.037
Mof_S 	S 	0.4854	0.43055	0.54877	-0.055
Mof_C 	C 	0.50348	0.36982	0.64993	-0.12
Mof_H 	H 	0.4938	0.3554	0.6632	0.098
Mof_C 	C 	0.53736	0.36984	0.65031	0.079
Mof_C 	C 	0.55945	0.37629	0.62788	-0.086
Mof_H 	H 	0.5551	0.3845	0.6081	0.051
Mof_C 	C 	0.5854	0.35754	0.66799	0.103
Mof_C 	C 	0.5417	0.3424	0.70376	-0.02
Mof_C 	C 	0.54071	0.30717	0.69896	0.102
Mof_C 	C 	0.54111	0.29374	0.66913	-0.16
Mof_H 	H 	0.5412	0.3067	0.6515	0.11
Mof_C 	C 	0.54139	0.2617	0.66539	0.101
Mof_H 	H 	0.5417	0.2531	0.6453	0.029
Mof_C 	C 	0.54117	0.24216	0.69128	-0.175
Mof_C 	C 	0.53988	0.25536	0.72101	0.092
Mof_H 	H 	0.5389	0.2424	0.7386	-0.02
Mof_C 	C 	0.54004	0.28732	0.72471	-0.168
Mof_H 	H 	0.5397	0.2958	0.7448	0.058
Mof_C 	C 	0.54316	0.20775	0.68735	0.433
Mof_C 	C 	0.61148	0.34718	0.68888	-0.094
Mof_H 	H 	0.6048	0.3291	0.7007	-0.081
Mof_H 	H 	0.6291	0.3411	0.6762	-0.031
Mof_C 	C 	0.621	0.3737	0.712	-0.446
Mof_H 	H 	0.6273	0.3923	0.7004	-0.349
Mof_H 	H 	0.6033	0.3792	0.7253	0.055
Mof_C 	C 	0.6487	0.3617	0.7324	-1.918
Mof_H 	H 	0.6436	0.3411	0.7407	0.518
Mof_H 	H 	0.6517	0.3758	0.7501	0.533
Mof_C 	C 	0.6794	0.3597	0.7136	0.689
Mof_H 	H 	0.696	0.3523	0.7269	-0.219
Mof_H 	H 	0.6847	0.3802	0.7057	1.263
Mof_H 	H 	0.6767	0.3455	0.6963	-0.716
Mof_N 	N 	0.5891	0.36888	0.63881	-0.254
Mof_N 	N 	0.55469	0.35794	0.67586	-0.14
Mof_O 	O 	0.4306	0.40084	0.62329	-0.386
Mof_O 	O 	0.43945	0.35741	0.64882	-0.389
Mof_O 	O 	0.54485	0.19883	0.65817	-0.522
Mof_H 	H 	0.5481	0.1804	0.6526	0.331
Mof_O 	O 	0.54289	0.18897	0.70922	-0.3
Mof_H 	H 	0.4833	0.4333	0.6189	0.047
Mof_H 	H 	0.5163	0.4183	0.6157	-0.006
Mof_C 	C 	0.4895	0.4104	0.5776	0.025
Mof_C 	C 	0.4788	0.4299	0.5556	-0.033
Mof_H 	H 	0.4725	0.4504	0.5595	0.048
Mof_C 	C 	0.4783	0.4148	0.524	-0.015
Mof_H 	H 	0.4714	0.4248	0.5058	-0.005
Mof_C 	C 	0.4889	0.3853	0.5246	-0.022
Mof_H 	H 	0.4905	0.3723	0.5072	-0.042
Mof_S 	S 	0.49897	0.37477	0.56178	-0.049
Mof_H 	H 	0.6026	0.3391	0.708	0.141
Mof_H 	H 	0.6222	0.3301	0.6787	0.073
Mof_C 	C 	0.6347	0.3733	0.6986	0.029
Mof_H 	H 	0.6416	0.3848	0.6802	-0.014
Mof_H 	H 	0.6245	0.3879	0.7127	0.595
Mof_C 	C 	0.6634	0.3577	0.7152	1.84
Mof_H 	H 	0.6734	0.343	0.7009	-0.045
Mof_H 	H 	0.6563	0.346	0.7334	-0.065
Mof_C 	C 	0.6873	0.3826	0.7255	-5.683
Mof_H 	H 	0.7048	0.3726	0.7357	1.75
Mof_H 	H 	0.6775	0.397	0.7399	1.718
Mof_H 	H 	0.6947	0.3939	0.7074	0.93
Mof_C 	C 	0.94991	0.88171	0.1352	0.286
Mof_C 	C 	0.98421	0.88794	0.13285	-0.01
Mof_C 	C 	0.99428	0.91473	0.1123	-0.136
Mof_H 	H 	0.9803	0.9322	0.1151	0.015
Mof_H 	H 	0.0151	0.9212	0.1181	0.024
Mof_C 	C 	0.9938	0.9044	0.07828	0.022
Mof_C 	C 	0.9993	0.8759	0.0665	-0.03
Mof_H 	H 	0.0043	0.8585	0.0788	0.065
Mof_C 	C 	0.9967	0.875	0.0317	-0.007
Mof_H 	H 	0.9998	0.8571	0.0196	0.011
Mof_C 	C 	0.9893	0.9028	0.0198	-0.023
Mof_H 	H 	0.9865	0.9067	0.9985	-0.037
Mof_S 	S 	0.9854	0.93055	0.04877	-0.055
Mof_C 	C 	0.00348	0.86982	0.14993	-0.12
Mof_H 	H 	0.9938	0.8554	0.1632	0.098
Mof_C 	C 	0.03736	0.86984	0.15031	0.079
Mof_C 	C 	0.05945	0.87629	0.12788	-0.086
Mof_H 	H 	0.0551	0.8845	0.1081	0.051
Mof_C 	C 	0.0854	0.85754	0.16799	0.103
Mof_C 	C 	0.0417	0.8424	0.20376	-0.02
Mof_C 	C 	0.04071	0.80717	0.19896	0.102
Mof_C 	C 	0.04111	0.79374	0.16913	-0.16
Mof_H 	H 	0.0412	0.8067	0.1515	0.11
Mof_C 	C 	0.04139	0.7617	0.16539	0.101
Mof_H 	H 	0.0417	0.7531	0.1453	0.029
Mof_C 	C 	0.04117	0.74216	0.19128	-0.174
Mof_C 	C 	0.03988	0.75536	0.22101	0.092
Mof_H 	H 	0.0389	0.7424	0.2386	-0.02
Mof_C 	C 	0.04004	0.78732	0.22471	-0.168
Mof_H 	H 	0.0397	0.7958	0.2448	0.058
Mof_C 	C 	0.04316	0.70775	0.18735	0.433
Mof_C 	C 	0.11148	0.84718	0.18888	-0.094
Mof_H 	H 	0.1048	0.8291	0.2007	-0.081
Mof_H 	H 	0.1291	0.8411	0.1762	-0.031
Mof_C 	C 	0.121	0.8737	0.212	-0.446
Mof_H 	H 	0.1273	0.8923	0.2004	-0.349
Mof_H 	H 	0.1033	0.8792	0.2253	0.055
Mof_C 	C 	0.1487	0.8617	0.2324	-1.918
Mof_H 	H 	0.1436	0.8411	0.2407	0.518
Mof_H 	H 	0.1517	0.8758	0.2501	0.533
Mof_C 	C 	0.1794	0.8597	0.2136	0.689
Mof_H 	H 	0.196	0.8523	0.2269	-0.219
Mof_H 	H 	0.1847	0.8802	0.2057	1.263
Mof_H 	H 	0.1767	0.8455	0.1963	-0.716
Mof_N 	N 	0.0891	0.86888	0.13881	-0.254
Mof_N 	N 	0.05469	0.85794	0.17586	-0.14
Mof_O 	O 	0.9306	0.90084	0.12329	-0.386
Mof_O 	O 	0.93945	0.85741	0.14882	-0.389
Mof_O 	O 	0.04485	0.69883	0.15817	-0.522
Mof_H 	H 	0.0481	0.6804	0.1526	0.331
Mof_O 	O 	0.04289	0.68897	0.20922	-0.3
Mof_H 	H 	0.9833	0.9333	0.1189	0.047
Mof_H 	H 	0.0163	0.9183	0.1157	-0.006
Mof_C 	C 	0.9895	0.9104	0.0776	0.025
Mof_C 	C 	0.9788	0.9299	0.0556	-0.033
Mof_H 	H 	0.9725	0.9504	0.0595	0.048
Mof_C 	C 	0.9783	0.9148	0.024	-0.015
Mof_H 	H 	0.9714	0.9248	0.0058	-0.005
Mof_C 	C 	0.9889	0.8853	0.0246	-0.022
Mof_H 	H 	0.9905	0.8723	0.0072	-0.042
Mof_S 	S 	0.99897	0.87477	0.06178	-0.049
Mof_H 	H 	0.1026	0.8391	0.208	0.141
Mof_H 	H 	0.1222	0.8301	0.1787	0.073
Mof_C 	C 	0.1347	0.8733	0.1986	0.029
Mof_H 	H 	0.1416	0.8848	0.1802	-0.014
Mof_H 	H 	0.1245	0.8879	0.2127	0.595
Mof_C 	C 	0.1634	0.8577	0.2152	1.84
Mof_H 	H 	0.1734	0.843	0.2009	-0.045
Mof_H 	H 	0.1563	0.846	0.2334	-0.065
Mof_C 	C 	0.1873	0.8826	0.2255	-5.683
Mof_H 	H 	0.2048	0.8726	0.2357	1.75
Mof_H 	H 	0.1775	0.897	0.2399	1.718
Mof_H 	H 	0.1947	0.8939	0.2074	0.93
Mof_C 	C 	0.94991	0.11829	0.3648	0.286
Mof_C 	C 	0.98421	0.11206	0.36715	-0.01
Mof_C 	C 	0.99428	0.08527	0.3877	-0.136
Mof_H 	H 	0.9803	0.0678	0.3849	0.015
Mof_H 	H 	0.0151	0.0788	0.3819	0.024
Mof_C 	C 	0.9938	0.0956	0.42172	0.022
Mof_C 	C 	0.9993	0.1241	0.4335	-0.03
Mof_H 	H 	0.0043	0.1415	0.4212	0.065
Mof_C 	C 	0.9967	0.125	0.4683	-0.007
Mof_H 	H 	0.9998	0.1429	0.4804	0.011
Mof_C 	C 	0.9893	0.0972	0.4802	-0.023
Mof_H 	H 	0.9865	0.0933	0.5015	-0.037
Mof_S 	S 	0.9854	0.06945	0.45123	-0.055
Mof_C 	C 	0.00348	0.13018	0.35007	-0.12
Mof_H 	H 	0.9938	0.1446	0.3368	0.098
Mof_C 	C 	0.03736	0.13016	0.34969	0.079
Mof_C 	C 	0.05945	0.12371	0.37212	-0.086
Mof_H 	H 	0.0551	0.1155	0.3919	0.051
Mof_C 	C 	0.0854	0.14246	0.33201	0.103
Mof_C 	C 	0.0417	0.1576	0.29624	-0.02
Mof_C 	C 	0.04071	0.19283	0.30104	0.102
Mof_C 	C 	0.04111	0.20626	0.33087	-0.16
Mof_H 	H 	0.0412	0.1933	0.3485	0.11
Mof_C 	C 	0.04139	0.2383	0.33461	0.101
Mof_H 	H 	0.0417	0.2469	0.3547	0.029
Mof_C 	C 	0.04117	0.25784	0.30872	-0.174
Mof_C 	C 	0.03988	0.24464	0.27899	0.092
Mof_H 	H 	0.0389	0.2576	0.2614	-0.02
Mof_C 	C 	0.04004	0.21268	0.27529	-0.168
Mof_H 	H 	0.0397	0.2042	0.2552	0.058
Mof_C 	C 	0.04316	0.29225	0.31265	0.433
Mof_C 	C 	0.11148	0.15282	0.31112	-0.094
Mof_H 	H 	0.1048	0.1709	0.2993	-0.081
Mof_H 	H 	0.1291	0.1589	0.3238	-0.031
Mof_C 	C 	0.121	0.1263	0.288	-0.446
Mof_H 	H 	0.1273	0.1077	0.2996	-0.349
Mof_H 	H 	0.1033	0.1208	0.2747	0.055
Mof_C 	C 	0.1487	0.1383	0.2676	-1.918
Mof_H 	H 	0.1436	0.1589	0.2593	0.518
Mof_H 	H 	0.1517	0.1242	0.2499	0.533
Mof_C 	C 	0.1794	0.1403	0.2864	0.689
Mof_H 	H 	0.196	0.1477	0.2731	-0.219
Mof_H 	H 	0.1847	0.1198	0.2943	1.263
Mof_H 	H 	0.1767	0.1545	0.3037	-0.716
Mof_N 	N 	0.0891	0.13112	0.36119	-0.254
Mof_N 	N 	0.05469	0.14206	0.32414	-0.14
Mof_O 	O 	0.9306	0.09916	0.37671	-0.386
Mof_O 	O 	0.93945	0.14259	0.35118	-0.389
Mof_O 	O 	0.04485	0.30117	0.34183	-0.522
Mof_H 	H 	0.0481	0.3196	0.3474	0.331
Mof_O 	O 	0.04289	0.31103	0.29078	-0.3
Mof_H 	H 	0.9833	0.0667	0.3811	0.047
Mof_H 	H 	0.0163	0.0817	0.3843	-0.006
Mof_C 	C 	0.9895	0.0896	0.4224	0.025
Mof_C 	C 	0.9788	0.0701	0.4444	-0.033
Mof_H 	H 	0.9725	0.0496	0.4405	0.048
Mof_C 	C 	0.9783	0.0852	0.476	-0.015
Mof_H 	H 	0.9714	0.0752	0.4942	-0.005
Mof_C 	C 	0.9889	0.1147	0.4754	-0.022
Mof_H 	H 	0.9905	0.1277	0.4928	-0.042
Mof_S 	S 	0.99897	0.12523	0.43822	-0.049
Mof_H 	H 	0.1026	0.1609	0.292	0.141
Mof_H 	H 	0.1222	0.1699	0.3213	0.073
Mof_C 	C 	0.1347	0.1267	0.3014	0.029
Mof_H 	H 	0.1416	0.1152	0.3198	-0.014
Mof_H 	H 	0.1245	0.1121	0.2873	0.595
Mof_C 	C 	0.1634	0.1423	0.2848	1.84
Mof_H 	H 	0.1734	0.157	0.2991	-0.045
Mof_H 	H 	0.1563	0.154	0.2666	-0.065
Mof_C 	C 	0.1873	0.1174	0.2745	-5.683
Mof_H 	H 	0.2048	0.1274	0.2643	1.75
Mof_H 	H 	0.1775	0.103	0.2601	1.718
Mof_H 	H 	0.1947	0.1061	0.2926	0.93
Mof_C 	C 	0.44991	0.61829	0.8648	0.286
Mof_C 	C 	0.48421	0.61206	0.86715	-0.01
Mof_C 	C 	0.49428	0.58527	0.8877	-0.136
Mof_H 	H 	0.4803	0.5678	0.8849	0.015
Mof_H 	H 	0.5151	0.5788	0.8819	0.024
Mof_C 	C 	0.4938	0.5956	0.92172	0.022
Mof_C 	C 	0.4993	0.6241	0.9335	-0.03
Mof_H 	H 	0.5043	0.6415	0.9212	0.065
Mof_C 	C 	0.4967	0.625	0.9683	-0.007
Mof_H 	H 	0.4998	0.6429	0.9804	0.011
Mof_C 	C 	0.4893	0.5972	0.9802	-0.023
Mof_H 	H 	0.4865	0.5933	0.0015	-0.037
Mof_S 	S 	0.4854	0.56945	0.95123	-0.055
Mof_C 	C 	0.50348	0.63018	0.85007	-0.12
Mof_H 	H 	0.4938	0.6446	0.8368	0.098
Mof_C 	C 	0.53736	0.63016	0.84969	0.079
Mof_C 	C 	0.55945	0.62371	0.87212	-0.086
Mof_H 	H 	0.5551	0.6155	0.8919	0.051
Mof_C 	C 	0.5854	0.64246	0.83201	0.103
Mof_C 	C 	0.5417	0.6576	0.79624	-0.02
Mof_C 	C 	0.54071	0.69283	0.80104	0.102
Mof_C 	C 	0.54111	0.70626	0.83087	-0.16
Mof_H 	H 	0.5412	0.6933	0.8485	0.11
Mof_C 	C 	0.54139	0.7383	0.83461	0.101
Mof_H 	H 	0.5417	0.7469	0.8547	0.029
Mof_C 	C 	0.54117	0.75784	0.80872	-0.175
Mof_C 	C 	0.53988	0.74464	0.77899	0.092
Mof_H 	H 	0.5389	0.7576	0.7614	-0.02
Mof_C 	C 	0.54004	0.71268	0.77529	-0.168
Mof_H 	H 	0.5397	0.7042	0.7552	0.058
Mof_C 	C 	0.54316	0.79225	0.81265	0.433
Mof_C 	C 	0.61148	0.65282	0.81112	-0.094
Mof_H 	H 	0.6048	0.6709	0.7993	-0.081
Mof_H 	H 	0.6291	0.6589	0.8238	-0.031
Mof_C 	C 	0.621	0.6263	0.788	-0.446
Mof_H 	H 	0.6273	0.6077	0.7996	-0.349
Mof_H 	H 	0.6033	0.6208	0.7747	0.055
Mof_C 	C 	0.6487	0.6383	0.7676	-1.918
Mof_H 	H 	0.6436	0.6589	0.7593	0.518
Mof_H 	H 	0.6517	0.6242	0.7499	0.533
Mof_C 	C 	0.6794	0.6403	0.7864	0.689
Mof_H 	H 	0.696	0.6477	0.7731	-0.219
Mof_H 	H 	0.6847	0.6198	0.7943	1.263
Mof_H 	H 	0.6767	0.6545	0.8037	-0.716
Mof_N 	N 	0.5891	0.63112	0.86119	-0.254
Mof_N 	N 	0.55469	0.64206	0.82414	-0.14
Mof_O 	O 	0.4306	0.59916	0.87671	-0.386
Mof_O 	O 	0.43945	0.64259	0.85118	-0.389
Mof_O 	O 	0.54485	0.80117	0.84183	-0.522
Mof_H 	H 	0.5481	0.8196	0.8474	0.331
Mof_O 	O 	0.54289	0.81103	0.79078	-0.3
Mof_H 	H 	0.4833	0.5667	0.8811	0.047
Mof_H 	H 	0.5163	0.5817	0.8843	-0.006
Mof_C 	C 	0.4895	0.5896	0.9224	0.025
Mof_C 	C 	0.4788	0.5701	0.9444	-0.033
Mof_H 	H 	0.4725	0.5496	0.9405	0.048
Mof_C 	C 	0.4783	0.5852	0.976	-0.015
Mof_H 	H 	0.4714	0.5752	0.9942	-0.005
Mof_C 	C 	0.4889	0.6147	0.9754	-0.022
Mof_H 	H 	0.4905	0.6277	0.9928	-0.042
Mof_S 	S 	0.49897	0.62523	0.93822	-0.049
Mof_H 	H 	0.6026	0.6609	0.792	0.141
Mof_H 	H 	0.6222	0.6699	0.8213	0.073
Mof_C 	C 	0.6347	0.6267	0.8014	0.029
Mof_H 	H 	0.6416	0.6152	0.8198	-0.014
Mof_H 	H 	0.6245	0.6121	0.7873	0.595
Mof_C 	C 	0.6634	0.6423	0.7848	1.84
Mof_H 	H 	0.6734	0.657	0.7991	-0.045
Mof_H 	H 	0.6563	0.654	0.7666	-0.065
Mof_C 	C 	0.6873	0.6174	0.7745	-5.683
Mof_H 	H 	0.7048	0.6274	0.7643	1.75
Mof_H 	H 	0.6775	0.603	0.7601	1.718
Mof_H 	H 	0.6947	0.6061	0.7926	0.93
Mof_C 	C 	0.1352	0.05009	0.61829	0.286
Mof_C 	C 	0.13285	0.01579	0.61206	-0.01
Mof_C 	C 	0.1123	0.00572	0.58527	-0.136
Mof_H 	H 	0.1151	0.0197	0.5678	0.015
Mof_H 	H 	0.1181	0.9849	0.5788	0.024
Mof_C 	C 	0.07828	0.0062	0.5956	0.022
Mof_C 	C 	0.0665	0.0007	0.6241	-0.03
Mof_H 	H 	0.0788	0.9957	0.6415	0.065
Mof_C 	C 	0.0317	0.0033	0.625	-0.007
Mof_H 	H 	0.0196	0.0002	0.6429	0.011
Mof_C 	C 	0.0198	0.0107	0.5972	-0.023
Mof_H 	H 	0.9985	0.0135	0.5933	-0.037
Mof_S 	S 	0.04877	0.0146	0.56945	-0.055
Mof_C 	C 	0.14993	0.99652	0.63018	-0.12
Mof_H 	H 	0.1632	0.0062	0.6446	0.098
Mof_C 	C 	0.15031	0.96264	0.63016	0.079
Mof_C 	C 	0.12788	0.94055	0.62371	-0.086
Mof_H 	H 	0.1081	0.9449	0.6155	0.051
Mof_C 	C 	0.16799	0.9146	0.64246	0.103
Mof_C 	C 	0.20376	0.9583	0.6576	-0.02
Mof_C 	C 	0.19896	0.95929	0.69283	0.102
Mof_C 	C 	0.16913	0.95889	0.70626	-0.16
Mof_H 	H 	0.1515	0.9588	0.6933	0.11
Mof_C 	C 	0.16539	0.95861	0.7383	0.101
Mof_H 	H 	0.1453	0.9583	0.7469	0.029
Mof_C 	C 	0.19128	0.95883	0.75784	-0.174
Mof_C 	C 	0.22101	0.96012	0.74464	0.092
Mof_H 	H 	0.2386	0.9611	0.7576	-0.02
Mof_C 	C 	0.22471	0.95996	0.71268	-0.168
Mof_H 	H 	0.2448	0.9603	0.7042	0.058
Mof_C 	C 	0.18735	0.95684	0.79225	0.433
Mof_C 	C 	0.18888	0.88852	0.65282	-0.094
Mof_H 	H 	0.2007	0.8952	0.6709	-0.081
Mof_H 	H 	0.1762	0.8709	0.6589	-0.031
Mof_C 	C 	0.212	0.879	0.6263	-0.446
Mof_H 	H 	0.2004	0.8727	0.6077	-0.349
Mof_H 	H 	0.2253	0.8967	0.6208	0.055
Mof_C 	C 	0.2324	0.8513	0.6383	-1.918
Mof_H 	H 	0.2407	0.8564	0.6589	0.518
Mof_H 	H 	0.2501	0.8483	0.6242	0.533
Mof_C 	C 	0.2136	0.8206	0.6403	0.689
Mof_H 	H 	0.2269	0.804	0.6477	-0.219
Mof_H 	H 	0.2057	0.8153	0.6198	1.263
Mof_H 	H 	0.1963	0.8233	0.6545	-0.716
Mof_N 	N 	0.13881	0.9109	0.63112	-0.254
Mof_N 	N 	0.17586	0.94531	0.64206	-0.14
Mof_O 	O 	0.12329	0.0694	0.59916	-0.386
Mof_O 	O 	0.14882	0.06055	0.64259	-0.389
Mof_O 	O 	0.15817	0.95515	0.80117	-0.522
Mof_H 	H 	0.1526	0.9519	0.8196	0.331
Mof_O 	O 	0.20922	0.95711	0.81103	-0.3
Mof_H 	H 	0.1189	0.0167	0.5667	0.047
Mof_H 	H 	0.1157	0.9837	0.5817	-0.006
Mof_C 	C 	0.0776	0.0105	0.5896	0.025
Mof_C 	C 	0.0556	0.0212	0.5701	-0.033
Mof_H 	H 	0.0595	0.0275	0.5496	0.048
Mof_C 	C 	0.024	0.0217	0.5852	-0.015
Mof_H 	H 	0.0058	0.0286	0.5752	-0.005
Mof_C 	C 	0.0246	0.0111	0.6147	-0.022
Mof_H 	H 	0.0072	0.0095	0.6277	-0.042
Mof_S 	S 	0.06178	0.00103	0.62523	-0.049
Mof_H 	H 	0.208	0.8974	0.6609	0.141
Mof_H 	H 	0.1787	0.8778	0.6699	0.073
Mof_C 	C 	0.1986	0.8653	0.6267	0.029
Mof_H 	H 	0.1802	0.8584	0.6152	-0.014
Mof_H 	H 	0.2127	0.8755	0.6121	0.595
Mof_C 	C 	0.2152	0.8366	0.6423	1.84
Mof_H 	H 	0.2009	0.8266	0.657	-0.045
Mof_H 	H 	0.2334	0.8437	0.654	-0.065
Mof_C 	C 	0.2255	0.8127	0.6174	-5.683
Mof_H 	H 	0.2357	0.7952	0.6274	1.75
Mof_H 	H 	0.2399	0.8225	0.603	1.718
Mof_H 	H 	0.2074	0.8053	0.6061	0.93
Mof_C 	C 	0.6352	0.55009	0.11829	0.286
Mof_C 	C 	0.63285	0.51579	0.11206	-0.01
Mof_C 	C 	0.6123	0.50572	0.08527	-0.136
Mof_H 	H 	0.6151	0.5197	0.0678	0.015
Mof_H 	H 	0.6181	0.4849	0.0788	0.024
Mof_C 	C 	0.57828	0.5062	0.0956	0.022
Mof_C 	C 	0.5665	0.5007	0.1241	-0.03
Mof_H 	H 	0.5788	0.4957	0.1415	0.065
Mof_C 	C 	0.5317	0.5033	0.125	-0.007
Mof_H 	H 	0.5196	0.5002	0.1429	0.011
Mof_C 	C 	0.5198	0.5107	0.0972	-0.023
Mof_H 	H 	0.4985	0.5135	0.0933	-0.037
Mof_S 	S 	0.54877	0.5146	0.06945	-0.055
Mof_C 	C 	0.64993	0.49652	0.13018	-0.12
Mof_H 	H 	0.6632	0.5062	0.1446	0.098
Mof_C 	C 	0.65031	0.46264	0.13016	0.079
Mof_C 	C 	0.62788	0.44055	0.12371	-0.086
Mof_H 	H 	0.6081	0.4449	0.1155	0.051
Mof_C 	C 	0.66799	0.4146	0.14246	0.103
Mof_C 	C 	0.70376	0.4583	0.1576	-0.02
Mof_C 	C 	0.69896	0.45929	0.19283	0.102
Mof_C 	C 	0.66913	0.45889	0.20626	-0.16
Mof_H 	H 	0.6515	0.4588	0.1933	0.11
Mof_C 	C 	0.66539	0.45861	0.2383	0.101
Mof_H 	H 	0.6453	0.4583	0.2469	0.029
Mof_C 	C 	0.69128	0.45883	0.25784	-0.175
Mof_C 	C 	0.72101	0.46012	0.24464	0.092
Mof_H 	H 	0.7386	0.4611	0.2576	-0.02
Mof_C 	C 	0.72471	0.45996	0.21268	-0.168
Mof_H 	H 	0.7448	0.4603	0.2042	0.058
Mof_C 	C 	0.68735	0.45684	0.29225	0.433
Mof_C 	C 	0.68888	0.38852	0.15282	-0.094
Mof_H 	H 	0.7007	0.3952	0.1709	-0.081
Mof_H 	H 	0.6762	0.3709	0.1589	-0.031
Mof_C 	C 	0.712	0.379	0.1263	-0.446
Mof_H 	H 	0.7004	0.3727	0.1077	-0.349
Mof_H 	H 	0.7253	0.3967	0.1208	0.055
Mof_C 	C 	0.7324	0.3513	0.1383	-1.918
Mof_H 	H 	0.7407	0.3564	0.1589	0.518
Mof_H 	H 	0.7501	0.3483	0.1242	0.533
Mof_C 	C 	0.7136	0.3206	0.1403	0.689
Mof_H 	H 	0.7269	0.304	0.1477	-0.219
Mof_H 	H 	0.7057	0.3153	0.1198	1.263
Mof_H 	H 	0.6963	0.3233	0.1545	-0.716
Mof_N 	N 	0.63881	0.4109	0.13112	-0.254
Mof_N 	N 	0.67586	0.44531	0.14206	-0.14
Mof_O 	O 	0.62329	0.5694	0.09916	-0.386
Mof_O 	O 	0.64882	0.56055	0.14259	-0.389
Mof_O 	O 	0.65817	0.45515	0.30117	-0.522
Mof_H 	H 	0.6526	0.4519	0.3196	0.331
Mof_O 	O 	0.70922	0.45711	0.31103	-0.3
Mof_H 	H 	0.6189	0.5167	0.0667	0.047
Mof_H 	H 	0.6157	0.4837	0.0817	-0.006
Mof_C 	C 	0.5776	0.5105	0.0896	0.025
Mof_C 	C 	0.5556	0.5212	0.0701	-0.033
Mof_H 	H 	0.5595	0.5275	0.0496	0.048
Mof_C 	C 	0.524	0.5217	0.0852	-0.015
Mof_H 	H 	0.5058	0.5286	0.0752	-0.005
Mof_C 	C 	0.5246	0.5111	0.1147	-0.022
Mof_H 	H 	0.5072	0.5095	0.1277	-0.042
Mof_S 	S 	0.56178	0.50103	0.12523	-0.049
Mof_H 	H 	0.708	0.3974	0.1609	0.141
Mof_H 	H 	0.6787	0.3778	0.1699	0.073
Mof_C 	C 	0.6986	0.3653	0.1267	0.029
Mof_H 	H 	0.6802	0.3584	0.1152	-0.014
Mof_H 	H 	0.7127	0.3755	0.1121	0.595
Mof_C 	C 	0.7152	0.3366	0.1423	1.84
Mof_H 	H 	0.7009	0.3266	0.157	-0.045
Mof_H 	H 	0.7334	0.3437	0.154	-0.065
Mof_C 	C 	0.7255	0.3127	0.1174	-5.683
Mof_H 	H 	0.7357	0.2952	0.1274	1.75
Mof_H 	H 	0.7399	0.3225	0.103	1.718
Mof_H 	H 	0.7074	0.3053	0.1061	0.93
Mof_C 	C 	0.8648	0.55009	0.88171	0.286
Mof_C 	C 	0.86715	0.51579	0.88794	-0.01
Mof_C 	C 	0.8877	0.50572	0.91473	-0.136
Mof_H 	H 	0.8849	0.5197	0.9322	0.015
Mof_H 	H 	0.8819	0.4849	0.9212	0.024
Mof_C 	C 	0.92172	0.5062	0.9044	0.022
Mof_C 	C 	0.9335	0.5007	0.8759	-0.03
Mof_H 	H 	0.9212	0.4957	0.8585	0.065
Mof_C 	C 	0.9683	0.5033	0.875	-0.007
Mof_H 	H 	0.9804	0.5002	0.8571	0.011
Mof_C 	C 	0.9802	0.5107	0.9028	-0.023
Mof_H 	H 	0.0015	0.5135	0.9067	-0.037
Mof_S 	S 	0.95123	0.5146	0.93055	-0.055
Mof_C 	C 	0.85007	0.49652	0.86982	-0.12
Mof_H 	H 	0.8368	0.5062	0.8554	0.098
Mof_C 	C 	0.84969	0.46264	0.86984	0.079
Mof_C 	C 	0.87212	0.44055	0.87629	-0.086
Mof_H 	H 	0.8919	0.4449	0.8845	0.051
Mof_C 	C 	0.83201	0.4146	0.85754	0.103
Mof_C 	C 	0.79624	0.4583	0.8424	-0.02
Mof_C 	C 	0.80104	0.45929	0.80717	0.102
Mof_C 	C 	0.83087	0.45889	0.79374	-0.16
Mof_H 	H 	0.8485	0.4588	0.8067	0.11
Mof_C 	C 	0.83461	0.45861	0.7617	0.101
Mof_H 	H 	0.8547	0.4583	0.7531	0.029
Mof_C 	C 	0.80872	0.45883	0.74216	-0.175
Mof_C 	C 	0.77899	0.46012	0.75536	0.092
Mof_H 	H 	0.7614	0.4611	0.7424	-0.02
Mof_C 	C 	0.77529	0.45996	0.78732	-0.168
Mof_H 	H 	0.7552	0.4603	0.7958	0.058
Mof_C 	C 	0.81265	0.45684	0.70775	0.433
Mof_C 	C 	0.81112	0.38852	0.84718	-0.094
Mof_H 	H 	0.7993	0.3952	0.8291	-0.081
Mof_H 	H 	0.8238	0.3709	0.8411	-0.031
Mof_C 	C 	0.788	0.379	0.8737	-0.446
Mof_H 	H 	0.7996	0.3727	0.8923	-0.349
Mof_H 	H 	0.7747	0.3967	0.8792	0.055
Mof_C 	C 	0.7676	0.3513	0.8617	-1.918
Mof_H 	H 	0.7593	0.3564	0.8411	0.518
Mof_H 	H 	0.7499	0.3483	0.8758	0.533
Mof_C 	C 	0.7864	0.3206	0.8597	0.689
Mof_H 	H 	0.7731	0.304	0.8523	-0.219
Mof_H 	H 	0.7943	0.3153	0.8802	1.263
Mof_H 	H 	0.8037	0.3233	0.8455	-0.716
Mof_N 	N 	0.86119	0.4109	0.86888	-0.254
Mof_N 	N 	0.82414	0.44531	0.85794	-0.14
Mof_O 	O 	0.87671	0.5694	0.90084	-0.386
Mof_O 	O 	0.85118	0.56055	0.85741	-0.389
Mof_O 	O 	0.84183	0.45515	0.69883	-0.522
Mof_H 	H 	0.8474	0.4519	0.6804	0.331
Mof_O 	O 	0.79078	0.45711	0.68897	-0.3
Mof_H 	H 	0.8811	0.5167	0.9333	0.047
Mof_H 	H 	0.8843	0.4837	0.9183	-0.006
Mof_C 	C 	0.9224	0.5105	0.9104	0.025
Mof_C 	C 	0.9444	0.5212	0.9299	-0.033
Mof_H 	H 	0.9405	0.5275	0.9504	0.048
Mof_C 	C 	0.976	0.5217	0.9148	-0.015
Mof_H 	H 	0.9942	0.5286	0.9248	-0.005
Mof_C 	C 	0.9754	0.5111	0.8853	-0.022
Mof_H 	H 	0.9928	0.5095	0.8723	-0.042
Mof_S 	S 	0.93822	0.50103	0.87477	-0.049
Mof_H 	H 	0.792	0.3974	0.8391	0.141
Mof_H 	H 	0.8213	0.3778	0.8301	0.073
Mof_C 	C 	0.8014	0.3653	0.8733	0.029
Mof_H 	H 	0.8198	0.3584	0.8848	-0.014
Mof_H 	H 	0.7873	0.3755	0.8879	0.595
Mof_C 	C 	0.7848	0.3366	0.8577	1.84
Mof_H 	H 	0.7991	0.3266	0.843	-0.045
Mof_H 	H 	0.7666	0.3437	0.846	-0.065
Mof_C 	C 	0.7745	0.3127	0.8826	-5.683
Mof_H 	H 	0.7643	0.2952	0.8726	1.75
Mof_H 	H 	0.7601	0.3225	0.897	1.718
Mof_H 	H 	0.7926	0.3053	0.8939	0.93
Mof_C 	C 	0.3648	0.05009	0.38171	0.286
Mof_C 	C 	0.36715	0.01579	0.38794	-0.01
Mof_C 	C 	0.3877	0.00572	0.41473	-0.136
Mof_H 	H 	0.3849	0.0197	0.4322	0.015
Mof_H 	H 	0.3819	0.9849	0.4212	0.024
Mof_C 	C 	0.42172	0.0062	0.4044	0.022
Mof_C 	C 	0.4335	0.0007	0.3759	-0.03
Mof_H 	H 	0.4212	0.9957	0.3585	0.065
Mof_C 	C 	0.4683	0.0033	0.375	-0.007
Mof_H 	H 	0.4804	0.0002	0.3571	0.011
Mof_C 	C 	0.4802	0.0107	0.4028	-0.023
Mof_H 	H 	0.5015	0.0135	0.4067	-0.037
Mof_S 	S 	0.45123	0.0146	0.43055	-0.055
Mof_C 	C 	0.35007	0.99652	0.36982	-0.12
Mof_H 	H 	0.3368	0.0062	0.3554	0.098
Mof_C 	C 	0.34969	0.96264	0.36984	0.079
Mof_C 	C 	0.37212	0.94055	0.37629	-0.086
Mof_H 	H 	0.3919	0.9449	0.3845	0.051
Mof_C 	C 	0.33201	0.9146	0.35754	0.103
Mof_C 	C 	0.29624	0.9583	0.3424	-0.02
Mof_C 	C 	0.30104	0.95929	0.30717	0.102
Mof_C 	C 	0.33087	0.95889	0.29374	-0.16
Mof_H 	H 	0.3485	0.9588	0.3067	0.11
Mof_C 	C 	0.33461	0.95861	0.2617	0.101
Mof_H 	H 	0.3547	0.9583	0.2531	0.029
Mof_C 	C 	0.30872	0.95883	0.24216	-0.174
Mof_C 	C 	0.27899	0.96012	0.25536	0.092
Mof_H 	H 	0.2614	0.9611	0.2424	-0.02
Mof_C 	C 	0.27529	0.95996	0.28732	-0.168
Mof_H 	H 	0.2552	0.9603	0.2958	0.058
Mof_C 	C 	0.31265	0.95684	0.20775	0.433
Mof_C 	C 	0.31112	0.88852	0.34718	-0.094
Mof_H 	H 	0.2993	0.8952	0.3291	-0.081
Mof_H 	H 	0.3238	0.8709	0.3411	-0.031
Mof_C 	C 	0.288	0.879	0.3737	-0.446
Mof_H 	H 	0.2996	0.8727	0.3923	-0.349
Mof_H 	H 	0.2747	0.8967	0.3792	0.055
Mof_C 	C 	0.2676	0.8513	0.3617	-1.918
Mof_H 	H 	0.2593	0.8564	0.3411	0.518
Mof_H 	H 	0.2499	0.8483	0.3758	0.533
Mof_C 	C 	0.2864	0.8206	0.3597	0.689
Mof_H 	H 	0.2731	0.804	0.3523	-0.219
Mof_H 	H 	0.2943	0.8153	0.3802	1.263
Mof_H 	H 	0.3037	0.8233	0.3455	-0.716
Mof_N 	N 	0.36119	0.9109	0.36888	-0.254
Mof_N 	N 	0.32414	0.94531	0.35794	-0.14
Mof_O 	O 	0.37671	0.0694	0.40084	-0.386
Mof_O 	O 	0.35118	0.06055	0.35741	-0.389
Mof_O 	O 	0.34183	0.95515	0.19883	-0.522
Mof_H 	H 	0.3474	0.9519	0.1804	0.331
Mof_O 	O 	0.29078	0.95711	0.18897	-0.3
Mof_H 	H 	0.3811	0.0167	0.4333	0.047
Mof_H 	H 	0.3843	0.9837	0.4183	-0.006
Mof_C 	C 	0.4224	0.0105	0.4104	0.025
Mof_C 	C 	0.4444	0.0212	0.4299	-0.033
Mof_H 	H 	0.4405	0.0275	0.4504	0.048
Mof_C 	C 	0.476	0.0217	0.4148	-0.015
Mof_H 	H 	0.4942	0.0286	0.4248	-0.005
Mof_C 	C 	0.4754	0.0111	0.3853	-0.022
Mof_H 	H 	0.4928	0.0095	0.3723	-0.042
Mof_S 	S 	0.43822	0.00103	0.37477	-0.049
Mof_H 	H 	0.292	0.8974	0.3391	0.141
Mof_H 	H 	0.3213	0.8778	0.3301	0.073
Mof_C 	C 	0.3014	0.8653	0.3733	0.029
Mof_H 	H 	0.3198	0.8584	0.3848	-0.014
Mof_H 	H 	0.2873	0.8755	0.3879	0.595
Mof_C 	C 	0.2848	0.8366	0.3577	1.84
Mof_H 	H 	0.2991	0.8266	0.343	-0.045
Mof_H 	H 	0.2666	0.8437	0.346	-0.065
Mof_C 	C 	0.2745	0.8127	0.3826	-5.683
Mof_H 	H 	0.2643	0.7952	0.3726	1.75
Mof_H 	H 	0.2601	0.8225	0.397	1.718
Mof_H 	H 	0.2926	0.8053	0.3939	0.93
Mof_C 	C 	0.6352	0.44991	0.38171	0.286
Mof_C 	C 	0.63285	0.48421	0.38794	-0.01
Mof_C 	C 	0.6123	0.49428	0.41473	-0.136
Mof_H 	H 	0.6151	0.4803	0.4322	0.015
Mof_H 	H 	0.6181	0.5151	0.4212	0.024
Mof_C 	C 	0.57828	0.4938	0.4044	0.022
Mof_C 	C 	0.5665	0.4993	0.3759	-0.03
Mof_H 	H 	0.5788	0.5043	0.3585	0.065
Mof_C 	C 	0.5317	0.4967	0.375	-0.007
Mof_H 	H 	0.5196	0.4998	0.3571	0.011
Mof_C 	C 	0.5198	0.4893	0.4028	-0.023
Mof_H 	H 	0.4985	0.4865	0.4067	-0.037
Mof_S 	S 	0.54877	0.4854	0.43055	-0.055
Mof_C 	C 	0.64993	0.50348	0.36982	-0.12
Mof_H 	H 	0.6632	0.4938	0.3554	0.098
Mof_C 	C 	0.65031	0.53736	0.36984	0.079
Mof_C 	C 	0.62788	0.55945	0.37629	-0.086
Mof_H 	H 	0.6081	0.5551	0.3845	0.051
Mof_C 	C 	0.66799	0.5854	0.35754	0.103
Mof_C 	C 	0.70376	0.5417	0.3424	-0.02
Mof_C 	C 	0.69896	0.54071	0.30717	0.102
Mof_C 	C 	0.66913	0.54111	0.29374	-0.16
Mof_H 	H 	0.6515	0.5412	0.3067	0.11
Mof_C 	C 	0.66539	0.54139	0.2617	0.101
Mof_H 	H 	0.6453	0.5417	0.2531	0.029
Mof_C 	C 	0.69128	0.54117	0.24216	-0.175
Mof_C 	C 	0.72101	0.53988	0.25536	0.092
Mof_H 	H 	0.7386	0.5389	0.2424	-0.02
Mof_C 	C 	0.72471	0.54004	0.28732	-0.168
Mof_H 	H 	0.7448	0.5397	0.2958	0.058
Mof_C 	C 	0.68735	0.54316	0.20775	0.433
Mof_C 	C 	0.68888	0.61148	0.34718	-0.094
Mof_H 	H 	0.7007	0.6048	0.3291	-0.081
Mof_H 	H 	0.6762	0.6291	0.3411	-0.031
Mof_C 	C 	0.712	0.621	0.3737	-0.446
Mof_H 	H 	0.7004	0.6273	0.3923	-0.349
Mof_H 	H 	0.7253	0.6033	0.3792	0.055
Mof_C 	C 	0.7324	0.6487	0.3617	-1.918
Mof_H 	H 	0.7407	0.6436	0.3411	0.518
Mof_H 	H 	0.7501	0.6517	0.3758	0.533
Mof_C 	C 	0.7136	0.6794	0.3597	0.689
Mof_H 	H 	0.7269	0.696	0.3523	-0.219
Mof_H 	H 	0.7057	0.6847	0.3802	1.263
Mof_H 	H 	0.6963	0.6767	0.3455	-0.716
Mof_N 	N 	0.63881	0.5891	0.36888	-0.254
Mof_N 	N 	0.67586	0.55469	0.35794	-0.14
Mof_O 	O 	0.62329	0.4306	0.40084	-0.386
Mof_O 	O 	0.64882	0.43945	0.35741	-0.389
Mof_O 	O 	0.65817	0.54485	0.19883	-0.522
Mof_H 	H 	0.6526	0.5481	0.1804	0.331
Mof_O 	O 	0.70922	0.54289	0.18897	-0.3
Mof_H 	H 	0.6189	0.4833	0.4333	0.047
Mof_H 	H 	0.6157	0.5163	0.4183	-0.006
Mof_C 	C 	0.5776	0.4895	0.4104	0.025
Mof_C 	C 	0.5556	0.4788	0.4299	-0.033
Mof_H 	H 	0.5595	0.4725	0.4504	0.048
Mof_C 	C 	0.524	0.4783	0.4148	-0.015
Mof_H 	H 	0.5058	0.4714	0.4248	-0.005
Mof_C 	C 	0.5246	0.4889	0.3853	-0.022
Mof_H 	H 	0.5072	0.4905	0.3723	-0.042
Mof_S 	S 	0.56178	0.49897	0.37477	-0.049
Mof_H 	H 	0.708	0.6026	0.3391	0.141
Mof_H 	H 	0.6787	0.6222	0.3301	0.073
Mof_C 	C 	0.6986	0.6347	0.3733	0.029
Mof_H 	H 	0.6802	0.6416	0.3848	-0.014
Mof_H 	H 	0.7127	0.6245	0.3879	0.595
Mof_C 	C 	0.7152	0.6634	0.3577	1.84
Mof_H 	H 	0.7009	0.6734	0.343	-0.045
Mof_H 	H 	0.7334	0.6563	0.346	-0.065
Mof_C 	C 	0.7255	0.6873	0.3826	-5.683
Mof_H 	H 	0.7357	0.7048	0.3726	1.75
Mof_H 	H 	0.7399	0.6775	0.397	1.718
Mof_H 	H 	0.7074	0.6947	0.3939	0.93
Mof_C 	C 	0.1352	0.94991	0.88171	0.286
Mof_C 	C 	0.13285	0.98421	0.88794	-0.01
Mof_C 	C 	0.1123	0.99428	0.91473	-0.136
Mof_H 	H 	0.1151	0.9803	0.9322	0.015
Mof_H 	H 	0.1181	0.0151	0.9212	0.024
Mof_C 	C 	0.07828	0.9938	0.9044	0.022
Mof_C 	C 	0.0665	0.9993	0.8759	-0.03
Mof_H 	H 	0.0788	0.0043	0.8585	0.065
Mof_C 	C 	0.0317	0.9967	0.875	-0.007
Mof_H 	H 	0.0196	0.9998	0.8571	0.011
Mof_C 	C 	0.0198	0.9893	0.9028	-0.023
Mof_H 	H 	0.9985	0.9865	0.9067	-0.037
Mof_S 	S 	0.04877	0.9854	0.93055	-0.055
Mof_C 	C 	0.14993	0.00348	0.86982	-0.12
Mof_H 	H 	0.1632	0.9938	0.8554	0.098
Mof_C 	C 	0.15031	0.03736	0.86984	0.079
Mof_C 	C 	0.12788	0.05945	0.87629	-0.086
Mof_H 	H 	0.1081	0.0551	0.8845	0.051
Mof_C 	C 	0.16799	0.0854	0.85754	0.103
Mof_C 	C 	0.20376	0.0417	0.8424	-0.02
Mof_C 	C 	0.19896	0.04071	0.80717	0.102
Mof_C 	C 	0.16913	0.04111	0.79374	-0.16
Mof_H 	H 	0.1515	0.0412	0.8067	0.11
Mof_C 	C 	0.16539	0.04139	0.7617	0.101
Mof_H 	H 	0.1453	0.0417	0.7531	0.029
Mof_C 	C 	0.19128	0.04117	0.74216	-0.174
Mof_C 	C 	0.22101	0.03988	0.75536	0.092
Mof_H 	H 	0.2386	0.0389	0.7424	-0.02
Mof_C 	C 	0.22471	0.04004	0.78732	-0.168
Mof_H 	H 	0.2448	0.0397	0.7958	0.058
Mof_C 	C 	0.18735	0.04316	0.70775	0.433
Mof_C 	C 	0.18888	0.11148	0.84718	-0.094
Mof_H 	H 	0.2007	0.1048	0.8291	-0.081
Mof_H 	H 	0.1762	0.1291	0.8411	-0.031
Mof_C 	C 	0.212	0.121	0.8737	-0.446
Mof_H 	H 	0.2004	0.1273	0.8923	-0.349
Mof_H 	H 	0.2253	0.1033	0.8792	0.055
Mof_C 	C 	0.2324	0.1487	0.8617	-1.918
Mof_H 	H 	0.2407	0.1436	0.8411	0.518
Mof_H 	H 	0.2501	0.1517	0.8758	0.533
Mof_C 	C 	0.2136	0.1794	0.8597	0.689
Mof_H 	H 	0.2269	0.196	0.8523	-0.219
Mof_H 	H 	0.2057	0.1847	0.8802	1.263
Mof_H 	H 	0.1963	0.1767	0.8455	-0.716
Mof_N 	N 	0.13881	0.0891	0.86888	-0.254
Mof_N 	N 	0.17586	0.05469	0.85794	-0.14
Mof_O 	O 	0.12329	0.9306	0.90084	-0.386
Mof_O 	O 	0.14882	0.93945	0.85741	-0.389
Mof_O 	O 	0.15817	0.04485	0.69883	-0.522
Mof_H 	H 	0.1526	0.0481	0.6804	0.331
Mof_O 	O 	0.20922	0.04289	0.68897	-0.3
Mof_H 	H 	0.1189	0.9833	0.9333	0.047
Mof_H 	H 	0.1157	0.0163	0.9183	-0.006
Mof_C 	C 	0.0776	0.9895	0.9104	0.025
Mof_C 	C 	0.0556	0.9788	0.9299	-0.033
Mof_H 	H 	0.0595	0.9725	0.9504	0.048
Mof_C 	C 	0.024	0.9783	0.9148	-0.015
Mof_H 	H 	0.0058	0.9714	0.9248	-0.005
Mof_C 	C 	0.0246	0.9889	0.8853	-0.022
Mof_H 	H 	0.0072	0.9905	0.8723	-0.042
Mof_S 	S 	0.06178	0.99897	0.87477	-0.049
Mof_H 	H 	0.208	0.1026	0.8391	0.141
Mof_H 	H 	0.1787	0.1222	0.8301	0.073
Mof_C 	C 	0.1986	0.1347	0.8733	0.029
Mof_H 	H 	0.1802	0.1416	0.8848	-0.014
Mof_H 	H 	0.2127	0.1245	0.8879	0.595
Mof_C 	C 	0.2152	0.1634	0.8577	1.84
Mof_H 	H 	0.2009	0.1734	0.843	-0.045
Mof_H 	H 	0.2334	0.1563	0.846	-0.065
Mof_C 	C 	0.2255	0.1873	0.8826	-5.683
Mof_H 	H 	0.2357	0.2048	0.8726	1.75
Mof_H 	H 	0.2399	0.1775	0.897	1.718
Mof_H 	H 	0.2074	0.1947	0.8939	0.93
Mof_C 	C 	0.3648	0.94991	0.11829	0.286
Mof_C 	C 	0.36715	0.98421	0.11206	-0.01
Mof_C 	C 	0.3877	0.99428	0.08527	-0.136
Mof_H 	H 	0.3849	0.9803	0.0678	0.015
Mof_H 	H 	0.3819	0.0151	0.0788	0.024
Mof_C 	C 	0.42172	0.9938	0.0956	0.022
Mof_C 	C 	0.4335	0.9993	0.1241	-0.03
Mof_H 	H 	0.4212	0.0043	0.1415	0.065
Mof_C 	C 	0.4683	0.9967	0.125	-0.007
Mof_H 	H 	0.4804	0.9998	0.1429	0.011
Mof_C 	C 	0.4802	0.9893	0.0972	-0.023
Mof_H 	H 	0.5015	0.9865	0.0933	-0.037
Mof_S 	S 	0.45123	0.9854	0.06945	-0.055
Mof_C 	C 	0.35007	0.00348	0.13018	-0.12
Mof_H 	H 	0.3368	0.9938	0.1446	0.098
Mof_C 	C 	0.34969	0.03736	0.13016	0.079
Mof_C 	C 	0.37212	0.05945	0.12371	-0.086
Mof_H 	H 	0.3919	0.0551	0.1155	0.051
Mof_C 	C 	0.33201	0.0854	0.14246	0.103
Mof_C 	C 	0.29624	0.0417	0.1576	-0.02
Mof_C 	C 	0.30104	0.04071	0.19283	0.102
Mof_C 	C 	0.33087	0.04111	0.20626	-0.16
Mof_H 	H 	0.3485	0.0412	0.1933	0.11
Mof_C 	C 	0.33461	0.04139	0.2383	0.101
Mof_H 	H 	0.3547	0.0417	0.2469	0.029
Mof_C 	C 	0.30872	0.04117	0.25784	-0.174
Mof_C 	C 	0.27899	0.03988	0.24464	0.092
Mof_H 	H 	0.2614	0.0389	0.2576	-0.02
Mof_C 	C 	0.27529	0.04004	0.21268	-0.168
Mof_H 	H 	0.2552	0.0397	0.2042	0.058
Mof_C 	C 	0.31265	0.04316	0.29225	0.433
Mof_C 	C 	0.31112	0.11148	0.15282	-0.094
Mof_H 	H 	0.2993	0.1048	0.1709	-0.081
Mof_H 	H 	0.3238	0.1291	0.1589	-0.031
Mof_C 	C 	0.288	0.121	0.1263	-0.446
Mof_H 	H 	0.2996	0.1273	0.1077	-0.349
Mof_H 	H 	0.2747	0.1033	0.1208	0.055
Mof_C 	C 	0.2676	0.1487	0.1383	-1.918
Mof_H 	H 	0.2593	0.1436	0.1589	0.518
Mof_H 	H 	0.2499	0.1517	0.1242	0.533
Mof_C 	C 	0.2864	0.1794	0.1403	0.689
Mof_H 	H 	0.2731	0.196	0.1477	-0.219
Mof_H 	H 	0.2943	0.1847	0.1198	1.263
Mof_H 	H 	0.3037	0.1767	0.1545	-0.716
Mof_N 	N 	0.36119	0.0891	0.13112	-0.254
Mof_N 	N 	0.32414	0.05469	0.14206	-0.14
Mof_O 	O 	0.37671	0.9306	0.09916	-0.386
Mof_O 	O 	0.35118	0.93945	0.14259	-0.389
Mof_O 	O 	0.34183	0.04485	0.30117	-0.522
Mof_H 	H 	0.3474	0.0481	0.3196	0.331
Mof_O 	O 	0.29078	0.04289	0.31103	-0.3
Mof_H 	H 	0.3811	0.9833	0.0667	0.047
Mof_H 	H 	0.3843	0.0163	0.0817	-0.006
Mof_C 	C 	0.4224	0.9895	0.0896	0.025
Mof_C 	C 	0.4444	0.9788	0.0701	-0.033
Mof_H 	H 	0.4405	0.9725	0.0496	0.048
Mof_C 	C 	0.476	0.9783	0.0852	-0.015
Mof_H 	H 	0.4942	0.9714	0.0752	-0.005
Mof_C 	C 	0.4754	0.9889	0.1147	-0.022
Mof_H 	H 	0.4928	0.9905	0.1277	-0.042
Mof_S 	S 	0.43822	0.99897	0.12523	-0.049
Mof_H 	H 	0.292	0.1026	0.1609	0.141
Mof_H 	H 	0.3213	0.1222	0.1699	0.073
Mof_C 	C 	0.3014	0.1347	0.1267	0.029
Mof_H 	H 	0.3198	0.1416	0.1152	-0.014
Mof_H 	H 	0.2873	0.1245	0.1121	0.595
Mof_C 	C 	0.2848	0.1634	0.1423	1.84
Mof_H 	H 	0.2991	0.1734	0.157	-0.045
Mof_H 	H 	0.2666	0.1563	0.154	-0.065
Mof_C 	C 	0.2745	0.1873	0.1174	-5.683
Mof_H 	H 	0.2643	0.2048	0.1274	1.75
Mof_H 	H 	0.2601	0.1775	0.103	1.718
Mof_H 	H 	0.2926	0.1947	0.1061	0.93
Mof_C 	C 	0.8648	0.44991	0.61829	0.286
Mof_C 	C 	0.86715	0.48421	0.61206	-0.01
Mof_C 	C 	0.8877	0.49428	0.58527	-0.136
Mof_H 	H 	0.8849	0.4803	0.5678	0.015
Mof_H 	H 	0.8819	0.5151	0.5788	0.024
Mof_C 	C 	0.92172	0.4938	0.5956	0.022
Mof_C 	C 	0.9335	0.4993	0.6241	-0.03
Mof_H 	H 	0.9212	0.5043	0.6415	0.065
Mof_C 	C 	0.9683	0.4967	0.625	-0.007
Mof_H 	H 	0.9804	0.4998	0.6429	0.011
Mof_C 	C 	0.9802	0.4893	0.5972	-0.023
Mof_H 	H 	0.0015	0.4865	0.5933	-0.037
Mof_S 	S 	0.95123	0.4854	0.56945	-0.055
Mof_C 	C 	0.85007	0.50348	0.63018	-0.12
Mof_H 	H 	0.8368	0.4938	0.6446	0.098
Mof_C 	C 	0.84969	0.53736	0.63016	0.079
Mof_C 	C 	0.87212	0.55945	0.62371	-0.086
Mof_H 	H 	0.8919	0.5551	0.6155	0.051
Mof_C 	C 	0.83201	0.5854	0.64246	0.103
Mof_C 	C 	0.79624	0.5417	0.6576	-0.02
Mof_C 	C 	0.80104	0.54071	0.69283	0.102
Mof_C 	C 	0.83087	0.54111	0.70626	-0.16
Mof_H 	H 	0.8485	0.5412	0.6933	0.11
Mof_C 	C 	0.83461	0.54139	0.7383	0.101
Mof_H 	H 	0.8547	0.5417	0.7469	0.029
Mof_C 	C 	0.80872	0.54117	0.75784	-0.175
Mof_C 	C 	0.77899	0.53988	0.74464	0.092
Mof_H 	H 	0.7614	0.5389	0.7576	-0.02
Mof_C 	C 	0.77529	0.54004	0.71268	-0.168
Mof_H 	H 	0.7552	0.5397	0.7042	0.058
Mof_C 	C 	0.81265	0.54316	0.79225	0.433
Mof_C 	C 	0.81112	0.61148	0.65282	-0.094
Mof_H 	H 	0.7993	0.6048	0.6709	-0.081
Mof_H 	H 	0.8238	0.6291	0.6589	-0.031
Mof_C 	C 	0.788	0.621	0.6263	-0.446
Mof_H 	H 	0.7996	0.6273	0.6077	-0.349
Mof_H 	H 	0.7747	0.6033	0.6208	0.055
Mof_C 	C 	0.7676	0.6487	0.6383	-1.918
Mof_H 	H 	0.7593	0.6436	0.6589	0.518
Mof_H 	H 	0.7499	0.6517	0.6242	0.533
Mof_C 	C 	0.7864	0.6794	0.6403	0.689
Mof_H 	H 	0.7731	0.696	0.6477	-0.219
Mof_H 	H 	0.7943	0.6847	0.6198	1.263
Mof_H 	H 	0.8037	0.6767	0.6545	-0.716
Mof_N 	N 	0.86119	0.5891	0.63112	-0.254
Mof_N 	N 	0.82414	0.55469	0.64206	-0.14
Mof_O 	O 	0.87671	0.4306	0.59916	-0.386
Mof_O 	O 	0.85118	0.43945	0.64259	-0.389
Mof_O 	O 	0.84183	0.54485	0.80117	-0.522
Mof_H 	H 	0.8474	0.5481	0.8196	0.331
Mof_O 	O 	0.79078	0.54289	0.81103	-0.3
Mof_H 	H 	0.8811	0.4833	0.5667	0.047
Mof_H 	H 	0.8843	0.5163	0.5817	-0.006
Mof_C 	C 	0.9224	0.4895	0.5896	0.025
Mof_C 	C 	0.9444	0.4788	0.5701	-0.033
Mof_H 	H 	0.9405	0.4725	0.5496	0.048
Mof_C 	C 	0.976	0.4783	0.5852	-0.015
Mof_H 	H 	0.9942	0.4714	0.5752	-0.005
Mof_C 	C 	0.9754	0.4889	0.6147	-0.022
Mof_H 	H 	0.9928	0.4905	0.6277	-0.042
Mof_S 	S 	0.93822	0.49897	0.62523	-0.049
Mof_H 	H 	0.792	0.6026	0.6609	0.141
Mof_H 	H 	0.8213	0.6222	0.6699	0.073
Mof_C 	C 	0.8014	0.6347	0.6267	0.029
Mof_H 	H 	0.8198	0.6416	0.6152	-0.014
Mof_H 	H 	0.7873	0.6245	0.6121	0.595
Mof_C 	C 	0.7848	0.6634	0.6423	1.84
Mof_H 	H 	0.7991	0.6734	0.657	-0.045
Mof_H 	H 	0.7666	0.6563	0.654	-0.065
Mof_C 	C 	0.7745	0.6873	0.6174	-5.683
Mof_H 	H 	0.7643	0.7048	0.6274	1.75
Mof_H 	H 	0.7601	0.6775	0.603	1.718
Mof_H 	H 	0.7926	0.6947	0.6061	0.93
Mof_C 	C 	0.3852	0.36829	0.69991	0.286
Mof_C 	C 	0.38285	0.36206	0.73421	-0.01
Mof_C 	C 	0.3623	0.33527	0.74428	-0.136
Mof_H 	H 	0.3651	0.3178	0.7303	0.015
Mof_H 	H 	0.3681	0.3288	0.7651	0.024
Mof_C 	C 	0.32828	0.3456	0.7438	0.022
Mof_C 	C 	0.3165	0.3741	0.7493	-0.03
Mof_H 	H 	0.3288	0.3915	0.7543	0.065
Mof_C 	C 	0.2817	0.375	0.7467	-0.007
Mof_H 	H 	0.2696	0.3929	0.7498	0.011
Mof_C 	C 	0.2698	0.3472	0.7393	-0.023
Mof_H 	H 	0.2485	0.3433	0.7365	-0.037
Mof_S 	S 	0.29877	0.31945	0.7354	-0.055
Mof_C 	C 	0.39993	0.38018	0.75348	-0.12
Mof_H 	H 	0.4132	0.3946	0.7438	0.098
Mof_C 	C 	0.40031	0.38016	0.78736	0.079
Mof_C 	C 	0.37788	0.37371	0.80945	-0.086
Mof_H 	H 	0.3581	0.3655	0.8051	0.051
Mof_C 	C 	0.41799	0.39246	0.8354	0.103
Mof_C 	C 	0.45376	0.4076	0.7917	-0.02
Mof_C 	C 	0.44896	0.44283	0.79071	0.102
Mof_C 	C 	0.41913	0.45626	0.79111	-0.16
Mof_H 	H 	0.4015	0.4433	0.7912	0.11
Mof_C 	C 	0.41539	0.4883	0.79139	0.101
Mof_H 	H 	0.3953	0.4969	0.7917	0.029
Mof_C 	C 	0.44128	0.50784	0.79117	-0.175
Mof_C 	C 	0.47101	0.49464	0.78988	0.092
Mof_H 	H 	0.4886	0.5076	0.7889	-0.02
Mof_C 	C 	0.47471	0.46268	0.79004	-0.168
Mof_H 	H 	0.4948	0.4542	0.7897	0.058
Mof_C 	C 	0.43735	0.54225	0.79316	0.433
Mof_C 	C 	0.43888	0.40282	0.86148	-0.094
Mof_H 	H 	0.4507	0.4209	0.8548	-0.081
Mof_H 	H 	0.4262	0.4089	0.8791	-0.031
Mof_C 	C 	0.462	0.3763	0.871	-0.446
Mof_H 	H 	0.4504	0.3577	0.8773	-0.349
Mof_H 	H 	0.4753	0.3708	0.8533	0.055
Mof_C 	C 	0.4824	0.3883	0.8987	-1.918
Mof_H 	H 	0.4907	0.4089	0.8936	0.518
Mof_H 	H 	0.5001	0.3742	0.9017	0.533
Mof_C 	C 	0.4636	0.3903	0.9294	0.689
Mof_H 	H 	0.4769	0.3977	0.946	-0.219
Mof_H 	H 	0.4557	0.3698	0.9347	1.263
Mof_H 	H 	0.4463	0.4045	0.9267	-0.716
Mof_N 	N 	0.38881	0.38112	0.8391	-0.254
Mof_N 	N 	0.42586	0.39206	0.80469	-0.14
Mof_O 	O 	0.37329	0.34916	0.6806	-0.386
Mof_O 	O 	0.39882	0.39259	0.68945	-0.389
Mof_O 	O 	0.40817	0.55117	0.79485	-0.522
Mof_H 	H 	0.4026	0.5696	0.7981	0.331
Mof_O 	O 	0.45922	0.56103	0.79289	-0.3
Mof_H 	H 	0.3689	0.3167	0.7333	0.047
Mof_H 	H 	0.3657	0.3317	0.7663	-0.006
Mof_C 	C 	0.3276	0.3396	0.7395	0.025
Mof_C 	C 	0.3056	0.3201	0.7288	-0.033
Mof_H 	H 	0.3095	0.2996	0.7225	0.048
Mof_C 	C 	0.274	0.3352	0.7283	-0.015
Mof_H 	H 	0.2558	0.3252	0.7214	-0.005
Mof_C 	C 	0.2746	0.3647	0.7389	-0.022
Mof_H 	H 	0.2572	0.3777	0.7405	-0.042
Mof_S 	S 	0.31178	0.37523	0.74897	-0.049
Mof_H 	H 	0.458	0.4109	0.8526	0.141
Mof_H 	H 	0.4287	0.4199	0.8722	0.073
Mof_C 	C 	0.4486	0.3767	0.8847	0.029
Mof_H 	H 	0.4302	0.3652	0.8916	-0.014
Mof_H 	H 	0.4627	0.3621	0.8745	0.595
Mof_C 	C 	0.4652	0.3923	0.9134	1.84
Mof_H 	H 	0.4509	0.407	0.9234	-0.045
Mof_H 	H 	0.4834	0.404	0.9063	-0.065
Mof_C 	C 	0.4755	0.3674	0.9373	-5.683
Mof_H 	H 	0.4857	0.3774	0.9548	1.75
Mof_H 	H 	0.4899	0.353	0.9275	1.718
Mof_H 	H 	0.4574	0.3561	0.9447	0.93
Mof_C 	C 	0.8852	0.86829	0.19991	0.286
Mof_C 	C 	0.88285	0.86206	0.23421	-0.01
Mof_C 	C 	0.8623	0.83527	0.24428	-0.136
Mof_H 	H 	0.8651	0.8178	0.2303	0.015
Mof_H 	H 	0.8681	0.8288	0.2651	0.024
Mof_C 	C 	0.82828	0.8456	0.2438	0.022
Mof_C 	C 	0.8165	0.8741	0.2493	-0.03
Mof_H 	H 	0.8288	0.8915	0.2543	0.065
Mof_C 	C 	0.7817	0.875	0.2467	-0.007
Mof_H 	H 	0.7696	0.8929	0.2498	0.011
Mof_C 	C 	0.7698	0.8472	0.2393	-0.023
Mof_H 	H 	0.7485	0.8433	0.2365	-0.037
Mof_S 	S 	0.79877	0.81945	0.2354	-0.055
Mof_C 	C 	0.89993	0.88018	0.25348	-0.12
Mof_H 	H 	0.9132	0.8946	0.2438	0.098
Mof_C 	C 	0.90031	0.88016	0.28736	0.079
Mof_C 	C 	0.87788	0.87371	0.30945	-0.086
Mof_H 	H 	0.8581	0.8655	0.3051	0.051
Mof_C 	C 	0.91799	0.89246	0.3354	0.103
Mof_C 	C 	0.95376	0.9076	0.2917	-0.02
Mof_C 	C 	0.94896	0.94283	0.29071	0.102
Mof_C 	C 	0.91913	0.95626	0.29111	-0.16
Mof_H 	H 	0.9015	0.9433	0.2912	0.11
Mof_C 	C 	0.91539	0.9883	0.29139	0.101
Mof_H 	H 	0.8953	0.9969	0.2917	0.029
Mof_C 	C 	0.94128	0.00784	0.29117	-0.174
Mof_C 	C 	0.97101	0.99464	0.28988	0.092
Mof_H 	H 	0.9886	0.0076	0.2889	-0.02
Mof_C 	C 	0.97471	0.96268	0.29004	-0.168
Mof_H 	H 	0.9948	0.9542	0.2897	0.058
Mof_C 	C 	0.93735	0.04225	0.29316	0.433
Mof_C 	C 	0.93888	0.90282	0.36148	-0.094
Mof_H 	H 	0.9507	0.9209	0.3548	-0.081
Mof_H 	H 	0.9262	0.9089	0.3791	-0.031
Mof_C 	C 	0.962	0.8763	0.371	-0.446
Mof_H 	H 	0.9504	0.8577	0.3773	-0.349
Mof_H 	H 	0.9753	0.8708	0.3533	0.055
Mof_C 	C 	0.9824	0.8883	0.3987	-1.918
Mof_H 	H 	0.9907	0.9089	0.3936	0.518
Mof_H 	H 	0.0001	0.8742	0.4017	0.533
Mof_C 	C 	0.9636	0.8903	0.4294	0.689
Mof_H 	H 	0.9769	0.8977	0.446	-0.219
Mof_H 	H 	0.9557	0.8698	0.4347	1.263
Mof_H 	H 	0.9463	0.9045	0.4267	-0.716
Mof_N 	N 	0.88881	0.88112	0.3391	-0.254
Mof_N 	N 	0.92586	0.89206	0.30469	-0.14
Mof_O 	O 	0.87329	0.84916	0.1806	-0.386
Mof_O 	O 	0.89882	0.89259	0.18945	-0.389
Mof_O 	O 	0.90817	0.05117	0.29485	-0.522
Mof_H 	H 	0.9026	0.0696	0.2981	0.331
Mof_O 	O 	0.95922	0.06103	0.29289	-0.3
Mof_H 	H 	0.8689	0.8167	0.2333	0.047
Mof_H 	H 	0.8657	0.8317	0.2663	-0.006
Mof_C 	C 	0.8276	0.8396	0.2395	0.025
Mof_C 	C 	0.8056	0.8201	0.2288	-0.033
Mof_H 	H 	0.8095	0.7996	0.2225	0.048
Mof_C 	C 	0.774	0.8352	0.2283	-0.015
Mof_H 	H 	0.7558	0.8252	0.2214	-0.005
Mof_C 	C 	0.7746	0.8647	0.2389	-0.022
Mof_H 	H 	0.7572	0.8777	0.2405	-0.042
Mof_S 	S 	0.81178	0.87523	0.24897	-0.049
Mof_H 	H 	0.958	0.9109	0.3526	0.141
Mof_H 	H 	0.9287	0.9199	0.3722	0.073
Mof_C 	C 	0.9486	0.8767	0.3847	0.029
Mof_H 	H 	0.9302	0.8652	0.3916	-0.014
Mof_H 	H 	0.9627	0.8621	0.3745	0.595
Mof_C 	C 	0.9652	0.8923	0.4134	1.84
Mof_H 	H 	0.9509	0.907	0.4234	-0.045
Mof_H 	H 	0.9834	0.904	0.4063	-0.065
Mof_C 	C 	0.9755	0.8674	0.4373	-5.683
Mof_H 	H 	0.9857	0.8774	0.4548	1.75
Mof_H 	H 	0.9899	0.853	0.4275	1.718
Mof_H 	H 	0.9574	0.8561	0.4447	0.93
Mof_C 	C 	0.1148	0.63171	0.19991	0.286
Mof_C 	C 	0.11715	0.63794	0.23421	-0.01
Mof_C 	C 	0.1377	0.66473	0.24428	-0.136
Mof_H 	H 	0.1349	0.6822	0.2303	0.015
Mof_H 	H 	0.1319	0.6712	0.2651	0.024
Mof_C 	C 	0.17172	0.6544	0.2438	0.022
Mof_C 	C 	0.1835	0.6259	0.2493	-0.03
Mof_H 	H 	0.1712	0.6085	0.2543	0.065
Mof_C 	C 	0.2183	0.625	0.2467	-0.007
Mof_H 	H 	0.2304	0.6071	0.2498	0.011
Mof_C 	C 	0.2302	0.6528	0.2393	-0.023
Mof_H 	H 	0.2515	0.6567	0.2365	-0.037
Mof_S 	S 	0.20123	0.68055	0.2354	-0.055
Mof_C 	C 	0.10007	0.61982	0.25348	-0.12
Mof_H 	H 	0.0868	0.6054	0.2438	0.098
Mof_C 	C 	0.09969	0.61984	0.28736	0.079
Mof_C 	C 	0.12212	0.62629	0.30945	-0.086
Mof_H 	H 	0.1419	0.6345	0.3051	0.051
Mof_C 	C 	0.08201	0.60754	0.3354	0.103
Mof_C 	C 	0.04624	0.5924	0.2917	-0.02
Mof_C 	C 	0.05104	0.55717	0.29071	0.102
Mof_C 	C 	0.08087	0.54374	0.29111	-0.16
Mof_H 	H 	0.0985	0.5567	0.2912	0.11
Mof_C 	C 	0.08461	0.5117	0.29139	0.101
Mof_H 	H 	0.1047	0.5031	0.2917	0.029
Mof_C 	C 	0.05872	0.49216	0.29117	-0.174
Mof_C 	C 	0.02899	0.50536	0.28988	0.092
Mof_H 	H 	0.0114	0.4924	0.2889	-0.02
Mof_C 	C 	0.02529	0.53732	0.29004	-0.168
Mof_H 	H 	0.0052	0.5458	0.2897	0.058
Mof_C 	C 	0.06265	0.45775	0.29316	0.433
Mof_C 	C 	0.06112	0.59718	0.36148	-0.094
Mof_H 	H 	0.0493	0.5791	0.3548	-0.081
Mof_H 	H 	0.0738	0.5911	0.3791	-0.031
Mof_C 	C 	0.038	0.6237	0.371	-0.446
Mof_H 	H 	0.0496	0.6423	0.3773	-0.349
Mof_H 	H 	0.0247	0.6292	0.3533	0.055
Mof_C 	C 	0.0176	0.6117	0.3987	-1.918
Mof_H 	H 	0.0093	0.5911	0.3936	0.518
Mof_H 	H 	0.9999	0.6258	0.4017	0.533
Mof_C 	C 	0.0364	0.6097	0.4294	0.689
Mof_H 	H 	0.0231	0.6023	0.446	-0.219
Mof_H 	H 	0.0443	0.6302	0.4347	1.263
Mof_H 	H 	0.0537	0.5955	0.4267	-0.716
Mof_N 	N 	0.11119	0.61888	0.3391	-0.254
Mof_N 	N 	0.07414	0.60794	0.30469	-0.14
Mof_O 	O 	0.12671	0.65084	0.1806	-0.386
Mof_O 	O 	0.10118	0.60741	0.18945	-0.389
Mof_O 	O 	0.09183	0.44883	0.29485	-0.522
Mof_H 	H 	0.0974	0.4304	0.2981	0.331
Mof_O 	O 	0.04078	0.43897	0.29289	-0.3
Mof_H 	H 	0.1311	0.6833	0.2333	0.047
Mof_H 	H 	0.1343	0.6683	0.2663	-0.006
Mof_C 	C 	0.1724	0.6604	0.2395	0.025
Mof_C 	C 	0.1944	0.6799	0.2288	-0.033
Mof_H 	H 	0.1905	0.7004	0.2225	0.048
Mof_C 	C 	0.226	0.6648	0.2283	-0.015
Mof_H 	H 	0.2442	0.6748	0.2214	-0.005
Mof_C 	C 	0.2254	0.6353	0.2389	-0.022
Mof_H 	H 	0.2428	0.6223	0.2405	-0.042
Mof_S 	S 	0.18822	0.62477	0.24897	-0.049
Mof_H 	H 	0.042	0.5891	0.3526	0.141
Mof_H 	H 	0.0713	0.5801	0.3722	0.073
Mof_C 	C 	0.0514	0.6233	0.3847	0.029
Mof_H 	H 	0.0698	0.6348	0.3916	-0.014
Mof_H 	H 	0.0373	0.6379	0.3745	0.595
Mof_C 	C 	0.0348	0.6077	0.4134	1.84
Mof_H 	H 	0.0491	0.593	0.4234	-0.045
Mof_H 	H 	0.0166	0.596	0.4063	-0.065
Mof_C 	C 	0.0245	0.6326	0.4373	-5.683
Mof_H 	H 	0.0143	0.6226	0.4548	1.75
Mof_H 	H 	0.0101	0.647	0.4275	1.718
Mof_H 	H 	0.0426	0.6439	0.4447	0.93
Mof_C 	C 	0.6148	0.13171	0.69991	0.286
Mof_C 	C 	0.61715	0.13794	0.73421	-0.01
Mof_C 	C 	0.6377	0.16473	0.74428	-0.136
Mof_H 	H 	0.6349	0.1822	0.7303	0.015
Mof_H 	H 	0.6319	0.1712	0.7651	0.024
Mof_C 	C 	0.67172	0.1544	0.7438	0.022
Mof_C 	C 	0.6835	0.1259	0.7493	-0.03
Mof_H 	H 	0.6712	0.1085	0.7543	0.065
Mof_C 	C 	0.7183	0.125	0.7467	-0.007
Mof_H 	H 	0.7304	0.1071	0.7498	0.011
Mof_C 	C 	0.7302	0.1528	0.7393	-0.023
Mof_H 	H 	0.7515	0.1567	0.7365	-0.037
Mof_S 	S 	0.70123	0.18055	0.7354	-0.055
Mof_C 	C 	0.60007	0.11982	0.75348	-0.12
Mof_H 	H 	0.5868	0.1054	0.7438	0.098
Mof_C 	C 	0.59969	0.11984	0.78736	0.079
Mof_C 	C 	0.62212	0.12629	0.80945	-0.086
Mof_H 	H 	0.6419	0.1345	0.8051	0.051
Mof_C 	C 	0.58201	0.10754	0.8354	0.103
Mof_C 	C 	0.54624	0.0924	0.7917	-0.02
Mof_C 	C 	0.55104	0.05717	0.79071	0.102
Mof_C 	C 	0.58087	0.04374	0.79111	-0.16
Mof_H 	H 	0.5985	0.0567	0.7912	0.11
Mof_C 	C 	0.58461	0.0117	0.79139	0.101
Mof_H 	H 	0.6047	0.0031	0.7917	0.029
Mof_C 	C 	0.55872	0.99216	0.79117	-0.174
Mof_C 	C 	0.52899	0.00536	0.78988	0.092
Mof_H 	H 	0.5114	0.9924	0.7889	-0.02
Mof_C 	C 	0.52529	0.03732	0.79004	-0.168
Mof_H 	H 	0.5052	0.0458	0.7897	0.058
Mof_C 	C 	0.56265	0.95775	0.79316	0.433
Mof_C 	C 	0.56112	0.09718	0.86148	-0.094
Mof_H 	H 	0.5493	0.0791	0.8548	-0.081
Mof_H 	H 	0.5738	0.0911	0.8791	-0.031
Mof_C 	C 	0.538	0.1237	0.871	-0.446
Mof_H 	H 	0.5496	0.1423	0.8773	-0.349
Mof_H 	H 	0.5247	0.1292	0.8533	0.055
Mof_C 	C 	0.5176	0.1117	0.8987	-1.918
Mof_H 	H 	0.5093	0.0911	0.8936	0.518
Mof_H 	H 	0.4999	0.1258	0.9017	0.533
Mof_C 	C 	0.5364	0.1097	0.9294	0.689
Mof_H 	H 	0.5231	0.1023	0.946	-0.219
Mof_H 	H 	0.5443	0.1302	0.9347	1.263
Mof_H 	H 	0.5537	0.0955	0.9267	-0.716
Mof_N 	N 	0.61119	0.11888	0.8391	-0.254
Mof_N 	N 	0.57414	0.10794	0.80469	-0.14
Mof_O 	O 	0.62671	0.15084	0.6806	-0.386
Mof_O 	O 	0.60118	0.10741	0.68945	-0.389
Mof_O 	O 	0.59183	0.94883	0.79485	-0.522
Mof_H 	H 	0.5974	0.9304	0.7981	0.331
Mof_O 	O 	0.54078	0.93897	0.79289	-0.3
Mof_H 	H 	0.6311	0.1833	0.7333	0.047
Mof_H 	H 	0.6343	0.1683	0.7663	-0.006
Mof_C 	C 	0.6724	0.1604	0.7395	0.025
Mof_C 	C 	0.6944	0.1799	0.7288	-0.033
Mof_H 	H 	0.6905	0.2004	0.7225	0.048
Mof_C 	C 	0.726	0.1648	0.7283	-0.015
Mof_H 	H 	0.7442	0.1748	0.7214	-0.005
Mof_C 	C 	0.7254	0.1353	0.7389	-0.022
Mof_H 	H 	0.7428	0.1223	0.7405	-0.042
Mof_S 	S 	0.68822	0.12477	0.74897	-0.049
Mof_H 	H 	0.542	0.0891	0.8526	0.141
Mof_H 	H 	0.5713	0.0801	0.8722	0.073
Mof_C 	C 	0.5514	0.1233	0.8847	0.029
Mof_H 	H 	0.5698	0.1348	0.8916	-0.014
Mof_H 	H 	0.5373	0.1379	0.8745	0.595
Mof_C 	C 	0.5348	0.1077	0.9134	1.84
Mof_H 	H 	0.5491	0.093	0.9234	-0.045
Mof_H 	H 	0.5166	0.096	0.9063	-0.065
Mof_C 	C 	0.5245	0.1326	0.9373	-5.683
Mof_H 	H 	0.5143	0.1226	0.9548	1.75
Mof_H 	H 	0.5101	0.147	0.9275	1.718
Mof_H 	H 	0.5426	0.1439	0.9447	0.93
Mof_C 	C 	0.8852	0.13171	0.30009	0.286
Mof_C 	C 	0.88285	0.13794	0.26579	-0.01
Mof_C 	C 	0.8623	0.16473	0.25572	-0.136
Mof_H 	H 	0.8651	0.1822	0.2697	0.015
Mof_H 	H 	0.8681	0.1712	0.2349	0.024
Mof_C 	C 	0.82828	0.1544	0.2562	0.022
Mof_C 	C 	0.8165	0.1259	0.2507	-0.03
Mof_H 	H 	0.8288	0.1085	0.2457	0.065
Mof_C 	C 	0.7817	0.125	0.2533	-0.007
Mof_H 	H 	0.7696	0.1071	0.2502	0.011
Mof_C 	C 	0.7698	0.1528	0.2607	-0.023
Mof_H 	H 	0.7485	0.1567	0.2635	-0.037
Mof_S 	S 	0.79877	0.18055	0.2646	-0.055
Mof_C 	C 	0.89993	0.11982	0.24652	-0.12
Mof_H 	H 	0.9132	0.1054	0.2562	0.098
Mof_C 	C 	0.90031	0.11984	0.21264	0.079
Mof_C 	C 	0.87788	0.12629	0.19055	-0.086
Mof_H 	H 	0.8581	0.1345	0.1949	0.051
Mof_C 	C 	0.91799	0.10754	0.1646	0.103
Mof_C 	C 	0.95376	0.0924	0.2083	-0.02
Mof_C 	C 	0.94896	0.05717	0.20929	0.102
Mof_C 	C 	0.91913	0.04374	0.20889	-0.16
Mof_H 	H 	0.9015	0.0567	0.2088	0.11
Mof_C 	C 	0.91539	0.0117	0.20861	0.101
Mof_H 	H 	0.8953	0.0031	0.2083	0.029
Mof_C 	C 	0.94128	0.99216	0.20883	-0.174
Mof_C 	C 	0.97101	0.00536	0.21012	0.092
Mof_H 	H 	0.9886	0.9924	0.2111	-0.02
Mof_C 	C 	0.97471	0.03732	0.20996	-0.168
Mof_H 	H 	0.9948	0.0458	0.2103	0.058
Mof_C 	C 	0.93735	0.95775	0.20684	0.433
Mof_C 	C 	0.93888	0.09718	0.13852	-0.094
Mof_H 	H 	0.9507	0.0791	0.1452	-0.081
Mof_H 	H 	0.9262	0.0911	0.1209	-0.031
Mof_C 	C 	0.962	0.1237	0.129	-0.446
Mof_H 	H 	0.9504	0.1423	0.1227	-0.349
Mof_H 	H 	0.9753	0.1292	0.1467	0.055
Mof_C 	C 	0.9824	0.1117	0.1013	-1.918
Mof_H 	H 	0.9907	0.0911	0.1064	0.518
Mof_H 	H 	0.0001	0.1258	0.0983	0.533
Mof_C 	C 	0.9636	0.1097	0.0706	0.689
Mof_H 	H 	0.9769	0.1023	0.054	-0.219
Mof_H 	H 	0.9557	0.1302	0.0653	1.263
Mof_H 	H 	0.9463	0.0955	0.0733	-0.716
Mof_N 	N 	0.88881	0.11888	0.1609	-0.254
Mof_N 	N 	0.92586	0.10794	0.19531	-0.14
Mof_O 	O 	0.87329	0.15084	0.3194	-0.386
Mof_O 	O 	0.89882	0.10741	0.31055	-0.389
Mof_O 	O 	0.90817	0.94883	0.20515	-0.522
Mof_H 	H 	0.9026	0.9304	0.2019	0.331
Mof_O 	O 	0.95922	0.93897	0.20711	-0.3
Mof_H 	H 	0.8689	0.1833	0.2667	0.047
Mof_H 	H 	0.8657	0.1683	0.2337	-0.006
Mof_C 	C 	0.8276	0.1604	0.2605	0.025
Mof_C 	C 	0.8056	0.1799	0.2712	-0.033
Mof_H 	H 	0.8095	0.2004	0.2775	0.048
Mof_C 	C 	0.774	0.1648	0.2717	-0.015
Mof_H 	H 	0.7558	0.1748	0.2786	-0.005
Mof_C 	C 	0.7746	0.1353	0.2611	-0.022
Mof_H 	H 	0.7572	0.1223	0.2595	-0.042
Mof_S 	S 	0.81178	0.12477	0.25103	-0.049
Mof_H 	H 	0.958	0.0891	0.1474	0.141
Mof_H 	H 	0.9287	0.0801	0.1278	0.073
Mof_C 	C 	0.9486	0.1233	0.1153	0.029
Mof_H 	H 	0.9302	0.1348	0.1084	-0.014
Mof_H 	H 	0.9627	0.1379	0.1255	0.595
Mof_C 	C 	0.9652	0.1077	0.0866	1.84
Mof_H 	H 	0.9509	0.093	0.0766	-0.045
Mof_H 	H 	0.9834	0.096	0.0937	-0.065
Mof_C 	C 	0.9755	0.1326	0.0627	-5.683
Mof_H 	H 	0.9857	0.1226	0.0452	1.75
Mof_H 	H 	0.9899	0.147	0.0725	1.718
Mof_H 	H 	0.9574	0.1439	0.0553	0.93
Mof_C 	C 	0.3852	0.63171	0.80009	0.286
Mof_C 	C 	0.38285	0.63794	0.76579	-0.01
Mof_C 	C 	0.3623	0.66473	0.75572	-0.136
Mof_H 	H 	0.3651	0.6822	0.7697	0.015
Mof_H 	H 	0.3681	0.6712	0.7349	0.024
Mof_C 	C 	0.32828	0.6544	0.7562	0.022
Mof_C 	C 	0.3165	0.6259	0.7507	-0.03
Mof_H 	H 	0.3288	0.6085	0.7457	0.065
Mof_C 	C 	0.2817	0.625	0.7533	-0.007
Mof_H 	H 	0.2696	0.6071	0.7502	0.011
Mof_C 	C 	0.2698	0.6528	0.7607	-0.023
Mof_H 	H 	0.2485	0.6567	0.7635	-0.037
Mof_S 	S 	0.29877	0.68055	0.7646	-0.055
Mof_C 	C 	0.39993	0.61982	0.74652	-0.12
Mof_H 	H 	0.4132	0.6054	0.7562	0.098
Mof_C 	C 	0.40031	0.61984	0.71264	0.079
Mof_C 	C 	0.37788	0.62629	0.69055	-0.086
Mof_H 	H 	0.3581	0.6345	0.6949	0.051
Mof_C 	C 	0.41799	0.60754	0.6646	0.103
Mof_C 	C 	0.45376	0.5924	0.7083	-0.02
Mof_C 	C 	0.44896	0.55717	0.70929	0.102
Mof_C 	C 	0.41913	0.54374	0.70889	-0.16
Mof_H 	H 	0.4015	0.5567	0.7088	0.11
Mof_C 	C 	0.41539	0.5117	0.70861	0.101
Mof_H 	H 	0.3953	0.5031	0.7083	0.029
Mof_C 	C 	0.44128	0.49216	0.70883	-0.175
Mof_C 	C 	0.47101	0.50536	0.71012	0.092
Mof_H 	H 	0.4886	0.4924	0.7111	-0.02
Mof_C 	C 	0.47471	0.53732	0.70996	-0.168
Mof_H 	H 	0.4948	0.5458	0.7103	0.058
Mof_C 	C 	0.43735	0.45775	0.70684	0.433
Mof_C 	C 	0.43888	0.59718	0.63852	-0.094
Mof_H 	H 	0.4507	0.5791	0.6452	-0.081
Mof_H 	H 	0.4262	0.5911	0.6209	-0.031
Mof_C 	C 	0.462	0.6237	0.629	-0.446
Mof_H 	H 	0.4504	0.6423	0.6227	-0.349
Mof_H 	H 	0.4753	0.6292	0.6467	0.055
Mof_C 	C 	0.4824	0.6117	0.6013	-1.918
Mof_H 	H 	0.4907	0.5911	0.6064	0.518
Mof_H 	H 	0.5001	0.6258	0.5983	0.533
Mof_C 	C 	0.4636	0.6097	0.5706	0.689
Mof_H 	H 	0.4769	0.6023	0.554	-0.219
Mof_H 	H 	0.4557	0.6302	0.5653	1.263
Mof_H 	H 	0.4463	0.5955	0.5733	-0.716
Mof_N 	N 	0.38881	0.61888	0.6609	-0.254
Mof_N 	N 	0.42586	0.60794	0.69531	-0.14
Mof_O 	O 	0.37329	0.65084	0.8194	-0.386
Mof_O 	O 	0.39882	0.60741	0.81055	-0.389
Mof_O 	O 	0.40817	0.44883	0.70515	-0.522
Mof_H 	H 	0.4026	0.4304	0.7019	0.331
Mof_O 	O 	0.45922	0.43897	0.70711	-0.3
Mof_H 	H 	0.3689	0.6833	0.7667	0.047
Mof_H 	H 	0.3657	0.6683	0.7337	-0.006
Mof_C 	C 	0.3276	0.6604	0.7605	0.025
Mof_C 	C 	0.3056	0.6799	0.7712	-0.033
Mof_H 	H 	0.3095	0.7004	0.7775	0.048
Mof_C 	C 	0.274	0.6648	0.7717	-0.015
Mof_H 	H 	0.2558	0.6748	0.7786	-0.005
Mof_C 	C 	0.2746	0.6353	0.7611	-0.022
Mof_H 	H 	0.2572	0.6223	0.7595	-0.042
Mof_S 	S 	0.31178	0.62477	0.75103	-0.049
Mof_H 	H 	0.458	0.5891	0.6474	0.141
Mof_H 	H 	0.4287	0.5801	0.6278	0.073
Mof_C 	C 	0.4486	0.6233	0.6153	0.029
Mof_H 	H 	0.4302	0.6348	0.6084	-0.014
Mof_H 	H 	0.4627	0.6379	0.6255	0.595
Mof_C 	C 	0.4652	0.6077	0.5866	1.84
Mof_H 	H 	0.4509	0.593	0.5766	-0.045
Mof_H 	H 	0.4834	0.596	0.5937	-0.065
Mof_C 	C 	0.4755	0.6326	0.5627	-5.683
Mof_H 	H 	0.4857	0.6226	0.5452	1.75
Mof_H 	H 	0.4899	0.647	0.5725	1.718
Mof_H 	H 	0.4574	0.6439	0.5553	0.93
Mof_C 	C 	0.6148	0.86829	0.80009	0.286
Mof_C 	C 	0.61715	0.86206	0.76579	-0.01
Mof_C 	C 	0.6377	0.83527	0.75572	-0.136
Mof_H 	H 	0.6349	0.8178	0.7697	0.015
Mof_H 	H 	0.6319	0.8288	0.7349	0.024
Mof_C 	C 	0.67172	0.8456	0.7562	0.022
Mof_C 	C 	0.6835	0.8741	0.7507	-0.03
Mof_H 	H 	0.6712	0.8915	0.7457	0.065
Mof_C 	C 	0.7183	0.875	0.7533	-0.007
Mof_H 	H 	0.7304	0.8929	0.7502	0.011
Mof_C 	C 	0.7302	0.8472	0.7607	-0.023
Mof_H 	H 	0.7515	0.8433	0.7635	-0.037
Mof_S 	S 	0.70123	0.81945	0.7646	-0.055
Mof_C 	C 	0.60007	0.88018	0.74652	-0.12
Mof_H 	H 	0.5868	0.8946	0.7562	0.098
Mof_C 	C 	0.59969	0.88016	0.71264	0.079
Mof_C 	C 	0.62212	0.87371	0.69055	-0.086
Mof_H 	H 	0.6419	0.8655	0.6949	0.051
Mof_C 	C 	0.58201	0.89246	0.6646	0.103
Mof_C 	C 	0.54624	0.9076	0.7083	-0.02
Mof_C 	C 	0.55104	0.94283	0.70929	0.102
Mof_C 	C 	0.58087	0.95626	0.70889	-0.16
Mof_H 	H 	0.5985	0.9433	0.7088	0.11
Mof_C 	C 	0.58461	0.9883	0.70861	0.101
Mof_H 	H 	0.6047	0.9969	0.7083	0.029
Mof_C 	C 	0.55872	0.00784	0.70883	-0.174
Mof_C 	C 	0.52899	0.99464	0.71012	0.092
Mof_H 	H 	0.5114	0.0076	0.7111	-0.02
Mof_C 	C 	0.52529	0.96268	0.70996	-0.168
Mof_H 	H 	0.5052	0.9542	0.7103	0.058
Mof_C 	C 	0.56265	0.04225	0.70684	0.433
Mof_C 	C 	0.56112	0.90282	0.63852	-0.094
Mof_H 	H 	0.5493	0.9209	0.6452	-0.081
Mof_H 	H 	0.5738	0.9089	0.6209	-0.031
Mof_C 	C 	0.538	0.8763	0.629	-0.446
Mof_H 	H 	0.5496	0.8577	0.6227	-0.349
Mof_H 	H 	0.5247	0.8708	0.6467	0.055
Mof_C 	C 	0.5176	0.8883	0.6013	-1.918
Mof_H 	H 	0.5093	0.9089	0.6064	0.518
Mof_H 	H 	0.4999	0.8742	0.5983	0.533
Mof_C 	C 	0.5364	0.8903	0.5706	0.689
Mof_H 	H 	0.5231	0.8977	0.554	-0.219
Mof_H 	H 	0.5443	0.8698	0.5653	1.263
Mof_H 	H 	0.5537	0.9045	0.5733	-0.716
Mof_N 	N 	0.61119	0.88112	0.6609	-0.254
Mof_N 	N 	0.57414	0.89206	0.69531	-0.14
Mof_O 	O 	0.62671	0.84916	0.8194	-0.386
Mof_O 	O 	0.60118	0.89259	0.81055	-0.389
Mof_O 	O 	0.59183	0.05117	0.70515	-0.522
Mof_H 	H 	0.5974	0.0696	0.7019	0.331
Mof_O 	O 	0.54078	0.06103	0.70711	-0.3
Mof_H 	H 	0.6311	0.8167	0.7667	0.047
Mof_H 	H 	0.6343	0.8317	0.7337	-0.006
Mof_C 	C 	0.6724	0.8396	0.7605	0.025
Mof_C 	C 	0.6944	0.8201	0.7712	-0.033
Mof_H 	H 	0.6905	0.7996	0.7775	0.048
Mof_C 	C 	0.726	0.8352	0.7717	-0.015
Mof_H 	H 	0.7442	0.8252	0.7786	-0.005
Mof_C 	C 	0.7254	0.8647	0.7611	-0.022
Mof_H 	H 	0.7428	0.8777	0.7595	-0.042
Mof_S 	S 	0.68822	0.87523	0.75103	-0.049
Mof_H 	H 	0.542	0.9109	0.6474	0.141
Mof_H 	H 	0.5713	0.9199	0.6278	0.073
Mof_C 	C 	0.5514	0.8767	0.6153	0.029
Mof_H 	H 	0.5698	0.8652	0.6084	-0.014
Mof_H 	H 	0.5373	0.8621	0.6255	0.595
Mof_C 	C 	0.5348	0.8923	0.5866	1.84
Mof_H 	H 	0.5491	0.907	0.5766	-0.045
Mof_H 	H 	0.5166	0.904	0.5937	-0.065
Mof_C 	C 	0.5245	0.8674	0.5627	-5.683
Mof_H 	H 	0.5143	0.8774	0.5452	1.75
Mof_H 	H 	0.5101	0.853	0.5725	1.718
Mof_H 	H 	0.5426	0.8561	0.5553	0.93
Mof_C 	C 	0.1148	0.36829	0.30009	0.286
Mof_C 	C 	0.11715	0.36206	0.26579	-0.01
Mof_C 	C 	0.1377	0.33527	0.25572	-0.136
Mof_H 	H 	0.1349	0.3178	0.2697	0.015
Mof_H 	H 	0.1319	0.3288	0.2349	0.024
Mof_C 	C 	0.17172	0.3456	0.2562	0.022
Mof_C 	C 	0.1835	0.3741	0.2507	-0.03
Mof_H 	H 	0.1712	0.3915	0.2457	0.065
Mof_C 	C 	0.2183	0.375	0.2533	-0.007
Mof_H 	H 	0.2304	0.3929	0.2502	0.011
Mof_C 	C 	0.2302	0.3472	0.2607	-0.023
Mof_H 	H 	0.2515	0.3433	0.2635	-0.037
Mof_S 	S 	0.20123	0.31945	0.2646	-0.055
Mof_C 	C 	0.10007	0.38018	0.24652	-0.12
Mof_H 	H 	0.0868	0.3946	0.2562	0.098
Mof_C 	C 	0.09969	0.38016	0.21264	0.079
Mof_C 	C 	0.12212	0.37371	0.19055	-0.086
Mof_H 	H 	0.1419	0.3655	0.1949	0.051
Mof_C 	C 	0.08201	0.39246	0.1646	0.103
Mof_C 	C 	0.04624	0.4076	0.2083	-0.02
Mof_C 	C 	0.05104	0.44283	0.20929	0.102
Mof_C 	C 	0.08087	0.45626	0.20889	-0.16
Mof_H 	H 	0.0985	0.4433	0.2088	0.11
Mof_C 	C 	0.08461	0.4883	0.20861	0.101
Mof_H 	H 	0.1047	0.4969	0.2083	0.029
Mof_C 	C 	0.05872	0.50784	0.20883	-0.174
Mof_C 	C 	0.02899	0.49464	0.21012	0.092
Mof_H 	H 	0.0114	0.5076	0.2111	-0.02
Mof_C 	C 	0.02529	0.46268	0.20996	-0.168
Mof_H 	H 	0.0052	0.4542	0.2103	0.058
Mof_C 	C 	0.06265	0.54225	0.20684	0.433
Mof_C 	C 	0.06112	0.40282	0.13852	-0.094
Mof_H 	H 	0.0493	0.4209	0.1452	-0.081
Mof_H 	H 	0.0738	0.4089	0.1209	-0.031
Mof_C 	C 	0.038	0.3763	0.129	-0.446
Mof_H 	H 	0.0496	0.3577	0.1227	-0.349
Mof_H 	H 	0.0247	0.3708	0.1467	0.055
Mof_C 	C 	0.0176	0.3883	0.1013	-1.918
Mof_H 	H 	0.0093	0.4089	0.1064	0.518
Mof_H 	H 	0.9999	0.3742	0.0983	0.533
Mof_C 	C 	0.0364	0.3903	0.0706	0.689
Mof_H 	H 	0.0231	0.3977	0.054	-0.219
Mof_H 	H 	0.0443	0.3698	0.0653	1.263
Mof_H 	H 	0.0537	0.4045	0.0733	-0.716
Mof_N 	N 	0.11119	0.38112	0.1609	-0.254
Mof_N 	N 	0.07414	0.39206	0.19531	-0.14
Mof_O 	O 	0.12671	0.34916	0.3194	-0.386
Mof_O 	O 	0.10118	0.39259	0.31055	-0.389
Mof_O 	O 	0.09183	0.55117	0.20515	-0.522
Mof_H 	H 	0.0974	0.5696	0.2019	0.331
Mof_O 	O 	0.04078	0.56103	0.20711	-0.3
Mof_H 	H 	0.1311	0.3167	0.2667	0.047
Mof_H 	H 	0.1343	0.3317	0.2337	-0.006
Mof_C 	C 	0.1724	0.3396	0.2605	0.025
Mof_C 	C 	0.1944	0.3201	0.2712	-0.033
Mof_H 	H 	0.1905	0.2996	0.2775	0.048
Mof_C 	C 	0.226	0.3352	0.2717	-0.015
Mof_H 	H 	0.2442	0.3252	0.2786	-0.005
Mof_C 	C 	0.2254	0.3647	0.2611	-0.022
Mof_H 	H 	0.2428	0.3777	0.2595	-0.042
Mof_S 	S 	0.18822	0.37523	0.25103	-0.049
Mof_H 	H 	0.042	0.4109	0.1474	0.141
Mof_H 	H 	0.0713	0.4199	0.1278	0.073
Mof_C 	C 	0.0514	0.3767	0.1153	0.029
Mof_H 	H 	0.0698	0.3652	0.1084	-0.014
Mof_H 	H 	0.0373	0.3621	0.1255	0.595
Mof_C 	C 	0.0348	0.3923	0.0866	1.84
Mof_H 	H 	0.0491	0.407	0.0766	-0.045
Mof_H 	H 	0.0166	0.404	0.0937	-0.065
Mof_C 	C 	0.0245	0.3674	0.0627	-5.683
Mof_H 	H 	0.0143	0.3774	0.0452	1.75
Mof_H 	H 	0.0101	0.353	0.0725	1.718
Mof_H 	H 	0.0426	0.3561	0.0553	0.93
Mof_C 	C 	0.86829	0.80009	0.6148	0.286
Mof_C 	C 	0.86206	0.76579	0.61715	-0.01
Mof_C 	C 	0.83527	0.75572	0.6377	-0.136
Mof_H 	H 	0.8178	0.7697	0.6349	0.015
Mof_H 	H 	0.8288	0.7349	0.6319	0.024
Mof_C 	C 	0.8456	0.7562	0.67172	0.022
Mof_C 	C 	0.8741	0.7507	0.6835	-0.03
Mof_H 	H 	0.8915	0.7457	0.6712	0.065
Mof_C 	C 	0.875	0.7533	0.7183	-0.007
Mof_H 	H 	0.8929	0.7502	0.7304	0.011
Mof_C 	C 	0.8472	0.7607	0.7302	-0.023
Mof_H 	H 	0.8433	0.7635	0.7515	-0.037
Mof_S 	S 	0.81945	0.7646	0.70123	-0.055
Mof_C 	C 	0.88018	0.74652	0.60007	-0.12
Mof_H 	H 	0.8946	0.7562	0.5868	0.098
Mof_C 	C 	0.88016	0.71264	0.59969	0.079
Mof_C 	C 	0.87371	0.69055	0.62212	-0.086
Mof_H 	H 	0.8655	0.6949	0.6419	0.051
Mof_C 	C 	0.89246	0.6646	0.58201	0.103
Mof_C 	C 	0.9076	0.7083	0.54624	-0.02
Mof_C 	C 	0.94283	0.70929	0.55104	0.102
Mof_C 	C 	0.95626	0.70889	0.58087	-0.16
Mof_H 	H 	0.9433	0.7088	0.5985	0.11
Mof_C 	C 	0.9883	0.70861	0.58461	0.101
Mof_H 	H 	0.9969	0.7083	0.6047	0.029
Mof_C 	C 	0.00784	0.70883	0.55872	-0.174
Mof_C 	C 	0.99464	0.71012	0.52899	0.092
Mof_H 	H 	0.0076	0.7111	0.5114	-0.02
Mof_C 	C 	0.96268	0.70996	0.52529	-0.168
Mof_H 	H 	0.9542	0.7103	0.5052	0.058
Mof_C 	C 	0.04225	0.70684	0.56265	0.433
Mof_C 	C 	0.90282	0.63852	0.56112	-0.094
Mof_H 	H 	0.9209	0.6452	0.5493	-0.081
Mof_H 	H 	0.9089	0.6209	0.5738	-0.031
Mof_C 	C 	0.8763	0.629	0.538	-0.446
Mof_H 	H 	0.8577	0.6227	0.5496	-0.349
Mof_H 	H 	0.8708	0.6467	0.5247	0.055
Mof_C 	C 	0.8883	0.6013	0.5176	-1.918
Mof_H 	H 	0.9089	0.6064	0.5093	0.518
Mof_H 	H 	0.8742	0.5983	0.4999	0.533
Mof_C 	C 	0.8903	0.5706	0.5364	0.689
Mof_H 	H 	0.8977	0.554	0.5231	-0.219
Mof_H 	H 	0.8698	0.5653	0.5443	1.263
Mof_H 	H 	0.9045	0.5733	0.5537	-0.716
Mof_N 	N 	0.88112	0.6609	0.61119	-0.254
Mof_N 	N 	0.89206	0.69531	0.57414	-0.14
Mof_O 	O 	0.84916	0.8194	0.62671	-0.386
Mof_O 	O 	0.89259	0.81055	0.60118	-0.389
Mof_O 	O 	0.05117	0.70515	0.59183	-0.522
Mof_H 	H 	0.0696	0.7019	0.5974	0.331
Mof_O 	O 	0.06103	0.70711	0.54078	-0.3
Mof_H 	H 	0.8167	0.7667	0.6311	0.047
Mof_H 	H 	0.8317	0.7337	0.6343	-0.006
Mof_C 	C 	0.8396	0.7605	0.6724	0.025
Mof_C 	C 	0.8201	0.7712	0.6944	-0.033
Mof_H 	H 	0.7996	0.7775	0.6905	0.048
Mof_C 	C 	0.8352	0.7717	0.726	-0.015
Mof_H 	H 	0.8252	0.7786	0.7442	-0.005
Mof_C 	C 	0.8647	0.7611	0.7254	-0.022
Mof_H 	H 	0.8777	0.7595	0.7428	-0.042
Mof_S 	S 	0.87523	0.75103	0.68822	-0.049
Mof_H 	H 	0.9109	0.6474	0.542	0.141
Mof_H 	H 	0.9199	0.6278	0.5713	0.073
Mof_C 	C 	0.8767	0.6153	0.5514	0.029
Mof_H 	H 	0.8652	0.6084	0.5698	-0.014
Mof_H 	H 	0.8621	0.6255	0.5373	0.595
Mof_C 	C 	0.8923	0.5866	0.5348	1.84
Mof_H 	H 	0.907	0.5766	0.5491	-0.045
Mof_H 	H 	0.904	0.5937	0.5166	-0.065
Mof_C 	C 	0.8674	0.5627	0.5245	-5.683
Mof_H 	H 	0.8774	0.5452	0.5143	1.75
Mof_H 	H 	0.853	0.5725	0.5101	1.718
Mof_H 	H 	0.8561	0.5553	0.5426	0.93
Mof_C 	C 	0.36829	0.30009	0.1148	0.286
Mof_C 	C 	0.36206	0.26579	0.11715	-0.01
Mof_C 	C 	0.33527	0.25572	0.1377	-0.136
Mof_H 	H 	0.3178	0.2697	0.1349	0.015
Mof_H 	H 	0.3288	0.2349	0.1319	0.024
Mof_C 	C 	0.3456	0.2562	0.17172	0.022
Mof_C 	C 	0.3741	0.2507	0.1835	-0.03
Mof_H 	H 	0.3915	0.2457	0.1712	0.065
Mof_C 	C 	0.375	0.2533	0.2183	-0.007
Mof_H 	H 	0.3929	0.2502	0.2304	0.011
Mof_C 	C 	0.3472	0.2607	0.2302	-0.023
Mof_H 	H 	0.3433	0.2635	0.2515	-0.037
Mof_S 	S 	0.31945	0.2646	0.20123	-0.055
Mof_C 	C 	0.38018	0.24652	0.10007	-0.12
Mof_H 	H 	0.3946	0.2562	0.0868	0.098
Mof_C 	C 	0.38016	0.21264	0.09969	0.079
Mof_C 	C 	0.37371	0.19055	0.12212	-0.086
Mof_H 	H 	0.3655	0.1949	0.1419	0.051
Mof_C 	C 	0.39246	0.1646	0.08201	0.103
Mof_C 	C 	0.4076	0.2083	0.04624	-0.02
Mof_C 	C 	0.44283	0.20929	0.05104	0.102
Mof_C 	C 	0.45626	0.20889	0.08087	-0.16
Mof_H 	H 	0.4433	0.2088	0.0985	0.11
Mof_C 	C 	0.4883	0.20861	0.08461	0.101
Mof_H 	H 	0.4969	0.2083	0.1047	0.029
Mof_C 	C 	0.50784	0.20883	0.05872	-0.174
Mof_C 	C 	0.49464	0.21012	0.02899	0.092
Mof_H 	H 	0.5076	0.2111	0.0114	-0.02
Mof_C 	C 	0.46268	0.20996	0.02529	-0.168
Mof_H 	H 	0.4542	0.2103	0.0052	0.058
Mof_C 	C 	0.54225	0.20684	0.06265	0.433
Mof_C 	C 	0.40282	0.13852	0.06112	-0.094
Mof_H 	H 	0.4209	0.1452	0.0493	-0.081
Mof_H 	H 	0.4089	0.1209	0.0738	-0.031
Mof_C 	C 	0.3763	0.129	0.038	-0.446
Mof_H 	H 	0.3577	0.1227	0.0496	-0.349
Mof_H 	H 	0.3708	0.1467	0.0247	0.055
Mof_C 	C 	0.3883	0.1013	0.0176	-1.918
Mof_H 	H 	0.4089	0.1064	0.0093	0.518
Mof_H 	H 	0.3742	0.0983	0.9999	0.533
Mof_C 	C 	0.3903	0.0706	0.0364	0.689
Mof_H 	H 	0.3977	0.054	0.0231	-0.219
Mof_H 	H 	0.3698	0.0653	0.0443	1.263
Mof_H 	H 	0.4045	0.0733	0.0537	-0.716
Mof_N 	N 	0.38112	0.1609	0.11119	-0.254
Mof_N 	N 	0.39206	0.19531	0.07414	-0.14
Mof_O 	O 	0.34916	0.3194	0.12671	-0.386
Mof_O 	O 	0.39259	0.31055	0.10118	-0.389
Mof_O 	O 	0.55117	0.20515	0.09183	-0.522
Mof_H 	H 	0.5696	0.2019	0.0974	0.331
Mof_O 	O 	0.56103	0.20711	0.04078	-0.3
Mof_H 	H 	0.3167	0.2667	0.1311	0.047
Mof_H 	H 	0.3317	0.2337	0.1343	-0.006
Mof_C 	C 	0.3396	0.2605	0.1724	0.025
Mof_C 	C 	0.3201	0.2712	0.1944	-0.033
Mof_H 	H 	0.2996	0.2775	0.1905	0.048
Mof_C 	C 	0.3352	0.2717	0.226	-0.015
Mof_H 	H 	0.3252	0.2786	0.2442	-0.005
Mof_C 	C 	0.3647	0.2611	0.2254	-0.022
Mof_H 	H 	0.3777	0.2595	0.2428	-0.042
Mof_S 	S 	0.37523	0.25103	0.18822	-0.049
Mof_H 	H 	0.4109	0.1474	0.042	0.141
Mof_H 	H 	0.4199	0.1278	0.0713	0.073
Mof_C 	C 	0.3767	0.1153	0.0514	0.029
Mof_H 	H 	0.3652	0.1084	0.0698	-0.014
Mof_H 	H 	0.3621	0.1255	0.0373	0.595
Mof_C 	C 	0.3923	0.0866	0.0348	1.84
Mof_H 	H 	0.407	0.0766	0.0491	-0.045
Mof_H 	H 	0.404	0.0937	0.0166	-0.065
Mof_C 	C 	0.3674	0.0627	0.0245	-5.683
Mof_H 	H 	0.3774	0.0452	0.0143	1.75
Mof_H 	H 	0.353	0.0725	0.0101	1.718
Mof_H 	H 	0.3561	0.0553	0.0426	0.93
Mof_C 	C 	0.13171	0.30009	0.8852	0.286
Mof_C 	C 	0.13794	0.26579	0.88285	-0.01
Mof_C 	C 	0.16473	0.25572	0.8623	-0.136
Mof_H 	H 	0.1822	0.2697	0.8651	0.015
Mof_H 	H 	0.1712	0.2349	0.8681	0.024
Mof_C 	C 	0.1544	0.2562	0.82828	0.022
Mof_C 	C 	0.1259	0.2507	0.8165	-0.03
Mof_H 	H 	0.1085	0.2457	0.8288	0.065
Mof_C 	C 	0.125	0.2533	0.7817	-0.007
Mof_H 	H 	0.1071	0.2502	0.7696	0.011
Mof_C 	C 	0.1528	0.2607	0.7698	-0.023
Mof_H 	H 	0.1567	0.2635	0.7485	-0.037
Mof_S 	S 	0.18055	0.2646	0.79877	-0.055
Mof_C 	C 	0.11982	0.24652	0.89993	-0.12
Mof_H 	H 	0.1054	0.2562	0.9132	0.098
Mof_C 	C 	0.11984	0.21264	0.90031	0.079
Mof_C 	C 	0.12629	0.19055	0.87788	-0.086
Mof_H 	H 	0.1345	0.1949	0.8581	0.051
Mof_C 	C 	0.10754	0.1646	0.91799	0.103
Mof_C 	C 	0.0924	0.2083	0.95376	-0.02
Mof_C 	C 	0.05717	0.20929	0.94896	0.102
Mof_C 	C 	0.04374	0.20889	0.91913	-0.16
Mof_H 	H 	0.0567	0.2088	0.9015	0.11
Mof_C 	C 	0.0117	0.20861	0.91539	0.101
Mof_H 	H 	0.0031	0.2083	0.8953	0.029
Mof_C 	C 	0.99216	0.20883	0.94128	-0.174
Mof_C 	C 	0.00536	0.21012	0.97101	0.092
Mof_H 	H 	0.9924	0.2111	0.9886	-0.02
Mof_C 	C 	0.03732	0.20996	0.97471	-0.168
Mof_H 	H 	0.0458	0.2103	0.9948	0.058
Mof_C 	C 	0.95775	0.20684	0.93735	0.433
Mof_C 	C 	0.09718	0.13852	0.93888	-0.094
Mof_H 	H 	0.0791	0.1452	0.9507	-0.081
Mof_H 	H 	0.0911	0.1209	0.9262	-0.031
Mof_C 	C 	0.1237	0.129	0.962	-0.446
Mof_H 	H 	0.1423	0.1227	0.9504	-0.349
Mof_H 	H 	0.1292	0.1467	0.9753	0.055
Mof_C 	C 	0.1117	0.1013	0.9824	-1.918
Mof_H 	H 	0.0911	0.1064	0.9907	0.518
Mof_H 	H 	0.1258	0.0983	0.0001	0.533
Mof_C 	C 	0.1097	0.0706	0.9636	0.689
Mof_H 	H 	0.1023	0.054	0.9769	-0.219
Mof_H 	H 	0.1302	0.0653	0.9557	1.263
Mof_H 	H 	0.0955	0.0733	0.9463	-0.716
Mof_N 	N 	0.11888	0.1609	0.88881	-0.254
Mof_N 	N 	0.10794	0.19531	0.92586	-0.14
Mof_O 	O 	0.15084	0.3194	0.87329	-0.386
Mof_O 	O 	0.10741	0.31055	0.89882	-0.389
Mof_O 	O 	0.94883	0.20515	0.90817	-0.522
Mof_H 	H 	0.9304	0.2019	0.9026	0.331
Mof_O 	O 	0.93897	0.20711	0.95922	-0.3
Mof_H 	H 	0.1833	0.2667	0.8689	0.047
Mof_H 	H 	0.1683	0.2337	0.8657	-0.006
Mof_C 	C 	0.1604	0.2605	0.8276	0.025
Mof_C 	C 	0.1799	0.2712	0.8056	-0.033
Mof_H 	H 	0.2004	0.2775	0.8095	0.048
Mof_C 	C 	0.1648	0.2717	0.774	-0.015
Mof_H 	H 	0.1748	0.2786	0.7558	-0.005
Mof_C 	C 	0.1353	0.2611	0.7746	-0.022
Mof_H 	H 	0.1223	0.2595	0.7572	-0.042
Mof_S 	S 	0.12477	0.25103	0.81178	-0.049
Mof_H 	H 	0.0891	0.1474	0.958	0.141
Mof_H 	H 	0.0801	0.1278	0.9287	0.073
Mof_C 	C 	0.1233	0.1153	0.9486	0.029
Mof_H 	H 	0.1348	0.1084	0.9302	-0.014
Mof_H 	H 	0.1379	0.1255	0.9627	0.595
Mof_C 	C 	0.1077	0.0866	0.9652	1.84
Mof_H 	H 	0.093	0.0766	0.9509	-0.045
Mof_H 	H 	0.096	0.0937	0.9834	-0.065
Mof_C 	C 	0.1326	0.0627	0.9755	-5.683
Mof_H 	H 	0.1226	0.0452	0.9857	1.75
Mof_H 	H 	0.147	0.0725	0.9899	1.718
Mof_H 	H 	0.1439	0.0553	0.9574	0.93
Mof_C 	C 	0.63171	0.80009	0.3852	0.286
Mof_C 	C 	0.63794	0.76579	0.38285	-0.01
Mof_C 	C 	0.66473	0.75572	0.3623	-0.136
Mof_H 	H 	0.6822	0.7697	0.3651	0.015
Mof_H 	H 	0.6712	0.7349	0.3681	0.024
Mof_C 	C 	0.6544	0.7562	0.32828	0.022
Mof_C 	C 	0.6259	0.7507	0.3165	-0.03
Mof_H 	H 	0.6085	0.7457	0.3288	0.065
Mof_C 	C 	0.625	0.7533	0.2817	-0.007
Mof_H 	H 	0.6071	0.7502	0.2696	0.011
Mof_C 	C 	0.6528	0.7607	0.2698	-0.023
Mof_H 	H 	0.6567	0.7635	0.2485	-0.037
Mof_S 	S 	0.68055	0.7646	0.29877	-0.055
Mof_C 	C 	0.61982	0.74652	0.39993	-0.12
Mof_H 	H 	0.6054	0.7562	0.4132	0.098
Mof_C 	C 	0.61984	0.71264	0.40031	0.079
Mof_C 	C 	0.62629	0.69055	0.37788	-0.086
Mof_H 	H 	0.6345	0.6949	0.3581	0.051
Mof_C 	C 	0.60754	0.6646	0.41799	0.103
Mof_C 	C 	0.5924	0.7083	0.45376	-0.02
Mof_C 	C 	0.55717	0.70929	0.44896	0.102
Mof_C 	C 	0.54374	0.70889	0.41913	-0.16
Mof_H 	H 	0.5567	0.7088	0.4015	0.11
Mof_C 	C 	0.5117	0.70861	0.41539	0.101
Mof_H 	H 	0.5031	0.7083	0.3953	0.029
Mof_C 	C 	0.49216	0.70883	0.44128	-0.175
Mof_C 	C 	0.50536	0.71012	0.47101	0.092
Mof_H 	H 	0.4924	0.7111	0.4886	-0.02
Mof_C 	C 	0.53732	0.70996	0.47471	-0.168
Mof_H 	H 	0.5458	0.7103	0.4948	0.058
Mof_C 	C 	0.45775	0.70684	0.43735	0.433
Mof_C 	C 	0.59718	0.63852	0.43888	-0.094
Mof_H 	H 	0.5791	0.6452	0.4507	-0.081
Mof_H 	H 	0.5911	0.6209	0.4262	-0.031
Mof_C 	C 	0.6237	0.629	0.462	-0.446
Mof_H 	H 	0.6423	0.6227	0.4504	-0.349
Mof_H 	H 	0.6292	0.6467	0.4753	0.055
Mof_C 	C 	0.6117	0.6013	0.4824	-1.918
Mof_H 	H 	0.5911	0.6064	0.4907	0.518
Mof_H 	H 	0.6258	0.5983	0.5001	0.533
Mof_C 	C 	0.6097	0.5706	0.4636	0.689
Mof_H 	H 	0.6023	0.554	0.4769	-0.219
Mof_H 	H 	0.6302	0.5653	0.4557	1.263
Mof_H 	H 	0.5955	0.5733	0.4463	-0.716
Mof_N 	N 	0.61888	0.6609	0.38881	-0.254
Mof_N 	N 	0.60794	0.69531	0.42586	-0.14
Mof_O 	O 	0.65084	0.8194	0.37329	-0.386
Mof_O 	O 	0.60741	0.81055	0.39882	-0.389
Mof_O 	O 	0.44883	0.70515	0.40817	-0.522
Mof_H 	H 	0.4304	0.7019	0.4026	0.331
Mof_O 	O 	0.43897	0.70711	0.45922	-0.3
Mof_H 	H 	0.6833	0.7667	0.3689	0.047
Mof_H 	H 	0.6683	0.7337	0.3657	-0.006
Mof_C 	C 	0.6604	0.7605	0.3276	0.025
Mof_C 	C 	0.6799	0.7712	0.3056	-0.033
Mof_H 	H 	0.7004	0.7775	0.3095	0.048
Mof_C 	C 	0.6648	0.7717	0.274	-0.015
Mof_H 	H 	0.6748	0.7786	0.2558	-0.005
Mof_C 	C 	0.6353	0.7611	0.2746	-0.022
Mof_H 	H 	0.6223	0.7595	0.2572	-0.042
Mof_S 	S 	0.62477	0.75103	0.31178	-0.049
Mof_H 	H 	0.5891	0.6474	0.458	0.141
Mof_H 	H 	0.5801	0.6278	0.4287	0.073
Mof_C 	C 	0.6233	0.6153	0.4486	0.029
Mof_H 	H 	0.6348	0.6084	0.4302	-0.014
Mof_H 	H 	0.6379	0.6255	0.4627	0.595
Mof_C 	C 	0.6077	0.5866	0.4652	1.84
Mof_H 	H 	0.593	0.5766	0.4509	-0.045
Mof_H 	H 	0.596	0.5937	0.4834	-0.065
Mof_C 	C 	0.6326	0.5627	0.4755	-5.683
Mof_H 	H 	0.6226	0.5452	0.4857	1.75
Mof_H 	H 	0.647	0.5725	0.4899	1.718
Mof_H 	H 	0.6439	0.5553	0.4574	0.93
Mof_C 	C 	0.63171	0.19991	0.1148	0.286
Mof_C 	C 	0.63794	0.23421	0.11715	-0.01
Mof_C 	C 	0.66473	0.24428	0.1377	-0.136
Mof_H 	H 	0.6822	0.2303	0.1349	0.015
Mof_H 	H 	0.6712	0.2651	0.1319	0.024
Mof_C 	C 	0.6544	0.2438	0.17172	0.022
Mof_C 	C 	0.6259	0.2493	0.1835	-0.03
Mof_H 	H 	0.6085	0.2543	0.1712	0.065
Mof_C 	C 	0.625	0.2467	0.2183	-0.007
Mof_H 	H 	0.6071	0.2498	0.2304	0.011
Mof_C 	C 	0.6528	0.2393	0.2302	-0.023
Mof_H 	H 	0.6567	0.2365	0.2515	-0.037
Mof_S 	S 	0.68055	0.2354	0.20123	-0.055
Mof_C 	C 	0.61982	0.25348	0.10007	-0.12
Mof_H 	H 	0.6054	0.2438	0.0868	0.098
Mof_C 	C 	0.61984	0.28736	0.09969	0.079
Mof_C 	C 	0.62629	0.30945	0.12212	-0.086
Mof_H 	H 	0.6345	0.3051	0.1419	0.051
Mof_C 	C 	0.60754	0.3354	0.08201	0.103
Mof_C 	C 	0.5924	0.2917	0.04624	-0.02
Mof_C 	C 	0.55717	0.29071	0.05104	0.102
Mof_C 	C 	0.54374	0.29111	0.08087	-0.16
Mof_H 	H 	0.5567	0.2912	0.0985	0.11
Mof_C 	C 	0.5117	0.29139	0.08461	0.101
Mof_H 	H 	0.5031	0.2917	0.1047	0.029
Mof_C 	C 	0.49216	0.29117	0.05872	-0.174
Mof_C 	C 	0.50536	0.28988	0.02899	0.092
Mof_H 	H 	0.4924	0.2889	0.0114	-0.02
Mof_C 	C 	0.53732	0.29004	0.02529	-0.168
Mof_H 	H 	0.5458	0.2897	0.0052	0.058
Mof_C 	C 	0.45775	0.29316	0.06265	0.433
Mof_C 	C 	0.59718	0.36148	0.06112	-0.094
Mof_H 	H 	0.5791	0.3548	0.0493	-0.081
Mof_H 	H 	0.5911	0.3791	0.0738	-0.031
Mof_C 	C 	0.6237	0.371	0.038	-0.446
Mof_H 	H 	0.6423	0.3773	0.0496	-0.349
Mof_H 	H 	0.6292	0.3533	0.0247	0.055
Mof_C 	C 	0.6117	0.3987	0.0176	-1.918
Mof_H 	H 	0.5911	0.3936	0.0093	0.518
Mof_H 	H 	0.6258	0.4017	0.9999	0.533
Mof_C 	C 	0.6097	0.4294	0.0364	0.689
Mof_H 	H 	0.6023	0.446	0.0231	-0.219
Mof_H 	H 	0.6302	0.4347	0.0443	1.263
Mof_H 	H 	0.5955	0.4267	0.0537	-0.716
Mof_N 	N 	0.61888	0.3391	0.11119	-0.254
Mof_N 	N 	0.60794	0.30469	0.07414	-0.14
Mof_O 	O 	0.65084	0.1806	0.12671	-0.386
Mof_O 	O 	0.60741	0.18945	0.10118	-0.389
Mof_O 	O 	0.44883	0.29485	0.09183	-0.522
Mof_H 	H 	0.4304	0.2981	0.0974	0.331
Mof_O 	O 	0.43897	0.29289	0.04078	-0.3
Mof_H 	H 	0.6833	0.2333	0.1311	0.047
Mof_H 	H 	0.6683	0.2663	0.1343	-0.006
Mof_C 	C 	0.6604	0.2395	0.1724	0.025
Mof_C 	C 	0.6799	0.2288	0.1944	-0.033
Mof_H 	H 	0.7004	0.2225	0.1905	0.048
Mof_C 	C 	0.6648	0.2283	0.226	-0.015
Mof_H 	H 	0.6748	0.2214	0.2442	-0.005
Mof_C 	C 	0.6353	0.2389	0.2254	-0.022
Mof_H 	H 	0.6223	0.2405	0.2428	-0.042
Mof_S 	S 	0.62477	0.24897	0.18822	-0.049
Mof_H 	H 	0.5891	0.3526	0.042	0.141
Mof_H 	H 	0.5801	0.3722	0.0713	0.073
Mof_C 	C 	0.6233	0.3847	0.0514	0.029
Mof_H 	H 	0.6348	0.3916	0.0698	-0.014
Mof_H 	H 	0.6379	0.3745	0.0373	0.595
Mof_C 	C 	0.6077	0.4134	0.0348	1.84
Mof_H 	H 	0.593	0.4234	0.0491	-0.045
Mof_H 	H 	0.596	0.4063	0.0166	-0.065
Mof_C 	C 	0.6326	0.4373	0.0245	-5.683
Mof_H 	H 	0.6226	0.4548	0.0143	1.75
Mof_H 	H 	0.647	0.4275	0.0101	1.718
Mof_H 	H 	0.6439	0.4447	0.0426	0.93
Mof_C 	C 	0.13171	0.69991	0.6148	0.286
Mof_C 	C 	0.13794	0.73421	0.61715	-0.01
Mof_C 	C 	0.16473	0.74428	0.6377	-0.136
Mof_H 	H 	0.1822	0.7303	0.6349	0.015
Mof_H 	H 	0.1712	0.7651	0.6319	0.024
Mof_C 	C 	0.1544	0.7438	0.67172	0.022
Mof_C 	C 	0.1259	0.7493	0.6835	-0.03
Mof_H 	H 	0.1085	0.7543	0.6712	0.065
Mof_C 	C 	0.125	0.7467	0.7183	-0.007
Mof_H 	H 	0.1071	0.7498	0.7304	0.011
Mof_C 	C 	0.1528	0.7393	0.7302	-0.023
Mof_H 	H 	0.1567	0.7365	0.7515	-0.037
Mof_S 	S 	0.18055	0.7354	0.70123	-0.055
Mof_C 	C 	0.11982	0.75348	0.60007	-0.12
Mof_H 	H 	0.1054	0.7438	0.5868	0.098
Mof_C 	C 	0.11984	0.78736	0.59969	0.079
Mof_C 	C 	0.12629	0.80945	0.62212	-0.086
Mof_H 	H 	0.1345	0.8051	0.6419	0.051
Mof_C 	C 	0.10754	0.8354	0.58201	0.103
Mof_C 	C 	0.0924	0.7917	0.54624	-0.02
Mof_C 	C 	0.05717	0.79071	0.55104	0.102
Mof_C 	C 	0.04374	0.79111	0.58087	-0.16
Mof_H 	H 	0.0567	0.7912	0.5985	0.11
Mof_C 	C 	0.0117	0.79139	0.58461	0.101
Mof_H 	H 	0.0031	0.7917	0.6047	0.029
Mof_C 	C 	0.99216	0.79117	0.55872	-0.174
Mof_C 	C 	0.00536	0.78988	0.52899	0.092
Mof_H 	H 	0.9924	0.7889	0.5114	-0.02
Mof_C 	C 	0.03732	0.79004	0.52529	-0.168
Mof_H 	H 	0.0458	0.7897	0.5052	0.058
Mof_C 	C 	0.95775	0.79316	0.56265	0.433
Mof_C 	C 	0.09718	0.86148	0.56112	-0.094
Mof_H 	H 	0.0791	0.8548	0.5493	-0.081
Mof_H 	H 	0.0911	0.8791	0.5738	-0.031
Mof_C 	C 	0.1237	0.871	0.538	-0.446
Mof_H 	H 	0.1423	0.8773	0.5496	-0.349
Mof_H 	H 	0.1292	0.8533	0.5247	0.055
Mof_C 	C 	0.1117	0.8987	0.5176	-1.918
Mof_H 	H 	0.0911	0.8936	0.5093	0.518
Mof_H 	H 	0.1258	0.9017	0.4999	0.533
Mof_C 	C 	0.1097	0.9294	0.5364	0.689
Mof_H 	H 	0.1023	0.946	0.5231	-0.219
Mof_H 	H 	0.1302	0.9347	0.5443	1.263
Mof_H 	H 	0.0955	0.9267	0.5537	-0.716
Mof_N 	N 	0.11888	0.8391	0.61119	-0.254
Mof_N 	N 	0.10794	0.80469	0.57414	-0.14
Mof_O 	O 	0.15084	0.6806	0.62671	-0.386
Mof_O 	O 	0.10741	0.68945	0.60118	-0.389
Mof_O 	O 	0.94883	0.79485	0.59183	-0.522
Mof_H 	H 	0.9304	0.7981	0.5974	0.331
Mof_O 	O 	0.93897	0.79289	0.54078	-0.3
Mof_H 	H 	0.1833	0.7333	0.6311	0.047
Mof_H 	H 	0.1683	0.7663	0.6343	-0.006
Mof_C 	C 	0.1604	0.7395	0.6724	0.025
Mof_C 	C 	0.1799	0.7288	0.6944	-0.033
Mof_H 	H 	0.2004	0.7225	0.6905	0.048
Mof_C 	C 	0.1648	0.7283	0.726	-0.015
Mof_H 	H 	0.1748	0.7214	0.7442	-0.005
Mof_C 	C 	0.1353	0.7389	0.7254	-0.022
Mof_H 	H 	0.1223	0.7405	0.7428	-0.042
Mof_S 	S 	0.12477	0.74897	0.68822	-0.049
Mof_H 	H 	0.0891	0.8526	0.542	0.141
Mof_H 	H 	0.0801	0.8722	0.5713	0.073
Mof_C 	C 	0.1233	0.8847	0.5514	0.029
Mof_H 	H 	0.1348	0.8916	0.5698	-0.014
Mof_H 	H 	0.1379	0.8745	0.5373	0.595
Mof_C 	C 	0.1077	0.9134	0.5348	1.84
Mof_H 	H 	0.093	0.9234	0.5491	-0.045
Mof_H 	H 	0.096	0.9063	0.5166	-0.065
Mof_C 	C 	0.1326	0.9373	0.5245	-5.683
Mof_H 	H 	0.1226	0.9548	0.5143	1.75
Mof_H 	H 	0.147	0.9275	0.5101	1.718
Mof_H 	H 	0.1439	0.9447	0.5426	0.93
Mof_C 	C 	0.36829	0.69991	0.3852	0.286
Mof_C 	C 	0.36206	0.73421	0.38285	-0.01
Mof_C 	C 	0.33527	0.74428	0.3623	-0.136
Mof_H 	H 	0.3178	0.7303	0.3651	0.015
Mof_H 	H 	0.3288	0.7651	0.3681	0.024
Mof_C 	C 	0.3456	0.7438	0.32828	0.022
Mof_C 	C 	0.3741	0.7493	0.3165	-0.03
Mof_H 	H 	0.3915	0.7543	0.3288	0.065
Mof_C 	C 	0.375	0.7467	0.2817	-0.007
Mof_H 	H 	0.3929	0.7498	0.2696	0.011
Mof_C 	C 	0.3472	0.7393	0.2698	-0.023
Mof_H 	H 	0.3433	0.7365	0.2485	-0.037
Mof_S 	S 	0.31945	0.7354	0.29877	-0.055
Mof_C 	C 	0.38018	0.75348	0.39993	-0.12
Mof_H 	H 	0.3946	0.7438	0.4132	0.098
Mof_C 	C 	0.38016	0.78736	0.40031	0.079
Mof_C 	C 	0.37371	0.80945	0.37788	-0.086
Mof_H 	H 	0.3655	0.8051	0.3581	0.051
Mof_C 	C 	0.39246	0.8354	0.41799	0.103
Mof_C 	C 	0.4076	0.7917	0.45376	-0.02
Mof_C 	C 	0.44283	0.79071	0.44896	0.102
Mof_C 	C 	0.45626	0.79111	0.41913	-0.16
Mof_H 	H 	0.4433	0.7912	0.4015	0.11
Mof_C 	C 	0.4883	0.79139	0.41539	0.101
Mof_H 	H 	0.4969	0.7917	0.3953	0.029
Mof_C 	C 	0.50784	0.79117	0.44128	-0.175
Mof_C 	C 	0.49464	0.78988	0.47101	0.092
Mof_H 	H 	0.5076	0.7889	0.4886	-0.02
Mof_C 	C 	0.46268	0.79004	0.47471	-0.168
Mof_H 	H 	0.4542	0.7897	0.4948	0.058
Mof_C 	C 	0.54225	0.79316	0.43735	0.433
Mof_C 	C 	0.40282	0.86148	0.43888	-0.094
Mof_H 	H 	0.4209	0.8548	0.4507	-0.081
Mof_H 	H 	0.4089	0.8791	0.4262	-0.031
Mof_C 	C 	0.3763	0.871	0.462	-0.446
Mof_H 	H 	0.3577	0.8773	0.4504	-0.349
Mof_H 	H 	0.3708	0.8533	0.4753	0.055
Mof_C 	C 	0.3883	0.8987	0.4824	-1.918
Mof_H 	H 	0.4089	0.8936	0.4907	0.518
Mof_H 	H 	0.3742	0.9017	0.5001	0.533
Mof_C 	C 	0.3903	0.9294	0.4636	0.689
Mof_H 	H 	0.3977	0.946	0.4769	-0.219
Mof_H 	H 	0.3698	0.9347	0.4557	1.263
Mof_H 	H 	0.4045	0.9267	0.4463	-0.716
Mof_N 	N 	0.38112	0.8391	0.38881	-0.254
Mof_N 	N 	0.39206	0.80469	0.42586	-0.14
Mof_O 	O 	0.34916	0.6806	0.37329	-0.386
Mof_O 	O 	0.39259	0.68945	0.39882	-0.389
Mof_O 	O 	0.55117	0.79485	0.40817	-0.522
Mof_H 	H 	0.5696	0.7981	0.4026	0.331
Mof_O 	O 	0.56103	0.79289	0.45922	-0.3
Mof_H 	H 	0.3167	0.7333	0.3689	0.047
Mof_H 	H 	0.3317	0.7663	0.3657	-0.006
Mof_C 	C 	0.3396	0.7395	0.3276	0.025
Mof_C 	C 	0.3201	0.7288	0.3056	-0.033
Mof_H 	H 	0.2996	0.7225	0.3095	0.048
Mof_C 	C 	0.3352	0.7283	0.274	-0.015
Mof_H 	H 	0.3252	0.7214	0.2558	-0.005
Mof_C 	C 	0.3647	0.7389	0.2746	-0.022
Mof_H 	H 	0.3777	0.7405	0.2572	-0.042
Mof_S 	S 	0.37523	0.74897	0.31178	-0.049
Mof_H 	H 	0.4109	0.8526	0.458	0.141
Mof_H 	H 	0.4199	0.8722	0.4287	0.073
Mof_C 	C 	0.3767	0.8847	0.4486	0.029
Mof_H 	H 	0.3652	0.8916	0.4302	-0.014
Mof_H 	H 	0.3621	0.8745	0.4627	0.595
Mof_C 	C 	0.3923	0.9134	0.4652	1.84
Mof_H 	H 	0.407	0.9234	0.4509	-0.045
Mof_H 	H 	0.404	0.9063	0.4834	-0.065
Mof_C 	C 	0.3674	0.9373	0.4755	-5.683
Mof_H 	H 	0.3774	0.9548	0.4857	1.75
Mof_H 	H 	0.353	0.9275	0.4899	1.718
Mof_H 	H 	0.3561	0.9447	0.4574	0.93
Mof_C 	C 	0.86829	0.19991	0.8852	0.286
Mof_C 	C 	0.86206	0.23421	0.88285	-0.01
Mof_C 	C 	0.83527	0.24428	0.8623	-0.136
Mof_H 	H 	0.8178	0.2303	0.8651	0.015
Mof_H 	H 	0.8288	0.2651	0.8681	0.024
Mof_C 	C 	0.8456	0.2438	0.82828	0.022
Mof_C 	C 	0.8741	0.2493	0.8165	-0.03
Mof_H 	H 	0.8915	0.2543	0.8288	0.065
Mof_C 	C 	0.875	0.2467	0.7817	-0.007
Mof_H 	H 	0.8929	0.2498	0.7696	0.011
Mof_C 	C 	0.8472	0.2393	0.7698	-0.023
Mof_H 	H 	0.8433	0.2365	0.7485	-0.037
Mof_S 	S 	0.81945	0.2354	0.79877	-0.055
Mof_C 	C 	0.88018	0.25348	0.89993	-0.12
Mof_H 	H 	0.8946	0.2438	0.9132	0.098
Mof_C 	C 	0.88016	0.28736	0.90031	0.079
Mof_C 	C 	0.87371	0.30945	0.87788	-0.086
Mof_H 	H 	0.8655	0.3051	0.8581	0.051
Mof_C 	C 	0.89246	0.3354	0.91799	0.103
Mof_C 	C 	0.9076	0.2917	0.95376	-0.02
Mof_C 	C 	0.94283	0.29071	0.94896	0.102
Mof_C 	C 	0.95626	0.29111	0.91913	-0.16
Mof_H 	H 	0.9433	0.2912	0.9015	0.11
Mof_C 	C 	0.9883	0.29139	0.91539	0.101
Mof_H 	H 	0.9969	0.2917	0.8953	0.029
Mof_C 	C 	0.00784	0.29117	0.94128	-0.174
Mof_C 	C 	0.99464	0.28988	0.97101	0.092
Mof_H 	H 	0.0076	0.2889	0.9886	-0.02
Mof_C 	C 	0.96268	0.29004	0.97471	-0.168
Mof_H 	H 	0.9542	0.2897	0.9948	0.058
Mof_C 	C 	0.04225	0.29316	0.93735	0.433
Mof_C 	C 	0.90282	0.36148	0.93888	-0.094
Mof_H 	H 	0.9209	0.3548	0.9507	-0.081
Mof_H 	H 	0.9089	0.3791	0.9262	-0.031
Mof_C 	C 	0.8763	0.371	0.962	-0.446
Mof_H 	H 	0.8577	0.3773	0.9504	-0.349
Mof_H 	H 	0.8708	0.3533	0.9753	0.055
Mof_C 	C 	0.8883	0.3987	0.9824	-1.918
Mof_H 	H 	0.9089	0.3936	0.9907	0.518
Mof_H 	H 	0.8742	0.4017	0.0001	0.533
Mof_C 	C 	0.8903	0.4294	0.9636	0.689
Mof_H 	H 	0.8977	0.446	0.9769	-0.219
Mof_H 	H 	0.8698	0.4347	0.9557	1.263
Mof_H 	H 	0.9045	0.4267	0.9463	-0.716
Mof_N 	N 	0.88112	0.3391	0.88881	-0.254
Mof_N 	N 	0.89206	0.30469	0.92586	-0.14
Mof_O 	O 	0.84916	0.1806	0.87329	-0.386
Mof_O 	O 	0.89259	0.18945	0.89882	-0.389
Mof_O 	O 	0.05117	0.29485	0.90817	-0.522
Mof_H 	H 	0.0696	0.2981	0.9026	0.331
Mof_O 	O 	0.06103	0.29289	0.95922	-0.3
Mof_H 	H 	0.8167	0.2333	0.8689	0.047
Mof_H 	H 	0.8317	0.2663	0.8657	-0.006
Mof_C 	C 	0.8396	0.2395	0.8276	0.025
Mof_C 	C 	0.8201	0.2288	0.8056	-0.033
Mof_H 	H 	0.7996	0.2225	0.8095	0.048
Mof_C 	C 	0.8352	0.2283	0.774	-0.015
Mof_H 	H 	0.8252	0.2214	0.7558	-0.005
Mof_C 	C 	0.8647	0.2389	0.7746	-0.022
Mof_H 	H 	0.8777	0.2405	0.7572	-0.042
Mof_S 	S 	0.87523	0.24897	0.81178	-0.049
Mof_H 	H 	0.9109	0.3526	0.958	0.141
Mof_H 	H 	0.9199	0.3722	0.9287	0.073
Mof_C 	C 	0.8767	0.3847	0.9486	0.029
Mof_H 	H 	0.8652	0.3916	0.9302	-0.014
Mof_H 	H 	0.8621	0.3745	0.9627	0.595
Mof_C 	C 	0.8923	0.4134	0.9652	1.84
Mof_H 	H 	0.907	0.4234	0.9509	-0.045
Mof_H 	H 	0.904	0.4063	0.9834	-0.065
Mof_C 	C 	0.8674	0.4373	0.9755	-5.683
Mof_H 	H 	0.8774	0.4548	0.9857	1.75
Mof_H 	H 	0.853	0.4275	0.9899	1.718
Mof_H 	H 	0.8561	0.4447	0.9574	0.93
Mof_C 	C 	0.30009	0.8852	0.13171	0.286
Mof_C 	C 	0.26579	0.88285	0.13794	-0.01
Mof_C 	C 	0.25572	0.8623	0.16473	-0.136
Mof_H 	H 	0.2697	0.8651	0.1822	0.015
Mof_H 	H 	0.2349	0.8681	0.1712	0.024
Mof_C 	C 	0.2562	0.82828	0.1544	0.022
Mof_C 	C 	0.2507	0.8165	0.1259	-0.03
Mof_H 	H 	0.2457	0.8288	0.1085	0.065
Mof_C 	C 	0.2533	0.7817	0.125	-0.007
Mof_H 	H 	0.2502	0.7696	0.1071	0.011
Mof_C 	C 	0.2607	0.7698	0.1528	-0.023
Mof_H 	H 	0.2635	0.7485	0.1567	-0.037
Mof_S 	S 	0.2646	0.79877	0.18055	-0.055
Mof_C 	C 	0.24652	0.89993	0.11982	-0.12
Mof_H 	H 	0.2562	0.9132	0.1054	0.098
Mof_C 	C 	0.21264	0.90031	0.11984	0.079
Mof_C 	C 	0.19055	0.87788	0.12629	-0.086
Mof_H 	H 	0.1949	0.8581	0.1345	0.051
Mof_C 	C 	0.1646	0.91799	0.10754	0.103
Mof_C 	C 	0.2083	0.95376	0.0924	-0.02
Mof_C 	C 	0.20929	0.94896	0.05717	0.102
Mof_C 	C 	0.20889	0.91913	0.04374	-0.16
Mof_H 	H 	0.2088	0.9015	0.0567	0.11
Mof_C 	C 	0.20861	0.91539	0.0117	0.101
Mof_H 	H 	0.2083	0.8953	0.0031	0.029
Mof_C 	C 	0.20883	0.94128	0.99216	-0.174
Mof_C 	C 	0.21012	0.97101	0.00536	0.092
Mof_H 	H 	0.2111	0.9886	0.9924	-0.02
Mof_C 	C 	0.20996	0.97471	0.03732	-0.168
Mof_H 	H 	0.2103	0.9948	0.0458	0.058
Mof_C 	C 	0.20684	0.93735	0.95775	0.433
Mof_C 	C 	0.13852	0.93888	0.09718	-0.094
Mof_H 	H 	0.1452	0.9507	0.0791	-0.081
Mof_H 	H 	0.1209	0.9262	0.0911	-0.031
Mof_C 	C 	0.129	0.962	0.1237	-0.446
Mof_H 	H 	0.1227	0.9504	0.1423	-0.349
Mof_H 	H 	0.1467	0.9753	0.1292	0.055
Mof_C 	C 	0.1013	0.9824	0.1117	-1.918
Mof_H 	H 	0.1064	0.9907	0.0911	0.518
Mof_H 	H 	0.0983	0.0001	0.1258	0.533
Mof_C 	C 	0.0706	0.9636	0.1097	0.689
Mof_H 	H 	0.054	0.9769	0.1023	-0.219
Mof_H 	H 	0.0653	0.9557	0.1302	1.263
Mof_H 	H 	0.0733	0.9463	0.0955	-0.716
Mof_N 	N 	0.1609	0.88881	0.11888	-0.254
Mof_N 	N 	0.19531	0.92586	0.10794	-0.14
Mof_O 	O 	0.3194	0.87329	0.15084	-0.386
Mof_O 	O 	0.31055	0.89882	0.10741	-0.389
Mof_O 	O 	0.20515	0.90817	0.94883	-0.522
Mof_H 	H 	0.2019	0.9026	0.9304	0.331
Mof_O 	O 	0.20711	0.95922	0.93897	-0.3
Mof_H 	H 	0.2667	0.8689	0.1833	0.047
Mof_H 	H 	0.2337	0.8657	0.1683	-0.006
Mof_C 	C 	0.2605	0.8276	0.1604	0.025
Mof_C 	C 	0.2712	0.8056	0.1799	-0.033
Mof_H 	H 	0.2775	0.8095	0.2004	0.048
Mof_C 	C 	0.2717	0.774	0.1648	-0.015
Mof_H 	H 	0.2786	0.7558	0.1748	-0.005
Mof_C 	C 	0.2611	0.7746	0.1353	-0.022
Mof_H 	H 	0.2595	0.7572	0.1223	-0.042
Mof_S 	S 	0.25103	0.81178	0.12477	-0.049
Mof_H 	H 	0.1474	0.958	0.0891	0.141
Mof_H 	H 	0.1278	0.9287	0.0801	0.073
Mof_C 	C 	0.1153	0.9486	0.1233	0.029
Mof_H 	H 	0.1084	0.9302	0.1348	-0.014
Mof_H 	H 	0.1255	0.9627	0.1379	0.595
Mof_C 	C 	0.0866	0.9652	0.1077	1.84
Mof_H 	H 	0.0766	0.9509	0.093	-0.045
Mof_H 	H 	0.0937	0.9834	0.096	-0.065
Mof_C 	C 	0.0627	0.9755	0.1326	-5.683
Mof_H 	H 	0.0452	0.9857	0.1226	1.75
Mof_H 	H 	0.0725	0.9899	0.147	1.718
Mof_H 	H 	0.0553	0.9574	0.1439	0.93
Mof_C 	C 	0.80009	0.3852	0.63171	0.286
Mof_C 	C 	0.76579	0.38285	0.63794	-0.01
Mof_C 	C 	0.75572	0.3623	0.66473	-0.136
Mof_H 	H 	0.7697	0.3651	0.6822	0.015
Mof_H 	H 	0.7349	0.3681	0.6712	0.024
Mof_C 	C 	0.7562	0.32828	0.6544	0.022
Mof_C 	C 	0.7507	0.3165	0.6259	-0.03
Mof_H 	H 	0.7457	0.3288	0.6085	0.065
Mof_C 	C 	0.7533	0.2817	0.625	-0.007
Mof_H 	H 	0.7502	0.2696	0.6071	0.011
Mof_C 	C 	0.7607	0.2698	0.6528	-0.023
Mof_H 	H 	0.7635	0.2485	0.6567	-0.037
Mof_S 	S 	0.7646	0.29877	0.68055	-0.055
Mof_C 	C 	0.74652	0.39993	0.61982	-0.12
Mof_H 	H 	0.7562	0.4132	0.6054	0.098
Mof_C 	C 	0.71264	0.40031	0.61984	0.079
Mof_C 	C 	0.69055	0.37788	0.62629	-0.086
Mof_H 	H 	0.6949	0.3581	0.6345	0.051
Mof_C 	C 	0.6646	0.41799	0.60754	0.103
Mof_C 	C 	0.7083	0.45376	0.5924	-0.02
Mof_C 	C 	0.70929	0.44896	0.55717	0.102
Mof_C 	C 	0.70889	0.41913	0.54374	-0.16
Mof_H 	H 	0.7088	0.4015	0.5567	0.11
Mof_C 	C 	0.70861	0.41539	0.5117	0.101
Mof_H 	H 	0.7083	0.3953	0.5031	0.029
Mof_C 	C 	0.70883	0.44128	0.49216	-0.175
Mof_C 	C 	0.71012	0.47101	0.50536	0.092
Mof_H 	H 	0.7111	0.4886	0.4924	-0.02
Mof_C 	C 	0.70996	0.47471	0.53732	-0.168
Mof_H 	H 	0.7103	0.4948	0.5458	0.058
Mof_C 	C 	0.70684	0.43735	0.45775	0.433
Mof_C 	C 	0.63852	0.43888	0.59718	-0.094
Mof_H 	H 	0.6452	0.4507	0.5791	-0.081
Mof_H 	H 	0.6209	0.4262	0.5911	-0.031
Mof_C 	C 	0.629	0.462	0.6237	-0.446
Mof_H 	H 	0.6227	0.4504	0.6423	-0.349
Mof_H 	H 	0.6467	0.4753	0.6292	0.055
Mof_C 	C 	0.6013	0.4824	0.6117	-1.918
Mof_H 	H 	0.6064	0.4907	0.5911	0.518
Mof_H 	H 	0.5983	0.5001	0.6258	0.533
Mof_C 	C 	0.5706	0.4636	0.6097	0.689
Mof_H 	H 	0.554	0.4769	0.6023	-0.219
Mof_H 	H 	0.5653	0.4557	0.6302	1.263
Mof_H 	H 	0.5733	0.4463	0.5955	-0.716
Mof_N 	N 	0.6609	0.38881	0.61888	-0.254
Mof_N 	N 	0.69531	0.42586	0.60794	-0.14
Mof_O 	O 	0.8194	0.37329	0.65084	-0.386
Mof_O 	O 	0.81055	0.39882	0.60741	-0.389
Mof_O 	O 	0.70515	0.40817	0.44883	-0.522
Mof_H 	H 	0.7019	0.4026	0.4304	0.331
Mof_O 	O 	0.70711	0.45922	0.43897	-0.3
Mof_H 	H 	0.7667	0.3689	0.6833	0.047
Mof_H 	H 	0.7337	0.3657	0.6683	-0.006
Mof_C 	C 	0.7605	0.3276	0.6604	0.025
Mof_C 	C 	0.7712	0.3056	0.6799	-0.033
Mof_H 	H 	0.7775	0.3095	0.7004	0.048
Mof_C 	C 	0.7717	0.274	0.6648	-0.015
Mof_H 	H 	0.7786	0.2558	0.6748	-0.005
Mof_C 	C 	0.7611	0.2746	0.6353	-0.022
Mof_H 	H 	0.7595	0.2572	0.6223	-0.042
Mof_S 	S 	0.75103	0.31178	0.62477	-0.049
Mof_H 	H 	0.6474	0.458	0.5891	0.141
Mof_H 	H 	0.6278	0.4287	0.5801	0.073
Mof_C 	C 	0.6153	0.4486	0.6233	0.029
Mof_H 	H 	0.6084	0.4302	0.6348	-0.014
Mof_H 	H 	0.6255	0.4627	0.6379	0.595
Mof_C 	C 	0.5866	0.4652	0.6077	1.84
Mof_H 	H 	0.5766	0.4509	0.593	-0.045
Mof_H 	H 	0.5937	0.4834	0.596	-0.065
Mof_C 	C 	0.5627	0.4755	0.6326	-5.683
Mof_H 	H 	0.5452	0.4857	0.6226	1.75
Mof_H 	H 	0.5725	0.4899	0.647	1.718
Mof_H 	H 	0.5553	0.4574	0.6439	0.93
Mof_C 	C 	0.80009	0.6148	0.86829	0.286
Mof_C 	C 	0.76579	0.61715	0.86206	-0.01
Mof_C 	C 	0.75572	0.6377	0.83527	-0.136
Mof_H 	H 	0.7697	0.6349	0.8178	0.015
Mof_H 	H 	0.7349	0.6319	0.8288	0.024
Mof_C 	C 	0.7562	0.67172	0.8456	0.022
Mof_C 	C 	0.7507	0.6835	0.8741	-0.03
Mof_H 	H 	0.7457	0.6712	0.8915	0.065
Mof_C 	C 	0.7533	0.7183	0.875	-0.007
Mof_H 	H 	0.7502	0.7304	0.8929	0.011
Mof_C 	C 	0.7607	0.7302	0.8472	-0.023
Mof_H 	H 	0.7635	0.7515	0.8433	-0.037
Mof_S 	S 	0.7646	0.70123	0.81945	-0.055
Mof_C 	C 	0.74652	0.60007	0.88018	-0.12
Mof_H 	H 	0.7562	0.5868	0.8946	0.098
Mof_C 	C 	0.71264	0.59969	0.88016	0.079
Mof_C 	C 	0.69055	0.62212	0.87371	-0.086
Mof_H 	H 	0.6949	0.6419	0.8655	0.051
Mof_C 	C 	0.6646	0.58201	0.89246	0.103
Mof_C 	C 	0.7083	0.54624	0.9076	-0.02
Mof_C 	C 	0.70929	0.55104	0.94283	0.102
Mof_C 	C 	0.70889	0.58087	0.95626	-0.16
Mof_H 	H 	0.7088	0.5985	0.9433	0.11
Mof_C 	C 	0.70861	0.58461	0.9883	0.101
Mof_H 	H 	0.7083	0.6047	0.9969	0.029
Mof_C 	C 	0.70883	0.55872	0.00784	-0.174
Mof_C 	C 	0.71012	0.52899	0.99464	0.092
Mof_H 	H 	0.7111	0.5114	0.0076	-0.02
Mof_C 	C 	0.70996	0.52529	0.96268	-0.168
Mof_H 	H 	0.7103	0.5052	0.9542	0.058
Mof_C 	C 	0.70684	0.56265	0.04225	0.433
Mof_C 	C 	0.63852	0.56112	0.90282	-0.094
Mof_H 	H 	0.6452	0.5493	0.9209	-0.081
Mof_H 	H 	0.6209	0.5738	0.9089	-0.031
Mof_C 	C 	0.629	0.538	0.8763	-0.446
Mof_H 	H 	0.6227	0.5496	0.8577	-0.349
Mof_H 	H 	0.6467	0.5247	0.8708	0.055
Mof_C 	C 	0.6013	0.5176	0.8883	-1.918
Mof_H 	H 	0.6064	0.5093	0.9089	0.518
Mof_H 	H 	0.5983	0.4999	0.8742	0.533
Mof_C 	C 	0.5706	0.5364	0.8903	0.689
Mof_H 	H 	0.554	0.5231	0.8977	-0.219
Mof_H 	H 	0.5653	0.5443	0.8698	1.263
Mof_H 	H 	0.5733	0.5537	0.9045	-0.716
Mof_N 	N 	0.6609	0.61119	0.88112	-0.254
Mof_N 	N 	0.69531	0.57414	0.89206	-0.14
Mof_O 	O 	0.8194	0.62671	0.84916	-0.386
Mof_O 	O 	0.81055	0.60118	0.89259	-0.389
Mof_O 	O 	0.70515	0.59183	0.05117	-0.522
Mof_H 	H 	0.7019	0.5974	0.0696	0.331
Mof_O 	O 	0.70711	0.54078	0.06103	-0.3
Mof_H 	H 	0.7667	0.6311	0.8167	0.047
Mof_H 	H 	0.7337	0.6343	0.8317	-0.006
Mof_C 	C 	0.7605	0.6724	0.8396	0.025
Mof_C 	C 	0.7712	0.6944	0.8201	-0.033
Mof_H 	H 	0.7775	0.6905	0.7996	0.048
Mof_C 	C 	0.7717	0.726	0.8352	-0.015
Mof_H 	H 	0.7786	0.7442	0.8252	-0.005
Mof_C 	C 	0.7611	0.7254	0.8647	-0.022
Mof_H 	H 	0.7595	0.7428	0.8777	-0.042
Mof_S 	S 	0.75103	0.68822	0.87523	-0.049
Mof_H 	H 	0.6474	0.542	0.9109	0.141
Mof_H 	H 	0.6278	0.5713	0.9199	0.073
Mof_C 	C 	0.6153	0.5514	0.8767	0.029
Mof_H 	H 	0.6084	0.5698	0.8652	-0.014
Mof_H 	H 	0.6255	0.5373	0.8621	0.595
Mof_C 	C 	0.5866	0.5348	0.8923	1.84
Mof_H 	H 	0.5766	0.5491	0.907	-0.045
Mof_H 	H 	0.5937	0.5166	0.904	-0.065
Mof_C 	C 	0.5627	0.5245	0.8674	-5.683
Mof_H 	H 	0.5452	0.5143	0.8774	1.75
Mof_H 	H 	0.5725	0.5101	0.853	1.718
Mof_H 	H 	0.5553	0.5426	0.8561	0.93
Mof_C 	C 	0.30009	0.1148	0.36829	0.286
Mof_C 	C 	0.26579	0.11715	0.36206	-0.01
Mof_C 	C 	0.25572	0.1377	0.33527	-0.136
Mof_H 	H 	0.2697	0.1349	0.3178	0.015
Mof_H 	H 	0.2349	0.1319	0.3288	0.024
Mof_C 	C 	0.2562	0.17172	0.3456	0.022
Mof_C 	C 	0.2507	0.1835	0.3741	-0.03
Mof_H 	H 	0.2457	0.1712	0.3915	0.065
Mof_C 	C 	0.2533	0.2183	0.375	-0.007
Mof_H 	H 	0.2502	0.2304	0.3929	0.011
Mof_C 	C 	0.2607	0.2302	0.3472	-0.023
Mof_H 	H 	0.2635	0.2515	0.3433	-0.037
Mof_S 	S 	0.2646	0.20123	0.31945	-0.055
Mof_C 	C 	0.24652	0.10007	0.38018	-0.12
Mof_H 	H 	0.2562	0.0868	0.3946	0.098
Mof_C 	C 	0.21264	0.09969	0.38016	0.079
Mof_C 	C 	0.19055	0.12212	0.37371	-0.086
Mof_H 	H 	0.1949	0.1419	0.3655	0.051
Mof_C 	C 	0.1646	0.08201	0.39246	0.103
Mof_C 	C 	0.2083	0.04624	0.4076	-0.02
Mof_C 	C 	0.20929	0.05104	0.44283	0.102
Mof_C 	C 	0.20889	0.08087	0.45626	-0.16
Mof_H 	H 	0.2088	0.0985	0.4433	0.11
Mof_C 	C 	0.20861	0.08461	0.4883	0.101
Mof_H 	H 	0.2083	0.1047	0.4969	0.029
Mof_C 	C 	0.20883	0.05872	0.50784	-0.174
Mof_C 	C 	0.21012	0.02899	0.49464	0.092
Mof_H 	H 	0.2111	0.0114	0.5076	-0.02
Mof_C 	C 	0.20996	0.02529	0.46268	-0.168
Mof_H 	H 	0.2103	0.0052	0.4542	0.058
Mof_C 	C 	0.20684	0.06265	0.54225	0.433
Mof_C 	C 	0.13852	0.06112	0.40282	-0.094
Mof_H 	H 	0.1452	0.0493	0.4209	-0.081
Mof_H 	H 	0.1209	0.0738	0.4089	-0.031
Mof_C 	C 	0.129	0.038	0.3763	-0.446
Mof_H 	H 	0.1227	0.0496	0.3577	-0.349
Mof_H 	H 	0.1467	0.0247	0.3708	0.055
Mof_C 	C 	0.1013	0.0176	0.3883	-1.918
Mof_H 	H 	0.1064	0.0093	0.4089	0.518
Mof_H 	H 	0.0983	0.9999	0.3742	0.533
Mof_C 	C 	0.0706	0.0364	0.3903	0.689
Mof_H 	H 	0.054	0.0231	0.3977	-0.219
Mof_H 	H 	0.0653	0.0443	0.3698	1.263
Mof_H 	H 	0.0733	0.0537	0.4045	-0.716
Mof_N 	N 	0.1609	0.11119	0.38112	-0.254
Mof_N 	N 	0.19531	0.07414	0.39206	-0.14
Mof_O 	O 	0.3194	0.12671	0.34916	-0.386
Mof_O 	O 	0.31055	0.10118	0.39259	-0.389
Mof_O 	O 	0.20515	0.09183	0.55117	-0.522
Mof_H 	H 	0.2019	0.0974	0.5696	0.331
Mof_O 	O 	0.20711	0.04078	0.56103	-0.3
Mof_H 	H 	0.2667	0.1311	0.3167	0.047
Mof_H 	H 	0.2337	0.1343	0.3317	-0.006
Mof_C 	C 	0.2605	0.1724	0.3396	0.025
Mof_C 	C 	0.2712	0.1944	0.3201	-0.033
Mof_H 	H 	0.2775	0.1905	0.2996	0.048
Mof_C 	C 	0.2717	0.226	0.3352	-0.015
Mof_H 	H 	0.2786	0.2442	0.3252	-0.005
Mof_C 	C 	0.2611	0.2254	0.3647	-0.022
Mof_H 	H 	0.2595	0.2428	0.3777	-0.042
Mof_S 	S 	0.25103	0.18822	0.37523	-0.049
Mof_H 	H 	0.1474	0.042	0.4109	0.141
Mof_H 	H 	0.1278	0.0713	0.4199	0.073
Mof_C 	C 	0.1153	0.0514	0.3767	0.029
Mof_H 	H 	0.1084	0.0698	0.3652	-0.014
Mof_H 	H 	0.1255	0.0373	0.3621	0.595
Mof_C 	C 	0.0866	0.0348	0.3923	1.84
Mof_H 	H 	0.0766	0.0491	0.407	-0.045
Mof_H 	H 	0.0937	0.0166	0.404	-0.065
Mof_C 	C 	0.0627	0.0245	0.3674	-5.683
Mof_H 	H 	0.0452	0.0143	0.3774	1.75
Mof_H 	H 	0.0725	0.0101	0.353	1.718
Mof_H 	H 	0.0553	0.0426	0.3561	0.93
Mof_C 	C 	0.69991	0.3852	0.36829	0.286
Mof_C 	C 	0.73421	0.38285	0.36206	-0.01
Mof_C 	C 	0.74428	0.3623	0.33527	-0.136
Mof_H 	H 	0.7303	0.3651	0.3178	0.015
Mof_H 	H 	0.7651	0.3681	0.3288	0.024
Mof_C 	C 	0.7438	0.32828	0.3456	0.022
Mof_C 	C 	0.7493	0.3165	0.3741	-0.03
Mof_H 	H 	0.7543	0.3288	0.3915	0.065
Mof_C 	C 	0.7467	0.2817	0.375	-0.007
Mof_H 	H 	0.7498	0.2696	0.3929	0.011
Mof_C 	C 	0.7393	0.2698	0.3472	-0.023
Mof_H 	H 	0.7365	0.2485	0.3433	-0.037
Mof_S 	S 	0.7354	0.29877	0.31945	-0.055
Mof_C 	C 	0.75348	0.39993	0.38018	-0.12
Mof_H 	H 	0.7438	0.4132	0.3946	0.098
Mof_C 	C 	0.78736	0.40031	0.38016	0.079
Mof_C 	C 	0.80945	0.37788	0.37371	-0.086
Mof_H 	H 	0.8051	0.3581	0.3655	0.051
Mof_C 	C 	0.8354	0.41799	0.39246	0.103
Mof_C 	C 	0.7917	0.45376	0.4076	-0.02
Mof_C 	C 	0.79071	0.44896	0.44283	0.102
Mof_C 	C 	0.79111	0.41913	0.45626	-0.16
Mof_H 	H 	0.7912	0.4015	0.4433	0.11
Mof_C 	C 	0.79139	0.41539	0.4883	0.101
Mof_H 	H 	0.7917	0.3953	0.4969	0.029
Mof_C 	C 	0.79117	0.44128	0.50784	-0.175
Mof_C 	C 	0.78988	0.47101	0.49464	0.092
Mof_H 	H 	0.7889	0.4886	0.5076	-0.02
Mof_C 	C 	0.79004	0.47471	0.46268	-0.168
Mof_H 	H 	0.7897	0.4948	0.4542	0.058
Mof_C 	C 	0.79316	0.43735	0.54225	0.433
Mof_C 	C 	0.86148	0.43888	0.40282	-0.094
Mof_H 	H 	0.8548	0.4507	0.4209	-0.081
Mof_H 	H 	0.8791	0.4262	0.4089	-0.031
Mof_C 	C 	0.871	0.462	0.3763	-0.446
Mof_H 	H 	0.8773	0.4504	0.3577	-0.349
Mof_H 	H 	0.8533	0.4753	0.3708	0.055
Mof_C 	C 	0.8987	0.4824	0.3883	-1.918
Mof_H 	H 	0.8936	0.4907	0.4089	0.518
Mof_H 	H 	0.9017	0.5001	0.3742	0.533
Mof_C 	C 	0.9294	0.4636	0.3903	0.689
Mof_H 	H 	0.946	0.4769	0.3977	-0.219
Mof_H 	H 	0.9347	0.4557	0.3698	1.263
Mof_H 	H 	0.9267	0.4463	0.4045	-0.716
Mof_N 	N 	0.8391	0.38881	0.38112	-0.254
Mof_N 	N 	0.80469	0.42586	0.39206	-0.14
Mof_O 	O 	0.6806	0.37329	0.34916	-0.386
Mof_O 	O 	0.68945	0.39882	0.39259	-0.389
Mof_O 	O 	0.79485	0.40817	0.55117	-0.522
Mof_H 	H 	0.7981	0.4026	0.5696	0.331
Mof_O 	O 	0.79289	0.45922	0.56103	-0.3
Mof_H 	H 	0.7333	0.3689	0.3167	0.047
Mof_H 	H 	0.7663	0.3657	0.3317	-0.006
Mof_C 	C 	0.7395	0.3276	0.3396	0.025
Mof_C 	C 	0.7288	0.3056	0.3201	-0.033
Mof_H 	H 	0.7225	0.3095	0.2996	0.048
Mof_C 	C 	0.7283	0.274	0.3352	-0.015
Mof_H 	H 	0.7214	0.2558	0.3252	-0.005
Mof_C 	C 	0.7389	0.2746	0.3647	-0.022
Mof_H 	H 	0.7405	0.2572	0.3777	-0.042
Mof_S 	S 	0.74897	0.31178	0.37523	-0.049
Mof_H 	H 	0.8526	0.458	0.4109	0.141
Mof_H 	H 	0.8722	0.4287	0.4199	0.073
Mof_C 	C 	0.8847	0.4486	0.3767	0.029
Mof_H 	H 	0.8916	0.4302	0.3652	-0.014
Mof_H 	H 	0.8745	0.4627	0.3621	0.595
Mof_C 	C 	0.9134	0.4652	0.3923	1.84
Mof_H 	H 	0.9234	0.4509	0.407	-0.045
Mof_H 	H 	0.9063	0.4834	0.404	-0.065
Mof_C 	C 	0.9373	0.4755	0.3674	-5.683
Mof_H 	H 	0.9548	0.4857	0.3774	1.75
Mof_H 	H 	0.9275	0.4899	0.353	1.718
Mof_H 	H 	0.9447	0.4574	0.3561	0.93
Mof_C 	C 	0.19991	0.8852	0.86829	0.286
Mof_C 	C 	0.23421	0.88285	0.86206	-0.01
Mof_C 	C 	0.24428	0.8623	0.83527	-0.136
Mof_H 	H 	0.2303	0.8651	0.8178	0.015
Mof_H 	H 	0.2651	0.8681	0.8288	0.024
Mof_C 	C 	0.2438	0.82828	0.8456	0.022
Mof_C 	C 	0.2493	0.8165	0.8741	-0.03
Mof_H 	H 	0.2543	0.8288	0.8915	0.065
Mof_C 	C 	0.2467	0.7817	0.875	-0.007
Mof_H 	H 	0.2498	0.7696	0.8929	0.011
Mof_C 	C 	0.2393	0.7698	0.8472	-0.023
Mof_H 	H 	0.2365	0.7485	0.8433	-0.037
Mof_S 	S 	0.2354	0.79877	0.81945	-0.055
Mof_C 	C 	0.25348	0.89993	0.88018	-0.12
Mof_H 	H 	0.2438	0.9132	0.8946	0.098
Mof_C 	C 	0.28736	0.90031	0.88016	0.079
Mof_C 	C 	0.30945	0.87788	0.87371	-0.086
Mof_H 	H 	0.3051	0.8581	0.8655	0.051
Mof_C 	C 	0.3354	0.91799	0.89246	0.103
Mof_C 	C 	0.2917	0.95376	0.9076	-0.02
Mof_C 	C 	0.29071	0.94896	0.94283	0.102
Mof_C 	C 	0.29111	0.91913	0.95626	-0.16
Mof_H 	H 	0.2912	0.9015	0.9433	0.11
Mof_C 	C 	0.29139	0.91539	0.9883	0.101
Mof_H 	H 	0.2917	0.8953	0.9969	0.029
Mof_C 	C 	0.29117	0.94128	0.00784	-0.174
Mof_C 	C 	0.28988	0.97101	0.99464	0.092
Mof_H 	H 	0.2889	0.9886	0.0076	-0.02
Mof_C 	C 	0.29004	0.97471	0.96268	-0.168
Mof_H 	H 	0.2897	0.9948	0.9542	0.058
Mof_C 	C 	0.29316	0.93735	0.04225	0.433
Mof_C 	C 	0.36148	0.93888	0.90282	-0.094
Mof_H 	H 	0.3548	0.9507	0.9209	-0.081
Mof_H 	H 	0.3791	0.9262	0.9089	-0.031
Mof_C 	C 	0.371	0.962	0.8763	-0.446
Mof_H 	H 	0.3773	0.9504	0.8577	-0.349
Mof_H 	H 	0.3533	0.9753	0.8708	0.055
Mof_C 	C 	0.3987	0.9824	0.8883	-1.918
Mof_H 	H 	0.3936	0.9907	0.9089	0.518
Mof_H 	H 	0.4017	0.0001	0.8742	0.533
Mof_C 	C 	0.4294	0.9636	0.8903	0.689
Mof_H 	H 	0.446	0.9769	0.8977	-0.219
Mof_H 	H 	0.4347	0.9557	0.8698	1.263
Mof_H 	H 	0.4267	0.9463	0.9045	-0.716
Mof_N 	N 	0.3391	0.88881	0.88112	-0.254
Mof_N 	N 	0.30469	0.92586	0.89206	-0.14
Mof_O 	O 	0.1806	0.87329	0.84916	-0.386
Mof_O 	O 	0.18945	0.89882	0.89259	-0.389
Mof_O 	O 	0.29485	0.90817	0.05117	-0.522
Mof_H 	H 	0.2981	0.9026	0.0696	0.331
Mof_O 	O 	0.29289	0.95922	0.06103	-0.3
Mof_H 	H 	0.2333	0.8689	0.8167	0.047
Mof_H 	H 	0.2663	0.8657	0.8317	-0.006
Mof_C 	C 	0.2395	0.8276	0.8396	0.025
Mof_C 	C 	0.2288	0.8056	0.8201	-0.033
Mof_H 	H 	0.2225	0.8095	0.7996	0.048
Mof_C 	C 	0.2283	0.774	0.8352	-0.015
Mof_H 	H 	0.2214	0.7558	0.8252	-0.005
Mof_C 	C 	0.2389	0.7746	0.8647	-0.022
Mof_H 	H 	0.2405	0.7572	0.8777	-0.042
Mof_S 	S 	0.24897	0.81178	0.87523	-0.049
Mof_H 	H 	0.3526	0.958	0.9109	0.141
Mof_H 	H 	0.3722	0.9287	0.9199	0.073
Mof_C 	C 	0.3847	0.9486	0.8767	0.029
Mof_H 	H 	0.3916	0.9302	0.8652	-0.014
Mof_H 	H 	0.3745	0.9627	0.8621	0.595
Mof_C 	C 	0.4134	0.9652	0.8923	1.84
Mof_H 	H 	0.4234	0.9509	0.907	-0.045
Mof_H 	H 	0.4063	0.9834	0.904	-0.065
Mof_C 	C 	0.4373	0.9755	0.8674	-5.683
Mof_H 	H 	0.4548	0.9857	0.8774	1.75
Mof_H 	H 	0.4275	0.9899	0.853	1.718
Mof_H 	H 	0.4447	0.9574	0.8561	0.93
Mof_C 	C 	0.19991	0.1148	0.63171	0.286
Mof_C 	C 	0.23421	0.11715	0.63794	-0.01
Mof_C 	C 	0.24428	0.1377	0.66473	-0.136
Mof_H 	H 	0.2303	0.1349	0.6822	0.015
Mof_H 	H 	0.2651	0.1319	0.6712	0.024
Mof_C 	C 	0.2438	0.17172	0.6544	0.022
Mof_C 	C 	0.2493	0.1835	0.6259	-0.03
Mof_H 	H 	0.2543	0.1712	0.6085	0.065
Mof_C 	C 	0.2467	0.2183	0.625	-0.007
Mof_H 	H 	0.2498	0.2304	0.6071	0.011
Mof_C 	C 	0.2393	0.2302	0.6528	-0.023
Mof_H 	H 	0.2365	0.2515	0.6567	-0.037
Mof_S 	S 	0.2354	0.20123	0.68055	-0.055
Mof_C 	C 	0.25348	0.10007	0.61982	-0.12
Mof_H 	H 	0.2438	0.0868	0.6054	0.098
Mof_C 	C 	0.28736	0.09969	0.61984	0.079
Mof_C 	C 	0.30945	0.12212	0.62629	-0.086
Mof_H 	H 	0.3051	0.1419	0.6345	0.051
Mof_C 	C 	0.3354	0.08201	0.60754	0.103
Mof_C 	C 	0.2917	0.04624	0.5924	-0.02
Mof_C 	C 	0.29071	0.05104	0.55717	0.102
Mof_C 	C 	0.29111	0.08087	0.54374	-0.16
Mof_H 	H 	0.2912	0.0985	0.5567	0.11
Mof_C 	C 	0.29139	0.08461	0.5117	0.101
Mof_H 	H 	0.2917	0.1047	0.5031	0.029
Mof_C 	C 	0.29117	0.05872	0.49216	-0.174
Mof_C 	C 	0.28988	0.02899	0.50536	0.092
Mof_H 	H 	0.2889	0.0114	0.4924	-0.02
Mof_C 	C 	0.29004	0.02529	0.53732	-0.168
Mof_H 	H 	0.2897	0.0052	0.5458	0.058
Mof_C 	C 	0.29316	0.06265	0.45775	0.433
Mof_C 	C 	0.36148	0.06112	0.59718	-0.094
Mof_H 	H 	0.3548	0.0493	0.5791	-0.081
Mof_H 	H 	0.3791	0.0738	0.5911	-0.031
Mof_C 	C 	0.371	0.038	0.6237	-0.446
Mof_H 	H 	0.3773	0.0496	0.6423	-0.349
Mof_H 	H 	0.3533	0.0247	0.6292	0.055
Mof_C 	C 	0.3987	0.0176	0.6117	-1.918
Mof_H 	H 	0.3936	0.0093	0.5911	0.518
Mof_H 	H 	0.4017	0.9999	0.6258	0.533
Mof_C 	C 	0.4294	0.0364	0.6097	0.689
Mof_H 	H 	0.446	0.0231	0.6023	-0.219
Mof_H 	H 	0.4347	0.0443	0.6302	1.263
Mof_H 	H 	0.4267	0.0537	0.5955	-0.716
Mof_N 	N 	0.3391	0.11119	0.61888	-0.254
Mof_N 	N 	0.30469	0.07414	0.60794	-0.14
Mof_O 	O 	0.1806	0.12671	0.65084	-0.386
Mof_O 	O 	0.18945	0.10118	0.60741	-0.389
Mof_O 	O 	0.29485	0.09183	0.44883	-0.522
Mof_H 	H 	0.2981	0.0974	0.4304	0.331
Mof_O 	O 	0.29289	0.04078	0.43897	-0.3
Mof_H 	H 	0.2333	0.1311	0.6833	0.047
Mof_H 	H 	0.2663	0.1343	0.6683	-0.006
Mof_C 	C 	0.2395	0.1724	0.6604	0.025
Mof_C 	C 	0.2288	0.1944	0.6799	-0.033
Mof_H 	H 	0.2225	0.1905	0.7004	0.048
Mof_C 	C 	0.2283	0.226	0.6648	-0.015
Mof_H 	H 	0.2214	0.2442	0.6748	-0.005
Mof_C 	C 	0.2389	0.2254	0.6353	-0.022
Mof_H 	H 	0.2405	0.2428	0.6223	-0.042
Mof_S 	S 	0.24897	0.18822	0.62477	-0.049
Mof_H 	H 	0.3526	0.042	0.5891	0.141
Mof_H 	H 	0.3722	0.0713	0.5801	0.073
Mof_C 	C 	0.3847	0.0514	0.6233	0.029
Mof_H 	H 	0.3916	0.0698	0.6348	-0.014
Mof_H 	H 	0.3745	0.0373	0.6379	0.595
Mof_C 	C 	0.4134	0.0348	0.6077	1.84
Mof_H 	H 	0.4234	0.0491	0.593	-0.045
Mof_H 	H 	0.4063	0.0166	0.596	-0.065
Mof_C 	C 	0.4373	0.0245	0.6326	-5.683
Mof_H 	H 	0.4548	0.0143	0.6226	1.75
Mof_H 	H 	0.4275	0.0101	0.647	1.718
Mof_H 	H 	0.4447	0.0426	0.6439	0.93
Mof_C 	C 	0.69991	0.6148	0.13171	0.286
Mof_C 	C 	0.73421	0.61715	0.13794	-0.01
Mof_C 	C 	0.74428	0.6377	0.16473	-0.136
Mof_H 	H 	0.7303	0.6349	0.1822	0.015
Mof_H 	H 	0.7651	0.6319	0.1712	0.024
Mof_C 	C 	0.7438	0.67172	0.1544	0.022
Mof_C 	C 	0.7493	0.6835	0.1259	-0.03
Mof_H 	H 	0.7543	0.6712	0.1085	0.065
Mof_C 	C 	0.7467	0.7183	0.125	-0.007
Mof_H 	H 	0.7498	0.7304	0.1071	0.011
Mof_C 	C 	0.7393	0.7302	0.1528	-0.023
Mof_H 	H 	0.7365	0.7515	0.1567	-0.037
Mof_S 	S 	0.7354	0.70123	0.18055	-0.055
Mof_C 	C 	0.75348	0.60007	0.11982	-0.12
Mof_H 	H 	0.7438	0.5868	0.1054	0.098
Mof_C 	C 	0.78736	0.59969	0.11984	0.079
Mof_C 	C 	0.80945	0.62212	0.12629	-0.086
Mof_H 	H 	0.8051	0.6419	0.1345	0.051
Mof_C 	C 	0.8354	0.58201	0.10754	0.103
Mof_C 	C 	0.7917	0.54624	0.0924	-0.02
Mof_C 	C 	0.79071	0.55104	0.05717	0.102
Mof_C 	C 	0.79111	0.58087	0.04374	-0.16
Mof_H 	H 	0.7912	0.5985	0.0567	0.11
Mof_C 	C 	0.79139	0.58461	0.0117	0.101
Mof_H 	H 	0.7917	0.6047	0.0031	0.029
Mof_C 	C 	0.79117	0.55872	0.99216	-0.174
Mof_C 	C 	0.78988	0.52899	0.00536	0.092
Mof_H 	H 	0.7889	0.5114	0.9924	-0.02
Mof_C 	C 	0.79004	0.52529	0.03732	-0.168
Mof_H 	H 	0.7897	0.5052	0.0458	0.058
Mof_C 	C 	0.79316	0.56265	0.95775	0.433
Mof_C 	C 	0.86148	0.56112	0.09718	-0.094
Mof_H 	H 	0.8548	0.5493	0.0791	-0.081
Mof_H 	H 	0.8791	0.5738	0.0911	-0.031
Mof_C 	C 	0.871	0.538	0.1237	-0.446
Mof_H 	H 	0.8773	0.5496	0.1423	-0.349
Mof_H 	H 	0.8533	0.5247	0.1292	0.055
Mof_C 	C 	0.8987	0.5176	0.1117	-1.918
Mof_H 	H 	0.8936	0.5093	0.0911	0.518
Mof_H 	H 	0.9017	0.4999	0.1258	0.533
Mof_C 	C 	0.9294	0.5364	0.1097	0.689
Mof_H 	H 	0.946	0.5231	0.1023	-0.219
Mof_H 	H 	0.9347	0.5443	0.1302	1.263
Mof_H 	H 	0.9267	0.5537	0.0955	-0.716
Mof_N 	N 	0.8391	0.61119	0.11888	-0.254
Mof_N 	N 	0.80469	0.57414	0.10794	-0.14
Mof_O 	O 	0.6806	0.62671	0.15084	-0.386
Mof_O 	O 	0.68945	0.60118	0.10741	-0.389
Mof_O 	O 	0.79485	0.59183	0.94883	-0.522
Mof_H 	H 	0.7981	0.5974	0.9304	0.331
Mof_O 	O 	0.79289	0.54078	0.93897	-0.3
Mof_H 	H 	0.7333	0.6311	0.1833	0.047
Mof_H 	H 	0.7663	0.6343	0.1683	-0.006
Mof_C 	C 	0.7395	0.6724	0.1604	0.025
Mof_C 	C 	0.7288	0.6944	0.1799	-0.033
Mof_H 	H 	0.7225	0.6905	0.2004	0.048
Mof_C 	C 	0.7283	0.726	0.1648	-0.015
Mof_H 	H 	0.7214	0.7442	0.1748	-0.005
Mof_C 	C 	0.7389	0.7254	0.1353	-0.022
Mof_H 	H 	0.7405	0.7428	0.1223	-0.042
Mof_S 	S 	0.74897	0.68822	0.12477	-0.049
Mof_H 	H 	0.8526	0.542	0.0891	0.141
Mof_H 	H 	0.8722	0.5713	0.0801	0.073
Mof_C 	C 	0.8847	0.5514	0.1233	0.029
Mof_H 	H 	0.8916	0.5698	0.1348	-0.014
Mof_H 	H 	0.8745	0.5373	0.1379	0.595
Mof_C 	C 	0.9134	0.5348	0.1077	1.84
Mof_H 	H 	0.9234	0.5491	0.093	-0.045
Mof_H 	H 	0.9063	0.5166	0.096	-0.065
Mof_C 	C 	0.9373	0.5245	0.1326	-5.683
Mof_H 	H 	0.9548	0.5143	0.1226	1.75
Mof_H 	H 	0.9275	0.5101	0.147	1.718
Mof_H 	H 	0.9447	0.5426	0.1439	0.93
Mof_Zn	Zn	0.3592	0.8908	0.125	1.211
Mof_Zn	Zn	0.1408	0.1092	0.625	1.211
Mof_Zn	Zn	0.6408	0.3908	0.375	1.211
Mof_Zn	Zn	0.8592	0.6092	0.875	1.211
Mof_Zn	Zn	0.125	0.3592	0.8908	1.211
Mof_Zn	Zn	0.625	0.1408	0.1092	1.211
Mof_Zn	Zn	0.375	0.6408	0.3908	1.211
Mof_Zn	Zn	0.875	0.8592	0.6092	1.211
Mof_Zn	Zn	0.8908	0.125	0.3592	1.211
Mof_Zn	Zn	0.1092	0.625	0.1408	1.211
Mof_Zn	Zn	0.3908	0.375	0.6408	1.211
Mof_Zn	Zn	0.6092	0.875	0.8592	1.211
Mof_Zn	Zn	0.6408	0.6092	0.125	1.211
Mof_Zn	Zn	0.8592	0.3908	0.625	1.211
Mof_Zn	Zn	0.1408	0.8908	0.875	1.211
Mof_Zn	Zn	0.3592	0.1092	0.375	1.211
Mof_Zn	Zn	0.1092	0.375	0.3592	1.211
Mof_Zn	Zn	0.8908	0.875	0.1408	1.211
Mof_Zn	Zn	0.3908	0.625	0.8592	1.211
Mof_Zn	Zn	0.6092	0.125	0.6408	1.211
Mof_Zn	Zn	0.875	0.1408	0.8908	1.211
Mof_Zn	Zn	0.375	0.3592	0.1092	1.211
Mof_Zn	Zn	0.125	0.6408	0.6092	1.211
Mof_Zn	Zn	0.625	0.8592	0.3908	1.211
Mof_Zn	Zn	0.6408	0.1092	0.875	1.211
Mof_Zn	Zn	0.8592	0.8908	0.375	1.211
Mof_Zn	Zn	0.3592	0.6092	0.625	1.211
Mof_Zn	Zn	0.1408	0.3908	0.125	1.211
Mof_Zn	Zn	0.875	0.6408	0.1092	1.211
Mof_Zn	Zn	0.375	0.8592	0.8908	1.211
Mof_Zn	Zn	0.625	0.3592	0.6092	1.211
Mof_Zn	Zn	0.125	0.1408	0.3908	1.211
Mof_Zn	Zn	0.1092	0.875	0.6408	1.211
Mof_Zn	Zn	0.8908	0.375	0.8592	1.211
Mof_Zn	Zn	0.6092	0.625	0.3592	1.211
Mof_Zn	Zn	0.3908	0.125	0.1408	1.211
Mof_Zn	Zn	0.3592	0.3908	0.875	1.211
Mof_Zn	Zn	0.1408	0.6092	0.375	1.211
Mof_Zn	Zn	0.8592	0.1092	0.125	1.211
Mof_Zn	Zn	0.6408	0.8908	0.625	1.211
Mof_Zn	Zn	0.8908	0.625	0.6408	1.211
Mof_Zn	Zn	0.1092	0.125	0.8592	1.211
Mof_Zn	Zn	0.6092	0.375	0.1408	1.211
Mof_Zn	Zn	0.3908	0.875	0.3592	1.211
Mof_Zn	Zn	0.125	0.8592	0.1092	1.211
Mof_Zn	Zn	0.625	0.6408	0.8908	1.211
Mof_Zn	Zn	0.875	0.3592	0.3908	1.211
Mof_Zn	Zn	0.375	0.1408	0.6092	1.211
_end
