# CIF file generated by openbabel 3.1.0, see https://openbabel.org
data_I
_chemical_name_common 'image0'
_cell_length_a 17.6286
_cell_length_b 13.0929
_cell_length_c 11.0727
_cell_angle_alpha 90
_cell_angle_beta 95.599
_cell_angle_gamma 90
_space_group_name_H-M_alt 'P 1'
_space_group_name_Hall 'P 1'
loop_
    _symmetry_equiv_pos_as_xyz
    x,y,z
loop_
    _atom_site_label
    _atom_site_type_symbol
    _atom_site_fract_x
    _atom_site_fract_y
    _atom_site_fract_z
    _atom_site_occupancy
    Co1      Co       0.57870    0.56424    0.99732    1.000
    N1       N        0.86950    0.93980    0.16330    1.000
    N2       N        0.90680    0.98640    0.25600    1.000
    N3       N        0.87320    0.97680    0.35710    1.000
    C1       C        0.80860    0.89230    0.20850    1.000
    C2       C        0.81190    0.91590    0.33040    1.000
    C3       C        0.75810    0.87800    0.40240    1.000
    H1       H        0.76170    0.89070    0.48540    1.000
    C4       C        0.69990    0.82170    0.34690    1.000
    H2       H        0.66150    0.79890    0.39230    1.000
    C5       C        0.69610    0.79660    0.22140    1.000
    C6       C        0.74920    0.83220    0.14970    1.000
    H3       H        0.74640    0.81790    0.06710    1.000
    C7       C        0.63310    0.72670    0.17110    1.000
    O1       O        0.47900    0.57720    0.06740    1.000
    H4       H        0.46500    0.63500    0.01600    1.000
    O2       O        0.63630    0.69240    0.06470    1.000
    O3       O        0.58150    0.70850    0.23890    1.000
    Co2      Co       0.07870    0.06424    0.99732    1.000
    N4       N        0.36950    0.43980    0.16330    1.000
    N5       N        0.40680    0.48640    0.25600    1.000
    N6       N        0.37320    0.47680    0.35710    1.000
    C8       C        0.30860    0.39230    0.20850    1.000
    C9       C        0.31190    0.41590    0.33040    1.000
    C10      C        0.25810    0.37800    0.40240    1.000
    H5       H        0.26170    0.39070    0.48540    1.000
    C11      C        0.19990    0.32170    0.34690    1.000
    H6       H        0.16150    0.29890    0.39230    1.000
    C12      C        0.19610    0.29660    0.22140    1.000
    C13      C        0.24920    0.33220    0.14970    1.000
    H7       H        0.24640    0.31790    0.06710    1.000
    C14      C        0.13310    0.22670    0.17110    1.000
    O4       O        0.97900    0.07720    0.06740    1.000
    H8       H        0.96500    0.13500    0.01600    1.000
    O5       O        0.13630    0.19240    0.06470    1.000
    O6       O        0.08150    0.20850    0.23890    1.000
    Co3      Co       0.42130    0.56424    0.50268    1.000
    N7       N        0.13050    0.93980    0.33670    1.000
    N8       N        0.09320    0.98640    0.24400    1.000
    N9       N        0.12680    0.97680    0.14290    1.000
    C15      C        0.19140    0.89230    0.29150    1.000
    C16      C        0.18810    0.91590    0.16960    1.000
    C17      C        0.24190    0.87800    0.09760    1.000
    H9       H        0.23830    0.89070    0.01460    1.000
    C18      C        0.30010    0.82170    0.15310    1.000
    H10      H        0.33850    0.79890    0.10770    1.000
    C19      C        0.30390    0.79660    0.27860    1.000
    C20      C        0.25080    0.83220    0.35030    1.000
    H11      H        0.25360    0.81790    0.43290    1.000
    C21      C        0.36690    0.72670    0.32890    1.000
    O7       O        0.52100    0.57720    0.43260    1.000
    H12      H        0.53500    0.63500    0.48400    1.000
    O8       O        0.36370    0.69240    0.43530    1.000
    O9       O        0.41850    0.70850    0.26110    1.000
    Co4      Co       0.92130    0.06424    0.50268    1.000
    N10      N        0.63050    0.43980    0.33670    1.000
    N11      N        0.59320    0.48640    0.24400    1.000
    N12      N        0.62680    0.47680    0.14290    1.000
    C22      C        0.69140    0.39230    0.29150    1.000
    C23      C        0.68810    0.41590    0.16960    1.000
    C24      C        0.74190    0.37800    0.09760    1.000
    H13      H        0.73830    0.39070    0.01460    1.000
    C25      C        0.80010    0.32170    0.15310    1.000
    H14      H        0.83850    0.29890    0.10770    1.000
    C26      C        0.80390    0.29660    0.27860    1.000
    C27      C        0.75080    0.33220    0.35030    1.000
    H15      H        0.75360    0.31790    0.43290    1.000
    C28      C        0.86690    0.22670    0.32890    1.000
    O10      O        0.02100    0.07720    0.43260    1.000
    H16      H        0.03500    0.13500    0.48400    1.000
    O11      O        0.86370    0.19240    0.43530    1.000
    O12      O        0.91850    0.20850    0.26110    1.000
    Co5      Co       0.42130    0.43576    0.00268    1.000
    N13      N        0.13050    0.06020    0.83670    1.000
    N14      N        0.09320    0.01360    0.74400    1.000
    N15      N        0.12680    0.02320    0.64290    1.000
    C29      C        0.19140    0.10770    0.79150    1.000
    C30      C        0.18810    0.08410    0.66960    1.000
    C31      C        0.24190    0.12200    0.59760    1.000
    H17      H        0.23830    0.10930    0.51460    1.000
    C32      C        0.30010    0.17830    0.65310    1.000
    H18      H        0.33850    0.20110    0.60770    1.000
    C33      C        0.30390    0.20340    0.77860    1.000
    C34      C        0.25080    0.16780    0.85030    1.000
    H19      H        0.25360    0.18210    0.93290    1.000
    C35      C        0.36690    0.27330    0.82890    1.000
    O13      O        0.52100    0.42280    0.93260    1.000
    H20      H        0.53500    0.36500    0.98400    1.000
    O14      O        0.36370    0.30760    0.93530    1.000
    O15      O        0.41850    0.29150    0.76110    1.000
    Co6      Co       0.92130    0.93576    0.00268    1.000
    N16      N        0.63050    0.56020    0.83670    1.000
    N17      N        0.59320    0.51360    0.74400    1.000
    N18      N        0.62680    0.52320    0.64290    1.000
    C36      C        0.69140    0.60770    0.79150    1.000
    C37      C        0.68810    0.58410    0.66960    1.000
    C38      C        0.74190    0.62200    0.59760    1.000
    H21      H        0.73830    0.60930    0.51460    1.000
    C39      C        0.80010    0.67830    0.65310    1.000
    H22      H        0.83850    0.70110    0.60770    1.000
    C40      C        0.80390    0.70340    0.77860    1.000
    C41      C        0.75080    0.66780    0.85030    1.000
    H23      H        0.75360    0.68210    0.93290    1.000
    C42      C        0.86690    0.77330    0.82890    1.000
    O16      O        0.02100    0.92280    0.93260    1.000
    H24      H        0.03500    0.86500    0.98400    1.000
    O17      O        0.86370    0.80760    0.93530    1.000
    O18      O        0.91850    0.79150    0.76110    1.000
    Co7      Co       0.57870    0.43576    0.49732    1.000
    N19      N        0.86950    0.06020    0.66330    1.000
    N20      N        0.90680    0.01360    0.75600    1.000
    N21      N        0.87320    0.02320    0.85710    1.000
    C43      C        0.80860    0.10770    0.70850    1.000
    C44      C        0.81190    0.08410    0.83040    1.000
    C45      C        0.75810    0.12200    0.90240    1.000
    H25      H        0.76170    0.10930    0.98540    1.000
    C46      C        0.69990    0.17830    0.84690    1.000
    H26      H        0.66150    0.20110    0.89230    1.000
    C47      C        0.69610    0.20340    0.72140    1.000
    C48      C        0.74920    0.16780    0.64970    1.000
    H27      H        0.74640    0.18210    0.56710    1.000
    C49      C        0.63310    0.27330    0.67110    1.000
    O19      O        0.47900    0.42280    0.56740    1.000
    H28      H        0.46500    0.36500    0.51600    1.000
    O20      O        0.63630    0.30760    0.56470    1.000
    O21      O        0.58150    0.29150    0.73890    1.000
    Co8      Co       0.07870    0.93576    0.49732    1.000
    N22      N        0.36950    0.56020    0.66330    1.000
    N23      N        0.40680    0.51360    0.75600    1.000
    N24      N        0.37320    0.52320    0.85710    1.000
    C50      C        0.30860    0.60770    0.70850    1.000
    C51      C        0.31190    0.58410    0.83040    1.000
    C52      C        0.25810    0.62200    0.90240    1.000
    H29      H        0.26170    0.60930    0.98540    1.000
    C53      C        0.19990    0.67830    0.84690    1.000
    H30      H        0.16150    0.70110    0.89230    1.000
    C54      C        0.19610    0.70340    0.72140    1.000
    C55      C        0.24920    0.66780    0.64970    1.000
    H31      H        0.24640    0.68210    0.56710    1.000
    C56      C        0.13310    0.77330    0.67110    1.000
    O22      O        0.97900    0.92280    0.56740    1.000
    H32      H        0.96500    0.86500    0.51600    1.000
    O23      O        0.13630    0.80760    0.56470    1.000
    O24      O        0.08150    0.79150    0.73890    1.000
    Co9      Co       0.50000    0.59353    0.25000    1.000
    Co10     Co       0.00000    0.09353    0.25000    1.000
    Co11     Co       0.50000    0.40647    0.75000    1.000
    Co12     Co       0.00000    0.90647    0.75000    1.000
