# CIF file generated by openbabel 3.1.0, see https://openbabel.org
data_I
_chemical_name_common 'image0'
_cell_length_a 26.166
_cell_length_b 26.166
_cell_length_c 6.8595
_cell_angle_alpha 90
_cell_angle_beta 90
_cell_angle_gamma 120
_space_group_name_H-M_alt 'P 1'
_space_group_name_Hall 'P 1'
loop_
    _symmetry_equiv_pos_as_xyz
    x,y,z
loop_
    _atom_site_label
    _atom_site_type_symbol
    _atom_site_fract_x
    _atom_site_fract_y
    _atom_site_fract_z
    _atom_site_occupancy
    Fe1      Fe       0.38189    0.35205    0.14370    1.000
    O1       O        0.32786    0.29573    0.36760    1.000
    O2       O        0.30104    0.22715    0.60190    1.000
    O3       O        0.35497    0.27380    0.00840    1.000
    C1       C        0.31930    0.24630    0.42920    1.000
    C2       C        0.32747    0.20628    0.28870    1.000
    C3       C        0.34380    0.22133    0.09240    1.000
    C4       C        0.35060    0.18166    0.97280    1.000
    H1       H        0.36190    0.19304    0.82880    1.000
    Fe2      Fe       0.04856    0.68538    0.47703    1.000
    O4       O        0.99453    0.62906    0.70093    1.000
    O5       O        0.96771    0.56048    0.93523    1.000
    O6       O        0.02164    0.60713    0.34173    1.000
    C5       C        0.98597    0.57963    0.76253    1.000
    C6       C        0.99414    0.53961    0.62203    1.000
    C7       C        0.01047    0.55466    0.42573    1.000
    C8       C        0.01727    0.51499    0.30613    1.000
    H2       H        0.02857    0.52637    0.16213    1.000
    Fe3      Fe       0.71522    0.01872    0.81037    1.000
    O7       O        0.66119    0.96240    0.03427    1.000
    O8       O        0.63437    0.89382    0.26857    1.000
    O9       O        0.68830    0.94047    0.67507    1.000
    C9       C        0.65263    0.91297    0.09587    1.000
    C10      C        0.66080    0.87295    0.95537    1.000
    C11      C        0.67713    0.88800    0.75907    1.000
    C12      C        0.68393    0.84833    0.63947    1.000
    H3       H        0.69523    0.85971    0.49547    1.000
    Fe4      Fe       0.64795    0.02984    0.14370    1.000
    O10      O        0.70427    0.03213    0.36760    1.000
    O11      O        0.77285    0.07389    0.60190    1.000
    O12      O        0.72620    0.08117    0.00840    1.000
    C13      C        0.75370    0.07300    0.42920    1.000
    C14      C        0.79372    0.12119    0.28870    1.000
    C15      C        0.77867    0.12247    0.09240    1.000
    C16      C        0.81834    0.16894    0.97280    1.000
    H4       H        0.80696    0.16886    0.82880    1.000
    Fe5      Fe       0.31462    0.36317    0.47703    1.000
    O13      O        0.37094    0.36546    0.70093    1.000
    O14      O        0.43952    0.40722    0.93523    1.000
    O15      O        0.39287    0.41450    0.34173    1.000
    C17      C        0.42037    0.40633    0.76253    1.000
    C18      C        0.46039    0.45452    0.62203    1.000
    C19      C        0.44534    0.45580    0.42573    1.000
    C20      C        0.48501    0.50227    0.30613    1.000
    H5       H        0.47363    0.50219    0.16213    1.000
    Fe6      Fe       0.98128    0.69651    0.81037    1.000
    O16      O        0.03760    0.69880    0.03427    1.000
    O17      O        0.10618    0.74056    0.26857    1.000
    O18      O        0.05953    0.74784    0.67507    1.000
    C21      C        0.08703    0.73967    0.09587    1.000
    C22      C        0.12705    0.78786    0.95537    1.000
    C23      C        0.11200    0.78914    0.75907    1.000
    C24      C        0.15167    0.83561    0.63947    1.000
    H6       H        0.14029    0.83553    0.49547    1.000
    Fe7      Fe       0.97016    0.61811    0.14370    1.000
    O19      O        0.96787    0.67214    0.36760    1.000
    O20      O        0.92611    0.69896    0.60190    1.000
    O21      O        0.91883    0.64503    0.00840    1.000
    C25      C        0.92700    0.68070    0.42920    1.000
    C26      C        0.87881    0.67253    0.28870    1.000
    C27      C        0.87753    0.65620    0.09240    1.000
    C28      C        0.83106    0.64940    0.97280    1.000
    H7       H        0.83114    0.63810    0.82880    1.000
    Fe8      Fe       0.63683    0.95144    0.47703    1.000
    O22      O        0.63454    0.00547    0.70093    1.000
    O23      O        0.59278    0.03229    0.93523    1.000
    O24      O        0.58550    0.97836    0.34173    1.000
    C29      C        0.59367    0.01403    0.76253    1.000
    C30      C        0.54548    0.00586    0.62203    1.000
    C31      C        0.54420    0.98953    0.42573    1.000
    C32      C        0.49773    0.98273    0.30613    1.000
    H8       H        0.49781    0.97143    0.16213    1.000
    Fe9      Fe       0.30349    0.28478    0.81037    1.000
    O25      O        0.30120    0.33881    0.03427    1.000
    O26      O        0.25944    0.36563    0.26857    1.000
    O27      O        0.25216    0.31170    0.67507    1.000
    C33      C        0.26033    0.34737    0.09587    1.000
    C34      C        0.21214    0.33920    0.95537    1.000
    C35      C        0.21086    0.32287    0.75907    1.000
    C36      C        0.16439    0.31607    0.63947    1.000
    H9       H        0.16447    0.30477    0.49547    1.000
    Fe10     Fe       0.61811    0.64795    0.85630    1.000
    O28      O        0.67214    0.70427    0.63240    1.000
    O29      O        0.69896    0.77285    0.39810    1.000
    O30      O        0.64503    0.72620    0.99160    1.000
    C37      C        0.68070    0.75370    0.57080    1.000
    C38      C        0.67253    0.79372    0.71130    1.000
    C39      C        0.65620    0.77867    0.90760    1.000
    C40      C        0.64940    0.81834    0.02720    1.000
    H10      H        0.63810    0.80696    0.17120    1.000
    Fe11     Fe       0.28478    0.98128    0.18963    1.000
    O31      O        0.33881    0.03760    0.96573    1.000
    O32      O        0.36563    0.10618    0.73143    1.000
    O33      O        0.31170    0.05953    0.32493    1.000
    C41      C        0.34737    0.08703    0.90413    1.000
    C42      C        0.33920    0.12705    0.04463    1.000
    C43      C        0.32287    0.11200    0.24093    1.000
    C44      C        0.31607    0.15167    0.36053    1.000
    H11      H        0.30477    0.14029    0.50453    1.000
    Fe12     Fe       0.95144    0.31462    0.52297    1.000
    O34      O        0.00547    0.37094    0.29907    1.000
    O35      O        0.03229    0.43952    0.06477    1.000
    O36      O        0.97836    0.39287    0.65827    1.000
    C45      C        0.01403    0.42037    0.23747    1.000
    C46      C        0.00586    0.46039    0.37797    1.000
    C47      C        0.98953    0.44534    0.57427    1.000
    C48      C        0.98273    0.48501    0.69387    1.000
    H12      H        0.97143    0.47363    0.83787    1.000
    Fe13     Fe       0.35205    0.97016    0.85630    1.000
    O37      O        0.29573    0.96787    0.63240    1.000
    O38      O        0.22715    0.92611    0.39810    1.000
    O39      O        0.27380    0.91883    0.99160    1.000
    C49      C        0.24630    0.92700    0.57080    1.000
    C50      C        0.20628    0.87881    0.71130    1.000
    C51      C        0.22133    0.87753    0.90760    1.000
    C52      C        0.18166    0.83106    0.02720    1.000
    H13      H        0.19304    0.83114    0.17120    1.000
    Fe14     Fe       0.01872    0.30349    0.18963    1.000
    O40      O        0.96240    0.30120    0.96573    1.000
    O41      O        0.89382    0.25944    0.73143    1.000
    O42      O        0.94047    0.25216    0.32493    1.000
    C53      C        0.91297    0.26033    0.90413    1.000
    C54      C        0.87295    0.21214    0.04463    1.000
    C55      C        0.88800    0.21086    0.24093    1.000
    C56      C        0.84833    0.16439    0.36053    1.000
    H14      H        0.85971    0.16447    0.50453    1.000
    Fe15     Fe       0.68538    0.63683    0.52297    1.000
    O43      O        0.62906    0.63454    0.29907    1.000
    O44      O        0.56048    0.59278    0.06477    1.000
    O45      O        0.60713    0.58550    0.65827    1.000
    C57      C        0.57963    0.59367    0.23747    1.000
    C58      C        0.53961    0.54548    0.37797    1.000
    C59      C        0.55466    0.54420    0.57427    1.000
    C60      C        0.51499    0.49773    0.69387    1.000
    H15      H        0.52637    0.49781    0.83787    1.000
    Fe16     Fe       0.02984    0.38189    0.85630    1.000
    O46      O        0.03213    0.32786    0.63240    1.000
    O47      O        0.07389    0.30104    0.39810    1.000
    O48      O        0.08117    0.35497    0.99160    1.000
    C61      C        0.07300    0.31930    0.57080    1.000
    C62      C        0.12119    0.32747    0.71130    1.000
    C63      C        0.12247    0.34380    0.90760    1.000
    C64      C        0.16894    0.35060    0.02720    1.000
    H16      H        0.16886    0.36190    0.17120    1.000
    Fe17     Fe       0.69651    0.71522    0.18963    1.000
    O49      O        0.69880    0.66119    0.96573    1.000
    O50      O        0.74056    0.63437    0.73143    1.000
    O51      O        0.74784    0.68830    0.32493    1.000
    C65      C        0.73967    0.65263    0.90413    1.000
    C66      C        0.78786    0.66080    0.04463    1.000
    C67      C        0.78914    0.67713    0.24093    1.000
    C68      C        0.83561    0.68393    0.36053    1.000
    H17      H        0.83553    0.69523    0.50453    1.000
    Fe18     Fe       0.36317    0.04856    0.52297    1.000
    O52      O        0.36546    0.99453    0.29907    1.000
    O53      O        0.40722    0.96771    0.06477    1.000
    O54      O        0.41450    0.02164    0.65827    1.000
    C69      C        0.40633    0.98597    0.23747    1.000
    C70      C        0.45452    0.99414    0.37797    1.000
    C71      C        0.45580    0.01047    0.57427    1.000
    C72      C        0.50227    0.01727    0.69387    1.000
    H18      H        0.50219    0.02857    0.83787    1.000
