data_functionalizedCrystal
_audit_creation_method	'EQeq! by Chris Wilmer'
_symmetry_space_group_name_H-M	'P1'
_symmetry_Int_Tables_number	1
_symmetry_cell_setting	triclinic
loop_
_symmetry_equiv_pos_as_xyz
  x,y,z
_cell_length_a	22.3992
_cell_length_b	22.3992
_cell_length_c	22.3992
_cell_angle_alpha	109.471
_cell_angle_beta	109.471
_cell_angle_gamma	109.471
loop_
_atom_site_label
_atom_site_type_symbol
_atom_site_fract_x
_atom_site_fract_y
_atom_site_fract_z
_atom_site_charge
Mof_Zn	Zn	0.5	0.96262	0.5	1.223
Mof_Zn	Zn	0.5	0.80562	0.5	1.2
Mof_Zn	Zn	0.96262	0	-0	1.204
Mof_Zn	Zn	0.80562	0	-0	1.178
Mof_Zn	Zn	0.53738	0.53738	0.03738	1.211
Mof_Zn	Zn	0.69438	0.69438	0.19438	1.2
Mof_Zn	Zn	-2.62822e-17	0.5	0.46262	1.207
Mof_Zn	Zn	-6.57054e-18	0.5	0.30562	1.19
Mof_Zn	Zn	0.5	0.46262	0.5	1.218
Mof_Zn	Zn	0.5	0.30562	0.5	1.199
Mof_Zn	Zn	0.46262	0	-0	1.197
Mof_Zn	Zn	0.30562	0	-0	1.179
Mof_Zn	Zn	7.88465e-17	0.5	0.96262	1.214
Mof_Zn	Zn	2.62822e-17	0.5	0.80562	1.186
Mof_Zn	Zn	0.03738	0.03738	0.53738	1.206
Mof_Zn	Zn	0.19438	0.19438	0.69438	1.199
Mof_H 	H 	0.6769	0.9979	0.4636	-0.019
Mof_H 	H 	0.7933	0.0482	0.4803	0.099
Mof_H 	H 	0.8517	0.9723	0.618	0.102
Mof_H 	H 	0.7345	0.9192	0.5959	-0.006
Mof_H 	H 	0.9214	0.0875	0.5509	0.095
Mof_H 	H 	0.9479	0.0631	0.6096	0.093
Mof_H 	H 	0.8543	0.8966	0.4951	0.066
Mof_H 	H 	0.9328	0.9421	0.5675	0.075
Mof_H 	H 	0.8429	0.9913	0.4296	0.038
Mof_H 	H 	0.8543	0.9231	0.3984	0.018
Mof_H 	H 	0.0343	0.2133	0.0364	-0.038
Mof_H 	H 	0.0679	0.313	0.0197	0.047
Mof_H 	H 	0.8543	0.2337	0.882	0.096
Mof_H 	H 	0.8233	0.1386	0.9041	-0.005
Mof_H 	H 	0.0366	0.3705	0.9491	0.05
Mof_H 	H 	0.9535	0.3383	0.8904	0.062
Mof_H 	H 	0.9015	0.3592	0.0049	-0.008
Mof_H 	H 	0.8746	0.3653	0.9325	0.019
Mof_H 	H 	0.0617	0.4133	0.0704	0.048
Mof_H 	H 	0.0247	0.4559	0.1016	0.035
Mof_H 	H 	0.4657	0.5021	0.179	-0.018
Mof_H 	H 	0.4321	0.4518	0.2451	0.087
Mof_H 	H 	0.6457	0.5277	0.3794	0.1
Mof_H 	H 	0.6767	0.5808	0.3153	-0.009
Mof_H 	H 	0.4634	0.4125	0.3339	0.085
Mof_H 	H 	0.5465	0.4369	0.3848	0.078
Mof_H 	H 	0.5985	0.6034	0.4577	0.061
Mof_H 	H 	0.6254	0.5579	0.4907	0.057
Mof_H 	H 	0.4383	0.5087	0.3516	0.047
Mof_H 	H 	0.4753	0.5769	0.4312	0.036
Mof_H 	H 	0.8231	0.2867	0.321	-0.011
Mof_H 	H 	0.7067	0.187	0.2549	0.085
Mof_H 	H 	0.6483	0.2663	0.1206	0.093
Mof_H 	H 	0.7655	0.3614	0.1847	-0.01
Mof_H 	H 	0.5786	0.1295	0.1661	0.082
Mof_H 	H 	0.5521	0.1617	0.1152	0.075
Mof_H 	H 	0.6457	0.1408	0.0423	0.066
Mof_H 	H 	0.5672	0.1347	0.0093	0.056
Mof_H 	H 	0.6571	0.0867	0.1484	0.056
Mof_H 	H 	0.6457	0.0441	0.0688	0.032
Mof_H 	H 	0.679	0.4657	0.0021	-0.007
Mof_H 	H 	0.7451	0.4321	0.9518	0.08
Mof_H 	H 	0.8794	0.6457	0.0277	0.109
Mof_H 	H 	0.8153	0.6767	0.0808	-0.013
Mof_H 	H 	0.8339	0.4634	0.9125	0.084
Mof_H 	H 	0.8848	0.5465	0.9369	0.082
Mof_H 	H 	0.9577	0.5985	0.1034	0.054
Mof_H 	H 	0.9907	0.6254	0.0579	0.05
Mof_H 	H 	0.8516	0.4383	0.0087	0.06
Mof_H 	H 	0.9312	0.4753	0.0769	0.068
Mof_H 	H 	0.821	0.8231	0.7867	-0.006
Mof_H 	H 	0.7549	0.7067	0.687	0.09
Mof_H 	H 	0.6206	0.6483	0.7663	0.099
Mof_H 	H 	0.6847	0.7655	0.8614	-0.003
Mof_H 	H 	0.6661	0.5786	0.6295	0.087
Mof_H 	H 	0.6152	0.5521	0.6617	0.079
Mof_H 	H 	0.5423	0.6457	0.6408	0.062
Mof_H 	H 	0.5093	0.5672	0.6347	0.057
Mof_H 	H 	0.6484	0.6571	0.5867	0.049
Mof_H 	H 	0.5688	0.6457	0.5441	0.036
Mof_H 	H 	0.9636	0.6769	0.4979	-0.089
Mof_H 	H 	0.9803	0.7933	0.5482	0.204
Mof_H 	H 	0.118	0.8517	0.4723	0.144
Mof_H 	H 	0.0959	0.7345	0.4192	-0.055
Mof_H 	H 	0.0509	0.9214	0.5875	0.104
Mof_H 	H 	0.1096	0.9479	0.5631	0.11
Mof_H 	H 	0.9951	0.8543	0.3966	0.131
Mof_H 	H 	0.0675	0.9328	0.4421	0.101
Mof_H 	H 	0.9296	0.8429	0.4913	0.048
Mof_H 	H 	0.8984	0.8543	0.4231	0.034
Mof_H 	H 	0.5364	0.0343	0.7133	-0.092
Mof_H 	H 	0.5197	0.0679	0.813	0.147
Mof_H 	H 	0.382	0.8543	0.7337	0.128
Mof_H 	H 	0.4041	0.8233	0.6386	-0.038
Mof_H 	H 	0.4491	0.0366	0.8705	0.078
Mof_H 	H 	0.3904	0.9535	0.8383	0.085
Mof_H 	H 	0.5049	0.9015	0.8592	0.066
Mof_H 	H 	0.4325	0.8746	0.8653	0.059
Mof_H 	H 	0.5704	0.0617	0.9133	0.039
Mof_H 	H 	0.6016	0.0247	0.9559	0.029
Mof_H 	H 	0.2133	0.5364	0.5343	-0.014
Mof_H 	H 	0.313	0.5197	0.5679	0.09
Mof_H 	H 	0.2337	0.382	0.3543	0.099
Mof_H 	H 	0.1386	0.4041	0.3233	-0.016
Mof_H 	H 	0.3705	0.4491	0.5366	0.086
Mof_H 	H 	0.3383	0.3904	0.4535	0.078
Mof_H 	H 	0.3592	0.5049	0.4015	0.06
Mof_H 	H 	0.3653	0.4325	0.3746	0.056
Mof_H 	H 	0.4133	0.5704	0.5617	0.048
Mof_H 	H 	0.4559	0.6016	0.5247	0.036
Mof_H 	H 	0.9979	0.9636	0.1769	-0.082
Mof_H 	H 	0.0482	0.9803	0.2933	0.189
Mof_H 	H 	0.9723	0.118	0.3517	0.129
Mof_H 	H 	0.9192	0.0959	0.2345	-0.042
Mof_H 	H 	0.0875	0.0509	0.4214	0.099
Mof_H 	H 	0.0631	0.1096	0.4479	0.095
Mof_H 	H 	0.8966	0.9951	0.3543	0.118
Mof_H 	H 	0.9421	0.0675	0.4328	0.09
Mof_H 	H 	0.9913	0.9296	0.3429	0.036
Mof_H 	H 	0.9231	0.8984	0.3543	0.01
Mof_H 	H 	0.2867	0.821	0.3231	-0.009
Mof_H 	H 	0.187	0.7549	0.2067	0.085
Mof_H 	H 	0.2663	0.6206	0.1483	0.094
Mof_H 	H 	0.3614	0.6847	0.2655	-0.009
Mof_H 	H 	0.1295	0.6661	0.0786	0.075
Mof_H 	H 	0.1617	0.6152	0.0521	0.065
Mof_H 	H 	0.1408	0.5423	0.1457	0.054
Mof_H 	H 	0.1347	0.5093	0.0672	0.04
Mof_H 	H 	0.0867	0.6484	0.1571	0.056
Mof_H 	H 	0.0441	0.5688	0.1457	0.038
Mof_H 	H 	0.5021	0.679	0.9657	0.088
Mof_H 	H 	0.4518	0.7451	0.9321	0.021
Mof_H 	H 	0.5277	0.8794	0.1457	0.068
Mof_H 	H 	0.5808	0.8153	0.1767	0.028
Mof_H 	H 	0.4125	0.8339	0.9634	0.104
Mof_H 	H 	0.4369	0.8848	0.0465	0.075
Mof_H 	H 	0.6034	0.9577	0.0985	0.052
Mof_H 	H 	0.5579	0.9907	0.1254	0.057
Mof_H 	H 	0.5087	0.8516	0.9383	0.047
Mof_H 	H 	0.5769	0.9312	0.9753	0.046
Mof_H 	H 	0.7133	0.5343	0.5364	-0.013
Mof_H 	H 	0.813	0.5679	0.5197	0.094
Mof_H 	H 	0.7337	0.3543	0.382	0.1
Mof_H 	H 	0.6386	0.3233	0.4041	-0.012
Mof_H 	H 	0.8705	0.5366	0.4491	0.092
Mof_H 	H 	0.8383	0.4535	0.3904	0.08
Mof_H 	H 	0.8592	0.4015	0.5049	0.064
Mof_H 	H 	0.8653	0.3746	0.4325	0.06
Mof_H 	H 	0.9133	0.5617	0.5704	0.04
Mof_H 	H 	0.9559	0.5247	0.6016	0.032
Mof_H 	H 	0.4979	0.1769	0.9636	-0.094
Mof_H 	H 	0.5482	0.2933	0.9803	0.207
Mof_H 	H 	0.4723	0.3517	0.118	0.141
Mof_H 	H 	0.4192	0.2345	0.0959	-0.058
Mof_H 	H 	0.5875	0.4214	0.0509	0.1
Mof_H 	H 	0.5631	0.4479	0.1096	0.1
Mof_H 	H 	0.3966	0.3543	0.9951	0.129
Mof_H 	H 	0.4421	0.4328	0.0675	0.091
Mof_H 	H 	0.4913	0.3429	0.9296	0.048
Mof_H 	H 	0.4231	0.3543	0.8984	0.032
Mof_H 	H 	0.7867	0.3231	0.821	-0.007
Mof_H 	H 	0.687	0.2067	0.7549	0.089
Mof_H 	H 	0.7663	0.1483	0.6206	0.095
Mof_H 	H 	0.8614	0.2655	0.6847	-0.004
Mof_H 	H 	0.6295	0.0786	0.6661	0.081
Mof_H 	H 	0.6617	0.0521	0.6152	0.068
Mof_H 	H 	0.6408	0.1457	0.5423	0.058
Mof_H 	H 	0.6347	0.0672	0.5093	0.046
Mof_H 	H 	0.5867	0.1571	0.6484	0.049
Mof_H 	H 	0.5441	0.1457	0.5688	0.034
Mof_H 	H 	0.0021	0.9657	0.679	0.067
Mof_H 	H 	0.9518	0.9321	0.7451	0.029
Mof_H 	H 	0.0277	0.1457	0.8794	0.082
Mof_H 	H 	0.0808	0.1767	0.8153	0.013
Mof_H 	H 	0.9125	0.9634	0.8339	0.1
Mof_H 	H 	0.9369	0.0465	0.8848	0.079
Mof_H 	H 	0.1034	0.0985	0.9577	0.05
Mof_H 	H 	0.0579	0.1254	0.9907	0.051
Mof_H 	H 	0.0087	0.9383	0.8516	0.06
Mof_H 	H 	0.0769	0.9753	0.9312	0.07
Mof_H 	H 	0.1769	0.4636	0.9979	-0.022
Mof_H 	H 	0.2933	0.4803	0.0482	0.098
Mof_H 	H 	0.3517	0.618	0.9723	0.096
Mof_H 	H 	0.2345	0.5959	0.9192	-0.006
Mof_H 	H 	0.4214	0.5509	0.0875	0.089
Mof_H 	H 	0.4479	0.6096	0.0631	0.079
Mof_H 	H 	0.3543	0.4951	0.8966	0.062
Mof_H 	H 	0.4328	0.5675	0.9421	0.062
Mof_H 	H 	0.3429	0.4296	0.9913	0.035
Mof_H 	H 	0.3543	0.3984	0.9231	0.012
Mof_H 	H 	0.5343	0.0364	0.2133	0.048
Mof_H 	H 	0.5679	0.0197	0.313	-0.004
Mof_H 	H 	0.3543	0.882	0.2337	0.066
Mof_H 	H 	0.3233	0.9041	0.1386	0.021
Mof_H 	H 	0.5366	0.9491	0.3705	0.076
Mof_H 	H 	0.4535	0.8904	0.3383	0.062
Mof_H 	H 	0.4015	0.0049	0.3592	0.005
Mof_H 	H 	0.3746	0.9325	0.3653	0.029
Mof_H 	H 	0.5617	0.0704	0.4133	0.047
Mof_H 	H 	0.5247	0.1016	0.4559	0.038
Mof_H 	H 	0.9657	0.179	0.5021	0.088
Mof_H 	H 	0.9321	0.2451	0.4518	0.016
Mof_H 	H 	0.1457	0.3794	0.5277	0.062
Mof_H 	H 	0.1767	0.3153	0.5808	0.027
Mof_H 	H 	0.9634	0.3339	0.4125	0.107
Mof_H 	H 	0.0465	0.3848	0.4369	0.073
Mof_H 	H 	0.0985	0.4577	0.6034	0.057
Mof_H 	H 	0.1254	0.4907	0.5579	0.058
Mof_H 	H 	0.9383	0.3516	0.5087	0.047
Mof_H 	H 	0.9753	0.4312	0.5769	0.04
Mof_H 	H 	0.3231	0.321	0.2867	-0.013
Mof_H 	H 	0.2067	0.2549	0.187	0.083
Mof_H 	H 	0.1483	0.1206	0.2663	0.09
Mof_H 	H 	0.2655	0.1847	0.3614	-0.011
Mof_H 	H 	0.0786	0.1661	0.1295	0.075
Mof_H 	H 	0.0521	0.1152	0.1617	0.063
Mof_H 	H 	0.1457	0.0423	0.1408	0.06
Mof_H 	H 	0.0672	0.0093	0.1347	0.043
Mof_H 	H 	0.1571	0.1484	0.0867	0.056
Mof_H 	H 	0.1457	0.0688	0.0441	0.032
Mof_H 	H 	0.179	0.0021	0.4657	-0.013
Mof_H 	H 	0.2451	0.9518	0.4321	0.08
Mof_H 	H 	0.3794	0.0277	0.6457	0.104
Mof_H 	H 	0.3153	0.0808	0.6767	-0.014
Mof_H 	H 	0.3339	0.9125	0.4634	0.084
Mof_H 	H 	0.3848	0.9369	0.5465	0.079
Mof_H 	H 	0.4577	0.1034	0.5985	0.06
Mof_H 	H 	0.4907	0.0579	0.6254	0.053
Mof_H 	H 	0.3516	0.0087	0.4383	0.057
Mof_H 	H 	0.4312	0.0769	0.4753	0.054
Mof_H 	H 	0.321	0.7867	0.8231	-0.011
Mof_H 	H 	0.2549	0.687	0.7067	0.088
Mof_H 	H 	0.1206	0.7663	0.6483	0.094
Mof_H 	H 	0.1847	0.8614	0.7655	-0.007
Mof_H 	H 	0.1661	0.6295	0.5786	0.086
Mof_H 	H 	0.1152	0.6617	0.5521	0.076
Mof_H 	H 	0.0423	0.6408	0.6457	0.068
Mof_H 	H 	0.0093	0.6347	0.5672	0.059
Mof_H 	H 	0.1484	0.5867	0.6571	0.048
Mof_H 	H 	0.0688	0.5441	0.6457	0.027
Mof_H 	H 	0.4636	0.4979	0.6769	-0.015
Mof_H 	H 	0.4803	0.5482	0.7933	0.091
Mof_H 	H 	0.618	0.4723	0.8517	0.106
Mof_H 	H 	0.5959	0.4192	0.7345	-0.011
Mof_H 	H 	0.5509	0.5875	0.9214	0.094
Mof_H 	H 	0.6096	0.5631	0.9479	0.093
Mof_H 	H 	0.4951	0.3966	0.8543	0.065
Mof_H 	H 	0.5675	0.4421	0.9328	0.07
Mof_H 	H 	0.4296	0.4913	0.8429	0.047
Mof_H 	H 	0.3984	0.4231	0.8543	0.036
Mof_H 	H 	0.0364	0.7133	0.0343	-0.035
Mof_H 	H 	0.0197	0.813	0.0679	0.053
Mof_H 	H 	0.882	0.7337	0.8543	0.097
Mof_H 	H 	0.9041	0.6386	0.8233	-0.002
Mof_H 	H 	0.9491	0.8705	0.0366	0.057
Mof_H 	H 	0.8904	0.8383	0.9535	0.065
Mof_H 	H 	0.0049	0.8592	0.9015	-0.007
Mof_H 	H 	0.9325	0.8653	0.8746	0.022
Mof_H 	H 	0.0704	0.9133	0.0617	0.041
Mof_H 	H 	0.1016	0.9559	0.0247	0.032
Mof_C 	C 	0.6161	0.918	0.5121	0.459
Mof_C 	C 	0.6932	0.9513	0.5259	-0.224
Mof_C 	C 	0.7125	0.9912	0.4937	0.178
Mof_C 	C 	0.7816	0.0215	0.5039	-0.257
Mof_C 	C 	0.8355	0.0133	0.5496	0.146
Mof_C 	C 	0.8158	0.9762	0.5846	-0.186
Mof_C 	C 	0.7466	0.9455	0.5721	0.137
Mof_C 	C 	0.9115	0.0451	0.5588	-0.219
Mof_C 	C 	0.9074	0.9265	0.5149	-0.121
Mof_C 	C 	0.8803	0.9765	0.4324	0.003
Mof_C 	C 	0.9059	0.104	0.9879	0.499
Mof_C 	C 	0.9254	0.1673	0.9741	-0.178
Mof_C 	C 	0.9975	0.2188	0.0063	0.106
Mof_C 	C 	0.0176	0.2777	0.9961	-0.169
Mof_C 	C 	0.9637	0.2859	0.9504	0.164
Mof_C 	C 	0.8916	0.2312	0.9154	-0.195
Mof_C 	C 	0.8734	0.1745	0.9279	0.124
Mof_C 	C 	0.9863	0.3527	0.9412	-0.111
Mof_C 	C 	0.9116	0.3925	0.9851	0.041
Mof_C 	C 	0.0441	0.4479	0.0676	-0.133
Mof_C 	C 	0.5941	0.582	0.1981	0.452
Mof_C 	C 	0.5746	0.5487	0.2419	-0.217
Mof_C 	C 	0.5025	0.5088	0.2213	0.124
Mof_C 	C 	0.4824	0.4785	0.2601	-0.209
Mof_C 	C 	0.5363	0.4867	0.3222	0.16
Mof_C 	C 	0.6084	0.5238	0.3396	-0.218
Mof_C 	C 	0.6266	0.5545	0.3011	0.137
Mof_C 	C 	0.5137	0.4549	0.3664	-0.191
Mof_C 	C 	0.5884	0.5735	0.4809	-0.112
Mof_C 	C 	0.4559	0.5235	0.4038	-0.073
Mof_C 	C 	0.8839	0.396	0.3019	0.446
Mof_C 	C 	0.8068	0.3327	0.2581	-0.21
Mof_C 	C 	0.7875	0.2812	0.2787	0.119
Mof_C 	C 	0.7184	0.2223	0.2399	-0.203
Mof_C 	C 	0.6645	0.2141	0.1778	0.155
Mof_C 	C 	0.6842	0.2688	0.1604	-0.213
Mof_C 	C 	0.7534	0.3255	0.1989	0.13
Mof_C 	C 	0.5885	0.1473	0.1336	-0.19
Mof_C 	C 	0.5926	0.1075	0.0191	-0.161
Mof_C 	C 	0.6197	0.0521	0.0962	-0.12
Mof_C 	C 	0.6981	0.5941	0.082	0.445
Mof_C 	C 	0.7419	0.5746	0.0487	-0.207
Mof_C 	C 	0.7213	0.5025	0.0088	0.061
Mof_C 	C 	0.7601	0.4824	0.9785	-0.149
Mof_C 	C 	0.8222	0.5363	0.9867	0.189
Mof_C 	C 	0.8396	0.6084	0.0238	-0.264
Mof_C 	C 	0.8011	0.6266	0.0545	0.144
Mof_C 	C 	0.8664	0.5137	0.9549	-0.166
Mof_C 	C 	0.9809	0.5884	0.0735	-0.068
Mof_C 	C 	0.9038	0.4559	0.0235	-0.168
Mof_C 	C 	0.8019	0.8839	0.896	0.444
Mof_C 	C 	0.7581	0.8068	0.8327	-0.204
Mof_C 	C 	0.7787	0.7875	0.7812	0.119
Mof_C 	C 	0.7399	0.7184	0.7223	-0.201
Mof_C 	C 	0.6778	0.6645	0.7141	0.157
Mof_C 	C 	0.6604	0.6842	0.7688	-0.21
Mof_C 	C 	0.6989	0.7534	0.8255	0.131
Mof_C 	C 	0.6336	0.5885	0.6473	-0.19
Mof_C 	C 	0.5191	0.5926	0.6075	-0.113
Mof_C 	C 	0.5962	0.6197	0.5521	-0.073
Mof_C 	C 	0.0121	0.6161	0.418	0.455
Mof_C 	C 	0.0259	0.6932	0.4513	-0.371
Mof_C 	C 	0.9937	0.7125	0.4912	0.386
Mof_C 	C 	0.0039	0.7816	0.5215	-0.475
Mof_C 	C 	0.0496	0.8355	0.5133	0.293
Mof_C 	C 	0.0846	0.8158	0.4762	-0.353
Mof_C 	C 	0.0721	0.7466	0.4455	0.267
Mof_C 	C 	0.0588	0.9115	0.5451	-0.273
Mof_C 	C 	0.0149	0.9074	0.4265	-0.263
Mof_C 	C 	0.9324	0.8803	0.4765	-0.042
Mof_C 	C 	0.4879	0.9059	0.604	0.488
Mof_C 	C 	0.4741	0.9254	0.6673	-0.308
Mof_C 	C 	0.5063	0.9975	0.7188	0.314
Mof_C 	C 	0.4961	0.0176	0.7777	-0.381
Mof_C 	C 	0.4504	0.9637	0.7859	0.262
Mof_C 	C 	0.4154	0.8916	0.7312	-0.303
Mof_C 	C 	0.4279	0.8734	0.6745	0.227
Mof_C 	C 	0.4412	0.9863	0.8527	-0.197
Mof_C 	C 	0.4851	0.9116	0.8925	-0.117
Mof_C 	C 	0.5676	0.0441	0.9479	-0.038
Mof_C 	C 	0.104	0.4879	0.4059	0.454
Mof_C 	C 	0.1673	0.4741	0.4254	-0.219
Mof_C 	C 	0.2188	0.5063	0.4975	0.128
Mof_C 	C 	0.2777	0.4961	0.5176	-0.209
Mof_C 	C 	0.2859	0.4504	0.4637	0.162
Mof_C 	C 	0.2312	0.4154	0.3916	-0.221
Mof_C 	C 	0.1745	0.4279	0.3734	0.139
Mof_C 	C 	0.3527	0.4412	0.4863	-0.192
Mof_C 	C 	0.3925	0.4851	0.4116	-0.112
Mof_C 	C 	0.4479	0.5676	0.5441	-0.073
Mof_C 	C 	0.918	0.0121	0.1161	0.46
Mof_C 	C 	0.9513	0.0259	0.1932	-0.352
Mof_C 	C 	0.9912	0.9937	0.2125	0.396
Mof_C 	C 	0.0215	0.0039	0.2816	-0.476
Mof_C 	C 	0.0133	0.0496	0.3355	0.238
Mof_C 	C 	0.9762	0.0846	0.3158	-0.283
Mof_C 	C 	0.9455	0.0721	0.2466	0.237
Mof_C 	C 	0.0451	0.0588	0.4115	-0.275
Mof_C 	C 	0.9265	0.0149	0.4074	-0.226
Mof_C 	C 	0.9765	0.9324	0.3803	0.043
Mof_C 	C 	0.396	0.8019	0.3839	0.45
Mof_C 	C 	0.3327	0.7581	0.3068	-0.21
Mof_C 	C 	0.2812	0.7787	0.2875	0.119
Mof_C 	C 	0.2223	0.7399	0.2184	-0.201
Mof_C 	C 	0.2141	0.6778	0.1645	0.151
Mof_C 	C 	0.2688	0.6604	0.1842	-0.21
Mof_C 	C 	0.3255	0.6989	0.2534	0.13
Mof_C 	C 	0.1473	0.6336	0.0885	-0.182
Mof_C 	C 	0.1075	0.5191	0.0926	-0.092
Mof_C 	C 	0.0521	0.5962	0.1197	-0.12
Mof_C 	C 	0.582	0.6981	0.0941	0.407
Mof_C 	C 	0.5487	0.7419	0.0746	-0.096
Mof_C 	C 	0.5088	0.7213	0.0025	-0.117
Mof_C 	C 	0.4785	0.7601	0.9824	0.015
Mof_C 	C 	0.4867	0.8222	0.0363	0.032
Mof_C 	C 	0.5238	0.8396	0.1084	-0.108
Mof_C 	C 	0.5545	0.8011	0.1266	0.024
Mof_C 	C 	0.4549	0.8664	0.0137	-0.188
Mof_C 	C 	0.5735	0.9809	0.0884	-0.068
Mof_C 	C 	0.5235	0.9038	0.9559	-0.043
Mof_C 	C 	0.604	0.4059	0.4879	0.453
Mof_C 	C 	0.6673	0.4254	0.4741	-0.217
Mof_C 	C 	0.7188	0.4975	0.5063	0.128
Mof_C 	C 	0.7777	0.5176	0.4961	-0.21
Mof_C 	C 	0.7859	0.4637	0.4504	0.163
Mof_C 	C 	0.7312	0.3916	0.4154	-0.22
Mof_C 	C 	0.6745	0.3734	0.4279	0.139
Mof_C 	C 	0.8527	0.4863	0.4412	-0.194
Mof_C 	C 	0.8925	0.4116	0.4851	-0.12
Mof_C 	C 	0.9479	0.5441	0.5676	-0.021
Mof_C 	C 	0.418	0.1161	0.0121	0.454
Mof_C 	C 	0.4513	0.1932	0.0259	-0.379
Mof_C 	C 	0.4912	0.2125	0.9937	0.396
Mof_C 	C 	0.5215	0.2816	0.0039	-0.485
Mof_C 	C 	0.5133	0.3355	0.0496	0.294
Mof_C 	C 	0.4762	0.3158	0.0846	-0.356
Mof_C 	C 	0.4455	0.2466	0.0721	0.271
Mof_C 	C 	0.5451	0.4115	0.0588	-0.271
Mof_C 	C 	0.4265	0.4074	0.0149	-0.257
Mof_C 	C 	0.4765	0.3803	0.9324	-0.042
Mof_C 	C 	0.896	0.3839	0.8019	0.447
Mof_C 	C 	0.8327	0.3068	0.7581	-0.206
Mof_C 	C 	0.7812	0.2875	0.7787	0.118
Mof_C 	C 	0.7223	0.2184	0.7399	-0.2
Mof_C 	C 	0.7141	0.1645	0.6778	0.153
Mof_C 	C 	0.7688	0.1842	0.6604	-0.209
Mof_C 	C 	0.8255	0.2534	0.6989	0.129
Mof_C 	C 	0.6473	0.0885	0.6336	-0.185
Mof_C 	C 	0.6075	0.0926	0.5191	-0.103
Mof_C 	C 	0.5521	0.1197	0.5962	-0.073
Mof_C 	C 	0.082	0.0941	0.6981	0.411
Mof_C 	C 	0.0487	0.0746	0.7419	-0.119
Mof_C 	C 	0.0088	0.0025	0.7213	-0.117
Mof_C 	C 	0.9785	0.9824	0.7601	0.017
Mof_C 	C 	0.9867	0.0363	0.8222	0.091
Mof_C 	C 	0.0238	0.1084	0.8396	-0.181
Mof_C 	C 	0.0545	0.1266	0.8011	0.058
Mof_C 	C 	0.9549	0.0137	0.8664	-0.169
Mof_C 	C 	0.0735	0.0884	0.9809	-0.064
Mof_C 	C 	0.0235	0.9559	0.9038	-0.15
Mof_C 	C 	0.1161	0.5121	0.918	0.461
Mof_C 	C 	0.1932	0.5259	0.9513	-0.227
Mof_C 	C 	0.2125	0.4937	0.9912	0.187
Mof_C 	C 	0.2816	0.5039	0.0215	-0.264
Mof_C 	C 	0.3355	0.5496	0.0133	0.135
Mof_C 	C 	0.3158	0.5846	0.9762	-0.175
Mof_C 	C 	0.2466	0.5721	0.9455	0.133
Mof_C 	C 	0.4115	0.5588	0.0451	-0.216
Mof_C 	C 	0.4074	0.5149	0.9265	-0.108
Mof_C 	C 	0.3803	0.4324	0.9765	0.021
Mof_C 	C 	0.4059	0.9879	0.104	0.452
Mof_C 	C 	0.4254	0.9741	0.1673	-0.09
Mof_C 	C 	0.4975	0.0063	0.2188	-0.088
Mof_C 	C 	0.5176	0.9961	0.2777	0.011
Mof_C 	C 	0.4637	0.9504	0.2859	0.055
Mof_C 	C 	0.3916	0.9154	0.2312	-0.11
Mof_C 	C 	0.3734	0.9279	0.1745	0.032
Mof_C 	C 	0.4863	0.9412	0.3527	-0.13
Mof_C 	C 	0.4116	0.9851	0.3925	0.004
Mof_C 	C 	0.5441	0.0676	0.4479	-0.097
Mof_C 	C 	0.0941	0.1981	0.582	0.405
Mof_C 	C 	0.0746	0.2419	0.5487	-0.093
Mof_C 	C 	0.0025	0.2213	0.5088	-0.128
Mof_C 	C 	0.9824	0.2601	0.4785	0.024
Mof_C 	C 	0.0363	0.3222	0.4867	0.026
Mof_C 	C 	0.1084	0.3396	0.5238	-0.105
Mof_C 	C 	0.1266	0.3011	0.5545	0.017
Mof_C 	C 	0.0137	0.3664	0.4549	-0.192
Mof_C 	C 	0.0884	0.4809	0.5735	-0.113
Mof_C 	C 	0.9559	0.4038	0.5235	-0.041
Mof_C 	C 	0.3839	0.3019	0.396	0.45
Mof_C 	C 	0.3068	0.2581	0.3327	-0.213
Mof_C 	C 	0.2875	0.2787	0.2812	0.119
Mof_C 	C 	0.2184	0.2399	0.2223	-0.203
Mof_C 	C 	0.1645	0.1778	0.2141	0.151
Mof_C 	C 	0.1842	0.1604	0.2688	-0.211
Mof_C 	C 	0.2534	0.1989	0.3255	0.129
Mof_C 	C 	0.0885	0.1336	0.1473	-0.183
Mof_C 	C 	0.0926	0.0191	0.1075	-0.136
Mof_C 	C 	0.1197	0.0962	0.0521	-0.127
Mof_C 	C 	0.1981	0.082	0.5941	0.447
Mof_C 	C 	0.2419	0.0487	0.5746	-0.212
Mof_C 	C 	0.2213	0.0088	0.5025	0.076
Mof_C 	C 	0.2601	0.9785	0.4824	-0.165
Mof_C 	C 	0.3222	0.9867	0.5363	0.181
Mof_C 	C 	0.3396	0.0238	0.6084	-0.253
Mof_C 	C 	0.3011	0.0545	0.6266	0.141
Mof_C 	C 	0.3664	0.9549	0.5137	-0.173
Mof_C 	C 	0.4809	0.0735	0.5884	-0.115
Mof_C 	C 	0.4038	0.0235	0.4559	-0.148
Mof_C 	C 	0.3019	0.896	0.8839	0.444
Mof_C 	C 	0.2581	0.8327	0.8068	-0.208
Mof_C 	C 	0.2787	0.7812	0.7875	0.119
Mof_C 	C 	0.2399	0.7223	0.7184	-0.204
Mof_C 	C 	0.1778	0.7141	0.6645	0.157
Mof_C 	C 	0.1604	0.7688	0.6842	-0.212
Mof_C 	C 	0.1989	0.8255	0.7534	0.13
Mof_C 	C 	0.1336	0.6473	0.5885	-0.191
Mof_C 	C 	0.0191	0.6075	0.5926	-0.163
Mof_C 	C 	0.0962	0.5521	0.6197	-0.076
Mof_C 	C 	0.5121	0.418	0.6161	0.453
Mof_C 	C 	0.5259	0.4513	0.6932	-0.219
Mof_C 	C 	0.4937	0.4912	0.7125	0.129
Mof_C 	C 	0.5039	0.5215	0.7816	-0.212
Mof_C 	C 	0.5496	0.5133	0.8355	0.168
Mof_C 	C 	0.5846	0.4762	0.8158	-0.223
Mof_C 	C 	0.5721	0.4455	0.7466	0.142
Mof_C 	C 	0.5588	0.5451	0.9115	-0.2
Mof_C 	C 	0.5149	0.4265	0.9074	-0.124
Mof_C 	C 	0.4324	0.4765	0.8803	-0.072
Mof_C 	C 	0.9879	0.604	0.9059	0.495
Mof_C 	C 	0.9741	0.6673	0.9254	-0.177
Mof_C 	C 	0.0063	0.7188	0.9975	0.104
Mof_C 	C 	0.9961	0.7777	0.0176	-0.172
Mof_C 	C 	0.9504	0.7859	0.9637	0.166
Mof_C 	C 	0.9154	0.7312	0.8916	-0.195
Mof_C 	C 	0.9279	0.6745	0.8734	0.124
Mof_C 	C 	0.9412	0.8527	0.9863	-0.118
Mof_C 	C 	0.9851	0.8925	0.9116	0.037
Mof_C 	C 	0.0676	0.9479	0.0441	-0.085
Mof_N 	N 	0.9214	0.9912	0.5072	-0.138
Mof_N 	N 	0.984	0.4142	0.9928	-0.14
Mof_N 	N 	0.516	0.5088	0.4302	-0.155
Mof_N 	N 	0.5786	0.0858	0.0698	-0.152
Mof_N 	N 	0.9302	0.516	0.0088	-0.164
Mof_N 	N 	0.5698	0.5786	0.5858	-0.155
Mof_N 	N 	0.0072	0.9214	0.4912	-0.142
Mof_N 	N 	0.4928	0.984	0.9142	-0.139
Mof_N 	N 	0.4142	0.4928	0.484	-0.154
Mof_N 	N 	0.9912	0.0072	0.4214	-0.14
Mof_N 	N 	0.0858	0.5698	0.0786	-0.162
Mof_N 	N 	0.5088	0.9302	0.016	-0.172
Mof_N 	N 	0.9142	0.484	0.4928	-0.153
Mof_N 	N 	0.4912	0.4214	0.0072	-0.149
Mof_N 	N 	0.5858	0.0786	0.5698	-0.162
Mof_N 	N 	0.0088	0.016	0.9302	-0.175
Mof_N 	N 	0.4214	0.5072	0.9912	-0.144
Mof_N 	N 	0.484	0.9928	0.4142	-0.159
Mof_N 	N 	0.016	0.4302	0.5088	-0.174
Mof_N 	N 	0.0786	0.0698	0.0858	-0.16
Mof_N 	N 	0.4302	0.0088	0.516	-0.163
Mof_N 	N 	0.0698	0.5858	0.5786	-0.153
Mof_N 	N 	0.5072	0.4912	0.9214	-0.146
Mof_N 	N 	0.9928	0.9142	0.984	-0.142
Mof_O 	O 	0.57465	0.93466	0.48263	-0.512
Mof_O 	O 	0.60025	0.871	0.53345	-0.52
Mof_O 	O 	0.95203	0.09202	0.01737	-0.552
Mof_O 	O 	0.83755	0.0668	0.96655	-0.522
Mof_O 	O 	0.54797	0.56534	0.13999	-0.52
Mof_O 	O 	0.66245	0.629	0.22925	-0.521
Mof_O 	O 	0.92535	0.40798	0.36001	-0.502
Mof_O 	O 	0.89975	0.4332	0.27075	-0.509
Mof_O 	O 	0.63999	0.54797	0.06534	-0.524
Mof_O 	O 	0.72925	0.66245	0.129	-0.521
Mof_O 	O 	0.86001	0.92535	0.90798	-0.491
Mof_O 	O 	0.77075	0.89975	0.9332	-0.494
Mof_O 	O 	0.98263	0.57465	0.43466	-0.484
Mof_O 	O 	0.03345	0.60025	0.371	-0.531
Mof_O 	O 	0.51737	0.95203	0.59202	-0.515
Mof_O 	O 	0.46655	0.83755	0.5668	-0.528
Mof_O 	O 	0.09202	0.51737	0.45203	-0.523
Mof_O 	O 	0.0668	0.46655	0.33755	-0.533
Mof_O 	O 	0.93466	0.98263	0.07465	-0.49
Mof_O 	O 	0.871	0.03345	0.10025	-0.536
Mof_O 	O 	0.40798	0.86001	0.42535	-0.514
Mof_O 	O 	0.4332	0.77075	0.39975	-0.521
Mof_O 	O 	0.56534	0.63999	0.04797	-0.519
Mof_O 	O 	0.629	0.72925	0.16245	-0.512
Mof_O 	O 	0.59202	0.45203	0.51737	-0.517
Mof_O 	O 	0.5668	0.33755	0.46655	-0.523
Mof_O 	O 	0.43466	0.07465	0.98263	-0.487
Mof_O 	O 	0.371	0.10025	0.03345	-0.538
Mof_O 	O 	0.90798	0.42535	0.86001	-0.502
Mof_O 	O 	0.9332	0.39975	0.77075	-0.504
Mof_O 	O 	0.06534	0.04797	0.63999	-0.526
Mof_O 	O 	0.129	0.16245	0.72925	-0.516
Mof_O 	O 	0.07465	0.48263	0.93466	-0.521
Mof_O 	O 	0.10025	0.53345	0.871	-0.53
Mof_O 	O 	0.45203	0.01737	0.09202	-0.548
Mof_O 	O 	0.33755	0.96655	0.0668	-0.52
Mof_O 	O 	0.04797	0.13999	0.56534	-0.521
Mof_O 	O 	0.16245	0.22925	0.629	-0.514
Mof_O 	O 	0.42535	0.36001	0.40798	-0.517
Mof_O 	O 	0.39975	0.27075	0.4332	-0.524
Mof_O 	O 	0.13999	0.06534	0.54797	-0.526
Mof_O 	O 	0.22925	0.129	0.66245	-0.523
Mof_O 	O 	0.36001	0.90798	0.92535	-0.495
Mof_O 	O 	0.27075	0.9332	0.89975	-0.498
Mof_O 	O 	0.48263	0.43466	0.57465	-0.518
Mof_O 	O 	0.53345	0.371	0.60025	-0.522
Mof_O 	O 	0.01737	0.59202	0.95203	-0.546
Mof_O 	O 	0.96655	0.5668	0.83755	-0.515
_end
