data_functionalizedCrystal
_audit_creation_method	'EQeq! by Chris Wilmer'
_symmetry_space_group_name_H-M	'P1'
_symmetry_Int_Tables_number	1
_symmetry_cell_setting	triclinic
loop_
_symmetry_equiv_pos_as_xyz
  x,y,z
_cell_length_a	14.3858
_cell_length_b	14.7616
_cell_length_c	14.7616
_cell_angle_alpha	61.6291
_cell_angle_beta	60.8387
_cell_angle_gamma	60.8386
loop_
_atom_site_label
_atom_site_type_symbol
_atom_site_fract_x
_atom_site_fract_y
_atom_site_fract_z
_atom_site_charge
Mof_C 	C 	0.90999	0.55445	0.07727	0.033
Mof_C 	C 	0.91108	0.45944	0.0782	0.038
Mof_C 	C 	0.90999	0.07725	0.55445	0.032
Mof_C 	C 	0.99556	0.31006	0.69882	0.415
Mof_C 	C 	0.46924	0.90182	0.06378	0.044
Mof_C 	C 	0.45829	0.55445	0.07727	0.042
Mof_C 	C 	0.99358	0.99594	0.41196	-0.173
Mof_C 	C 	0.99459	0.59951	0.41131	-0.137
Mof_C 	C 	0.42058	0.98452	0.9845	-0.189
Mof_C 	C 	0.91068	0.55186	0.45928	0.003
Mof_C 	C 	0.55294	0.46104	0.91202	0.009
Mof_C 	C 	0.91068	0.45928	0.55186	0.003
Mof_C 	C 	0.56515	0.06379	0.90181	0.039
Mof_C 	C 	0.41181	0.99411	0.60277	-0.153
Mof_C 	C 	0.99459	0.41131	0.59951	-0.137
Mof_C 	C 	0.07288	0.5561	0.9111	0.031
Mof_C 	C 	0.55286	0.91206	0.461	0.009
Mof_C 	C 	0.56516	0.90182	0.06378	0.039
Mof_C 	C 	0.99646	0.99886	0.30828	0.417
Mof_C 	C 	0.99243	0.70261	0.99551	0.433
Mof_C 	C 	0.55128	0.45944	0.0782	0.043
Mof_C 	C 	0.07818	0.55186	0.45928	0.036
Mof_C 	C 	0.99242	0.99554	0.70262	0.433
Mof_C 	C 	0.30942	0.99554	0.70262	0.445
Mof_C 	C 	0.99129	0.60279	0.99407	-0.17
Mof_C 	C 	0.07408	0.91206	0.461	0.036
Mof_C 	C 	0.30945	0.70261	0.99551	0.445
Mof_C 	C 	0.41185	0.60279	0.99407	-0.153
Mof_C 	C 	0.5513	0.07816	0.45944	0.043
Mof_C 	C 	0.074	0.46104	0.91202	0.036
Mof_C 	C 	0.31112	0.99248	0.99246	0.447
Mof_C 	C 	0.6104	0.98452	0.9845	-0.188
Mof_C 	C 	0.9111	0.07816	0.45944	0.037
Mof_C 	C 	0.46925	0.06379	0.90181	0.044
Mof_C 	C 	0.99643	0.30827	0.99889	0.417
Mof_C 	C 	0.07818	0.45928	0.55186	0.036
Mof_C 	C 	0.99352	0.41196	0.99598	-0.173
Mof_C 	C 	0.99557	0.69881	0.31005	0.415
Mof_C 	C 	0.45831	0.07725	0.55445	0.043
Mof_C 	C 	0.45982	0.91114	0.55608	0.009
Mof_C 	C 	0.70394	0.99248	0.99246	0.467
Mof_C 	C 	0.6964	0.99886	0.30828	0.448
Mof_C 	C 	0.69641	0.30827	0.99889	0.448
Mof_C 	C 	0.07296	0.91114	0.55608	0.031
Mof_C 	C 	0.59854	0.41196	0.99598	-0.154
Mof_C 	C 	0.45992	0.55612	0.91108	0.009
Mof_C 	C 	0.59852	0.99594	0.41196	-0.154
Mof_C 	C 	0.99131	0.99411	0.60277	-0.17
Mof_H 	H 	0.84515	0.42297	0.58815	0.038
Mof_H 	H 	0.41982	0.59218	0.1409	0.037
Mof_H 	H 	0.71248	0.09624	0.09628	0.307
Mof_H 	H 	0.84707	0.14085	0.59221	0.036
Mof_H 	H 	0.09176	0.0956	0.72088	0.312
Mof_H 	H 	0.13715	0.84859	0.42313	0.036
Mof_H 	H 	0.42879	0.12541	0.84109	0.035
Mof_H 	H 	0.42265	0.84701	0.59515	0.038
Mof_H 	H 	0.58831	0.42029	0.14245	0.036
Mof_H 	H 	0.60471	0.12541	0.84109	0.036
Mof_H 	H 	0.41987	0.14085	0.59221	0.037
Mof_H 	H 	0.13507	0.59521	0.84691	0.036
Mof_H 	H 	0.84513	0.58815	0.42299	0.038
Mof_H 	H 	0.59113	0.84859	0.42313	0.038
Mof_H 	H 	0.60474	0.8411	0.12536	0.036
Mof_H 	H 	0.42281	0.59521	0.84691	0.038
Mof_H 	H 	0.095	0.09624	0.09628	0.314
Mof_H 	H 	0.8471	0.59218	0.1409	0.036
Mof_H 	H 	0.14373	0.42297	0.58815	0.037
Mof_H 	H 	0.58837	0.14237	0.42031	0.037
Mof_H 	H 	0.84895	0.42029	0.14245	0.035
Mof_H 	H 	0.59127	0.42319	0.84853	0.038
Mof_H 	H 	0.09177	0.72089	0.09557	0.312
Mof_H 	H 	0.14373	0.58815	0.42299	0.037
Mof_H 	H 	0.4288	0.8411	0.12536	0.036
Mof_H 	H 	0.13519	0.84701	0.59515	0.036
Mof_H 	H 	0.84895	0.14237	0.42031	0.035
Mof_H 	H 	0.13701	0.42319	0.84853	0.036
Mof_O 	O 	0.91756	0.73744	0.26974	-0.623
Mof_O 	O 	0.26851	0.74091	0.07381	-0.615
Mof_O 	O 	0.07534	0.92364	0.26658	-0.632
Mof_O 	O 	0.7345	0.07732	0.2672	-0.62
Mof_O 	O 	0.07526	0.73742	0.26976	-0.589
Mof_O 	O 	0.91677	0.74091	0.07381	-0.629
Mof_O 	O 	0.26822	0.7418	0.91966	-0.655
Mof_O 	O 	0.73444	0.92364	0.26658	-0.66
Mof_O 	O 	0.06732	0.06904	0.06906	-1.091
Mof_O 	O 	0.73931	0.92143	0.07203	-0.666
Mof_O 	O 	0.14651	0.95277	0.95279	-1.382
Mof_O 	O 	0.73449	0.26655	0.92367	-0.661
Mof_O 	O 	0.06569	0.80025	0.06837	-1.174
Mof_O 	O 	0.91675	0.07381	0.74093	-0.629
Mof_O 	O 	0.73929	0.07205	0.92145	-0.666
Mof_O 	O 	0.91755	0.26975	0.73745	-0.623
Mof_O 	O 	0.79458	0.06904	0.06906	-1.123
Mof_O 	O 	0.94793	0.95277	0.95279	-1.389
Mof_O 	O 	0.2682	0.91968	0.7418	-0.655
Mof_O 	O 	0.06568	0.06838	0.80026	-1.174
Mof_O 	O 	0.26721	0.07205	0.92145	-0.656
Mof_O 	O 	0.07032	0.7418	0.91966	-0.636
Mof_O 	O 	0.07525	0.26975	0.73745	-0.59
Mof_O 	O 	0.07032	0.91968	0.7418	-0.636
Mof_O 	O 	0.26724	0.92144	0.07202	-0.656
Mof_O 	O 	0.73448	0.26718	0.07738	-0.62
Mof_O 	O 	0.26851	0.07381	0.74093	-0.615
Mof_O 	O 	0.92096	0.26718	0.07738	-0.624
Mof_O 	O 	0.92098	0.07732	0.2672	-0.624
Mof_O 	O 	0.07529	0.26655	0.92367	-0.632
Mof_O 	O 	0.94785	0.15131	0.95299	-1.429
Mof_O 	O 	0.94786	0.95298	0.1513	-1.429
Mof_Zr	Zr	0.87732	0.122	0.88148	3.211
Mof_Zr	Zr	0.1192	0.122	0.88148	3.214
Mof_Zr	Zr	0.87791	0.12207	0.12211	3.215
Mof_Zr	Zr	0.11922	0.88146	0.12198	3.214
Mof_Zr	Zr	0.11883	0.88117	0.88117	3.211
Mof_Zr	Zr	0.87734	0.88146	0.12198	3.211
_end
