data_functionalizedCrystal
_audit_creation_method	'EQeq! by Chris Wilmer'
_symmetry_space_group_name_H-M	'P1'
_symmetry_Int_Tables_number	1
_symmetry_cell_setting	triclinic
loop_
_symmetry_equiv_pos_as_xyz
  x,y,z
_cell_length_a	13.5324
_cell_length_b	13.5324
_cell_length_c	8.0668
_cell_angle_alpha	90
_cell_angle_beta	90
_cell_angle_gamma	120
loop_
_atom_site_label
_atom_site_type_symbol
_atom_site_fract_x
_atom_site_fract_y
_atom_site_fract_z
_atom_site_charge
Mof_Mn	Mn	0.30192	0.33787	0.54561	0.786
Mof_O 	O 	0.23044	0.18111	0.4071	-0.341
Mof_C 	C 	0.53512	0.32276	0.5484	-0.145
Mof_C 	C 	0.35411	0.56029	0.7761	-0.141
Mof_O 	O 	0.2461	0.05757	0.2474	-0.343
Mof_C 	C 	0.2681	0.15782	0.2813	0.344
Mof_N 	N 	0.34619	0.20801	0.0006	-0.269
Mof_H 	H 	0.4102	0.2559	0.945	0.098
Mof_H 	H 	0.2856	0.1978	0.9409	0.138
Mof_C 	C 	0.34579	0.25444	0.1639	-0.107
Mof_H 	H 	0.4234	0.287	0.2077	0.049
Mof_N 	N 	0.36601	0.42703	0.3025	-0.293
Mof_H 	H 	0.3484	0.4828	0.2947	0.101
Mof_H 	H 	0.4426	0.4602	0.3009	0.105
Mof_C 	C 	0.3195	0.3521	0.1562	-0.019
Mof_H 	H 	0.3526	0.3964	0.0563	0.028
Mof_H 	H 	0.2376	0.3208	0.1515	0.041
Mof_N 	N 	0.45641	0.32135	0.6052	-0.148
Mof_N 	N 	0.36851	0.50053	0.6897	-0.154
Mof_Mn	Mn	0.66213	0.96405	0.54561	0.787
Mof_O 	O 	0.81889	0.04933	0.4071	-0.34
Mof_C 	C 	0.67724	0.21236	0.5484	-0.144
Mof_C 	C 	0.43971	0.79382	0.7761	-0.14
Mof_O 	O 	0.94243	0.18853	0.2474	-0.342
Mof_C 	C 	0.84218	0.11028	0.2813	0.345
Mof_N 	N 	0.79199	0.13818	0.0006	-0.27
Mof_H 	H 	0.7441	0.1543	0.945	0.099
Mof_H 	H 	0.8022	0.0878	0.9409	0.139
Mof_C 	C 	0.74556	0.09135	0.1639	-0.107
Mof_H 	H 	0.713	0.1364	0.2077	0.049
Mof_N 	N 	0.57297	0.93898	0.3025	-0.293
Mof_H 	H 	0.5172	0.8656	0.2947	0.101
Mof_H 	H 	0.5398	0.9824	0.3009	0.105
Mof_C 	C 	0.6479	0.9674	0.1562	-0.019
Mof_H 	H 	0.6036	0.9562	0.0563	0.028
Mof_H 	H 	0.6792	0.9168	0.1515	0.041
Mof_N 	N 	0.67865	0.13506	0.6052	-0.147
Mof_N 	N 	0.49947	0.86798	0.6897	-0.154
Mof_Mn	Mn	0.03595	0.69808	0.54561	0.786
Mof_O 	O 	0.95067	0.76956	0.4071	-0.34
Mof_C 	C 	0.78764	0.46488	0.5484	-0.144
Mof_C 	C 	0.20618	0.64589	0.7761	-0.14
Mof_O 	O 	0.81147	0.7539	0.2474	-0.342
Mof_C 	C 	0.88972	0.7319	0.2813	0.345
Mof_N 	N 	0.86182	0.65381	0.0006	-0.27
Mof_H 	H 	0.8457	0.5898	0.945	0.099
Mof_H 	H 	0.9122	0.7144	0.9409	0.139
Mof_C 	C 	0.90865	0.65421	0.1639	-0.107
Mof_H 	H 	0.8636	0.5766	0.2077	0.049
Mof_N 	N 	0.06102	0.63399	0.3025	-0.293
Mof_H 	H 	0.1344	0.6516	0.2947	0.101
Mof_H 	H 	0.0176	0.5574	0.3009	0.105
Mof_C 	C 	0.0326	0.6805	0.1562	-0.019
Mof_H 	H 	0.0438	0.6474	0.0563	0.028
Mof_H 	H 	0.0832	0.7624	0.1515	0.042
Mof_N 	N 	0.86494	0.54359	0.6052	-0.147
Mof_N 	N 	0.13202	0.63149	0.6897	-0.154
Mof_Mn	Mn	0.69808	0.66213	0.04561	0.791
Mof_O 	O 	0.76956	0.81889	0.9071	-0.342
Mof_C 	C 	0.46488	0.67724	0.0484	-0.14
Mof_C 	C 	0.64589	0.43971	0.2761	-0.139
Mof_O 	O 	0.7539	0.94243	0.7474	-0.343
Mof_C 	C 	0.7319	0.84218	0.7813	0.345
Mof_N 	N 	0.65381	0.79199	0.5006	-0.274
Mof_H 	H 	0.5898	0.7441	0.445	0.102
Mof_H 	H 	0.7144	0.8022	0.4409	0.142
Mof_C 	C 	0.65421	0.74556	0.6639	-0.107
Mof_H 	H 	0.5766	0.713	0.7077	0.048
Mof_N 	N 	0.63399	0.57297	0.8025	-0.293
Mof_H 	H 	0.6516	0.5172	0.7947	0.1
Mof_H 	H 	0.5574	0.5398	0.8009	0.104
Mof_C 	C 	0.6805	0.6479	0.6562	-0.019
Mof_H 	H 	0.6474	0.6036	0.5563	0.027
Mof_H 	H 	0.7624	0.6792	0.6515	0.041
Mof_N 	N 	0.54359	0.67865	0.1052	-0.148
Mof_N 	N 	0.63149	0.49947	0.1897	-0.153
Mof_Mn	Mn	0.33787	0.03595	0.04561	0.791
Mof_O 	O 	0.18111	0.95067	0.9071	-0.343
Mof_C 	C 	0.32276	0.78764	0.0484	-0.14
Mof_C 	C 	0.56029	0.20618	0.2761	-0.139
Mof_O 	O 	0.05757	0.81147	0.7474	-0.343
Mof_C 	C 	0.15782	0.88972	0.7813	0.345
Mof_N 	N 	0.20801	0.86182	0.5006	-0.274
Mof_H 	H 	0.2559	0.8457	0.445	0.102
Mof_H 	H 	0.1978	0.9122	0.4409	0.141
Mof_C 	C 	0.25444	0.90865	0.6639	-0.108
Mof_H 	H 	0.287	0.8636	0.7077	0.048
Mof_N 	N 	0.42703	0.06102	0.8025	-0.293
Mof_H 	H 	0.4828	0.1344	0.7947	0.1
Mof_H 	H 	0.4602	0.0176	0.8009	0.104
Mof_C 	C 	0.3521	0.0326	0.6562	-0.017
Mof_H 	H 	0.3964	0.0438	0.5563	0.026
Mof_H 	H 	0.3208	0.0832	0.6515	0.04
Mof_N 	N 	0.32135	0.86494	0.1052	-0.148
Mof_N 	N 	0.50053	0.13202	0.1897	-0.153
Mof_Mn	Mn	0.96405	0.30192	0.04561	0.791
Mof_O 	O 	0.04933	0.23044	0.9071	-0.343
Mof_C 	C 	0.21236	0.53512	0.0484	-0.14
Mof_C 	C 	0.79382	0.35411	0.2761	-0.139
Mof_O 	O 	0.18853	0.2461	0.7474	-0.342
Mof_C 	C 	0.11028	0.2681	0.7813	0.345
Mof_N 	N 	0.13818	0.34619	0.5006	-0.274
Mof_H 	H 	0.1543	0.4102	0.445	0.102
Mof_H 	H 	0.0878	0.2856	0.4409	0.142
Mof_C 	C 	0.09135	0.34579	0.6639	-0.108
Mof_H 	H 	0.1364	0.4234	0.7077	0.048
Mof_N 	N 	0.93898	0.36601	0.8025	-0.293
Mof_H 	H 	0.8656	0.3484	0.7947	0.1
Mof_H 	H 	0.9824	0.4426	0.8009	0.104
Mof_C 	C 	0.9674	0.3195	0.6562	-0.018
Mof_H 	H 	0.9562	0.3526	0.5563	0.026
Mof_H 	H 	0.9168	0.2376	0.6515	0.04
Mof_N 	N 	0.13506	0.45641	0.1052	-0.148
Mof_N 	N 	0.86798	0.36851	0.1897	-0.153
Mof_Mn	Mn	0.33333	0.66667	0.92101	0.782
Mof_Mn	Mn	0.66667	0.33333	0.42101	0.791
_end
