data_functionalizedCrystal
_audit_creation_method	'EQeq! by Chris Wilmer'
_symmetry_space_group_name_H-M	'P1'
_symmetry_Int_Tables_number	1
_symmetry_cell_setting	triclinic
loop_
_symmetry_equiv_pos_as_xyz
  x,y,z
_cell_length_a	21.8108
_cell_length_b	21.8108
_cell_length_c	16.0953
_cell_angle_alpha	90
_cell_angle_beta	90
_cell_angle_gamma	90
loop_
_atom_site_label
_atom_site_type_symbol
_atom_site_fract_x
_atom_site_fract_y
_atom_site_fract_z
_atom_site_charge
Mof_Dy	Dy	0.88384	0.41659	0.12352	1.581
Mof_O 	O 	0.8609	0.4954	0.0233	-0.499
Mof_O 	O 	0.8229	0.5269	0.902	-0.479
Mof_O 	O 	0.8762	0.3089	0.1101	-0.504
Mof_O 	O 	0.8355	0.226	0.0524	-0.528
Mof_N 	N 	0.8322	0.3818	0.996	-0.18
Mof_C 	C 	0.8178	0.3229	0.9881	-0.092
Mof_C 	C 	0.7831	0.3014	0.9222	0.012
Mof_H 	H 	0.7733	0.2601	0.9177	0.006
Mof_C 	C 	0.7635	0.3429	0.8638	-0.093
Mof_H 	H 	0.7392	0.3298	0.8197	0.043
Mof_C 	C 	0.7797	0.4037	0.8704	0.006
Mof_H 	H 	0.7678	0.4319	0.8303	0.017
Mof_C 	C 	0.8142	0.4216	0.9384	-0.079
Mof_C 	C 	0.834	0.4861	0.9543	0.39
Mof_C 	C 	0.845	0.2823	0.0548	0.41
Mof_Dy	Dy	0.38384	0.91659	0.62352	1.58
Mof_O 	O 	0.3609	0.9954	0.5233	-0.5
Mof_O 	O 	0.3229	0.0269	0.402	-0.48
Mof_O 	O 	0.3762	0.8089	0.6101	-0.505
Mof_O 	O 	0.3355	0.726	0.5524	-0.529
Mof_N 	N 	0.3322	0.8818	0.496	-0.18
Mof_C 	C 	0.3178	0.8229	0.4881	-0.093
Mof_C 	C 	0.2831	0.8014	0.4222	0.011
Mof_H 	H 	0.2733	0.7601	0.4177	0.005
Mof_C 	C 	0.2635	0.8429	0.3638	-0.094
Mof_H 	H 	0.2392	0.8298	0.3197	0.042
Mof_C 	C 	0.2797	0.9037	0.3704	0.005
Mof_H 	H 	0.2678	0.9319	0.3303	0.017
Mof_C 	C 	0.3142	0.9216	0.4384	-0.079
Mof_C 	C 	0.334	0.9861	0.4543	0.39
Mof_C 	C 	0.345	0.7823	0.5548	0.41
Mof_Dy	Dy	0.61616	0.58341	0.62352	1.58
Mof_O 	O 	0.6391	0.5046	0.5233	-0.5
Mof_O 	O 	0.6771	0.4731	0.402	-0.48
Mof_O 	O 	0.6238	0.6911	0.6101	-0.505
Mof_O 	O 	0.6645	0.774	0.5524	-0.529
Mof_N 	N 	0.6678	0.6182	0.496	-0.181
Mof_C 	C 	0.6822	0.6771	0.4881	-0.093
Mof_C 	C 	0.7169	0.6986	0.4222	0.011
Mof_H 	H 	0.7267	0.7399	0.4177	0.005
Mof_C 	C 	0.7365	0.6571	0.3638	-0.094
Mof_H 	H 	0.7608	0.6702	0.3197	0.042
Mof_C 	C 	0.7203	0.5963	0.3704	0.005
Mof_H 	H 	0.7322	0.5681	0.3303	0.017
Mof_C 	C 	0.6858	0.5784	0.4384	-0.079
Mof_C 	C 	0.666	0.5139	0.4543	0.39
Mof_C 	C 	0.655	0.7177	0.5548	0.41
Mof_Dy	Dy	0.11616	0.08341	0.12352	1.58
Mof_O 	O 	0.1391	0.0046	0.0233	-0.5
Mof_O 	O 	0.1771	0.9731	0.902	-0.479
Mof_O 	O 	0.1238	0.1911	0.1101	-0.505
Mof_O 	O 	0.1645	0.274	0.0524	-0.529
Mof_N 	N 	0.1678	0.1182	0.996	-0.181
Mof_C 	C 	0.1822	0.1771	0.9881	-0.093
Mof_C 	C 	0.2169	0.1986	0.9222	0.011
Mof_H 	H 	0.2267	0.2399	0.9177	0.005
Mof_C 	C 	0.2365	0.1571	0.8638	-0.094
Mof_H 	H 	0.2608	0.1702	0.8197	0.042
Mof_C 	C 	0.2203	0.0963	0.8704	0.005
Mof_H 	H 	0.2322	0.0681	0.8303	0.017
Mof_C 	C 	0.1858	0.0784	0.9384	-0.079
Mof_C 	C 	0.166	0.0139	0.9543	0.389
Mof_C 	C 	0.155	0.2177	0.0548	0.41
Mof_Dy	Dy	0.33341	0.13384	0.37352	1.58
Mof_O 	O 	0.2546	0.1109	0.2733	-0.5
Mof_O 	O 	0.2231	0.0729	0.152	-0.48
Mof_O 	O 	0.4411	0.1262	0.3601	-0.505
Mof_O 	O 	0.524	0.0855	0.3024	-0.529
Mof_N 	N 	0.3682	0.0822	0.246	-0.181
Mof_C 	C 	0.4271	0.0678	0.2381	-0.093
Mof_C 	C 	0.4486	0.0331	0.1722	0.01
Mof_H 	H 	0.4899	0.0233	0.1677	0.005
Mof_C 	C 	0.4071	0.0135	0.1138	-0.093
Mof_H 	H 	0.4202	0.9892	0.0697	0.042
Mof_C 	C 	0.3463	0.0297	0.1204	0.005
Mof_H 	H 	0.3181	0.0178	0.0803	0.017
Mof_C 	C 	0.3284	0.0642	0.1884	-0.079
Mof_C 	C 	0.2639	0.084	0.2043	0.39
Mof_C 	C 	0.4677	0.095	0.3048	0.41
Mof_Dy	Dy	0.83341	0.63384	0.87352	1.58
Mof_O 	O 	0.7546	0.6109	0.7733	-0.5
Mof_O 	O 	0.7231	0.5729	0.652	-0.48
Mof_O 	O 	0.9411	0.6262	0.8601	-0.505
Mof_O 	O 	0.024	0.5855	0.8024	-0.529
Mof_N 	N 	0.8682	0.5822	0.746	-0.18
Mof_C 	C 	0.9271	0.5678	0.7381	-0.093
Mof_C 	C 	0.9486	0.5331	0.6722	0.011
Mof_H 	H 	0.9899	0.5233	0.6677	0.005
Mof_C 	C 	0.9071	0.5135	0.6138	-0.094
Mof_H 	H 	0.9202	0.4892	0.5697	0.042
Mof_C 	C 	0.8463	0.5297	0.6204	0.005
Mof_H 	H 	0.8181	0.5178	0.5803	0.017
Mof_C 	C 	0.8284	0.5642	0.6884	-0.079
Mof_C 	C 	0.7639	0.584	0.7043	0.39
Mof_C 	C 	0.9677	0.595	0.8048	0.41
Mof_Dy	Dy	0.16659	0.86616	0.87352	1.58
Mof_O 	O 	0.2454	0.8891	0.7733	-0.5
Mof_O 	O 	0.2769	0.9271	0.652	-0.48
Mof_O 	O 	0.0589	0.8738	0.8601	-0.505
Mof_O 	O 	0.976	0.9145	0.8024	-0.53
Mof_N 	N 	0.1318	0.9178	0.746	-0.181
Mof_C 	C 	0.0729	0.9322	0.7381	-0.093
Mof_C 	C 	0.0514	0.9669	0.6722	0.011
Mof_H 	H 	0.0101	0.9767	0.6677	0.005
Mof_C 	C 	0.0929	0.9865	0.6138	-0.093
Mof_H 	H 	0.0798	0.0108	0.5697	0.042
Mof_C 	C 	0.1537	0.9703	0.6204	0.005
Mof_H 	H 	0.1819	0.9822	0.5803	0.017
Mof_C 	C 	0.1716	0.9358	0.6884	-0.079
Mof_C 	C 	0.2361	0.916	0.7043	0.39
Mof_C 	C 	0.0323	0.905	0.8048	0.41
Mof_Dy	Dy	0.66659	0.36616	0.37352	1.58
Mof_O 	O 	0.7454	0.3891	0.2733	-0.5
Mof_O 	O 	0.7769	0.4271	0.152	-0.48
Mof_O 	O 	0.5589	0.3738	0.3601	-0.505
Mof_O 	O 	0.476	0.4145	0.3024	-0.529
Mof_N 	N 	0.6318	0.4178	0.246	-0.181
Mof_C 	C 	0.5729	0.4322	0.2381	-0.093
Mof_C 	C 	0.5514	0.4669	0.1722	0.011
Mof_H 	H 	0.5101	0.4767	0.1677	0.005
Mof_C 	C 	0.5929	0.4865	0.1138	-0.094
Mof_H 	H 	0.5798	0.5108	0.0697	0.042
Mof_C 	C 	0.6537	0.4703	0.1204	0.005
Mof_H 	H 	0.6819	0.4822	0.0803	0.017
Mof_C 	C 	0.6716	0.4358	0.1884	-0.079
Mof_C 	C 	0.7361	0.416	0.2043	0.39
Mof_C 	C 	0.5323	0.405	0.3048	0.41
Mof_Dy	Dy	0.11616	0.58341	0.87648	1.58
Mof_O 	O 	0.1391	0.5046	0.9767	-0.5
Mof_O 	O 	0.1771	0.4731	0.098	-0.48
Mof_O 	O 	0.1238	0.6911	0.8899	-0.505
Mof_O 	O 	0.1645	0.774	0.9476	-0.529
Mof_N 	N 	0.1678	0.6182	0.004	-0.181
Mof_C 	C 	0.1822	0.6771	0.0119	-0.093
Mof_C 	C 	0.2169	0.6986	0.0778	0.011
Mof_H 	H 	0.2267	0.7399	0.0823	0.005
Mof_C 	C 	0.2365	0.6571	0.1362	-0.094
Mof_H 	H 	0.2608	0.6702	0.1803	0.042
Mof_C 	C 	0.2203	0.5963	0.1296	0.005
Mof_H 	H 	0.2322	0.5681	0.1697	0.017
Mof_C 	C 	0.1858	0.5784	0.0616	-0.079
Mof_C 	C 	0.166	0.5139	0.0457	0.39
Mof_C 	C 	0.155	0.7177	0.9452	0.41
Mof_Dy	Dy	0.61616	0.08341	0.37648	1.58
Mof_O 	O 	0.6391	0.0046	0.4767	-0.5
Mof_O 	O 	0.6771	0.9731	0.598	-0.48
Mof_O 	O 	0.6238	0.1911	0.3899	-0.505
Mof_O 	O 	0.6645	0.274	0.4476	-0.529
Mof_N 	N 	0.6678	0.1182	0.504	-0.18
Mof_C 	C 	0.6822	0.1771	0.5119	-0.093
Mof_C 	C 	0.7169	0.1986	0.5778	0.011
Mof_H 	H 	0.7267	0.2399	0.5823	0.005
Mof_C 	C 	0.7365	0.1571	0.6362	-0.094
Mof_H 	H 	0.7608	0.1702	0.6803	0.042
Mof_C 	C 	0.7203	0.0963	0.6296	0.005
Mof_H 	H 	0.7322	0.0681	0.6697	0.017
Mof_C 	C 	0.6858	0.0784	0.5616	-0.079
Mof_C 	C 	0.666	0.0139	0.5457	0.39
Mof_C 	C 	0.655	0.2177	0.4452	0.41
Mof_Dy	Dy	0.38384	0.41659	0.37648	1.58
Mof_O 	O 	0.3609	0.4954	0.4767	-0.5
Mof_O 	O 	0.3229	0.5269	0.598	-0.48
Mof_O 	O 	0.3762	0.3089	0.3899	-0.505
Mof_O 	O 	0.3355	0.226	0.4476	-0.529
Mof_N 	N 	0.3322	0.3818	0.504	-0.181
Mof_C 	C 	0.3178	0.3229	0.5119	-0.093
Mof_C 	C 	0.2831	0.3014	0.5778	0.011
Mof_H 	H 	0.2733	0.2601	0.5823	0.005
Mof_C 	C 	0.2635	0.3429	0.6362	-0.094
Mof_H 	H 	0.2392	0.3298	0.6803	0.042
Mof_C 	C 	0.2797	0.4037	0.6296	0.005
Mof_H 	H 	0.2678	0.4319	0.6697	0.017
Mof_C 	C 	0.3142	0.4216	0.5616	-0.079
Mof_C 	C 	0.334	0.4861	0.5457	0.39
Mof_C 	C 	0.345	0.2823	0.4452	0.41
Mof_Dy	Dy	0.88384	0.91659	0.87648	1.58
Mof_O 	O 	0.8609	0.9954	0.9767	-0.5
Mof_O 	O 	0.8229	0.0269	0.098	-0.479
Mof_O 	O 	0.8762	0.8089	0.8899	-0.505
Mof_O 	O 	0.8355	0.726	0.9476	-0.529
Mof_N 	N 	0.8322	0.8818	0.004	-0.181
Mof_C 	C 	0.8178	0.8229	0.0119	-0.093
Mof_C 	C 	0.7831	0.8014	0.0778	0.011
Mof_H 	H 	0.7733	0.7601	0.0823	0.005
Mof_C 	C 	0.7635	0.8429	0.1362	-0.094
Mof_H 	H 	0.7392	0.8298	0.1803	0.042
Mof_C 	C 	0.7797	0.9037	0.1296	0.005
Mof_H 	H 	0.7678	0.9319	0.1697	0.017
Mof_C 	C 	0.8142	0.9216	0.0616	-0.079
Mof_C 	C 	0.834	0.9861	0.0457	0.389
Mof_C 	C 	0.845	0.7823	0.9452	0.41
Mof_Dy	Dy	0.66659	0.86616	0.62648	1.58
Mof_O 	O 	0.7454	0.8891	0.7267	-0.5
Mof_O 	O 	0.7769	0.9271	0.848	-0.48
Mof_O 	O 	0.5589	0.8738	0.6399	-0.505
Mof_O 	O 	0.476	0.9145	0.6976	-0.529
Mof_N 	N 	0.6318	0.9178	0.754	-0.181
Mof_C 	C 	0.5729	0.9322	0.7619	-0.093
Mof_C 	C 	0.5514	0.9669	0.8278	0.01
Mof_H 	H 	0.5101	0.9767	0.8323	0.005
Mof_C 	C 	0.5929	0.9865	0.8862	-0.093
Mof_H 	H 	0.5798	0.0108	0.9303	0.042
Mof_C 	C 	0.6537	0.9703	0.8796	0.005
Mof_H 	H 	0.6819	0.9822	0.9197	0.017
Mof_C 	C 	0.6716	0.9358	0.8116	-0.079
Mof_C 	C 	0.7361	0.916	0.7957	0.39
Mof_C 	C 	0.5323	0.905	0.6952	0.41
Mof_Dy	Dy	0.16659	0.36616	0.12648	1.58
Mof_O 	O 	0.2454	0.3891	0.2267	-0.5
Mof_O 	O 	0.2769	0.4271	0.348	-0.48
Mof_O 	O 	0.0589	0.3738	0.1399	-0.505
Mof_O 	O 	0.976	0.4145	0.1976	-0.529
Mof_N 	N 	0.1318	0.4178	0.254	-0.18
Mof_C 	C 	0.0729	0.4322	0.2619	-0.093
Mof_C 	C 	0.0514	0.4669	0.3278	0.011
Mof_H 	H 	0.0101	0.4767	0.3323	0.005
Mof_C 	C 	0.0929	0.4865	0.3862	-0.094
Mof_H 	H 	0.0798	0.5108	0.4303	0.042
Mof_C 	C 	0.1537	0.4703	0.3796	0.005
Mof_H 	H 	0.1819	0.4822	0.4197	0.017
Mof_C 	C 	0.1716	0.4358	0.3116	-0.079
Mof_C 	C 	0.2361	0.416	0.2957	0.39
Mof_C 	C 	0.0323	0.405	0.1952	0.41
Mof_Dy	Dy	0.83341	0.13384	0.12648	1.58
Mof_O 	O 	0.7546	0.1109	0.2267	-0.5
Mof_O 	O 	0.7231	0.0729	0.348	-0.48
Mof_O 	O 	0.9411	0.1262	0.1399	-0.505
Mof_O 	O 	0.024	0.0855	0.1976	-0.53
Mof_N 	N 	0.8682	0.0822	0.254	-0.181
Mof_C 	C 	0.9271	0.0678	0.2619	-0.093
Mof_C 	C 	0.9486	0.0331	0.3278	0.011
Mof_H 	H 	0.9899	0.0233	0.3323	0.005
Mof_C 	C 	0.9071	0.0135	0.3862	-0.093
Mof_H 	H 	0.9202	0.9892	0.4303	0.042
Mof_C 	C 	0.8463	0.0297	0.3796	0.005
Mof_H 	H 	0.8181	0.0178	0.4197	0.017
Mof_C 	C 	0.8284	0.0642	0.3116	-0.079
Mof_C 	C 	0.7639	0.084	0.2957	0.39
Mof_C 	C 	0.9677	0.095	0.1952	0.41
Mof_Dy	Dy	0.33341	0.63384	0.62648	1.58
Mof_O 	O 	0.2546	0.6109	0.7267	-0.5
Mof_O 	O 	0.2231	0.5729	0.848	-0.48
Mof_O 	O 	0.4411	0.6262	0.6399	-0.505
Mof_O 	O 	0.524	0.5855	0.6976	-0.529
Mof_N 	N 	0.3682	0.5822	0.754	-0.181
Mof_C 	C 	0.4271	0.5678	0.7619	-0.093
Mof_C 	C 	0.4486	0.5331	0.8278	0.011
Mof_H 	H 	0.4899	0.5233	0.8323	0.005
Mof_C 	C 	0.4071	0.5135	0.8862	-0.094
Mof_H 	H 	0.4202	0.4892	0.9303	0.042
Mof_C 	C 	0.3463	0.5297	0.8796	0.005
Mof_H 	H 	0.3181	0.5178	0.9197	0.017
Mof_C 	C 	0.3284	0.5642	0.8116	-0.079
Mof_C 	C 	0.2639	0.584	0.7957	0.39
Mof_C 	C 	0.4677	0.595	0.6952	0.41
_end
