data_functionalizedCrystal
_audit_creation_method	'EQeq! by Chris Wilmer'
_symmetry_space_group_name_H-M	'P1'
_symmetry_Int_Tables_number	1
_symmetry_cell_setting	triclinic
loop_
_symmetry_equiv_pos_as_xyz
  x,y,z
_cell_length_a	9.3591
_cell_length_b	9.3128
_cell_length_c	15.1655
_cell_angle_alpha	90
_cell_angle_beta	92.505
_cell_angle_gamma	90
loop_
_atom_site_label
_atom_site_type_symbol
_atom_site_fract_x
_atom_site_fract_y
_atom_site_fract_z
_atom_site_charge
Mof_Be	Be	0.9164	0.9056	0.617	0.782
Mof_Be	Be	0.3328	0.9973	0.6794	0.805
Mof_P 	P 	0.63697	0.02548	0.63834	0.653
Mof_P 	P 	0.10889	0.13904	0.57606	0.627
Mof_P 	P 	0.34847	0.23926	0.81425	0.636
Mof_O 	O 	0.7542	0.9163	0.64881	-0.355
Mof_O 	O 	0.6376	0.0951	0.54475	-0.426
Mof_H 	H 	0.6729	0.0389	0.5102	0.305
Mof_O 	O 	0.6696	0.1571	0.69931	-0.413
Mof_H 	H 	0.5986	0.1764	0.7269	0.31
Mof_O 	O 	0.495	0.9611	0.65536	-0.375
Mof_O 	O 	0.2517	0.0592	0.58865	-0.402
Mof_O 	O 	0.0755	0.1698	0.47894	-0.387
Mof_O 	O 	0.99	0.0611	0.61964	-0.389
Mof_O 	O 	0.1245	0.2934	0.61699	-0.408
Mof_H 	H 	0.1609	0.2876	0.667	0.306
Mof_O 	O 	0.3275	0.1079	0.75895	-0.39
Mof_O 	O 	0.2381	0.35	0.78547	-0.385
Mof_O 	O 	0.321	0.1976	0.91281	-0.41
Mof_H 	H 	0.3867	0.228	0.9452	0.299
Mof_O 	O 	0.5016	0.2945	0.81194	-0.379
Mof_Be	Be	0.5836	0.4056	0.883	0.781
Mof_Be	Be	0.1672	0.4973	0.8206	0.805
Mof_P 	P 	0.86303	0.52548	0.86166	0.651
Mof_P 	P 	0.39111	0.63904	0.92394	0.625
Mof_P 	P 	0.15153	0.73926	0.68575	0.636
Mof_O 	O 	0.7458	0.4163	0.85119	-0.354
Mof_O 	O 	0.8624	0.5951	0.95525	-0.426
Mof_H 	H 	0.8271	0.5389	0.9898	0.305
Mof_O 	O 	0.8304	0.6571	0.80069	-0.413
Mof_H 	H 	0.9014	0.6764	0.7731	0.31
Mof_O 	O 	0.005	0.4611	0.84464	-0.375
Mof_O 	O 	0.2483	0.5592	0.91135	-0.403
Mof_O 	O 	0.4245	0.6698	0.02106	-0.386
Mof_O 	O 	0.51	0.5611	0.88036	-0.388
Mof_O 	O 	0.3755	0.7934	0.88301	-0.408
Mof_H 	H 	0.3391	0.7876	0.833	0.306
Mof_O 	O 	0.1725	0.6079	0.74105	-0.391
Mof_O 	O 	0.2619	0.85	0.71453	-0.386
Mof_O 	O 	0.179	0.6976	0.58719	-0.41
Mof_H 	H 	0.1133	0.728	0.5548	0.299
Mof_O 	O 	0.9984	0.7945	0.68806	-0.38
Mof_Be	Be	0.0836	0.0944	0.383	0.781
Mof_Be	Be	0.6672	0.0027	0.3206	0.804
Mof_P 	P 	0.36303	0.97452	0.36166	0.652
Mof_P 	P 	0.89111	0.86096	0.42394	0.626
Mof_P 	P 	0.65153	0.76074	0.18575	0.636
Mof_O 	O 	0.2458	0.0837	0.35119	-0.355
Mof_O 	O 	0.3624	0.9049	0.45525	-0.426
Mof_H 	H 	0.3271	0.9611	0.4898	0.305
Mof_O 	O 	0.3304	0.8429	0.30069	-0.413
Mof_H 	H 	0.4014	0.8236	0.2731	0.31
Mof_O 	O 	0.505	0.0389	0.34464	-0.375
Mof_O 	O 	0.7483	0.9408	0.41135	-0.402
Mof_O 	O 	0.9245	0.8302	0.52106	-0.387
Mof_O 	O 	0.01	0.9389	0.38036	-0.389
Mof_O 	O 	0.8755	0.7066	0.38301	-0.408
Mof_H 	H 	0.8391	0.7124	0.333	0.306
Mof_O 	O 	0.6725	0.8921	0.24105	-0.39
Mof_O 	O 	0.7619	0.65	0.21453	-0.385
Mof_O 	O 	0.679	0.8024	0.08719	-0.41
Mof_H 	H 	0.6133	0.772	0.0548	0.299
Mof_O 	O 	0.4984	0.7055	0.18806	-0.379
Mof_Be	Be	0.4164	0.5944	0.117	0.781
Mof_Be	Be	0.8328	0.5027	0.1794	0.805
Mof_P 	P 	0.13697	0.47452	0.13834	0.651
Mof_P 	P 	0.60889	0.36096	0.07606	0.625
Mof_P 	P 	0.84847	0.26074	0.31425	0.636
Mof_O 	O 	0.2542	0.5837	0.14881	-0.354
Mof_O 	O 	0.1376	0.4049	0.04475	-0.426
Mof_H 	H 	0.1729	0.4611	0.0102	0.305
Mof_O 	O 	0.1696	0.3429	0.19931	-0.413
Mof_H 	H 	0.0986	0.3236	0.2269	0.31
Mof_O 	O 	0.995	0.5389	0.15536	-0.375
Mof_O 	O 	0.7517	0.4408	0.08865	-0.403
Mof_O 	O 	0.5755	0.3302	0.97894	-0.386
Mof_O 	O 	0.49	0.4389	0.11964	-0.388
Mof_O 	O 	0.6245	0.2066	0.11699	-0.408
Mof_H 	H 	0.6609	0.2124	0.167	0.306
Mof_O 	O 	0.8275	0.3921	0.25895	-0.391
Mof_O 	O 	0.7381	0.15	0.28547	-0.386
Mof_O 	O 	0.821	0.3024	0.41281	-0.41
Mof_H 	H 	0.8867	0.272	0.4452	0.299
Mof_O 	O 	0.0016	0.2055	0.31194	-0.38
_end
