data_functionalizedCrystal
_audit_creation_method	'EQeq! by Chris Wilmer'
_symmetry_space_group_name_H-M	'P1'
_symmetry_Int_Tables_number	1
_symmetry_cell_setting	triclinic
loop_
_symmetry_equiv_pos_as_xyz
  x,y,z
_cell_length_a	37.0668
_cell_length_b	37.0668
_cell_length_c	37.0668
_cell_angle_alpha	90
_cell_angle_beta	90
_cell_angle_gamma	90
loop_
_atom_site_label
_atom_site_type_symbol
_atom_site_fract_x
_atom_site_fract_y
_atom_site_fract_z
_atom_site_charge
Mof_N 	N 	0.28391	0.53665	0.31591	-0.382
Mof_N 	N 	0.3107	0.5365	0.29175	-0.343
Mof_C 	C 	0.32027	0.58208	0.32626	-0.518
Mof_C 	C 	0.3378	0.61453	0.34077	0.257
Mof_C 	C 	0.32421	0.63158	0.37132	-0.286
Mof_H 	H 	0.3033	0.6222	0.3827	0.023
Mof_C 	C 	0.33304	0.56378	0.29722	0.399
Mof_C 	C 	0.28932	0.56494	0.33743	0.575
Mof_H 	H 	0.2744	0.572	0.357	-0.857
Mof_Co	Co	0.2483	0.5726	0.36408	1.312
Mof_H 	H 	0.3539	0.5695	0.2835	-0.573
Mof_N 	N 	0.29722	0.66696	0.43622	-0.018
Mof_N 	N 	0.28391	0.03665	0.81591	-0.384
Mof_N 	N 	0.3107	0.0365	0.79175	-0.345
Mof_C 	C 	0.32027	0.08208	0.82626	-0.518
Mof_C 	C 	0.3378	0.11453	0.84077	0.257
Mof_C 	C 	0.32421	0.13158	0.87132	-0.286
Mof_H 	H 	0.3033	0.1222	0.8827	0.023
Mof_C 	C 	0.33304	0.06378	0.79722	0.398
Mof_C 	C 	0.28932	0.06494	0.83743	0.574
Mof_H 	H 	0.2744	0.072	0.857	-0.857
Mof_Co	Co	0.2483	0.0726	0.86408	1.312
Mof_H 	H 	0.3539	0.0695	0.7835	-0.574
Mof_N 	N 	0.29722	0.16696	0.93622	-0.018
Mof_N 	N 	0.78391	0.53665	0.81591	-0.382
Mof_N 	N 	0.8107	0.5365	0.79175	-0.343
Mof_C 	C 	0.82027	0.58208	0.82626	-0.517
Mof_C 	C 	0.8378	0.61453	0.84077	0.258
Mof_C 	C 	0.82421	0.63158	0.87132	-0.286
Mof_H 	H 	0.8033	0.6222	0.8827	0.024
Mof_C 	C 	0.83304	0.56378	0.79722	0.4
Mof_C 	C 	0.78932	0.56494	0.83743	0.575
Mof_H 	H 	0.7744	0.572	0.857	-0.858
Mof_Co	Co	0.7483	0.5726	0.86408	1.312
Mof_H 	H 	0.8539	0.5695	0.7835	-0.573
Mof_N 	N 	0.79722	0.66696	0.93622	-0.019
Mof_N 	N 	0.78391	0.03665	0.31591	-0.385
Mof_N 	N 	0.8107	0.0365	0.29175	-0.346
Mof_C 	C 	0.82027	0.08208	0.32626	-0.519
Mof_C 	C 	0.8378	0.11453	0.34077	0.256
Mof_C 	C 	0.82421	0.13158	0.37132	-0.287
Mof_H 	H 	0.8033	0.1222	0.3827	0.021
Mof_C 	C 	0.83304	0.06378	0.29722	0.397
Mof_C 	C 	0.78932	0.06494	0.33743	0.573
Mof_H 	H 	0.7744	0.072	0.357	-0.859
Mof_Co	Co	0.7483	0.0726	0.36408	1.31
Mof_H 	H 	0.8539	0.0695	0.2835	-0.574
Mof_N 	N 	0.79722	0.16696	0.43622	-0.019
Mof_N 	N 	0.71609	0.46335	0.31591	-0.383
Mof_N 	N 	0.6893	0.4635	0.29175	-0.345
Mof_C 	C 	0.67973	0.41792	0.32626	-0.519
Mof_C 	C 	0.6622	0.38547	0.34077	0.256
Mof_C 	C 	0.67579	0.36842	0.37132	-0.287
Mof_H 	H 	0.6967	0.3778	0.3827	0.022
Mof_C 	C 	0.66696	0.43622	0.29722	0.398
Mof_C 	C 	0.71068	0.43506	0.33743	0.574
Mof_H 	H 	0.7256	0.428	0.357	-0.858
Mof_Co	Co	0.7517	0.4274	0.36408	1.312
Mof_H 	H 	0.6461	0.4305	0.2835	-0.574
Mof_N 	N 	0.70278	0.33304	0.43622	-0.019
Mof_N 	N 	0.71609	0.96335	0.81591	-0.377
Mof_N 	N 	0.6893	0.9635	0.79175	-0.338
Mof_C 	C 	0.67973	0.91792	0.82626	-0.518
Mof_C 	C 	0.6622	0.88547	0.84077	0.258
Mof_C 	C 	0.67579	0.86842	0.87132	-0.286
Mof_H 	H 	0.6967	0.8778	0.8827	0.023
Mof_C 	C 	0.66696	0.93622	0.79722	0.4
Mof_C 	C 	0.71068	0.93506	0.83743	0.576
Mof_H 	H 	0.7256	0.928	0.857	-0.857
Mof_Co	Co	0.7517	0.9274	0.86408	1.314
Mof_H 	H 	0.6461	0.9305	0.7835	-0.573
Mof_N 	N 	0.70278	0.83304	0.93622	-0.019
Mof_N 	N 	0.21609	0.46335	0.81591	-0.383
Mof_N 	N 	0.1893	0.4635	0.79175	-0.345
Mof_C 	C 	0.17973	0.41792	0.82626	-0.519
Mof_C 	C 	0.1622	0.38547	0.84077	0.256
Mof_C 	C 	0.17579	0.36842	0.87132	-0.287
Mof_H 	H 	0.1967	0.3778	0.8827	0.022
Mof_C 	C 	0.16696	0.43622	0.79722	0.398
Mof_C 	C 	0.21068	0.43506	0.83743	0.574
Mof_H 	H 	0.2256	0.428	0.857	-0.858
Mof_Co	Co	0.2517	0.4274	0.86408	1.312
Mof_H 	H 	0.1461	0.4305	0.7835	-0.574
Mof_N 	N 	0.20278	0.33304	0.93622	-0.019
Mof_N 	N 	0.21609	0.96335	0.31591	-0.378
Mof_N 	N 	0.1893	0.9635	0.29175	-0.339
Mof_C 	C 	0.17973	0.91792	0.32626	-0.518
Mof_C 	C 	0.1622	0.88547	0.34077	0.257
Mof_C 	C 	0.17579	0.86842	0.37132	-0.287
Mof_H 	H 	0.1967	0.8778	0.3827	0.022
Mof_C 	C 	0.16696	0.93622	0.29722	0.399
Mof_C 	C 	0.21068	0.93506	0.33743	0.575
Mof_H 	H 	0.2256	0.928	0.357	-0.857
Mof_Co	Co	0.2517	0.9274	0.36408	1.313
Mof_H 	H 	0.1461	0.9305	0.2835	-0.573
Mof_N 	N 	0.20278	0.83304	0.43622	-0.019
Mof_N 	N 	0.71609	0.53665	0.68409	-0.383
Mof_N 	N 	0.6893	0.5365	0.70825	-0.345
Mof_C 	C 	0.67973	0.58208	0.67374	-0.519
Mof_C 	C 	0.6622	0.61453	0.65923	0.256
Mof_C 	C 	0.67579	0.63158	0.62868	-0.287
Mof_H 	H 	0.6967	0.6222	0.6173	0.022
Mof_C 	C 	0.66696	0.56378	0.70278	0.398
Mof_C 	C 	0.71068	0.56494	0.66257	0.574
Mof_H 	H 	0.7256	0.572	0.643	-0.858
Mof_Co	Co	0.7517	0.5726	0.63592	1.312
Mof_H 	H 	0.6461	0.5695	0.7165	-0.574
Mof_N 	N 	0.70278	0.66696	0.56378	-0.019
Mof_N 	N 	0.71609	0.03665	0.18409	-0.385
Mof_N 	N 	0.6893	0.0365	0.20825	-0.347
Mof_C 	C 	0.67973	0.08208	0.17374	-0.519
Mof_C 	C 	0.6622	0.11453	0.15923	0.255
Mof_C 	C 	0.67579	0.13158	0.12868	-0.287
Mof_H 	H 	0.6967	0.1222	0.1173	0.021
Mof_C 	C 	0.66696	0.06378	0.20278	0.396
Mof_C 	C 	0.71068	0.06494	0.16257	0.572
Mof_H 	H 	0.7256	0.072	0.143	-0.859
Mof_Co	Co	0.7517	0.0726	0.13592	1.31
Mof_H 	H 	0.6461	0.0695	0.2165	-0.575
Mof_N 	N 	0.70278	0.16696	0.06378	-0.02
Mof_N 	N 	0.21609	0.53665	0.18409	-0.384
Mof_N 	N 	0.1893	0.5365	0.20825	-0.345
Mof_C 	C 	0.17973	0.58208	0.17374	-0.519
Mof_C 	C 	0.1622	0.61453	0.15923	0.255
Mof_C 	C 	0.17579	0.63158	0.12868	-0.287
Mof_H 	H 	0.1967	0.6222	0.1173	0.021
Mof_C 	C 	0.16696	0.56378	0.20278	0.397
Mof_C 	C 	0.21068	0.56494	0.16257	0.573
Mof_H 	H 	0.2256	0.572	0.143	-0.859
Mof_Co	Co	0.2517	0.5726	0.13592	1.311
Mof_H 	H 	0.1461	0.5695	0.2165	-0.575
Mof_N 	N 	0.20278	0.66696	0.06378	-0.02
Mof_N 	N 	0.21609	0.03665	0.68409	-0.385
Mof_N 	N 	0.1893	0.0365	0.70825	-0.347
Mof_C 	C 	0.17973	0.08208	0.67374	-0.519
Mof_C 	C 	0.1622	0.11453	0.65923	0.255
Mof_C 	C 	0.17579	0.13158	0.62868	-0.287
Mof_H 	H 	0.1967	0.1222	0.6173	0.021
Mof_C 	C 	0.16696	0.06378	0.70278	0.396
Mof_C 	C 	0.21068	0.06494	0.66257	0.572
Mof_H 	H 	0.2256	0.072	0.643	-0.859
Mof_Co	Co	0.2517	0.0726	0.63592	1.31
Mof_H 	H 	0.1461	0.0695	0.7165	-0.575
Mof_N 	N 	0.20278	0.16696	0.56378	-0.02
Mof_N 	N 	0.28391	0.46335	0.68409	-0.383
Mof_N 	N 	0.3107	0.4635	0.70825	-0.344
Mof_C 	C 	0.32027	0.41792	0.67374	-0.519
Mof_C 	C 	0.3378	0.38547	0.65923	0.256
Mof_C 	C 	0.32421	0.36842	0.62868	-0.287
Mof_H 	H 	0.3033	0.3778	0.6173	0.022
Mof_C 	C 	0.33304	0.43622	0.70278	0.398
Mof_C 	C 	0.28932	0.43506	0.66257	0.574
Mof_H 	H 	0.2744	0.428	0.643	-0.858
Mof_Co	Co	0.2483	0.4274	0.63592	1.311
Mof_H 	H 	0.3539	0.4305	0.7165	-0.574
Mof_N 	N 	0.29722	0.33304	0.56378	-0.019
Mof_N 	N 	0.28391	0.96335	0.18409	-0.378
Mof_N 	N 	0.3107	0.9635	0.20825	-0.339
Mof_C 	C 	0.32027	0.91792	0.17374	-0.518
Mof_C 	C 	0.3378	0.88547	0.15923	0.257
Mof_C 	C 	0.32421	0.86842	0.12868	-0.287
Mof_H 	H 	0.3033	0.8778	0.1173	0.022
Mof_C 	C 	0.33304	0.93622	0.20278	0.399
Mof_C 	C 	0.28932	0.93506	0.16257	0.575
Mof_H 	H 	0.2744	0.928	0.143	-0.858
Mof_Co	Co	0.2483	0.9274	0.13592	1.312
Mof_H 	H 	0.3539	0.9305	0.2165	-0.573
Mof_N 	N 	0.29722	0.83304	0.06378	-0.02
Mof_N 	N 	0.78391	0.46335	0.18409	-0.383
Mof_N 	N 	0.8107	0.4635	0.20825	-0.344
Mof_C 	C 	0.82027	0.41792	0.17374	-0.519
Mof_C 	C 	0.8378	0.38547	0.15923	0.256
Mof_C 	C 	0.82421	0.36842	0.12868	-0.287
Mof_H 	H 	0.8033	0.3778	0.1173	0.021
Mof_C 	C 	0.83304	0.43622	0.20278	0.398
Mof_C 	C 	0.78932	0.43506	0.16257	0.574
Mof_H 	H 	0.7744	0.428	0.143	-0.858
Mof_Co	Co	0.7483	0.4274	0.13592	1.311
Mof_H 	H 	0.8539	0.4305	0.2165	-0.574
Mof_N 	N 	0.79722	0.33304	0.06378	-0.02
Mof_N 	N 	0.78391	0.96335	0.68409	-0.377
Mof_N 	N 	0.8107	0.9635	0.70825	-0.338
Mof_C 	C 	0.82027	0.91792	0.67374	-0.518
Mof_C 	C 	0.8378	0.88547	0.65923	0.258
Mof_C 	C 	0.82421	0.86842	0.62868	-0.287
Mof_H 	H 	0.8033	0.8778	0.6173	0.023
Mof_C 	C 	0.83304	0.93622	0.70278	0.4
Mof_C 	C 	0.78932	0.93506	0.66257	0.576
Mof_H 	H 	0.7744	0.928	0.643	-0.857
Mof_Co	Co	0.7483	0.9274	0.63592	1.313
Mof_H 	H 	0.8539	0.9305	0.7165	-0.572
Mof_N 	N 	0.79722	0.83304	0.56378	-0.019
Mof_N 	N 	0.31591	0.28391	0.53665	-0.369
Mof_N 	N 	0.29175	0.3107	0.5365	-0.25
Mof_C 	C 	0.32626	0.32027	0.58208	-0.287
Mof_C 	C 	0.34077	0.3378	0.61453	0.179
Mof_C 	C 	0.37132	0.32421	0.63158	-0.253
Mof_H 	H 	0.3827	0.3033	0.6222	0.007
Mof_C 	C 	0.33743	0.28932	0.56494	0.482
Mof_H 	H 	0.357	0.2744	0.572	-0.824
Mof_Co	Co	0.36408	0.2483	0.5726	1.305
Mof_H 	H 	0.2835	0.3539	0.5695	-0.395
Mof_N 	N 	0.43622	0.29722	0.66696	-0.02
Mof_N 	N 	0.31591	0.78391	0.03665	-0.371
Mof_N 	N 	0.29175	0.8107	0.0365	-0.252
Mof_C 	C 	0.32626	0.82027	0.08208	-0.288
Mof_C 	C 	0.34077	0.8378	0.11453	0.178
Mof_C 	C 	0.37132	0.82421	0.13158	-0.253
Mof_H 	H 	0.3827	0.8033	0.1222	0.007
Mof_C 	C 	0.33743	0.78932	0.06494	0.481
Mof_H 	H 	0.357	0.7744	0.072	-0.824
Mof_Co	Co	0.36408	0.7483	0.0726	1.304
Mof_H 	H 	0.2835	0.8539	0.0695	-0.396
Mof_N 	N 	0.43622	0.79722	0.16696	-0.02
Mof_N 	N 	0.81591	0.28391	0.03665	-0.37
Mof_N 	N 	0.79175	0.3107	0.0365	-0.252
Mof_C 	C 	0.82626	0.32027	0.08208	-0.288
Mof_C 	C 	0.84077	0.3378	0.11453	0.178
Mof_C 	C 	0.87132	0.32421	0.13158	-0.253
Mof_H 	H 	0.8827	0.3033	0.1222	0.007
Mof_C 	C 	0.83743	0.28932	0.06494	0.481
Mof_H 	H 	0.857	0.2744	0.072	-0.824
Mof_Co	Co	0.86408	0.2483	0.0726	1.305
Mof_H 	H 	0.7835	0.3539	0.0695	-0.396
Mof_N 	N 	0.93622	0.29722	0.16696	-0.019
Mof_N 	N 	0.81591	0.78391	0.53665	-0.368
Mof_N 	N 	0.79175	0.8107	0.5365	-0.249
Mof_C 	C 	0.82626	0.82027	0.58208	-0.286
Mof_C 	C 	0.84077	0.8378	0.61453	0.18
Mof_C 	C 	0.87132	0.82421	0.63158	-0.253
Mof_H 	H 	0.8827	0.8033	0.6222	0.008
Mof_C 	C 	0.83743	0.78932	0.56494	0.483
Mof_H 	H 	0.857	0.7744	0.572	-0.823
Mof_Co	Co	0.86408	0.7483	0.5726	1.306
Mof_H 	H 	0.7835	0.8539	0.5695	-0.394
Mof_N 	N 	0.93622	0.79722	0.66696	-0.019
Mof_N 	N 	0.31591	0.71609	0.46335	-0.369
Mof_N 	N 	0.29175	0.6893	0.4635	-0.25
Mof_C 	C 	0.32626	0.67973	0.41792	-0.287
Mof_C 	C 	0.34077	0.6622	0.38547	0.179
Mof_C 	C 	0.37132	0.67579	0.36842	-0.253
Mof_H 	H 	0.3827	0.6967	0.3778	0.007
Mof_C 	C 	0.33743	0.71068	0.43506	0.482
Mof_H 	H 	0.357	0.7256	0.428	-0.824
Mof_Co	Co	0.36408	0.7517	0.4274	1.305
Mof_H 	H 	0.2835	0.6461	0.4305	-0.395
Mof_N 	N 	0.43622	0.70278	0.33304	-0.02
Mof_N 	N 	0.31591	0.21609	0.96335	-0.363
Mof_N 	N 	0.29175	0.1893	0.9635	-0.244
Mof_C 	C 	0.32626	0.17973	0.91792	-0.286
Mof_C 	C 	0.34077	0.1622	0.88547	0.179
Mof_C 	C 	0.37132	0.17579	0.86842	-0.253
Mof_H 	H 	0.3827	0.1967	0.8778	0.008
Mof_C 	C 	0.33743	0.21068	0.93506	0.483
Mof_H 	H 	0.357	0.2256	0.928	-0.823
Mof_Co	Co	0.36408	0.2517	0.9274	1.306
Mof_H 	H 	0.2835	0.1461	0.9305	-0.394
Mof_N 	N 	0.43622	0.20278	0.83304	-0.02
Mof_N 	N 	0.81591	0.71609	0.96335	-0.363
Mof_N 	N 	0.79175	0.6893	0.9635	-0.243
Mof_C 	C 	0.82626	0.67973	0.91792	-0.286
Mof_C 	C 	0.84077	0.6622	0.88547	0.18
Mof_C 	C 	0.87132	0.67579	0.86842	-0.253
Mof_H 	H 	0.8827	0.6967	0.8778	0.008
Mof_C 	C 	0.83743	0.71068	0.93506	0.484
Mof_H 	H 	0.857	0.7256	0.928	-0.822
Mof_Co	Co	0.86408	0.7517	0.9274	1.307
Mof_H 	H 	0.7835	0.6461	0.9305	-0.393
Mof_N 	N 	0.93622	0.70278	0.83304	-0.019
Mof_N 	N 	0.81591	0.21609	0.46335	-0.369
Mof_N 	N 	0.79175	0.1893	0.4635	-0.25
Mof_C 	C 	0.82626	0.17973	0.41792	-0.287
Mof_C 	C 	0.84077	0.1622	0.38547	0.179
Mof_C 	C 	0.87132	0.17579	0.36842	-0.253
Mof_H 	H 	0.8827	0.1967	0.3778	0.008
Mof_C 	C 	0.83743	0.21068	0.43506	0.483
Mof_H 	H 	0.857	0.2256	0.428	-0.823
Mof_Co	Co	0.86408	0.2517	0.4274	1.306
Mof_H 	H 	0.7835	0.1461	0.4305	-0.395
Mof_N 	N 	0.93622	0.20278	0.33304	-0.019
Mof_N 	N 	0.68409	0.71609	0.53665	-0.369
Mof_N 	N 	0.70825	0.6893	0.5365	-0.25
Mof_C 	C 	0.67374	0.67973	0.58208	-0.287
Mof_C 	C 	0.65923	0.6622	0.61453	0.179
Mof_C 	C 	0.62868	0.67579	0.63158	-0.253
Mof_H 	H 	0.6173	0.6967	0.6222	0.007
Mof_C 	C 	0.66257	0.71068	0.56494	0.482
Mof_H 	H 	0.643	0.7256	0.572	-0.824
Mof_Co	Co	0.63592	0.7517	0.5726	1.305
Mof_H 	H 	0.7165	0.6461	0.5695	-0.395
Mof_N 	N 	0.56378	0.70278	0.66696	-0.02
Mof_N 	N 	0.68409	0.21609	0.03665	-0.371
Mof_N 	N 	0.70825	0.1893	0.0365	-0.252
Mof_C 	C 	0.67374	0.17973	0.08208	-0.288
Mof_C 	C 	0.65923	0.1622	0.11453	0.177
Mof_C 	C 	0.62868	0.17579	0.13158	-0.253
Mof_H 	H 	0.6173	0.1967	0.1222	0.006
Mof_C 	C 	0.66257	0.21068	0.06494	0.481
Mof_H 	H 	0.643	0.2256	0.072	-0.824
Mof_Co	Co	0.63592	0.2517	0.0726	1.304
Mof_H 	H 	0.7165	0.1461	0.0695	-0.397
Mof_N 	N 	0.56378	0.20278	0.16696	-0.02
Mof_N 	N 	0.18409	0.71609	0.03665	-0.371
Mof_N 	N 	0.20825	0.6893	0.0365	-0.252
Mof_C 	C 	0.17374	0.67973	0.08208	-0.288
Mof_C 	C 	0.15923	0.6622	0.11453	0.177
Mof_C 	C 	0.12868	0.67579	0.13158	-0.253
Mof_H 	H 	0.1173	0.6967	0.1222	0.006
Mof_C 	C 	0.16257	0.71068	0.06494	0.48
Mof_H 	H 	0.143	0.7256	0.072	-0.824
Mof_Co	Co	0.13592	0.7517	0.0726	1.303
Mof_H 	H 	0.2165	0.6461	0.0695	-0.396
Mof_N 	N 	0.06378	0.70278	0.16696	-0.02
Mof_N 	N 	0.18409	0.21609	0.53665	-0.369
Mof_N 	N 	0.20825	0.1893	0.5365	-0.25
Mof_C 	C 	0.17374	0.17973	0.58208	-0.288
Mof_C 	C 	0.15923	0.1622	0.61453	0.178
Mof_C 	C 	0.12868	0.17579	0.63158	-0.253
Mof_H 	H 	0.1173	0.1967	0.6222	0.006
Mof_C 	C 	0.16257	0.21068	0.56494	0.482
Mof_H 	H 	0.143	0.2256	0.572	-0.824
Mof_Co	Co	0.13592	0.2517	0.5726	1.304
Mof_H 	H 	0.2165	0.1461	0.5695	-0.396
Mof_N 	N 	0.06378	0.20278	0.66696	-0.02
Mof_N 	N 	0.68409	0.28391	0.46335	-0.369
Mof_N 	N 	0.70825	0.3107	0.4635	-0.25
Mof_C 	C 	0.67374	0.32027	0.41792	-0.287
Mof_C 	C 	0.65923	0.3378	0.38547	0.179
Mof_C 	C 	0.62868	0.32421	0.36842	-0.253
Mof_H 	H 	0.6173	0.3033	0.3778	0.007
Mof_C 	C 	0.66257	0.28932	0.43506	0.482
Mof_H 	H 	0.643	0.2744	0.428	-0.824
Mof_Co	Co	0.63592	0.2483	0.4274	1.305
Mof_H 	H 	0.7165	0.3539	0.4305	-0.395
Mof_N 	N 	0.56378	0.29722	0.33304	-0.02
Mof_N 	N 	0.68409	0.78391	0.96335	-0.363
Mof_N 	N 	0.70825	0.8107	0.9635	-0.243
Mof_C 	C 	0.67374	0.82027	0.91792	-0.286
Mof_C 	C 	0.65923	0.8378	0.88547	0.18
Mof_C 	C 	0.62868	0.82421	0.86842	-0.253
Mof_H 	H 	0.6173	0.8033	0.8778	0.008
Mof_C 	C 	0.66257	0.78932	0.93506	0.484
Mof_H 	H 	0.643	0.7744	0.928	-0.822
Mof_Co	Co	0.63592	0.7483	0.9274	1.307
Mof_H 	H 	0.7165	0.8539	0.9305	-0.393
Mof_N 	N 	0.56378	0.79722	0.83304	-0.019
Mof_N 	N 	0.18409	0.28391	0.96335	-0.363
Mof_N 	N 	0.20825	0.3107	0.9635	-0.244
Mof_C 	C 	0.17374	0.32027	0.91792	-0.286
Mof_C 	C 	0.15923	0.3378	0.88547	0.179
Mof_C 	C 	0.12868	0.32421	0.86842	-0.253
Mof_H 	H 	0.1173	0.3033	0.8778	0.007
Mof_C 	C 	0.16257	0.28932	0.93506	0.483
Mof_H 	H 	0.143	0.2744	0.928	-0.823
Mof_Co	Co	0.13592	0.2483	0.9274	1.306
Mof_H 	H 	0.2165	0.3539	0.9305	-0.393
Mof_N 	N 	0.06378	0.29722	0.83304	-0.02
Mof_N 	N 	0.18409	0.78391	0.46335	-0.369
Mof_N 	N 	0.20825	0.8107	0.4635	-0.25
Mof_C 	C 	0.17374	0.82027	0.41792	-0.287
Mof_C 	C 	0.15923	0.8378	0.38547	0.179
Mof_C 	C 	0.12868	0.82421	0.36842	-0.253
Mof_H 	H 	0.1173	0.8033	0.3778	0.007
Mof_C 	C 	0.16257	0.78932	0.43506	0.482
Mof_H 	H 	0.143	0.7744	0.428	-0.824
Mof_Co	Co	0.13592	0.7483	0.4274	1.304
Mof_H 	H 	0.2165	0.8539	0.4305	-0.395
Mof_N 	N 	0.06378	0.79722	0.33304	-0.02
Mof_N 	N 	0.53665	0.31591	0.28391	-0.373
Mof_N 	N 	0.5365	0.29175	0.3107	-0.251
Mof_C 	C 	0.58208	0.32626	0.32027	-0.29
Mof_C 	C 	0.61453	0.34077	0.3378	0.18
Mof_C 	C 	0.63158	0.37132	0.32421	-0.292
Mof_H 	H 	0.6222	0.3827	0.3033	0.021
Mof_C 	C 	0.56494	0.33743	0.28932	0.484
Mof_H 	H 	0.572	0.357	0.2744	-0.832
Mof_Co	Co	0.5726	0.36408	0.2483	1.322
Mof_H 	H 	0.5695	0.2835	0.3539	-0.397
Mof_N 	N 	0.53665	0.81591	0.78391	-0.373
Mof_N 	N 	0.5365	0.79175	0.8107	-0.25
Mof_C 	C 	0.58208	0.82626	0.82027	-0.29
Mof_C 	C 	0.61453	0.84077	0.8378	0.181
Mof_C 	C 	0.63158	0.87132	0.82421	-0.292
Mof_H 	H 	0.6222	0.8827	0.8033	0.022
Mof_C 	C 	0.56494	0.83743	0.78932	0.484
Mof_H 	H 	0.572	0.857	0.7744	-0.831
Mof_Co	Co	0.5726	0.86408	0.7483	1.323
Mof_H 	H 	0.5695	0.7835	0.8539	-0.396
Mof_N 	N 	0.03665	0.31591	0.78391	-0.375
Mof_N 	N 	0.0365	0.29175	0.8107	-0.253
Mof_C 	C 	0.08208	0.32626	0.82027	-0.291
Mof_C 	C 	0.11453	0.34077	0.8378	0.18
Mof_C 	C 	0.13158	0.37132	0.82421	-0.292
Mof_H 	H 	0.1222	0.3827	0.8033	0.02
Mof_C 	C 	0.06494	0.33743	0.78932	0.483
Mof_H 	H 	0.072	0.357	0.7744	-0.832
Mof_Co	Co	0.0726	0.36408	0.7483	1.321
Mof_H 	H 	0.0695	0.2835	0.8539	-0.398
Mof_N 	N 	0.03665	0.81591	0.28391	-0.375
Mof_N 	N 	0.0365	0.79175	0.3107	-0.253
Mof_C 	C 	0.08208	0.82626	0.32027	-0.291
Mof_C 	C 	0.11453	0.84077	0.3378	0.18
Mof_C 	C 	0.13158	0.87132	0.32421	-0.292
Mof_H 	H 	0.1222	0.8827	0.3033	0.021
Mof_C 	C 	0.06494	0.83743	0.28932	0.483
Mof_H 	H 	0.072	0.857	0.2744	-0.832
Mof_Co	Co	0.0726	0.86408	0.2483	1.322
Mof_H 	H 	0.0695	0.7835	0.3539	-0.398
Mof_N 	N 	0.46335	0.31591	0.71609	-0.373
Mof_N 	N 	0.4635	0.29175	0.6893	-0.251
Mof_C 	C 	0.41792	0.32626	0.67973	-0.29
Mof_C 	C 	0.38547	0.34077	0.6622	0.18
Mof_C 	C 	0.36842	0.37132	0.67579	-0.292
Mof_H 	H 	0.3778	0.3827	0.6967	0.021
Mof_C 	C 	0.43506	0.33743	0.71068	0.484
Mof_H 	H 	0.428	0.357	0.7256	-0.832
Mof_Co	Co	0.4274	0.36408	0.7517	1.322
Mof_H 	H 	0.4305	0.2835	0.6461	-0.397
Mof_N 	N 	0.46335	0.81591	0.21609	-0.373
Mof_N 	N 	0.4635	0.79175	0.1893	-0.251
Mof_C 	C 	0.41792	0.82626	0.17973	-0.29
Mof_C 	C 	0.38547	0.84077	0.1622	0.18
Mof_C 	C 	0.36842	0.87132	0.17579	-0.292
Mof_H 	H 	0.3778	0.8827	0.1967	0.021
Mof_C 	C 	0.43506	0.83743	0.21068	0.484
Mof_H 	H 	0.428	0.857	0.2256	-0.831
Mof_Co	Co	0.4274	0.86408	0.2517	1.323
Mof_H 	H 	0.4305	0.7835	0.1461	-0.397
Mof_N 	N 	0.96335	0.31591	0.21609	-0.367
Mof_N 	N 	0.9635	0.29175	0.1893	-0.245
Mof_C 	C 	0.91792	0.32626	0.17973	-0.289
Mof_C 	C 	0.88547	0.34077	0.1622	0.181
Mof_C 	C 	0.86842	0.37132	0.17579	-0.292
Mof_H 	H 	0.8778	0.3827	0.1967	0.021
Mof_C 	C 	0.93506	0.33743	0.21068	0.485
Mof_H 	H 	0.928	0.357	0.2256	-0.831
Mof_Co	Co	0.9274	0.36408	0.2517	1.324
Mof_H 	H 	0.9305	0.2835	0.1461	-0.396
Mof_N 	N 	0.96335	0.81591	0.71609	-0.367
Mof_N 	N 	0.9635	0.79175	0.6893	-0.245
Mof_C 	C 	0.91792	0.82626	0.67973	-0.289
Mof_C 	C 	0.88547	0.84077	0.6622	0.181
Mof_C 	C 	0.86842	0.87132	0.67579	-0.292
Mof_H 	H 	0.8778	0.8827	0.6967	0.022
Mof_C 	C 	0.93506	0.83743	0.71068	0.486
Mof_H 	H 	0.928	0.857	0.7256	-0.83
Mof_Co	Co	0.9274	0.86408	0.7517	1.325
Mof_H 	H 	0.9305	0.7835	0.6461	-0.395
Mof_N 	N 	0.53665	0.68409	0.71609	-0.373
Mof_N 	N 	0.5365	0.70825	0.6893	-0.251
Mof_C 	C 	0.58208	0.67374	0.67973	-0.291
Mof_C 	C 	0.61453	0.65923	0.6622	0.18
Mof_C 	C 	0.63158	0.62868	0.67579	-0.293
Mof_H 	H 	0.6222	0.6173	0.6967	0.021
Mof_C 	C 	0.56494	0.66257	0.71068	0.484
Mof_H 	H 	0.572	0.643	0.7256	-0.832
Mof_Co	Co	0.5726	0.63592	0.7517	1.322
Mof_H 	H 	0.5695	0.7165	0.6461	-0.397
Mof_N 	N 	0.53665	0.18409	0.21609	-0.373
Mof_N 	N 	0.5365	0.20825	0.1893	-0.251
Mof_C 	C 	0.58208	0.17374	0.17973	-0.291
Mof_C 	C 	0.61453	0.15923	0.1622	0.179
Mof_C 	C 	0.63158	0.12868	0.17579	-0.293
Mof_H 	H 	0.6222	0.1173	0.1967	0.02
Mof_C 	C 	0.56494	0.16257	0.21068	0.483
Mof_H 	H 	0.572	0.143	0.2256	-0.832
Mof_Co	Co	0.5726	0.13592	0.2517	1.322
Mof_H 	H 	0.5695	0.2165	0.1461	-0.398
Mof_N 	N 	0.03665	0.68409	0.21609	-0.375
Mof_N 	N 	0.0365	0.70825	0.1893	-0.253
Mof_C 	C 	0.08208	0.67374	0.17973	-0.292
Mof_C 	C 	0.11453	0.65923	0.1622	0.179
Mof_C 	C 	0.13158	0.62868	0.17579	-0.293
Mof_H 	H 	0.1222	0.6173	0.1967	0.02
Mof_C 	C 	0.06494	0.66257	0.21068	0.482
Mof_H 	H 	0.072	0.643	0.2256	-0.832
Mof_Co	Co	0.0726	0.63592	0.2517	1.321
Mof_H 	H 	0.0695	0.7165	0.1461	-0.399
Mof_N 	N 	0.03665	0.18409	0.71609	-0.375
Mof_N 	N 	0.0365	0.20825	0.6893	-0.253
Mof_C 	C 	0.08208	0.17374	0.67973	-0.292
Mof_C 	C 	0.11453	0.15923	0.6622	0.179
Mof_C 	C 	0.13158	0.12868	0.67579	-0.293
Mof_H 	H 	0.1222	0.1173	0.6967	0.019
Mof_C 	C 	0.06494	0.16257	0.71068	0.482
Mof_H 	H 	0.072	0.143	0.7256	-0.833
Mof_Co	Co	0.0726	0.13592	0.7517	1.321
Mof_H 	H 	0.0695	0.2165	0.6461	-0.398
Mof_N 	N 	0.46335	0.68409	0.28391	-0.373
Mof_N 	N 	0.4635	0.70825	0.3107	-0.251
Mof_C 	C 	0.41792	0.67374	0.32027	-0.29
Mof_C 	C 	0.38547	0.65923	0.3378	0.18
Mof_C 	C 	0.36842	0.62868	0.32421	-0.292
Mof_H 	H 	0.3778	0.6173	0.3033	0.021
Mof_C 	C 	0.43506	0.66257	0.28932	0.484
Mof_H 	H 	0.428	0.643	0.2744	-0.832
Mof_Co	Co	0.4274	0.63592	0.2483	1.322
Mof_H 	H 	0.4305	0.7165	0.3539	-0.397
Mof_N 	N 	0.46335	0.18409	0.78391	-0.373
Mof_N 	N 	0.4635	0.20825	0.8107	-0.251
Mof_C 	C 	0.41792	0.17374	0.82027	-0.29
Mof_C 	C 	0.38547	0.15923	0.8378	0.18
Mof_C 	C 	0.36842	0.12868	0.82421	-0.292
Mof_H 	H 	0.3778	0.1173	0.8033	0.02
Mof_C 	C 	0.43506	0.16257	0.78932	0.484
Mof_H 	H 	0.428	0.143	0.7744	-0.832
Mof_Co	Co	0.4274	0.13592	0.7483	1.322
Mof_H 	H 	0.4305	0.2165	0.8539	-0.397
Mof_N 	N 	0.96335	0.68409	0.78391	-0.367
Mof_N 	N 	0.9635	0.70825	0.8107	-0.244
Mof_C 	C 	0.91792	0.67374	0.82027	-0.289
Mof_C 	C 	0.88547	0.65923	0.8378	0.181
Mof_C 	C 	0.86842	0.62868	0.82421	-0.292
Mof_H 	H 	0.8778	0.6173	0.8033	0.021
Mof_C 	C 	0.93506	0.66257	0.78932	0.485
Mof_H 	H 	0.928	0.643	0.7744	-0.831
Mof_Co	Co	0.9274	0.63592	0.7483	1.324
Mof_H 	H 	0.9305	0.7165	0.8539	-0.395
Mof_N 	N 	0.96335	0.18409	0.28391	-0.367
Mof_N 	N 	0.9635	0.20825	0.3107	-0.245
Mof_C 	C 	0.91792	0.17374	0.32027	-0.289
Mof_C 	C 	0.88547	0.15923	0.3378	0.18
Mof_C 	C 	0.86842	0.12868	0.32421	-0.292
Mof_H 	H 	0.8778	0.1173	0.3033	0.021
Mof_C 	C 	0.93506	0.16257	0.28932	0.485
Mof_H 	H 	0.928	0.143	0.2744	-0.831
Mof_Co	Co	0.9274	0.13592	0.2483	1.323
Mof_H 	H 	0.9305	0.2165	0.3539	-0.395
Mof_N 	N 	0.03665	0.78391	0.18409	-0.385
Mof_N 	N 	0.0365	0.8107	0.20825	-0.346
Mof_C 	C 	0.08208	0.82027	0.17374	-0.519
Mof_C 	C 	0.11453	0.8378	0.15923	0.255
Mof_C 	C 	0.13158	0.82421	0.12868	-0.287
Mof_H 	H 	0.1222	0.8033	0.1173	0.021
Mof_C 	C 	0.06378	0.83304	0.20278	0.397
Mof_C 	C 	0.06494	0.78932	0.16257	0.572
Mof_H 	H 	0.072	0.7744	0.143	-0.859
Mof_Co	Co	0.0726	0.7483	0.13592	1.31
Mof_H 	H 	0.0695	0.8539	0.2165	-0.574
Mof_N 	N 	0.16696	0.79722	0.06378	-0.02
Mof_N 	N 	0.03665	0.28391	0.68409	-0.385
Mof_N 	N 	0.0365	0.3107	0.70825	-0.346
Mof_C 	C 	0.08208	0.32027	0.67374	-0.519
Mof_C 	C 	0.11453	0.3378	0.65923	0.255
Mof_C 	C 	0.13158	0.32421	0.62868	-0.287
Mof_H 	H 	0.1222	0.3033	0.6173	0.021
Mof_C 	C 	0.06378	0.33304	0.70278	0.396
Mof_C 	C 	0.06494	0.28932	0.66257	0.572
Mof_H 	H 	0.072	0.2744	0.643	-0.859
Mof_Co	Co	0.0726	0.2483	0.63592	1.31
Mof_H 	H 	0.0695	0.3539	0.7165	-0.575
Mof_N 	N 	0.16696	0.29722	0.56378	-0.019
Mof_N 	N 	0.53665	0.78391	0.68409	-0.383
Mof_N 	N 	0.5365	0.8107	0.70825	-0.344
Mof_C 	C 	0.58208	0.82027	0.67374	-0.518
Mof_C 	C 	0.61453	0.8378	0.65923	0.257
Mof_C 	C 	0.63158	0.82421	0.62868	-0.287
Mof_H 	H 	0.6222	0.8033	0.6173	0.022
Mof_C 	C 	0.56378	0.83304	0.70278	0.398
Mof_C 	C 	0.56494	0.78932	0.66257	0.574
Mof_H 	H 	0.572	0.7744	0.643	-0.858
Mof_Co	Co	0.5726	0.7483	0.63592	1.312
Mof_H 	H 	0.5695	0.8539	0.7165	-0.573
Mof_N 	N 	0.66696	0.79722	0.56378	-0.019
Mof_N 	N 	0.53665	0.28391	0.18409	-0.384
Mof_N 	N 	0.5365	0.3107	0.20825	-0.345
Mof_C 	C 	0.58208	0.32027	0.17374	-0.519
Mof_C 	C 	0.61453	0.3378	0.15923	0.256
Mof_C 	C 	0.63158	0.32421	0.12868	-0.287
Mof_H 	H 	0.6222	0.3033	0.1173	0.021
Mof_C 	C 	0.56378	0.33304	0.20278	0.398
Mof_C 	C 	0.56494	0.28932	0.16257	0.573
Mof_H 	H 	0.572	0.2744	0.143	-0.859
Mof_Co	Co	0.5726	0.2483	0.13592	1.311
Mof_H 	H 	0.5695	0.3539	0.2165	-0.574
Mof_N 	N 	0.66696	0.29722	0.06378	-0.02
Mof_N 	N 	0.96335	0.21609	0.18409	-0.378
Mof_N 	N 	0.9635	0.1893	0.20825	-0.339
Mof_C 	C 	0.91792	0.17973	0.17374	-0.518
Mof_C 	C 	0.88547	0.1622	0.15923	0.256
Mof_C 	C 	0.86842	0.17579	0.12868	-0.287
Mof_H 	H 	0.8778	0.1967	0.1173	0.022
Mof_C 	C 	0.93622	0.16696	0.20278	0.399
Mof_C 	C 	0.93506	0.21068	0.16257	0.575
Mof_H 	H 	0.928	0.2256	0.143	-0.858
Mof_Co	Co	0.9274	0.2517	0.13592	1.312
Mof_H 	H 	0.9305	0.1461	0.2165	-0.573
Mof_N 	N 	0.83304	0.20278	0.06378	-0.02
Mof_N 	N 	0.96335	0.71609	0.68409	-0.378
Mof_N 	N 	0.9635	0.6893	0.70825	-0.339
Mof_C 	C 	0.91792	0.67973	0.67374	-0.518
Mof_C 	C 	0.88547	0.6622	0.65923	0.257
Mof_C 	C 	0.86842	0.67579	0.62868	-0.287
Mof_H 	H 	0.8778	0.6967	0.6173	0.023
Mof_C 	C 	0.93622	0.66696	0.70278	0.399
Mof_C 	C 	0.93506	0.71068	0.66257	0.575
Mof_H 	H 	0.928	0.7256	0.643	-0.857
Mof_Co	Co	0.9274	0.7517	0.63592	1.313
Mof_H 	H 	0.9305	0.6461	0.7165	-0.573
Mof_N 	N 	0.83304	0.70278	0.56378	-0.019
Mof_N 	N 	0.46335	0.21609	0.68409	-0.383
Mof_N 	N 	0.4635	0.1893	0.70825	-0.345
Mof_C 	C 	0.41792	0.17973	0.67374	-0.519
Mof_C 	C 	0.38547	0.1622	0.65923	0.256
Mof_C 	C 	0.36842	0.17579	0.62868	-0.287
Mof_H 	H 	0.3778	0.1967	0.6173	0.022
Mof_C 	C 	0.43622	0.16696	0.70278	0.398
Mof_C 	C 	0.43506	0.21068	0.66257	0.574
Mof_H 	H 	0.428	0.2256	0.643	-0.858
Mof_Co	Co	0.4274	0.2517	0.63592	1.311
Mof_H 	H 	0.4305	0.1461	0.7165	-0.574
Mof_N 	N 	0.33304	0.20278	0.56378	-0.019
Mof_N 	N 	0.46335	0.71609	0.18409	-0.384
Mof_N 	N 	0.4635	0.6893	0.20825	-0.345
Mof_C 	C 	0.41792	0.67973	0.17374	-0.519
Mof_C 	C 	0.38547	0.6622	0.15923	0.256
Mof_C 	C 	0.36842	0.67579	0.12868	-0.287
Mof_H 	H 	0.3778	0.6967	0.1173	0.021
Mof_C 	C 	0.43622	0.66696	0.20278	0.398
Mof_C 	C 	0.43506	0.71068	0.16257	0.573
Mof_H 	H 	0.428	0.7256	0.143	-0.858
Mof_Co	Co	0.4274	0.7517	0.13592	1.311
Mof_H 	H 	0.4305	0.6461	0.2165	-0.574
Mof_N 	N 	0.33304	0.70278	0.06378	-0.02
Mof_N 	N 	0.03665	0.21609	0.81591	-0.385
Mof_N 	N 	0.0365	0.1893	0.79175	-0.346
Mof_C 	C 	0.08208	0.17973	0.82626	-0.519
Mof_C 	C 	0.11453	0.1622	0.84077	0.255
Mof_C 	C 	0.13158	0.17579	0.87132	-0.287
Mof_H 	H 	0.1222	0.1967	0.8827	0.022
Mof_C 	C 	0.06378	0.16696	0.79722	0.396
Mof_C 	C 	0.06494	0.21068	0.83743	0.573
Mof_H 	H 	0.072	0.2256	0.857	-0.858
Mof_Co	Co	0.0726	0.2517	0.86408	1.311
Mof_H 	H 	0.0695	0.1461	0.7835	-0.575
Mof_N 	N 	0.16696	0.20278	0.93622	-0.019
Mof_N 	N 	0.03665	0.71609	0.31591	-0.385
Mof_N 	N 	0.0365	0.6893	0.29175	-0.346
Mof_C 	C 	0.08208	0.67973	0.32626	-0.519
Mof_C 	C 	0.11453	0.6622	0.34077	0.255
Mof_C 	C 	0.13158	0.67579	0.37132	-0.287
Mof_H 	H 	0.1222	0.6967	0.3827	0.021
Mof_C 	C 	0.06378	0.66696	0.29722	0.396
Mof_C 	C 	0.06494	0.71068	0.33743	0.572
Mof_H 	H 	0.072	0.7256	0.357	-0.859
Mof_Co	Co	0.0726	0.7517	0.36408	1.31
Mof_H 	H 	0.0695	0.6461	0.2835	-0.575
Mof_N 	N 	0.16696	0.70278	0.43622	-0.019
Mof_N 	N 	0.53665	0.21609	0.31591	-0.383
Mof_N 	N 	0.5365	0.1893	0.29175	-0.345
Mof_C 	C 	0.58208	0.17973	0.32626	-0.519
Mof_C 	C 	0.61453	0.1622	0.34077	0.256
Mof_C 	C 	0.63158	0.17579	0.37132	-0.287
Mof_H 	H 	0.6222	0.1967	0.3827	0.022
Mof_C 	C 	0.56378	0.16696	0.29722	0.398
Mof_C 	C 	0.56494	0.21068	0.33743	0.574
Mof_H 	H 	0.572	0.2256	0.357	-0.858
Mof_Co	Co	0.5726	0.2517	0.36408	1.311
Mof_H 	H 	0.5695	0.1461	0.2835	-0.574
Mof_N 	N 	0.66696	0.20278	0.43622	-0.019
Mof_N 	N 	0.53665	0.71609	0.81591	-0.383
Mof_N 	N 	0.5365	0.6893	0.79175	-0.344
Mof_C 	C 	0.58208	0.67973	0.82626	-0.518
Mof_C 	C 	0.61453	0.6622	0.84077	0.257
Mof_C 	C 	0.63158	0.67579	0.87132	-0.287
Mof_H 	H 	0.6222	0.6967	0.8827	0.023
Mof_C 	C 	0.56378	0.66696	0.79722	0.398
Mof_C 	C 	0.56494	0.71068	0.83743	0.574
Mof_H 	H 	0.572	0.7256	0.857	-0.858
Mof_Co	Co	0.5726	0.7517	0.86408	1.312
Mof_H 	H 	0.5695	0.6461	0.7835	-0.574
Mof_N 	N 	0.66696	0.70278	0.93622	-0.019
Mof_N 	N 	0.96335	0.78391	0.81591	-0.377
Mof_N 	N 	0.9635	0.8107	0.79175	-0.338
Mof_C 	C 	0.91792	0.82027	0.82626	-0.517
Mof_C 	C 	0.88547	0.8378	0.84077	0.258
Mof_C 	C 	0.86842	0.82421	0.87132	-0.286
Mof_H 	H 	0.8778	0.8033	0.8827	0.023
Mof_C 	C 	0.93622	0.83304	0.79722	0.4
Mof_C 	C 	0.93506	0.78932	0.83743	0.576
Mof_H 	H 	0.928	0.7744	0.857	-0.857
Mof_Co	Co	0.9274	0.7483	0.86408	1.314
Mof_H 	H 	0.9305	0.8539	0.7835	-0.572
Mof_N 	N 	0.83304	0.79722	0.93622	-0.019
Mof_N 	N 	0.96335	0.28391	0.31591	-0.377
Mof_N 	N 	0.9635	0.3107	0.29175	-0.339
Mof_C 	C 	0.91792	0.32027	0.32626	-0.518
Mof_C 	C 	0.88547	0.3378	0.34077	0.257
Mof_C 	C 	0.86842	0.32421	0.37132	-0.287
Mof_H 	H 	0.8778	0.3033	0.3827	0.023
Mof_C 	C 	0.93622	0.33304	0.29722	0.399
Mof_C 	C 	0.93506	0.28932	0.33743	0.576
Mof_H 	H 	0.928	0.2744	0.357	-0.857
Mof_Co	Co	0.9274	0.2483	0.36408	1.313
Mof_H 	H 	0.9305	0.3539	0.2835	-0.573
Mof_N 	N 	0.83304	0.29722	0.43622	-0.019
Mof_N 	N 	0.46335	0.78391	0.31591	-0.383
Mof_N 	N 	0.4635	0.8107	0.29175	-0.344
Mof_C 	C 	0.41792	0.82027	0.32626	-0.518
Mof_C 	C 	0.38547	0.8378	0.34077	0.257
Mof_C 	C 	0.36842	0.82421	0.37132	-0.287
Mof_H 	H 	0.3778	0.8033	0.3827	0.022
Mof_C 	C 	0.43622	0.83304	0.29722	0.398
Mof_C 	C 	0.43506	0.78932	0.33743	0.574
Mof_H 	H 	0.428	0.7744	0.357	-0.858
Mof_Co	Co	0.4274	0.7483	0.36408	1.312
Mof_H 	H 	0.4305	0.8539	0.2835	-0.574
Mof_N 	N 	0.33304	0.79722	0.43622	-0.019
Mof_N 	N 	0.46335	0.28391	0.81591	-0.383
Mof_N 	N 	0.4635	0.3107	0.79175	-0.344
Mof_C 	C 	0.41792	0.32027	0.82626	-0.518
Mof_C 	C 	0.38547	0.3378	0.84077	0.257
Mof_C 	C 	0.36842	0.32421	0.87132	-0.287
Mof_H 	H 	0.3778	0.3033	0.8827	0.023
Mof_C 	C 	0.43622	0.33304	0.79722	0.398
Mof_C 	C 	0.43506	0.28932	0.83743	0.574
Mof_H 	H 	0.428	0.2744	0.857	-0.858
Mof_Co	Co	0.4274	0.2483	0.86408	1.312
Mof_H 	H 	0.4305	0.3539	0.7835	-0.574
Mof_N 	N 	0.33304	0.29722	0.93622	-0.019
Mof_N 	N 	0.78391	0.81591	0.96335	-0.362
Mof_N 	N 	0.8107	0.79175	0.9635	-0.243
Mof_C 	C 	0.82027	0.82626	0.91792	-0.285
Mof_C 	C 	0.8378	0.84077	0.88547	0.18
Mof_C 	C 	0.82421	0.87132	0.86842	-0.252
Mof_H 	H 	0.8033	0.8827	0.8778	0.009
Mof_C 	C 	0.78932	0.83743	0.93506	0.484
Mof_H 	H 	0.7744	0.857	0.928	-0.822
Mof_Co	Co	0.7483	0.86408	0.9274	1.307
Mof_H 	H 	0.8539	0.7835	0.9305	-0.392
Mof_N 	N 	0.79722	0.93622	0.83304	-0.019
Mof_N 	N 	0.78391	0.31591	0.46335	-0.369
Mof_N 	N 	0.8107	0.29175	0.4635	-0.249
Mof_C 	C 	0.82027	0.32626	0.41792	-0.287
Mof_C 	C 	0.8378	0.34077	0.38547	0.179
Mof_C 	C 	0.82421	0.37132	0.36842	-0.253
Mof_H 	H 	0.8033	0.3827	0.3778	0.007
Mof_C 	C 	0.78932	0.33743	0.43506	0.482
Mof_H 	H 	0.7744	0.357	0.428	-0.823
Mof_Co	Co	0.7483	0.36408	0.4274	1.305
Mof_H 	H 	0.8539	0.2835	0.4305	-0.394
Mof_N 	N 	0.79722	0.43622	0.33304	-0.02
Mof_N 	N 	0.28391	0.81591	0.46335	-0.368
Mof_N 	N 	0.3107	0.79175	0.4635	-0.249
Mof_C 	C 	0.32027	0.82626	0.41792	-0.287
Mof_C 	C 	0.3378	0.84077	0.38547	0.179
Mof_C 	C 	0.32421	0.87132	0.36842	-0.253
Mof_H 	H 	0.3033	0.8827	0.3778	0.008
Mof_C 	C 	0.28932	0.83743	0.43506	0.483
Mof_H 	H 	0.2744	0.857	0.428	-0.823
Mof_Co	Co	0.2483	0.86408	0.4274	1.306
Mof_H 	H 	0.3539	0.7835	0.4305	-0.395
Mof_N 	N 	0.29722	0.93622	0.33304	-0.019
Mof_N 	N 	0.28391	0.31591	0.96335	-0.363
Mof_N 	N 	0.3107	0.29175	0.9635	-0.243
Mof_C 	C 	0.32027	0.32626	0.91792	-0.286
Mof_C 	C 	0.3378	0.34077	0.88547	0.179
Mof_C 	C 	0.32421	0.37132	0.86842	-0.253
Mof_H 	H 	0.3033	0.3827	0.8778	0.008
Mof_C 	C 	0.28932	0.33743	0.93506	0.484
Mof_H 	H 	0.2744	0.357	0.928	-0.823
Mof_Co	Co	0.2483	0.36408	0.9274	1.306
Mof_H 	H 	0.3539	0.2835	0.9305	-0.393
Mof_N 	N 	0.29722	0.43622	0.83304	-0.019
Mof_N 	N 	0.21609	0.81591	0.03665	-0.37
Mof_N 	N 	0.1893	0.79175	0.0365	-0.252
Mof_C 	C 	0.17973	0.82626	0.08208	-0.288
Mof_C 	C 	0.1622	0.84077	0.11453	0.178
Mof_C 	C 	0.17579	0.87132	0.13158	-0.253
Mof_H 	H 	0.1967	0.8827	0.1222	0.007
Mof_C 	C 	0.21068	0.83743	0.06494	0.481
Mof_H 	H 	0.2256	0.857	0.072	-0.824
Mof_Co	Co	0.2517	0.86408	0.0726	1.305
Mof_H 	H 	0.1461	0.7835	0.0695	-0.397
Mof_N 	N 	0.20278	0.93622	0.16696	-0.019
Mof_N 	N 	0.21609	0.31591	0.53665	-0.369
Mof_N 	N 	0.1893	0.29175	0.5365	-0.25
Mof_C 	C 	0.17973	0.32626	0.58208	-0.287
Mof_C 	C 	0.1622	0.34077	0.61453	0.178
Mof_C 	C 	0.17579	0.37132	0.63158	-0.253
Mof_H 	H 	0.1967	0.3827	0.6222	0.007
Mof_C 	C 	0.21068	0.33743	0.56494	0.482
Mof_H 	H 	0.2256	0.357	0.572	-0.824
Mof_Co	Co	0.2517	0.36408	0.5726	1.305
Mof_H 	H 	0.1461	0.2835	0.5695	-0.396
Mof_N 	N 	0.20278	0.43622	0.66696	-0.02
Mof_N 	N 	0.71609	0.81591	0.53665	-0.368
Mof_N 	N 	0.6893	0.79175	0.5365	-0.25
Mof_C 	C 	0.67973	0.82626	0.58208	-0.287
Mof_C 	C 	0.6622	0.84077	0.61453	0.179
Mof_C 	C 	0.67579	0.87132	0.63158	-0.253
Mof_H 	H 	0.6967	0.8827	0.6222	0.008
Mof_C 	C 	0.71068	0.83743	0.56494	0.483
Mof_H 	H 	0.7256	0.857	0.572	-0.823
Mof_Co	Co	0.7517	0.86408	0.5726	1.306
Mof_H 	H 	0.6461	0.7835	0.5695	-0.395
Mof_N 	N 	0.70278	0.93622	0.66696	-0.019
Mof_N 	N 	0.71609	0.31591	0.03665	-0.371
Mof_N 	N 	0.6893	0.29175	0.0365	-0.252
Mof_C 	C 	0.67973	0.32626	0.08208	-0.288
Mof_C 	C 	0.6622	0.34077	0.11453	0.178
Mof_C 	C 	0.67579	0.37132	0.13158	-0.253
Mof_H 	H 	0.6967	0.3827	0.1222	0.007
Mof_C 	C 	0.71068	0.33743	0.06494	0.481
Mof_H 	H 	0.7256	0.357	0.072	-0.824
Mof_Co	Co	0.7517	0.36408	0.0726	1.304
Mof_H 	H 	0.6461	0.2835	0.0695	-0.396
Mof_N 	N 	0.70278	0.43622	0.16696	-0.02
Mof_N 	N 	0.21609	0.18409	0.96335	-0.363
Mof_N 	N 	0.1893	0.20825	0.9635	-0.244
Mof_C 	C 	0.17973	0.17374	0.91792	-0.286
Mof_C 	C 	0.1622	0.15923	0.88547	0.178
Mof_C 	C 	0.17579	0.12868	0.86842	-0.253
Mof_H 	H 	0.1967	0.1173	0.8778	0.007
Mof_C 	C 	0.21068	0.16257	0.93506	0.483
Mof_H 	H 	0.2256	0.143	0.928	-0.823
Mof_Co	Co	0.2517	0.13592	0.9274	1.306
Mof_H 	H 	0.1461	0.2165	0.9305	-0.394
Mof_N 	N 	0.20278	0.06378	0.83304	-0.02
Mof_N 	N 	0.21609	0.68409	0.46335	-0.369
Mof_N 	N 	0.1893	0.70825	0.4635	-0.25
Mof_C 	C 	0.17973	0.67374	0.41792	-0.287
Mof_C 	C 	0.1622	0.65923	0.38547	0.178
Mof_C 	C 	0.17579	0.62868	0.36842	-0.253
Mof_H 	H 	0.1967	0.6173	0.3778	0.007
Mof_C 	C 	0.21068	0.66257	0.43506	0.482
Mof_H 	H 	0.2256	0.643	0.428	-0.824
Mof_Co	Co	0.2517	0.63592	0.4274	1.305
Mof_H 	H 	0.1461	0.7165	0.4305	-0.396
Mof_N 	N 	0.20278	0.56378	0.33304	-0.02
Mof_N 	N 	0.71609	0.18409	0.46335	-0.369
Mof_N 	N 	0.6893	0.20825	0.4635	-0.25
Mof_C 	C 	0.67973	0.17374	0.41792	-0.287
Mof_C 	C 	0.6622	0.15923	0.38547	0.178
Mof_C 	C 	0.67579	0.12868	0.36842	-0.253
Mof_H 	H 	0.6967	0.1173	0.3778	0.007
Mof_C 	C 	0.71068	0.16257	0.43506	0.482
Mof_H 	H 	0.7256	0.143	0.428	-0.824
Mof_Co	Co	0.7517	0.13592	0.4274	1.304
Mof_H 	H 	0.6461	0.2165	0.4305	-0.395
Mof_N 	N 	0.70278	0.06378	0.33304	-0.02
Mof_N 	N 	0.71609	0.68409	0.96335	-0.363
Mof_N 	N 	0.6893	0.70825	0.9635	-0.244
Mof_C 	C 	0.67973	0.67374	0.91792	-0.286
Mof_C 	C 	0.6622	0.65923	0.88547	0.179
Mof_C 	C 	0.67579	0.62868	0.86842	-0.253
Mof_H 	H 	0.6967	0.6173	0.8778	0.008
Mof_C 	C 	0.71068	0.66257	0.93506	0.484
Mof_H 	H 	0.7256	0.643	0.928	-0.823
Mof_Co	Co	0.7517	0.63592	0.9274	1.307
Mof_H 	H 	0.6461	0.7165	0.9305	-0.393
Mof_N 	N 	0.70278	0.56378	0.83304	-0.02
Mof_N 	N 	0.78391	0.18409	0.03665	-0.371
Mof_N 	N 	0.8107	0.20825	0.0365	-0.252
Mof_C 	C 	0.82027	0.17374	0.08208	-0.288
Mof_C 	C 	0.8378	0.15923	0.11453	0.178
Mof_C 	C 	0.82421	0.12868	0.13158	-0.253
Mof_H 	H 	0.8033	0.1173	0.1222	0.006
Mof_C 	C 	0.78932	0.16257	0.06494	0.481
Mof_H 	H 	0.7744	0.143	0.072	-0.824
Mof_Co	Co	0.7483	0.13592	0.0726	1.303
Mof_H 	H 	0.8539	0.2165	0.0695	-0.396
Mof_N 	N 	0.79722	0.06378	0.16696	-0.02
Mof_N 	N 	0.78391	0.68409	0.53665	-0.369
Mof_N 	N 	0.8107	0.70825	0.5365	-0.249
Mof_C 	C 	0.82027	0.67374	0.58208	-0.287
Mof_C 	C 	0.8378	0.65923	0.61453	0.179
Mof_C 	C 	0.82421	0.62868	0.63158	-0.253
Mof_H 	H 	0.8033	0.6173	0.6222	0.007
Mof_C 	C 	0.78932	0.66257	0.56494	0.482
Mof_H 	H 	0.7744	0.643	0.572	-0.823
Mof_Co	Co	0.7483	0.63592	0.5726	1.305
Mof_H 	H 	0.8539	0.7165	0.5695	-0.394
Mof_N 	N 	0.79722	0.56378	0.66696	-0.02
Mof_N 	N 	0.28391	0.18409	0.53665	-0.369
Mof_N 	N 	0.3107	0.20825	0.5365	-0.25
Mof_C 	C 	0.32027	0.17374	0.58208	-0.287
Mof_C 	C 	0.3378	0.15923	0.61453	0.178
Mof_C 	C 	0.32421	0.12868	0.63158	-0.253
Mof_H 	H 	0.3033	0.1173	0.6222	0.007
Mof_C 	C 	0.28932	0.16257	0.56494	0.482
Mof_H 	H 	0.2744	0.143	0.572	-0.824
Mof_Co	Co	0.2483	0.13592	0.5726	1.304
Mof_H 	H 	0.3539	0.2165	0.5695	-0.395
Mof_N 	N 	0.29722	0.06378	0.66696	-0.02
Mof_N 	N 	0.28391	0.68409	0.03665	-0.371
Mof_N 	N 	0.3107	0.70825	0.0365	-0.252
Mof_C 	C 	0.32027	0.67374	0.08208	-0.288
Mof_C 	C 	0.3378	0.65923	0.11453	0.178
Mof_C 	C 	0.32421	0.62868	0.13158	-0.253
Mof_H 	H 	0.3033	0.6173	0.1222	0.007
Mof_C 	C 	0.28932	0.66257	0.06494	0.481
Mof_H 	H 	0.2744	0.643	0.072	-0.824
Mof_Co	Co	0.2483	0.63592	0.0726	1.304
Mof_H 	H 	0.3539	0.7165	0.0695	-0.396
Mof_N 	N 	0.29722	0.56378	0.16696	-0.02
Mof_N 	N 	0.81591	0.03665	0.21609	-0.375
Mof_N 	N 	0.79175	0.0365	0.1893	-0.253
Mof_C 	C 	0.82626	0.08208	0.17973	-0.291
Mof_C 	C 	0.84077	0.11453	0.1622	0.18
Mof_C 	C 	0.87132	0.13158	0.17579	-0.293
Mof_H 	H 	0.8827	0.1222	0.1967	0.021
Mof_C 	C 	0.83743	0.06494	0.21068	0.483
Mof_H 	H 	0.857	0.072	0.2256	-0.832
Mof_Co	Co	0.86408	0.0726	0.2517	1.322
Mof_H 	H 	0.7835	0.0695	0.1461	-0.399
Mof_N 	N 	0.81591	0.53665	0.71609	-0.373
Mof_N 	N 	0.79175	0.5365	0.6893	-0.251
Mof_C 	C 	0.82626	0.58208	0.67973	-0.29
Mof_C 	C 	0.84077	0.61453	0.6622	0.181
Mof_C 	C 	0.87132	0.63158	0.67579	-0.292
Mof_H 	H 	0.8827	0.6222	0.6967	0.021
Mof_C 	C 	0.83743	0.56494	0.71068	0.484
Mof_H 	H 	0.857	0.572	0.7256	-0.831
Mof_Co	Co	0.86408	0.5726	0.7517	1.323
Mof_H 	H 	0.7835	0.5695	0.6461	-0.397
Mof_N 	N 	0.31591	0.03665	0.71609	-0.375
Mof_N 	N 	0.29175	0.0365	0.6893	-0.253
Mof_C 	C 	0.32626	0.08208	0.67973	-0.291
Mof_C 	C 	0.34077	0.11453	0.6622	0.179
Mof_C 	C 	0.37132	0.13158	0.67579	-0.293
Mof_H 	H 	0.3827	0.1222	0.6967	0.02
Mof_C 	C 	0.33743	0.06494	0.71068	0.483
Mof_H 	H 	0.357	0.072	0.7256	-0.832
Mof_Co	Co	0.36408	0.0726	0.7517	1.321
Mof_H 	H 	0.2835	0.0695	0.6461	-0.398
Mof_N 	N 	0.31591	0.53665	0.21609	-0.373
Mof_N 	N 	0.29175	0.5365	0.1893	-0.251
Mof_C 	C 	0.32626	0.58208	0.17973	-0.291
Mof_C 	C 	0.34077	0.61453	0.1622	0.18
Mof_C 	C 	0.37132	0.63158	0.17579	-0.293
Mof_H 	H 	0.3827	0.6222	0.1967	0.02
Mof_C 	C 	0.33743	0.56494	0.21068	0.484
Mof_H 	H 	0.357	0.572	0.2256	-0.832
Mof_Co	Co	0.36408	0.5726	0.2517	1.322
Mof_H 	H 	0.2835	0.5695	0.1461	-0.398
Mof_N 	N 	0.81591	0.96335	0.78391	-0.367
Mof_N 	N 	0.79175	0.9635	0.8107	-0.244
Mof_C 	C 	0.82626	0.91792	0.82027	-0.288
Mof_C 	C 	0.84077	0.88547	0.8378	0.182
Mof_C 	C 	0.87132	0.86842	0.82421	-0.292
Mof_H 	H 	0.8827	0.8778	0.8033	0.022
Mof_C 	C 	0.83743	0.93506	0.78932	0.486
Mof_H 	H 	0.857	0.928	0.7744	-0.83
Mof_Co	Co	0.86408	0.9274	0.7483	1.325
Mof_H 	H 	0.7835	0.9305	0.8539	-0.394
Mof_N 	N 	0.81591	0.46335	0.28391	-0.373
Mof_N 	N 	0.79175	0.4635	0.3107	-0.251
Mof_C 	C 	0.82626	0.41792	0.32027	-0.29
Mof_C 	C 	0.84077	0.38547	0.3378	0.181
Mof_C 	C 	0.87132	0.36842	0.32421	-0.292
Mof_H 	H 	0.8827	0.3778	0.3033	0.021
Mof_C 	C 	0.83743	0.43506	0.28932	0.484
Mof_H 	H 	0.857	0.428	0.2744	-0.831
Mof_Co	Co	0.86408	0.4274	0.2483	1.323
Mof_H 	H 	0.7835	0.4305	0.3539	-0.397
Mof_N 	N 	0.31591	0.96335	0.28391	-0.367
Mof_N 	N 	0.29175	0.9635	0.3107	-0.245
Mof_C 	C 	0.32626	0.91792	0.32027	-0.289
Mof_C 	C 	0.34077	0.88547	0.3378	0.181
Mof_C 	C 	0.37132	0.86842	0.32421	-0.292
Mof_H 	H 	0.3827	0.8778	0.3033	0.021
Mof_C 	C 	0.33743	0.93506	0.28932	0.485
Mof_H 	H 	0.357	0.928	0.2744	-0.831
Mof_Co	Co	0.36408	0.9274	0.2483	1.324
Mof_H 	H 	0.2835	0.9305	0.3539	-0.395
Mof_N 	N 	0.31591	0.46335	0.78391	-0.373
Mof_N 	N 	0.29175	0.4635	0.8107	-0.251
Mof_C 	C 	0.32626	0.41792	0.82027	-0.29
Mof_C 	C 	0.34077	0.38547	0.8378	0.181
Mof_C 	C 	0.37132	0.36842	0.82421	-0.292
Mof_H 	H 	0.3827	0.3778	0.8033	0.021
Mof_C 	C 	0.33743	0.43506	0.78932	0.484
Mof_H 	H 	0.357	0.428	0.7744	-0.832
Mof_Co	Co	0.36408	0.4274	0.7483	1.322
Mof_H 	H 	0.2835	0.4305	0.8539	-0.396
Mof_N 	N 	0.18409	0.03665	0.78391	-0.375
Mof_N 	N 	0.20825	0.0365	0.8107	-0.253
Mof_C 	C 	0.17374	0.08208	0.82027	-0.291
Mof_C 	C 	0.15923	0.11453	0.8378	0.179
Mof_C 	C 	0.12868	0.13158	0.82421	-0.292
Mof_H 	H 	0.1173	0.1222	0.8033	0.02
Mof_C 	C 	0.16257	0.06494	0.78932	0.482
Mof_H 	H 	0.143	0.072	0.7744	-0.832
Mof_Co	Co	0.13592	0.0726	0.7483	1.321
Mof_H 	H 	0.2165	0.0695	0.8539	-0.398
Mof_N 	N 	0.18409	0.53665	0.28391	-0.373
Mof_N 	N 	0.20825	0.5365	0.3107	-0.251
Mof_C 	C 	0.17374	0.58208	0.32027	-0.291
Mof_C 	C 	0.15923	0.61453	0.3378	0.18
Mof_C 	C 	0.12868	0.63158	0.32421	-0.292
Mof_H 	H 	0.1173	0.6222	0.3033	0.02
Mof_C 	C 	0.16257	0.56494	0.28932	0.483
Mof_H 	H 	0.143	0.572	0.2744	-0.832
Mof_Co	Co	0.13592	0.5726	0.2483	1.322
Mof_H 	H 	0.2165	0.5695	0.3539	-0.397
Mof_N 	N 	0.68409	0.03665	0.28391	-0.375
Mof_N 	N 	0.70825	0.0365	0.3107	-0.253
Mof_C 	C 	0.67374	0.08208	0.32027	-0.291
Mof_C 	C 	0.65923	0.11453	0.3378	0.179
Mof_C 	C 	0.62868	0.13158	0.32421	-0.293
Mof_H 	H 	0.6173	0.1222	0.3033	0.02
Mof_C 	C 	0.66257	0.06494	0.28932	0.482
Mof_H 	H 	0.643	0.072	0.2744	-0.832
Mof_Co	Co	0.63592	0.0726	0.2483	1.321
Mof_H 	H 	0.7165	0.0695	0.3539	-0.398
Mof_N 	N 	0.68409	0.53665	0.78391	-0.373
Mof_N 	N 	0.70825	0.5365	0.8107	-0.251
Mof_C 	C 	0.67374	0.58208	0.82027	-0.29
Mof_C 	C 	0.65923	0.61453	0.8378	0.181
Mof_C 	C 	0.62868	0.63158	0.82421	-0.292
Mof_H 	H 	0.6173	0.6222	0.8033	0.021
Mof_C 	C 	0.66257	0.56494	0.78932	0.484
Mof_H 	H 	0.643	0.572	0.7744	-0.832
Mof_Co	Co	0.63592	0.5726	0.7483	1.322
Mof_H 	H 	0.7165	0.5695	0.8539	-0.396
Mof_N 	N 	0.18409	0.96335	0.21609	-0.367
Mof_N 	N 	0.20825	0.9635	0.1893	-0.245
Mof_C 	C 	0.17374	0.91792	0.17973	-0.29
Mof_C 	C 	0.15923	0.88547	0.1622	0.18
Mof_C 	C 	0.12868	0.86842	0.17579	-0.292
Mof_H 	H 	0.1173	0.8778	0.1967	0.02
Mof_C 	C 	0.16257	0.93506	0.21068	0.485
Mof_H 	H 	0.143	0.928	0.2256	-0.831
Mof_Co	Co	0.13592	0.9274	0.2517	1.323
Mof_H 	H 	0.2165	0.9305	0.1461	-0.396
Mof_N 	N 	0.18409	0.46335	0.71609	-0.373
Mof_N 	N 	0.20825	0.4635	0.6893	-0.251
Mof_C 	C 	0.17374	0.41792	0.67973	-0.291
Mof_C 	C 	0.15923	0.38547	0.6622	0.18
Mof_C 	C 	0.12868	0.36842	0.67579	-0.293
Mof_H 	H 	0.1173	0.3778	0.6967	0.02
Mof_C 	C 	0.16257	0.43506	0.71068	0.483
Mof_H 	H 	0.143	0.428	0.7256	-0.832
Mof_Co	Co	0.13592	0.4274	0.7517	1.322
Mof_H 	H 	0.2165	0.4305	0.6461	-0.397
Mof_N 	N 	0.68409	0.96335	0.71609	-0.367
Mof_N 	N 	0.70825	0.9635	0.6893	-0.245
Mof_C 	C 	0.67374	0.91792	0.67973	-0.289
Mof_C 	C 	0.65923	0.88547	0.6622	0.181
Mof_C 	C 	0.62868	0.86842	0.67579	-0.292
Mof_H 	H 	0.6173	0.8778	0.6967	0.021
Mof_C 	C 	0.66257	0.93506	0.71068	0.485
Mof_H 	H 	0.643	0.928	0.7256	-0.831
Mof_Co	Co	0.63592	0.9274	0.7517	1.324
Mof_H 	H 	0.7165	0.9305	0.6461	-0.395
Mof_N 	N 	0.68409	0.46335	0.21609	-0.373
Mof_N 	N 	0.70825	0.4635	0.1893	-0.251
Mof_C 	C 	0.67374	0.41792	0.17973	-0.291
Mof_C 	C 	0.65923	0.38547	0.1622	0.18
Mof_C 	C 	0.62868	0.36842	0.17579	-0.293
Mof_H 	H 	0.6173	0.3778	0.1967	0.02
Mof_C 	C 	0.66257	0.43506	0.21068	0.484
Mof_H 	H 	0.643	0.428	0.2256	-0.832
Mof_Co	Co	0.63592	0.4274	0.2517	1.322
Mof_H 	H 	0.7165	0.4305	0.1461	-0.398
Mof_N 	N 	0.71609	0.46335	0.68409	-0.383
Mof_N 	N 	0.6893	0.4635	0.70825	-0.345
Mof_C 	C 	0.67973	0.41792	0.67374	-0.519
Mof_C 	C 	0.6622	0.38547	0.65923	0.256
Mof_C 	C 	0.67579	0.36842	0.62868	-0.287
Mof_H 	H 	0.6967	0.3778	0.6173	0.022
Mof_C 	C 	0.66696	0.43622	0.70278	0.398
Mof_C 	C 	0.71068	0.43506	0.66257	0.574
Mof_H 	H 	0.7256	0.428	0.643	-0.858
Mof_Co	Co	0.7517	0.4274	0.63592	1.312
Mof_H 	H 	0.6461	0.4305	0.7165	-0.574
Mof_N 	N 	0.70278	0.33304	0.56378	-0.019
Mof_N 	N 	0.71609	0.96335	0.18409	-0.378
Mof_N 	N 	0.6893	0.9635	0.20825	-0.339
Mof_C 	C 	0.67973	0.91792	0.17374	-0.518
Mof_C 	C 	0.6622	0.88547	0.15923	0.257
Mof_C 	C 	0.67579	0.86842	0.12868	-0.287
Mof_H 	H 	0.6967	0.8778	0.1173	0.022
Mof_C 	C 	0.66696	0.93622	0.20278	0.399
Mof_C 	C 	0.71068	0.93506	0.16257	0.575
Mof_H 	H 	0.7256	0.928	0.143	-0.858
Mof_Co	Co	0.7517	0.9274	0.13592	1.312
Mof_H 	H 	0.6461	0.9305	0.2165	-0.573
Mof_N 	N 	0.70278	0.83304	0.06378	-0.02
Mof_N 	N 	0.21609	0.46335	0.18409	-0.384
Mof_N 	N 	0.1893	0.4635	0.20825	-0.345
Mof_C 	C 	0.17973	0.41792	0.17374	-0.519
Mof_C 	C 	0.1622	0.38547	0.15923	0.255
Mof_C 	C 	0.17579	0.36842	0.12868	-0.287
Mof_H 	H 	0.1967	0.3778	0.1173	0.021
Mof_C 	C 	0.16696	0.43622	0.20278	0.397
Mof_C 	C 	0.21068	0.43506	0.16257	0.573
Mof_H 	H 	0.2256	0.428	0.143	-0.859
Mof_Co	Co	0.2517	0.4274	0.13592	1.311
Mof_H 	H 	0.1461	0.4305	0.2165	-0.575
Mof_N 	N 	0.20278	0.33304	0.06378	-0.02
Mof_N 	N 	0.21609	0.96335	0.68409	-0.378
Mof_N 	N 	0.1893	0.9635	0.70825	-0.339
Mof_C 	C 	0.17973	0.91792	0.67374	-0.518
Mof_C 	C 	0.1622	0.88547	0.65923	0.257
Mof_C 	C 	0.17579	0.86842	0.62868	-0.287
Mof_H 	H 	0.1967	0.8778	0.6173	0.022
Mof_C 	C 	0.16696	0.93622	0.70278	0.399
Mof_C 	C 	0.21068	0.93506	0.66257	0.575
Mof_H 	H 	0.2256	0.928	0.643	-0.857
Mof_Co	Co	0.2517	0.9274	0.63592	1.313
Mof_H 	H 	0.1461	0.9305	0.7165	-0.573
Mof_N 	N 	0.20278	0.83304	0.56378	-0.019
Mof_N 	N 	0.28391	0.53665	0.68409	-0.383
Mof_N 	N 	0.3107	0.5365	0.70825	-0.345
Mof_C 	C 	0.32027	0.58208	0.67374	-0.519
Mof_C 	C 	0.3378	0.61453	0.65923	0.256
Mof_C 	C 	0.32421	0.63158	0.62868	-0.287
Mof_H 	H 	0.3033	0.6222	0.6173	0.022
Mof_C 	C 	0.33304	0.56378	0.70278	0.398
Mof_C 	C 	0.28932	0.56494	0.66257	0.574
Mof_H 	H 	0.2744	0.572	0.643	-0.858
Mof_Co	Co	0.2483	0.5726	0.63592	1.311
Mof_H 	H 	0.3539	0.5695	0.7165	-0.574
Mof_N 	N 	0.29722	0.66696	0.56378	-0.019
Mof_N 	N 	0.28391	0.03665	0.18409	-0.385
Mof_N 	N 	0.3107	0.0365	0.20825	-0.346
Mof_C 	C 	0.32027	0.08208	0.17374	-0.519
Mof_C 	C 	0.3378	0.11453	0.15923	0.255
Mof_C 	C 	0.32421	0.13158	0.12868	-0.287
Mof_H 	H 	0.3033	0.1222	0.1173	0.021
Mof_C 	C 	0.33304	0.06378	0.20278	0.396
Mof_C 	C 	0.28932	0.06494	0.16257	0.572
Mof_H 	H 	0.2744	0.072	0.143	-0.859
Mof_Co	Co	0.2483	0.0726	0.13592	1.31
Mof_H 	H 	0.3539	0.0695	0.2165	-0.575
Mof_N 	N 	0.29722	0.16696	0.06378	-0.02
Mof_N 	N 	0.78391	0.53665	0.18409	-0.383
Mof_N 	N 	0.8107	0.5365	0.20825	-0.344
Mof_C 	C 	0.82027	0.58208	0.17374	-0.519
Mof_C 	C 	0.8378	0.61453	0.15923	0.256
Mof_C 	C 	0.82421	0.63158	0.12868	-0.287
Mof_H 	H 	0.8033	0.6222	0.1173	0.021
Mof_C 	C 	0.83304	0.56378	0.20278	0.398
Mof_C 	C 	0.78932	0.56494	0.16257	0.574
Mof_H 	H 	0.7744	0.572	0.143	-0.858
Mof_Co	Co	0.7483	0.5726	0.13592	1.311
Mof_H 	H 	0.8539	0.5695	0.2165	-0.574
Mof_N 	N 	0.79722	0.66696	0.06378	-0.02
Mof_N 	N 	0.78391	0.03665	0.68409	-0.385
Mof_N 	N 	0.8107	0.0365	0.70825	-0.346
Mof_C 	C 	0.82027	0.08208	0.67374	-0.519
Mof_C 	C 	0.8378	0.11453	0.65923	0.256
Mof_C 	C 	0.82421	0.13158	0.62868	-0.287
Mof_H 	H 	0.8033	0.1222	0.6173	0.021
Mof_C 	C 	0.83304	0.06378	0.70278	0.397
Mof_C 	C 	0.78932	0.06494	0.66257	0.572
Mof_H 	H 	0.7744	0.072	0.643	-0.859
Mof_Co	Co	0.7483	0.0726	0.63592	1.31
Mof_H 	H 	0.8539	0.0695	0.7165	-0.574
Mof_N 	N 	0.79722	0.16696	0.56378	-0.019
Mof_N 	N 	0.28391	0.46335	0.31591	-0.383
Mof_N 	N 	0.3107	0.4635	0.29175	-0.344
Mof_C 	C 	0.32027	0.41792	0.32626	-0.519
Mof_C 	C 	0.3378	0.38547	0.34077	0.256
Mof_C 	C 	0.32421	0.36842	0.37132	-0.287
Mof_H 	H 	0.3033	0.3778	0.3827	0.022
Mof_C 	C 	0.33304	0.43622	0.29722	0.398
Mof_C 	C 	0.28932	0.43506	0.33743	0.574
Mof_H 	H 	0.2744	0.428	0.357	-0.858
Mof_Co	Co	0.2483	0.4274	0.36408	1.311
Mof_H 	H 	0.3539	0.4305	0.2835	-0.574
Mof_N 	N 	0.29722	0.33304	0.43622	-0.019
Mof_N 	N 	0.28391	0.96335	0.81591	-0.377
Mof_N 	N 	0.3107	0.9635	0.79175	-0.338
Mof_C 	C 	0.32027	0.91792	0.82626	-0.518
Mof_C 	C 	0.3378	0.88547	0.84077	0.258
Mof_C 	C 	0.32421	0.86842	0.87132	-0.286
Mof_H 	H 	0.3033	0.8778	0.8827	0.023
Mof_C 	C 	0.33304	0.93622	0.79722	0.4
Mof_C 	C 	0.28932	0.93506	0.83743	0.576
Mof_H 	H 	0.2744	0.928	0.857	-0.857
Mof_Co	Co	0.2483	0.9274	0.86408	1.314
Mof_H 	H 	0.3539	0.9305	0.7835	-0.573
Mof_N 	N 	0.29722	0.83304	0.93622	-0.019
Mof_N 	N 	0.78391	0.46335	0.81591	-0.383
Mof_N 	N 	0.8107	0.4635	0.79175	-0.344
Mof_C 	C 	0.82027	0.41792	0.82626	-0.518
Mof_C 	C 	0.8378	0.38547	0.84077	0.257
Mof_C 	C 	0.82421	0.36842	0.87132	-0.286
Mof_H 	H 	0.8033	0.3778	0.8827	0.023
Mof_C 	C 	0.83304	0.43622	0.79722	0.399
Mof_C 	C 	0.78932	0.43506	0.83743	0.575
Mof_H 	H 	0.7744	0.428	0.857	-0.858
Mof_Co	Co	0.7483	0.4274	0.86408	1.312
Mof_H 	H 	0.8539	0.4305	0.7835	-0.573
Mof_N 	N 	0.79722	0.33304	0.93622	-0.019
Mof_N 	N 	0.78391	0.96335	0.31591	-0.377
Mof_N 	N 	0.8107	0.9635	0.29175	-0.338
Mof_C 	C 	0.82027	0.91792	0.32626	-0.518
Mof_C 	C 	0.8378	0.88547	0.34077	0.258
Mof_C 	C 	0.82421	0.86842	0.37132	-0.287
Mof_H 	H 	0.8033	0.8778	0.3827	0.023
Mof_C 	C 	0.83304	0.93622	0.29722	0.4
Mof_C 	C 	0.78932	0.93506	0.33743	0.576
Mof_H 	H 	0.7744	0.928	0.357	-0.857
Mof_Co	Co	0.7483	0.9274	0.36408	1.313
Mof_H 	H 	0.8539	0.9305	0.2835	-0.572
Mof_N 	N 	0.79722	0.83304	0.43622	-0.019
Mof_N 	N 	0.71609	0.53665	0.31591	-0.383
Mof_N 	N 	0.6893	0.5365	0.29175	-0.345
Mof_C 	C 	0.67973	0.58208	0.32626	-0.519
Mof_C 	C 	0.6622	0.61453	0.34077	0.256
Mof_C 	C 	0.67579	0.63158	0.37132	-0.287
Mof_H 	H 	0.6967	0.6222	0.3827	0.022
Mof_C 	C 	0.66696	0.56378	0.29722	0.398
Mof_C 	C 	0.71068	0.56494	0.33743	0.574
Mof_H 	H 	0.7256	0.572	0.357	-0.858
Mof_Co	Co	0.7517	0.5726	0.36408	1.312
Mof_H 	H 	0.6461	0.5695	0.2835	-0.574
Mof_N 	N 	0.70278	0.66696	0.43622	-0.019
Mof_N 	N 	0.71609	0.03665	0.81591	-0.385
Mof_N 	N 	0.6893	0.0365	0.79175	-0.346
Mof_C 	C 	0.67973	0.08208	0.82626	-0.519
Mof_C 	C 	0.6622	0.11453	0.84077	0.256
Mof_C 	C 	0.67579	0.13158	0.87132	-0.287
Mof_H 	H 	0.6967	0.1222	0.8827	0.022
Mof_C 	C 	0.66696	0.06378	0.79722	0.397
Mof_C 	C 	0.71068	0.06494	0.83743	0.573
Mof_H 	H 	0.7256	0.072	0.857	-0.858
Mof_Co	Co	0.7517	0.0726	0.86408	1.311
Mof_H 	H 	0.6461	0.0695	0.7835	-0.575
Mof_N 	N 	0.70278	0.16696	0.93622	-0.019
Mof_N 	N 	0.21609	0.53665	0.81591	-0.383
Mof_N 	N 	0.1893	0.5365	0.79175	-0.345
Mof_C 	C 	0.17973	0.58208	0.82626	-0.519
Mof_C 	C 	0.1622	0.61453	0.84077	0.256
Mof_C 	C 	0.17579	0.63158	0.87132	-0.287
Mof_H 	H 	0.1967	0.6222	0.8827	0.022
Mof_C 	C 	0.16696	0.56378	0.79722	0.398
Mof_C 	C 	0.21068	0.56494	0.83743	0.574
Mof_H 	H 	0.2256	0.572	0.857	-0.858
Mof_Co	Co	0.2517	0.5726	0.86408	1.312
Mof_H 	H 	0.1461	0.5695	0.7835	-0.574
Mof_N 	N 	0.20278	0.66696	0.93622	-0.019
Mof_N 	N 	0.21609	0.03665	0.31591	-0.385
Mof_N 	N 	0.1893	0.0365	0.29175	-0.347
Mof_C 	C 	0.17973	0.08208	0.32626	-0.519
Mof_C 	C 	0.1622	0.11453	0.34077	0.255
Mof_C 	C 	0.17579	0.13158	0.37132	-0.287
Mof_H 	H 	0.1967	0.1222	0.3827	0.021
Mof_C 	C 	0.16696	0.06378	0.29722	0.396
Mof_C 	C 	0.21068	0.06494	0.33743	0.572
Mof_H 	H 	0.2256	0.072	0.357	-0.859
Mof_Co	Co	0.2517	0.0726	0.36408	1.31
Mof_H 	H 	0.1461	0.0695	0.2835	-0.575
Mof_N 	N 	0.20278	0.16696	0.43622	-0.02
Mof_N 	N 	0.68409	0.71609	0.46335	-0.369
Mof_N 	N 	0.70825	0.6893	0.4635	-0.25
Mof_C 	C 	0.67374	0.67973	0.41792	-0.287
Mof_C 	C 	0.65923	0.6622	0.38547	0.179
Mof_C 	C 	0.62868	0.67579	0.36842	-0.253
Mof_H 	H 	0.6173	0.6967	0.3778	0.007
Mof_C 	C 	0.66257	0.71068	0.43506	0.482
Mof_H 	H 	0.643	0.7256	0.428	-0.824
Mof_Co	Co	0.63592	0.7517	0.4274	1.305
Mof_H 	H 	0.7165	0.6461	0.4305	-0.395
Mof_N 	N 	0.56378	0.70278	0.33304	-0.02
Mof_N 	N 	0.68409	0.21609	0.96335	-0.363
Mof_N 	N 	0.70825	0.1893	0.9635	-0.244
Mof_C 	C 	0.67374	0.17973	0.91792	-0.286
Mof_C 	C 	0.65923	0.1622	0.88547	0.179
Mof_C 	C 	0.62868	0.17579	0.86842	-0.253
Mof_H 	H 	0.6173	0.1967	0.8778	0.008
Mof_C 	C 	0.66257	0.21068	0.93506	0.483
Mof_H 	H 	0.643	0.2256	0.928	-0.823
Mof_Co	Co	0.63592	0.2517	0.9274	1.306
Mof_H 	H 	0.7165	0.1461	0.9305	-0.394
Mof_N 	N 	0.56378	0.20278	0.83304	-0.02
Mof_N 	N 	0.18409	0.71609	0.96335	-0.363
Mof_N 	N 	0.20825	0.6893	0.9635	-0.244
Mof_C 	C 	0.17374	0.67973	0.91792	-0.286
Mof_C 	C 	0.15923	0.6622	0.88547	0.179
Mof_C 	C 	0.12868	0.67579	0.86842	-0.253
Mof_H 	H 	0.1173	0.6967	0.8778	0.007
Mof_C 	C 	0.16257	0.71068	0.93506	0.483
Mof_H 	H 	0.143	0.7256	0.928	-0.823
Mof_Co	Co	0.13592	0.7517	0.9274	1.306
Mof_H 	H 	0.2165	0.6461	0.9305	-0.394
Mof_N 	N 	0.06378	0.70278	0.83304	-0.02
Mof_N 	N 	0.18409	0.21609	0.46335	-0.369
Mof_N 	N 	0.20825	0.1893	0.4635	-0.25
Mof_C 	C 	0.17374	0.17973	0.41792	-0.288
Mof_C 	C 	0.15923	0.1622	0.38547	0.178
Mof_C 	C 	0.12868	0.17579	0.36842	-0.253
Mof_H 	H 	0.1173	0.1967	0.3778	0.006
Mof_C 	C 	0.16257	0.21068	0.43506	0.482
Mof_H 	H 	0.143	0.2256	0.428	-0.824
Mof_Co	Co	0.13592	0.2517	0.4274	1.304
Mof_H 	H 	0.2165	0.1461	0.4305	-0.396
Mof_N 	N 	0.06378	0.20278	0.33304	-0.02
Mof_N 	N 	0.68409	0.28391	0.53665	-0.369
Mof_N 	N 	0.70825	0.3107	0.5365	-0.25
Mof_C 	C 	0.67374	0.32027	0.58208	-0.287
Mof_C 	C 	0.65923	0.3378	0.61453	0.179
Mof_C 	C 	0.62868	0.32421	0.63158	-0.253
Mof_H 	H 	0.6173	0.3033	0.6222	0.007
Mof_C 	C 	0.66257	0.28932	0.56494	0.482
Mof_H 	H 	0.643	0.2744	0.572	-0.824
Mof_Co	Co	0.63592	0.2483	0.5726	1.305
Mof_H 	H 	0.7165	0.3539	0.5695	-0.395
Mof_N 	N 	0.56378	0.29722	0.66696	-0.02
Mof_N 	N 	0.68409	0.78391	0.03665	-0.371
Mof_N 	N 	0.70825	0.8107	0.0365	-0.252
Mof_C 	C 	0.67374	0.82027	0.08208	-0.288
Mof_C 	C 	0.65923	0.8378	0.11453	0.178
Mof_C 	C 	0.62868	0.82421	0.13158	-0.253
Mof_H 	H 	0.6173	0.8033	0.1222	0.007
Mof_C 	C 	0.66257	0.78932	0.06494	0.481
Mof_H 	H 	0.643	0.7744	0.072	-0.824
Mof_Co	Co	0.63592	0.7483	0.0726	1.304
Mof_H 	H 	0.7165	0.8539	0.0695	-0.396
Mof_N 	N 	0.56378	0.79722	0.16696	-0.02
Mof_N 	N 	0.18409	0.28391	0.03665	-0.371
Mof_N 	N 	0.20825	0.3107	0.0365	-0.252
Mof_C 	C 	0.17374	0.32027	0.08208	-0.288
Mof_C 	C 	0.15923	0.3378	0.11453	0.177
Mof_C 	C 	0.12868	0.32421	0.13158	-0.253
Mof_H 	H 	0.1173	0.3033	0.1222	0.006
Mof_C 	C 	0.16257	0.28932	0.06494	0.48
Mof_H 	H 	0.143	0.2744	0.072	-0.824
Mof_Co	Co	0.13592	0.2483	0.0726	1.303
Mof_H 	H 	0.2165	0.3539	0.0695	-0.396
Mof_N 	N 	0.06378	0.29722	0.16696	-0.02
Mof_N 	N 	0.18409	0.78391	0.53665	-0.369
Mof_N 	N 	0.20825	0.8107	0.5365	-0.25
Mof_C 	C 	0.17374	0.82027	0.58208	-0.287
Mof_C 	C 	0.15923	0.8378	0.61453	0.179
Mof_C 	C 	0.12868	0.82421	0.63158	-0.253
Mof_H 	H 	0.1173	0.8033	0.6222	0.007
Mof_C 	C 	0.16257	0.78932	0.56494	0.482
Mof_H 	H 	0.143	0.7744	0.572	-0.824
Mof_Co	Co	0.13592	0.7483	0.5726	1.304
Mof_H 	H 	0.2165	0.8539	0.5695	-0.395
Mof_N 	N 	0.06378	0.79722	0.66696	-0.02
Mof_N 	N 	0.31591	0.28391	0.46335	-0.369
Mof_N 	N 	0.29175	0.3107	0.4635	-0.25
Mof_C 	C 	0.32626	0.32027	0.41792	-0.287
Mof_C 	C 	0.34077	0.3378	0.38547	0.179
Mof_C 	C 	0.37132	0.32421	0.36842	-0.253
Mof_H 	H 	0.3827	0.3033	0.3778	0.007
Mof_C 	C 	0.33743	0.28932	0.43506	0.482
Mof_H 	H 	0.357	0.2744	0.428	-0.824
Mof_Co	Co	0.36408	0.2483	0.4274	1.305
Mof_H 	H 	0.2835	0.3539	0.4305	-0.395
Mof_N 	N 	0.43622	0.29722	0.33304	-0.02
Mof_N 	N 	0.31591	0.78391	0.96335	-0.363
Mof_N 	N 	0.29175	0.8107	0.9635	-0.243
Mof_C 	C 	0.32626	0.82027	0.91792	-0.285
Mof_C 	C 	0.34077	0.8378	0.88547	0.18
Mof_C 	C 	0.37132	0.82421	0.86842	-0.253
Mof_H 	H 	0.3827	0.8033	0.8778	0.008
Mof_C 	C 	0.33743	0.78932	0.93506	0.484
Mof_H 	H 	0.357	0.7744	0.928	-0.822
Mof_Co	Co	0.36408	0.7483	0.9274	1.307
Mof_H 	H 	0.2835	0.8539	0.9305	-0.393
Mof_N 	N 	0.43622	0.79722	0.83304	-0.019
Mof_N 	N 	0.81591	0.28391	0.96335	-0.363
Mof_N 	N 	0.79175	0.3107	0.9635	-0.243
Mof_C 	C 	0.82626	0.32027	0.91792	-0.285
Mof_C 	C 	0.84077	0.3378	0.88547	0.18
Mof_C 	C 	0.87132	0.32421	0.86842	-0.252
Mof_H 	H 	0.8827	0.3033	0.8778	0.008
Mof_C 	C 	0.83743	0.28932	0.93506	0.484
Mof_H 	H 	0.857	0.2744	0.928	-0.822
Mof_Co	Co	0.86408	0.2483	0.9274	1.307
Mof_H 	H 	0.7835	0.3539	0.9305	-0.393
Mof_N 	N 	0.93622	0.29722	0.83304	-0.019
Mof_N 	N 	0.81591	0.78391	0.46335	-0.368
Mof_N 	N 	0.79175	0.8107	0.4635	-0.249
Mof_C 	C 	0.82626	0.82027	0.41792	-0.286
Mof_C 	C 	0.84077	0.8378	0.38547	0.18
Mof_C 	C 	0.87132	0.82421	0.36842	-0.253
Mof_H 	H 	0.8827	0.8033	0.3778	0.008
Mof_C 	C 	0.83743	0.78932	0.43506	0.483
Mof_H 	H 	0.857	0.7744	0.428	-0.823
Mof_Co	Co	0.86408	0.7483	0.4274	1.306
Mof_H 	H 	0.7835	0.8539	0.4305	-0.394
Mof_N 	N 	0.93622	0.79722	0.33304	-0.019
Mof_N 	N 	0.31591	0.71609	0.53665	-0.369
Mof_N 	N 	0.29175	0.6893	0.5365	-0.25
Mof_C 	C 	0.32626	0.67973	0.58208	-0.287
Mof_C 	C 	0.34077	0.6622	0.61453	0.179
Mof_C 	C 	0.37132	0.67579	0.63158	-0.253
Mof_H 	H 	0.3827	0.6967	0.6222	0.007
Mof_C 	C 	0.33743	0.71068	0.56494	0.482
Mof_H 	H 	0.357	0.7256	0.572	-0.824
Mof_Co	Co	0.36408	0.7517	0.5726	1.305
Mof_H 	H 	0.2835	0.6461	0.5695	-0.395
Mof_N 	N 	0.43622	0.70278	0.66696	-0.02
Mof_N 	N 	0.31591	0.21609	0.03665	-0.371
Mof_N 	N 	0.29175	0.1893	0.0365	-0.252
Mof_C 	C 	0.32626	0.17973	0.08208	-0.288
Mof_C 	C 	0.34077	0.1622	0.11453	0.177
Mof_C 	C 	0.37132	0.17579	0.13158	-0.253
Mof_H 	H 	0.3827	0.1967	0.1222	0.006
Mof_C 	C 	0.33743	0.21068	0.06494	0.481
Mof_H 	H 	0.357	0.2256	0.072	-0.824
Mof_Co	Co	0.36408	0.2517	0.0726	1.304
Mof_H 	H 	0.2835	0.1461	0.0695	-0.397
Mof_N 	N 	0.43622	0.20278	0.16696	-0.02
Mof_N 	N 	0.81591	0.71609	0.03665	-0.37
Mof_N 	N 	0.79175	0.6893	0.0365	-0.252
Mof_C 	C 	0.82626	0.67973	0.08208	-0.288
Mof_C 	C 	0.84077	0.6622	0.11453	0.178
Mof_C 	C 	0.87132	0.67579	0.13158	-0.253
Mof_H 	H 	0.8827	0.6967	0.1222	0.007
Mof_C 	C 	0.83743	0.71068	0.06494	0.481
Mof_H 	H 	0.857	0.7256	0.072	-0.824
Mof_Co	Co	0.86408	0.7517	0.0726	1.305
Mof_H 	H 	0.7835	0.6461	0.0695	-0.396
Mof_N 	N 	0.93622	0.70278	0.16696	-0.019
Mof_N 	N 	0.81591	0.21609	0.53665	-0.369
Mof_N 	N 	0.79175	0.1893	0.5365	-0.25
Mof_C 	C 	0.82626	0.17973	0.58208	-0.287
Mof_C 	C 	0.84077	0.1622	0.61453	0.179
Mof_C 	C 	0.87132	0.17579	0.63158	-0.253
Mof_H 	H 	0.8827	0.1967	0.6222	0.008
Mof_C 	C 	0.83743	0.21068	0.56494	0.483
Mof_H 	H 	0.857	0.2256	0.572	-0.823
Mof_Co	Co	0.86408	0.2517	0.5726	1.306
Mof_H 	H 	0.7835	0.1461	0.5695	-0.395
Mof_N 	N 	0.93622	0.20278	0.66696	-0.019
Mof_N 	N 	0.46335	0.68409	0.71609	-0.373
Mof_N 	N 	0.4635	0.70825	0.6893	-0.251
Mof_C 	C 	0.41792	0.67374	0.67973	-0.29
Mof_C 	C 	0.38547	0.65923	0.6622	0.18
Mof_C 	C 	0.36842	0.62868	0.67579	-0.293
Mof_H 	H 	0.3778	0.6173	0.6967	0.021
Mof_C 	C 	0.43506	0.66257	0.71068	0.484
Mof_H 	H 	0.428	0.643	0.7256	-0.832
Mof_Co	Co	0.4274	0.63592	0.7517	1.322
Mof_H 	H 	0.4305	0.7165	0.6461	-0.397
Mof_N 	N 	0.46335	0.18409	0.21609	-0.373
Mof_N 	N 	0.4635	0.20825	0.1893	-0.251
Mof_C 	C 	0.41792	0.17374	0.17973	-0.291
Mof_C 	C 	0.38547	0.15923	0.1622	0.179
Mof_C 	C 	0.36842	0.12868	0.17579	-0.293
Mof_H 	H 	0.3778	0.1173	0.1967	0.02
Mof_C 	C 	0.43506	0.16257	0.21068	0.483
Mof_H 	H 	0.428	0.143	0.2256	-0.832
Mof_Co	Co	0.4274	0.13592	0.2517	1.322
Mof_H 	H 	0.4305	0.2165	0.1461	-0.398
Mof_N 	N 	0.96335	0.68409	0.21609	-0.367
Mof_N 	N 	0.9635	0.70825	0.1893	-0.245
Mof_C 	C 	0.91792	0.67374	0.17973	-0.29
Mof_C 	C 	0.88547	0.65923	0.1622	0.18
Mof_C 	C 	0.86842	0.62868	0.17579	-0.292
Mof_H 	H 	0.8778	0.6173	0.1967	0.021
Mof_C 	C 	0.93506	0.66257	0.21068	0.485
Mof_H 	H 	0.928	0.643	0.2256	-0.831
Mof_Co	Co	0.9274	0.63592	0.2517	1.324
Mof_H 	H 	0.9305	0.7165	0.1461	-0.396
Mof_N 	N 	0.96335	0.18409	0.71609	-0.367
Mof_N 	N 	0.9635	0.20825	0.6893	-0.245
Mof_C 	C 	0.91792	0.17374	0.67973	-0.289
Mof_C 	C 	0.88547	0.15923	0.6622	0.18
Mof_C 	C 	0.86842	0.12868	0.67579	-0.292
Mof_H 	H 	0.8778	0.1173	0.6967	0.021
Mof_C 	C 	0.93506	0.16257	0.71068	0.485
Mof_H 	H 	0.928	0.143	0.7256	-0.831
Mof_Co	Co	0.9274	0.13592	0.7517	1.323
Mof_H 	H 	0.9305	0.2165	0.6461	-0.395
Mof_N 	N 	0.53665	0.68409	0.28391	-0.373
Mof_N 	N 	0.5365	0.70825	0.3107	-0.251
Mof_C 	C 	0.58208	0.67374	0.32027	-0.29
Mof_C 	C 	0.61453	0.65923	0.3378	0.18
Mof_C 	C 	0.63158	0.62868	0.32421	-0.292
Mof_H 	H 	0.6222	0.6173	0.3033	0.021
Mof_C 	C 	0.56494	0.66257	0.28932	0.484
Mof_H 	H 	0.572	0.643	0.2744	-0.832
Mof_Co	Co	0.5726	0.63592	0.2483	1.322
Mof_H 	H 	0.5695	0.7165	0.3539	-0.397
Mof_N 	N 	0.53665	0.18409	0.78391	-0.373
Mof_N 	N 	0.5365	0.20825	0.8107	-0.251
Mof_C 	C 	0.58208	0.17374	0.82027	-0.29
Mof_C 	C 	0.61453	0.15923	0.8378	0.18
Mof_C 	C 	0.63158	0.12868	0.82421	-0.292
Mof_H 	H 	0.6222	0.1173	0.8033	0.02
Mof_C 	C 	0.56494	0.16257	0.78932	0.484
Mof_H 	H 	0.572	0.143	0.7744	-0.832
Mof_Co	Co	0.5726	0.13592	0.7483	1.322
Mof_H 	H 	0.5695	0.2165	0.8539	-0.397
Mof_N 	N 	0.03665	0.68409	0.78391	-0.375
Mof_N 	N 	0.0365	0.70825	0.8107	-0.253
Mof_C 	C 	0.08208	0.67374	0.82027	-0.291
Mof_C 	C 	0.11453	0.65923	0.8378	0.18
Mof_C 	C 	0.13158	0.62868	0.82421	-0.293
Mof_H 	H 	0.1222	0.6173	0.8033	0.02
Mof_C 	C 	0.06494	0.66257	0.78932	0.483
Mof_H 	H 	0.072	0.643	0.7744	-0.832
Mof_Co	Co	0.0726	0.63592	0.7483	1.321
Mof_H 	H 	0.0695	0.7165	0.8539	-0.398
Mof_N 	N 	0.03665	0.18409	0.28391	-0.375
Mof_N 	N 	0.0365	0.20825	0.3107	-0.253
Mof_C 	C 	0.08208	0.17374	0.32027	-0.291
Mof_C 	C 	0.11453	0.15923	0.3378	0.179
Mof_C 	C 	0.13158	0.12868	0.32421	-0.293
Mof_H 	H 	0.1222	0.1173	0.3033	0.019
Mof_C 	C 	0.06494	0.16257	0.28932	0.482
Mof_H 	H 	0.072	0.143	0.2744	-0.833
Mof_Co	Co	0.0726	0.13592	0.2483	1.32
Mof_H 	H 	0.0695	0.2165	0.3539	-0.398
Mof_N 	N 	0.46335	0.31591	0.28391	-0.373
Mof_N 	N 	0.4635	0.29175	0.3107	-0.251
Mof_C 	C 	0.41792	0.32626	0.32027	-0.29
Mof_C 	C 	0.38547	0.34077	0.3378	0.18
Mof_C 	C 	0.36842	0.37132	0.32421	-0.292
Mof_H 	H 	0.3778	0.3827	0.3033	0.021
Mof_C 	C 	0.43506	0.33743	0.28932	0.484
Mof_H 	H 	0.428	0.357	0.2744	-0.832
Mof_Co	Co	0.4274	0.36408	0.2483	1.322
Mof_H 	H 	0.4305	0.2835	0.3539	-0.397
Mof_N 	N 	0.46335	0.81591	0.78391	-0.373
Mof_N 	N 	0.4635	0.79175	0.8107	-0.25
Mof_C 	C 	0.41792	0.82626	0.82027	-0.29
Mof_C 	C 	0.38547	0.84077	0.8378	0.181
Mof_C 	C 	0.36842	0.87132	0.82421	-0.292
Mof_H 	H 	0.3778	0.8827	0.8033	0.022
Mof_C 	C 	0.43506	0.83743	0.78932	0.485
Mof_H 	H 	0.428	0.857	0.7744	-0.831
Mof_Co	Co	0.4274	0.86408	0.7483	1.323
Mof_H 	H 	0.4305	0.7835	0.8539	-0.396
Mof_N 	N 	0.96335	0.31591	0.78391	-0.367
Mof_N 	N 	0.9635	0.29175	0.8107	-0.244
Mof_C 	C 	0.91792	0.32626	0.82027	-0.289
Mof_C 	C 	0.88547	0.34077	0.8378	0.181
Mof_C 	C 	0.86842	0.37132	0.82421	-0.292
Mof_H 	H 	0.8778	0.3827	0.8033	0.021
Mof_C 	C 	0.93506	0.33743	0.78932	0.485
Mof_H 	H 	0.928	0.357	0.7744	-0.831
Mof_Co	Co	0.9274	0.36408	0.7483	1.324
Mof_H 	H 	0.9305	0.2835	0.8539	-0.395
Mof_N 	N 	0.96335	0.81591	0.28391	-0.367
Mof_N 	N 	0.9635	0.79175	0.3107	-0.245
Mof_C 	C 	0.91792	0.82626	0.32027	-0.289
Mof_C 	C 	0.88547	0.84077	0.3378	0.182
Mof_C 	C 	0.86842	0.87132	0.32421	-0.292
Mof_H 	H 	0.8778	0.8827	0.3033	0.022
Mof_C 	C 	0.93506	0.83743	0.28932	0.486
Mof_H 	H 	0.928	0.857	0.2744	-0.83
Mof_Co	Co	0.9274	0.86408	0.2483	1.324
Mof_H 	H 	0.9305	0.7835	0.3539	-0.395
Mof_N 	N 	0.53665	0.31591	0.71609	-0.373
Mof_N 	N 	0.5365	0.29175	0.6893	-0.251
Mof_C 	C 	0.58208	0.32626	0.67973	-0.29
Mof_C 	C 	0.61453	0.34077	0.6622	0.18
Mof_C 	C 	0.63158	0.37132	0.67579	-0.293
Mof_H 	H 	0.6222	0.3827	0.6967	0.021
Mof_C 	C 	0.56494	0.33743	0.71068	0.484
Mof_H 	H 	0.572	0.357	0.7256	-0.832
Mof_Co	Co	0.5726	0.36408	0.7517	1.322
Mof_H 	H 	0.5695	0.2835	0.6461	-0.397
Mof_N 	N 	0.53665	0.81591	0.21609	-0.373
Mof_N 	N 	0.5365	0.79175	0.1893	-0.251
Mof_C 	C 	0.58208	0.82626	0.17973	-0.29
Mof_C 	C 	0.61453	0.84077	0.1622	0.18
Mof_C 	C 	0.63158	0.87132	0.17579	-0.292
Mof_H 	H 	0.6222	0.8827	0.1967	0.021
Mof_C 	C 	0.56494	0.83743	0.21068	0.484
Mof_H 	H 	0.572	0.857	0.2256	-0.831
Mof_Co	Co	0.5726	0.86408	0.2517	1.323
Mof_H 	H 	0.5695	0.7835	0.1461	-0.397
Mof_N 	N 	0.03665	0.31591	0.21609	-0.375
Mof_N 	N 	0.0365	0.29175	0.1893	-0.253
Mof_C 	C 	0.08208	0.32626	0.17973	-0.292
Mof_C 	C 	0.11453	0.34077	0.1622	0.179
Mof_C 	C 	0.13158	0.37132	0.17579	-0.293
Mof_H 	H 	0.1222	0.3827	0.1967	0.02
Mof_C 	C 	0.06494	0.33743	0.21068	0.482
Mof_H 	H 	0.072	0.357	0.2256	-0.832
Mof_Co	Co	0.0726	0.36408	0.2517	1.321
Mof_H 	H 	0.0695	0.2835	0.1461	-0.399
Mof_N 	N 	0.03665	0.81591	0.71609	-0.375
Mof_N 	N 	0.0365	0.79175	0.6893	-0.253
Mof_C 	C 	0.08208	0.82626	0.67973	-0.291
Mof_C 	C 	0.11453	0.84077	0.6622	0.18
Mof_C 	C 	0.13158	0.87132	0.67579	-0.293
Mof_H 	H 	0.1222	0.8827	0.6967	0.021
Mof_C 	C 	0.06494	0.83743	0.71068	0.483
Mof_H 	H 	0.072	0.857	0.7256	-0.832
Mof_Co	Co	0.0726	0.86408	0.7517	1.322
Mof_H 	H 	0.0695	0.7835	0.6461	-0.398
Mof_N 	N 	0.96335	0.21609	0.81591	-0.377
Mof_N 	N 	0.9635	0.1893	0.79175	-0.339
Mof_C 	C 	0.91792	0.17973	0.82626	-0.518
Mof_C 	C 	0.88547	0.1622	0.84077	0.257
Mof_C 	C 	0.86842	0.17579	0.87132	-0.287
Mof_H 	H 	0.8778	0.1967	0.8827	0.023
Mof_C 	C 	0.93622	0.16696	0.79722	0.399
Mof_C 	C 	0.93506	0.21068	0.83743	0.576
Mof_H 	H 	0.928	0.2256	0.857	-0.857
Mof_Co	Co	0.9274	0.2517	0.86408	1.314
Mof_H 	H 	0.9305	0.1461	0.7835	-0.573
Mof_N 	N 	0.83304	0.20278	0.93622	-0.019
Mof_N 	N 	0.96335	0.71609	0.31591	-0.377
Mof_N 	N 	0.9635	0.6893	0.29175	-0.339
Mof_C 	C 	0.91792	0.67973	0.32626	-0.518
Mof_C 	C 	0.88547	0.6622	0.34077	0.257
Mof_C 	C 	0.86842	0.67579	0.37132	-0.287
Mof_H 	H 	0.8778	0.6967	0.3827	0.023
Mof_C 	C 	0.93622	0.66696	0.29722	0.399
Mof_C 	C 	0.93506	0.71068	0.33743	0.575
Mof_H 	H 	0.928	0.7256	0.357	-0.857
Mof_Co	Co	0.9274	0.7517	0.36408	1.313
Mof_H 	H 	0.9305	0.6461	0.2835	-0.573
Mof_N 	N 	0.83304	0.70278	0.43622	-0.019
Mof_N 	N 	0.46335	0.21609	0.31591	-0.383
Mof_N 	N 	0.4635	0.1893	0.29175	-0.345
Mof_C 	C 	0.41792	0.17973	0.32626	-0.519
Mof_C 	C 	0.38547	0.1622	0.34077	0.256
Mof_C 	C 	0.36842	0.17579	0.37132	-0.287
Mof_H 	H 	0.3778	0.1967	0.3827	0.022
Mof_C 	C 	0.43622	0.16696	0.29722	0.398
Mof_C 	C 	0.43506	0.21068	0.33743	0.574
Mof_H 	H 	0.428	0.2256	0.357	-0.858
Mof_Co	Co	0.4274	0.2517	0.36408	1.311
Mof_H 	H 	0.4305	0.1461	0.2835	-0.574
Mof_N 	N 	0.33304	0.20278	0.43622	-0.019
Mof_N 	N 	0.46335	0.71609	0.81591	-0.383
Mof_N 	N 	0.4635	0.6893	0.79175	-0.344
Mof_C 	C 	0.41792	0.67973	0.82626	-0.518
Mof_C 	C 	0.38547	0.6622	0.84077	0.257
Mof_C 	C 	0.36842	0.67579	0.87132	-0.287
Mof_H 	H 	0.3778	0.6967	0.8827	0.023
Mof_C 	C 	0.43622	0.66696	0.79722	0.398
Mof_C 	C 	0.43506	0.71068	0.83743	0.574
Mof_H 	H 	0.428	0.7256	0.857	-0.858
Mof_Co	Co	0.4274	0.7517	0.86408	1.312
Mof_H 	H 	0.4305	0.6461	0.7835	-0.574
Mof_N 	N 	0.33304	0.70278	0.93622	-0.019
Mof_N 	N 	0.03665	0.78391	0.81591	-0.385
Mof_N 	N 	0.0365	0.8107	0.79175	-0.346
Mof_C 	C 	0.08208	0.82027	0.82626	-0.518
Mof_C 	C 	0.11453	0.8378	0.84077	0.256
Mof_C 	C 	0.13158	0.82421	0.87132	-0.287
Mof_H 	H 	0.1222	0.8033	0.8827	0.022
Mof_C 	C 	0.06378	0.83304	0.79722	0.397
Mof_C 	C 	0.06494	0.78932	0.83743	0.573
Mof_H 	H 	0.072	0.7744	0.857	-0.858
Mof_Co	Co	0.0726	0.7483	0.86408	1.311
Mof_H 	H 	0.0695	0.8539	0.7835	-0.574
Mof_N 	N 	0.16696	0.79722	0.93622	-0.019
Mof_N 	N 	0.03665	0.28391	0.31591	-0.385
Mof_N 	N 	0.0365	0.3107	0.29175	-0.346
Mof_C 	C 	0.08208	0.32027	0.32626	-0.519
Mof_C 	C 	0.11453	0.3378	0.34077	0.255
Mof_C 	C 	0.13158	0.32421	0.37132	-0.287
Mof_H 	H 	0.1222	0.3033	0.3827	0.021
Mof_C 	C 	0.06378	0.33304	0.29722	0.397
Mof_C 	C 	0.06494	0.28932	0.33743	0.572
Mof_H 	H 	0.072	0.2744	0.357	-0.859
Mof_Co	Co	0.0726	0.2483	0.36408	1.31
Mof_H 	H 	0.0695	0.3539	0.2835	-0.575
Mof_N 	N 	0.16696	0.29722	0.43622	-0.019
Mof_N 	N 	0.53665	0.78391	0.31591	-0.383
Mof_N 	N 	0.5365	0.8107	0.29175	-0.344
Mof_C 	C 	0.58208	0.82027	0.32626	-0.518
Mof_C 	C 	0.61453	0.8378	0.34077	0.257
Mof_C 	C 	0.63158	0.82421	0.37132	-0.287
Mof_H 	H 	0.6222	0.8033	0.3827	0.022
Mof_C 	C 	0.56378	0.83304	0.29722	0.398
Mof_C 	C 	0.56494	0.78932	0.33743	0.574
Mof_H 	H 	0.572	0.7744	0.357	-0.858
Mof_Co	Co	0.5726	0.7483	0.36408	1.312
Mof_H 	H 	0.5695	0.8539	0.2835	-0.574
Mof_N 	N 	0.66696	0.79722	0.43622	-0.019
Mof_N 	N 	0.53665	0.28391	0.81591	-0.383
Mof_N 	N 	0.5365	0.3107	0.79175	-0.344
Mof_C 	C 	0.58208	0.32027	0.82626	-0.518
Mof_C 	C 	0.61453	0.3378	0.84077	0.257
Mof_C 	C 	0.63158	0.32421	0.87132	-0.287
Mof_H 	H 	0.6222	0.3033	0.8827	0.023
Mof_C 	C 	0.56378	0.33304	0.79722	0.398
Mof_C 	C 	0.56494	0.28932	0.83743	0.574
Mof_H 	H 	0.572	0.2744	0.857	-0.858
Mof_Co	Co	0.5726	0.2483	0.86408	1.312
Mof_H 	H 	0.5695	0.3539	0.7835	-0.574
Mof_N 	N 	0.66696	0.29722	0.93622	-0.019
Mof_N 	N 	0.96335	0.78391	0.18409	-0.378
Mof_N 	N 	0.9635	0.8107	0.20825	-0.338
Mof_C 	C 	0.91792	0.82027	0.17374	-0.518
Mof_C 	C 	0.88547	0.8378	0.15923	0.257
Mof_C 	C 	0.86842	0.82421	0.12868	-0.287
Mof_H 	H 	0.8778	0.8033	0.1173	0.022
Mof_C 	C 	0.93622	0.83304	0.20278	0.399
Mof_C 	C 	0.93506	0.78932	0.16257	0.575
Mof_H 	H 	0.928	0.7744	0.143	-0.858
Mof_Co	Co	0.9274	0.7483	0.13592	1.312
Mof_H 	H 	0.9305	0.8539	0.2165	-0.572
Mof_N 	N 	0.83304	0.79722	0.06378	-0.02
Mof_N 	N 	0.96335	0.28391	0.68409	-0.378
Mof_N 	N 	0.9635	0.3107	0.70825	-0.339
Mof_C 	C 	0.91792	0.32027	0.67374	-0.518
Mof_C 	C 	0.88547	0.3378	0.65923	0.257
Mof_C 	C 	0.86842	0.32421	0.62868	-0.287
Mof_H 	H 	0.8778	0.3033	0.6173	0.023
Mof_C 	C 	0.93622	0.33304	0.70278	0.399
Mof_C 	C 	0.93506	0.28932	0.66257	0.575
Mof_H 	H 	0.928	0.2744	0.643	-0.857
Mof_Co	Co	0.9274	0.2483	0.63592	1.313
Mof_H 	H 	0.9305	0.3539	0.7165	-0.573
Mof_N 	N 	0.83304	0.29722	0.56378	-0.019
Mof_N 	N 	0.46335	0.78391	0.68409	-0.383
Mof_N 	N 	0.4635	0.8107	0.70825	-0.344
Mof_C 	C 	0.41792	0.82027	0.67374	-0.518
Mof_C 	C 	0.38547	0.8378	0.65923	0.257
Mof_C 	C 	0.36842	0.82421	0.62868	-0.287
Mof_H 	H 	0.3778	0.8033	0.6173	0.022
Mof_C 	C 	0.43622	0.83304	0.70278	0.398
Mof_C 	C 	0.43506	0.78932	0.66257	0.574
Mof_H 	H 	0.428	0.7744	0.643	-0.858
Mof_Co	Co	0.4274	0.7483	0.63592	1.312
Mof_H 	H 	0.4305	0.8539	0.7165	-0.573
Mof_N 	N 	0.33304	0.79722	0.56378	-0.019
Mof_N 	N 	0.46335	0.28391	0.18409	-0.384
Mof_N 	N 	0.4635	0.3107	0.20825	-0.345
Mof_C 	C 	0.41792	0.32027	0.17374	-0.519
Mof_C 	C 	0.38547	0.3378	0.15923	0.256
Mof_C 	C 	0.36842	0.32421	0.12868	-0.287
Mof_H 	H 	0.3778	0.3033	0.1173	0.021
Mof_C 	C 	0.43622	0.33304	0.20278	0.398
Mof_C 	C 	0.43506	0.28932	0.16257	0.573
Mof_H 	H 	0.428	0.2744	0.143	-0.859
Mof_Co	Co	0.4274	0.2483	0.13592	1.311
Mof_H 	H 	0.4305	0.3539	0.2165	-0.574
Mof_N 	N 	0.33304	0.29722	0.06378	-0.02
Mof_N 	N 	0.03665	0.21609	0.18409	-0.386
Mof_N 	N 	0.0365	0.1893	0.20825	-0.347
Mof_C 	C 	0.08208	0.17973	0.17374	-0.519
Mof_C 	C 	0.11453	0.1622	0.15923	0.254
Mof_C 	C 	0.13158	0.17579	0.12868	-0.287
Mof_H 	H 	0.1222	0.1967	0.1173	0.02
Mof_C 	C 	0.06378	0.16696	0.20278	0.396
Mof_C 	C 	0.06494	0.21068	0.16257	0.572
Mof_H 	H 	0.072	0.2256	0.143	-0.859
Mof_Co	Co	0.0726	0.2517	0.13592	1.31
Mof_H 	H 	0.0695	0.1461	0.2165	-0.575
Mof_N 	N 	0.16696	0.20278	0.06378	-0.02
Mof_N 	N 	0.03665	0.71609	0.68409	-0.385
Mof_N 	N 	0.0365	0.6893	0.70825	-0.346
Mof_C 	C 	0.08208	0.67973	0.67374	-0.519
Mof_C 	C 	0.11453	0.6622	0.65923	0.255
Mof_C 	C 	0.13158	0.67579	0.62868	-0.287
Mof_H 	H 	0.1222	0.6967	0.6173	0.021
Mof_C 	C 	0.06378	0.66696	0.70278	0.396
Mof_C 	C 	0.06494	0.71068	0.66257	0.572
Mof_H 	H 	0.072	0.7256	0.643	-0.859
Mof_Co	Co	0.0726	0.7517	0.63592	1.31
Mof_H 	H 	0.0695	0.6461	0.7165	-0.575
Mof_N 	N 	0.16696	0.70278	0.56378	-0.019
Mof_N 	N 	0.53665	0.21609	0.68409	-0.383
Mof_N 	N 	0.5365	0.1893	0.70825	-0.345
Mof_C 	C 	0.58208	0.17973	0.67374	-0.519
Mof_C 	C 	0.61453	0.1622	0.65923	0.256
Mof_C 	C 	0.63158	0.17579	0.62868	-0.287
Mof_H 	H 	0.6222	0.1967	0.6173	0.022
Mof_C 	C 	0.56378	0.16696	0.70278	0.397
Mof_C 	C 	0.56494	0.21068	0.66257	0.574
Mof_H 	H 	0.572	0.2256	0.643	-0.858
Mof_Co	Co	0.5726	0.2517	0.63592	1.311
Mof_H 	H 	0.5695	0.1461	0.7165	-0.574
Mof_N 	N 	0.66696	0.20278	0.56378	-0.019
Mof_N 	N 	0.53665	0.71609	0.18409	-0.384
Mof_N 	N 	0.5365	0.6893	0.20825	-0.345
Mof_C 	C 	0.58208	0.67973	0.17374	-0.519
Mof_C 	C 	0.61453	0.6622	0.15923	0.256
Mof_C 	C 	0.63158	0.67579	0.12868	-0.287
Mof_H 	H 	0.6222	0.6967	0.1173	0.021
Mof_C 	C 	0.56378	0.66696	0.20278	0.398
Mof_C 	C 	0.56494	0.71068	0.16257	0.573
Mof_H 	H 	0.572	0.7256	0.143	-0.859
Mof_Co	Co	0.5726	0.7517	0.13592	1.311
Mof_H 	H 	0.5695	0.6461	0.2165	-0.574
Mof_N 	N 	0.66696	0.70278	0.06378	-0.02
Mof_N 	N 	0.21609	0.18409	0.03665	-0.371
Mof_N 	N 	0.1893	0.20825	0.0365	-0.252
Mof_C 	C 	0.17973	0.17374	0.08208	-0.289
Mof_C 	C 	0.1622	0.15923	0.11453	0.177
Mof_C 	C 	0.17579	0.12868	0.13158	-0.253
Mof_H 	H 	0.1967	0.1173	0.1222	0.006
Mof_C 	C 	0.21068	0.16257	0.06494	0.48
Mof_H 	H 	0.2256	0.143	0.072	-0.824
Mof_Co	Co	0.2517	0.13592	0.0726	1.303
Mof_H 	H 	0.1461	0.2165	0.0695	-0.397
Mof_N 	N 	0.20278	0.06378	0.16696	-0.02
Mof_N 	N 	0.21609	0.68409	0.53665	-0.369
Mof_N 	N 	0.1893	0.70825	0.5365	-0.25
Mof_C 	C 	0.17973	0.67374	0.58208	-0.287
Mof_C 	C 	0.1622	0.65923	0.61453	0.178
Mof_C 	C 	0.17579	0.62868	0.63158	-0.253
Mof_H 	H 	0.1967	0.6173	0.6222	0.007
Mof_C 	C 	0.21068	0.66257	0.56494	0.482
Mof_H 	H 	0.2256	0.643	0.572	-0.824
Mof_Co	Co	0.2517	0.63592	0.5726	1.305
Mof_H 	H 	0.1461	0.7165	0.5695	-0.396
Mof_N 	N 	0.20278	0.56378	0.66696	-0.02
Mof_N 	N 	0.71609	0.18409	0.53665	-0.369
Mof_N 	N 	0.6893	0.20825	0.5365	-0.25
Mof_C 	C 	0.67973	0.17374	0.58208	-0.287
Mof_C 	C 	0.6622	0.15923	0.61453	0.178
Mof_C 	C 	0.67579	0.12868	0.63158	-0.253
Mof_H 	H 	0.6967	0.1173	0.6222	0.007
Mof_C 	C 	0.71068	0.16257	0.56494	0.482
Mof_H 	H 	0.7256	0.143	0.572	-0.824
Mof_Co	Co	0.7517	0.13592	0.5726	1.304
Mof_H 	H 	0.6461	0.2165	0.5695	-0.395
Mof_N 	N 	0.70278	0.06378	0.66696	-0.02
Mof_N 	N 	0.71609	0.68409	0.03665	-0.371
Mof_N 	N 	0.6893	0.70825	0.0365	-0.252
Mof_C 	C 	0.67973	0.67374	0.08208	-0.288
Mof_C 	C 	0.6622	0.65923	0.11453	0.178
Mof_C 	C 	0.67579	0.62868	0.13158	-0.253
Mof_H 	H 	0.6967	0.6173	0.1222	0.007
Mof_C 	C 	0.71068	0.66257	0.06494	0.481
Mof_H 	H 	0.7256	0.643	0.072	-0.824
Mof_Co	Co	0.7517	0.63592	0.0726	1.304
Mof_H 	H 	0.6461	0.7165	0.0695	-0.396
Mof_N 	N 	0.70278	0.56378	0.16696	-0.02
Mof_N 	N 	0.78391	0.18409	0.96335	-0.363
Mof_N 	N 	0.8107	0.20825	0.9635	-0.243
Mof_C 	C 	0.82027	0.17374	0.91792	-0.286
Mof_C 	C 	0.8378	0.15923	0.88547	0.179
Mof_C 	C 	0.82421	0.12868	0.86842	-0.253
Mof_H 	H 	0.8033	0.1173	0.8778	0.007
Mof_C 	C 	0.78932	0.16257	0.93506	0.483
Mof_H 	H 	0.7744	0.143	0.928	-0.823
Mof_Co	Co	0.7483	0.13592	0.9274	1.306
Mof_H 	H 	0.8539	0.2165	0.9305	-0.393
Mof_N 	N 	0.79722	0.06378	0.83304	-0.02
Mof_N 	N 	0.78391	0.68409	0.46335	-0.369
Mof_N 	N 	0.8107	0.70825	0.4635	-0.249
Mof_C 	C 	0.82027	0.67374	0.41792	-0.287
Mof_C 	C 	0.8378	0.65923	0.38547	0.179
Mof_C 	C 	0.82421	0.62868	0.36842	-0.253
Mof_H 	H 	0.8033	0.6173	0.3778	0.007
Mof_C 	C 	0.78932	0.66257	0.43506	0.482
Mof_H 	H 	0.7744	0.643	0.428	-0.823
Mof_Co	Co	0.7483	0.63592	0.4274	1.305
Mof_H 	H 	0.8539	0.7165	0.4305	-0.394
Mof_N 	N 	0.79722	0.56378	0.33304	-0.02
Mof_N 	N 	0.28391	0.18409	0.46335	-0.369
Mof_N 	N 	0.3107	0.20825	0.4635	-0.25
Mof_C 	C 	0.32027	0.17374	0.41792	-0.287
Mof_C 	C 	0.3378	0.15923	0.38547	0.178
Mof_C 	C 	0.32421	0.12868	0.36842	-0.253
Mof_H 	H 	0.3033	0.1173	0.3778	0.007
Mof_C 	C 	0.28932	0.16257	0.43506	0.482
Mof_H 	H 	0.2744	0.143	0.428	-0.824
Mof_Co	Co	0.2483	0.13592	0.4274	1.304
Mof_H 	H 	0.3539	0.2165	0.4305	-0.395
Mof_N 	N 	0.29722	0.06378	0.33304	-0.02
Mof_N 	N 	0.28391	0.68409	0.96335	-0.363
Mof_N 	N 	0.3107	0.70825	0.9635	-0.243
Mof_C 	C 	0.32027	0.67374	0.91792	-0.286
Mof_C 	C 	0.3378	0.65923	0.88547	0.179
Mof_C 	C 	0.32421	0.62868	0.86842	-0.253
Mof_H 	H 	0.3033	0.6173	0.8778	0.008
Mof_C 	C 	0.28932	0.66257	0.93506	0.484
Mof_H 	H 	0.2744	0.643	0.928	-0.823
Mof_Co	Co	0.2483	0.63592	0.9274	1.306
Mof_H 	H 	0.3539	0.7165	0.9305	-0.393
Mof_N 	N 	0.29722	0.56378	0.83304	-0.019
Mof_N 	N 	0.78391	0.81591	0.03665	-0.37
Mof_N 	N 	0.8107	0.79175	0.0365	-0.251
Mof_C 	C 	0.82027	0.82626	0.08208	-0.287
Mof_C 	C 	0.8378	0.84077	0.11453	0.179
Mof_C 	C 	0.82421	0.87132	0.13158	-0.253
Mof_H 	H 	0.8033	0.8827	0.1222	0.007
Mof_C 	C 	0.78932	0.83743	0.06494	0.482
Mof_H 	H 	0.7744	0.857	0.072	-0.824
Mof_Co	Co	0.7483	0.86408	0.0726	1.305
Mof_H 	H 	0.8539	0.7835	0.0695	-0.395
Mof_N 	N 	0.79722	0.93622	0.16696	-0.019
Mof_N 	N 	0.78391	0.31591	0.53665	-0.369
Mof_N 	N 	0.8107	0.29175	0.5365	-0.249
Mof_C 	C 	0.82027	0.32626	0.58208	-0.287
Mof_C 	C 	0.8378	0.34077	0.61453	0.179
Mof_C 	C 	0.82421	0.37132	0.63158	-0.253
Mof_H 	H 	0.8033	0.3827	0.6222	0.007
Mof_C 	C 	0.78932	0.33743	0.56494	0.482
Mof_H 	H 	0.7744	0.357	0.572	-0.823
Mof_Co	Co	0.7483	0.36408	0.5726	1.305
Mof_H 	H 	0.8539	0.2835	0.5695	-0.394
Mof_N 	N 	0.79722	0.43622	0.66696	-0.02
Mof_N 	N 	0.28391	0.81591	0.53665	-0.368
Mof_N 	N 	0.3107	0.79175	0.5365	-0.249
Mof_C 	C 	0.32027	0.82626	0.58208	-0.287
Mof_C 	C 	0.3378	0.84077	0.61453	0.179
Mof_C 	C 	0.32421	0.87132	0.63158	-0.253
Mof_H 	H 	0.3033	0.8827	0.6222	0.008
Mof_C 	C 	0.28932	0.83743	0.56494	0.483
Mof_H 	H 	0.2744	0.857	0.572	-0.823
Mof_Co	Co	0.2483	0.86408	0.5726	1.306
Mof_H 	H 	0.3539	0.7835	0.5695	-0.395
Mof_N 	N 	0.29722	0.93622	0.66696	-0.019
Mof_N 	N 	0.28391	0.31591	0.03665	-0.371
Mof_N 	N 	0.3107	0.29175	0.0365	-0.252
Mof_C 	C 	0.32027	0.32626	0.08208	-0.288
Mof_C 	C 	0.3378	0.34077	0.11453	0.178
Mof_C 	C 	0.32421	0.37132	0.13158	-0.253
Mof_H 	H 	0.3033	0.3827	0.1222	0.007
Mof_C 	C 	0.28932	0.33743	0.06494	0.481
Mof_H 	H 	0.2744	0.357	0.072	-0.824
Mof_Co	Co	0.2483	0.36408	0.0726	1.304
Mof_H 	H 	0.3539	0.2835	0.0695	-0.396
Mof_N 	N 	0.29722	0.43622	0.16696	-0.02
Mof_N 	N 	0.21609	0.81591	0.96335	-0.363
Mof_N 	N 	0.1893	0.79175	0.9635	-0.244
Mof_C 	C 	0.17973	0.82626	0.91792	-0.286
Mof_C 	C 	0.1622	0.84077	0.88547	0.179
Mof_C 	C 	0.17579	0.87132	0.86842	-0.252
Mof_H 	H 	0.1967	0.8827	0.8778	0.008
Mof_C 	C 	0.21068	0.83743	0.93506	0.484
Mof_H 	H 	0.2256	0.857	0.928	-0.822
Mof_Co	Co	0.2517	0.86408	0.9274	1.307
Mof_H 	H 	0.1461	0.7835	0.9305	-0.394
Mof_N 	N 	0.20278	0.93622	0.83304	-0.019
Mof_N 	N 	0.21609	0.31591	0.46335	-0.369
Mof_N 	N 	0.1893	0.29175	0.4635	-0.25
Mof_C 	C 	0.17973	0.32626	0.41792	-0.287
Mof_C 	C 	0.1622	0.34077	0.38547	0.178
Mof_C 	C 	0.17579	0.37132	0.36842	-0.253
Mof_H 	H 	0.1967	0.3827	0.3778	0.007
Mof_C 	C 	0.21068	0.33743	0.43506	0.482
Mof_H 	H 	0.2256	0.357	0.428	-0.824
Mof_Co	Co	0.2517	0.36408	0.4274	1.305
Mof_H 	H 	0.1461	0.2835	0.4305	-0.396
Mof_N 	N 	0.20278	0.43622	0.33304	-0.02
Mof_N 	N 	0.71609	0.81591	0.46335	-0.368
Mof_N 	N 	0.6893	0.79175	0.4635	-0.25
Mof_C 	C 	0.67973	0.82626	0.41792	-0.287
Mof_C 	C 	0.6622	0.84077	0.38547	0.179
Mof_C 	C 	0.67579	0.87132	0.36842	-0.253
Mof_H 	H 	0.6967	0.8827	0.3778	0.008
Mof_C 	C 	0.71068	0.83743	0.43506	0.483
Mof_H 	H 	0.7256	0.857	0.428	-0.823
Mof_Co	Co	0.7517	0.86408	0.4274	1.306
Mof_H 	H 	0.6461	0.7835	0.4305	-0.395
Mof_N 	N 	0.70278	0.93622	0.33304	-0.019
Mof_N 	N 	0.71609	0.31591	0.96335	-0.363
Mof_N 	N 	0.6893	0.29175	0.9635	-0.243
Mof_C 	C 	0.67973	0.32626	0.91792	-0.286
Mof_C 	C 	0.6622	0.34077	0.88547	0.179
Mof_C 	C 	0.67579	0.37132	0.86842	-0.253
Mof_H 	H 	0.6967	0.3827	0.8778	0.008
Mof_C 	C 	0.71068	0.33743	0.93506	0.484
Mof_H 	H 	0.7256	0.357	0.928	-0.823
Mof_Co	Co	0.7517	0.36408	0.9274	1.307
Mof_H 	H 	0.6461	0.2835	0.9305	-0.393
Mof_N 	N 	0.70278	0.43622	0.83304	-0.02
Mof_N 	N 	0.18409	0.96335	0.78391	-0.367
Mof_N 	N 	0.20825	0.9635	0.8107	-0.245
Mof_C 	C 	0.17374	0.91792	0.82027	-0.289
Mof_C 	C 	0.15923	0.88547	0.8378	0.181
Mof_C 	C 	0.12868	0.86842	0.82421	-0.292
Mof_H 	H 	0.1173	0.8778	0.8033	0.021
Mof_C 	C 	0.16257	0.93506	0.78932	0.485
Mof_H 	H 	0.143	0.928	0.7744	-0.831
Mof_Co	Co	0.13592	0.9274	0.7483	1.323
Mof_H 	H 	0.2165	0.9305	0.8539	-0.395
Mof_N 	N 	0.18409	0.46335	0.28391	-0.373
Mof_N 	N 	0.20825	0.4635	0.3107	-0.251
Mof_C 	C 	0.17374	0.41792	0.32027	-0.291
Mof_C 	C 	0.15923	0.38547	0.3378	0.18
Mof_C 	C 	0.12868	0.36842	0.32421	-0.292
Mof_H 	H 	0.1173	0.3778	0.3033	0.02
Mof_C 	C 	0.16257	0.43506	0.28932	0.483
Mof_H 	H 	0.143	0.428	0.2744	-0.832
Mof_Co	Co	0.13592	0.4274	0.2483	1.322
Mof_H 	H 	0.2165	0.4305	0.3539	-0.397
Mof_N 	N 	0.68409	0.96335	0.28391	-0.367
Mof_N 	N 	0.70825	0.9635	0.3107	-0.245
Mof_C 	C 	0.67374	0.91792	0.32027	-0.289
Mof_C 	C 	0.65923	0.88547	0.3378	0.181
Mof_C 	C 	0.62868	0.86842	0.32421	-0.292
Mof_H 	H 	0.6173	0.8778	0.3033	0.021
Mof_C 	C 	0.66257	0.93506	0.28932	0.485
Mof_H 	H 	0.643	0.928	0.2744	-0.831
Mof_Co	Co	0.63592	0.9274	0.2483	1.324
Mof_H 	H 	0.7165	0.9305	0.3539	-0.395
Mof_N 	N 	0.68409	0.46335	0.78391	-0.373
Mof_N 	N 	0.70825	0.4635	0.8107	-0.251
Mof_C 	C 	0.67374	0.41792	0.82027	-0.29
Mof_C 	C 	0.65923	0.38547	0.8378	0.181
Mof_C 	C 	0.62868	0.36842	0.82421	-0.292
Mof_H 	H 	0.6173	0.3778	0.8033	0.021
Mof_C 	C 	0.66257	0.43506	0.78932	0.484
Mof_H 	H 	0.643	0.428	0.7744	-0.832
Mof_Co	Co	0.63592	0.4274	0.7483	1.322
Mof_H 	H 	0.7165	0.4305	0.8539	-0.396
Mof_N 	N 	0.18409	0.03665	0.21609	-0.375
Mof_N 	N 	0.20825	0.0365	0.1893	-0.253
Mof_C 	C 	0.17374	0.08208	0.17973	-0.292
Mof_C 	C 	0.15923	0.11453	0.1622	0.178
Mof_C 	C 	0.12868	0.13158	0.17579	-0.293
Mof_H 	H 	0.1173	0.1222	0.1967	0.019
Mof_C 	C 	0.16257	0.06494	0.21068	0.482
Mof_H 	H 	0.143	0.072	0.2256	-0.833
Mof_Co	Co	0.13592	0.0726	0.2517	1.32
Mof_H 	H 	0.2165	0.0695	0.1461	-0.399
Mof_N 	N 	0.18409	0.53665	0.71609	-0.373
Mof_N 	N 	0.20825	0.5365	0.6893	-0.251
Mof_C 	C 	0.17374	0.58208	0.67973	-0.291
Mof_C 	C 	0.15923	0.61453	0.6622	0.18
Mof_C 	C 	0.12868	0.63158	0.67579	-0.293
Mof_H 	H 	0.1173	0.6222	0.6967	0.02
Mof_C 	C 	0.16257	0.56494	0.71068	0.483
Mof_H 	H 	0.143	0.572	0.7256	-0.832
Mof_Co	Co	0.13592	0.5726	0.7517	1.322
Mof_H 	H 	0.2165	0.5695	0.6461	-0.397
Mof_N 	N 	0.68409	0.03665	0.71609	-0.375
Mof_N 	N 	0.70825	0.0365	0.6893	-0.253
Mof_C 	C 	0.67374	0.08208	0.67973	-0.291
Mof_C 	C 	0.65923	0.11453	0.6622	0.179
Mof_C 	C 	0.62868	0.13158	0.67579	-0.293
Mof_H 	H 	0.6173	0.1222	0.6967	0.02
Mof_C 	C 	0.66257	0.06494	0.71068	0.482
Mof_H 	H 	0.643	0.072	0.7256	-0.832
Mof_Co	Co	0.63592	0.0726	0.7517	1.321
Mof_H 	H 	0.7165	0.0695	0.6461	-0.398
Mof_N 	N 	0.68409	0.53665	0.21609	-0.373
Mof_N 	N 	0.70825	0.5365	0.1893	-0.251
Mof_C 	C 	0.67374	0.58208	0.17973	-0.291
Mof_C 	C 	0.65923	0.61453	0.1622	0.18
Mof_C 	C 	0.62868	0.63158	0.17579	-0.293
Mof_H 	H 	0.6173	0.6222	0.1967	0.02
Mof_C 	C 	0.66257	0.56494	0.21068	0.484
Mof_H 	H 	0.643	0.572	0.2256	-0.832
Mof_Co	Co	0.63592	0.5726	0.2517	1.322
Mof_H 	H 	0.7165	0.5695	0.1461	-0.398
Mof_N 	N 	0.81591	0.96335	0.21609	-0.367
Mof_N 	N 	0.79175	0.9635	0.1893	-0.245
Mof_C 	C 	0.82626	0.91792	0.17973	-0.289
Mof_C 	C 	0.84077	0.88547	0.1622	0.181
Mof_C 	C 	0.87132	0.86842	0.17579	-0.292
Mof_H 	H 	0.8827	0.8778	0.1967	0.022
Mof_C 	C 	0.83743	0.93506	0.21068	0.486
Mof_H 	H 	0.857	0.928	0.2256	-0.83
Mof_Co	Co	0.86408	0.9274	0.2517	1.324
Mof_H 	H 	0.7835	0.9305	0.1461	-0.396
Mof_N 	N 	0.81591	0.46335	0.71609	-0.373
Mof_N 	N 	0.79175	0.4635	0.6893	-0.251
Mof_C 	C 	0.82626	0.41792	0.67973	-0.29
Mof_C 	C 	0.84077	0.38547	0.6622	0.181
Mof_C 	C 	0.87132	0.36842	0.67579	-0.292
Mof_H 	H 	0.8827	0.3778	0.6967	0.021
Mof_C 	C 	0.83743	0.43506	0.71068	0.484
Mof_H 	H 	0.857	0.428	0.7256	-0.831
Mof_Co	Co	0.86408	0.4274	0.7517	1.323
Mof_H 	H 	0.7835	0.4305	0.6461	-0.397
Mof_N 	N 	0.31591	0.96335	0.71609	-0.367
Mof_N 	N 	0.29175	0.9635	0.6893	-0.245
Mof_C 	C 	0.32626	0.91792	0.67973	-0.289
Mof_C 	C 	0.34077	0.88547	0.6622	0.181
Mof_C 	C 	0.37132	0.86842	0.67579	-0.292
Mof_H 	H 	0.3827	0.8778	0.6967	0.021
Mof_C 	C 	0.33743	0.93506	0.71068	0.485
Mof_H 	H 	0.357	0.928	0.7256	-0.831
Mof_Co	Co	0.36408	0.9274	0.7517	1.324
Mof_H 	H 	0.2835	0.9305	0.6461	-0.395
Mof_N 	N 	0.31591	0.46335	0.21609	-0.373
Mof_N 	N 	0.29175	0.4635	0.1893	-0.251
Mof_C 	C 	0.32626	0.41792	0.17973	-0.291
Mof_C 	C 	0.34077	0.38547	0.1622	0.18
Mof_C 	C 	0.37132	0.36842	0.17579	-0.293
Mof_H 	H 	0.3827	0.3778	0.1967	0.02
Mof_C 	C 	0.33743	0.43506	0.21068	0.484
Mof_H 	H 	0.357	0.428	0.2256	-0.832
Mof_Co	Co	0.36408	0.4274	0.2517	1.322
Mof_H 	H 	0.2835	0.4305	0.1461	-0.398
Mof_N 	N 	0.81591	0.03665	0.78391	-0.374
Mof_N 	N 	0.79175	0.0365	0.8107	-0.253
Mof_C 	C 	0.82626	0.08208	0.82027	-0.291
Mof_C 	C 	0.84077	0.11453	0.8378	0.18
Mof_C 	C 	0.87132	0.13158	0.82421	-0.292
Mof_H 	H 	0.8827	0.1222	0.8033	0.021
Mof_C 	C 	0.83743	0.06494	0.78932	0.483
Mof_H 	H 	0.857	0.072	0.7744	-0.832
Mof_Co	Co	0.86408	0.0726	0.7483	1.322
Mof_H 	H 	0.7835	0.0695	0.8539	-0.397
Mof_N 	N 	0.81591	0.53665	0.28391	-0.373
Mof_N 	N 	0.79175	0.5365	0.3107	-0.251
Mof_C 	C 	0.82626	0.58208	0.32027	-0.29
Mof_C 	C 	0.84077	0.61453	0.3378	0.181
Mof_C 	C 	0.87132	0.63158	0.32421	-0.292
Mof_H 	H 	0.8827	0.6222	0.3033	0.021
Mof_C 	C 	0.83743	0.56494	0.28932	0.484
Mof_H 	H 	0.857	0.572	0.2744	-0.831
Mof_Co	Co	0.86408	0.5726	0.2483	1.323
Mof_H 	H 	0.7835	0.5695	0.3539	-0.397
Mof_N 	N 	0.31591	0.03665	0.28391	-0.375
Mof_N 	N 	0.29175	0.0365	0.3107	-0.253
Mof_C 	C 	0.32626	0.08208	0.32027	-0.291
Mof_C 	C 	0.34077	0.11453	0.3378	0.179
Mof_C 	C 	0.37132	0.13158	0.32421	-0.293
Mof_H 	H 	0.3827	0.1222	0.3033	0.02
Mof_C 	C 	0.33743	0.06494	0.28932	0.483
Mof_H 	H 	0.357	0.072	0.2744	-0.832
Mof_Co	Co	0.36408	0.0726	0.2483	1.321
Mof_H 	H 	0.2835	0.0695	0.3539	-0.398
Mof_N 	N 	0.31591	0.53665	0.78391	-0.373
Mof_N 	N 	0.29175	0.5365	0.8107	-0.251
Mof_C 	C 	0.32626	0.58208	0.82027	-0.29
Mof_C 	C 	0.34077	0.61453	0.8378	0.181
Mof_C 	C 	0.37132	0.63158	0.82421	-0.292
Mof_H 	H 	0.3827	0.6222	0.8033	0.021
Mof_C 	C 	0.33743	0.56494	0.78932	0.484
Mof_H 	H 	0.357	0.572	0.7744	-0.832
Mof_Co	Co	0.36408	0.5726	0.7483	1.322
Mof_H 	H 	0.2835	0.5695	0.8539	-0.396
Mof_Co	Co	0.24613	0.5	0.31374	1.086
Mof_Co	Co	0.24613	0	0.81374	1.079
Mof_Co	Co	0.74613	0.5	0.81374	1.086
Mof_Co	Co	0.74613	0	0.31374	1.079
Mof_Co	Co	0.75387	0.5	0.31374	1.086
Mof_Co	Co	0.75387	0	0.81374	1.079
Mof_Co	Co	0.25387	0.5	0.81374	1.086
Mof_Co	Co	0.25387	0	0.31374	1.079
Mof_Co	Co	0.75387	0.5	0.68626	1.086
Mof_Co	Co	0.75387	-1.98269e-33	0.18626	1.079
Mof_Co	Co	0.25387	0.5	0.18626	1.086
Mof_Co	Co	0.25387	-7.93077e-33	0.68626	1.079
Mof_Co	Co	0.24613	0.5	0.68626	1.086
Mof_Co	Co	0.24613	-1.98269e-33	0.18626	1.079
Mof_Co	Co	0.74613	0.5	0.18626	1.086
Mof_Co	Co	0.74613	-7.93077e-33	0.68626	1.079
Mof_Co	Co	0.31374	0.24613	0.5	1.086
Mof_Co	Co	0.31374	0.74613	-0	1.079
Mof_Co	Co	0.81374	0.24613	-0	1.079
Mof_Co	Co	0.81374	0.74613	0.5	1.086
Mof_Co	Co	0.31374	0.75387	0.5	1.086
Mof_Co	Co	0.31374	0.25387	-0	1.079
Mof_Co	Co	0.81374	0.75387	-0	1.079
Mof_Co	Co	0.81374	0.25387	0.5	1.086
Mof_Co	Co	0.68626	0.75387	0.5	1.086
Mof_Co	Co	0.68626	0.25387	-0	1.079
Mof_Co	Co	0.18626	0.75387	-0	1.079
Mof_Co	Co	0.18626	0.25387	0.5	1.086
Mof_Co	Co	0.68626	0.24613	0.5	1.086
Mof_Co	Co	0.68626	0.74613	-0	1.079
Mof_Co	Co	0.18626	0.24613	-0	1.078
Mof_Co	Co	0.18626	0.74613	0.5	1.086
Mof_Co	Co	0.5	0.31374	0.24613	1.085
Mof_Co	Co	0.5	0.81374	0.74613	1.085
Mof_Co	Co	-5.13323e-33	0.31374	0.74613	1.078
Mof_Co	Co	-7.00793e-33	0.81374	0.24613	1.078
Mof_Co	Co	0.5	0.31374	0.75387	1.085
Mof_Co	Co	0.5	0.81374	0.25387	1.085
Mof_Co	Co	-3.01352e-33	0.31374	0.25387	1.078
Mof_Co	Co	-5.10421e-33	0.81374	0.75387	1.078
Mof_Co	Co	0.5	0.68626	0.75387	1.085
Mof_Co	Co	0.5	0.18626	0.25387	1.085
Mof_Co	Co	-3.01352e-33	0.68626	0.25387	1.078
Mof_Co	Co	-5.10421e-33	0.18626	0.75387	1.078
Mof_Co	Co	0.5	0.68626	0.24613	1.085
Mof_Co	Co	0.5	0.18626	0.74613	1.085
Mof_Co	Co	-5.13323e-33	0.68626	0.74613	1.078
Mof_Co	Co	-3.04254e-33	0.18626	0.24613	1.078
Mof_Co	Co	-1.28433e-33	0.74613	0.18626	1.079
Mof_Co	Co	-5.3577e-33	0.24613	0.68626	1.079
Mof_Co	Co	0.5	0.74613	0.68626	1.086
Mof_Co	Co	0.5	0.24613	0.18626	1.086
Mof_Co	Co	-1.28433e-33	0.25387	0.18626	1.079
Mof_Co	Co	-1.32885e-32	0.75387	0.68626	1.079
Mof_Co	Co	0.5	0.25387	0.68626	1.086
Mof_Co	Co	0.5	0.75387	0.18626	1.086
Mof_Co	Co	-4.87973e-33	0.25387	0.81374	1.079
Mof_Co	Co	-1.07198e-32	0.75387	0.31374	1.079
Mof_Co	Co	0.5	0.25387	0.31374	1.086
Mof_Co	Co	0.5	0.75387	0.81374	1.086
Mof_Co	Co	-4.87973e-33	0.74613	0.81374	1.079
Mof_Co	Co	5.14172e-33	0.24613	0.31374	1.079
Mof_Co	Co	0.5	0.74613	0.31374	1.086
Mof_Co	Co	0.5	0.24613	0.81374	1.086
Mof_Co	Co	0.74613	0.81374	-0	1.079
Mof_Co	Co	0.74613	0.31374	0.5	1.086
Mof_Co	Co	0.24613	0.81374	0.5	1.086
Mof_Co	Co	0.24613	0.31374	-0	1.079
Mof_Co	Co	0.25387	0.81374	-0	1.079
Mof_Co	Co	0.25387	0.31374	0.5	1.086
Mof_Co	Co	0.75387	0.81374	0.5	1.086
Mof_Co	Co	0.75387	0.31374	-0	1.079
Mof_Co	Co	0.25387	0.18626	-0	1.079
Mof_Co	Co	0.25387	0.68626	0.5	1.086
Mof_Co	Co	0.75387	0.18626	0.5	1.086
Mof_Co	Co	0.75387	0.68626	-0	1.079
Mof_Co	Co	0.74613	0.18626	-0	1.079
Mof_Co	Co	0.74613	0.68626	0.5	1.086
Mof_Co	Co	0.24613	0.18626	0.5	1.086
Mof_Co	Co	0.24613	0.68626	-0	1.079
Mof_Co	Co	0.81374	-1.98269e-33	0.25387	1.078
Mof_Co	Co	0.81374	0.5	0.75387	1.085
Mof_Co	Co	0.31374	-7.93077e-33	0.75387	1.078
Mof_Co	Co	0.31374	0.5	0.25387	1.085
Mof_Co	Co	0.81374	0	0.74613	1.078
Mof_Co	Co	0.81374	0.5	0.24613	1.085
Mof_Co	Co	0.31374	0	0.24613	1.078
Mof_Co	Co	0.31374	0.5	0.74613	1.085
Mof_Co	Co	0.18626	0	0.74613	1.078
Mof_Co	Co	0.18626	0.5	0.24613	1.085
Mof_Co	Co	0.68626	0	0.24613	1.078
Mof_Co	Co	0.68626	0.5	0.74613	1.085
Mof_Co	Co	0.18626	-1.98269e-33	0.25387	1.078
Mof_Co	Co	0.18626	0.5	0.75387	1.085
Mof_Co	Co	0.68626	-7.93077e-33	0.75387	1.078
Mof_Co	Co	0.68626	0.5	0.25387	1.085
Mof_Cl	Cl	0.25	0.5	0.25	-0.942
Mof_Cl	Cl	0.25	-7.93077e-33	0.75	-0.954
Mof_Cl	Cl	0.75	0	0.25	-0.954
Mof_Cl	Cl	0.75	0.5	0.25	-0.942
Mof_Cl	Cl	0.25	0	0.25	-0.953
Mof_Cl	Cl	0.75	0.5	0.75	-0.942
Mof_Cl	Cl	0.25	0.5	0.75	-0.942
Mof_Cl	Cl	0.25	0.25	0.5	-0.943
Mof_Cl	Cl	0.25	0.75	-0	-0.955
Mof_Cl	Cl	0.75	0.25	-0	-0.955
Mof_Cl	Cl	0.25	0.75	0.5	-0.944
Mof_Cl	Cl	0.25	0.25	-0	-0.955
Mof_Cl	Cl	0.75	0.75	0.5	-0.944
Mof_Cl	Cl	0.75	0.25	0.5	-0.944
Mof_Cl	Cl	0.5	0.25	0.25	-0.942
Mof_Cl	Cl	-5.11872e-33	0.25	0.75	-0.954
Mof_Cl	Cl	-5.01072e-33	0.75	0.25	-0.954
Mof_Cl	Cl	0.5	0.25	0.75	-0.942
Mof_Cl	Cl	9.3735e-34	0.25	0.25	-0.953
Mof_Cl	Cl	0.5	0.75	0.75	-0.942
Mof_Cl	Cl	0.5	0.75	0.25	-0.942
Mof_Cl	Cl	-1.30495e-32	0.75	0.75	-0.954
Mof_Cl	Cl	0.75	0.75	-0	-0.956
Mof_Cl	Cl	0.75	-7.93077e-33	0.75	-0.954
_end
