data_functionalizedCrystal
_audit_creation_method	'EQeq! by Chris Wilmer'
_symmetry_space_group_name_H-M	'P1'
_symmetry_Int_Tables_number	1
_symmetry_cell_setting	triclinic
loop_
_symmetry_equiv_pos_as_xyz
  x,y,z
_cell_length_a	18.515
_cell_length_b	57.377
_cell_length_c	48.822
_cell_angle_alpha	90
_cell_angle_beta	90
_cell_angle_gamma	90
loop_
_atom_site_label
_atom_site_type_symbol
_atom_site_fract_x
_atom_site_fract_y
_atom_site_fract_z
_atom_site_charge
Mof_C 	C 	0.075	0.2824	0.0441	-1.728
Mof_H 	H 	0.1002	0.2871	0.0608	0.996
Mof_H 	H 	0.0284	0.2907	0.0431	0.546
Mof_H 	H 	0.104	0.2863	0.0281	0.559
Mof_C 	C 	0.143	0.3412	0.0177	-0.088
Mof_H 	H 	0.1037	0.3527	0.0167	0.045
Mof_H 	H 	0.1878	0.3489	0.0244	0.037
Mof_C 	C 	0.156	0.3288	0.9895	0.033
Mof_H 	H 	0.124	0.3151	0.9873	0.001
Mof_H 	H 	0.2068	0.3241	0.9871	0
Mof_C 	C 	0.134	0.3491	0.9696	-0.399
Mof_H 	H 	0.1779	0.3557	0.9612	0.124
Mof_H 	H 	0.1092	0.3614	0.9799	0.132
Mof_H 	H 	0.1023	0.3431	0.9553	0.137
Mof_C 	C 	0.6607	0.35279	0.00658	-0.019
Mof_C 	C 	0.6565	0.33945	0.03031	0.018
Mof_C 	C 	0.6418	0.35317	0.0524	-0.03
Mof_H 	H 	0.6382	0.347	0.0704	0.052
Mof_C 	C 	0.6329	0.37552	0.04728	-0.09
Mof_C 	C 	0.9623	0.39058	0.94027	0.328
Mof_C 	C 	0.9359	0.37295	0.96221	-0.07
Mof_C 	C 	0.9322	0.34989	0.95991	-0.054
Mof_H 	H 	0.94	0.3416	0.9433	0.056
Mof_C 	C 	0.9145	0.33862	0.9863	0.04
Mof_C 	C 	0.9106	0.35551	0.00597	-0.039
Mof_C 	C 	0.8954	0.35229	0.03563	0.013
Mof_C 	C 	0.9317	0.3403	0.055	-0.082
Mof_C 	C 	0.8933	0.34008	0.08023	0.025
Mof_H 	H 	0.9077	0.3305	0.0951	0.014
Mof_C 	C 	0.8378	0.35367	0.08189	-0.121
Mof_C 	C 	0.7899	0.35798	0.10623	0.38
Mof_C 	C 	0.9058	0.31316	0.9884	-0.131
Mof_H 	H 	0.8944	0.3089	0.0076	0.06
Mof_H 	H 	0.9517	0.3054	0.9834	0.058
Mof_C 	C 	0.8458	0.3045	0.9697	-0.104
Mof_H 	H 	0.7986	0.3112	0.9752	0.06
Mof_H 	H 	0.8556	0.3088	0.9504	0.063
Mof_C 	C 	0.8462	0.27822	0.9734	-0.015
Mof_H 	H 	0.8919	0.2714	0.9665	0.021
Mof_H 	H 	0.8405	0.274	0.9929	0.019
Mof_C 	C 	0.7826	0.26955	0.95677	-0.227
Mof_H 	H 	0.7712	0.2532	0.9615	0.085
Mof_H 	H 	0.7393	0.2793	0.9602	0.09
Mof_C 	C 	0.8055	0.2714	0.9274	0.15
Mof_H 	H 	0.8448	0.2602	0.9234	-0.025
Mof_H 	H 	0.823	0.2874	0.9233	-0.015
Mof_C 	C 	0.7394	0.2659	0.9105	-0.491
Mof_H 	H 	0.7511	0.2673	0.891	0.147
Mof_H 	H 	0.7007	0.2768	0.9151	0.16
Mof_H 	H 	0.7235	0.2499	0.9145	0.157
Mof_C 	C 	0.9982	0.3254	0.048	0.152
Mof_H 	H 	0.0005	0.3243	0.0278	-0.038
Mof_H 	H 	0.9885	0.3095	0.0549	0.084
Mof_C 	C 	0.075	0.3324	0.0581	-0.403
Mof_H 	H 	0.0848	0.3263	0.0767	0.071
Mof_H 	H 	0.0822	0.3495	0.0578	0.125
Mof_C 	C 	0.1224	0.3198	0.036	-0.15
Mof_H 	H 	0.1655	0.3123	0.0442	-0.011
Mof_H 	H 	0.0944	0.3081	0.0256	0.032
Mof_C 	C 	0.7829	0.3459	0.9078	0.345
Mof_C 	C 	0.7268	0.34288	0.93351	-0.06
Mof_C 	C 	0.6774	0.3273	0.93669	-0.062
Mof_H 	H 	0.6652	0.316	0.9233	0.042
Mof_C 	C 	0.643	0.3293	0.96285	0.043
Mof_C 	C 	0.6781	0.3461	0.97852	-0.035
Mof_C 	C 	0.6091	0.39437	0.06448	0.318
Mof_C 	C 	0.5825	0.3144	0.9711	-0.168
Mof_H 	H 	0.5727	0.3167	0.9909	0.07
Mof_H 	H 	0.5959	0.2979	0.9683	0.064
Mof_C 	C 	0.5143	0.3197	0.9549	-0.041
Mof_H 	H 	0.4762	0.308	0.9588	0.028
Mof_H 	H 	0.5243	0.3197	0.935	0.016
Mof_C 	C 	0.4916	0.3438	0.9646	-0.07
Mof_H 	H 	0.4711	0.3431	0.9833	0.039
Mof_H 	H 	0.5333	0.3546	0.9646	0.05
Mof_C 	C 	0.4347	0.3516	0.944	-0.171
Mof_H 	H 	0.4022	0.3635	0.9522	0.062
Mof_H 	H 	0.4576	0.3583	0.9274	0.067
Mof_C 	C 	0.3935	0.3295	0.9371	0.11
Mof_H 	H 	0.3427	0.333	0.9323	-0.023
Mof_H 	H 	0.3941	0.3184	0.9527	-0.013
Mof_C 	C 	0.434	0.3194	0.9126	-0.46
Mof_H 	H 	0.403	0.3081	0.9032	0.141
Mof_H 	H 	0.478	0.3117	0.9189	0.151
Mof_H 	H 	0.4464	0.332	0.8999	0.145
Mof_C 	C 	0.6789	0.31325	0.03305	-0.12
Mof_H 	H 	0.6362	0.3042	0.0391	0.059
Mof_H 	H 	0.6929	0.3074	0.0147	0.059
Mof_C 	C 	0.7405	0.30848	0.05286	-0.099
Mof_H 	H 	0.7861	0.3153	0.046	0.059
Mof_H 	H 	0.7299	0.3152	0.0711	0.061
Mof_C 	C 	0.7465	0.28239	0.0546	-0.026
Mof_H 	H 	0.7369	0.2751	0.0366	0.024
Mof_H 	H 	0.712	0.276	0.0682	0.033
Mof_C 	C 	0.8235	0.2781	0.0635	-0.214
Mof_H 	H 	0.8466	0.2662	0.0517	0.078
Mof_H 	H 	0.8521	0.2926	0.0625	0.082
Mof_C 	C 	0.8182	0.2695	0.0926	0.14
Mof_H 	H 	0.7739	0.2754	0.1016	-0.018
Mof_H 	H 	0.8607	0.2745	0.1035	-0.029
Mof_C 	C 	0.816	0.2431	0.0898	-0.483
Mof_H 	H 	0.808	0.236	0.1078	0.153
Mof_H 	H 	0.8617	0.2375	0.0822	0.155
Mof_H 	H 	0.7762	0.2387	0.0775	0.152
Mof_C 	C 	0.0441	0.3915	0.8508	0.393
Mof_C 	C 	0.1545	0.41331	0.79084	0.028
Mof_C 	C 	0.0775	0.39685	0.82203	-0.088
Mof_C 	C 	0.1272	0.4136	0.8174	-0.043
Mof_H 	H 	0.142	0.4245	0.8309	0.042
Mof_C 	C 	0.1193	0.39835	0.77405	-0.029
Mof_C 	C 	0.1189	0.39297	0.74547	-0.023
Mof_C 	C 	0.1209	0.407	0.72303	0.028
Mof_C 	C 	0.1285	0.39566	0.69729	-0.049
Mof_H 	H 	0.1283	0.403	0.6798	0.059
Mof_C 	C 	0.1362	0.37231	0.70213	-0.07
Mof_C 	C 	0.1522	0.35389	0.68145	0.301
Mof_C 	C 	0.2201	0.4267	0.78	-0.143
Mof_H 	H 	0.2075	0.4435	0.7796	0.056
Mof_H 	H 	0.2288	0.4218	0.7609	0.066
Mof_C 	C 	0.2916	0.424	0.7961	-0.064
Mof_H 	H 	0.2828	0.4223	0.816	0.037
Mof_H 	H 	0.3243	0.4374	0.7929	0.029
Mof_C 	C 	0.3231	0.4011	0.7836	-0.077
Mof_H 	H 	0.3595	0.4044	0.7693	0.033
Mof_H 	H 	0.2846	0.391	0.776	0.05
Mof_C 	C 	0.3582	0.3901	0.8099	-0.143
Mof_H 	H 	0.3551	0.4007	0.8258	0.058
Mof_H 	H 	0.4092	0.3857	0.8067	0.054
Mof_C 	C 	0.309	0.3681	0.8135	0.049
Mof_H 	H 	0.2596	0.3708	0.8059	0.014
Mof_H 	H 	0.3299	0.3541	0.8049	0.002
Mof_C 	C 	0.307	0.3661	0.8455	-0.401
Mof_H 	H 	0.2739	0.3536	0.8509	0.133
Mof_H 	H 	0.2906	0.3809	0.8534	0.132
Mof_H 	H 	0.3557	0.3625	0.8522	0.127
Mof_C 	C 	0.1088	0.4337	0.7233	-0.124
Mof_H 	H 	0.1056	0.4392	0.7425	0.058
Mof_H 	H 	0.1506	0.4415	0.7146	0.059
Mof_C 	C 	0.0397	0.44038	0.7081	-0.098
Mof_H 	H 	0.041	0.4346	0.689	0.063
Mof_H 	H 	0.9967	0.4338	0.7174	0.059
Mof_C 	C 	0.0382	0.46671	0.7087	-0.03
Mof_H 	H 	0.0496	0.4725	0.7273	0.024
Mof_H 	H 	0.0739	0.4732	0.6957	0.031
Mof_C 	C 	0.963	0.4737	0.7006	-0.192
Mof_H 	H 	0.9552	0.4905	0.7044	0.071
Mof_H 	H 	0.9269	0.4646	0.7111	0.073
Mof_C 	C 	0.9558	0.4688	0.6704	0.107
Mof_H 	H 	0.9496	0.4519	0.667	-0.006
Mof_H 	H 	0.9988	0.4744	0.6602	-0.006
Mof_C 	C 	0.8885	0.4823	0.6619	-0.451
Mof_H 	H 	0.8779	0.4793	0.6426	0.139
Mof_H 	H 	0.8969	0.499	0.6646	0.144
Mof_H 	H 	0.8475	0.4774	0.6732	0.138
Mof_C 	C 	0.9477	0.31613	0.8808	0.396
Mof_C 	C 	0.9714	0.29631	0.8926	-0.137
Mof_C 	C 	0.0205	0.2971	0.9127	-0.01
Mof_H 	H 	0.0324	0.3117	0.9207	0.033
Mof_C 	C 	0.0617	0.273	0.9243	-0.003
Mof_C 	C 	0.0255	0.25728	0.9042	-0.018
Mof_C 	C 	0.039	0.23222	0.9042	-0.033
Mof_C 	C 	0.0082	0.2147	0.9154	0.034
Mof_C 	C 	0.0312	0.19201	0.9073	-0.05
Mof_H 	H 	0.0124	0.1778	0.9143	0.051
Mof_C 	C 	0.0839	0.19382	0.88828	-0.075
Mof_C 	C 	0.1263	0.17442	0.8749	0.337
Mof_C 	C 	0.1041	0.273	0.9509	-0.08
Mof_H 	H 	0.109	0.2889	0.9586	0.041
Mof_H 	H 	0.1525	0.2659	0.9486	0.037
Mof_C 	C 	0.0535	0.2575	0.9684	-0.175
Mof_H 	H 	0.0517	0.2413	0.9614	0.079
Mof_H 	H 	0.0039	0.2639	0.9692	0.076
Mof_C 	C 	0.0914	0.2586	0.9971	0.127
Mof_H 	H 	0.11	0.2744	0.0012	-0.062
Mof_H 	H 	0.1311	0.2471	0.9987	-0.019
Mof_C 	C 	0.0257	0.252	0.0159	-0.482
Mof_H 	H 	0.9842	0.2627	0.0131	0.161
Mof_H 	H 	0.0099	0.2357	0.013	0.158
Mof_C 	C 	0.0607	0.2555	0.0448	0.714
Mof_H 	H 	0.1062	0.2466	0.0466	-0.203
Mof_H 	H 	0.0272	0.2511	0.0597	-0.208
Mof_C 	C 	0.9411	0.2155	0.9335	-0.146
Mof_H 	H 	0.905	0.2058	0.9238	0.066
Mof_H 	H 	0.9235	0.2318	0.9319	0.069
Mof_C 	C 	0.932	0.2093	0.9642	-0.067
Mof_H 	H 	0.9622	0.2193	0.976	0.036
Mof_H 	H 	0.9438	0.1927	0.9677	0.041
Mof_C 	C 	0.8502	0.2142	0.9683	-0.075
Mof_H 	H 	0.841	0.231	0.9715	0.041
Mof_H 	H 	0.8213	0.2089	0.9524	0.045
Mof_C 	C 	0.834	0.1995	0.9942	-0.153
Mof_H 	H 	0.8653	0.1856	0.9953	0.065
Mof_H 	H 	0.7826	0.1946	0.9948	0.062
Mof_C 	C 	0.852	0.2174	0.0172	0.066
Mof_H 	H 	0.8659	0.2327	0.0096	-0.005
Mof_H 	H 	0.8899	0.2115	0.0296	-0.006
Mof_C 	C 	0.777	0.2187	0.032	-0.42
Mof_H 	H 	0.7702	0.2343	0.0396	0.133
Mof_H 	H 	0.7756	0.2071	0.0468	0.134
Mof_H 	H 	0.7384	0.2153	0.0188	0.137
Mof_C 	C 	0.6714	0.43595	0.1299	0.351
Mof_C 	C 	0.7154	0.45669	0.143	-0.069
Mof_C 	C 	0.7636	0.45488	0.1617	-0.052
Mof_H 	H 	0.776	0.4408	0.1708	0.051
Mof_C 	C 	0.7955	0.47676	0.1667	0.039
Mof_C 	C 	0.7658	0.49519	0.15161	-0.026
Mof_C 	C 	0.786	0.51933	0.1496	-0.03
Mof_C 	C 	0.7454	0.5392	0.1584	0.043
Mof_C 	C 	0.8401	0.55709	0.13755	-0.128
Mof_C 	C 	0.7763	0.55974	0.1519	-0.03
Mof_H 	H 	0.7563	0.5744	0.1566	0.044
Mof_C 	C 	0.8823	0.57409	0.1253	0.413
Mof_C 	C 	0.847	0.4811	0.1888	-0.145
Mof_H 	H 	0.8642	0.4973	0.186	0.068
Mof_H 	H 	0.8888	0.4709	0.185	0.063
Mof_C 	C 	0.8325	0.4788	0.21947	-0.074
Mof_H 	H 	0.8766	0.4824	0.2302	0.03
Mof_H 	H 	0.8162	0.4629	0.2241	0.039
Mof_C 	C 	0.7729	0.4967	0.22529	-0.052
Mof_H 	H 	0.7869	0.5123	0.2186	0.038
Mof_H 	H 	0.727	0.492	0.2165	0.04
Mof_C 	C 	0.7657	0.4966	0.25652	-0.195
Mof_H 	H 	0.7536	0.4808	0.2633	0.071
Mof_H 	H 	0.8112	0.5017	0.2653	0.067
Mof_C 	C 	0.7049	0.5136	0.2626	0.127
Mof_H 	H 	0.7182	0.5296	0.2568	-0.026
Mof_H 	H 	0.6601	0.509	0.2529	-0.026
Mof_C 	C 	0.6943	0.5125	0.2934	-0.466
Mof_H 	H 	0.6562	0.5234	0.2988	0.145
Mof_H 	H 	0.7396	0.5167	0.3026	0.141
Mof_H 	H 	0.6805	0.4966	0.2987	0.144
Mof_C 	C 	0.677	0.5368	0.1688	-0.142
Mof_H 	H 	0.6664	0.5201	0.1725	0.069
Mof_H 	H 	0.6408	0.5427	0.1556	0.064
Mof_C 	C 	0.6746	0.5509	0.1954	-0.103
Mof_H 	H 	0.6858	0.5675	0.192	0.049
Mof_H 	H 	0.7087	0.5446	0.2092	0.051
Mof_C 	C 	0.5955	0.5476	0.2046	0.006
Mof_H 	H 	0.5674	0.5622	0.2024	0.003
Mof_H 	H 	0.5716	0.535	0.1941	0.016
Mof_C 	C 	0.604	0.541	0.235	-0.248
Mof_H 	H 	0.6028	0.5239	0.2376	0.097
Mof_H 	H 	0.65	0.5472	0.2426	0.093
Mof_C 	C 	0.6801	0.36496	0.19161	0.283
Mof_C 	C 	0.6583	0.38246	0.21125	-0.076
Mof_C 	C 	0.6596	0.40524	0.20525	-0.042
Mof_H 	H 	0.6727	0.4118	0.1881	0.056
Mof_C 	C 	0.6216	0.4039	0.25198	-0.019
Mof_C 	C 	0.6069	0.40952	0.28077	-0.024
Mof_C 	C 	0.5424	0.40791	0.32506	-0.085
Mof_C 	C 	0.4911	0.4051	0.3495	0.368
Mof_C 	C 	0.6196	0.44515	0.22938	-0.116
Mof_H 	H 	0.6063	0.4504	0.248	0.057
Mof_H 	H 	0.664	0.4536	0.224	0.057
Mof_C 	C 	0.5594	0.45165	0.20986	-0.108
Mof_H 	H 	0.5703	0.4457	0.1913	0.064
Mof_H 	H 	0.5133	0.4446	0.216	0.062
Mof_C 	C 	0.4844	0.48344	0.19434	-0.222
Mof_H 	H 	0.4448	0.4731	0.2004	0.083
Mof_H 	H 	0.4703	0.4998	0.1982	0.079
Mof_C 	C 	0.4288	0.4865	0.1498	-0.482
Mof_H 	H 	0.4359	0.4851	0.13	0.148
Mof_H 	H 	0.4155	0.5026	0.1543	0.147
Mof_H 	H 	0.3903	0.4759	0.1557	0.15
Mof_C 	C 	0.7687	0.4302	0.3125	-0.102
Mof_H 	H 	0.7529	0.4308	0.3319	0.047
Mof_H 	H 	0.7839	0.4141	0.3081	0.053
Mof_C 	C 	0.8301	0.4472	0.3076	-0.022
Mof_H 	H 	0.8494	0.4531	0.3251	0.019
Mof_H 	H 	0.8138	0.4605	0.2963	0.018
Mof_C 	C 	0.6366	0.41861	0.23026	0.02
Mof_C 	C 	0.6371	0.42333	0.29775	0.012
Mof_C 	C 	0.5953	0.42365	0.32497	-0.036
Mof_H 	H 	0.6058	0.4338	0.3398	0.039
Mof_C 	C 	0.5531	0.47754	0.20937	-0.012
Mof_H 	H 	0.5952	0.4845	0.1999	0.026
Mof_H 	H 	0.5514	0.4838	0.2283	0.022
Mof_C 	C 	0.498	0.4803	0.1644	0.143
Mof_H 	H 	0.5115	0.4639	0.1605	-0.016
Mof_H 	H 	0.5378	0.4905	0.1583	-0.021
Mof_C 	C 	0.7079	0.4379	0.2937	-0.114
Mof_H 	H 	0.724	0.4364	0.2744	0.056
Mof_H 	H 	0.6972	0.4546	0.2971	0.043
Mof_C 	C 	0.8866	0.4329	0.2925	-0.214
Mof_H 	H 	0.868	0.4276	0.2745	0.082
Mof_H 	H 	0.9008	0.4191	0.3034	0.079
Mof_C 	C 	0.9502	0.4494	0.2889	0.143
Mof_H 	H 	0.953	0.4605	0.3043	-0.027
Mof_H 	H 	0.9961	0.4406	0.2878	-0.031
Mof_C 	C 	0.935	0.4621	0.2622	-0.49
Mof_H 	H 	0.975	0.473	0.2585	0.138
Mof_H 	H 	0.89	0.4707	0.2637	0.162
Mof_H 	H 	0.932	0.4508	0.2473	0.163
Mof_O 	O 	0.9671	0.41075	0.94558	-0.364
Mof_O 	O 	0.9725	0.38237	0.9157	-0.408
Mof_O 	O 	0.7416	0.37259	0.10469	-0.384
Mof_O 	O 	0.809	0.3458	0.12772	-0.404
Mof_O 	O 	0.8186	0.36274	0.90577	-0.384
Mof_O 	O 	0.7686	0.32811	0.88946	-0.389
Mof_O 	O 	0.6001	0.41465	0.05536	-0.341
Mof_O 	O 	0.5943	0.39015	0.09032	-0.404
Mof_O 	O 	0.0685	0.40491	0.86974	-0.405
Mof_O 	O 	0.9966	0.37728	0.85193	-0.398
Mof_O 	O 	0.1569	0.35877	0.65551	-0.395
Mof_O 	O 	0.1692	0.33337	0.68989	-0.346
Mof_O 	O 	0.9544	0.33653	0.88874	-0.39
Mof_O 	O 	0.8995	0.30906	0.86303	-0.375
Mof_O 	O 	0.1783	0.18128	0.85795	-0.375
Mof_O 	O 	0.1055	0.15393	0.87901	-0.364
Mof_O 	O 	0.6849	0.41599	0.13644	-0.378
Mof_O 	O 	0.6226	0.44223	0.11152	-0.366
Mof_O 	O 	0.9415	0.56729	0.1143	-0.379
Mof_O 	O 	0.868	0.59475	0.12783	-0.389
Mof_O 	O 	0.6926	0.34335	0.199	-0.33
Mof_O 	O 	0.7012	0.3704	0.1662	-0.394
Mof_O 	O 	0.4489	0.38906	0.34832	-0.383
Mof_O 	O 	0.5137	0.41761	0.37035	-0.394
Mof_S 	S 	0.92339	0.38344	0.99415	0.02
Mof_S 	S 	0.82249	0.36654	0.05074	0.033
Mof_S 	S 	0.7468	0.35973	0.96111	0.026
Mof_S 	S 	0.64692	0.38142	0.01308	0.024
Mof_S 	S 	0.05412	0.38314	0.79364	0.034
Mof_S 	S 	0.13425	0.3646	0.73552	0.02
Mof_S 	S 	0.9691	0.26891	0.88137	0.033
Mof_S 	S 	0.10425	0.22233	0.88048	0.012
Mof_S 	S 	0.69772	0.48371	0.13075	0.01
Mof_S 	S 	0.86027	0.52713	0.13284	0.025
Mof_S 	S 	0.6363	0.37452	0.24318	0.021
Mof_S 	S 	0.53301	0.39387	0.2953	0.033
Mof_Mn	Mn	0.02892	0.41672	0.9067	0.774
Mof_Mn	Mn	0.90966	0.37034	0.87962	1.021
Mof_Mn	Mn	0.79831	0.32154	0.85096	0.795
Mof_Mn	Mn	0.5361	0.42528	0.09299	0.779
Mof_Mn	Mn	0.64743	0.38069	0.12859	1.018
Mof_Mn	Mn	0.75874	0.3351	0.16237	0.806
Mof_H 	H 	0.0225	0.3314	0.0313	0.04
Mof_H 	H 	0.9843	0.309	0.0449	-0.178
Mof_C 	C 	0.0482	0.3277	0.0734	-0.266
Mof_H 	H 	0.0275	0.3197	0.0896	0.069
Mof_H 	H 	0.0577	0.3442	0.078	0.118
Mof_C 	C 	0.1178	0.3153	0.0631	0.83
Mof_H 	H 	0.1137	0.2981	0.0646	-0.76
Mof_H 	H 	0.129	0.3195	0.0439	-0.058
Mof_C 	C 	0.1751	0.3252	0.0832	-0.658
Mof_H 	H 	0.1537	0.3286	0.1013	0.2
Mof_H 	H 	0.1979	0.3395	0.0758	0.206
Mof_C 	C 	0.2298	0.3047	0.0847	0.357
Mof_H 	H 	0.2727	0.3076	0.0731	-0.092
Mof_H 	H 	0.2073	0.2897	0.0793	-0.095
Mof_C 	C 	0.249	0.3051	0.1158	-0.628
Mof_H 	H 	0.2897	0.2945	0.1192	0.195
Mof_H 	H 	0.2074	0.3001	0.1265	0.192
Mof_H 	H 	0.2631	0.321	0.1211	0.197
Mof_H 	H 	0.5475	0.5559	0.2681	-0.035
Mof_H 	H 	0.4947	0.5431	0.2466	-0.054
Mof_H 	H 	0.4951	0.5858	0.2414	0.149
Mof_H 	H 	0.5148	0.5724	0.2137	0.172
Mof_H 	H 	0.5775	0.5838	0.2318	0.166
Mof_C 	C 	0.539	0.5528	0.2485	0.205
Mof_C 	C 	0.531	0.5758	0.2324	-0.518
Mof_C 	C 	0.575	0.7824	0.0441	-1.719
Mof_H 	H 	0.6002	0.7871	0.0608	0.992
Mof_H 	H 	0.5284	0.7907	0.0431	0.545
Mof_H 	H 	0.604	0.7863	0.0281	0.557
Mof_C 	C 	0.643	0.8412	0.0177	-0.089
Mof_H 	H 	0.6037	0.8527	0.0167	0.047
Mof_H 	H 	0.6878	0.8489	0.0244	0.039
Mof_C 	C 	0.656	0.8288	0.9895	0.035
Mof_H 	H 	0.624	0.8151	0.9873	0.002
Mof_H 	H 	0.7068	0.8241	0.9871	0
Mof_C 	C 	0.634	0.8491	0.9696	-0.399
Mof_H 	H 	0.6779	0.8557	0.9612	0.125
Mof_H 	H 	0.6092	0.8614	0.9799	0.133
Mof_H 	H 	0.6023	0.8431	0.9553	0.138
Mof_C 	C 	0.1607	0.85279	0.00658	-0.018
Mof_C 	C 	0.1565	0.83945	0.03031	0.019
Mof_C 	C 	0.1418	0.85317	0.0524	-0.029
Mof_H 	H 	0.1382	0.847	0.0704	0.053
Mof_C 	C 	0.1329	0.87552	0.04728	-0.089
Mof_C 	C 	0.4623	0.89058	0.94027	0.329
Mof_C 	C 	0.4359	0.87295	0.96221	-0.069
Mof_C 	C 	0.4322	0.84989	0.95991	-0.053
Mof_H 	H 	0.44	0.8416	0.9433	0.057
Mof_C 	C 	0.4145	0.83862	0.9863	0.04
Mof_C 	C 	0.4106	0.85551	0.00597	-0.038
Mof_C 	C 	0.3954	0.85229	0.03563	0.013
Mof_C 	C 	0.4317	0.8403	0.055	-0.079
Mof_C 	C 	0.3933	0.84008	0.08023	0.025
Mof_H 	H 	0.4077	0.8305	0.0951	0.015
Mof_C 	C 	0.3378	0.85367	0.08189	-0.12
Mof_C 	C 	0.2899	0.85798	0.10623	0.381
Mof_C 	C 	0.4058	0.81316	0.9884	-0.129
Mof_H 	H 	0.3944	0.8089	0.0076	0.061
Mof_H 	H 	0.4517	0.8054	0.9834	0.058
Mof_C 	C 	0.3458	0.8045	0.9697	-0.104
Mof_H 	H 	0.2986	0.8112	0.9752	0.061
Mof_H 	H 	0.3556	0.8088	0.9504	0.064
Mof_C 	C 	0.3462	0.77822	0.9734	-0.014
Mof_H 	H 	0.3919	0.7714	0.9665	0.022
Mof_H 	H 	0.3405	0.774	0.9929	0.019
Mof_C 	C 	0.2826	0.76955	0.95677	-0.227
Mof_H 	H 	0.2712	0.7532	0.9615	0.086
Mof_H 	H 	0.2393	0.7793	0.9602	0.091
Mof_C 	C 	0.3055	0.7714	0.9274	0.152
Mof_H 	H 	0.3448	0.7602	0.9234	-0.024
Mof_H 	H 	0.323	0.7874	0.9233	-0.014
Mof_C 	C 	0.2394	0.7659	0.9105	-0.49
Mof_H 	H 	0.2511	0.7673	0.891	0.148
Mof_H 	H 	0.2007	0.7768	0.9151	0.161
Mof_H 	H 	0.2235	0.7499	0.9145	0.158
Mof_C 	C 	0.4982	0.8254	0.048	0.146
Mof_H 	H 	0.5005	0.8243	0.0278	-0.034
Mof_H 	H 	0.4885	0.8095	0.0549	0.086
Mof_C 	C 	0.575	0.8324	0.0581	-0.397
Mof_H 	H 	0.5848	0.8263	0.0767	0.072
Mof_H 	H 	0.5822	0.8495	0.0578	0.125
Mof_C 	C 	0.6224	0.8198	0.036	-0.147
Mof_H 	H 	0.6655	0.8123	0.0442	-0.01
Mof_H 	H 	0.5944	0.8081	0.0256	0.033
Mof_C 	C 	0.2829	0.8459	0.9078	0.346
Mof_C 	C 	0.2268	0.84288	0.93351	-0.059
Mof_C 	C 	0.1774	0.8273	0.93669	-0.061
Mof_H 	H 	0.1652	0.816	0.9233	0.043
Mof_C 	C 	0.143	0.8293	0.96285	0.043
Mof_C 	C 	0.1781	0.8461	0.97852	-0.033
Mof_C 	C 	0.1091	0.89437	0.06448	0.319
Mof_C 	C 	0.0825	0.8144	0.9711	-0.163
Mof_H 	H 	0.0727	0.8167	0.9909	0.069
Mof_H 	H 	0.0959	0.7979	0.9683	0.064
Mof_C 	C 	0.0143	0.8197	0.9549	-0.047
Mof_H 	H 	0.9762	0.808	0.9588	0.031
Mof_H 	H 	0.0243	0.8197	0.935	0.019
Mof_C 	C 	0.9916	0.8438	0.9646	-0.061
Mof_H 	H 	0.9711	0.8431	0.9833	0.038
Mof_H 	H 	0.0333	0.8546	0.9646	0.047
Mof_C 	C 	0.9347	0.8516	0.944	-0.176
Mof_H 	H 	0.9022	0.8635	0.9522	0.064
Mof_H 	H 	0.9576	0.8583	0.9274	0.068
Mof_C 	C 	0.8935	0.8295	0.9371	0.114
Mof_H 	H 	0.8427	0.833	0.9323	-0.024
Mof_H 	H 	0.8941	0.8184	0.9527	-0.014
Mof_C 	C 	0.934	0.8194	0.9126	-0.463
Mof_H 	H 	0.903	0.8081	0.9032	0.142
Mof_H 	H 	0.978	0.8117	0.9189	0.152
Mof_H 	H 	0.9464	0.832	0.8999	0.146
Mof_C 	C 	0.1789	0.81325	0.03305	-0.12
Mof_H 	H 	0.1362	0.8042	0.0391	0.059
Mof_H 	H 	0.1929	0.8074	0.0147	0.059
Mof_C 	C 	0.2405	0.80848	0.05286	-0.099
Mof_H 	H 	0.2861	0.8153	0.046	0.059
Mof_H 	H 	0.2299	0.8152	0.0711	0.061
Mof_C 	C 	0.2465	0.78239	0.0546	-0.026
Mof_H 	H 	0.2369	0.7751	0.0366	0.024
Mof_H 	H 	0.212	0.776	0.0682	0.033
Mof_C 	C 	0.3235	0.7781	0.0635	-0.214
Mof_H 	H 	0.3466	0.7662	0.0517	0.078
Mof_H 	H 	0.3521	0.7926	0.0625	0.082
Mof_C 	C 	0.3182	0.7695	0.0926	0.139
Mof_H 	H 	0.2739	0.7754	0.1016	-0.017
Mof_H 	H 	0.3607	0.7745	0.1035	-0.029
Mof_C 	C 	0.316	0.7431	0.0898	-0.483
Mof_H 	H 	0.308	0.736	0.1078	0.152
Mof_H 	H 	0.3617	0.7375	0.0822	0.155
Mof_H 	H 	0.2762	0.7387	0.0775	0.152
Mof_C 	C 	0.5441	0.8915	0.8508	0.394
Mof_C 	C 	0.6545	0.91331	0.79084	0.028
Mof_C 	C 	0.5775	0.89685	0.82203	-0.089
Mof_C 	C 	0.6272	0.9136	0.8174	-0.043
Mof_H 	H 	0.642	0.9245	0.8309	0.042
Mof_C 	C 	0.6193	0.89835	0.77405	-0.029
Mof_C 	C 	0.6189	0.89297	0.74547	-0.023
Mof_C 	C 	0.6209	0.907	0.72303	0.028
Mof_C 	C 	0.6285	0.89566	0.69729	-0.049
Mof_H 	H 	0.6283	0.903	0.6798	0.059
Mof_C 	C 	0.6362	0.87231	0.70213	-0.07
Mof_C 	C 	0.6522	0.85389	0.68145	0.301
Mof_C 	C 	0.7201	0.9267	0.78	-0.143
Mof_H 	H 	0.7075	0.9435	0.7796	0.056
Mof_H 	H 	0.7288	0.9218	0.7609	0.066
Mof_C 	C 	0.7916	0.924	0.7961	-0.064
Mof_H 	H 	0.7828	0.9223	0.816	0.037
Mof_H 	H 	0.8243	0.9374	0.7929	0.029
Mof_C 	C 	0.8231	0.9011	0.7836	-0.077
Mof_H 	H 	0.8595	0.9044	0.7693	0.033
Mof_H 	H 	0.7846	0.891	0.776	0.05
Mof_C 	C 	0.8582	0.8901	0.8099	-0.143
Mof_H 	H 	0.8551	0.9007	0.8258	0.058
Mof_H 	H 	0.9092	0.8857	0.8067	0.054
Mof_C 	C 	0.809	0.8681	0.8135	0.049
Mof_H 	H 	0.7596	0.8708	0.8059	0.014
Mof_H 	H 	0.8299	0.8541	0.8049	0.002
Mof_C 	C 	0.807	0.8661	0.8455	-0.401
Mof_H 	H 	0.7739	0.8536	0.8509	0.133
Mof_H 	H 	0.7906	0.8809	0.8534	0.132
Mof_H 	H 	0.8557	0.8625	0.8522	0.127
Mof_C 	C 	0.6088	0.9337	0.7233	-0.124
Mof_H 	H 	0.6056	0.9392	0.7425	0.058
Mof_H 	H 	0.6506	0.9415	0.7146	0.059
Mof_C 	C 	0.5397	0.94038	0.7081	-0.098
Mof_H 	H 	0.541	0.9346	0.689	0.063
Mof_H 	H 	0.4967	0.9338	0.7174	0.06
Mof_C 	C 	0.5382	0.96671	0.7087	-0.031
Mof_H 	H 	0.5496	0.9725	0.7273	0.025
Mof_H 	H 	0.5739	0.9732	0.6957	0.032
Mof_C 	C 	0.463	0.9737	0.7006	-0.191
Mof_H 	H 	0.4552	0.9905	0.7044	0.07
Mof_H 	H 	0.4269	0.9646	0.7111	0.073
Mof_C 	C 	0.4558	0.9688	0.6704	0.106
Mof_H 	H 	0.4496	0.9519	0.667	-0.006
Mof_H 	H 	0.4988	0.9744	0.6602	-0.005
Mof_C 	C 	0.3885	0.9823	0.6619	-0.451
Mof_H 	H 	0.3779	0.9793	0.6426	0.139
Mof_H 	H 	0.3969	0.999	0.6646	0.144
Mof_H 	H 	0.3475	0.9774	0.6732	0.138
Mof_C 	C 	0.4477	0.81613	0.8808	0.396
Mof_C 	C 	0.4714	0.79631	0.8926	-0.138
Mof_C 	C 	0.5205	0.7971	0.9127	-0.008
Mof_H 	H 	0.5324	0.8117	0.9207	0.033
Mof_C 	C 	0.5617	0.773	0.9243	-0.003
Mof_C 	C 	0.5255	0.75728	0.9042	-0.017
Mof_C 	C 	0.539	0.73222	0.9042	-0.033
Mof_C 	C 	0.5082	0.7147	0.9154	0.036
Mof_C 	C 	0.5312	0.69201	0.9073	-0.05
Mof_H 	H 	0.5124	0.6778	0.9143	0.051
Mof_C 	C 	0.5839	0.69382	0.88828	-0.075
Mof_C 	C 	0.6263	0.67442	0.8749	0.337
Mof_C 	C 	0.6041	0.773	0.9509	-0.08
Mof_H 	H 	0.609	0.7889	0.9586	0.041
Mof_H 	H 	0.6525	0.7659	0.9486	0.037
Mof_C 	C 	0.5535	0.7575	0.9684	-0.175
Mof_H 	H 	0.5517	0.7413	0.9614	0.079
Mof_H 	H 	0.5039	0.7639	0.9692	0.076
Mof_C 	C 	0.5914	0.7586	0.9971	0.125
Mof_H 	H 	0.61	0.7744	0.0012	-0.061
Mof_H 	H 	0.6311	0.7471	0.9987	-0.019
Mof_C 	C 	0.5257	0.752	0.0159	-0.477
Mof_H 	H 	0.4842	0.7627	0.0131	0.159
Mof_H 	H 	0.5099	0.7357	0.013	0.157
Mof_C 	C 	0.5607	0.7555	0.0448	0.709
Mof_H 	H 	0.6062	0.7466	0.0466	-0.201
Mof_H 	H 	0.5272	0.7511	0.0597	-0.206
Mof_C 	C 	0.4411	0.7155	0.9335	-0.149
Mof_H 	H 	0.405	0.7058	0.9238	0.066
Mof_H 	H 	0.4235	0.7318	0.9319	0.069
Mof_C 	C 	0.432	0.7093	0.9642	-0.066
Mof_H 	H 	0.4622	0.7193	0.976	0.035
Mof_H 	H 	0.4438	0.6927	0.9677	0.04
Mof_C 	C 	0.3502	0.7142	0.9683	-0.075
Mof_H 	H 	0.341	0.731	0.9715	0.041
Mof_H 	H 	0.3213	0.7089	0.9524	0.045
Mof_C 	C 	0.334	0.6995	0.9942	-0.152
Mof_H 	H 	0.3653	0.6856	0.9953	0.065
Mof_H 	H 	0.2826	0.6946	0.9948	0.062
Mof_C 	C 	0.352	0.7174	0.0172	0.066
Mof_H 	H 	0.3659	0.7327	0.0096	-0.005
Mof_H 	H 	0.3899	0.7115	0.0296	-0.006
Mof_C 	C 	0.277	0.7187	0.032	-0.419
Mof_H 	H 	0.2702	0.7343	0.0396	0.133
Mof_H 	H 	0.2756	0.7071	0.0468	0.134
Mof_H 	H 	0.2384	0.7153	0.0188	0.137
Mof_C 	C 	0.1714	0.93595	0.1299	0.351
Mof_C 	C 	0.2154	0.95669	0.143	-0.069
Mof_C 	C 	0.2636	0.95488	0.1617	-0.052
Mof_H 	H 	0.276	0.9408	0.1708	0.051
Mof_C 	C 	0.2955	0.97676	0.1667	0.038
Mof_C 	C 	0.2658	0.99519	0.15161	-0.026
Mof_C 	C 	0.286	0.01933	0.1496	-0.03
Mof_C 	C 	0.2454	0.0392	0.1584	0.043
Mof_C 	C 	0.3401	0.05709	0.13755	-0.128
Mof_C 	C 	0.2763	0.05974	0.1519	-0.03
Mof_H 	H 	0.2563	0.0744	0.1566	0.044
Mof_C 	C 	0.3823	0.07409	0.1253	0.413
Mof_C 	C 	0.347	0.9811	0.1888	-0.145
Mof_H 	H 	0.3642	0.9973	0.186	0.068
Mof_H 	H 	0.3888	0.9709	0.185	0.063
Mof_C 	C 	0.3325	0.9788	0.21947	-0.074
Mof_H 	H 	0.3766	0.9824	0.2302	0.03
Mof_H 	H 	0.3162	0.9629	0.2241	0.039
Mof_C 	C 	0.2729	0.9967	0.22529	-0.052
Mof_H 	H 	0.2869	0.0123	0.2186	0.038
Mof_H 	H 	0.227	0.992	0.2165	0.04
Mof_C 	C 	0.2657	0.9966	0.25652	-0.195
Mof_H 	H 	0.2536	0.9808	0.2633	0.071
Mof_H 	H 	0.3112	0.0017	0.2653	0.067
Mof_C 	C 	0.2049	0.0136	0.2626	0.127
Mof_H 	H 	0.2182	0.0296	0.2568	-0.026
Mof_H 	H 	0.1601	0.009	0.2529	-0.026
Mof_C 	C 	0.1943	0.0125	0.2934	-0.466
Mof_H 	H 	0.1562	0.0234	0.2988	0.145
Mof_H 	H 	0.2396	0.0167	0.3026	0.141
Mof_H 	H 	0.1805	0.9966	0.2987	0.144
Mof_C 	C 	0.177	0.0368	0.1688	-0.142
Mof_H 	H 	0.1664	0.0201	0.1725	0.069
Mof_H 	H 	0.1408	0.0427	0.1556	0.064
Mof_C 	C 	0.1746	0.0509	0.1954	-0.103
Mof_H 	H 	0.1858	0.0675	0.192	0.049
Mof_H 	H 	0.2087	0.0446	0.2092	0.051
Mof_C 	C 	0.0955	0.0476	0.2046	0.006
Mof_H 	H 	0.0674	0.0622	0.2024	0.003
Mof_H 	H 	0.0716	0.035	0.1941	0.016
Mof_C 	C 	0.104	0.041	0.235	-0.248
Mof_H 	H 	0.1028	0.0239	0.2376	0.097
Mof_H 	H 	0.15	0.0472	0.2426	0.093
Mof_C 	C 	0.1801	0.86496	0.19161	0.283
Mof_C 	C 	0.1583	0.88246	0.21125	-0.076
Mof_C 	C 	0.1596	0.90524	0.20525	-0.042
Mof_H 	H 	0.1727	0.9118	0.1881	0.056
Mof_C 	C 	0.1216	0.9039	0.25198	-0.019
Mof_C 	C 	0.1069	0.90952	0.28077	-0.024
Mof_C 	C 	0.0424	0.90791	0.32506	-0.084
Mof_C 	C 	0.9911	0.9051	0.3495	0.367
Mof_C 	C 	0.1196	0.94515	0.22938	-0.116
Mof_H 	H 	0.1063	0.9504	0.248	0.057
Mof_H 	H 	0.164	0.9536	0.224	0.057
Mof_C 	C 	0.0594	0.95165	0.20986	-0.109
Mof_H 	H 	0.0703	0.9457	0.1913	0.064
Mof_H 	H 	0.0133	0.9446	0.216	0.062
Mof_C 	C 	0.9844	0.98344	0.19434	-0.224
Mof_H 	H 	0.9448	0.9731	0.2004	0.084
Mof_H 	H 	0.9703	0.9998	0.1982	0.08
Mof_C 	C 	0.9288	0.9865	0.1498	-0.486
Mof_H 	H 	0.9359	0.9851	0.13	0.149
Mof_H 	H 	0.9155	0.0026	0.1543	0.149
Mof_H 	H 	0.8903	0.9759	0.1557	0.151
Mof_C 	C 	0.2687	0.9302	0.3125	-0.102
Mof_H 	H 	0.2529	0.9308	0.3319	0.047
Mof_H 	H 	0.2839	0.9141	0.3081	0.053
Mof_C 	C 	0.3301	0.9472	0.3076	-0.022
Mof_H 	H 	0.3494	0.9531	0.3251	0.019
Mof_H 	H 	0.3138	0.9605	0.2963	0.018
Mof_C 	C 	0.1366	0.91861	0.23026	0.02
Mof_C 	C 	0.1371	0.92333	0.29775	0.012
Mof_C 	C 	0.0953	0.92365	0.32497	-0.036
Mof_H 	H 	0.1058	0.9338	0.3398	0.039
Mof_C 	C 	0.0531	0.97754	0.20937	-0.011
Mof_H 	H 	0.0952	0.9845	0.1999	0.026
Mof_H 	H 	0.0514	0.9838	0.2283	0.021
Mof_C 	C 	0.998	0.9803	0.1644	0.148
Mof_H 	H 	0.0115	0.9639	0.1605	-0.018
Mof_H 	H 	0.0378	0.9905	0.1583	-0.023
Mof_C 	C 	0.2079	0.9379	0.2937	-0.114
Mof_H 	H 	0.224	0.9364	0.2744	0.056
Mof_H 	H 	0.1972	0.9546	0.2971	0.043
Mof_C 	C 	0.3866	0.9329	0.2925	-0.214
Mof_H 	H 	0.368	0.9276	0.2745	0.082
Mof_H 	H 	0.4008	0.9191	0.3034	0.079
Mof_C 	C 	0.4502	0.9494	0.2889	0.143
Mof_H 	H 	0.453	0.9605	0.3043	-0.027
Mof_H 	H 	0.4961	0.9406	0.2878	-0.031
Mof_C 	C 	0.435	0.9621	0.2622	-0.49
Mof_H 	H 	0.475	0.973	0.2585	0.138
Mof_H 	H 	0.39	0.9707	0.2637	0.162
Mof_H 	H 	0.432	0.9508	0.2473	0.163
Mof_O 	O 	0.4671	0.91075	0.94558	-0.365
Mof_O 	O 	0.4725	0.88237	0.9157	-0.408
Mof_O 	O 	0.2416	0.87259	0.10469	-0.384
Mof_O 	O 	0.309	0.8458	0.12772	-0.404
Mof_O 	O 	0.3186	0.86274	0.90577	-0.384
Mof_O 	O 	0.2686	0.82811	0.88946	-0.389
Mof_O 	O 	0.1001	0.91465	0.05536	-0.341
Mof_O 	O 	0.0943	0.89015	0.09032	-0.404
Mof_O 	O 	0.5685	0.90491	0.86974	-0.405
Mof_O 	O 	0.4966	0.87728	0.85193	-0.399
Mof_O 	O 	0.6569	0.85877	0.65551	-0.395
Mof_O 	O 	0.6692	0.83337	0.68989	-0.346
Mof_O 	O 	0.4544	0.83653	0.88874	-0.39
Mof_O 	O 	0.3995	0.80906	0.86303	-0.375
Mof_O 	O 	0.6783	0.68128	0.85795	-0.375
Mof_O 	O 	0.6055	0.65393	0.87901	-0.364
Mof_O 	O 	0.1849	0.91599	0.13644	-0.378
Mof_O 	O 	0.1226	0.94223	0.11152	-0.366
Mof_O 	O 	0.4415	0.06729	0.1143	-0.38
Mof_O 	O 	0.368	0.09475	0.12783	-0.39
Mof_O 	O 	0.1926	0.84335	0.199	-0.33
Mof_O 	O 	0.2012	0.8704	0.1662	-0.394
Mof_O 	O 	0.9489	0.88906	0.34832	-0.383
Mof_O 	O 	0.0137	0.91761	0.37035	-0.392
Mof_S 	S 	0.42339	0.88344	0.99415	0.02
Mof_S 	S 	0.32249	0.86654	0.05074	0.033
Mof_S 	S 	0.2468	0.85973	0.96111	0.026
Mof_S 	S 	0.14692	0.88142	0.01308	0.024
Mof_S 	S 	0.55412	0.88314	0.79364	0.034
Mof_S 	S 	0.63425	0.8646	0.73552	0.02
Mof_S 	S 	0.4691	0.76891	0.88137	0.032
Mof_S 	S 	0.60425	0.72233	0.88048	0.012
Mof_S 	S 	0.19772	0.98371	0.13075	0.01
Mof_S 	S 	0.36027	0.02713	0.13284	0.025
Mof_S 	S 	0.1363	0.87452	0.24318	0.021
Mof_S 	S 	0.03301	0.89387	0.2953	0.033
Mof_Mn	Mn	0.52892	0.91672	0.9067	0.776
Mof_Mn	Mn	0.40966	0.87034	0.87962	1.021
Mof_Mn	Mn	0.29831	0.82154	0.85096	0.795
Mof_Mn	Mn	0.0361	0.92528	0.09299	0.778
Mof_Mn	Mn	0.14743	0.88069	0.12859	1.018
Mof_Mn	Mn	0.25874	0.8351	0.16237	0.806
Mof_H 	H 	0.5225	0.8314	0.0313	0.04
Mof_H 	H 	0.4843	0.809	0.0449	-0.177
Mof_C 	C 	0.5482	0.8277	0.0734	-0.265
Mof_H 	H 	0.5275	0.8197	0.0896	0.069
Mof_H 	H 	0.5577	0.8442	0.078	0.117
Mof_C 	C 	0.6178	0.8153	0.0631	0.824
Mof_H 	H 	0.6137	0.7981	0.0646	-0.755
Mof_H 	H 	0.629	0.8195	0.0439	-0.058
Mof_C 	C 	0.6751	0.8252	0.0832	-0.655
Mof_H 	H 	0.6537	0.8286	0.1013	0.2
Mof_H 	H 	0.6979	0.8395	0.0758	0.205
Mof_C 	C 	0.7298	0.8047	0.0847	0.356
Mof_H 	H 	0.7727	0.8076	0.0731	-0.091
Mof_H 	H 	0.7073	0.7897	0.0793	-0.094
Mof_C 	C 	0.749	0.8051	0.1158	-0.627
Mof_H 	H 	0.7897	0.7945	0.1192	0.195
Mof_H 	H 	0.7074	0.8001	0.1265	0.192
Mof_H 	H 	0.7631	0.821	0.1211	0.196
Mof_H 	H 	0.0475	0.0559	0.2681	-0.035
Mof_H 	H 	0.9947	0.0431	0.2466	-0.054
Mof_H 	H 	0.9951	0.0858	0.2414	0.149
Mof_H 	H 	0.0148	0.0724	0.2137	0.171
Mof_H 	H 	0.0775	0.0838	0.2318	0.166
Mof_C 	C 	0.039	0.0528	0.2485	0.205
Mof_C 	C 	0.031	0.0758	0.2324	-0.518
Mof_C 	C 	0.925	0.7176	0.5441	-1.727
Mof_H 	H 	0.8998	0.7129	0.5608	0.997
Mof_H 	H 	0.9716	0.7093	0.5431	0.547
Mof_H 	H 	0.896	0.7137	0.5281	0.56
Mof_C 	C 	0.857	0.6588	0.5177	-0.087
Mof_H 	H 	0.8963	0.6473	0.5167	0.046
Mof_H 	H 	0.8122	0.6511	0.5244	0.038
Mof_C 	C 	0.844	0.6712	0.4895	0.034
Mof_H 	H 	0.876	0.6849	0.4873	0.002
Mof_H 	H 	0.7932	0.6759	0.4871	0.001
Mof_C 	C 	0.866	0.6509	0.4696	-0.398
Mof_H 	H 	0.8221	0.6443	0.4612	0.125
Mof_H 	H 	0.8908	0.6386	0.4799	0.133
Mof_H 	H 	0.8977	0.6569	0.4553	0.138
Mof_C 	C 	0.3393	0.64721	0.50658	-0.018
Mof_C 	C 	0.3435	0.66055	0.53031	0.019
Mof_C 	C 	0.3582	0.64683	0.5524	-0.029
Mof_H 	H 	0.3618	0.653	0.5704	0.053
Mof_C 	C 	0.3671	0.62448	0.54728	-0.089
Mof_C 	C 	0.0377	0.60942	0.44027	0.329
Mof_C 	C 	0.0641	0.62705	0.46221	-0.069
Mof_C 	C 	0.0678	0.65011	0.45991	-0.053
Mof_H 	H 	0.06	0.6584	0.4433	0.057
Mof_C 	C 	0.0855	0.66138	0.4863	0.041
Mof_C 	C 	0.0894	0.64449	0.50597	-0.038
Mof_C 	C 	0.1046	0.64771	0.53563	0.014
Mof_C 	C 	0.0683	0.6597	0.555	-0.081
Mof_C 	C 	0.1067	0.65992	0.58023	0.026
Mof_H 	H 	0.0923	0.6695	0.5951	0.015
Mof_C 	C 	0.1622	0.64633	0.58189	-0.12
Mof_C 	C 	0.2101	0.64202	0.60623	0.381
Mof_C 	C 	0.0942	0.68684	0.4884	-0.13
Mof_H 	H 	0.1056	0.6911	0.5076	0.061
Mof_H 	H 	0.0483	0.6946	0.4834	0.059
Mof_C 	C 	0.1542	0.6955	0.4697	-0.103
Mof_H 	H 	0.2014	0.6888	0.4752	0.061
Mof_H 	H 	0.1444	0.6912	0.4504	0.064
Mof_C 	C 	0.1538	0.72178	0.4734	-0.014
Mof_H 	H 	0.1081	0.7286	0.4665	0.022
Mof_H 	H 	0.1595	0.726	0.4929	0.02
Mof_C 	C 	0.2174	0.73045	0.45677	-0.226
Mof_H 	H 	0.2288	0.7468	0.4615	0.086
Mof_H 	H 	0.2607	0.7207	0.4602	0.091
Mof_C 	C 	0.1945	0.7286	0.4274	0.151
Mof_H 	H 	0.1552	0.7398	0.4234	-0.024
Mof_H 	H 	0.177	0.7126	0.4233	-0.014
Mof_C 	C 	0.2606	0.7341	0.4105	-0.49
Mof_H 	H 	0.2489	0.7327	0.391	0.148
Mof_H 	H 	0.2993	0.7232	0.4151	0.161
Mof_H 	H 	0.2765	0.7501	0.4145	0.158
Mof_C 	C 	0.0018	0.6746	0.548	0.153
Mof_H 	H 	0.9995	0.6757	0.5278	-0.037
Mof_H 	H 	0.0115	0.6905	0.5549	0.085
Mof_C 	C 	0.925	0.6676	0.5581	-0.402
Mof_H 	H 	0.9152	0.6737	0.5767	0.072
Mof_H 	H 	0.9178	0.6505	0.5578	0.126
Mof_C 	C 	0.8776	0.6802	0.536	-0.149
Mof_H 	H 	0.8345	0.6877	0.5442	-0.01
Mof_H 	H 	0.9056	0.6919	0.5256	0.033
Mof_C 	C 	0.2171	0.6541	0.4078	0.346
Mof_C 	C 	0.2732	0.65712	0.43351	-0.059
Mof_C 	C 	0.3226	0.6727	0.43669	-0.061
Mof_H 	H 	0.3348	0.684	0.4233	0.043
Mof_C 	C 	0.357	0.6707	0.46285	0.044
Mof_C 	C 	0.3219	0.6539	0.47852	-0.034
Mof_C 	C 	0.3909	0.60563	0.56448	0.319
Mof_C 	C 	0.4175	0.6856	0.4711	-0.167
Mof_H 	H 	0.4273	0.6833	0.4909	0.071
Mof_H 	H 	0.4041	0.7021	0.4683	0.065
Mof_C 	C 	0.4857	0.6803	0.4549	-0.04
Mof_H 	H 	0.5238	0.692	0.4588	0.029
Mof_H 	H 	0.4757	0.6803	0.435	0.017
Mof_C 	C 	0.5084	0.6562	0.4646	-0.069
Mof_H 	H 	0.5289	0.6569	0.4833	0.04
Mof_H 	H 	0.4667	0.6454	0.4646	0.05
Mof_C 	C 	0.5653	0.6484	0.444	-0.171
Mof_H 	H 	0.5978	0.6365	0.4522	0.062
Mof_H 	H 	0.5424	0.6417	0.4274	0.067
Mof_C 	C 	0.6065	0.6705	0.4371	0.11
Mof_H 	H 	0.6573	0.667	0.4323	-0.023
Mof_H 	H 	0.6059	0.6816	0.4527	-0.013
Mof_C 	C 	0.566	0.6806	0.4126	-0.46
Mof_H 	H 	0.597	0.6919	0.4032	0.141
Mof_H 	H 	0.522	0.6883	0.4189	0.151
Mof_H 	H 	0.5536	0.668	0.3999	0.145
Mof_C 	C 	0.3211	0.68675	0.53305	-0.12
Mof_H 	H 	0.3638	0.6958	0.5391	0.059
Mof_H 	H 	0.3071	0.6926	0.5147	0.059
Mof_C 	C 	0.2595	0.69152	0.55286	-0.099
Mof_H 	H 	0.2139	0.6847	0.546	0.059
Mof_H 	H 	0.2701	0.6848	0.5711	0.061
Mof_C 	C 	0.2535	0.71761	0.5546	-0.026
Mof_H 	H 	0.2631	0.7249	0.5366	0.024
Mof_H 	H 	0.288	0.724	0.5682	0.033
Mof_C 	C 	0.1765	0.7219	0.5635	-0.214
Mof_H 	H 	0.1534	0.7338	0.5517	0.078
Mof_H 	H 	0.1479	0.7074	0.5625	0.082
Mof_C 	C 	0.1818	0.7305	0.5926	0.14
Mof_H 	H 	0.2261	0.7246	0.6016	-0.018
Mof_H 	H 	0.1393	0.7255	0.6035	-0.029
Mof_C 	C 	0.184	0.7569	0.5898	-0.483
Mof_H 	H 	0.192	0.764	0.6078	0.153
Mof_H 	H 	0.1383	0.7625	0.5822	0.155
Mof_H 	H 	0.2238	0.7613	0.5775	0.152
Mof_C 	C 	0.9559	0.6085	0.3508	0.393
Mof_C 	C 	0.8455	0.58669	0.29084	0.028
Mof_C 	C 	0.9225	0.60315	0.32203	-0.088
Mof_C 	C 	0.8728	0.5864	0.3174	-0.043
Mof_H 	H 	0.858	0.5755	0.3309	0.042
Mof_C 	C 	0.8807	0.60165	0.27405	-0.029
Mof_C 	C 	0.8811	0.60703	0.24547	-0.023
Mof_C 	C 	0.8791	0.593	0.22303	0.028
Mof_C 	C 	0.8715	0.60434	0.19729	-0.049
Mof_H 	H 	0.8717	0.597	0.1798	0.059
Mof_C 	C 	0.8638	0.62769	0.20213	-0.07
Mof_C 	C 	0.8478	0.64611	0.18145	0.301
Mof_C 	C 	0.7799	0.5733	0.28	-0.143
Mof_H 	H 	0.7925	0.5565	0.2796	0.056
Mof_H 	H 	0.7712	0.5782	0.2609	0.066
Mof_C 	C 	0.7084	0.576	0.2961	-0.064
Mof_H 	H 	0.7172	0.5777	0.316	0.037
Mof_H 	H 	0.6757	0.5626	0.2929	0.029
Mof_C 	C 	0.6769	0.5989	0.2836	-0.077
Mof_H 	H 	0.6405	0.5956	0.2693	0.033
Mof_H 	H 	0.7154	0.609	0.276	0.05
Mof_C 	C 	0.6418	0.6099	0.3099	-0.143
Mof_H 	H 	0.6449	0.5993	0.3258	0.058
Mof_H 	H 	0.5908	0.6143	0.3067	0.054
Mof_C 	C 	0.691	0.6319	0.3135	0.049
Mof_H 	H 	0.7404	0.6292	0.3059	0.014
Mof_H 	H 	0.6701	0.6459	0.3049	0.002
Mof_C 	C 	0.693	0.6339	0.3455	-0.401
Mof_H 	H 	0.7261	0.6464	0.3509	0.133
Mof_H 	H 	0.7094	0.6191	0.3534	0.132
Mof_H 	H 	0.6443	0.6375	0.3522	0.127
Mof_C 	C 	0.8912	0.5663	0.2233	-0.124
Mof_H 	H 	0.8944	0.5608	0.2425	0.058
Mof_H 	H 	0.8494	0.5585	0.2146	0.059
Mof_C 	C 	0.9603	0.55962	0.2081	-0.098
Mof_H 	H 	0.959	0.5654	0.189	0.063
Mof_H 	H 	0.0033	0.5662	0.2174	0.059
Mof_C 	C 	0.9618	0.53329	0.2087	-0.03
Mof_H 	H 	0.9504	0.5275	0.2273	0.024
Mof_H 	H 	0.9261	0.5268	0.1957	0.031
Mof_C 	C 	0.037	0.5263	0.2006	-0.192
Mof_H 	H 	0.0448	0.5095	0.2044	0.071
Mof_H 	H 	0.0731	0.5354	0.2111	0.073
Mof_C 	C 	0.0442	0.5312	0.1704	0.107
Mof_H 	H 	0.0504	0.5481	0.167	-0.006
Mof_H 	H 	0.0012	0.5256	0.1602	-0.006
Mof_C 	C 	0.1115	0.5177	0.1619	-0.451
Mof_H 	H 	0.1221	0.5207	0.1426	0.139
Mof_H 	H 	0.1031	0.501	0.1646	0.144
Mof_H 	H 	0.1525	0.5226	0.1732	0.138
Mof_C 	C 	0.0523	0.68387	0.3808	0.396
Mof_C 	C 	0.0286	0.70369	0.3926	-0.137
Mof_C 	C 	0.9795	0.7029	0.4127	-0.01
Mof_H 	H 	0.9676	0.6883	0.4207	0.033
Mof_C 	C 	0.9383	0.727	0.4243	-0.003
Mof_C 	C 	0.9745	0.74272	0.4042	-0.018
Mof_C 	C 	0.961	0.76778	0.4042	-0.033
Mof_C 	C 	0.9918	0.7853	0.4154	0.034
Mof_C 	C 	0.9688	0.80799	0.4073	-0.05
Mof_H 	H 	0.9876	0.8222	0.4143	0.051
Mof_C 	C 	0.9161	0.80618	0.38828	-0.075
Mof_C 	C 	0.8737	0.82558	0.3749	0.337
Mof_C 	C 	0.8959	0.727	0.4509	-0.08
Mof_H 	H 	0.891	0.7111	0.4586	0.041
Mof_H 	H 	0.8475	0.7341	0.4486	0.037
Mof_C 	C 	0.9465	0.7425	0.4684	-0.175
Mof_H 	H 	0.9483	0.7587	0.4614	0.079
Mof_H 	H 	0.9961	0.7361	0.4692	0.076
Mof_C 	C 	0.9086	0.7414	0.4971	0.128
Mof_H 	H 	0.89	0.7256	0.5012	-0.062
Mof_H 	H 	0.8689	0.7529	0.4987	-0.019
Mof_C 	C 	0.9743	0.748	0.5159	-0.482
Mof_H 	H 	0.0158	0.7373	0.5131	0.161
Mof_H 	H 	0.9901	0.7643	0.513	0.158
Mof_C 	C 	0.9393	0.7445	0.5448	0.714
Mof_H 	H 	0.8938	0.7534	0.5466	-0.203
Mof_H 	H 	0.9728	0.7489	0.5597	-0.208
Mof_C 	C 	0.0589	0.7845	0.4335	-0.146
Mof_H 	H 	0.095	0.7942	0.4238	0.066
Mof_H 	H 	0.0765	0.7682	0.4319	0.069
Mof_C 	C 	0.068	0.7907	0.4642	-0.067
Mof_H 	H 	0.0378	0.7807	0.476	0.036
Mof_H 	H 	0.0562	0.8073	0.4677	0.041
Mof_C 	C 	0.1498	0.7858	0.4683	-0.075
Mof_H 	H 	0.159	0.769	0.4715	0.041
Mof_H 	H 	0.1787	0.7911	0.4524	0.045
Mof_C 	C 	0.166	0.8005	0.4942	-0.153
Mof_H 	H 	0.1347	0.8144	0.4953	0.065
Mof_H 	H 	0.2174	0.8054	0.4948	0.062
Mof_C 	C 	0.148	0.7826	0.5172	0.066
Mof_H 	H 	0.1341	0.7673	0.5096	-0.005
Mof_H 	H 	0.1101	0.7885	0.5296	-0.006
Mof_C 	C 	0.223	0.7813	0.532	-0.42
Mof_H 	H 	0.2298	0.7657	0.5396	0.133
Mof_H 	H 	0.2244	0.7929	0.5468	0.134
Mof_H 	H 	0.2616	0.7847	0.5188	0.137
Mof_C 	C 	0.3286	0.56405	0.6299	0.351
Mof_C 	C 	0.2846	0.54331	0.643	-0.069
Mof_C 	C 	0.2364	0.54512	0.6617	-0.052
Mof_H 	H 	0.224	0.5592	0.6708	0.051
Mof_C 	C 	0.2045	0.52324	0.6667	0.039
Mof_C 	C 	0.2342	0.50481	0.65161	-0.026
Mof_C 	C 	0.214	0.48067	0.6496	-0.03
Mof_C 	C 	0.2546	0.4608	0.6584	0.043
Mof_C 	C 	0.1599	0.44291	0.63755	-0.128
Mof_C 	C 	0.2237	0.44026	0.6519	-0.03
Mof_H 	H 	0.2437	0.4256	0.6566	0.044
Mof_C 	C 	0.1177	0.42591	0.6253	0.413
Mof_C 	C 	0.153	0.5189	0.6888	-0.145
Mof_H 	H 	0.1358	0.5027	0.686	0.068
Mof_H 	H 	0.1112	0.5291	0.685	0.063
Mof_C 	C 	0.1675	0.5212	0.71947	-0.074
Mof_H 	H 	0.1234	0.5176	0.7302	0.03
Mof_H 	H 	0.1838	0.5371	0.7241	0.039
Mof_C 	C 	0.2271	0.5033	0.72529	-0.052
Mof_H 	H 	0.2131	0.4877	0.7186	0.038
Mof_H 	H 	0.273	0.508	0.7165	0.04
Mof_C 	C 	0.2343	0.5034	0.75652	-0.195
Mof_H 	H 	0.2464	0.5192	0.7633	0.071
Mof_H 	H 	0.1888	0.4983	0.7653	0.067
Mof_C 	C 	0.2951	0.4864	0.7626	0.127
Mof_H 	H 	0.2818	0.4704	0.7568	-0.026
Mof_H 	H 	0.3399	0.491	0.7529	-0.026
Mof_C 	C 	0.3057	0.4875	0.7934	-0.466
Mof_H 	H 	0.3438	0.4766	0.7988	0.145
Mof_H 	H 	0.2604	0.4833	0.8026	0.141
Mof_H 	H 	0.3195	0.5034	0.7987	0.144
Mof_C 	C 	0.323	0.4632	0.6688	-0.142
Mof_H 	H 	0.3336	0.4799	0.6725	0.069
Mof_H 	H 	0.3592	0.4573	0.6556	0.064
Mof_C 	C 	0.3254	0.4491	0.6954	-0.103
Mof_H 	H 	0.3142	0.4325	0.692	0.049
Mof_H 	H 	0.2913	0.4554	0.7092	0.051
Mof_C 	C 	0.4045	0.4524	0.7046	0.006
Mof_H 	H 	0.4326	0.4378	0.7024	0.003
Mof_H 	H 	0.4284	0.465	0.6941	0.016
Mof_C 	C 	0.396	0.459	0.735	-0.248
Mof_H 	H 	0.3972	0.4761	0.7376	0.097
Mof_H 	H 	0.35	0.4528	0.7426	0.093
Mof_C 	C 	0.3199	0.63504	0.69161	0.283
Mof_C 	C 	0.3417	0.61754	0.71125	-0.076
Mof_C 	C 	0.3404	0.59476	0.70525	-0.042
Mof_H 	H 	0.3273	0.5882	0.6881	0.056
Mof_C 	C 	0.3784	0.5961	0.75198	-0.019
Mof_C 	C 	0.3931	0.59048	0.78077	-0.024
Mof_C 	C 	0.4576	0.59209	0.82506	-0.085
Mof_C 	C 	0.5089	0.5949	0.8495	0.368
Mof_C 	C 	0.3804	0.55485	0.72938	-0.116
Mof_H 	H 	0.3937	0.5496	0.748	0.057
Mof_H 	H 	0.336	0.5464	0.724	0.057
Mof_C 	C 	0.4406	0.54835	0.70986	-0.108
Mof_H 	H 	0.4297	0.5543	0.6913	0.064
Mof_H 	H 	0.4867	0.5554	0.716	0.062
Mof_C 	C 	0.5156	0.51656	0.69434	-0.222
Mof_H 	H 	0.5552	0.5269	0.7004	0.083
Mof_H 	H 	0.5297	0.5002	0.6982	0.079
Mof_C 	C 	0.5712	0.5135	0.6498	-0.482
Mof_H 	H 	0.5641	0.5149	0.63	0.148
Mof_H 	H 	0.5845	0.4974	0.6543	0.147
Mof_H 	H 	0.6097	0.5241	0.6557	0.15
Mof_C 	C 	0.2313	0.5698	0.8125	-0.102
Mof_H 	H 	0.2471	0.5692	0.8319	0.047
Mof_H 	H 	0.2161	0.5859	0.8081	0.053
Mof_C 	C 	0.1699	0.5528	0.8076	-0.022
Mof_H 	H 	0.1506	0.5469	0.8251	0.019
Mof_H 	H 	0.1862	0.5395	0.7963	0.018
Mof_C 	C 	0.3634	0.58139	0.73026	0.02
Mof_C 	C 	0.3629	0.57667	0.79775	0.012
Mof_C 	C 	0.4047	0.57635	0.82497	-0.036
Mof_H 	H 	0.3942	0.5662	0.8398	0.039
Mof_C 	C 	0.4469	0.52246	0.70937	-0.012
Mof_H 	H 	0.4048	0.5155	0.6999	0.026
Mof_H 	H 	0.4486	0.5162	0.7283	0.022
Mof_C 	C 	0.502	0.5197	0.6644	0.143
Mof_H 	H 	0.4885	0.5361	0.6605	-0.016
Mof_H 	H 	0.4622	0.5095	0.6583	-0.021
Mof_C 	C 	0.2921	0.5621	0.7937	-0.114
Mof_H 	H 	0.276	0.5636	0.7744	0.056
Mof_H 	H 	0.3028	0.5454	0.7971	0.043
Mof_C 	C 	0.1134	0.5671	0.7925	-0.214
Mof_H 	H 	0.132	0.5724	0.7745	0.082
Mof_H 	H 	0.0992	0.5809	0.8034	0.079
Mof_C 	C 	0.0498	0.5506	0.7889	0.143
Mof_H 	H 	0.047	0.5395	0.8043	-0.027
Mof_H 	H 	0.0039	0.5594	0.7878	-0.031
Mof_C 	C 	0.065	0.5379	0.7622	-0.491
Mof_H 	H 	0.025	0.527	0.7585	0.138
Mof_H 	H 	0.11	0.5293	0.7637	0.162
Mof_H 	H 	0.068	0.5492	0.7473	0.163
Mof_O 	O 	0.0329	0.58925	0.44558	-0.364
Mof_O 	O 	0.0275	0.61763	0.4157	-0.408
Mof_O 	O 	0.2584	0.62741	0.60469	-0.384
Mof_O 	O 	0.191	0.6542	0.62772	-0.404
Mof_O 	O 	0.1814	0.63726	0.40577	-0.384
Mof_O 	O 	0.2314	0.67189	0.38946	-0.389
Mof_O 	O 	0.3999	0.58535	0.55536	-0.341
Mof_O 	O 	0.4057	0.60985	0.59032	-0.404
Mof_O 	O 	0.9315	0.59509	0.36974	-0.405
Mof_O 	O 	0.0034	0.62272	0.35193	-0.398
Mof_O 	O 	0.8431	0.64123	0.15551	-0.395
Mof_O 	O 	0.8308	0.66663	0.18989	-0.346
Mof_O 	O 	0.0456	0.66347	0.38874	-0.39
Mof_O 	O 	0.1005	0.69094	0.36303	-0.375
Mof_O 	O 	0.8217	0.81872	0.35795	-0.375
Mof_O 	O 	0.8945	0.84607	0.37901	-0.364
Mof_O 	O 	0.3151	0.58401	0.63644	-0.378
Mof_O 	O 	0.3774	0.55777	0.61152	-0.366
Mof_O 	O 	0.0585	0.43271	0.6143	-0.379
Mof_O 	O 	0.132	0.40525	0.62783	-0.389
Mof_O 	O 	0.3074	0.65665	0.699	-0.33
Mof_O 	O 	0.2988	0.6296	0.6662	-0.394
Mof_O 	O 	0.5511	0.61094	0.84832	-0.383
Mof_O 	O 	0.4863	0.58239	0.87035	-0.394
Mof_S 	S 	0.07661	0.61656	0.49415	0.02
Mof_S 	S 	0.17751	0.63346	0.55074	0.033
Mof_S 	S 	0.2532	0.64027	0.46111	0.026
Mof_S 	S 	0.35308	0.61858	0.51308	0.024
Mof_S 	S 	0.94588	0.61686	0.29364	0.034
Mof_S 	S 	0.86575	0.6354	0.23552	0.02
Mof_S 	S 	0.0309	0.73109	0.38137	0.033
Mof_S 	S 	0.89575	0.77767	0.38048	0.012
Mof_S 	S 	0.30228	0.51629	0.63075	0.01
Mof_S 	S 	0.13973	0.47287	0.63284	0.025
Mof_S 	S 	0.3637	0.62548	0.74318	0.021
Mof_S 	S 	0.46699	0.60613	0.7953	0.033
Mof_Mn	Mn	0.97108	0.58328	0.4067	0.774
Mof_Mn	Mn	0.09034	0.62966	0.37962	1.021
Mof_Mn	Mn	0.20169	0.67846	0.35096	0.795
Mof_Mn	Mn	0.4639	0.57472	0.59299	0.779
Mof_Mn	Mn	0.35257	0.61931	0.62859	1.018
Mof_Mn	Mn	0.24126	0.6649	0.66237	0.806
Mof_H 	H 	0.9775	0.6686	0.5313	0.04
Mof_H 	H 	0.0157	0.691	0.5449	-0.178
Mof_C 	C 	0.9518	0.6723	0.5734	-0.266
Mof_H 	H 	0.9725	0.6803	0.5896	0.069
Mof_H 	H 	0.9423	0.6558	0.578	0.118
Mof_C 	C 	0.8822	0.6847	0.5631	0.83
Mof_H 	H 	0.8863	0.7019	0.5646	-0.76
Mof_H 	H 	0.871	0.6805	0.5439	-0.058
Mof_C 	C 	0.8249	0.6748	0.5832	-0.658
Mof_H 	H 	0.8463	0.6714	0.6013	0.2
Mof_H 	H 	0.8021	0.6605	0.5758	0.206
Mof_C 	C 	0.7702	0.6953	0.5847	0.357
Mof_H 	H 	0.7273	0.6924	0.5731	-0.092
Mof_H 	H 	0.7927	0.7103	0.5793	-0.095
Mof_C 	C 	0.751	0.6949	0.6158	-0.628
Mof_H 	H 	0.7103	0.7055	0.6192	0.195
Mof_H 	H 	0.7926	0.6999	0.6265	0.192
Mof_H 	H 	0.7369	0.679	0.6211	0.197
Mof_H 	H 	0.4525	0.4441	0.7681	-0.035
Mof_H 	H 	0.5053	0.4569	0.7466	-0.054
Mof_H 	H 	0.5049	0.4142	0.7414	0.149
Mof_H 	H 	0.4852	0.4276	0.7137	0.172
Mof_H 	H 	0.4225	0.4162	0.7318	0.166
Mof_C 	C 	0.461	0.4472	0.7485	0.205
Mof_C 	C 	0.469	0.4242	0.7324	-0.518
Mof_C 	C 	0.425	0.2176	0.5441	-1.719
Mof_H 	H 	0.3998	0.2129	0.5608	0.992
Mof_H 	H 	0.4716	0.2093	0.5431	0.545
Mof_H 	H 	0.396	0.2137	0.5281	0.557
Mof_C 	C 	0.357	0.1588	0.5177	-0.089
Mof_H 	H 	0.3963	0.1473	0.5167	0.047
Mof_H 	H 	0.3122	0.1511	0.5244	0.039
Mof_C 	C 	0.344	0.1712	0.4895	0.035
Mof_H 	H 	0.376	0.1849	0.4873	0.002
Mof_H 	H 	0.2932	0.1759	0.4871	0
Mof_C 	C 	0.366	0.1509	0.4696	-0.399
Mof_H 	H 	0.3221	0.1443	0.4612	0.125
Mof_H 	H 	0.3908	0.1386	0.4799	0.133
Mof_H 	H 	0.3977	0.1569	0.4553	0.138
Mof_C 	C 	0.8393	0.14721	0.50658	-0.018
Mof_C 	C 	0.8435	0.16055	0.53031	0.019
Mof_C 	C 	0.8582	0.14683	0.5524	-0.029
Mof_H 	H 	0.8618	0.153	0.5704	0.053
Mof_C 	C 	0.8671	0.12448	0.54728	-0.089
Mof_C 	C 	0.5377	0.10942	0.44027	0.329
Mof_C 	C 	0.5641	0.12705	0.46221	-0.069
Mof_C 	C 	0.5678	0.15011	0.45991	-0.053
Mof_H 	H 	0.56	0.1584	0.4433	0.057
Mof_C 	C 	0.5855	0.16138	0.4863	0.04
Mof_C 	C 	0.5894	0.14449	0.50597	-0.038
Mof_C 	C 	0.6046	0.14771	0.53563	0.013
Mof_C 	C 	0.5683	0.1597	0.555	-0.079
Mof_C 	C 	0.6067	0.15992	0.58023	0.025
Mof_H 	H 	0.5923	0.1695	0.5951	0.015
Mof_C 	C 	0.6622	0.14633	0.58189	-0.12
Mof_C 	C 	0.7101	0.14202	0.60623	0.381
Mof_C 	C 	0.5942	0.18684	0.4884	-0.129
Mof_H 	H 	0.6056	0.1911	0.5076	0.061
Mof_H 	H 	0.5483	0.1946	0.4834	0.058
Mof_C 	C 	0.6542	0.1955	0.4697	-0.104
Mof_H 	H 	0.7014	0.1888	0.4752	0.061
Mof_H 	H 	0.6444	0.1912	0.4504	0.064
Mof_C 	C 	0.6538	0.22178	0.4734	-0.014
Mof_H 	H 	0.6081	0.2286	0.4665	0.022
Mof_H 	H 	0.6595	0.226	0.4929	0.019
Mof_C 	C 	0.7174	0.23045	0.45677	-0.227
Mof_H 	H 	0.7288	0.2468	0.4615	0.086
Mof_H 	H 	0.7607	0.2207	0.4602	0.091
Mof_C 	C 	0.6945	0.2286	0.4274	0.152
Mof_H 	H 	0.6552	0.2398	0.4234	-0.024
Mof_H 	H 	0.677	0.2126	0.4233	-0.014
Mof_C 	C 	0.7606	0.2341	0.4105	-0.49
Mof_H 	H 	0.7489	0.2327	0.391	0.148
Mof_H 	H 	0.7993	0.2232	0.4151	0.161
Mof_H 	H 	0.7765	0.2501	0.4145	0.158
Mof_C 	C 	0.5018	0.1746	0.548	0.146
Mof_H 	H 	0.4995	0.1757	0.5278	-0.034
Mof_H 	H 	0.5115	0.1905	0.5549	0.086
Mof_C 	C 	0.425	0.1676	0.5581	-0.397
Mof_H 	H 	0.4152	0.1737	0.5767	0.072
Mof_H 	H 	0.4178	0.1505	0.5578	0.125
Mof_C 	C 	0.3776	0.1802	0.536	-0.147
Mof_H 	H 	0.3345	0.1877	0.5442	-0.01
Mof_H 	H 	0.4056	0.1919	0.5256	0.033
Mof_C 	C 	0.7171	0.1541	0.4078	0.346
Mof_C 	C 	0.7732	0.15712	0.43351	-0.059
Mof_C 	C 	0.8226	0.1727	0.43669	-0.061
Mof_H 	H 	0.8348	0.184	0.4233	0.043
Mof_C 	C 	0.857	0.1707	0.46285	0.043
Mof_C 	C 	0.8219	0.1539	0.47852	-0.033
Mof_C 	C 	0.8909	0.10563	0.56448	0.319
Mof_C 	C 	0.9175	0.1856	0.4711	-0.163
Mof_H 	H 	0.9273	0.1833	0.4909	0.069
Mof_H 	H 	0.9041	0.2021	0.4683	0.064
Mof_C 	C 	0.9857	0.1803	0.4549	-0.047
Mof_H 	H 	0.0238	0.192	0.4588	0.032
Mof_H 	H 	0.9757	0.1803	0.435	0.019
Mof_C 	C 	0.0084	0.1562	0.4646	-0.061
Mof_H 	H 	0.0289	0.1569	0.4833	0.038
Mof_H 	H 	0.9667	0.1454	0.4646	0.047
Mof_C 	C 	0.0653	0.1484	0.444	-0.176
Mof_H 	H 	0.0978	0.1365	0.4522	0.064
Mof_H 	H 	0.0424	0.1417	0.4274	0.068
Mof_C 	C 	0.1065	0.1705	0.4371	0.114
Mof_H 	H 	0.1573	0.167	0.4323	-0.024
Mof_H 	H 	0.1059	0.1816	0.4527	-0.014
Mof_C 	C 	0.066	0.1806	0.4126	-0.463
Mof_H 	H 	0.097	0.1919	0.4032	0.142
Mof_H 	H 	0.022	0.1883	0.4189	0.152
Mof_H 	H 	0.0536	0.168	0.3999	0.146
Mof_C 	C 	0.8211	0.18675	0.53305	-0.12
Mof_H 	H 	0.8638	0.1958	0.5391	0.059
Mof_H 	H 	0.8071	0.1926	0.5147	0.059
Mof_C 	C 	0.7595	0.19152	0.55286	-0.099
Mof_H 	H 	0.7139	0.1847	0.546	0.059
Mof_H 	H 	0.7701	0.1848	0.5711	0.061
Mof_C 	C 	0.7535	0.21761	0.5546	-0.026
Mof_H 	H 	0.7631	0.2249	0.5366	0.024
Mof_H 	H 	0.788	0.224	0.5682	0.033
Mof_C 	C 	0.6765	0.2219	0.5635	-0.214
Mof_H 	H 	0.6534	0.2338	0.5517	0.078
Mof_H 	H 	0.6479	0.2074	0.5625	0.082
Mof_C 	C 	0.6818	0.2305	0.5926	0.139
Mof_H 	H 	0.7261	0.2246	0.6016	-0.017
Mof_H 	H 	0.6393	0.2255	0.6035	-0.029
Mof_C 	C 	0.684	0.2569	0.5898	-0.483
Mof_H 	H 	0.692	0.264	0.6078	0.152
Mof_H 	H 	0.6383	0.2625	0.5822	0.155
Mof_H 	H 	0.7238	0.2613	0.5775	0.152
Mof_C 	C 	0.4559	0.1085	0.3508	0.394
Mof_C 	C 	0.3455	0.08669	0.29084	0.028
Mof_C 	C 	0.4225	0.10315	0.32203	-0.089
Mof_C 	C 	0.3728	0.0864	0.3174	-0.043
Mof_H 	H 	0.358	0.0755	0.3309	0.042
Mof_C 	C 	0.3807	0.10165	0.27405	-0.029
Mof_C 	C 	0.3811	0.10703	0.24547	-0.023
Mof_C 	C 	0.3791	0.093	0.22303	0.028
Mof_C 	C 	0.3715	0.10434	0.19729	-0.049
Mof_H 	H 	0.3717	0.097	0.1798	0.059
Mof_C 	C 	0.3638	0.12769	0.20213	-0.07
Mof_C 	C 	0.3478	0.14611	0.18145	0.301
Mof_C 	C 	0.2799	0.0733	0.28	-0.143
Mof_H 	H 	0.2925	0.0565	0.2796	0.056
Mof_H 	H 	0.2712	0.0782	0.2609	0.066
Mof_C 	C 	0.2084	0.076	0.2961	-0.064
Mof_H 	H 	0.2172	0.0777	0.316	0.037
Mof_H 	H 	0.1757	0.0626	0.2929	0.029
Mof_C 	C 	0.1769	0.0989	0.2836	-0.077
Mof_H 	H 	0.1405	0.0956	0.2693	0.033
Mof_H 	H 	0.2154	0.109	0.276	0.05
Mof_C 	C 	0.1418	0.1099	0.3099	-0.143
Mof_H 	H 	0.1449	0.0993	0.3258	0.058
Mof_H 	H 	0.0908	0.1143	0.3067	0.054
Mof_C 	C 	0.191	0.1319	0.3135	0.049
Mof_H 	H 	0.2404	0.1292	0.3059	0.014
Mof_H 	H 	0.1701	0.1459	0.3049	0.002
Mof_C 	C 	0.193	0.1339	0.3455	-0.401
Mof_H 	H 	0.2261	0.1464	0.3509	0.133
Mof_H 	H 	0.2094	0.1191	0.3534	0.132
Mof_H 	H 	0.1443	0.1375	0.3522	0.127
Mof_C 	C 	0.3912	0.0663	0.2233	-0.124
Mof_H 	H 	0.3944	0.0608	0.2425	0.058
Mof_H 	H 	0.3494	0.0585	0.2146	0.059
Mof_C 	C 	0.4603	0.05962	0.2081	-0.098
Mof_H 	H 	0.459	0.0654	0.189	0.063
Mof_H 	H 	0.5033	0.0662	0.2174	0.06
Mof_C 	C 	0.4618	0.03329	0.2087	-0.031
Mof_H 	H 	0.4504	0.0275	0.2273	0.025
Mof_H 	H 	0.4261	0.0268	0.1957	0.032
Mof_C 	C 	0.537	0.0263	0.2006	-0.191
Mof_H 	H 	0.5448	0.0095	0.2044	0.07
Mof_H 	H 	0.5731	0.0354	0.2111	0.073
Mof_C 	C 	0.5442	0.0312	0.1704	0.106
Mof_H 	H 	0.5504	0.0481	0.167	-0.006
Mof_H 	H 	0.5012	0.0256	0.1602	-0.005
Mof_C 	C 	0.6115	0.0177	0.1619	-0.451
Mof_H 	H 	0.6221	0.0207	0.1426	0.139
Mof_H 	H 	0.6031	0.001	0.1646	0.144
Mof_H 	H 	0.6525	0.0226	0.1732	0.138
Mof_C 	C 	0.5523	0.18387	0.3808	0.396
Mof_C 	C 	0.5286	0.20369	0.3926	-0.138
Mof_C 	C 	0.4795	0.2029	0.4127	-0.008
Mof_H 	H 	0.4676	0.1883	0.4207	0.033
Mof_C 	C 	0.4383	0.227	0.4243	-0.003
Mof_C 	C 	0.4745	0.24272	0.4042	-0.017
Mof_C 	C 	0.461	0.26778	0.4042	-0.033
Mof_C 	C 	0.4918	0.2853	0.4154	0.036
Mof_C 	C 	0.4688	0.30799	0.4073	-0.05
Mof_H 	H 	0.4876	0.3222	0.4143	0.051
Mof_C 	C 	0.4161	0.30618	0.38828	-0.075
Mof_C 	C 	0.3737	0.32558	0.3749	0.337
Mof_C 	C 	0.3959	0.227	0.4509	-0.08
Mof_H 	H 	0.391	0.2111	0.4586	0.041
Mof_H 	H 	0.3475	0.2341	0.4486	0.037
Mof_C 	C 	0.4465	0.2425	0.4684	-0.175
Mof_H 	H 	0.4483	0.2587	0.4614	0.079
Mof_H 	H 	0.4961	0.2361	0.4692	0.076
Mof_C 	C 	0.4086	0.2414	0.4971	0.125
Mof_H 	H 	0.39	0.2256	0.5012	-0.061
Mof_H 	H 	0.3689	0.2529	0.4987	-0.019
Mof_C 	C 	0.4743	0.248	0.5159	-0.477
Mof_H 	H 	0.5158	0.2373	0.5131	0.159
Mof_H 	H 	0.4901	0.2643	0.513	0.157
Mof_C 	C 	0.4393	0.2445	0.5448	0.709
Mof_H 	H 	0.3938	0.2534	0.5466	-0.201
Mof_H 	H 	0.4728	0.2489	0.5597	-0.206
Mof_C 	C 	0.5589	0.2845	0.4335	-0.149
Mof_H 	H 	0.595	0.2942	0.4238	0.066
Mof_H 	H 	0.5765	0.2682	0.4319	0.069
Mof_C 	C 	0.568	0.2907	0.4642	-0.066
Mof_H 	H 	0.5378	0.2807	0.476	0.035
Mof_H 	H 	0.5562	0.3073	0.4677	0.04
Mof_C 	C 	0.6498	0.2858	0.4683	-0.075
Mof_H 	H 	0.659	0.269	0.4715	0.041
Mof_H 	H 	0.6787	0.2911	0.4524	0.045
Mof_C 	C 	0.666	0.3005	0.4942	-0.152
Mof_H 	H 	0.6347	0.3144	0.4953	0.065
Mof_H 	H 	0.7174	0.3054	0.4948	0.062
Mof_C 	C 	0.648	0.2826	0.5172	0.066
Mof_H 	H 	0.6341	0.2673	0.5096	-0.005
Mof_H 	H 	0.6101	0.2885	0.5296	-0.006
Mof_C 	C 	0.723	0.2813	0.532	-0.419
Mof_H 	H 	0.7298	0.2657	0.5396	0.133
Mof_H 	H 	0.7244	0.2929	0.5468	0.134
Mof_H 	H 	0.7616	0.2847	0.5188	0.137
Mof_C 	C 	0.8286	0.06405	0.6299	0.351
Mof_C 	C 	0.7846	0.04331	0.643	-0.069
Mof_C 	C 	0.7364	0.04512	0.6617	-0.052
Mof_H 	H 	0.724	0.0592	0.6708	0.051
Mof_C 	C 	0.7045	0.02324	0.6667	0.038
Mof_C 	C 	0.7342	0.00481	0.65161	-0.026
Mof_C 	C 	0.714	0.98067	0.6496	-0.03
Mof_C 	C 	0.7546	0.9608	0.6584	0.043
Mof_C 	C 	0.6599	0.94291	0.63755	-0.128
Mof_C 	C 	0.7237	0.94026	0.6519	-0.03
Mof_H 	H 	0.7437	0.9256	0.6566	0.044
Mof_C 	C 	0.6177	0.92591	0.6253	0.413
Mof_C 	C 	0.653	0.0189	0.6888	-0.145
Mof_H 	H 	0.6358	0.0027	0.686	0.068
Mof_H 	H 	0.6112	0.0291	0.685	0.063
Mof_C 	C 	0.6675	0.0212	0.71947	-0.074
Mof_H 	H 	0.6234	0.0176	0.7302	0.03
Mof_H 	H 	0.6838	0.0371	0.7241	0.039
Mof_C 	C 	0.7271	0.0033	0.72529	-0.052
Mof_H 	H 	0.7131	0.9877	0.7186	0.038
Mof_H 	H 	0.773	0.008	0.7165	0.04
Mof_C 	C 	0.7343	0.0034	0.75652	-0.195
Mof_H 	H 	0.7464	0.0192	0.7633	0.071
Mof_H 	H 	0.6888	0.9983	0.7653	0.067
Mof_C 	C 	0.7951	0.9864	0.7626	0.127
Mof_H 	H 	0.7818	0.9704	0.7568	-0.026
Mof_H 	H 	0.8399	0.991	0.7529	-0.026
Mof_C 	C 	0.8057	0.9875	0.7934	-0.466
Mof_H 	H 	0.8438	0.9766	0.7988	0.145
Mof_H 	H 	0.7604	0.9833	0.8026	0.141
Mof_H 	H 	0.8195	0.0034	0.7987	0.144
Mof_C 	C 	0.823	0.9632	0.6688	-0.142
Mof_H 	H 	0.8336	0.9799	0.6725	0.069
Mof_H 	H 	0.8592	0.9573	0.6556	0.064
Mof_C 	C 	0.8254	0.9491	0.6954	-0.103
Mof_H 	H 	0.8142	0.9325	0.692	0.049
Mof_H 	H 	0.7913	0.9554	0.7092	0.051
Mof_C 	C 	0.9045	0.9524	0.7046	0.006
Mof_H 	H 	0.9326	0.9378	0.7024	0.003
Mof_H 	H 	0.9284	0.965	0.6941	0.016
Mof_C 	C 	0.896	0.959	0.735	-0.248
Mof_H 	H 	0.8972	0.9761	0.7376	0.097
Mof_H 	H 	0.85	0.9528	0.7426	0.093
Mof_C 	C 	0.8199	0.13504	0.69161	0.283
Mof_C 	C 	0.8417	0.11754	0.71125	-0.076
Mof_C 	C 	0.8404	0.09476	0.70525	-0.042
Mof_H 	H 	0.8273	0.0882	0.6881	0.056
Mof_C 	C 	0.8784	0.0961	0.75198	-0.019
Mof_C 	C 	0.8931	0.09048	0.78077	-0.024
Mof_C 	C 	0.9576	0.09209	0.82506	-0.084
Mof_C 	C 	0.0089	0.0949	0.8495	0.367
Mof_C 	C 	0.8804	0.05485	0.72938	-0.116
Mof_H 	H 	0.8937	0.0496	0.748	0.057
Mof_H 	H 	0.836	0.0464	0.724	0.057
Mof_C 	C 	0.9406	0.04835	0.70986	-0.109
Mof_H 	H 	0.9297	0.0543	0.6913	0.064
Mof_H 	H 	0.9867	0.0554	0.716	0.062
Mof_C 	C 	0.0156	0.01656	0.69434	-0.224
Mof_H 	H 	0.0552	0.0269	0.7004	0.084
Mof_H 	H 	0.0297	0.0002	0.6982	0.08
Mof_C 	C 	0.0712	0.0135	0.6498	-0.486
Mof_H 	H 	0.0641	0.0149	0.63	0.149
Mof_H 	H 	0.0845	0.9974	0.6543	0.149
Mof_H 	H 	0.1097	0.0241	0.6557	0.151
Mof_C 	C 	0.7313	0.0698	0.8125	-0.102
Mof_H 	H 	0.7471	0.0692	0.8319	0.047
Mof_H 	H 	0.7161	0.0859	0.8081	0.053
Mof_C 	C 	0.6699	0.0528	0.8076	-0.022
Mof_H 	H 	0.6506	0.0469	0.8251	0.019
Mof_H 	H 	0.6862	0.0395	0.7963	0.018
Mof_C 	C 	0.8634	0.08139	0.73026	0.02
Mof_C 	C 	0.8629	0.07667	0.79775	0.012
Mof_C 	C 	0.9047	0.07635	0.82497	-0.036
Mof_H 	H 	0.8942	0.0662	0.8398	0.039
Mof_C 	C 	0.9469	0.02246	0.70937	-0.011
Mof_H 	H 	0.9048	0.0155	0.6999	0.026
Mof_H 	H 	0.9486	0.0162	0.7283	0.021
Mof_C 	C 	0.002	0.0197	0.6644	0.148
Mof_H 	H 	0.9885	0.0361	0.6605	-0.018
Mof_H 	H 	0.9622	0.0095	0.6583	-0.023
Mof_C 	C 	0.7921	0.0621	0.7937	-0.114
Mof_H 	H 	0.776	0.0636	0.7744	0.056
Mof_H 	H 	0.8028	0.0454	0.7971	0.043
Mof_C 	C 	0.6134	0.0671	0.7925	-0.214
Mof_H 	H 	0.632	0.0724	0.7745	0.082
Mof_H 	H 	0.5992	0.0809	0.8034	0.079
Mof_C 	C 	0.5498	0.0506	0.7889	0.143
Mof_H 	H 	0.547	0.0395	0.8043	-0.027
Mof_H 	H 	0.5039	0.0594	0.7878	-0.031
Mof_C 	C 	0.565	0.0379	0.7622	-0.49
Mof_H 	H 	0.525	0.027	0.7585	0.138
Mof_H 	H 	0.61	0.0293	0.7637	0.162
Mof_H 	H 	0.568	0.0492	0.7473	0.163
Mof_O 	O 	0.5329	0.08925	0.44558	-0.365
Mof_O 	O 	0.5275	0.11763	0.4157	-0.408
Mof_O 	O 	0.7584	0.12741	0.60469	-0.384
Mof_O 	O 	0.691	0.1542	0.62772	-0.404
Mof_O 	O 	0.6814	0.13726	0.40577	-0.384
Mof_O 	O 	0.7314	0.17189	0.38946	-0.389
Mof_O 	O 	0.8999	0.08535	0.55536	-0.341
Mof_O 	O 	0.9057	0.10985	0.59032	-0.404
Mof_O 	O 	0.4315	0.09509	0.36974	-0.405
Mof_O 	O 	0.5034	0.12272	0.35193	-0.399
Mof_O 	O 	0.3431	0.14123	0.15551	-0.395
Mof_O 	O 	0.3308	0.16663	0.18989	-0.346
Mof_O 	O 	0.5456	0.16347	0.38874	-0.39
Mof_O 	O 	0.6005	0.19094	0.36303	-0.375
Mof_O 	O 	0.3217	0.31872	0.35795	-0.375
Mof_O 	O 	0.3945	0.34607	0.37901	-0.364
Mof_O 	O 	0.8151	0.08401	0.63644	-0.378
Mof_O 	O 	0.8774	0.05777	0.61152	-0.366
Mof_O 	O 	0.5585	0.93271	0.6143	-0.38
Mof_O 	O 	0.632	0.90525	0.62783	-0.39
Mof_O 	O 	0.8074	0.15665	0.699	-0.33
Mof_O 	O 	0.7988	0.1296	0.6662	-0.394
Mof_O 	O 	0.0511	0.11094	0.84832	-0.383
Mof_O 	O 	0.9863	0.08239	0.87035	-0.392
Mof_S 	S 	0.57661	0.11656	0.49415	0.02
Mof_S 	S 	0.67751	0.13346	0.55074	0.033
Mof_S 	S 	0.7532	0.14027	0.46111	0.026
Mof_S 	S 	0.85308	0.11858	0.51308	0.024
Mof_S 	S 	0.44588	0.11686	0.29364	0.034
Mof_S 	S 	0.36575	0.1354	0.23552	0.02
Mof_S 	S 	0.5309	0.23109	0.38137	0.032
Mof_S 	S 	0.39575	0.27767	0.38048	0.012
Mof_S 	S 	0.80228	0.01629	0.63075	0.01
Mof_S 	S 	0.63973	0.97287	0.63284	0.025
Mof_S 	S 	0.8637	0.12548	0.74318	0.021
Mof_S 	S 	0.96699	0.10613	0.7953	0.033
Mof_Mn	Mn	0.47108	0.08328	0.4067	0.776
Mof_Mn	Mn	0.59034	0.12966	0.37962	1.021
Mof_Mn	Mn	0.70169	0.17846	0.35096	0.795
Mof_Mn	Mn	0.9639	0.07472	0.59299	0.778
Mof_Mn	Mn	0.85257	0.11931	0.62859	1.018
Mof_Mn	Mn	0.74126	0.1649	0.66237	0.806
Mof_H 	H 	0.4775	0.1686	0.5313	0.04
Mof_H 	H 	0.5157	0.191	0.5449	-0.177
Mof_C 	C 	0.4518	0.1723	0.5734	-0.265
Mof_H 	H 	0.4725	0.1803	0.5896	0.069
Mof_H 	H 	0.4423	0.1558	0.578	0.117
Mof_C 	C 	0.3822	0.1847	0.5631	0.824
Mof_H 	H 	0.3863	0.2019	0.5646	-0.755
Mof_H 	H 	0.371	0.1805	0.5439	-0.058
Mof_C 	C 	0.3249	0.1748	0.5832	-0.655
Mof_H 	H 	0.3463	0.1714	0.6013	0.2
Mof_H 	H 	0.3021	0.1605	0.5758	0.205
Mof_C 	C 	0.2702	0.1953	0.5847	0.356
Mof_H 	H 	0.2273	0.1924	0.5731	-0.091
Mof_H 	H 	0.2927	0.2103	0.5793	-0.094
Mof_C 	C 	0.251	0.1949	0.6158	-0.627
Mof_H 	H 	0.2103	0.2055	0.6192	0.195
Mof_H 	H 	0.2926	0.1999	0.6265	0.192
Mof_H 	H 	0.2369	0.179	0.6211	0.196
Mof_H 	H 	0.9525	0.9441	0.7681	-0.035
Mof_H 	H 	0.0053	0.9569	0.7466	-0.054
Mof_H 	H 	0.0049	0.9142	0.7414	0.149
Mof_H 	H 	0.9852	0.9276	0.7137	0.171
Mof_H 	H 	0.9225	0.9162	0.7318	0.166
Mof_C 	C 	0.961	0.9472	0.7485	0.205
Mof_C 	C 	0.969	0.9242	0.7324	-0.518
Mof_C 	C 	0.925	0.2824	0.4559	-1.727
Mof_H 	H 	0.8998	0.2871	0.4392	0.997
Mof_H 	H 	0.9716	0.2907	0.4569	0.547
Mof_H 	H 	0.896	0.2863	0.4719	0.56
Mof_C 	C 	0.857	0.3412	0.4823	-0.087
Mof_H 	H 	0.8963	0.3527	0.4833	0.046
Mof_H 	H 	0.8122	0.3489	0.4756	0.038
Mof_C 	C 	0.844	0.3288	0.5105	0.034
Mof_H 	H 	0.876	0.3151	0.5127	0.002
Mof_H 	H 	0.7932	0.3241	0.5129	0.001
Mof_C 	C 	0.866	0.3491	0.5304	-0.398
Mof_H 	H 	0.8221	0.3557	0.5388	0.125
Mof_H 	H 	0.8908	0.3614	0.5201	0.133
Mof_H 	H 	0.8977	0.3431	0.5447	0.138
Mof_C 	C 	0.3393	0.35279	0.49342	-0.018
Mof_C 	C 	0.3435	0.33945	0.46969	0.019
Mof_C 	C 	0.3582	0.35317	0.4476	-0.029
Mof_H 	H 	0.3618	0.347	0.4296	0.053
Mof_C 	C 	0.3671	0.37552	0.45272	-0.089
Mof_C 	C 	0.0377	0.39058	0.55973	0.329
Mof_C 	C 	0.0641	0.37295	0.53779	-0.069
Mof_C 	C 	0.0678	0.34989	0.54009	-0.053
Mof_H 	H 	0.06	0.3416	0.5567	0.057
Mof_C 	C 	0.0855	0.33862	0.5137	0.041
Mof_C 	C 	0.0894	0.35551	0.49403	-0.038
Mof_C 	C 	0.1046	0.35229	0.46437	0.014
Mof_C 	C 	0.0683	0.3403	0.445	-0.081
Mof_C 	C 	0.1067	0.34008	0.41977	0.026
Mof_H 	H 	0.0923	0.3305	0.4049	0.015
Mof_C 	C 	0.1622	0.35367	0.41811	-0.12
Mof_C 	C 	0.2101	0.35798	0.39377	0.381
Mof_C 	C 	0.0942	0.31316	0.5116	-0.13
Mof_H 	H 	0.1056	0.3089	0.4924	0.061
Mof_H 	H 	0.0483	0.3054	0.5166	0.059
Mof_C 	C 	0.1542	0.3045	0.5303	-0.103
Mof_H 	H 	0.2014	0.3112	0.5248	0.061
Mof_H 	H 	0.1444	0.3088	0.5496	0.064
Mof_C 	C 	0.1538	0.27822	0.5266	-0.014
Mof_H 	H 	0.1081	0.2714	0.5335	0.022
Mof_H 	H 	0.1595	0.274	0.5071	0.02
Mof_C 	C 	0.2174	0.26955	0.54323	-0.226
Mof_H 	H 	0.2288	0.2532	0.5385	0.086
Mof_H 	H 	0.2607	0.2793	0.5398	0.091
Mof_C 	C 	0.1945	0.2714	0.5726	0.151
Mof_H 	H 	0.1552	0.2602	0.5766	-0.024
Mof_H 	H 	0.177	0.2874	0.5767	-0.014
Mof_C 	C 	0.2606	0.2659	0.5895	-0.49
Mof_H 	H 	0.2489	0.2673	0.609	0.148
Mof_H 	H 	0.2993	0.2768	0.5849	0.161
Mof_H 	H 	0.2765	0.2499	0.5855	0.158
Mof_C 	C 	0.0018	0.3254	0.452	0.153
Mof_H 	H 	0.9995	0.3243	0.4722	-0.037
Mof_H 	H 	0.0115	0.3095	0.4451	0.085
Mof_C 	C 	0.925	0.3324	0.4419	-0.402
Mof_H 	H 	0.9152	0.3263	0.4233	0.072
Mof_H 	H 	0.9178	0.3495	0.4422	0.126
Mof_C 	C 	0.8776	0.3198	0.464	-0.149
Mof_H 	H 	0.8345	0.3123	0.4558	-0.01
Mof_H 	H 	0.9056	0.3081	0.4744	0.033
Mof_C 	C 	0.2171	0.3459	0.5922	0.346
Mof_C 	C 	0.2732	0.34288	0.56649	-0.059
Mof_C 	C 	0.3226	0.3273	0.56331	-0.061
Mof_H 	H 	0.3348	0.316	0.5767	0.043
Mof_C 	C 	0.357	0.3293	0.53715	0.044
Mof_C 	C 	0.3219	0.3461	0.52148	-0.034
Mof_C 	C 	0.3909	0.39437	0.43552	0.319
Mof_C 	C 	0.4175	0.3144	0.5289	-0.167
Mof_H 	H 	0.4273	0.3167	0.5091	0.071
Mof_H 	H 	0.4041	0.2979	0.5317	0.065
Mof_C 	C 	0.4857	0.3197	0.5451	-0.04
Mof_H 	H 	0.5238	0.308	0.5412	0.029
Mof_H 	H 	0.4757	0.3197	0.565	0.017
Mof_C 	C 	0.5084	0.3438	0.5354	-0.069
Mof_H 	H 	0.5289	0.3431	0.5167	0.04
Mof_H 	H 	0.4667	0.3546	0.5354	0.05
Mof_C 	C 	0.5653	0.3516	0.556	-0.171
Mof_H 	H 	0.5978	0.3635	0.5478	0.062
Mof_H 	H 	0.5424	0.3583	0.5726	0.067
Mof_C 	C 	0.6065	0.3295	0.5629	0.11
Mof_H 	H 	0.6573	0.333	0.5677	-0.023
Mof_H 	H 	0.6059	0.3184	0.5473	-0.013
Mof_C 	C 	0.566	0.3194	0.5874	-0.46
Mof_H 	H 	0.597	0.3081	0.5968	0.141
Mof_H 	H 	0.522	0.3117	0.5811	0.151
Mof_H 	H 	0.5536	0.332	0.6001	0.145
Mof_C 	C 	0.3211	0.31325	0.46695	-0.12
Mof_H 	H 	0.3638	0.3042	0.4609	0.059
Mof_H 	H 	0.3071	0.3074	0.4853	0.059
Mof_C 	C 	0.2595	0.30848	0.44714	-0.099
Mof_H 	H 	0.2139	0.3153	0.454	0.059
Mof_H 	H 	0.2701	0.3152	0.4289	0.061
Mof_C 	C 	0.2535	0.28239	0.4454	-0.026
Mof_H 	H 	0.2631	0.2751	0.4634	0.024
Mof_H 	H 	0.288	0.276	0.4318	0.033
Mof_C 	C 	0.1765	0.2781	0.4365	-0.214
Mof_H 	H 	0.1534	0.2662	0.4483	0.078
Mof_H 	H 	0.1479	0.2926	0.4375	0.082
Mof_C 	C 	0.1818	0.2695	0.4074	0.14
Mof_H 	H 	0.2261	0.2754	0.3984	-0.018
Mof_H 	H 	0.1393	0.2745	0.3965	-0.029
Mof_C 	C 	0.184	0.2431	0.4102	-0.483
Mof_H 	H 	0.192	0.236	0.3922	0.153
Mof_H 	H 	0.1383	0.2375	0.4178	0.155
Mof_H 	H 	0.2238	0.2387	0.4225	0.152
Mof_C 	C 	0.9559	0.3915	0.6492	0.393
Mof_C 	C 	0.8455	0.41331	0.70916	0.028
Mof_C 	C 	0.9225	0.39685	0.67797	-0.088
Mof_C 	C 	0.8728	0.4136	0.6826	-0.043
Mof_H 	H 	0.858	0.4245	0.6691	0.042
Mof_C 	C 	0.8807	0.39835	0.72595	-0.029
Mof_C 	C 	0.8811	0.39297	0.75453	-0.023
Mof_C 	C 	0.8791	0.407	0.77697	0.028
Mof_C 	C 	0.8715	0.39566	0.80271	-0.049
Mof_H 	H 	0.8717	0.403	0.8202	0.059
Mof_C 	C 	0.8638	0.37231	0.79787	-0.07
Mof_C 	C 	0.8478	0.35389	0.81855	0.301
Mof_C 	C 	0.7799	0.4267	0.72	-0.143
Mof_H 	H 	0.7925	0.4435	0.7204	0.056
Mof_H 	H 	0.7712	0.4218	0.7391	0.066
Mof_C 	C 	0.7084	0.424	0.7039	-0.064
Mof_H 	H 	0.7172	0.4223	0.684	0.037
Mof_H 	H 	0.6757	0.4374	0.7071	0.029
Mof_C 	C 	0.6769	0.4011	0.7164	-0.077
Mof_H 	H 	0.6405	0.4044	0.7307	0.033
Mof_H 	H 	0.7154	0.391	0.724	0.05
Mof_C 	C 	0.6418	0.3901	0.6901	-0.143
Mof_H 	H 	0.6449	0.4007	0.6742	0.058
Mof_H 	H 	0.5908	0.3857	0.6933	0.054
Mof_C 	C 	0.691	0.3681	0.6865	0.049
Mof_H 	H 	0.7404	0.3708	0.6941	0.014
Mof_H 	H 	0.6701	0.3541	0.6951	0.002
Mof_C 	C 	0.693	0.3661	0.6545	-0.401
Mof_H 	H 	0.7261	0.3536	0.6491	0.133
Mof_H 	H 	0.7094	0.3809	0.6466	0.132
Mof_H 	H 	0.6443	0.3625	0.6478	0.127
Mof_C 	C 	0.8912	0.4337	0.7767	-0.124
Mof_H 	H 	0.8944	0.4392	0.7575	0.058
Mof_H 	H 	0.8494	0.4415	0.7854	0.059
Mof_C 	C 	0.9603	0.44038	0.7919	-0.098
Mof_H 	H 	0.959	0.4346	0.811	0.063
Mof_H 	H 	0.0033	0.4338	0.7826	0.059
Mof_C 	C 	0.9618	0.46671	0.7913	-0.03
Mof_H 	H 	0.9504	0.4725	0.7727	0.024
Mof_H 	H 	0.9261	0.4732	0.8043	0.031
Mof_C 	C 	0.037	0.4737	0.7994	-0.192
Mof_H 	H 	0.0448	0.4905	0.7956	0.071
Mof_H 	H 	0.0731	0.4646	0.7889	0.073
Mof_C 	C 	0.0442	0.4688	0.8296	0.107
Mof_H 	H 	0.0504	0.4519	0.833	-0.006
Mof_H 	H 	0.0012	0.4744	0.8398	-0.006
Mof_C 	C 	0.1115	0.4823	0.8381	-0.451
Mof_H 	H 	0.1221	0.4793	0.8574	0.139
Mof_H 	H 	0.1031	0.499	0.8354	0.144
Mof_H 	H 	0.1525	0.4774	0.8268	0.138
Mof_C 	C 	0.0523	0.31613	0.6192	0.396
Mof_C 	C 	0.0286	0.29631	0.6074	-0.137
Mof_C 	C 	0.9795	0.2971	0.5873	-0.01
Mof_H 	H 	0.9676	0.3117	0.5793	0.033
Mof_C 	C 	0.9383	0.273	0.5757	-0.003
Mof_C 	C 	0.9745	0.25728	0.5958	-0.018
Mof_C 	C 	0.961	0.23222	0.5958	-0.033
Mof_C 	C 	0.9918	0.2147	0.5846	0.034
Mof_C 	C 	0.9688	0.19201	0.5927	-0.05
Mof_H 	H 	0.9876	0.1778	0.5857	0.051
Mof_C 	C 	0.9161	0.19382	0.61172	-0.075
Mof_C 	C 	0.8737	0.17442	0.6251	0.337
Mof_C 	C 	0.8959	0.273	0.5491	-0.08
Mof_H 	H 	0.891	0.2889	0.5414	0.041
Mof_H 	H 	0.8475	0.2659	0.5514	0.037
Mof_C 	C 	0.9465	0.2575	0.5316	-0.175
Mof_H 	H 	0.9483	0.2413	0.5386	0.079
Mof_H 	H 	0.9961	0.2639	0.5308	0.076
Mof_C 	C 	0.9086	0.2586	0.5029	0.128
Mof_H 	H 	0.89	0.2744	0.4988	-0.062
Mof_H 	H 	0.8689	0.2471	0.5013	-0.019
Mof_C 	C 	0.9743	0.252	0.4841	-0.482
Mof_H 	H 	0.0158	0.2627	0.4869	0.161
Mof_H 	H 	0.9901	0.2357	0.487	0.158
Mof_C 	C 	0.9393	0.2555	0.4552	0.714
Mof_H 	H 	0.8938	0.2466	0.4534	-0.203
Mof_H 	H 	0.9728	0.2511	0.4403	-0.208
Mof_C 	C 	0.0589	0.2155	0.5665	-0.146
Mof_H 	H 	0.095	0.2058	0.5762	0.066
Mof_H 	H 	0.0765	0.2318	0.5681	0.069
Mof_C 	C 	0.068	0.2093	0.5358	-0.067
Mof_H 	H 	0.0378	0.2193	0.524	0.036
Mof_H 	H 	0.0562	0.1927	0.5323	0.041
Mof_C 	C 	0.1498	0.2142	0.5317	-0.075
Mof_H 	H 	0.159	0.231	0.5285	0.041
Mof_H 	H 	0.1787	0.2089	0.5476	0.045
Mof_C 	C 	0.166	0.1995	0.5058	-0.153
Mof_H 	H 	0.1347	0.1856	0.5047	0.065
Mof_H 	H 	0.2174	0.1946	0.5052	0.062
Mof_C 	C 	0.148	0.2174	0.4828	0.066
Mof_H 	H 	0.1341	0.2327	0.4904	-0.005
Mof_H 	H 	0.1101	0.2115	0.4704	-0.006
Mof_C 	C 	0.223	0.2187	0.468	-0.42
Mof_H 	H 	0.2298	0.2343	0.4604	0.133
Mof_H 	H 	0.2244	0.2071	0.4532	0.134
Mof_H 	H 	0.2616	0.2153	0.4812	0.137
Mof_C 	C 	0.3286	0.43595	0.3701	0.351
Mof_C 	C 	0.2846	0.45669	0.357	-0.069
Mof_C 	C 	0.2364	0.45488	0.3383	-0.052
Mof_H 	H 	0.224	0.4408	0.3292	0.051
Mof_C 	C 	0.2045	0.47676	0.3333	0.039
Mof_C 	C 	0.2342	0.49519	0.34839	-0.026
Mof_C 	C 	0.214	0.51933	0.3504	-0.03
Mof_C 	C 	0.2546	0.5392	0.3416	0.043
Mof_C 	C 	0.1599	0.55709	0.36245	-0.128
Mof_C 	C 	0.2237	0.55974	0.3481	-0.03
Mof_H 	H 	0.2437	0.5744	0.3434	0.044
Mof_C 	C 	0.1177	0.57409	0.3747	0.413
Mof_C 	C 	0.153	0.4811	0.3112	-0.145
Mof_H 	H 	0.1358	0.4973	0.314	0.068
Mof_H 	H 	0.1112	0.4709	0.315	0.063
Mof_C 	C 	0.1675	0.4788	0.28053	-0.074
Mof_H 	H 	0.1234	0.4824	0.2698	0.03
Mof_H 	H 	0.1838	0.4629	0.2759	0.039
Mof_C 	C 	0.2271	0.4967	0.27471	-0.052
Mof_H 	H 	0.2131	0.5123	0.2814	0.038
Mof_H 	H 	0.273	0.492	0.2835	0.04
Mof_C 	C 	0.2343	0.4966	0.24348	-0.195
Mof_H 	H 	0.2464	0.4808	0.2367	0.071
Mof_H 	H 	0.1888	0.5017	0.2347	0.067
Mof_C 	C 	0.2951	0.5136	0.2374	0.127
Mof_H 	H 	0.2818	0.5296	0.2432	-0.026
Mof_H 	H 	0.3399	0.509	0.2471	-0.026
Mof_C 	C 	0.3057	0.5125	0.2066	-0.466
Mof_H 	H 	0.3438	0.5234	0.2012	0.145
Mof_H 	H 	0.2604	0.5167	0.1974	0.141
Mof_H 	H 	0.3195	0.4966	0.2013	0.144
Mof_C 	C 	0.323	0.5368	0.3312	-0.142
Mof_H 	H 	0.3336	0.5201	0.3275	0.069
Mof_H 	H 	0.3592	0.5427	0.3444	0.064
Mof_C 	C 	0.3254	0.5509	0.3046	-0.103
Mof_H 	H 	0.3142	0.5675	0.308	0.049
Mof_H 	H 	0.2913	0.5446	0.2908	0.051
Mof_C 	C 	0.4045	0.5476	0.2954	0.006
Mof_H 	H 	0.4326	0.5622	0.2976	0.003
Mof_H 	H 	0.4284	0.535	0.3059	0.016
Mof_C 	C 	0.396	0.541	0.265	-0.248
Mof_H 	H 	0.3972	0.5239	0.2624	0.097
Mof_H 	H 	0.35	0.5472	0.2574	0.093
Mof_C 	C 	0.3199	0.36496	0.30839	0.283
Mof_C 	C 	0.3417	0.38246	0.28875	-0.076
Mof_C 	C 	0.3404	0.40524	0.29475	-0.042
Mof_H 	H 	0.3273	0.4118	0.3119	0.056
Mof_C 	C 	0.3784	0.4039	0.24802	-0.019
Mof_C 	C 	0.3931	0.40952	0.21923	-0.024
Mof_C 	C 	0.4576	0.40791	0.17494	-0.085
Mof_C 	C 	0.5089	0.4051	0.1505	0.368
Mof_C 	C 	0.3804	0.44515	0.27062	-0.116
Mof_H 	H 	0.3937	0.4504	0.252	0.057
Mof_H 	H 	0.336	0.4536	0.276	0.057
Mof_C 	C 	0.4406	0.45165	0.29014	-0.108
Mof_H 	H 	0.4297	0.4457	0.3087	0.064
Mof_H 	H 	0.4867	0.4446	0.284	0.062
Mof_C 	C 	0.5156	0.48344	0.30566	-0.222
Mof_H 	H 	0.5552	0.4731	0.2996	0.083
Mof_H 	H 	0.5297	0.4998	0.3018	0.079
Mof_C 	C 	0.5712	0.4865	0.3502	-0.482
Mof_H 	H 	0.5641	0.4851	0.37	0.148
Mof_H 	H 	0.5845	0.5026	0.3457	0.147
Mof_H 	H 	0.6097	0.4759	0.3443	0.15
Mof_C 	C 	0.2313	0.4302	0.1875	-0.102
Mof_H 	H 	0.2471	0.4308	0.1681	0.047
Mof_H 	H 	0.2161	0.4141	0.1919	0.053
Mof_C 	C 	0.1699	0.4472	0.1924	-0.022
Mof_H 	H 	0.1506	0.4531	0.1749	0.019
Mof_H 	H 	0.1862	0.4605	0.2037	0.018
Mof_C 	C 	0.3634	0.41861	0.26974	0.02
Mof_C 	C 	0.3629	0.42333	0.20225	0.012
Mof_C 	C 	0.4047	0.42365	0.17503	-0.036
Mof_H 	H 	0.3942	0.4338	0.1602	0.039
Mof_C 	C 	0.4469	0.47754	0.29063	-0.012
Mof_H 	H 	0.4048	0.4845	0.3001	0.026
Mof_H 	H 	0.4486	0.4838	0.2717	0.022
Mof_C 	C 	0.502	0.4803	0.3356	0.143
Mof_H 	H 	0.4885	0.4639	0.3395	-0.016
Mof_H 	H 	0.4622	0.4905	0.3417	-0.021
Mof_C 	C 	0.2921	0.4379	0.2063	-0.114
Mof_H 	H 	0.276	0.4364	0.2256	0.056
Mof_H 	H 	0.3028	0.4546	0.2029	0.043
Mof_C 	C 	0.1134	0.4329	0.2075	-0.214
Mof_H 	H 	0.132	0.4276	0.2255	0.082
Mof_H 	H 	0.0992	0.4191	0.1966	0.079
Mof_C 	C 	0.0498	0.4494	0.2111	0.143
Mof_H 	H 	0.047	0.4605	0.1957	-0.027
Mof_H 	H 	0.0039	0.4406	0.2122	-0.031
Mof_C 	C 	0.065	0.4621	0.2378	-0.491
Mof_H 	H 	0.025	0.473	0.2415	0.138
Mof_H 	H 	0.11	0.4707	0.2363	0.162
Mof_H 	H 	0.068	0.4508	0.2527	0.163
Mof_O 	O 	0.0329	0.41075	0.55442	-0.364
Mof_O 	O 	0.0275	0.38237	0.5843	-0.408
Mof_O 	O 	0.2584	0.37259	0.39531	-0.384
Mof_O 	O 	0.191	0.3458	0.37228	-0.404
Mof_O 	O 	0.1814	0.36274	0.59423	-0.384
Mof_O 	O 	0.2314	0.32811	0.61054	-0.389
Mof_O 	O 	0.3999	0.41465	0.44464	-0.341
Mof_O 	O 	0.4057	0.39015	0.40968	-0.404
Mof_O 	O 	0.9315	0.40491	0.63026	-0.405
Mof_O 	O 	0.0034	0.37728	0.64807	-0.398
Mof_O 	O 	0.8431	0.35877	0.84449	-0.395
Mof_O 	O 	0.8308	0.33337	0.81011	-0.346
Mof_O 	O 	0.0456	0.33653	0.61126	-0.39
Mof_O 	O 	0.1005	0.30906	0.63697	-0.375
Mof_O 	O 	0.8217	0.18128	0.64205	-0.375
Mof_O 	O 	0.8945	0.15393	0.62099	-0.364
Mof_O 	O 	0.3151	0.41599	0.36356	-0.378
Mof_O 	O 	0.3774	0.44223	0.38848	-0.366
Mof_O 	O 	0.0585	0.56729	0.3857	-0.379
Mof_O 	O 	0.132	0.59475	0.37217	-0.389
Mof_O 	O 	0.3074	0.34335	0.301	-0.33
Mof_O 	O 	0.2988	0.3704	0.3338	-0.394
Mof_O 	O 	0.5511	0.38906	0.15168	-0.383
Mof_O 	O 	0.4863	0.41761	0.12965	-0.394
Mof_S 	S 	0.07661	0.38344	0.50585	0.02
Mof_S 	S 	0.17751	0.36654	0.44926	0.033
Mof_S 	S 	0.2532	0.35973	0.53889	0.026
Mof_S 	S 	0.35308	0.38142	0.48692	0.024
Mof_S 	S 	0.94588	0.38314	0.70636	0.034
Mof_S 	S 	0.86575	0.3646	0.76448	0.02
Mof_S 	S 	0.0309	0.26891	0.61863	0.033
Mof_S 	S 	0.89575	0.22233	0.61952	0.012
Mof_S 	S 	0.30228	0.48371	0.36925	0.01
Mof_S 	S 	0.13973	0.52713	0.36716	0.025
Mof_S 	S 	0.3637	0.37452	0.25682	0.021
Mof_S 	S 	0.46699	0.39387	0.2047	0.033
Mof_Mn	Mn	0.97108	0.41672	0.5933	0.774
Mof_Mn	Mn	0.09034	0.37034	0.62038	1.021
Mof_Mn	Mn	0.20169	0.32154	0.64904	0.795
Mof_Mn	Mn	0.4639	0.42528	0.40701	0.779
Mof_Mn	Mn	0.35257	0.38069	0.37141	1.018
Mof_Mn	Mn	0.24126	0.3351	0.33763	0.806
Mof_H 	H 	0.9775	0.3314	0.4687	0.04
Mof_H 	H 	0.0157	0.309	0.4551	-0.178
Mof_C 	C 	0.9518	0.3277	0.4266	-0.266
Mof_H 	H 	0.9725	0.3197	0.4104	0.069
Mof_H 	H 	0.9423	0.3442	0.422	0.118
Mof_C 	C 	0.8822	0.3153	0.4369	0.83
Mof_H 	H 	0.8863	0.2981	0.4354	-0.76
Mof_H 	H 	0.871	0.3195	0.4561	-0.058
Mof_C 	C 	0.8249	0.3252	0.4168	-0.658
Mof_H 	H 	0.8463	0.3286	0.3987	0.2
Mof_H 	H 	0.8021	0.3395	0.4242	0.206
Mof_C 	C 	0.7702	0.3047	0.4153	0.357
Mof_H 	H 	0.7273	0.3076	0.4269	-0.092
Mof_H 	H 	0.7927	0.2897	0.4207	-0.095
Mof_C 	C 	0.751	0.3051	0.3842	-0.628
Mof_H 	H 	0.7103	0.2945	0.3808	0.195
Mof_H 	H 	0.7926	0.3001	0.3735	0.192
Mof_H 	H 	0.7369	0.321	0.3789	0.197
Mof_H 	H 	0.4525	0.5559	0.2319	-0.035
Mof_H 	H 	0.5053	0.5431	0.2534	-0.054
Mof_H 	H 	0.5049	0.5858	0.2586	0.149
Mof_H 	H 	0.4852	0.5724	0.2863	0.172
Mof_H 	H 	0.4225	0.5838	0.2682	0.166
Mof_C 	C 	0.461	0.5528	0.2515	0.205
Mof_C 	C 	0.469	0.5758	0.2676	-0.518
Mof_C 	C 	0.425	0.7824	0.4559	-1.719
Mof_H 	H 	0.3998	0.7871	0.4392	0.992
Mof_H 	H 	0.4716	0.7907	0.4569	0.545
Mof_H 	H 	0.396	0.7863	0.4719	0.557
Mof_C 	C 	0.357	0.8412	0.4823	-0.089
Mof_H 	H 	0.3963	0.8527	0.4833	0.047
Mof_H 	H 	0.3122	0.8489	0.4756	0.039
Mof_C 	C 	0.344	0.8288	0.5105	0.035
Mof_H 	H 	0.376	0.8151	0.5127	0.002
Mof_H 	H 	0.2932	0.8241	0.5129	0
Mof_C 	C 	0.366	0.8491	0.5304	-0.399
Mof_H 	H 	0.3221	0.8557	0.5388	0.125
Mof_H 	H 	0.3908	0.8614	0.5201	0.133
Mof_H 	H 	0.3977	0.8431	0.5447	0.138
Mof_C 	C 	0.8393	0.85279	0.49342	-0.018
Mof_C 	C 	0.8435	0.83945	0.46969	0.019
Mof_C 	C 	0.8582	0.85317	0.4476	-0.029
Mof_H 	H 	0.8618	0.847	0.4296	0.053
Mof_C 	C 	0.8671	0.87552	0.45272	-0.089
Mof_C 	C 	0.5377	0.89058	0.55973	0.329
Mof_C 	C 	0.5641	0.87295	0.53779	-0.069
Mof_C 	C 	0.5678	0.84989	0.54009	-0.053
Mof_H 	H 	0.56	0.8416	0.5567	0.057
Mof_C 	C 	0.5855	0.83862	0.5137	0.04
Mof_C 	C 	0.5894	0.85551	0.49403	-0.038
Mof_C 	C 	0.6046	0.85229	0.46437	0.013
Mof_C 	C 	0.5683	0.8403	0.445	-0.079
Mof_C 	C 	0.6067	0.84008	0.41977	0.025
Mof_H 	H 	0.5923	0.8305	0.4049	0.015
Mof_C 	C 	0.6622	0.85367	0.41811	-0.12
Mof_C 	C 	0.7101	0.85798	0.39377	0.381
Mof_C 	C 	0.5942	0.81316	0.5116	-0.129
Mof_H 	H 	0.6056	0.8089	0.4924	0.061
Mof_H 	H 	0.5483	0.8054	0.5166	0.058
Mof_C 	C 	0.6542	0.8045	0.5303	-0.104
Mof_H 	H 	0.7014	0.8112	0.5248	0.061
Mof_H 	H 	0.6444	0.8088	0.5496	0.064
Mof_C 	C 	0.6538	0.77822	0.5266	-0.014
Mof_H 	H 	0.6081	0.7714	0.5335	0.022
Mof_H 	H 	0.6595	0.774	0.5071	0.019
Mof_C 	C 	0.7174	0.76955	0.54323	-0.227
Mof_H 	H 	0.7288	0.7532	0.5385	0.086
Mof_H 	H 	0.7607	0.7793	0.5398	0.091
Mof_C 	C 	0.6945	0.7714	0.5726	0.152
Mof_H 	H 	0.6552	0.7602	0.5766	-0.024
Mof_H 	H 	0.677	0.7874	0.5767	-0.014
Mof_C 	C 	0.7606	0.7659	0.5895	-0.49
Mof_H 	H 	0.7489	0.7673	0.609	0.148
Mof_H 	H 	0.7993	0.7768	0.5849	0.161
Mof_H 	H 	0.7765	0.7499	0.5855	0.158
Mof_C 	C 	0.5018	0.8254	0.452	0.146
Mof_H 	H 	0.4995	0.8243	0.4722	-0.034
Mof_H 	H 	0.5115	0.8095	0.4451	0.086
Mof_C 	C 	0.425	0.8324	0.4419	-0.397
Mof_H 	H 	0.4152	0.8263	0.4233	0.072
Mof_H 	H 	0.4178	0.8495	0.4422	0.125
Mof_C 	C 	0.3776	0.8198	0.464	-0.147
Mof_H 	H 	0.3345	0.8123	0.4558	-0.01
Mof_H 	H 	0.4056	0.8081	0.4744	0.033
Mof_C 	C 	0.7171	0.8459	0.5922	0.346
Mof_C 	C 	0.7732	0.84288	0.56649	-0.059
Mof_C 	C 	0.8226	0.8273	0.56331	-0.061
Mof_H 	H 	0.8348	0.816	0.5767	0.043
Mof_C 	C 	0.857	0.8293	0.53715	0.043
Mof_C 	C 	0.8219	0.8461	0.52148	-0.033
Mof_C 	C 	0.8909	0.89437	0.43552	0.319
Mof_C 	C 	0.9175	0.8144	0.5289	-0.163
Mof_H 	H 	0.9273	0.8167	0.5091	0.069
Mof_H 	H 	0.9041	0.7979	0.5317	0.064
Mof_C 	C 	0.9857	0.8197	0.5451	-0.047
Mof_H 	H 	0.0238	0.808	0.5412	0.032
Mof_H 	H 	0.9757	0.8197	0.565	0.019
Mof_C 	C 	0.0084	0.8438	0.5354	-0.061
Mof_H 	H 	0.0289	0.8431	0.5167	0.038
Mof_H 	H 	0.9667	0.8546	0.5354	0.047
Mof_C 	C 	0.0653	0.8516	0.556	-0.176
Mof_H 	H 	0.0978	0.8635	0.5478	0.064
Mof_H 	H 	0.0424	0.8583	0.5726	0.068
Mof_C 	C 	0.1065	0.8295	0.5629	0.114
Mof_H 	H 	0.1573	0.833	0.5677	-0.024
Mof_H 	H 	0.1059	0.8184	0.5473	-0.014
Mof_C 	C 	0.066	0.8194	0.5874	-0.463
Mof_H 	H 	0.097	0.8081	0.5968	0.142
Mof_H 	H 	0.022	0.8117	0.5811	0.152
Mof_H 	H 	0.0536	0.832	0.6001	0.146
Mof_C 	C 	0.8211	0.81325	0.46695	-0.12
Mof_H 	H 	0.8638	0.8042	0.4609	0.059
Mof_H 	H 	0.8071	0.8074	0.4853	0.059
Mof_C 	C 	0.7595	0.80848	0.44714	-0.099
Mof_H 	H 	0.7139	0.8153	0.454	0.059
Mof_H 	H 	0.7701	0.8152	0.4289	0.061
Mof_C 	C 	0.7535	0.78239	0.4454	-0.026
Mof_H 	H 	0.7631	0.7751	0.4634	0.024
Mof_H 	H 	0.788	0.776	0.4318	0.033
Mof_C 	C 	0.6765	0.7781	0.4365	-0.214
Mof_H 	H 	0.6534	0.7662	0.4483	0.078
Mof_H 	H 	0.6479	0.7926	0.4375	0.082
Mof_C 	C 	0.6818	0.7695	0.4074	0.139
Mof_H 	H 	0.7261	0.7754	0.3984	-0.017
Mof_H 	H 	0.6393	0.7745	0.3965	-0.029
Mof_C 	C 	0.684	0.7431	0.4102	-0.483
Mof_H 	H 	0.692	0.736	0.3922	0.152
Mof_H 	H 	0.6383	0.7375	0.4178	0.155
Mof_H 	H 	0.7238	0.7387	0.4225	0.152
Mof_C 	C 	0.4559	0.8915	0.6492	0.394
Mof_C 	C 	0.3455	0.91331	0.70916	0.028
Mof_C 	C 	0.4225	0.89685	0.67797	-0.089
Mof_C 	C 	0.3728	0.9136	0.6826	-0.043
Mof_H 	H 	0.358	0.9245	0.6691	0.042
Mof_C 	C 	0.3807	0.89835	0.72595	-0.029
Mof_C 	C 	0.3811	0.89297	0.75453	-0.023
Mof_C 	C 	0.3791	0.907	0.77697	0.028
Mof_C 	C 	0.3715	0.89566	0.80271	-0.049
Mof_H 	H 	0.3717	0.903	0.8202	0.059
Mof_C 	C 	0.3638	0.87231	0.79787	-0.07
Mof_C 	C 	0.3478	0.85389	0.81855	0.301
Mof_C 	C 	0.2799	0.9267	0.72	-0.143
Mof_H 	H 	0.2925	0.9435	0.7204	0.056
Mof_H 	H 	0.2712	0.9218	0.7391	0.066
Mof_C 	C 	0.2084	0.924	0.7039	-0.064
Mof_H 	H 	0.2172	0.9223	0.684	0.037
Mof_H 	H 	0.1757	0.9374	0.7071	0.029
Mof_C 	C 	0.1769	0.9011	0.7164	-0.077
Mof_H 	H 	0.1405	0.9044	0.7307	0.033
Mof_H 	H 	0.2154	0.891	0.724	0.05
Mof_C 	C 	0.1418	0.8901	0.6901	-0.143
Mof_H 	H 	0.1449	0.9007	0.6742	0.058
Mof_H 	H 	0.0908	0.8857	0.6933	0.054
Mof_C 	C 	0.191	0.8681	0.6865	0.049
Mof_H 	H 	0.2404	0.8708	0.6941	0.014
Mof_H 	H 	0.1701	0.8541	0.6951	0.002
Mof_C 	C 	0.193	0.8661	0.6545	-0.401
Mof_H 	H 	0.2261	0.8536	0.6491	0.133
Mof_H 	H 	0.2094	0.8809	0.6466	0.132
Mof_H 	H 	0.1443	0.8625	0.6478	0.127
Mof_C 	C 	0.3912	0.9337	0.7767	-0.124
Mof_H 	H 	0.3944	0.9392	0.7575	0.058
Mof_H 	H 	0.3494	0.9415	0.7854	0.059
Mof_C 	C 	0.4603	0.94038	0.7919	-0.098
Mof_H 	H 	0.459	0.9346	0.811	0.063
Mof_H 	H 	0.5033	0.9338	0.7826	0.06
Mof_C 	C 	0.4618	0.96671	0.7913	-0.031
Mof_H 	H 	0.4504	0.9725	0.7727	0.025
Mof_H 	H 	0.4261	0.9732	0.8043	0.032
Mof_C 	C 	0.537	0.9737	0.7994	-0.191
Mof_H 	H 	0.5448	0.9905	0.7956	0.07
Mof_H 	H 	0.5731	0.9646	0.7889	0.073
Mof_C 	C 	0.5442	0.9688	0.8296	0.106
Mof_H 	H 	0.5504	0.9519	0.833	-0.006
Mof_H 	H 	0.5012	0.9744	0.8398	-0.005
Mof_C 	C 	0.6115	0.9823	0.8381	-0.451
Mof_H 	H 	0.6221	0.9793	0.8574	0.139
Mof_H 	H 	0.6031	0.999	0.8354	0.144
Mof_H 	H 	0.6525	0.9774	0.8268	0.138
Mof_C 	C 	0.5523	0.81613	0.6192	0.396
Mof_C 	C 	0.5286	0.79631	0.6074	-0.138
Mof_C 	C 	0.4795	0.7971	0.5873	-0.008
Mof_H 	H 	0.4676	0.8117	0.5793	0.033
Mof_C 	C 	0.4383	0.773	0.5757	-0.003
Mof_C 	C 	0.4745	0.75728	0.5958	-0.017
Mof_C 	C 	0.461	0.73222	0.5958	-0.033
Mof_C 	C 	0.4918	0.7147	0.5846	0.036
Mof_C 	C 	0.4688	0.69201	0.5927	-0.05
Mof_H 	H 	0.4876	0.6778	0.5857	0.051
Mof_C 	C 	0.4161	0.69382	0.61172	-0.075
Mof_C 	C 	0.3737	0.67442	0.6251	0.337
Mof_C 	C 	0.3959	0.773	0.5491	-0.08
Mof_H 	H 	0.391	0.7889	0.5414	0.041
Mof_H 	H 	0.3475	0.7659	0.5514	0.037
Mof_C 	C 	0.4465	0.7575	0.5316	-0.175
Mof_H 	H 	0.4483	0.7413	0.5386	0.079
Mof_H 	H 	0.4961	0.7639	0.5308	0.076
Mof_C 	C 	0.4086	0.7586	0.5029	0.125
Mof_H 	H 	0.39	0.7744	0.4988	-0.061
Mof_H 	H 	0.3689	0.7471	0.5013	-0.019
Mof_C 	C 	0.4743	0.752	0.4841	-0.477
Mof_H 	H 	0.5158	0.7627	0.4869	0.159
Mof_H 	H 	0.4901	0.7357	0.487	0.157
Mof_C 	C 	0.4393	0.7555	0.4552	0.709
Mof_H 	H 	0.3938	0.7466	0.4534	-0.201
Mof_H 	H 	0.4728	0.7511	0.4403	-0.206
Mof_C 	C 	0.5589	0.7155	0.5665	-0.149
Mof_H 	H 	0.595	0.7058	0.5762	0.066
Mof_H 	H 	0.5765	0.7318	0.5681	0.069
Mof_C 	C 	0.568	0.7093	0.5358	-0.066
Mof_H 	H 	0.5378	0.7193	0.524	0.035
Mof_H 	H 	0.5562	0.6927	0.5323	0.04
Mof_C 	C 	0.6498	0.7142	0.5317	-0.075
Mof_H 	H 	0.659	0.731	0.5285	0.041
Mof_H 	H 	0.6787	0.7089	0.5476	0.045
Mof_C 	C 	0.666	0.6995	0.5058	-0.152
Mof_H 	H 	0.6347	0.6856	0.5047	0.065
Mof_H 	H 	0.7174	0.6946	0.5052	0.062
Mof_C 	C 	0.648	0.7174	0.4828	0.066
Mof_H 	H 	0.6341	0.7327	0.4904	-0.005
Mof_H 	H 	0.6101	0.7115	0.4704	-0.006
Mof_C 	C 	0.723	0.7187	0.468	-0.419
Mof_H 	H 	0.7298	0.7343	0.4604	0.133
Mof_H 	H 	0.7244	0.7071	0.4532	0.134
Mof_H 	H 	0.7616	0.7153	0.4812	0.137
Mof_C 	C 	0.8286	0.93595	0.3701	0.351
Mof_C 	C 	0.7846	0.95669	0.357	-0.069
Mof_C 	C 	0.7364	0.95488	0.3383	-0.052
Mof_H 	H 	0.724	0.9408	0.3292	0.051
Mof_C 	C 	0.7045	0.97676	0.3333	0.038
Mof_C 	C 	0.7342	0.99519	0.34839	-0.026
Mof_C 	C 	0.714	0.01933	0.3504	-0.03
Mof_C 	C 	0.7546	0.0392	0.3416	0.043
Mof_C 	C 	0.6599	0.05709	0.36245	-0.128
Mof_C 	C 	0.7237	0.05974	0.3481	-0.03
Mof_H 	H 	0.7437	0.0744	0.3434	0.044
Mof_C 	C 	0.6177	0.07409	0.3747	0.413
Mof_C 	C 	0.653	0.9811	0.3112	-0.145
Mof_H 	H 	0.6358	0.9973	0.314	0.068
Mof_H 	H 	0.6112	0.9709	0.315	0.063
Mof_C 	C 	0.6675	0.9788	0.28053	-0.074
Mof_H 	H 	0.6234	0.9824	0.2698	0.03
Mof_H 	H 	0.6838	0.9629	0.2759	0.039
Mof_C 	C 	0.7271	0.9967	0.27471	-0.052
Mof_H 	H 	0.7131	0.0123	0.2814	0.038
Mof_H 	H 	0.773	0.992	0.2835	0.04
Mof_C 	C 	0.7343	0.9966	0.24348	-0.195
Mof_H 	H 	0.7464	0.9808	0.2367	0.071
Mof_H 	H 	0.6888	0.0017	0.2347	0.067
Mof_C 	C 	0.7951	0.0136	0.2374	0.127
Mof_H 	H 	0.7818	0.0296	0.2432	-0.026
Mof_H 	H 	0.8399	0.009	0.2471	-0.026
Mof_C 	C 	0.8057	0.0125	0.2066	-0.466
Mof_H 	H 	0.8438	0.0234	0.2012	0.145
Mof_H 	H 	0.7604	0.0167	0.1974	0.141
Mof_H 	H 	0.8195	0.9966	0.2013	0.144
Mof_C 	C 	0.823	0.0368	0.3312	-0.142
Mof_H 	H 	0.8336	0.0201	0.3275	0.069
Mof_H 	H 	0.8592	0.0427	0.3444	0.064
Mof_C 	C 	0.8254	0.0509	0.3046	-0.103
Mof_H 	H 	0.8142	0.0675	0.308	0.049
Mof_H 	H 	0.7913	0.0446	0.2908	0.051
Mof_C 	C 	0.9045	0.0476	0.2954	0.006
Mof_H 	H 	0.9326	0.0622	0.2976	0.003
Mof_H 	H 	0.9284	0.035	0.3059	0.016
Mof_C 	C 	0.896	0.041	0.265	-0.248
Mof_H 	H 	0.8972	0.0239	0.2624	0.097
Mof_H 	H 	0.85	0.0472	0.2574	0.093
Mof_C 	C 	0.8199	0.86496	0.30839	0.283
Mof_C 	C 	0.8417	0.88246	0.28875	-0.076
Mof_C 	C 	0.8404	0.90524	0.29475	-0.042
Mof_H 	H 	0.8273	0.9118	0.3119	0.056
Mof_C 	C 	0.8784	0.9039	0.24802	-0.019
Mof_C 	C 	0.8931	0.90952	0.21923	-0.024
Mof_C 	C 	0.9576	0.90791	0.17494	-0.084
Mof_C 	C 	0.0089	0.9051	0.1505	0.367
Mof_C 	C 	0.8804	0.94515	0.27062	-0.116
Mof_H 	H 	0.8937	0.9504	0.252	0.057
Mof_H 	H 	0.836	0.9536	0.276	0.057
Mof_C 	C 	0.9406	0.95165	0.29014	-0.109
Mof_H 	H 	0.9297	0.9457	0.3087	0.064
Mof_H 	H 	0.9867	0.9446	0.284	0.062
Mof_C 	C 	0.0156	0.98344	0.30566	-0.224
Mof_H 	H 	0.0552	0.9731	0.2996	0.084
Mof_H 	H 	0.0297	0.9998	0.3018	0.08
Mof_C 	C 	0.0712	0.9865	0.3502	-0.486
Mof_H 	H 	0.0641	0.9851	0.37	0.149
Mof_H 	H 	0.0845	0.0026	0.3457	0.149
Mof_H 	H 	0.1097	0.9759	0.3443	0.151
Mof_C 	C 	0.7313	0.9302	0.1875	-0.102
Mof_H 	H 	0.7471	0.9308	0.1681	0.047
Mof_H 	H 	0.7161	0.9141	0.1919	0.053
Mof_C 	C 	0.6699	0.9472	0.1924	-0.022
Mof_H 	H 	0.6506	0.9531	0.1749	0.019
Mof_H 	H 	0.6862	0.9605	0.2037	0.018
Mof_C 	C 	0.8634	0.91861	0.26974	0.02
Mof_C 	C 	0.8629	0.92333	0.20225	0.012
Mof_C 	C 	0.9047	0.92365	0.17503	-0.036
Mof_H 	H 	0.8942	0.9338	0.1602	0.039
Mof_C 	C 	0.9469	0.97754	0.29063	-0.011
Mof_H 	H 	0.9048	0.9845	0.3001	0.026
Mof_H 	H 	0.9486	0.9838	0.2717	0.021
Mof_C 	C 	0.002	0.9803	0.3356	0.148
Mof_H 	H 	0.9885	0.9639	0.3395	-0.018
Mof_H 	H 	0.9622	0.9905	0.3417	-0.023
Mof_C 	C 	0.7921	0.9379	0.2063	-0.114
Mof_H 	H 	0.776	0.9364	0.2256	0.056
Mof_H 	H 	0.8028	0.9546	0.2029	0.043
Mof_C 	C 	0.6134	0.9329	0.2075	-0.214
Mof_H 	H 	0.632	0.9276	0.2255	0.082
Mof_H 	H 	0.5992	0.9191	0.1966	0.079
Mof_C 	C 	0.5498	0.9494	0.2111	0.143
Mof_H 	H 	0.547	0.9605	0.1957	-0.027
Mof_H 	H 	0.5039	0.9406	0.2122	-0.031
Mof_C 	C 	0.565	0.9621	0.2378	-0.49
Mof_H 	H 	0.525	0.973	0.2415	0.138
Mof_H 	H 	0.61	0.9707	0.2363	0.162
Mof_H 	H 	0.568	0.9508	0.2527	0.163
Mof_O 	O 	0.5329	0.91075	0.55442	-0.365
Mof_O 	O 	0.5275	0.88237	0.5843	-0.408
Mof_O 	O 	0.7584	0.87259	0.39531	-0.384
Mof_O 	O 	0.691	0.8458	0.37228	-0.404
Mof_O 	O 	0.6814	0.86274	0.59423	-0.384
Mof_O 	O 	0.7314	0.82811	0.61054	-0.389
Mof_O 	O 	0.8999	0.91465	0.44464	-0.341
Mof_O 	O 	0.9057	0.89015	0.40968	-0.404
Mof_O 	O 	0.4315	0.90491	0.63026	-0.405
Mof_O 	O 	0.5034	0.87728	0.64807	-0.399
Mof_O 	O 	0.3431	0.85877	0.84449	-0.395
Mof_O 	O 	0.3308	0.83337	0.81011	-0.346
Mof_O 	O 	0.5456	0.83653	0.61126	-0.39
Mof_O 	O 	0.6005	0.80906	0.63697	-0.375
Mof_O 	O 	0.3217	0.68128	0.64205	-0.375
Mof_O 	O 	0.3945	0.65393	0.62099	-0.364
Mof_O 	O 	0.8151	0.91599	0.36356	-0.378
Mof_O 	O 	0.8774	0.94223	0.38848	-0.366
Mof_O 	O 	0.5585	0.06729	0.3857	-0.38
Mof_O 	O 	0.632	0.09475	0.37217	-0.39
Mof_O 	O 	0.8074	0.84335	0.301	-0.33
Mof_O 	O 	0.7988	0.8704	0.3338	-0.394
Mof_O 	O 	0.0511	0.88906	0.15168	-0.383
Mof_O 	O 	0.9863	0.91761	0.12965	-0.392
Mof_S 	S 	0.57661	0.88344	0.50585	0.02
Mof_S 	S 	0.67751	0.86654	0.44926	0.033
Mof_S 	S 	0.7532	0.85973	0.53889	0.026
Mof_S 	S 	0.85308	0.88142	0.48692	0.024
Mof_S 	S 	0.44588	0.88314	0.70636	0.034
Mof_S 	S 	0.36575	0.8646	0.76448	0.02
Mof_S 	S 	0.5309	0.76891	0.61863	0.032
Mof_S 	S 	0.39575	0.72233	0.61952	0.012
Mof_S 	S 	0.80228	0.98371	0.36925	0.01
Mof_S 	S 	0.63973	0.02713	0.36716	0.025
Mof_S 	S 	0.8637	0.87452	0.25682	0.021
Mof_S 	S 	0.96699	0.89387	0.2047	0.033
Mof_Mn	Mn	0.47108	0.91672	0.5933	0.776
Mof_Mn	Mn	0.59034	0.87034	0.62038	1.021
Mof_Mn	Mn	0.70169	0.82154	0.64904	0.795
Mof_Mn	Mn	0.9639	0.92528	0.40701	0.778
Mof_Mn	Mn	0.85257	0.88069	0.37141	1.018
Mof_Mn	Mn	0.74126	0.8351	0.33763	0.806
Mof_H 	H 	0.4775	0.8314	0.4687	0.04
Mof_H 	H 	0.5157	0.809	0.4551	-0.177
Mof_C 	C 	0.4518	0.8277	0.4266	-0.265
Mof_H 	H 	0.4725	0.8197	0.4104	0.069
Mof_H 	H 	0.4423	0.8442	0.422	0.117
Mof_C 	C 	0.3822	0.8153	0.4369	0.824
Mof_H 	H 	0.3863	0.7981	0.4354	-0.755
Mof_H 	H 	0.371	0.8195	0.4561	-0.058
Mof_C 	C 	0.3249	0.8252	0.4168	-0.655
Mof_H 	H 	0.3463	0.8286	0.3987	0.2
Mof_H 	H 	0.3021	0.8395	0.4242	0.205
Mof_C 	C 	0.2702	0.8047	0.4153	0.356
Mof_H 	H 	0.2273	0.8076	0.4269	-0.091
Mof_H 	H 	0.2927	0.7897	0.4207	-0.094
Mof_C 	C 	0.251	0.8051	0.3842	-0.627
Mof_H 	H 	0.2103	0.7945	0.3808	0.195
Mof_H 	H 	0.2926	0.8001	0.3735	0.192
Mof_H 	H 	0.2369	0.821	0.3789	0.196
Mof_H 	H 	0.9525	0.0559	0.2319	-0.035
Mof_H 	H 	0.0053	0.0431	0.2534	-0.054
Mof_H 	H 	0.0049	0.0858	0.2586	0.149
Mof_H 	H 	0.9852	0.0724	0.2863	0.171
Mof_H 	H 	0.9225	0.0838	0.2682	0.166
Mof_C 	C 	0.961	0.0528	0.2515	0.205
Mof_C 	C 	0.969	0.0758	0.2676	-0.518
Mof_C 	C 	0.075	0.7176	0.9559	-1.727
Mof_H 	H 	0.1002	0.7129	0.9392	0.997
Mof_H 	H 	0.0284	0.7093	0.9569	0.547
Mof_H 	H 	0.104	0.7137	0.9719	0.56
Mof_C 	C 	0.143	0.6588	0.9823	-0.087
Mof_H 	H 	0.1037	0.6473	0.9833	0.046
Mof_H 	H 	0.1878	0.6511	0.9756	0.038
Mof_C 	C 	0.156	0.6712	0.0105	0.034
Mof_H 	H 	0.124	0.6849	0.0127	0.002
Mof_H 	H 	0.2068	0.6759	0.0129	0.001
Mof_C 	C 	0.134	0.6509	0.0304	-0.398
Mof_H 	H 	0.1779	0.6443	0.0388	0.125
Mof_H 	H 	0.1092	0.6386	0.0201	0.133
Mof_H 	H 	0.1023	0.6569	0.0447	0.138
Mof_C 	C 	0.6607	0.64721	0.99342	-0.018
Mof_C 	C 	0.6565	0.66055	0.96969	0.019
Mof_C 	C 	0.6418	0.64683	0.9476	-0.029
Mof_H 	H 	0.6382	0.653	0.9296	0.053
Mof_C 	C 	0.6329	0.62448	0.95272	-0.089
Mof_C 	C 	0.9623	0.60942	0.05973	0.329
Mof_C 	C 	0.9359	0.62705	0.03779	-0.069
Mof_C 	C 	0.9322	0.65011	0.04009	-0.053
Mof_H 	H 	0.94	0.6584	0.0567	0.057
Mof_C 	C 	0.9145	0.66138	0.0137	0.041
Mof_C 	C 	0.9106	0.64449	0.99403	-0.038
Mof_C 	C 	0.8954	0.64771	0.96437	0.014
Mof_C 	C 	0.9317	0.6597	0.945	-0.081
Mof_C 	C 	0.8933	0.65992	0.91977	0.026
Mof_H 	H 	0.9077	0.6695	0.9049	0.015
Mof_C 	C 	0.8378	0.64633	0.91811	-0.12
Mof_C 	C 	0.7899	0.64202	0.89377	0.381
Mof_C 	C 	0.9058	0.68684	0.0116	-0.13
Mof_H 	H 	0.8944	0.6911	0.9924	0.061
Mof_H 	H 	0.9517	0.6946	0.0166	0.059
Mof_C 	C 	0.8458	0.6955	0.0303	-0.103
Mof_H 	H 	0.7986	0.6888	0.0248	0.061
Mof_H 	H 	0.8556	0.6912	0.0496	0.064
Mof_C 	C 	0.8462	0.72178	0.0266	-0.014
Mof_H 	H 	0.8919	0.7286	0.0335	0.022
Mof_H 	H 	0.8405	0.726	0.0071	0.02
Mof_C 	C 	0.7826	0.73045	0.04323	-0.226
Mof_H 	H 	0.7712	0.7468	0.0385	0.086
Mof_H 	H 	0.7393	0.7207	0.0398	0.091
Mof_C 	C 	0.8055	0.7286	0.0726	0.151
Mof_H 	H 	0.8448	0.7398	0.0766	-0.024
Mof_H 	H 	0.823	0.7126	0.0767	-0.014
Mof_C 	C 	0.7394	0.7341	0.0895	-0.49
Mof_H 	H 	0.7511	0.7327	0.109	0.148
Mof_H 	H 	0.7007	0.7232	0.0849	0.161
Mof_H 	H 	0.7235	0.7501	0.0855	0.158
Mof_C 	C 	0.9982	0.6746	0.952	0.153
Mof_H 	H 	0.0005	0.6757	0.9722	-0.037
Mof_H 	H 	0.9885	0.6905	0.9451	0.085
Mof_C 	C 	0.075	0.6676	0.9419	-0.402
Mof_H 	H 	0.0848	0.6737	0.9233	0.072
Mof_H 	H 	0.0822	0.6505	0.9422	0.126
Mof_C 	C 	0.1224	0.6802	0.964	-0.149
Mof_H 	H 	0.1655	0.6877	0.9558	-0.01
Mof_H 	H 	0.0944	0.6919	0.9744	0.033
Mof_C 	C 	0.7829	0.6541	0.0922	0.346
Mof_C 	C 	0.7268	0.65712	0.06649	-0.059
Mof_C 	C 	0.6774	0.6727	0.06331	-0.061
Mof_H 	H 	0.6652	0.684	0.0767	0.043
Mof_C 	C 	0.643	0.6707	0.03715	0.044
Mof_C 	C 	0.6781	0.6539	0.02148	-0.034
Mof_C 	C 	0.6091	0.60563	0.93552	0.319
Mof_C 	C 	0.5825	0.6856	0.0289	-0.167
Mof_H 	H 	0.5727	0.6833	0.0091	0.071
Mof_H 	H 	0.5959	0.7021	0.0317	0.065
Mof_C 	C 	0.5143	0.6803	0.0451	-0.04
Mof_H 	H 	0.4762	0.692	0.0412	0.029
Mof_H 	H 	0.5243	0.6803	0.065	0.017
Mof_C 	C 	0.4916	0.6562	0.0354	-0.069
Mof_H 	H 	0.4711	0.6569	0.0167	0.04
Mof_H 	H 	0.5333	0.6454	0.0354	0.05
Mof_C 	C 	0.4347	0.6484	0.056	-0.171
Mof_H 	H 	0.4022	0.6365	0.0478	0.062
Mof_H 	H 	0.4576	0.6417	0.0726	0.067
Mof_C 	C 	0.3935	0.6705	0.0629	0.11
Mof_H 	H 	0.3427	0.667	0.0677	-0.023
Mof_H 	H 	0.3941	0.6816	0.0473	-0.013
Mof_C 	C 	0.434	0.6806	0.0874	-0.46
Mof_H 	H 	0.403	0.6919	0.0968	0.141
Mof_H 	H 	0.478	0.6883	0.0811	0.151
Mof_H 	H 	0.4464	0.668	0.1001	0.145
Mof_C 	C 	0.6789	0.68675	0.96695	-0.12
Mof_H 	H 	0.6362	0.6958	0.9609	0.059
Mof_H 	H 	0.6929	0.6926	0.9853	0.059
Mof_C 	C 	0.7405	0.69152	0.94714	-0.099
Mof_H 	H 	0.7861	0.6847	0.954	0.059
Mof_H 	H 	0.7299	0.6848	0.9289	0.061
Mof_C 	C 	0.7465	0.71761	0.9454	-0.026
Mof_H 	H 	0.7369	0.7249	0.9634	0.024
Mof_H 	H 	0.712	0.724	0.9318	0.033
Mof_C 	C 	0.8235	0.7219	0.9365	-0.214
Mof_H 	H 	0.8466	0.7338	0.9483	0.078
Mof_H 	H 	0.8521	0.7074	0.9375	0.082
Mof_C 	C 	0.8182	0.7305	0.9074	0.14
Mof_H 	H 	0.7739	0.7246	0.8984	-0.018
Mof_H 	H 	0.8607	0.7255	0.8965	-0.029
Mof_C 	C 	0.816	0.7569	0.9102	-0.483
Mof_H 	H 	0.808	0.764	0.8922	0.153
Mof_H 	H 	0.8617	0.7625	0.9178	0.155
Mof_H 	H 	0.7762	0.7613	0.9225	0.152
Mof_C 	C 	0.0441	0.6085	0.1492	0.393
Mof_C 	C 	0.1545	0.58669	0.20916	0.028
Mof_C 	C 	0.0775	0.60315	0.17797	-0.088
Mof_C 	C 	0.1272	0.5864	0.1826	-0.043
Mof_H 	H 	0.142	0.5755	0.1691	0.042
Mof_C 	C 	0.1193	0.60165	0.22595	-0.029
Mof_C 	C 	0.1189	0.60703	0.25453	-0.023
Mof_C 	C 	0.1209	0.593	0.27697	0.028
Mof_C 	C 	0.1285	0.60434	0.30271	-0.049
Mof_H 	H 	0.1283	0.597	0.3202	0.059
Mof_C 	C 	0.1362	0.62769	0.29787	-0.07
Mof_C 	C 	0.1522	0.64611	0.31855	0.301
Mof_C 	C 	0.2201	0.5733	0.22	-0.143
Mof_H 	H 	0.2075	0.5565	0.2204	0.056
Mof_H 	H 	0.2288	0.5782	0.2391	0.066
Mof_C 	C 	0.2916	0.576	0.2039	-0.064
Mof_H 	H 	0.2828	0.5777	0.184	0.037
Mof_H 	H 	0.3243	0.5626	0.2071	0.029
Mof_C 	C 	0.3231	0.5989	0.2164	-0.077
Mof_H 	H 	0.3595	0.5956	0.2307	0.033
Mof_H 	H 	0.2846	0.609	0.224	0.05
Mof_C 	C 	0.3582	0.6099	0.1901	-0.143
Mof_H 	H 	0.3551	0.5993	0.1742	0.058
Mof_H 	H 	0.4092	0.6143	0.1933	0.054
Mof_C 	C 	0.309	0.6319	0.1865	0.049
Mof_H 	H 	0.2596	0.6292	0.1941	0.014
Mof_H 	H 	0.3299	0.6459	0.1951	0.002
Mof_C 	C 	0.307	0.6339	0.1545	-0.401
Mof_H 	H 	0.2739	0.6464	0.1491	0.133
Mof_H 	H 	0.2906	0.6191	0.1466	0.132
Mof_H 	H 	0.3557	0.6375	0.1478	0.127
Mof_C 	C 	0.1088	0.5663	0.2767	-0.124
Mof_H 	H 	0.1056	0.5608	0.2575	0.058
Mof_H 	H 	0.1506	0.5585	0.2854	0.059
Mof_C 	C 	0.0397	0.55962	0.2919	-0.098
Mof_H 	H 	0.041	0.5654	0.311	0.063
Mof_H 	H 	0.9967	0.5662	0.2826	0.059
Mof_C 	C 	0.0382	0.53329	0.2913	-0.03
Mof_H 	H 	0.0496	0.5275	0.2727	0.024
Mof_H 	H 	0.0739	0.5268	0.3043	0.031
Mof_C 	C 	0.963	0.5263	0.2994	-0.192
Mof_H 	H 	0.9552	0.5095	0.2956	0.071
Mof_H 	H 	0.9269	0.5354	0.2889	0.073
Mof_C 	C 	0.9558	0.5312	0.3296	0.107
Mof_H 	H 	0.9496	0.5481	0.333	-0.006
Mof_H 	H 	0.9988	0.5256	0.3398	-0.006
Mof_C 	C 	0.8885	0.5177	0.3381	-0.451
Mof_H 	H 	0.8779	0.5207	0.3574	0.139
Mof_H 	H 	0.8969	0.501	0.3354	0.144
Mof_H 	H 	0.8475	0.5226	0.3268	0.138
Mof_C 	C 	0.9477	0.68387	0.1192	0.396
Mof_C 	C 	0.9714	0.70369	0.1074	-0.137
Mof_C 	C 	0.0205	0.7029	0.0873	-0.01
Mof_H 	H 	0.0324	0.6883	0.0793	0.033
Mof_C 	C 	0.0617	0.727	0.0757	-0.003
Mof_C 	C 	0.0255	0.74272	0.0958	-0.018
Mof_C 	C 	0.039	0.76778	0.0958	-0.033
Mof_C 	C 	0.0082	0.7853	0.0846	0.034
Mof_C 	C 	0.0312	0.80799	0.0927	-0.05
Mof_H 	H 	0.0124	0.8222	0.0857	0.051
Mof_C 	C 	0.0839	0.80618	0.11172	-0.075
Mof_C 	C 	0.1263	0.82558	0.1251	0.337
Mof_C 	C 	0.1041	0.727	0.0491	-0.08
Mof_H 	H 	0.109	0.7111	0.0414	0.041
Mof_H 	H 	0.1525	0.7341	0.0514	0.037
Mof_C 	C 	0.0535	0.7425	0.0316	-0.175
Mof_H 	H 	0.0517	0.7587	0.0386	0.079
Mof_H 	H 	0.0039	0.7361	0.0308	0.076
Mof_C 	C 	0.0914	0.7414	0.0029	0.127
Mof_H 	H 	0.11	0.7256	0.9988	-0.062
Mof_H 	H 	0.1311	0.7529	0.0013	-0.019
Mof_C 	C 	0.0257	0.748	0.9841	-0.482
Mof_H 	H 	0.9842	0.7373	0.9869	0.161
Mof_H 	H 	0.0099	0.7643	0.987	0.158
Mof_C 	C 	0.0607	0.7445	0.9552	0.714
Mof_H 	H 	0.1062	0.7534	0.9534	-0.203
Mof_H 	H 	0.0272	0.7489	0.9403	-0.208
Mof_C 	C 	0.9411	0.7845	0.0665	-0.146
Mof_H 	H 	0.905	0.7942	0.0762	0.066
Mof_H 	H 	0.9235	0.7682	0.0681	0.069
Mof_C 	C 	0.932	0.7907	0.0358	-0.067
Mof_H 	H 	0.9622	0.7807	0.024	0.036
Mof_H 	H 	0.9438	0.8073	0.0323	0.041
Mof_C 	C 	0.8502	0.7858	0.0317	-0.075
Mof_H 	H 	0.841	0.769	0.0285	0.041
Mof_H 	H 	0.8213	0.7911	0.0476	0.045
Mof_C 	C 	0.834	0.8005	0.0058	-0.153
Mof_H 	H 	0.8653	0.8144	0.0047	0.065
Mof_H 	H 	0.7826	0.8054	0.0052	0.062
Mof_C 	C 	0.852	0.7826	0.9828	0.066
Mof_H 	H 	0.8659	0.7673	0.9904	-0.005
Mof_H 	H 	0.8899	0.7885	0.9704	-0.006
Mof_C 	C 	0.777	0.7813	0.968	-0.42
Mof_H 	H 	0.7702	0.7657	0.9604	0.133
Mof_H 	H 	0.7756	0.7929	0.9532	0.134
Mof_H 	H 	0.7384	0.7847	0.9812	0.137
Mof_C 	C 	0.6714	0.56405	0.8701	0.351
Mof_C 	C 	0.7154	0.54331	0.857	-0.069
Mof_C 	C 	0.7636	0.54512	0.8383	-0.052
Mof_H 	H 	0.776	0.5592	0.8292	0.051
Mof_C 	C 	0.7955	0.52324	0.8333	0.039
Mof_C 	C 	0.7658	0.50481	0.84839	-0.026
Mof_C 	C 	0.786	0.48067	0.8504	-0.03
Mof_C 	C 	0.7454	0.4608	0.8416	0.043
Mof_C 	C 	0.8401	0.44291	0.86245	-0.128
Mof_C 	C 	0.7763	0.44026	0.8481	-0.03
Mof_H 	H 	0.7563	0.4256	0.8434	0.044
Mof_C 	C 	0.8823	0.42591	0.8747	0.413
Mof_C 	C 	0.847	0.5189	0.8112	-0.145
Mof_H 	H 	0.8642	0.5027	0.814	0.068
Mof_H 	H 	0.8888	0.5291	0.815	0.063
Mof_C 	C 	0.8325	0.5212	0.78053	-0.074
Mof_H 	H 	0.8766	0.5176	0.7698	0.03
Mof_H 	H 	0.8162	0.5371	0.7759	0.039
Mof_C 	C 	0.7729	0.5033	0.77471	-0.052
Mof_H 	H 	0.7869	0.4877	0.7814	0.038
Mof_H 	H 	0.727	0.508	0.7835	0.04
Mof_C 	C 	0.7657	0.5034	0.74348	-0.195
Mof_H 	H 	0.7536	0.5192	0.7367	0.071
Mof_H 	H 	0.8112	0.4983	0.7347	0.067
Mof_C 	C 	0.7049	0.4864	0.7374	0.127
Mof_H 	H 	0.7182	0.4704	0.7432	-0.026
Mof_H 	H 	0.6601	0.491	0.7471	-0.026
Mof_C 	C 	0.6943	0.4875	0.7066	-0.466
Mof_H 	H 	0.6562	0.4766	0.7012	0.145
Mof_H 	H 	0.7396	0.4833	0.6974	0.141
Mof_H 	H 	0.6805	0.5034	0.7013	0.144
Mof_C 	C 	0.677	0.4632	0.8312	-0.142
Mof_H 	H 	0.6664	0.4799	0.8275	0.069
Mof_H 	H 	0.6408	0.4573	0.8444	0.064
Mof_C 	C 	0.6746	0.4491	0.8046	-0.103
Mof_H 	H 	0.6858	0.4325	0.808	0.049
Mof_H 	H 	0.7087	0.4554	0.7908	0.051
Mof_C 	C 	0.5955	0.4524	0.7954	0.006
Mof_H 	H 	0.5674	0.4378	0.7976	0.003
Mof_H 	H 	0.5716	0.465	0.8059	0.016
Mof_C 	C 	0.604	0.459	0.765	-0.248
Mof_H 	H 	0.6028	0.4761	0.7624	0.097
Mof_H 	H 	0.65	0.4528	0.7574	0.093
Mof_C 	C 	0.6801	0.63504	0.80839	0.283
Mof_C 	C 	0.6583	0.61754	0.78875	-0.076
Mof_C 	C 	0.6596	0.59476	0.79475	-0.042
Mof_H 	H 	0.6727	0.5882	0.8119	0.056
Mof_C 	C 	0.6216	0.5961	0.74802	-0.019
Mof_C 	C 	0.6069	0.59048	0.71923	-0.024
Mof_C 	C 	0.5424	0.59209	0.67494	-0.085
Mof_C 	C 	0.4911	0.5949	0.6505	0.368
Mof_C 	C 	0.6196	0.55485	0.77062	-0.116
Mof_H 	H 	0.6063	0.5496	0.752	0.057
Mof_H 	H 	0.664	0.5464	0.776	0.057
Mof_C 	C 	0.5594	0.54835	0.79014	-0.108
Mof_H 	H 	0.5703	0.5543	0.8087	0.064
Mof_H 	H 	0.5133	0.5554	0.784	0.062
Mof_C 	C 	0.4844	0.51656	0.80566	-0.222
Mof_H 	H 	0.4448	0.5269	0.7996	0.083
Mof_H 	H 	0.4703	0.5002	0.8018	0.079
Mof_C 	C 	0.4288	0.5135	0.8502	-0.482
Mof_H 	H 	0.4359	0.5149	0.87	0.148
Mof_H 	H 	0.4155	0.4974	0.8457	0.147
Mof_H 	H 	0.3903	0.5241	0.8443	0.15
Mof_C 	C 	0.7687	0.5698	0.6875	-0.102
Mof_H 	H 	0.7529	0.5692	0.6681	0.047
Mof_H 	H 	0.7839	0.5859	0.6919	0.053
Mof_C 	C 	0.8301	0.5528	0.6924	-0.022
Mof_H 	H 	0.8494	0.5469	0.6749	0.019
Mof_H 	H 	0.8138	0.5395	0.7037	0.018
Mof_C 	C 	0.6366	0.58139	0.76974	0.02
Mof_C 	C 	0.6371	0.57667	0.70225	0.012
Mof_C 	C 	0.5953	0.57635	0.67503	-0.036
Mof_H 	H 	0.6058	0.5662	0.6602	0.039
Mof_C 	C 	0.5531	0.52246	0.79063	-0.012
Mof_H 	H 	0.5952	0.5155	0.8001	0.026
Mof_H 	H 	0.5514	0.5162	0.7717	0.022
Mof_C 	C 	0.498	0.5197	0.8356	0.143
Mof_H 	H 	0.5115	0.5361	0.8395	-0.016
Mof_H 	H 	0.5378	0.5095	0.8417	-0.021
Mof_C 	C 	0.7079	0.5621	0.7063	-0.114
Mof_H 	H 	0.724	0.5636	0.7256	0.056
Mof_H 	H 	0.6972	0.5454	0.7029	0.043
Mof_C 	C 	0.8866	0.5671	0.7075	-0.214
Mof_H 	H 	0.868	0.5724	0.7255	0.082
Mof_H 	H 	0.9008	0.5809	0.6966	0.079
Mof_C 	C 	0.9502	0.5506	0.7111	0.143
Mof_H 	H 	0.953	0.5395	0.6957	-0.027
Mof_H 	H 	0.9961	0.5594	0.7122	-0.031
Mof_C 	C 	0.935	0.5379	0.7378	-0.49
Mof_H 	H 	0.975	0.527	0.7415	0.138
Mof_H 	H 	0.89	0.5293	0.7363	0.162
Mof_H 	H 	0.932	0.5492	0.7527	0.163
Mof_O 	O 	0.9671	0.58925	0.05442	-0.364
Mof_O 	O 	0.9725	0.61763	0.0843	-0.408
Mof_O 	O 	0.7416	0.62741	0.89531	-0.384
Mof_O 	O 	0.809	0.6542	0.87228	-0.404
Mof_O 	O 	0.8186	0.63726	0.09423	-0.384
Mof_O 	O 	0.7686	0.67189	0.11054	-0.389
Mof_O 	O 	0.6001	0.58535	0.94464	-0.341
Mof_O 	O 	0.5943	0.60985	0.90968	-0.404
Mof_O 	O 	0.0685	0.59509	0.13026	-0.405
Mof_O 	O 	0.9966	0.62272	0.14807	-0.398
Mof_O 	O 	0.1569	0.64123	0.34449	-0.395
Mof_O 	O 	0.1692	0.66663	0.31011	-0.346
Mof_O 	O 	0.9544	0.66347	0.11126	-0.39
Mof_O 	O 	0.8995	0.69094	0.13697	-0.375
Mof_O 	O 	0.1783	0.81872	0.14205	-0.375
Mof_O 	O 	0.1055	0.84607	0.12099	-0.364
Mof_O 	O 	0.6849	0.58401	0.86356	-0.378
Mof_O 	O 	0.6226	0.55777	0.88848	-0.366
Mof_O 	O 	0.9415	0.43271	0.8857	-0.379
Mof_O 	O 	0.868	0.40525	0.87217	-0.389
Mof_O 	O 	0.6926	0.65665	0.801	-0.33
Mof_O 	O 	0.7012	0.6296	0.8338	-0.394
Mof_O 	O 	0.4489	0.61094	0.65168	-0.383
Mof_O 	O 	0.5137	0.58239	0.62965	-0.394
Mof_S 	S 	0.92339	0.61656	0.00585	0.02
Mof_S 	S 	0.82249	0.63346	0.94926	0.033
Mof_S 	S 	0.7468	0.64027	0.03889	0.026
Mof_S 	S 	0.64692	0.61858	0.98692	0.024
Mof_S 	S 	0.05412	0.61686	0.20636	0.034
Mof_S 	S 	0.13425	0.6354	0.26448	0.02
Mof_S 	S 	0.9691	0.73109	0.11863	0.033
Mof_S 	S 	0.10425	0.77767	0.11952	0.012
Mof_S 	S 	0.69772	0.51629	0.86925	0.01
Mof_S 	S 	0.86027	0.47287	0.86716	0.025
Mof_S 	S 	0.6363	0.62548	0.75682	0.021
Mof_S 	S 	0.53301	0.60613	0.7047	0.033
Mof_Mn	Mn	0.02892	0.58328	0.0933	0.774
Mof_Mn	Mn	0.90966	0.62966	0.12038	1.021
Mof_Mn	Mn	0.79831	0.67846	0.14904	0.795
Mof_Mn	Mn	0.5361	0.57472	0.90701	0.779
Mof_Mn	Mn	0.64743	0.61931	0.87141	1.018
Mof_Mn	Mn	0.75874	0.6649	0.83763	0.806
Mof_H 	H 	0.0225	0.6686	0.9687	0.04
Mof_H 	H 	0.9843	0.691	0.9551	-0.178
Mof_C 	C 	0.0482	0.6723	0.9266	-0.266
Mof_H 	H 	0.0275	0.6803	0.9104	0.069
Mof_H 	H 	0.0577	0.6558	0.922	0.118
Mof_C 	C 	0.1178	0.6847	0.9369	0.83
Mof_H 	H 	0.1137	0.7019	0.9354	-0.76
Mof_H 	H 	0.129	0.6805	0.9561	-0.058
Mof_C 	C 	0.1751	0.6748	0.9168	-0.658
Mof_H 	H 	0.1537	0.6714	0.8987	0.2
Mof_H 	H 	0.1979	0.6605	0.9242	0.206
Mof_C 	C 	0.2298	0.6953	0.9153	0.357
Mof_H 	H 	0.2727	0.6924	0.9269	-0.092
Mof_H 	H 	0.2073	0.7103	0.9207	-0.095
Mof_C 	C 	0.249	0.6949	0.8842	-0.628
Mof_H 	H 	0.2897	0.7055	0.8808	0.195
Mof_H 	H 	0.2074	0.6999	0.8735	0.192
Mof_H 	H 	0.2631	0.679	0.8789	0.197
Mof_H 	H 	0.5475	0.4441	0.7319	-0.035
Mof_H 	H 	0.4947	0.4569	0.7534	-0.054
Mof_H 	H 	0.4951	0.4142	0.7586	0.149
Mof_H 	H 	0.5148	0.4276	0.7863	0.172
Mof_H 	H 	0.5775	0.4162	0.7682	0.166
Mof_C 	C 	0.539	0.4472	0.7515	0.205
Mof_C 	C 	0.531	0.4242	0.7676	-0.518
Mof_C 	C 	0.575	0.2176	0.9559	-1.719
Mof_H 	H 	0.6002	0.2129	0.9392	0.992
Mof_H 	H 	0.5284	0.2093	0.9569	0.545
Mof_H 	H 	0.604	0.2137	0.9719	0.557
Mof_C 	C 	0.643	0.1588	0.9823	-0.089
Mof_H 	H 	0.6037	0.1473	0.9833	0.047
Mof_H 	H 	0.6878	0.1511	0.9756	0.039
Mof_C 	C 	0.656	0.1712	0.0105	0.035
Mof_H 	H 	0.624	0.1849	0.0127	0.002
Mof_H 	H 	0.7068	0.1759	0.0129	0
Mof_C 	C 	0.634	0.1509	0.0304	-0.399
Mof_H 	H 	0.6779	0.1443	0.0388	0.125
Mof_H 	H 	0.6092	0.1386	0.0201	0.133
Mof_H 	H 	0.6023	0.1569	0.0447	0.138
Mof_C 	C 	0.1607	0.14721	0.99342	-0.018
Mof_C 	C 	0.1565	0.16055	0.96969	0.019
Mof_C 	C 	0.1418	0.14683	0.9476	-0.029
Mof_H 	H 	0.1382	0.153	0.9296	0.053
Mof_C 	C 	0.1329	0.12448	0.95272	-0.089
Mof_C 	C 	0.4623	0.10942	0.05973	0.329
Mof_C 	C 	0.4359	0.12705	0.03779	-0.069
Mof_C 	C 	0.4322	0.15011	0.04009	-0.053
Mof_H 	H 	0.44	0.1584	0.0567	0.057
Mof_C 	C 	0.4145	0.16138	0.0137	0.04
Mof_C 	C 	0.4106	0.14449	0.99403	-0.038
Mof_C 	C 	0.3954	0.14771	0.96437	0.013
Mof_C 	C 	0.4317	0.1597	0.945	-0.079
Mof_C 	C 	0.3933	0.15992	0.91977	0.025
Mof_H 	H 	0.4077	0.1695	0.9049	0.015
Mof_C 	C 	0.3378	0.14633	0.91811	-0.12
Mof_C 	C 	0.2899	0.14202	0.89377	0.381
Mof_C 	C 	0.4058	0.18684	0.0116	-0.129
Mof_H 	H 	0.3944	0.1911	0.9924	0.061
Mof_H 	H 	0.4517	0.1946	0.0166	0.058
Mof_C 	C 	0.3458	0.1955	0.0303	-0.104
Mof_H 	H 	0.2986	0.1888	0.0248	0.061
Mof_H 	H 	0.3556	0.1912	0.0496	0.064
Mof_C 	C 	0.3462	0.22178	0.0266	-0.014
Mof_H 	H 	0.3919	0.2286	0.0335	0.022
Mof_H 	H 	0.3405	0.226	0.0071	0.019
Mof_C 	C 	0.2826	0.23045	0.04323	-0.227
Mof_H 	H 	0.2712	0.2468	0.0385	0.086
Mof_H 	H 	0.2393	0.2207	0.0398	0.091
Mof_C 	C 	0.3055	0.2286	0.0726	0.152
Mof_H 	H 	0.3448	0.2398	0.0766	-0.024
Mof_H 	H 	0.323	0.2126	0.0767	-0.014
Mof_C 	C 	0.2394	0.2341	0.0895	-0.49
Mof_H 	H 	0.2511	0.2327	0.109	0.148
Mof_H 	H 	0.2007	0.2232	0.0849	0.161
Mof_H 	H 	0.2235	0.2501	0.0855	0.158
Mof_C 	C 	0.4982	0.1746	0.952	0.146
Mof_H 	H 	0.5005	0.1757	0.9722	-0.034
Mof_H 	H 	0.4885	0.1905	0.9451	0.086
Mof_C 	C 	0.575	0.1676	0.9419	-0.397
Mof_H 	H 	0.5848	0.1737	0.9233	0.072
Mof_H 	H 	0.5822	0.1505	0.9422	0.125
Mof_C 	C 	0.6224	0.1802	0.964	-0.147
Mof_H 	H 	0.6655	0.1877	0.9558	-0.01
Mof_H 	H 	0.5944	0.1919	0.9744	0.033
Mof_C 	C 	0.2829	0.1541	0.0922	0.346
Mof_C 	C 	0.2268	0.15712	0.06649	-0.059
Mof_C 	C 	0.1774	0.1727	0.06331	-0.061
Mof_H 	H 	0.1652	0.184	0.0767	0.043
Mof_C 	C 	0.143	0.1707	0.03715	0.043
Mof_C 	C 	0.1781	0.1539	0.02148	-0.033
Mof_C 	C 	0.1091	0.10563	0.93552	0.319
Mof_C 	C 	0.0825	0.1856	0.0289	-0.163
Mof_H 	H 	0.0727	0.1833	0.0091	0.069
Mof_H 	H 	0.0959	0.2021	0.0317	0.064
Mof_C 	C 	0.0143	0.1803	0.0451	-0.047
Mof_H 	H 	0.9762	0.192	0.0412	0.031
Mof_H 	H 	0.0243	0.1803	0.065	0.019
Mof_C 	C 	0.9916	0.1562	0.0354	-0.061
Mof_H 	H 	0.9711	0.1569	0.0167	0.038
Mof_H 	H 	0.0333	0.1454	0.0354	0.047
Mof_C 	C 	0.9347	0.1484	0.056	-0.176
Mof_H 	H 	0.9022	0.1365	0.0478	0.064
Mof_H 	H 	0.9576	0.1417	0.0726	0.068
Mof_C 	C 	0.8935	0.1705	0.0629	0.114
Mof_H 	H 	0.8427	0.167	0.0677	-0.024
Mof_H 	H 	0.8941	0.1816	0.0473	-0.014
Mof_C 	C 	0.934	0.1806	0.0874	-0.463
Mof_H 	H 	0.903	0.1919	0.0968	0.142
Mof_H 	H 	0.978	0.1883	0.0811	0.152
Mof_H 	H 	0.9464	0.168	0.1001	0.146
Mof_C 	C 	0.1789	0.18675	0.96695	-0.12
Mof_H 	H 	0.1362	0.1958	0.9609	0.059
Mof_H 	H 	0.1929	0.1926	0.9853	0.059
Mof_C 	C 	0.2405	0.19152	0.94714	-0.099
Mof_H 	H 	0.2861	0.1847	0.954	0.059
Mof_H 	H 	0.2299	0.1848	0.9289	0.061
Mof_C 	C 	0.2465	0.21761	0.9454	-0.026
Mof_H 	H 	0.2369	0.2249	0.9634	0.024
Mof_H 	H 	0.212	0.224	0.9318	0.033
Mof_C 	C 	0.3235	0.2219	0.9365	-0.214
Mof_H 	H 	0.3466	0.2338	0.9483	0.078
Mof_H 	H 	0.3521	0.2074	0.9375	0.082
Mof_C 	C 	0.3182	0.2305	0.9074	0.139
Mof_H 	H 	0.2739	0.2246	0.8984	-0.017
Mof_H 	H 	0.3607	0.2255	0.8965	-0.029
Mof_C 	C 	0.316	0.2569	0.9102	-0.483
Mof_H 	H 	0.308	0.264	0.8922	0.152
Mof_H 	H 	0.3617	0.2625	0.9178	0.155
Mof_H 	H 	0.2762	0.2613	0.9225	0.152
Mof_C 	C 	0.5441	0.1085	0.1492	0.394
Mof_C 	C 	0.6545	0.08669	0.20916	0.028
Mof_C 	C 	0.5775	0.10315	0.17797	-0.089
Mof_C 	C 	0.6272	0.0864	0.1826	-0.043
Mof_H 	H 	0.642	0.0755	0.1691	0.042
Mof_C 	C 	0.6193	0.10165	0.22595	-0.029
Mof_C 	C 	0.6189	0.10703	0.25453	-0.023
Mof_C 	C 	0.6209	0.093	0.27697	0.028
Mof_C 	C 	0.6285	0.10434	0.30271	-0.049
Mof_H 	H 	0.6283	0.097	0.3202	0.059
Mof_C 	C 	0.6362	0.12769	0.29787	-0.07
Mof_C 	C 	0.6522	0.14611	0.31855	0.301
Mof_C 	C 	0.7201	0.0733	0.22	-0.143
Mof_H 	H 	0.7075	0.0565	0.2204	0.056
Mof_H 	H 	0.7288	0.0782	0.2391	0.066
Mof_C 	C 	0.7916	0.076	0.2039	-0.064
Mof_H 	H 	0.7828	0.0777	0.184	0.037
Mof_H 	H 	0.8243	0.0626	0.2071	0.029
Mof_C 	C 	0.8231	0.0989	0.2164	-0.077
Mof_H 	H 	0.8595	0.0956	0.2307	0.033
Mof_H 	H 	0.7846	0.109	0.224	0.05
Mof_C 	C 	0.8582	0.1099	0.1901	-0.143
Mof_H 	H 	0.8551	0.0993	0.1742	0.058
Mof_H 	H 	0.9092	0.1143	0.1933	0.054
Mof_C 	C 	0.809	0.1319	0.1865	0.049
Mof_H 	H 	0.7596	0.1292	0.1941	0.014
Mof_H 	H 	0.8299	0.1459	0.1951	0.002
Mof_C 	C 	0.807	0.1339	0.1545	-0.401
Mof_H 	H 	0.7739	0.1464	0.1491	0.133
Mof_H 	H 	0.7906	0.1191	0.1466	0.132
Mof_H 	H 	0.8557	0.1375	0.1478	0.127
Mof_C 	C 	0.6088	0.0663	0.2767	-0.124
Mof_H 	H 	0.6056	0.0608	0.2575	0.058
Mof_H 	H 	0.6506	0.0585	0.2854	0.059
Mof_C 	C 	0.5397	0.05962	0.2919	-0.098
Mof_H 	H 	0.541	0.0654	0.311	0.063
Mof_H 	H 	0.4967	0.0662	0.2826	0.06
Mof_C 	C 	0.5382	0.03329	0.2913	-0.031
Mof_H 	H 	0.5496	0.0275	0.2727	0.025
Mof_H 	H 	0.5739	0.0268	0.3043	0.032
Mof_C 	C 	0.463	0.0263	0.2994	-0.191
Mof_H 	H 	0.4552	0.0095	0.2956	0.07
Mof_H 	H 	0.4269	0.0354	0.2889	0.073
Mof_C 	C 	0.4558	0.0312	0.3296	0.106
Mof_H 	H 	0.4496	0.0481	0.333	-0.006
Mof_H 	H 	0.4988	0.0256	0.3398	-0.005
Mof_C 	C 	0.3885	0.0177	0.3381	-0.451
Mof_H 	H 	0.3779	0.0207	0.3574	0.139
Mof_H 	H 	0.3969	0.001	0.3354	0.144
Mof_H 	H 	0.3475	0.0226	0.3268	0.138
Mof_C 	C 	0.4477	0.18387	0.1192	0.396
Mof_C 	C 	0.4714	0.20369	0.1074	-0.138
Mof_C 	C 	0.5205	0.2029	0.0873	-0.008
Mof_H 	H 	0.5324	0.1883	0.0793	0.033
Mof_C 	C 	0.5617	0.227	0.0757	-0.003
Mof_C 	C 	0.5255	0.24272	0.0958	-0.017
Mof_C 	C 	0.539	0.26778	0.0958	-0.033
Mof_C 	C 	0.5082	0.2853	0.0846	0.036
Mof_C 	C 	0.5312	0.30799	0.0927	-0.05
Mof_H 	H 	0.5124	0.3222	0.0857	0.051
Mof_C 	C 	0.5839	0.30618	0.11172	-0.075
Mof_C 	C 	0.6263	0.32558	0.1251	0.337
Mof_C 	C 	0.6041	0.227	0.0491	-0.08
Mof_H 	H 	0.609	0.2111	0.0414	0.041
Mof_H 	H 	0.6525	0.2341	0.0514	0.037
Mof_C 	C 	0.5535	0.2425	0.0316	-0.175
Mof_H 	H 	0.5517	0.2587	0.0386	0.079
Mof_H 	H 	0.5039	0.2361	0.0308	0.076
Mof_C 	C 	0.5914	0.2414	0.0029	0.125
Mof_H 	H 	0.61	0.2256	0.9988	-0.061
Mof_H 	H 	0.6311	0.2529	0.0013	-0.019
Mof_C 	C 	0.5257	0.248	0.9841	-0.477
Mof_H 	H 	0.4842	0.2373	0.9869	0.159
Mof_H 	H 	0.5099	0.2643	0.987	0.157
Mof_C 	C 	0.5607	0.2445	0.9552	0.709
Mof_H 	H 	0.6062	0.2534	0.9534	-0.201
Mof_H 	H 	0.5272	0.2489	0.9403	-0.206
Mof_C 	C 	0.4411	0.2845	0.0665	-0.149
Mof_H 	H 	0.405	0.2942	0.0762	0.066
Mof_H 	H 	0.4235	0.2682	0.0681	0.069
Mof_C 	C 	0.432	0.2907	0.0358	-0.066
Mof_H 	H 	0.4622	0.2807	0.024	0.035
Mof_H 	H 	0.4438	0.3073	0.0323	0.04
Mof_C 	C 	0.3502	0.2858	0.0317	-0.075
Mof_H 	H 	0.341	0.269	0.0285	0.041
Mof_H 	H 	0.3213	0.2911	0.0476	0.045
Mof_C 	C 	0.334	0.3005	0.0058	-0.152
Mof_H 	H 	0.3653	0.3144	0.0047	0.065
Mof_H 	H 	0.2826	0.3054	0.0052	0.062
Mof_C 	C 	0.352	0.2826	0.9828	0.066
Mof_H 	H 	0.3659	0.2673	0.9904	-0.005
Mof_H 	H 	0.3899	0.2885	0.9704	-0.006
Mof_C 	C 	0.277	0.2813	0.968	-0.419
Mof_H 	H 	0.2702	0.2657	0.9604	0.133
Mof_H 	H 	0.2756	0.2929	0.9532	0.134
Mof_H 	H 	0.2384	0.2847	0.9812	0.137
Mof_C 	C 	0.1714	0.06405	0.8701	0.351
Mof_C 	C 	0.2154	0.04331	0.857	-0.069
Mof_C 	C 	0.2636	0.04512	0.8383	-0.052
Mof_H 	H 	0.276	0.0592	0.8292	0.051
Mof_C 	C 	0.2955	0.02324	0.8333	0.038
Mof_C 	C 	0.2658	0.00481	0.84839	-0.026
Mof_C 	C 	0.286	0.98067	0.8504	-0.03
Mof_C 	C 	0.2454	0.9608	0.8416	0.043
Mof_C 	C 	0.3401	0.94291	0.86245	-0.128
Mof_C 	C 	0.2763	0.94026	0.8481	-0.03
Mof_H 	H 	0.2563	0.9256	0.8434	0.044
Mof_C 	C 	0.3823	0.92591	0.8747	0.413
Mof_C 	C 	0.347	0.0189	0.8112	-0.145
Mof_H 	H 	0.3642	0.0027	0.814	0.068
Mof_H 	H 	0.3888	0.0291	0.815	0.063
Mof_C 	C 	0.3325	0.0212	0.78053	-0.074
Mof_H 	H 	0.3766	0.0176	0.7698	0.03
Mof_H 	H 	0.3162	0.0371	0.7759	0.039
Mof_C 	C 	0.2729	0.0033	0.77471	-0.052
Mof_H 	H 	0.2869	0.9877	0.7814	0.038
Mof_H 	H 	0.227	0.008	0.7835	0.04
Mof_C 	C 	0.2657	0.0034	0.74348	-0.195
Mof_H 	H 	0.2536	0.0192	0.7367	0.071
Mof_H 	H 	0.3112	0.9983	0.7347	0.067
Mof_C 	C 	0.2049	0.9864	0.7374	0.127
Mof_H 	H 	0.2182	0.9704	0.7432	-0.026
Mof_H 	H 	0.1601	0.991	0.7471	-0.026
Mof_C 	C 	0.1943	0.9875	0.7066	-0.466
Mof_H 	H 	0.1562	0.9766	0.7012	0.145
Mof_H 	H 	0.2396	0.9833	0.6974	0.141
Mof_H 	H 	0.1805	0.0034	0.7013	0.144
Mof_C 	C 	0.177	0.9632	0.8312	-0.142
Mof_H 	H 	0.1664	0.9799	0.8275	0.069
Mof_H 	H 	0.1408	0.9573	0.8444	0.064
Mof_C 	C 	0.1746	0.9491	0.8046	-0.103
Mof_H 	H 	0.1858	0.9325	0.808	0.049
Mof_H 	H 	0.2087	0.9554	0.7908	0.051
Mof_C 	C 	0.0955	0.9524	0.7954	0.006
Mof_H 	H 	0.0674	0.9378	0.7976	0.003
Mof_H 	H 	0.0716	0.965	0.8059	0.016
Mof_C 	C 	0.104	0.959	0.765	-0.248
Mof_H 	H 	0.1028	0.9761	0.7624	0.097
Mof_H 	H 	0.15	0.9528	0.7574	0.093
Mof_C 	C 	0.1801	0.13504	0.80839	0.283
Mof_C 	C 	0.1583	0.11754	0.78875	-0.076
Mof_C 	C 	0.1596	0.09476	0.79475	-0.042
Mof_H 	H 	0.1727	0.0882	0.8119	0.056
Mof_C 	C 	0.1216	0.0961	0.74802	-0.019
Mof_C 	C 	0.1069	0.09048	0.71923	-0.024
Mof_C 	C 	0.0424	0.09209	0.67494	-0.084
Mof_C 	C 	0.9911	0.0949	0.6505	0.367
Mof_C 	C 	0.1196	0.05485	0.77062	-0.116
Mof_H 	H 	0.1063	0.0496	0.752	0.057
Mof_H 	H 	0.164	0.0464	0.776	0.057
Mof_C 	C 	0.0594	0.04835	0.79014	-0.109
Mof_H 	H 	0.0703	0.0543	0.8087	0.064
Mof_H 	H 	0.0133	0.0554	0.784	0.062
Mof_C 	C 	0.9844	0.01656	0.80566	-0.224
Mof_H 	H 	0.9448	0.0269	0.7996	0.084
Mof_H 	H 	0.9703	0.0002	0.8018	0.08
Mof_C 	C 	0.9288	0.0135	0.8502	-0.486
Mof_H 	H 	0.9359	0.0149	0.87	0.149
Mof_H 	H 	0.9155	0.9974	0.8457	0.149
Mof_H 	H 	0.8903	0.0241	0.8443	0.151
Mof_C 	C 	0.2687	0.0698	0.6875	-0.102
Mof_H 	H 	0.2529	0.0692	0.6681	0.047
Mof_H 	H 	0.2839	0.0859	0.6919	0.053
Mof_C 	C 	0.3301	0.0528	0.6924	-0.022
Mof_H 	H 	0.3494	0.0469	0.6749	0.019
Mof_H 	H 	0.3138	0.0395	0.7037	0.018
Mof_C 	C 	0.1366	0.08139	0.76974	0.02
Mof_C 	C 	0.1371	0.07667	0.70225	0.012
Mof_C 	C 	0.0953	0.07635	0.67503	-0.036
Mof_H 	H 	0.1058	0.0662	0.6602	0.039
Mof_C 	C 	0.0531	0.02246	0.79063	-0.011
Mof_H 	H 	0.0952	0.0155	0.8001	0.026
Mof_H 	H 	0.0514	0.0162	0.7717	0.021
Mof_C 	C 	0.998	0.0197	0.8356	0.148
Mof_H 	H 	0.0115	0.0361	0.8395	-0.018
Mof_H 	H 	0.0378	0.0095	0.8417	-0.023
Mof_C 	C 	0.2079	0.0621	0.7063	-0.114
Mof_H 	H 	0.224	0.0636	0.7256	0.056
Mof_H 	H 	0.1972	0.0454	0.7029	0.043
Mof_C 	C 	0.3866	0.0671	0.7075	-0.214
Mof_H 	H 	0.368	0.0724	0.7255	0.082
Mof_H 	H 	0.4008	0.0809	0.6966	0.079
Mof_C 	C 	0.4502	0.0506	0.7111	0.143
Mof_H 	H 	0.453	0.0395	0.6957	-0.027
Mof_H 	H 	0.4961	0.0594	0.7122	-0.031
Mof_C 	C 	0.435	0.0379	0.7378	-0.49
Mof_H 	H 	0.475	0.027	0.7415	0.138
Mof_H 	H 	0.39	0.0293	0.7363	0.162
Mof_H 	H 	0.432	0.0492	0.7527	0.163
Mof_O 	O 	0.4671	0.08925	0.05442	-0.365
Mof_O 	O 	0.4725	0.11763	0.0843	-0.408
Mof_O 	O 	0.2416	0.12741	0.89531	-0.384
Mof_O 	O 	0.309	0.1542	0.87228	-0.404
Mof_O 	O 	0.3186	0.13726	0.09423	-0.384
Mof_O 	O 	0.2686	0.17189	0.11054	-0.389
Mof_O 	O 	0.1001	0.08535	0.94464	-0.341
Mof_O 	O 	0.0943	0.10985	0.90968	-0.404
Mof_O 	O 	0.5685	0.09509	0.13026	-0.405
Mof_O 	O 	0.4966	0.12272	0.14807	-0.399
Mof_O 	O 	0.6569	0.14123	0.34449	-0.395
Mof_O 	O 	0.6692	0.16663	0.31011	-0.346
Mof_O 	O 	0.4544	0.16347	0.11126	-0.39
Mof_O 	O 	0.3995	0.19094	0.13697	-0.375
Mof_O 	O 	0.6783	0.31872	0.14205	-0.375
Mof_O 	O 	0.6055	0.34607	0.12099	-0.364
Mof_O 	O 	0.1849	0.08401	0.86356	-0.378
Mof_O 	O 	0.1226	0.05777	0.88848	-0.366
Mof_O 	O 	0.4415	0.93271	0.8857	-0.38
Mof_O 	O 	0.368	0.90525	0.87217	-0.39
Mof_O 	O 	0.1926	0.15665	0.801	-0.33
Mof_O 	O 	0.2012	0.1296	0.8338	-0.394
Mof_O 	O 	0.9489	0.11094	0.65168	-0.383
Mof_O 	O 	0.0137	0.08239	0.62965	-0.392
Mof_S 	S 	0.42339	0.11656	0.00585	0.02
Mof_S 	S 	0.32249	0.13346	0.94926	0.033
Mof_S 	S 	0.2468	0.14027	0.03889	0.026
Mof_S 	S 	0.14692	0.11858	0.98692	0.024
Mof_S 	S 	0.55412	0.11686	0.20636	0.034
Mof_S 	S 	0.63425	0.1354	0.26448	0.02
Mof_S 	S 	0.4691	0.23109	0.11863	0.032
Mof_S 	S 	0.60425	0.27767	0.11952	0.012
Mof_S 	S 	0.19772	0.01629	0.86925	0.01
Mof_S 	S 	0.36027	0.97287	0.86716	0.025
Mof_S 	S 	0.1363	0.12548	0.75682	0.021
Mof_S 	S 	0.03301	0.10613	0.7047	0.033
Mof_Mn	Mn	0.52892	0.08328	0.0933	0.776
Mof_Mn	Mn	0.40966	0.12966	0.12038	1.021
Mof_Mn	Mn	0.29831	0.17846	0.14904	0.795
Mof_Mn	Mn	0.0361	0.07472	0.90701	0.778
Mof_Mn	Mn	0.14743	0.11931	0.87141	1.018
Mof_Mn	Mn	0.25874	0.1649	0.83763	0.806
Mof_H 	H 	0.5225	0.1686	0.9687	0.04
Mof_H 	H 	0.4843	0.191	0.9551	-0.177
Mof_C 	C 	0.5482	0.1723	0.9266	-0.265
Mof_H 	H 	0.5275	0.1803	0.9104	0.069
Mof_H 	H 	0.5577	0.1558	0.922	0.117
Mof_C 	C 	0.6178	0.1847	0.9369	0.824
Mof_H 	H 	0.6137	0.2019	0.9354	-0.755
Mof_H 	H 	0.629	0.1805	0.9561	-0.058
Mof_C 	C 	0.6751	0.1748	0.9168	-0.655
Mof_H 	H 	0.6537	0.1714	0.8987	0.2
Mof_H 	H 	0.6979	0.1605	0.9242	0.205
Mof_C 	C 	0.7298	0.1953	0.9153	0.356
Mof_H 	H 	0.7727	0.1924	0.9269	-0.091
Mof_H 	H 	0.7073	0.2103	0.9207	-0.094
Mof_C 	C 	0.749	0.1949	0.8842	-0.627
Mof_H 	H 	0.7897	0.2055	0.8808	0.195
Mof_H 	H 	0.7074	0.1999	0.8735	0.192
Mof_H 	H 	0.7631	0.179	0.8789	0.196
Mof_H 	H 	0.0475	0.9441	0.7319	-0.035
Mof_H 	H 	0.9947	0.9569	0.7534	-0.054
Mof_H 	H 	0.9951	0.9142	0.7586	0.149
Mof_H 	H 	0.0148	0.9276	0.7863	0.171
Mof_H 	H 	0.0775	0.9162	0.7682	0.166
Mof_C 	C 	0.039	0.9472	0.7515	0.205
Mof_C 	C 	0.031	0.9242	0.7676	-0.518
_end
