# CIF file generated by openbabel 3.1.0, see https://openbabel.org
data_I
_chemical_name_common 'image0'
_cell_length_a 34.1837
_cell_length_b 34.1837
_cell_length_c 34.1837
_cell_angle_alpha 90
_cell_angle_beta 90
_cell_angle_gamma 90
_space_group_name_H-M_alt 'P 1'
_space_group_name_Hall 'P 1'
loop_
    _symmetry_equiv_pos_as_xyz
    x,y,z
loop_
    _atom_site_label
    _atom_site_type_symbol
    _atom_site_fract_x
    _atom_site_fract_y
    _atom_site_fract_z
    _atom_site_occupancy
    Nd1      Nd       0.63051    0.54254    0.70156    1.000
    Nd2      Nd       0.54760    0.61930    0.70766    1.000
    Ge1      Ge       0.71648    0.59943    0.71519    1.000
    Ge2      Ge       0.63904    0.63880    0.75445    1.000
    Ge3      Ge       0.54117    0.52872    0.64982    1.000
    Ge4      Ge       0.49561    0.60442    0.61853    1.000
    C1       C        0.75200    0.56940    0.74790    1.000
    C2       C        0.73380    0.55440    0.78530    1.000
    C3       C        0.69280    0.53760    0.78120    1.000
    C4       C        0.63630    0.62570    0.81010    1.000
    C5       C        0.60540    0.64800    0.82950    1.000
    C6       C        0.56840    0.64990    0.80670    1.000
    C7       C        0.50970    0.49540    0.68250    1.000
    C8       C        0.52880    0.45590    0.69390    1.000
    C9       C        0.56530    0.46180    0.71630    1.000
    C10      C        0.44040    0.60920    0.62530    1.000
    C11      C        0.42490    0.58390    0.65780    1.000
    C12      C        0.45000    0.58450    0.69390    1.000
    O1       O        0.69010    0.63740    0.74010    1.000
    O2       O        0.56690    0.50410    0.61240    1.000
    O3       O        0.51220    0.55500    0.61430    1.000
    O4       O        0.74310    0.63810    0.69010    1.000
    O5       O        0.61900    0.61200    0.71500    1.000
    O6       O        0.68890    0.57510    0.67980    1.000
    O7       O        0.57060    0.56350    0.67250    1.000
    O8       O        0.64200    0.52790    0.63490    1.000
    O9       O        0.67050    0.55530    0.75780    1.000
    O10      O        0.68310    0.50930    0.80010    1.000
    O11      O        0.57340    0.64840    0.76880    1.000
    O12      O        0.53710    0.65420    0.82110    1.000
    O13      O        0.59130    0.48530    0.70290    1.000
    O14      O        0.57200    0.44150    0.74660    1.000
    O15      O        0.48690    0.58430    0.68950    1.000
    O16      O        0.43620    0.58410    0.72670    1.000
    Nd3      Nd       0.13051    0.04254    0.20156    1.000
    Nd4      Nd       0.04760    0.11930    0.20766    1.000
    Ge5      Ge       0.21648    0.09943    0.21519    1.000
    Ge6      Ge       0.13904    0.13880    0.25445    1.000
    Ge7      Ge       0.04117    0.02872    0.14982    1.000
    Ge8      Ge       0.99561    0.10442    0.11853    1.000
    C13      C        0.25200    0.06940    0.24790    1.000
    C14      C        0.23380    0.05440    0.28530    1.000
    C15      C        0.19280    0.03760    0.28120    1.000
    C16      C        0.13630    0.12570    0.31010    1.000
    C17      C        0.10540    0.14800    0.32950    1.000
    C18      C        0.06840    0.14990    0.30670    1.000
    C19      C        0.00970    0.99540    0.18250    1.000
    C20      C        0.02880    0.95590    0.19390    1.000
    C21      C        0.06530    0.96180    0.21630    1.000
    C22      C        0.94040    0.10920    0.12530    1.000
    C23      C        0.92490    0.08390    0.15780    1.000
    C24      C        0.95000    0.08450    0.19390    1.000
    O17      O        0.19010    0.13740    0.24010    1.000
    O18      O        0.06690    0.00410    0.11240    1.000
    O19      O        0.01220    0.05500    0.11430    1.000
    O20      O        0.24310    0.13810    0.19010    1.000
    O21      O        0.11900    0.11200    0.21500    1.000
    O22      O        0.18890    0.07510    0.17980    1.000
    O23      O        0.07060    0.06350    0.17250    1.000
    O24      O        0.14200    0.02790    0.13490    1.000
    O25      O        0.17050    0.05530    0.25780    1.000
    O26      O        0.18310    0.00930    0.30010    1.000
    O27      O        0.07340    0.14840    0.26880    1.000
    O28      O        0.03710    0.15420    0.32110    1.000
    O29      O        0.09130    0.98530    0.20290    1.000
    O30      O        0.07200    0.94150    0.24660    1.000
    O31      O        0.98690    0.08430    0.18950    1.000
    O32      O        0.93620    0.08410    0.22670    1.000
    Nd5      Nd       0.86949    0.45746    0.20156    1.000
    Nd6      Nd       0.95240    0.38070    0.20766    1.000
    Ge9      Ge       0.78352    0.40057    0.21519    1.000
    Ge10     Ge       0.86096    0.36120    0.25445    1.000
    Ge11     Ge       0.95883    0.47128    0.14982    1.000
    Ge12     Ge       0.00439    0.39558    0.11853    1.000
    C25      C        0.74800    0.43060    0.24790    1.000
    C26      C        0.76620    0.44560    0.28530    1.000
    C27      C        0.80720    0.46240    0.28120    1.000
    C28      C        0.86370    0.37430    0.31010    1.000
    C29      C        0.89460    0.35200    0.32950    1.000
    C30      C        0.93160    0.35010    0.30670    1.000
    C31      C        0.99030    0.50460    0.18250    1.000
    C32      C        0.97120    0.54410    0.19390    1.000
    C33      C        0.93470    0.53820    0.21630    1.000
    C34      C        0.05960    0.39080    0.12530    1.000
    C35      C        0.07510    0.41610    0.15780    1.000
    C36      C        0.05000    0.41550    0.19390    1.000
    O33      O        0.80990    0.36260    0.24010    1.000
    O34      O        0.93310    0.49590    0.11240    1.000
    O35      O        0.98780    0.44500    0.11430    1.000
    O36      O        0.75690    0.36190    0.19010    1.000
    O37      O        0.88100    0.38800    0.21500    1.000
    O38      O        0.81110    0.42490    0.17980    1.000
    O39      O        0.92940    0.43650    0.17250    1.000
    O40      O        0.85800    0.47210    0.13490    1.000
    O41      O        0.82950    0.44470    0.25780    1.000
    O42      O        0.81690    0.49070    0.30010    1.000
    O43      O        0.92660    0.35160    0.26880    1.000
    O44      O        0.96290    0.34580    0.32110    1.000
    O45      O        0.90870    0.51470    0.20290    1.000
    O46      O        0.92800    0.55850    0.24660    1.000
    O47      O        0.01310    0.41570    0.18950    1.000
    O48      O        0.06380    0.41590    0.22670    1.000
    Nd7      Nd       0.36949    0.95746    0.70156    1.000
    Nd8      Nd       0.45240    0.88070    0.70766    1.000
    Ge13     Ge       0.28352    0.90057    0.71519    1.000
    Ge14     Ge       0.36096    0.86120    0.75445    1.000
    Ge15     Ge       0.45883    0.97128    0.64982    1.000
    Ge16     Ge       0.50439    0.89558    0.61853    1.000
    C37      C        0.24800    0.93060    0.74790    1.000
    C38      C        0.26620    0.94560    0.78530    1.000
    C39      C        0.30720    0.96240    0.78120    1.000
    C40      C        0.36370    0.87430    0.81010    1.000
    C41      C        0.39460    0.85200    0.82950    1.000
    C42      C        0.43160    0.85010    0.80670    1.000
    C43      C        0.49030    0.00460    0.68250    1.000
    C44      C        0.47120    0.04410    0.69390    1.000
    C45      C        0.43470    0.03820    0.71630    1.000
    C46      C        0.55960    0.89080    0.62530    1.000
    C47      C        0.57510    0.91610    0.65780    1.000
    C48      C        0.55000    0.91550    0.69390    1.000
    O49      O        0.30990    0.86260    0.74010    1.000
    O50      O        0.43310    0.99590    0.61240    1.000
    O51      O        0.48780    0.94500    0.61430    1.000
    O52      O        0.25690    0.86190    0.69010    1.000
    O53      O        0.38100    0.88800    0.71500    1.000
    O54      O        0.31110    0.92490    0.67980    1.000
    O55      O        0.42940    0.93650    0.67250    1.000
    O56      O        0.35800    0.97210    0.63490    1.000
    O57      O        0.32950    0.94470    0.75780    1.000
    O58      O        0.31690    0.99070    0.80010    1.000
    O59      O        0.42660    0.85160    0.76880    1.000
    O60      O        0.46290    0.84580    0.82110    1.000
    O61      O        0.40870    0.01470    0.70290    1.000
    O62      O        0.42800    0.05850    0.74660    1.000
    O63      O        0.51310    0.91570    0.68950    1.000
    O64      O        0.56380    0.91590    0.72670    1.000
    Nd9      Nd       0.36949    0.04254    0.79844    1.000
    Nd10     Nd       0.45240    0.11930    0.79234    1.000
    Ge17     Ge       0.28352    0.09943    0.78481    1.000
    Ge18     Ge       0.36096    0.13880    0.74555    1.000
    Ge19     Ge       0.45883    0.02872    0.85018    1.000
    Ge20     Ge       0.50439    0.10442    0.88147    1.000
    C49      C        0.24800    0.06940    0.75210    1.000
    C50      C        0.26620    0.05440    0.71470    1.000
    C51      C        0.30720    0.03760    0.71880    1.000
    C52      C        0.36370    0.12570    0.68990    1.000
    C53      C        0.39460    0.14800    0.67050    1.000
    C54      C        0.43160    0.14990    0.69330    1.000
    C55      C        0.49030    0.99540    0.81750    1.000
    C56      C        0.47120    0.95590    0.80610    1.000
    C57      C        0.43470    0.96180    0.78370    1.000
    C58      C        0.55960    0.10920    0.87470    1.000
    C59      C        0.57510    0.08390    0.84220    1.000
    C60      C        0.55000    0.08450    0.80610    1.000
    O65      O        0.30990    0.13740    0.75990    1.000
    O66      O        0.43310    0.00410    0.88760    1.000
    O67      O        0.48780    0.05500    0.88570    1.000
    O68      O        0.25690    0.13810    0.80990    1.000
    O69      O        0.38100    0.11200    0.78500    1.000
    O70      O        0.31110    0.07510    0.82020    1.000
    O71      O        0.42940    0.06350    0.82750    1.000
    O72      O        0.35800    0.02790    0.86510    1.000
    O73      O        0.32950    0.05530    0.74220    1.000
    O74      O        0.31690    0.00930    0.69990    1.000
    O75      O        0.42660    0.14840    0.73120    1.000
    O76      O        0.46290    0.15420    0.67890    1.000
    O77      O        0.40870    0.98530    0.79710    1.000
    O78      O        0.42800    0.94150    0.75340    1.000
    O79      O        0.51310    0.08430    0.81050    1.000
    O80      O        0.56380    0.08410    0.77330    1.000
    Nd11     Nd       0.86949    0.54254    0.29844    1.000
    Nd12     Nd       0.95240    0.61930    0.29234    1.000
    Ge21     Ge       0.78352    0.59943    0.28481    1.000
    Ge22     Ge       0.86096    0.63880    0.24555    1.000
    Ge23     Ge       0.95883    0.52872    0.35018    1.000
    Ge24     Ge       0.00439    0.60442    0.38147    1.000
    C61      C        0.74800    0.56940    0.25210    1.000
    C62      C        0.76620    0.55440    0.21470    1.000
    C63      C        0.80720    0.53760    0.21880    1.000
    C64      C        0.86370    0.62570    0.18990    1.000
    C65      C        0.89460    0.64800    0.17050    1.000
    C66      C        0.93160    0.64990    0.19330    1.000
    C67      C        0.99030    0.49540    0.31750    1.000
    C68      C        0.97120    0.45590    0.30610    1.000
    C69      C        0.93470    0.46180    0.28370    1.000
    C70      C        0.05960    0.60920    0.37470    1.000
    C71      C        0.07510    0.58390    0.34220    1.000
    C72      C        0.05000    0.58450    0.30610    1.000
    O81      O        0.80990    0.63740    0.25990    1.000
    O82      O        0.93310    0.50410    0.38760    1.000
    O83      O        0.98780    0.55500    0.38570    1.000
    O84      O        0.75690    0.63810    0.30990    1.000
    O85      O        0.88100    0.61200    0.28500    1.000
    O86      O        0.81110    0.57510    0.32020    1.000
    O87      O        0.92940    0.56350    0.32750    1.000
    O88      O        0.85800    0.52790    0.36510    1.000
    O89      O        0.82950    0.55530    0.24220    1.000
    O90      O        0.81690    0.50930    0.19990    1.000
    O91      O        0.92660    0.64840    0.23120    1.000
    O92      O        0.96290    0.65420    0.17890    1.000
    O93      O        0.90870    0.48530    0.29710    1.000
    O94      O        0.92800    0.44150    0.25340    1.000
    O95      O        0.01310    0.58430    0.31050    1.000
    O96      O        0.06380    0.58410    0.27330    1.000
    Nd13     Nd       0.13051    0.95746    0.29844    1.000
    Nd14     Nd       0.04760    0.88070    0.29234    1.000
    Ge25     Ge       0.21648    0.90057    0.28481    1.000
    Ge26     Ge       0.13904    0.86120    0.24555    1.000
    Ge27     Ge       0.04117    0.97128    0.35018    1.000
    Ge28     Ge       0.99561    0.89558    0.38147    1.000
    C73      C        0.25200    0.93060    0.25210    1.000
    C74      C        0.23380    0.94560    0.21470    1.000
    C75      C        0.19280    0.96240    0.21880    1.000
    C76      C        0.13630    0.87430    0.18990    1.000
    C77      C        0.10540    0.85200    0.17050    1.000
    C78      C        0.06840    0.85010    0.19330    1.000
    C79      C        0.00970    0.00460    0.31750    1.000
    C80      C        0.02880    0.04410    0.30610    1.000
    C81      C        0.06530    0.03820    0.28370    1.000
    C82      C        0.94040    0.89080    0.37470    1.000
    C83      C        0.92490    0.91610    0.34220    1.000
    C84      C        0.95000    0.91550    0.30610    1.000
    O97      O        0.19010    0.86260    0.25990    1.000
    O98      O        0.06690    0.99590    0.38760    1.000
    O99      O        0.01220    0.94500    0.38570    1.000
    O100     O        0.24310    0.86190    0.30990    1.000
    O101     O        0.11900    0.88800    0.28500    1.000
    O102     O        0.18890    0.92490    0.32020    1.000
    O103     O        0.07060    0.93650    0.32750    1.000
    O104     O        0.14200    0.97210    0.36510    1.000
    O105     O        0.17050    0.94470    0.24220    1.000
    O106     O        0.18310    0.99070    0.19990    1.000
    O107     O        0.07340    0.85160    0.23120    1.000
    O108     O        0.03710    0.84580    0.17890    1.000
    O109     O        0.09130    0.01470    0.29710    1.000
    O110     O        0.07200    0.05850    0.25340    1.000
    O111     O        0.98690    0.91570    0.31050    1.000
    O112     O        0.93620    0.91590    0.27330    1.000
    Nd15     Nd       0.63051    0.45746    0.79844    1.000
    Nd16     Nd       0.54760    0.38070    0.79234    1.000
    Ge29     Ge       0.71648    0.40057    0.78481    1.000
    Ge30     Ge       0.63904    0.36120    0.74555    1.000
    Ge31     Ge       0.54117    0.47128    0.85018    1.000
    Ge32     Ge       0.49561    0.39558    0.88147    1.000
    C85      C        0.75200    0.43060    0.75210    1.000
    C86      C        0.73380    0.44560    0.71470    1.000
    C87      C        0.69280    0.46240    0.71880    1.000
    C88      C        0.63630    0.37430    0.68990    1.000
    C89      C        0.60540    0.35200    0.67050    1.000
    C90      C        0.56840    0.35010    0.69330    1.000
    C91      C        0.50970    0.50460    0.81750    1.000
    C92      C        0.52880    0.54410    0.80610    1.000
    C93      C        0.56530    0.53820    0.78370    1.000
    C94      C        0.44040    0.39080    0.87470    1.000
    C95      C        0.42490    0.41610    0.84220    1.000
    C96      C        0.45000    0.41550    0.80610    1.000
    O113     O        0.69010    0.36260    0.75990    1.000
    O114     O        0.56690    0.49590    0.88760    1.000
    O115     O        0.51220    0.44500    0.88570    1.000
    O116     O        0.74310    0.36190    0.80990    1.000
    O117     O        0.61900    0.38800    0.78500    1.000
    O118     O        0.68890    0.42490    0.82020    1.000
    O119     O        0.57060    0.43650    0.82750    1.000
    O120     O        0.64200    0.47210    0.86510    1.000
    O121     O        0.67050    0.44470    0.74220    1.000
    O122     O        0.68310    0.49070    0.69990    1.000
    O123     O        0.57340    0.35160    0.73120    1.000
    O124     O        0.53710    0.34580    0.67890    1.000
    O125     O        0.59130    0.51470    0.79710    1.000
    O126     O        0.57200    0.55850    0.75340    1.000
    O127     O        0.48690    0.41570    0.81050    1.000
    O128     O        0.43620    0.41590    0.77330    1.000
    Nd17     Nd       0.70156    0.63051    0.54254    1.000
    Nd18     Nd       0.70766    0.54760    0.61930    1.000
    Ge33     Ge       0.71519    0.71648    0.59943    1.000
    Ge34     Ge       0.75445    0.63904    0.63880    1.000
    Ge35     Ge       0.64982    0.54117    0.52872    1.000
    Ge36     Ge       0.61853    0.49561    0.60442    1.000
    C97      C        0.74790    0.75200    0.56940    1.000
    C98      C        0.78530    0.73380    0.55440    1.000
    C99      C        0.78120    0.69280    0.53760    1.000
    C100     C        0.81010    0.63630    0.62570    1.000
    C101     C        0.82950    0.60540    0.64800    1.000
    C102     C        0.80670    0.56840    0.64990    1.000
    C103     C        0.68250    0.50970    0.49540    1.000
    C104     C        0.69390    0.52880    0.45590    1.000
    C105     C        0.71630    0.56530    0.46180    1.000
    C106     C        0.62530    0.44040    0.60920    1.000
    C107     C        0.65780    0.42490    0.58390    1.000
    C108     C        0.69390    0.45000    0.58450    1.000
    O129     O        0.74010    0.69010    0.63740    1.000
    O130     O        0.61240    0.56690    0.50410    1.000
    O131     O        0.61430    0.51220    0.55500    1.000
    O132     O        0.69010    0.74310    0.63810    1.000
    O133     O        0.71500    0.61900    0.61200    1.000
    O134     O        0.67980    0.68890    0.57510    1.000
    O135     O        0.67250    0.57060    0.56350    1.000
    O136     O        0.63490    0.64200    0.52790    1.000
    O137     O        0.75780    0.67050    0.55530    1.000
    O138     O        0.80010    0.68310    0.50930    1.000
    O139     O        0.76880    0.57340    0.64840    1.000
    O140     O        0.82110    0.53710    0.65420    1.000
    O141     O        0.70290    0.59130    0.48530    1.000
    O142     O        0.74660    0.57200    0.44150    1.000
    O143     O        0.68950    0.48690    0.58430    1.000
    O144     O        0.72670    0.43620    0.58410    1.000
    Nd19     Nd       0.20156    0.13051    0.04254    1.000
    Nd20     Nd       0.20766    0.04760    0.11930    1.000
    Ge37     Ge       0.21519    0.21648    0.09943    1.000
    Ge38     Ge       0.25445    0.13904    0.13880    1.000
    Ge39     Ge       0.14982    0.04117    0.02872    1.000
    Ge40     Ge       0.11853    0.99561    0.10442    1.000
    C109     C        0.24790    0.25200    0.06940    1.000
    C110     C        0.28530    0.23380    0.05440    1.000
    C111     C        0.28120    0.19280    0.03760    1.000
    C112     C        0.31010    0.13630    0.12570    1.000
    C113     C        0.32950    0.10540    0.14800    1.000
    C114     C        0.30670    0.06840    0.14990    1.000
    C115     C        0.18250    0.00970    0.99540    1.000
    C116     C        0.19390    0.02880    0.95590    1.000
    C117     C        0.21630    0.06530    0.96180    1.000
    C118     C        0.12530    0.94040    0.10920    1.000
    C119     C        0.15780    0.92490    0.08390    1.000
    C120     C        0.19390    0.95000    0.08450    1.000
    O145     O        0.24010    0.19010    0.13740    1.000
    O146     O        0.11240    0.06690    0.00410    1.000
    O147     O        0.11430    0.01220    0.05500    1.000
    O148     O        0.19010    0.24310    0.13810    1.000
    O149     O        0.21500    0.11900    0.11200    1.000
    O150     O        0.17980    0.18890    0.07510    1.000
    O151     O        0.17250    0.07060    0.06350    1.000
    O152     O        0.13490    0.14200    0.02790    1.000
    O153     O        0.25780    0.17050    0.05530    1.000
    O154     O        0.30010    0.18310    0.00930    1.000
    O155     O        0.26880    0.07340    0.14840    1.000
    O156     O        0.32110    0.03710    0.15420    1.000
    O157     O        0.20290    0.09130    0.98530    1.000
    O158     O        0.24660    0.07200    0.94150    1.000
    O159     O        0.18950    0.98690    0.08430    1.000
    O160     O        0.22670    0.93620    0.08410    1.000
    Nd21     Nd       0.20156    0.86949    0.45746    1.000
    Nd22     Nd       0.20766    0.95240    0.38070    1.000
    Ge41     Ge       0.21519    0.78352    0.40057    1.000
    Ge42     Ge       0.25445    0.86096    0.36120    1.000
    Ge43     Ge       0.14982    0.95883    0.47128    1.000
    Ge44     Ge       0.11853    0.00439    0.39558    1.000
    C121     C        0.24790    0.74800    0.43060    1.000
    C122     C        0.28530    0.76620    0.44560    1.000
    C123     C        0.28120    0.80720    0.46240    1.000
    C124     C        0.31010    0.86370    0.37430    1.000
    C125     C        0.32950    0.89460    0.35200    1.000
    C126     C        0.30670    0.93160    0.35010    1.000
    C127     C        0.18250    0.99030    0.50460    1.000
    C128     C        0.19390    0.97120    0.54410    1.000
    C129     C        0.21630    0.93470    0.53820    1.000
    C130     C        0.12530    0.05960    0.39080    1.000
    C131     C        0.15780    0.07510    0.41610    1.000
    C132     C        0.19390    0.05000    0.41550    1.000
    O161     O        0.24010    0.80990    0.36260    1.000
    O162     O        0.11240    0.93310    0.49590    1.000
    O163     O        0.11430    0.98780    0.44500    1.000
    O164     O        0.19010    0.75690    0.36190    1.000
    O165     O        0.21500    0.88100    0.38800    1.000
    O166     O        0.17980    0.81110    0.42490    1.000
    O167     O        0.17250    0.92940    0.43650    1.000
    O168     O        0.13490    0.85800    0.47210    1.000
    O169     O        0.25780    0.82950    0.44470    1.000
    O170     O        0.30010    0.81690    0.49070    1.000
    O171     O        0.26880    0.92660    0.35160    1.000
    O172     O        0.32110    0.96290    0.34580    1.000
    O173     O        0.20290    0.90870    0.51470    1.000
    O174     O        0.24660    0.92800    0.55850    1.000
    O175     O        0.18950    0.01310    0.41570    1.000
    O176     O        0.22670    0.06380    0.41590    1.000
    Nd23     Nd       0.70156    0.36949    0.95746    1.000
    Nd24     Nd       0.70766    0.45240    0.88070    1.000
    Ge45     Ge       0.71519    0.28352    0.90057    1.000
    Ge46     Ge       0.75445    0.36096    0.86120    1.000
    Ge47     Ge       0.64982    0.45883    0.97128    1.000
    Ge48     Ge       0.61853    0.50439    0.89558    1.000
    C133     C        0.74790    0.24800    0.93060    1.000
    C134     C        0.78530    0.26620    0.94560    1.000
    C135     C        0.78120    0.30720    0.96240    1.000
    C136     C        0.81010    0.36370    0.87430    1.000
    C137     C        0.82950    0.39460    0.85200    1.000
    C138     C        0.80670    0.43160    0.85010    1.000
    C139     C        0.68250    0.49030    0.00460    1.000
    C140     C        0.69390    0.47120    0.04410    1.000
    C141     C        0.71630    0.43470    0.03820    1.000
    C142     C        0.62530    0.55960    0.89080    1.000
    C143     C        0.65780    0.57510    0.91610    1.000
    C144     C        0.69390    0.55000    0.91550    1.000
    O177     O        0.74010    0.30990    0.86260    1.000
    O178     O        0.61240    0.43310    0.99590    1.000
    O179     O        0.61430    0.48780    0.94500    1.000
    O180     O        0.69010    0.25690    0.86190    1.000
    O181     O        0.71500    0.38100    0.88800    1.000
    O182     O        0.67980    0.31110    0.92490    1.000
    O183     O        0.67250    0.42940    0.93650    1.000
    O184     O        0.63490    0.35800    0.97210    1.000
    O185     O        0.75780    0.32950    0.94470    1.000
    O186     O        0.80010    0.31690    0.99070    1.000
    O187     O        0.76880    0.42660    0.85160    1.000
    O188     O        0.82110    0.46290    0.84580    1.000
    O189     O        0.70290    0.40870    0.01470    1.000
    O190     O        0.74660    0.42800    0.05850    1.000
    O191     O        0.68950    0.51310    0.91570    1.000
    O192     O        0.72670    0.56380    0.91590    1.000
    Nd25     Nd       0.79844    0.36949    0.04254    1.000
    Nd26     Nd       0.79234    0.45240    0.11930    1.000
    Ge49     Ge       0.78481    0.28352    0.09943    1.000
    Ge50     Ge       0.74555    0.36096    0.13880    1.000
    Ge51     Ge       0.85018    0.45883    0.02872    1.000
    Ge52     Ge       0.88147    0.50439    0.10442    1.000
    C145     C        0.75210    0.24800    0.06940    1.000
    C146     C        0.71470    0.26620    0.05440    1.000
    C147     C        0.71880    0.30720    0.03760    1.000
    C148     C        0.68990    0.36370    0.12570    1.000
    C149     C        0.67050    0.39460    0.14800    1.000
    C150     C        0.69330    0.43160    0.14990    1.000
    C151     C        0.81750    0.49030    0.99540    1.000
    C152     C        0.80610    0.47120    0.95590    1.000
    C153     C        0.78370    0.43470    0.96180    1.000
    C154     C        0.87470    0.55960    0.10920    1.000
    C155     C        0.84220    0.57510    0.08390    1.000
    C156     C        0.80610    0.55000    0.08450    1.000
    O193     O        0.75990    0.30990    0.13740    1.000
    O194     O        0.88760    0.43310    0.00410    1.000
    O195     O        0.88570    0.48780    0.05500    1.000
    O196     O        0.80990    0.25690    0.13810    1.000
    O197     O        0.78500    0.38100    0.11200    1.000
    O198     O        0.82020    0.31110    0.07510    1.000
    O199     O        0.82750    0.42940    0.06350    1.000
    O200     O        0.86510    0.35800    0.02790    1.000
    O201     O        0.74220    0.32950    0.05530    1.000
    O202     O        0.69990    0.31690    0.00930    1.000
    O203     O        0.73120    0.42660    0.14840    1.000
    O204     O        0.67890    0.46290    0.15420    1.000
    O205     O        0.79710    0.40870    0.98530    1.000
    O206     O        0.75340    0.42800    0.94150    1.000
    O207     O        0.81050    0.51310    0.08430    1.000
    O208     O        0.77330    0.56380    0.08410    1.000
    Nd27     Nd       0.29844    0.86949    0.54254    1.000
    Nd28     Nd       0.29234    0.95240    0.61930    1.000
    Ge53     Ge       0.28481    0.78352    0.59943    1.000
    Ge54     Ge       0.24555    0.86096    0.63880    1.000
    Ge55     Ge       0.35018    0.95883    0.52872    1.000
    Ge56     Ge       0.38147    0.00439    0.60442    1.000
    C157     C        0.25210    0.74800    0.56940    1.000
    C158     C        0.21470    0.76620    0.55440    1.000
    C159     C        0.21880    0.80720    0.53760    1.000
    C160     C        0.18990    0.86370    0.62570    1.000
    C161     C        0.17050    0.89460    0.64800    1.000
    C162     C        0.19330    0.93160    0.64990    1.000
    C163     C        0.31750    0.99030    0.49540    1.000
    C164     C        0.30610    0.97120    0.45590    1.000
    C165     C        0.28370    0.93470    0.46180    1.000
    C166     C        0.37470    0.05960    0.60920    1.000
    C167     C        0.34220    0.07510    0.58390    1.000
    C168     C        0.30610    0.05000    0.58450    1.000
    O209     O        0.25990    0.80990    0.63740    1.000
    O210     O        0.38760    0.93310    0.50410    1.000
    O211     O        0.38570    0.98780    0.55500    1.000
    O212     O        0.30990    0.75690    0.63810    1.000
    O213     O        0.28500    0.88100    0.61200    1.000
    O214     O        0.32020    0.81110    0.57510    1.000
    O215     O        0.32750    0.92940    0.56350    1.000
    O216     O        0.36510    0.85800    0.52790    1.000
    O217     O        0.24220    0.82950    0.55530    1.000
    O218     O        0.19990    0.81690    0.50930    1.000
    O219     O        0.23120    0.92660    0.64840    1.000
    O220     O        0.17890    0.96290    0.65420    1.000
    O221     O        0.29710    0.90870    0.48530    1.000
    O222     O        0.25340    0.92800    0.44150    1.000
    O223     O        0.31050    0.01310    0.58430    1.000
    O224     O        0.27330    0.06380    0.58410    1.000
    Nd29     Nd       0.29844    0.13051    0.95746    1.000
    Nd30     Nd       0.29234    0.04760    0.88070    1.000
    Ge57     Ge       0.28481    0.21648    0.90057    1.000
    Ge58     Ge       0.24555    0.13904    0.86120    1.000
    Ge59     Ge       0.35018    0.04117    0.97128    1.000
    Ge60     Ge       0.38147    0.99561    0.89558    1.000
    C169     C        0.25210    0.25200    0.93060    1.000
    C170     C        0.21470    0.23380    0.94560    1.000
    C171     C        0.21880    0.19280    0.96240    1.000
    C172     C        0.18990    0.13630    0.87430    1.000
    C173     C        0.17050    0.10540    0.85200    1.000
    C174     C        0.19330    0.06840    0.85010    1.000
    C175     C        0.31750    0.00970    0.00460    1.000
    C176     C        0.30610    0.02880    0.04410    1.000
    C177     C        0.28370    0.06530    0.03820    1.000
    C178     C        0.37470    0.94040    0.89080    1.000
    C179     C        0.34220    0.92490    0.91610    1.000
    C180     C        0.30610    0.95000    0.91550    1.000
    O225     O        0.25990    0.19010    0.86260    1.000
    O226     O        0.38760    0.06690    0.99590    1.000
    O227     O        0.38570    0.01220    0.94500    1.000
    O228     O        0.30990    0.24310    0.86190    1.000
    O229     O        0.28500    0.11900    0.88800    1.000
    O230     O        0.32020    0.18890    0.92490    1.000
    O231     O        0.32750    0.07060    0.93650    1.000
    O232     O        0.36510    0.14200    0.97210    1.000
    O233     O        0.24220    0.17050    0.94470    1.000
    O234     O        0.19990    0.18310    0.99070    1.000
    O235     O        0.23120    0.07340    0.85160    1.000
    O236     O        0.17890    0.03710    0.84580    1.000
    O237     O        0.29710    0.09130    0.01470    1.000
    O238     O        0.25340    0.07200    0.05850    1.000
    O239     O        0.31050    0.98690    0.91570    1.000
    O240     O        0.27330    0.93620    0.91590    1.000
    Nd31     Nd       0.79844    0.63051    0.45746    1.000
    Nd32     Nd       0.79234    0.54760    0.38070    1.000
    Ge61     Ge       0.78481    0.71648    0.40057    1.000
    Ge62     Ge       0.74555    0.63904    0.36120    1.000
    Ge63     Ge       0.85018    0.54117    0.47128    1.000
    Ge64     Ge       0.88147    0.49561    0.39558    1.000
    C181     C        0.75210    0.75200    0.43060    1.000
    C182     C        0.71470    0.73380    0.44560    1.000
    C183     C        0.71880    0.69280    0.46240    1.000
    C184     C        0.68990    0.63630    0.37430    1.000
    C185     C        0.67050    0.60540    0.35200    1.000
    C186     C        0.69330    0.56840    0.35010    1.000
    C187     C        0.81750    0.50970    0.50460    1.000
    C188     C        0.80610    0.52880    0.54410    1.000
    C189     C        0.78370    0.56530    0.53820    1.000
    C190     C        0.87470    0.44040    0.39080    1.000
    C191     C        0.84220    0.42490    0.41610    1.000
    C192     C        0.80610    0.45000    0.41550    1.000
    O241     O        0.75990    0.69010    0.36260    1.000
    O242     O        0.88760    0.56690    0.49590    1.000
    O243     O        0.88570    0.51220    0.44500    1.000
    O244     O        0.80990    0.74310    0.36190    1.000
    O245     O        0.78500    0.61900    0.38800    1.000
    O246     O        0.82020    0.68890    0.42490    1.000
    O247     O        0.82750    0.57060    0.43650    1.000
    O248     O        0.86510    0.64200    0.47210    1.000
    O249     O        0.74220    0.67050    0.44470    1.000
    O250     O        0.69990    0.68310    0.49070    1.000
    O251     O        0.73120    0.57340    0.35160    1.000
    O252     O        0.67890    0.53710    0.34580    1.000
    O253     O        0.79710    0.59130    0.51470    1.000
    O254     O        0.75340    0.57200    0.55850    1.000
    O255     O        0.81050    0.48690    0.41570    1.000
    O256     O        0.77330    0.43620    0.41590    1.000
    Nd33     Nd       0.54254    0.70156    0.63051    1.000
    Nd34     Nd       0.61930    0.70766    0.54760    1.000
    Ge65     Ge       0.59943    0.71519    0.71648    1.000
    Ge66     Ge       0.63880    0.75445    0.63904    1.000
    Ge67     Ge       0.52872    0.64982    0.54117    1.000
    Ge68     Ge       0.60442    0.61853    0.49561    1.000
    C193     C        0.56940    0.74790    0.75200    1.000
    C194     C        0.55440    0.78530    0.73380    1.000
    C195     C        0.53760    0.78120    0.69280    1.000
    C196     C        0.62570    0.81010    0.63630    1.000
    C197     C        0.64800    0.82950    0.60540    1.000
    C198     C        0.64990    0.80670    0.56840    1.000
    C199     C        0.49540    0.68250    0.50970    1.000
    C200     C        0.45590    0.69390    0.52880    1.000
    C201     C        0.46180    0.71630    0.56530    1.000
    C202     C        0.60920    0.62530    0.44040    1.000
    C203     C        0.58390    0.65780    0.42490    1.000
    C204     C        0.58450    0.69390    0.45000    1.000
    O257     O        0.63740    0.74010    0.69010    1.000
    O258     O        0.50410    0.61240    0.56690    1.000
    O259     O        0.55500    0.61430    0.51220    1.000
    O260     O        0.63810    0.69010    0.74310    1.000
    O261     O        0.61200    0.71500    0.61900    1.000
    O262     O        0.57510    0.67980    0.68890    1.000
    O263     O        0.56350    0.67250    0.57060    1.000
    O264     O        0.52790    0.63490    0.64200    1.000
    O265     O        0.55530    0.75780    0.67050    1.000
    O266     O        0.50930    0.80010    0.68310    1.000
    O267     O        0.64840    0.76880    0.57340    1.000
    O268     O        0.65420    0.82110    0.53710    1.000
    O269     O        0.48530    0.70290    0.59130    1.000
    O270     O        0.44150    0.74660    0.57200    1.000
    O271     O        0.58430    0.68950    0.48690    1.000
    O272     O        0.58410    0.72670    0.43620    1.000
    Nd35     Nd       0.04254    0.20156    0.13051    1.000
    Nd36     Nd       0.11930    0.20766    0.04760    1.000
    Ge69     Ge       0.09943    0.21519    0.21648    1.000
    Ge70     Ge       0.13880    0.25445    0.13904    1.000
    Ge71     Ge       0.02872    0.14982    0.04117    1.000
    Ge72     Ge       0.10442    0.11853    0.99561    1.000
    C205     C        0.06940    0.24790    0.25200    1.000
    C206     C        0.05440    0.28530    0.23380    1.000
    C207     C        0.03760    0.28120    0.19280    1.000
    C208     C        0.12570    0.31010    0.13630    1.000
    C209     C        0.14800    0.32950    0.10540    1.000
    C210     C        0.14990    0.30670    0.06840    1.000
    C211     C        0.99540    0.18250    0.00970    1.000
    C212     C        0.95590    0.19390    0.02880    1.000
    C213     C        0.96180    0.21630    0.06530    1.000
    C214     C        0.10920    0.12530    0.94040    1.000
    C215     C        0.08390    0.15780    0.92490    1.000
    C216     C        0.08450    0.19390    0.95000    1.000
    O273     O        0.13740    0.24010    0.19010    1.000
    O274     O        0.00410    0.11240    0.06690    1.000
    O275     O        0.05500    0.11430    0.01220    1.000
    O276     O        0.13810    0.19010    0.24310    1.000
    O277     O        0.11200    0.21500    0.11900    1.000
    O278     O        0.07510    0.17980    0.18890    1.000
    O279     O        0.06350    0.17250    0.07060    1.000
    O280     O        0.02790    0.13490    0.14200    1.000
    O281     O        0.05530    0.25780    0.17050    1.000
    O282     O        0.00930    0.30010    0.18310    1.000
    O283     O        0.14840    0.26880    0.07340    1.000
    O284     O        0.15420    0.32110    0.03710    1.000
    O285     O        0.98530    0.20290    0.09130    1.000
    O286     O        0.94150    0.24660    0.07200    1.000
    O287     O        0.08430    0.18950    0.98690    1.000
    O288     O        0.08410    0.22670    0.93620    1.000
    Nd37     Nd       0.45746    0.20156    0.86949    1.000
    Nd38     Nd       0.38070    0.20766    0.95240    1.000
    Ge73     Ge       0.40057    0.21519    0.78352    1.000
    Ge74     Ge       0.36120    0.25445    0.86096    1.000
    Ge75     Ge       0.47128    0.14982    0.95883    1.000
    Ge76     Ge       0.39558    0.11853    0.00439    1.000
    C217     C        0.43060    0.24790    0.74800    1.000
    C218     C        0.44560    0.28530    0.76620    1.000
    C219     C        0.46240    0.28120    0.80720    1.000
    C220     C        0.37430    0.31010    0.86370    1.000
    C221     C        0.35200    0.32950    0.89460    1.000
    C222     C        0.35010    0.30670    0.93160    1.000
    C223     C        0.50460    0.18250    0.99030    1.000
    C224     C        0.54410    0.19390    0.97120    1.000
    C225     C        0.53820    0.21630    0.93470    1.000
    C226     C        0.39080    0.12530    0.05960    1.000
    C227     C        0.41610    0.15780    0.07510    1.000
    C228     C        0.41550    0.19390    0.05000    1.000
    O289     O        0.36260    0.24010    0.80990    1.000
    O290     O        0.49590    0.11240    0.93310    1.000
    O291     O        0.44500    0.11430    0.98780    1.000
    O292     O        0.36190    0.19010    0.75690    1.000
    O293     O        0.38800    0.21500    0.88100    1.000
    O294     O        0.42490    0.17980    0.81110    1.000
    O295     O        0.43650    0.17250    0.92940    1.000
    O296     O        0.47210    0.13490    0.85800    1.000
    O297     O        0.44470    0.25780    0.82950    1.000
    O298     O        0.49070    0.30010    0.81690    1.000
    O299     O        0.35160    0.26880    0.92660    1.000
    O300     O        0.34580    0.32110    0.96290    1.000
    O301     O        0.51470    0.20290    0.90870    1.000
    O302     O        0.55850    0.24660    0.92800    1.000
    O303     O        0.41570    0.18950    0.01310    1.000
    O304     O        0.41590    0.22670    0.06380    1.000
    Nd39     Nd       0.95746    0.70156    0.36949    1.000
    Nd40     Nd       0.88070    0.70766    0.45240    1.000
    Ge77     Ge       0.90057    0.71519    0.28352    1.000
    Ge78     Ge       0.86120    0.75445    0.36096    1.000
    Ge79     Ge       0.97128    0.64982    0.45883    1.000
    Ge80     Ge       0.89558    0.61853    0.50439    1.000
    C229     C        0.93060    0.74790    0.24800    1.000
    C230     C        0.94560    0.78530    0.26620    1.000
    C231     C        0.96240    0.78120    0.30720    1.000
    C232     C        0.87430    0.81010    0.36370    1.000
    C233     C        0.85200    0.82950    0.39460    1.000
    C234     C        0.85010    0.80670    0.43160    1.000
    C235     C        0.00460    0.68250    0.49030    1.000
    C236     C        0.04410    0.69390    0.47120    1.000
    C237     C        0.03820    0.71630    0.43470    1.000
    C238     C        0.89080    0.62530    0.55960    1.000
    C239     C        0.91610    0.65780    0.57510    1.000
    C240     C        0.91550    0.69390    0.55000    1.000
    O305     O        0.86260    0.74010    0.30990    1.000
    O306     O        0.99590    0.61240    0.43310    1.000
    O307     O        0.94500    0.61430    0.48780    1.000
    O308     O        0.86190    0.69010    0.25690    1.000
    O309     O        0.88800    0.71500    0.38100    1.000
    O310     O        0.92490    0.67980    0.31110    1.000
    O311     O        0.93650    0.67250    0.42940    1.000
    O312     O        0.97210    0.63490    0.35800    1.000
    O313     O        0.94470    0.75780    0.32950    1.000
    O314     O        0.99070    0.80010    0.31690    1.000
    O315     O        0.85160    0.76880    0.42660    1.000
    O316     O        0.84580    0.82110    0.46290    1.000
    O317     O        0.01470    0.70290    0.40870    1.000
    O318     O        0.05850    0.74660    0.42800    1.000
    O319     O        0.91570    0.68950    0.51310    1.000
    O320     O        0.91590    0.72670    0.56380    1.000
    Nd41     Nd       0.04254    0.79844    0.36949    1.000
    Nd42     Nd       0.11930    0.79234    0.45240    1.000
    Ge81     Ge       0.09943    0.78481    0.28352    1.000
    Ge82     Ge       0.13880    0.74555    0.36096    1.000
    Ge83     Ge       0.02872    0.85018    0.45883    1.000
    Ge84     Ge       0.10442    0.88147    0.50439    1.000
    C241     C        0.06940    0.75210    0.24800    1.000
    C242     C        0.05440    0.71470    0.26620    1.000
    C243     C        0.03760    0.71880    0.30720    1.000
    C244     C        0.12570    0.68990    0.36370    1.000
    C245     C        0.14800    0.67050    0.39460    1.000
    C246     C        0.14990    0.69330    0.43160    1.000
    C247     C        0.99540    0.81750    0.49030    1.000
    C248     C        0.95590    0.80610    0.47120    1.000
    C249     C        0.96180    0.78370    0.43470    1.000
    C250     C        0.10920    0.87470    0.55960    1.000
    C251     C        0.08390    0.84220    0.57510    1.000
    C252     C        0.08450    0.80610    0.55000    1.000
    O321     O        0.13740    0.75990    0.30990    1.000
    O322     O        0.00410    0.88760    0.43310    1.000
    O323     O        0.05500    0.88570    0.48780    1.000
    O324     O        0.13810    0.80990    0.25690    1.000
    O325     O        0.11200    0.78500    0.38100    1.000
    O326     O        0.07510    0.82020    0.31110    1.000
    O327     O        0.06350    0.82750    0.42940    1.000
    O328     O        0.02790    0.86510    0.35800    1.000
    O329     O        0.05530    0.74220    0.32950    1.000
    O330     O        0.00930    0.69990    0.31690    1.000
    O331     O        0.14840    0.73120    0.42660    1.000
    O332     O        0.15420    0.67890    0.46290    1.000
    O333     O        0.98530    0.79710    0.40870    1.000
    O334     O        0.94150    0.75340    0.42800    1.000
    O335     O        0.08430    0.81050    0.51310    1.000
    O336     O        0.08410    0.77330    0.56380    1.000
    Nd43     Nd       0.54254    0.29844    0.86949    1.000
    Nd44     Nd       0.61930    0.29234    0.95240    1.000
    Ge85     Ge       0.59943    0.28481    0.78352    1.000
    Ge86     Ge       0.63880    0.24555    0.86096    1.000
    Ge87     Ge       0.52872    0.35018    0.95883    1.000
    Ge88     Ge       0.60442    0.38147    0.00439    1.000
    C253     C        0.56940    0.25210    0.74800    1.000
    C254     C        0.55440    0.21470    0.76620    1.000
    C255     C        0.53760    0.21880    0.80720    1.000
    C256     C        0.62570    0.18990    0.86370    1.000
    C257     C        0.64800    0.17050    0.89460    1.000
    C258     C        0.64990    0.19330    0.93160    1.000
    C259     C        0.49540    0.31750    0.99030    1.000
    C260     C        0.45590    0.30610    0.97120    1.000
    C261     C        0.46180    0.28370    0.93470    1.000
    C262     C        0.60920    0.37470    0.05960    1.000
    C263     C        0.58390    0.34220    0.07510    1.000
    C264     C        0.58450    0.30610    0.05000    1.000
    O337     O        0.63740    0.25990    0.80990    1.000
    O338     O        0.50410    0.38760    0.93310    1.000
    O339     O        0.55500    0.38570    0.98780    1.000
    O340     O        0.63810    0.30990    0.75690    1.000
    O341     O        0.61200    0.28500    0.88100    1.000
    O342     O        0.57510    0.32020    0.81110    1.000
    O343     O        0.56350    0.32750    0.92940    1.000
    O344     O        0.52790    0.36510    0.85800    1.000
    O345     O        0.55530    0.24220    0.82950    1.000
    O346     O        0.50930    0.19990    0.81690    1.000
    O347     O        0.64840    0.23120    0.92660    1.000
    O348     O        0.65420    0.17890    0.96290    1.000
    O349     O        0.48530    0.29710    0.90870    1.000
    O350     O        0.44150    0.25340    0.92800    1.000
    O351     O        0.58430    0.31050    0.01310    1.000
    O352     O        0.58410    0.27330    0.06380    1.000
    Nd45     Nd       0.95746    0.29844    0.13051    1.000
    Nd46     Nd       0.88070    0.29234    0.04760    1.000
    Ge89     Ge       0.90057    0.28481    0.21648    1.000
    Ge90     Ge       0.86120    0.24555    0.13904    1.000
    Ge91     Ge       0.97128    0.35018    0.04117    1.000
    Ge92     Ge       0.89558    0.38147    0.99561    1.000
    C265     C        0.93060    0.25210    0.25200    1.000
    C266     C        0.94560    0.21470    0.23380    1.000
    C267     C        0.96240    0.21880    0.19280    1.000
    C268     C        0.87430    0.18990    0.13630    1.000
    C269     C        0.85200    0.17050    0.10540    1.000
    C270     C        0.85010    0.19330    0.06840    1.000
    C271     C        0.00460    0.31750    0.00970    1.000
    C272     C        0.04410    0.30610    0.02880    1.000
    C273     C        0.03820    0.28370    0.06530    1.000
    C274     C        0.89080    0.37470    0.94040    1.000
    C275     C        0.91610    0.34220    0.92490    1.000
    C276     C        0.91550    0.30610    0.95000    1.000
    O353     O        0.86260    0.25990    0.19010    1.000
    O354     O        0.99590    0.38760    0.06690    1.000
    O355     O        0.94500    0.38570    0.01220    1.000
    O356     O        0.86190    0.30990    0.24310    1.000
    O357     O        0.88800    0.28500    0.11900    1.000
    O358     O        0.92490    0.32020    0.18890    1.000
    O359     O        0.93650    0.32750    0.07060    1.000
    O360     O        0.97210    0.36510    0.14200    1.000
    O361     O        0.94470    0.24220    0.17050    1.000
    O362     O        0.99070    0.19990    0.18310    1.000
    O363     O        0.85160    0.23120    0.07340    1.000
    O364     O        0.84580    0.17890    0.03710    1.000
    O365     O        0.01470    0.29710    0.09130    1.000
    O366     O        0.05850    0.25340    0.07200    1.000
    O367     O        0.91570    0.31050    0.98690    1.000
    O368     O        0.91590    0.27330    0.93620    1.000
    Nd47     Nd       0.45746    0.79844    0.63051    1.000
    Nd48     Nd       0.38070    0.79234    0.54760    1.000
    Ge93     Ge       0.40057    0.78481    0.71648    1.000
    Ge94     Ge       0.36120    0.74555    0.63904    1.000
    Ge95     Ge       0.47128    0.85018    0.54117    1.000
    Ge96     Ge       0.39558    0.88147    0.49561    1.000
    C277     C        0.43060    0.75210    0.75200    1.000
    C278     C        0.44560    0.71470    0.73380    1.000
    C279     C        0.46240    0.71880    0.69280    1.000
    C280     C        0.37430    0.68990    0.63630    1.000
    C281     C        0.35200    0.67050    0.60540    1.000
    C282     C        0.35010    0.69330    0.56840    1.000
    C283     C        0.50460    0.81750    0.50970    1.000
    C284     C        0.54410    0.80610    0.52880    1.000
    C285     C        0.53820    0.78370    0.56530    1.000
    C286     C        0.39080    0.87470    0.44040    1.000
    C287     C        0.41610    0.84220    0.42490    1.000
    C288     C        0.41550    0.80610    0.45000    1.000
    O369     O        0.36260    0.75990    0.69010    1.000
    O370     O        0.49590    0.88760    0.56690    1.000
    O371     O        0.44500    0.88570    0.51220    1.000
    O372     O        0.36190    0.80990    0.74310    1.000
    O373     O        0.38800    0.78500    0.61900    1.000
    O374     O        0.42490    0.82020    0.68890    1.000
    O375     O        0.43650    0.82750    0.57060    1.000
    O376     O        0.47210    0.86510    0.64200    1.000
    O377     O        0.44470    0.74220    0.67050    1.000
    O378     O        0.49070    0.69990    0.68310    1.000
    O379     O        0.35160    0.73120    0.57340    1.000
    O380     O        0.34580    0.67890    0.53710    1.000
    O381     O        0.51470    0.79710    0.59130    1.000
    O382     O        0.55850    0.75340    0.57200    1.000
    O383     O        0.41570    0.81050    0.48690    1.000
    O384     O        0.41590    0.77330    0.43620    1.000
    Nd49     Nd       0.69885    0.69885    0.69885    1.000
    Nd50     Nd       0.54988    0.54988    0.54988    1.000
    Nd51     Nd       0.19885    0.19885    0.19885    1.000
    Nd52     Nd       0.04988    0.04988    0.04988    1.000
    Nd53     Nd       0.80115    0.30115    0.19885    1.000
    Nd54     Nd       0.95012    0.45012    0.04988    1.000
    Nd55     Nd       0.30115    0.80115    0.69885    1.000
    Nd56     Nd       0.45012    0.95012    0.54988    1.000
    Nd57     Nd       0.30115    0.19885    0.80115    1.000
    Nd58     Nd       0.45012    0.04988    0.95012    1.000
    Nd59     Nd       0.80115    0.69885    0.30115    1.000
    Nd60     Nd       0.95012    0.54988    0.45012    1.000
    Nd61     Nd       0.19885    0.80115    0.30115    1.000
    Nd62     Nd       0.04988    0.95012    0.45012    1.000
    Nd63     Nd       0.69885    0.30115    0.80115    1.000
    Nd64     Nd       0.54988    0.45012    0.95012    1.000
    Nd65     Nd       0.36949    0.45746    0.29844    1.000
    Nd66     Nd       0.45240    0.38070    0.29234    1.000
    Ge97     Ge       0.28352    0.40057    0.28481    1.000
    Ge98     Ge       0.36096    0.36120    0.24555    1.000
    Ge99     Ge       0.45883    0.47128    0.35018    1.000
    Ge100    Ge       0.50439    0.39558    0.38147    1.000
    C289     C        0.24800    0.43060    0.25210    1.000
    C290     C        0.26620    0.44560    0.21470    1.000
    C291     C        0.30720    0.46240    0.21880    1.000
    C292     C        0.36370    0.37430    0.18990    1.000
    C293     C        0.39460    0.35200    0.17050    1.000
    C294     C        0.43160    0.35010    0.19330    1.000
    C295     C        0.49030    0.50460    0.31750    1.000
    C296     C        0.47120    0.54410    0.30610    1.000
    C297     C        0.43470    0.53820    0.28370    1.000
    C298     C        0.55960    0.39080    0.37470    1.000
    C299     C        0.57510    0.41610    0.34220    1.000
    C300     C        0.55000    0.41550    0.30610    1.000
    O385     O        0.30990    0.36260    0.25990    1.000
    O386     O        0.43310    0.49590    0.38760    1.000
    O387     O        0.48780    0.44500    0.38570    1.000
    O388     O        0.25690    0.36190    0.30990    1.000
    O389     O        0.38100    0.38800    0.28500    1.000
    O390     O        0.31110    0.42490    0.32020    1.000
    O391     O        0.42940    0.43650    0.32750    1.000
    O392     O        0.35800    0.47210    0.36510    1.000
    O393     O        0.32950    0.44470    0.24220    1.000
    O394     O        0.31690    0.49070    0.19990    1.000
    O395     O        0.42660    0.35160    0.23120    1.000
    O396     O        0.46290    0.34580    0.17890    1.000
    O397     O        0.40870    0.51470    0.29710    1.000
    O398     O        0.42800    0.55850    0.25340    1.000
    O399     O        0.51310    0.41570    0.31050    1.000
    O400     O        0.56380    0.41590    0.27330    1.000
    Nd67     Nd       0.86949    0.95746    0.79844    1.000
    Nd68     Nd       0.95240    0.88070    0.79234    1.000
    Ge101    Ge       0.78352    0.90057    0.78481    1.000
    Ge102    Ge       0.86096    0.86120    0.74555    1.000
    Ge103    Ge       0.95883    0.97128    0.85018    1.000
    Ge104    Ge       0.00439    0.89558    0.88147    1.000
    C301     C        0.74800    0.93060    0.75210    1.000
    C302     C        0.76620    0.94560    0.71470    1.000
    C303     C        0.80720    0.96240    0.71880    1.000
    C304     C        0.86370    0.87430    0.68990    1.000
    C305     C        0.89460    0.85200    0.67050    1.000
    C306     C        0.93160    0.85010    0.69330    1.000
    C307     C        0.99030    0.00460    0.81750    1.000
    C308     C        0.97120    0.04410    0.80610    1.000
    C309     C        0.93470    0.03820    0.78370    1.000
    C310     C        0.05960    0.89080    0.87470    1.000
    C311     C        0.07510    0.91610    0.84220    1.000
    C312     C        0.05000    0.91550    0.80610    1.000
    O401     O        0.80990    0.86260    0.75990    1.000
    O402     O        0.93310    0.99590    0.88760    1.000
    O403     O        0.98780    0.94500    0.88570    1.000
    O404     O        0.75690    0.86190    0.80990    1.000
    O405     O        0.88100    0.88800    0.78500    1.000
    O406     O        0.81110    0.92490    0.82020    1.000
    O407     O        0.92940    0.93650    0.82750    1.000
    O408     O        0.85800    0.97210    0.86510    1.000
    O409     O        0.82950    0.94470    0.74220    1.000
    O410     O        0.81690    0.99070    0.69990    1.000
    O411     O        0.92660    0.85160    0.73120    1.000
    O412     O        0.96290    0.84580    0.67890    1.000
    O413     O        0.90870    0.01470    0.79710    1.000
    O414     O        0.92800    0.05850    0.75340    1.000
    O415     O        0.01310    0.91570    0.81050    1.000
    O416     O        0.06380    0.91590    0.77330    1.000
    Nd69     Nd       0.13051    0.54254    0.79844    1.000
    Nd70     Nd       0.04760    0.61930    0.79234    1.000
    Ge105    Ge       0.21648    0.59943    0.78481    1.000
    Ge106    Ge       0.13904    0.63880    0.74555    1.000
    Ge107    Ge       0.04117    0.52872    0.85018    1.000
    Ge108    Ge       0.99561    0.60442    0.88147    1.000
    C313     C        0.25200    0.56940    0.75210    1.000
    C314     C        0.23380    0.55440    0.71470    1.000
    C315     C        0.19280    0.53760    0.71880    1.000
    C316     C        0.13630    0.62570    0.68990    1.000
    C317     C        0.10540    0.64800    0.67050    1.000
    C318     C        0.06840    0.64990    0.69330    1.000
    C319     C        0.00970    0.49540    0.81750    1.000
    C320     C        0.02880    0.45590    0.80610    1.000
    C321     C        0.06530    0.46180    0.78370    1.000
    C322     C        0.94040    0.60920    0.87470    1.000
    C323     C        0.92490    0.58390    0.84220    1.000
    C324     C        0.95000    0.58450    0.80610    1.000
    O417     O        0.19010    0.63740    0.75990    1.000
    O418     O        0.06690    0.50410    0.88760    1.000
    O419     O        0.01220    0.55500    0.88570    1.000
    O420     O        0.24310    0.63810    0.80990    1.000
    O421     O        0.11900    0.61200    0.78500    1.000
    O422     O        0.18890    0.57510    0.82020    1.000
    O423     O        0.07060    0.56350    0.82750    1.000
    O424     O        0.14200    0.52790    0.86510    1.000
    O425     O        0.17050    0.55530    0.74220    1.000
    O426     O        0.18310    0.50930    0.69990    1.000
    O427     O        0.07340    0.64840    0.73120    1.000
    O428     O        0.03710    0.65420    0.67890    1.000
    O429     O        0.09130    0.48530    0.79710    1.000
    O430     O        0.07200    0.44150    0.75340    1.000
    O431     O        0.98690    0.58430    0.81050    1.000
    O432     O        0.93620    0.58410    0.77330    1.000
    Nd71     Nd       0.63051    0.04254    0.29844    1.000
    Nd72     Nd       0.54760    0.11930    0.29234    1.000
    Ge109    Ge       0.71648    0.09943    0.28481    1.000
    Ge110    Ge       0.63904    0.13880    0.24555    1.000
    Ge111    Ge       0.54117    0.02872    0.35018    1.000
    Ge112    Ge       0.49561    0.10442    0.38147    1.000
    C325     C        0.75200    0.06940    0.25210    1.000
    C326     C        0.73380    0.05440    0.21470    1.000
    C327     C        0.69280    0.03760    0.21880    1.000
    C328     C        0.63630    0.12570    0.18990    1.000
    C329     C        0.60540    0.14800    0.17050    1.000
    C330     C        0.56840    0.14990    0.19330    1.000
    C331     C        0.50970    0.99540    0.31750    1.000
    C332     C        0.52880    0.95590    0.30610    1.000
    C333     C        0.56530    0.96180    0.28370    1.000
    C334     C        0.44040    0.10920    0.37470    1.000
    C335     C        0.42490    0.08390    0.34220    1.000
    C336     C        0.45000    0.08450    0.30610    1.000
    O433     O        0.69010    0.13740    0.25990    1.000
    O434     O        0.56690    0.00410    0.38760    1.000
    O435     O        0.51220    0.05500    0.38570    1.000
    O436     O        0.74310    0.13810    0.30990    1.000
    O437     O        0.61900    0.11200    0.28500    1.000
    O438     O        0.68890    0.07510    0.32020    1.000
    O439     O        0.57060    0.06350    0.32750    1.000
    O440     O        0.64200    0.02790    0.36510    1.000
    O441     O        0.67050    0.05530    0.24220    1.000
    O442     O        0.68310    0.00930    0.19990    1.000
    O443     O        0.57340    0.14840    0.23120    1.000
    O444     O        0.53710    0.15420    0.17890    1.000
    O445     O        0.59130    0.98530    0.29710    1.000
    O446     O        0.57200    0.94150    0.25340    1.000
    O447     O        0.48690    0.08430    0.31050    1.000
    O448     O        0.43620    0.08410    0.27330    1.000
    Nd73     Nd       0.63051    0.95746    0.20156    1.000
    Nd74     Nd       0.54760    0.88070    0.20766    1.000
    Ge113    Ge       0.71648    0.90057    0.21519    1.000
    Ge114    Ge       0.63904    0.86120    0.25445    1.000
    Ge115    Ge       0.54117    0.97128    0.14982    1.000
    Ge116    Ge       0.49561    0.89558    0.11853    1.000
    C337     C        0.75200    0.93060    0.24790    1.000
    C338     C        0.73380    0.94560    0.28530    1.000
    C339     C        0.69280    0.96240    0.28120    1.000
    C340     C        0.63630    0.87430    0.31010    1.000
    C341     C        0.60540    0.85200    0.32950    1.000
    C342     C        0.56840    0.85010    0.30670    1.000
    C343     C        0.50970    0.00460    0.18250    1.000
    C344     C        0.52880    0.04410    0.19390    1.000
    C345     C        0.56530    0.03820    0.21630    1.000
    C346     C        0.44040    0.89080    0.12530    1.000
    C347     C        0.42490    0.91610    0.15780    1.000
    C348     C        0.45000    0.91550    0.19390    1.000
    O449     O        0.69010    0.86260    0.24010    1.000
    O450     O        0.56690    0.99590    0.11240    1.000
    O451     O        0.51220    0.94500    0.11430    1.000
    O452     O        0.74310    0.86190    0.19010    1.000
    O453     O        0.61900    0.88800    0.21500    1.000
    O454     O        0.68890    0.92490    0.17980    1.000
    O455     O        0.57060    0.93650    0.17250    1.000
    O456     O        0.64200    0.97210    0.13490    1.000
    O457     O        0.67050    0.94470    0.25780    1.000
    O458     O        0.68310    0.99070    0.30010    1.000
    O459     O        0.57340    0.85160    0.26880    1.000
    O460     O        0.53710    0.84580    0.32110    1.000
    O461     O        0.59130    0.01470    0.20290    1.000
    O462     O        0.57200    0.05850    0.24660    1.000
    O463     O        0.48690    0.91570    0.18950    1.000
    O464     O        0.43620    0.91590    0.22670    1.000
    Nd75     Nd       0.13051    0.45746    0.70156    1.000
    Nd76     Nd       0.04760    0.38070    0.70766    1.000
    Ge117    Ge       0.21648    0.40057    0.71519    1.000
    Ge118    Ge       0.13904    0.36120    0.75445    1.000
    Ge119    Ge       0.04117    0.47128    0.64982    1.000
    Ge120    Ge       0.99561    0.39558    0.61853    1.000
    C349     C        0.25200    0.43060    0.74790    1.000
    C350     C        0.23380    0.44560    0.78530    1.000
    C351     C        0.19280    0.46240    0.78120    1.000
    C352     C        0.13630    0.37430    0.81010    1.000
    C353     C        0.10540    0.35200    0.82950    1.000
    C354     C        0.06840    0.35010    0.80670    1.000
    C355     C        0.00970    0.50460    0.68250    1.000
    C356     C        0.02880    0.54410    0.69390    1.000
    C357     C        0.06530    0.53820    0.71630    1.000
    C358     C        0.94040    0.39080    0.62530    1.000
    C359     C        0.92490    0.41610    0.65780    1.000
    C360     C        0.95000    0.41550    0.69390    1.000
    O465     O        0.19010    0.36260    0.74010    1.000
    O466     O        0.06690    0.49590    0.61240    1.000
    O467     O        0.01220    0.44500    0.61430    1.000
    O468     O        0.24310    0.36190    0.69010    1.000
    O469     O        0.11900    0.38800    0.71500    1.000
    O470     O        0.18890    0.42490    0.67980    1.000
    O471     O        0.07060    0.43650    0.67250    1.000
    O472     O        0.14200    0.47210    0.63490    1.000
    O473     O        0.17050    0.44470    0.75780    1.000
    O474     O        0.18310    0.49070    0.80010    1.000
    O475     O        0.07340    0.35160    0.76880    1.000
    O476     O        0.03710    0.34580    0.82110    1.000
    O477     O        0.09130    0.51470    0.70290    1.000
    O478     O        0.07200    0.55850    0.74660    1.000
    O479     O        0.98690    0.41570    0.68950    1.000
    O480     O        0.93620    0.41590    0.72670    1.000
    Nd77     Nd       0.86949    0.04254    0.70156    1.000
    Nd78     Nd       0.95240    0.11930    0.70766    1.000
    Ge121    Ge       0.78352    0.09943    0.71519    1.000
    Ge122    Ge       0.86096    0.13880    0.75445    1.000
    Ge123    Ge       0.95883    0.02872    0.64982    1.000
    Ge124    Ge       0.00439    0.10442    0.61853    1.000
    C361     C        0.74800    0.06940    0.74790    1.000
    C362     C        0.76620    0.05440    0.78530    1.000
    C363     C        0.80720    0.03760    0.78120    1.000
    C364     C        0.86370    0.12570    0.81010    1.000
    C365     C        0.89460    0.14800    0.82950    1.000
    C366     C        0.93160    0.14990    0.80670    1.000
    C367     C        0.99030    0.99540    0.68250    1.000
    C368     C        0.97120    0.95590    0.69390    1.000
    C369     C        0.93470    0.96180    0.71630    1.000
    C370     C        0.05960    0.10920    0.62530    1.000
    C371     C        0.07510    0.08390    0.65780    1.000
    C372     C        0.05000    0.08450    0.69390    1.000
    O481     O        0.80990    0.13740    0.74010    1.000
    O482     O        0.93310    0.00410    0.61240    1.000
    O483     O        0.98780    0.05500    0.61430    1.000
    O484     O        0.75690    0.13810    0.69010    1.000
    O485     O        0.88100    0.11200    0.71500    1.000
    O486     O        0.81110    0.07510    0.67980    1.000
    O487     O        0.92940    0.06350    0.67250    1.000
    O488     O        0.85800    0.02790    0.63490    1.000
    O489     O        0.82950    0.05530    0.75780    1.000
    O490     O        0.81690    0.00930    0.80010    1.000
    O491     O        0.92660    0.14840    0.76880    1.000
    O492     O        0.96290    0.15420    0.82110    1.000
    O493     O        0.90870    0.98530    0.70290    1.000
    O494     O        0.92800    0.94150    0.74660    1.000
    O495     O        0.01310    0.08430    0.68950    1.000
    O496     O        0.06380    0.08410    0.72670    1.000
    Nd79     Nd       0.36949    0.54254    0.20156    1.000
    Nd80     Nd       0.45240    0.61930    0.20766    1.000
    Ge125    Ge       0.28352    0.59943    0.21519    1.000
    Ge126    Ge       0.36096    0.63880    0.25445    1.000
    Ge127    Ge       0.45883    0.52872    0.14982    1.000
    Ge128    Ge       0.50439    0.60442    0.11853    1.000
    C373     C        0.24800    0.56940    0.24790    1.000
    C374     C        0.26620    0.55440    0.28530    1.000
    C375     C        0.30720    0.53760    0.28120    1.000
    C376     C        0.36370    0.62570    0.31010    1.000
    C377     C        0.39460    0.64800    0.32950    1.000
    C378     C        0.43160    0.64990    0.30670    1.000
    C379     C        0.49030    0.49540    0.18250    1.000
    C380     C        0.47120    0.45590    0.19390    1.000
    C381     C        0.43470    0.46180    0.21630    1.000
    C382     C        0.55960    0.60920    0.12530    1.000
    C383     C        0.57510    0.58390    0.15780    1.000
    C384     C        0.55000    0.58450    0.19390    1.000
    O497     O        0.30990    0.63740    0.24010    1.000
    O498     O        0.43310    0.50410    0.11240    1.000
    O499     O        0.48780    0.55500    0.11430    1.000
    O500     O        0.25690    0.63810    0.19010    1.000
    O501     O        0.38100    0.61200    0.21500    1.000
    O502     O        0.31110    0.57510    0.17980    1.000
    O503     O        0.42940    0.56350    0.17250    1.000
    O504     O        0.35800    0.52790    0.13490    1.000
    O505     O        0.32950    0.55530    0.25780    1.000
    O506     O        0.31690    0.50930    0.30010    1.000
    O507     O        0.42660    0.64840    0.26880    1.000
    O508     O        0.46290    0.65420    0.32110    1.000
    O509     O        0.40870    0.48530    0.20290    1.000
    O510     O        0.42800    0.44150    0.24660    1.000
    O511     O        0.51310    0.58430    0.18950    1.000
    O512     O        0.56380    0.58410    0.22670    1.000
    Nd81     Nd       0.29844    0.36949    0.45746    1.000
    Nd82     Nd       0.29234    0.45240    0.38070    1.000
    Ge129    Ge       0.28481    0.28352    0.40057    1.000
    Ge130    Ge       0.24555    0.36096    0.36120    1.000
    Ge131    Ge       0.35018    0.45883    0.47128    1.000
    Ge132    Ge       0.38147    0.50439    0.39558    1.000
    C385     C        0.25210    0.24800    0.43060    1.000
    C386     C        0.21470    0.26620    0.44560    1.000
    C387     C        0.21880    0.30720    0.46240    1.000
    C388     C        0.18990    0.36370    0.37430    1.000
    C389     C        0.17050    0.39460    0.35200    1.000
    C390     C        0.19330    0.43160    0.35010    1.000
    C391     C        0.31750    0.49030    0.50460    1.000
    C392     C        0.30610    0.47120    0.54410    1.000
    C393     C        0.28370    0.43470    0.53820    1.000
    C394     C        0.37470    0.55960    0.39080    1.000
    C395     C        0.34220    0.57510    0.41610    1.000
    C396     C        0.30610    0.55000    0.41550    1.000
    O513     O        0.25990    0.30990    0.36260    1.000
    O514     O        0.38760    0.43310    0.49590    1.000
    O515     O        0.38570    0.48780    0.44500    1.000
    O516     O        0.30990    0.25690    0.36190    1.000
    O517     O        0.28500    0.38100    0.38800    1.000
    O518     O        0.32020    0.31110    0.42490    1.000
    O519     O        0.32750    0.42940    0.43650    1.000
    O520     O        0.36510    0.35800    0.47210    1.000
    O521     O        0.24220    0.32950    0.44470    1.000
    O522     O        0.19990    0.31690    0.49070    1.000
    O523     O        0.23120    0.42660    0.35160    1.000
    O524     O        0.17890    0.46290    0.34580    1.000
    O525     O        0.29710    0.40870    0.51470    1.000
    O526     O        0.25340    0.42800    0.55850    1.000
    O527     O        0.31050    0.51310    0.41570    1.000
    O528     O        0.27330    0.56380    0.41590    1.000
    Nd83     Nd       0.79844    0.86949    0.95746    1.000
    Nd84     Nd       0.79234    0.95240    0.88070    1.000
    Ge133    Ge       0.78481    0.78352    0.90057    1.000
    Ge134    Ge       0.74555    0.86096    0.86120    1.000
    Ge135    Ge       0.85018    0.95883    0.97128    1.000
    Ge136    Ge       0.88147    0.00439    0.89558    1.000
    C397     C        0.75210    0.74800    0.93060    1.000
    C398     C        0.71470    0.76620    0.94560    1.000
    C399     C        0.71880    0.80720    0.96240    1.000
    C400     C        0.68990    0.86370    0.87430    1.000
    C401     C        0.67050    0.89460    0.85200    1.000
    C402     C        0.69330    0.93160    0.85010    1.000
    C403     C        0.81750    0.99030    0.00460    1.000
    C404     C        0.80610    0.97120    0.04410    1.000
    C405     C        0.78370    0.93470    0.03820    1.000
    C406     C        0.87470    0.05960    0.89080    1.000
    C407     C        0.84220    0.07510    0.91610    1.000
    C408     C        0.80610    0.05000    0.91550    1.000
    O529     O        0.75990    0.80990    0.86260    1.000
    O530     O        0.88760    0.93310    0.99590    1.000
    O531     O        0.88570    0.98780    0.94500    1.000
    O532     O        0.80990    0.75690    0.86190    1.000
    O533     O        0.78500    0.88100    0.88800    1.000
    O534     O        0.82020    0.81110    0.92490    1.000
    O535     O        0.82750    0.92940    0.93650    1.000
    O536     O        0.86510    0.85800    0.97210    1.000
    O537     O        0.74220    0.82950    0.94470    1.000
    O538     O        0.69990    0.81690    0.99070    1.000
    O539     O        0.73120    0.92660    0.85160    1.000
    O540     O        0.67890    0.96290    0.84580    1.000
    O541     O        0.79710    0.90870    0.01470    1.000
    O542     O        0.75340    0.92800    0.05850    1.000
    O543     O        0.81050    0.01310    0.91570    1.000
    O544     O        0.77330    0.06380    0.91590    1.000
    Nd85     Nd       0.79844    0.13051    0.54254    1.000
    Nd86     Nd       0.79234    0.04760    0.61930    1.000
    Ge137    Ge       0.78481    0.21648    0.59943    1.000
    Ge138    Ge       0.74555    0.13904    0.63880    1.000
    Ge139    Ge       0.85018    0.04117    0.52872    1.000
    Ge140    Ge       0.88147    0.99561    0.60442    1.000
    C409     C        0.75210    0.25200    0.56940    1.000
    C410     C        0.71470    0.23380    0.55440    1.000
    C411     C        0.71880    0.19280    0.53760    1.000
    C412     C        0.68990    0.13630    0.62570    1.000
    C413     C        0.67050    0.10540    0.64800    1.000
    C414     C        0.69330    0.06840    0.64990    1.000
    C415     C        0.81750    0.00970    0.49540    1.000
    C416     C        0.80610    0.02880    0.45590    1.000
    C417     C        0.78370    0.06530    0.46180    1.000
    C418     C        0.87470    0.94040    0.60920    1.000
    C419     C        0.84220    0.92490    0.58390    1.000
    C420     C        0.80610    0.95000    0.58450    1.000
    O545     O        0.75990    0.19010    0.63740    1.000
    O546     O        0.88760    0.06690    0.50410    1.000
    O547     O        0.88570    0.01220    0.55500    1.000
    O548     O        0.80990    0.24310    0.63810    1.000
    O549     O        0.78500    0.11900    0.61200    1.000
    O550     O        0.82020    0.18890    0.57510    1.000
    O551     O        0.82750    0.07060    0.56350    1.000
    O552     O        0.86510    0.14200    0.52790    1.000
    O553     O        0.74220    0.17050    0.55530    1.000
    O554     O        0.69990    0.18310    0.50930    1.000
    O555     O        0.73120    0.07340    0.64840    1.000
    O556     O        0.67890    0.03710    0.65420    1.000
    O557     O        0.79710    0.09130    0.48530    1.000
    O558     O        0.75340    0.07200    0.44150    1.000
    O559     O        0.81050    0.98690    0.58430    1.000
    O560     O        0.77330    0.93620    0.58410    1.000
    Nd87     Nd       0.29844    0.63051    0.04254    1.000
    Nd88     Nd       0.29234    0.54760    0.11930    1.000
    Ge141    Ge       0.28481    0.71648    0.09943    1.000
    Ge142    Ge       0.24555    0.63904    0.13880    1.000
    Ge143    Ge       0.35018    0.54117    0.02872    1.000
    Ge144    Ge       0.38147    0.49561    0.10442    1.000
    C421     C        0.25210    0.75200    0.06940    1.000
    C422     C        0.21470    0.73380    0.05440    1.000
    C423     C        0.21880    0.69280    0.03760    1.000
    C424     C        0.18990    0.63630    0.12570    1.000
    C425     C        0.17050    0.60540    0.14800    1.000
    C426     C        0.19330    0.56840    0.14990    1.000
    C427     C        0.31750    0.50970    0.99540    1.000
    C428     C        0.30610    0.52880    0.95590    1.000
    C429     C        0.28370    0.56530    0.96180    1.000
    C430     C        0.37470    0.44040    0.10920    1.000
    C431     C        0.34220    0.42490    0.08390    1.000
    C432     C        0.30610    0.45000    0.08450    1.000
    O561     O        0.25990    0.69010    0.13740    1.000
    O562     O        0.38760    0.56690    0.00410    1.000
    O563     O        0.38570    0.51220    0.05500    1.000
    O564     O        0.30990    0.74310    0.13810    1.000
    O565     O        0.28500    0.61900    0.11200    1.000
    O566     O        0.32020    0.68890    0.07510    1.000
    O567     O        0.32750    0.57060    0.06350    1.000
    O568     O        0.36510    0.64200    0.02790    1.000
    O569     O        0.24220    0.67050    0.05530    1.000
    O570     O        0.19990    0.68310    0.00930    1.000
    O571     O        0.23120    0.57340    0.14840    1.000
    O572     O        0.17890    0.53710    0.15420    1.000
    O573     O        0.29710    0.59130    0.98530    1.000
    O574     O        0.25340    0.57200    0.94150    1.000
    O575     O        0.31050    0.48690    0.08430    1.000
    O576     O        0.27330    0.43620    0.08410    1.000
    Nd89     Nd       0.20156    0.63051    0.95746    1.000
    Nd90     Nd       0.20766    0.54760    0.88070    1.000
    Ge145    Ge       0.21519    0.71648    0.90057    1.000
    Ge146    Ge       0.25445    0.63904    0.86120    1.000
    Ge147    Ge       0.14982    0.54117    0.97128    1.000
    Ge148    Ge       0.11853    0.49561    0.89558    1.000
    C433     C        0.24790    0.75200    0.93060    1.000
    C434     C        0.28530    0.73380    0.94560    1.000
    C435     C        0.28120    0.69280    0.96240    1.000
    C436     C        0.31010    0.63630    0.87430    1.000
    C437     C        0.32950    0.60540    0.85200    1.000
    C438     C        0.30670    0.56840    0.85010    1.000
    C439     C        0.18250    0.50970    0.00460    1.000
    C440     C        0.19390    0.52880    0.04410    1.000
    C441     C        0.21630    0.56530    0.03820    1.000
    C442     C        0.12530    0.44040    0.89080    1.000
    C443     C        0.15780    0.42490    0.91610    1.000
    C444     C        0.19390    0.45000    0.91550    1.000
    O577     O        0.24010    0.69010    0.86260    1.000
    O578     O        0.11240    0.56690    0.99590    1.000
    O579     O        0.11430    0.51220    0.94500    1.000
    O580     O        0.19010    0.74310    0.86190    1.000
    O581     O        0.21500    0.61900    0.88800    1.000
    O582     O        0.17980    0.68890    0.92490    1.000
    O583     O        0.17250    0.57060    0.93650    1.000
    O584     O        0.13490    0.64200    0.97210    1.000
    O585     O        0.25780    0.67050    0.94470    1.000
    O586     O        0.30010    0.68310    0.99070    1.000
    O587     O        0.26880    0.57340    0.85160    1.000
    O588     O        0.32110    0.53710    0.84580    1.000
    O589     O        0.20290    0.59130    0.01470    1.000
    O590     O        0.24660    0.57200    0.05850    1.000
    O591     O        0.18950    0.48690    0.91570    1.000
    O592     O        0.22670    0.43620    0.91590    1.000
    Nd91     Nd       0.70156    0.13051    0.45746    1.000
    Nd92     Nd       0.70766    0.04760    0.38070    1.000
    Ge149    Ge       0.71519    0.21648    0.40057    1.000
    Ge150    Ge       0.75445    0.13904    0.36120    1.000
    Ge151    Ge       0.64982    0.04117    0.47128    1.000
    Ge152    Ge       0.61853    0.99561    0.39558    1.000
    C445     C        0.74790    0.25200    0.43060    1.000
    C446     C        0.78530    0.23380    0.44560    1.000
    C447     C        0.78120    0.19280    0.46240    1.000
    C448     C        0.81010    0.13630    0.37430    1.000
    C449     C        0.82950    0.10540    0.35200    1.000
    C450     C        0.80670    0.06840    0.35010    1.000
    C451     C        0.68250    0.00970    0.50460    1.000
    C452     C        0.69390    0.02880    0.54410    1.000
    C453     C        0.71630    0.06530    0.53820    1.000
    C454     C        0.62530    0.94040    0.39080    1.000
    C455     C        0.65780    0.92490    0.41610    1.000
    C456     C        0.69390    0.95000    0.41550    1.000
    O593     O        0.74010    0.19010    0.36260    1.000
    O594     O        0.61240    0.06690    0.49590    1.000
    O595     O        0.61430    0.01220    0.44500    1.000
    O596     O        0.69010    0.24310    0.36190    1.000
    O597     O        0.71500    0.11900    0.38800    1.000
    O598     O        0.67980    0.18890    0.42490    1.000
    O599     O        0.67250    0.07060    0.43650    1.000
    O600     O        0.63490    0.14200    0.47210    1.000
    O601     O        0.75780    0.17050    0.44470    1.000
    O602     O        0.80010    0.18310    0.49070    1.000
    O603     O        0.76880    0.07340    0.35160    1.000
    O604     O        0.82110    0.03710    0.34580    1.000
    O605     O        0.70290    0.09130    0.51470    1.000
    O606     O        0.74660    0.07200    0.55850    1.000
    O607     O        0.68950    0.98690    0.41570    1.000
    O608     O        0.72670    0.93620    0.41590    1.000
    Nd93     Nd       0.70156    0.86949    0.04254    1.000
    Nd94     Nd       0.70766    0.95240    0.11930    1.000
    Ge153    Ge       0.71519    0.78352    0.09943    1.000
    Ge154    Ge       0.75445    0.86096    0.13880    1.000
    Ge155    Ge       0.64982    0.95883    0.02872    1.000
    Ge156    Ge       0.61853    0.00439    0.10442    1.000
    C457     C        0.74790    0.74800    0.06940    1.000
    C458     C        0.78530    0.76620    0.05440    1.000
    C459     C        0.78120    0.80720    0.03760    1.000
    C460     C        0.81010    0.86370    0.12570    1.000
    C461     C        0.82950    0.89460    0.14800    1.000
    C462     C        0.80670    0.93160    0.14990    1.000
    C463     C        0.68250    0.99030    0.99540    1.000
    C464     C        0.69390    0.97120    0.95590    1.000
    C465     C        0.71630    0.93470    0.96180    1.000
    C466     C        0.62530    0.05960    0.10920    1.000
    C467     C        0.65780    0.07510    0.08390    1.000
    C468     C        0.69390    0.05000    0.08450    1.000
    O609     O        0.74010    0.80990    0.13740    1.000
    O610     O        0.61240    0.93310    0.00410    1.000
    O611     O        0.61430    0.98780    0.05500    1.000
    O612     O        0.69010    0.75690    0.13810    1.000
    O613     O        0.71500    0.88100    0.11200    1.000
    O614     O        0.67980    0.81110    0.07510    1.000
    O615     O        0.67250    0.92940    0.06350    1.000
    O616     O        0.63490    0.85800    0.02790    1.000
    O617     O        0.75780    0.82950    0.05530    1.000
    O618     O        0.80010    0.81690    0.00930    1.000
    O619     O        0.76880    0.92660    0.14840    1.000
    O620     O        0.82110    0.96290    0.15420    1.000
    O621     O        0.70290    0.90870    0.98530    1.000
    O622     O        0.74660    0.92800    0.94150    1.000
    O623     O        0.68950    0.01310    0.08430    1.000
    O624     O        0.72670    0.06380    0.08410    1.000
    Nd95     Nd       0.20156    0.36949    0.54254    1.000
    Nd96     Nd       0.20766    0.45240    0.61930    1.000
    Ge157    Ge       0.21519    0.28352    0.59943    1.000
    Ge158    Ge       0.25445    0.36096    0.63880    1.000
    Ge159    Ge       0.14982    0.45883    0.52872    1.000
    Ge160    Ge       0.11853    0.50439    0.60442    1.000
    C469     C        0.24790    0.24800    0.56940    1.000
    C470     C        0.28530    0.26620    0.55440    1.000
    C471     C        0.28120    0.30720    0.53760    1.000
    C472     C        0.31010    0.36370    0.62570    1.000
    C473     C        0.32950    0.39460    0.64800    1.000
    C474     C        0.30670    0.43160    0.64990    1.000
    C475     C        0.18250    0.49030    0.49540    1.000
    C476     C        0.19390    0.47120    0.45590    1.000
    C477     C        0.21630    0.43470    0.46180    1.000
    C478     C        0.12530    0.55960    0.60920    1.000
    C479     C        0.15780    0.57510    0.58390    1.000
    C480     C        0.19390    0.55000    0.58450    1.000
    O625     O        0.24010    0.30990    0.63740    1.000
    O626     O        0.11240    0.43310    0.50410    1.000
    O627     O        0.11430    0.48780    0.55500    1.000
    O628     O        0.19010    0.25690    0.63810    1.000
    O629     O        0.21500    0.38100    0.61200    1.000
    O630     O        0.17980    0.31110    0.57510    1.000
    O631     O        0.17250    0.42940    0.56350    1.000
    O632     O        0.13490    0.35800    0.52790    1.000
    O633     O        0.25780    0.32950    0.55530    1.000
    O634     O        0.30010    0.31690    0.50930    1.000
    O635     O        0.26880    0.42660    0.64840    1.000
    O636     O        0.32110    0.46290    0.65420    1.000
    O637     O        0.20290    0.40870    0.48530    1.000
    O638     O        0.24660    0.42800    0.44150    1.000
    O639     O        0.18950    0.51310    0.58430    1.000
    O640     O        0.22670    0.56380    0.58410    1.000
    Nd97     Nd       0.45746    0.29844    0.36949    1.000
    Nd98     Nd       0.38070    0.29234    0.45240    1.000
    Ge161    Ge       0.40057    0.28481    0.28352    1.000
    Ge162    Ge       0.36120    0.24555    0.36096    1.000
    Ge163    Ge       0.47128    0.35018    0.45883    1.000
    Ge164    Ge       0.39558    0.38147    0.50439    1.000
    C481     C        0.43060    0.25210    0.24800    1.000
    C482     C        0.44560    0.21470    0.26620    1.000
    C483     C        0.46240    0.21880    0.30720    1.000
    C484     C        0.37430    0.18990    0.36370    1.000
    C485     C        0.35200    0.17050    0.39460    1.000
    C486     C        0.35010    0.19330    0.43160    1.000
    C487     C        0.50460    0.31750    0.49030    1.000
    C488     C        0.54410    0.30610    0.47120    1.000
    C489     C        0.53820    0.28370    0.43470    1.000
    C490     C        0.39080    0.37470    0.55960    1.000
    C491     C        0.41610    0.34220    0.57510    1.000
    C492     C        0.41550    0.30610    0.55000    1.000
    O641     O        0.36260    0.25990    0.30990    1.000
    O642     O        0.49590    0.38760    0.43310    1.000
    O643     O        0.44500    0.38570    0.48780    1.000
    O644     O        0.36190    0.30990    0.25690    1.000
    O645     O        0.38800    0.28500    0.38100    1.000
    O646     O        0.42490    0.32020    0.31110    1.000
    O647     O        0.43650    0.32750    0.42940    1.000
    O648     O        0.47210    0.36510    0.35800    1.000
    O649     O        0.44470    0.24220    0.32950    1.000
    O650     O        0.49070    0.19990    0.31690    1.000
    O651     O        0.35160    0.23120    0.42660    1.000
    O652     O        0.34580    0.17890    0.46290    1.000
    O653     O        0.51470    0.29710    0.40870    1.000
    O654     O        0.55850    0.25340    0.42800    1.000
    O655     O        0.41570    0.31050    0.51310    1.000
    O656     O        0.41590    0.27330    0.56380    1.000
    Nd99     Nd       0.95746    0.79844    0.86949    1.000
    Nd100    Nd       0.88070    0.79234    0.95240    1.000
    Ge165    Ge       0.90057    0.78481    0.78352    1.000
    Ge166    Ge       0.86120    0.74555    0.86096    1.000
    Ge167    Ge       0.97128    0.85018    0.95883    1.000
    Ge168    Ge       0.89558    0.88147    0.00439    1.000
    C493     C        0.93060    0.75210    0.74800    1.000
    C494     C        0.94560    0.71470    0.76620    1.000
    C495     C        0.96240    0.71880    0.80720    1.000
    C496     C        0.87430    0.68990    0.86370    1.000
    C497     C        0.85200    0.67050    0.89460    1.000
    C498     C        0.85010    0.69330    0.93160    1.000
    C499     C        0.00460    0.81750    0.99030    1.000
    C500     C        0.04410    0.80610    0.97120    1.000
    C501     C        0.03820    0.78370    0.93470    1.000
    C502     C        0.89080    0.87470    0.05960    1.000
    C503     C        0.91610    0.84220    0.07510    1.000
    C504     C        0.91550    0.80610    0.05000    1.000
    O657     O        0.86260    0.75990    0.80990    1.000
    O658     O        0.99590    0.88760    0.93310    1.000
    O659     O        0.94500    0.88570    0.98780    1.000
    O660     O        0.86190    0.80990    0.75690    1.000
    O661     O        0.88800    0.78500    0.88100    1.000
    O662     O        0.92490    0.82020    0.81110    1.000
    O663     O        0.93650    0.82750    0.92940    1.000
    O664     O        0.97210    0.86510    0.85800    1.000
    O665     O        0.94470    0.74220    0.82950    1.000
    O666     O        0.99070    0.69990    0.81690    1.000
    O667     O        0.85160    0.73120    0.92660    1.000
    O668     O        0.84580    0.67890    0.96290    1.000
    O669     O        0.01470    0.79710    0.90870    1.000
    O670     O        0.05850    0.75340    0.92800    1.000
    O671     O        0.91570    0.81050    0.01310    1.000
    O672     O        0.91590    0.77330    0.06380    1.000
    Nd101    Nd       0.54254    0.79844    0.13051    1.000
    Nd102    Nd       0.61930    0.79234    0.04760    1.000
    Ge169    Ge       0.59943    0.78481    0.21648    1.000
    Ge170    Ge       0.63880    0.74555    0.13904    1.000
    Ge171    Ge       0.52872    0.85018    0.04117    1.000
    Ge172    Ge       0.60442    0.88147    0.99561    1.000
    C505     C        0.56940    0.75210    0.25200    1.000
    C506     C        0.55440    0.71470    0.23380    1.000
    C507     C        0.53760    0.71880    0.19280    1.000
    C508     C        0.62570    0.68990    0.13630    1.000
    C509     C        0.64800    0.67050    0.10540    1.000
    C510     C        0.64990    0.69330    0.06840    1.000
    C511     C        0.49540    0.81750    0.00970    1.000
    C512     C        0.45590    0.80610    0.02880    1.000
    C513     C        0.46180    0.78370    0.06530    1.000
    C514     C        0.60920    0.87470    0.94040    1.000
    C515     C        0.58390    0.84220    0.92490    1.000
    C516     C        0.58450    0.80610    0.95000    1.000
    O673     O        0.63740    0.75990    0.19010    1.000
    O674     O        0.50410    0.88760    0.06690    1.000
    O675     O        0.55500    0.88570    0.01220    1.000
    O676     O        0.63810    0.80990    0.24310    1.000
    O677     O        0.61200    0.78500    0.11900    1.000
    O678     O        0.57510    0.82020    0.18890    1.000
    O679     O        0.56350    0.82750    0.07060    1.000
    O680     O        0.52790    0.86510    0.14200    1.000
    O681     O        0.55530    0.74220    0.17050    1.000
    O682     O        0.50930    0.69990    0.18310    1.000
    O683     O        0.64840    0.73120    0.07340    1.000
    O684     O        0.65420    0.67890    0.03710    1.000
    O685     O        0.48530    0.79710    0.09130    1.000
    O686     O        0.44150    0.75340    0.07200    1.000
    O687     O        0.58430    0.81050    0.98690    1.000
    O688     O        0.58410    0.77330    0.93620    1.000
    Nd103    Nd       0.04254    0.29844    0.63051    1.000
    Nd104    Nd       0.11930    0.29234    0.54760    1.000
    Ge173    Ge       0.09943    0.28481    0.71648    1.000
    Ge174    Ge       0.13880    0.24555    0.63904    1.000
    Ge175    Ge       0.02872    0.35018    0.54117    1.000
    Ge176    Ge       0.10442    0.38147    0.49561    1.000
    C517     C        0.06940    0.25210    0.75200    1.000
    C518     C        0.05440    0.21470    0.73380    1.000
    C519     C        0.03760    0.21880    0.69280    1.000
    C520     C        0.12570    0.18990    0.63630    1.000
    C521     C        0.14800    0.17050    0.60540    1.000
    C522     C        0.14990    0.19330    0.56840    1.000
    C523     C        0.99540    0.31750    0.50970    1.000
    C524     C        0.95590    0.30610    0.52880    1.000
    C525     C        0.96180    0.28370    0.56530    1.000
    C526     C        0.10920    0.37470    0.44040    1.000
    C527     C        0.08390    0.34220    0.42490    1.000
    C528     C        0.08450    0.30610    0.45000    1.000
    O689     O        0.13740    0.25990    0.69010    1.000
    O690     O        0.00410    0.38760    0.56690    1.000
    O691     O        0.05500    0.38570    0.51220    1.000
    O692     O        0.13810    0.30990    0.74310    1.000
    O693     O        0.11200    0.28500    0.61900    1.000
    O694     O        0.07510    0.32020    0.68890    1.000
    O695     O        0.06350    0.32750    0.57060    1.000
    O696     O        0.02790    0.36510    0.64200    1.000
    O697     O        0.05530    0.24220    0.67050    1.000
    O698     O        0.00930    0.19990    0.68310    1.000
    O699     O        0.14840    0.23120    0.57340    1.000
    O700     O        0.15420    0.17890    0.53710    1.000
    O701     O        0.98530    0.29710    0.59130    1.000
    O702     O        0.94150    0.25340    0.57200    1.000
    O703     O        0.08430    0.31050    0.48690    1.000
    O704     O        0.08410    0.27330    0.43620    1.000
    Nd105    Nd       0.95746    0.20156    0.63051    1.000
    Nd106    Nd       0.88070    0.20766    0.54760    1.000
    Ge177    Ge       0.90057    0.21519    0.71648    1.000
    Ge178    Ge       0.86120    0.25445    0.63904    1.000
    Ge179    Ge       0.97128    0.14982    0.54117    1.000
    Ge180    Ge       0.89558    0.11853    0.49561    1.000
    C529     C        0.93060    0.24790    0.75200    1.000
    C530     C        0.94560    0.28530    0.73380    1.000
    C531     C        0.96240    0.28120    0.69280    1.000
    C532     C        0.87430    0.31010    0.63630    1.000
    C533     C        0.85200    0.32950    0.60540    1.000
    C534     C        0.85010    0.30670    0.56840    1.000
    C535     C        0.00460    0.18250    0.50970    1.000
    C536     C        0.04410    0.19390    0.52880    1.000
    C537     C        0.03820    0.21630    0.56530    1.000
    C538     C        0.89080    0.12530    0.44040    1.000
    C539     C        0.91610    0.15780    0.42490    1.000
    C540     C        0.91550    0.19390    0.45000    1.000
    O705     O        0.86260    0.24010    0.69010    1.000
    O706     O        0.99590    0.11240    0.56690    1.000
    O707     O        0.94500    0.11430    0.51220    1.000
    O708     O        0.86190    0.19010    0.74310    1.000
    O709     O        0.88800    0.21500    0.61900    1.000
    O710     O        0.92490    0.17980    0.68890    1.000
    O711     O        0.93650    0.17250    0.57060    1.000
    O712     O        0.97210    0.13490    0.64200    1.000
    O713     O        0.94470    0.25780    0.67050    1.000
    O714     O        0.99070    0.30010    0.68310    1.000
    O715     O        0.85160    0.26880    0.57340    1.000
    O716     O        0.84580    0.32110    0.53710    1.000
    O717     O        0.01470    0.20290    0.59130    1.000
    O718     O        0.05850    0.24660    0.57200    1.000
    O719     O        0.91570    0.18950    0.48690    1.000
    O720     O        0.91590    0.22670    0.43620    1.000
    Nd107    Nd       0.45746    0.70156    0.13051    1.000
    Nd108    Nd       0.38070    0.70766    0.04760    1.000
    Ge181    Ge       0.40057    0.71519    0.21648    1.000
    Ge182    Ge       0.36120    0.75445    0.13904    1.000
    Ge183    Ge       0.47128    0.64982    0.04117    1.000
    Ge184    Ge       0.39558    0.61853    0.99561    1.000
    C541     C        0.43060    0.74790    0.25200    1.000
    C542     C        0.44560    0.78530    0.23380    1.000
    C543     C        0.46240    0.78120    0.19280    1.000
    C544     C        0.37430    0.81010    0.13630    1.000
    C545     C        0.35200    0.82950    0.10540    1.000
    C546     C        0.35010    0.80670    0.06840    1.000
    C547     C        0.50460    0.68250    0.00970    1.000
    C548     C        0.54410    0.69390    0.02880    1.000
    C549     C        0.53820    0.71630    0.06530    1.000
    C550     C        0.39080    0.62530    0.94040    1.000
    C551     C        0.41610    0.65780    0.92490    1.000
    C552     C        0.41550    0.69390    0.95000    1.000
    O721     O        0.36260    0.74010    0.19010    1.000
    O722     O        0.49590    0.61240    0.06690    1.000
    O723     O        0.44500    0.61430    0.01220    1.000
    O724     O        0.36190    0.69010    0.24310    1.000
    O725     O        0.38800    0.71500    0.11900    1.000
    O726     O        0.42490    0.67980    0.18890    1.000
    O727     O        0.43650    0.67250    0.07060    1.000
    O728     O        0.47210    0.63490    0.14200    1.000
    O729     O        0.44470    0.75780    0.17050    1.000
    O730     O        0.49070    0.80010    0.18310    1.000
    O731     O        0.35160    0.76880    0.07340    1.000
    O732     O        0.34580    0.82110    0.03710    1.000
    O733     O        0.51470    0.70290    0.09130    1.000
    O734     O        0.55850    0.74660    0.07200    1.000
    O735     O        0.41570    0.68950    0.98690    1.000
    O736     O        0.41590    0.72670    0.93620    1.000
    Nd109    Nd       0.04254    0.70156    0.86949    1.000
    Nd110    Nd       0.11930    0.70766    0.95240    1.000
    Ge185    Ge       0.09943    0.71519    0.78352    1.000
    Ge186    Ge       0.13880    0.75445    0.86096    1.000
    Ge187    Ge       0.02872    0.64982    0.95883    1.000
    Ge188    Ge       0.10442    0.61853    0.00439    1.000
    C553     C        0.06940    0.74790    0.74800    1.000
    C554     C        0.05440    0.78530    0.76620    1.000
    C555     C        0.03760    0.78120    0.80720    1.000
    C556     C        0.12570    0.81010    0.86370    1.000
    C557     C        0.14800    0.82950    0.89460    1.000
    C558     C        0.14990    0.80670    0.93160    1.000
    C559     C        0.99540    0.68250    0.99030    1.000
    C560     C        0.95590    0.69390    0.97120    1.000
    C561     C        0.96180    0.71630    0.93470    1.000
    C562     C        0.10920    0.62530    0.05960    1.000
    C563     C        0.08390    0.65780    0.07510    1.000
    C564     C        0.08450    0.69390    0.05000    1.000
    O737     O        0.13740    0.74010    0.80990    1.000
    O738     O        0.00410    0.61240    0.93310    1.000
    O739     O        0.05500    0.61430    0.98780    1.000
    O740     O        0.13810    0.69010    0.75690    1.000
    O741     O        0.11200    0.71500    0.88100    1.000
    O742     O        0.07510    0.67980    0.81110    1.000
    O743     O        0.06350    0.67250    0.92940    1.000
    O744     O        0.02790    0.63490    0.85800    1.000
    O745     O        0.05530    0.75780    0.82950    1.000
    O746     O        0.00930    0.80010    0.81690    1.000
    O747     O        0.14840    0.76880    0.92660    1.000
    O748     O        0.15420    0.82110    0.96290    1.000
    O749     O        0.98530    0.70290    0.90870    1.000
    O750     O        0.94150    0.74660    0.92800    1.000
    O751     O        0.08430    0.68950    0.01310    1.000
    O752     O        0.08410    0.72670    0.06380    1.000
    Nd111    Nd       0.54254    0.20156    0.36949    1.000
    Nd112    Nd       0.61930    0.20766    0.45240    1.000
    Ge189    Ge       0.59943    0.21519    0.28352    1.000
    Ge190    Ge       0.63880    0.25445    0.36096    1.000
    Ge191    Ge       0.52872    0.14982    0.45883    1.000
    Ge192    Ge       0.60442    0.11853    0.50439    1.000
    C565     C        0.56940    0.24790    0.24800    1.000
    C566     C        0.55440    0.28530    0.26620    1.000
    C567     C        0.53760    0.28120    0.30720    1.000
    C568     C        0.62570    0.31010    0.36370    1.000
    C569     C        0.64800    0.32950    0.39460    1.000
    C570     C        0.64990    0.30670    0.43160    1.000
    C571     C        0.49540    0.18250    0.49030    1.000
    C572     C        0.45590    0.19390    0.47120    1.000
    C573     C        0.46180    0.21630    0.43470    1.000
    C574     C        0.60920    0.12530    0.55960    1.000
    C575     C        0.58390    0.15780    0.57510    1.000
    C576     C        0.58450    0.19390    0.55000    1.000
    O753     O        0.63740    0.24010    0.30990    1.000
    O754     O        0.50410    0.11240    0.43310    1.000
    O755     O        0.55500    0.11430    0.48780    1.000
    O756     O        0.63810    0.19010    0.25690    1.000
    O757     O        0.61200    0.21500    0.38100    1.000
    O758     O        0.57510    0.17980    0.31110    1.000
    O759     O        0.56350    0.17250    0.42940    1.000
    O760     O        0.52790    0.13490    0.35800    1.000
    O761     O        0.55530    0.25780    0.32950    1.000
    O762     O        0.50930    0.30010    0.31690    1.000
    O763     O        0.64840    0.26880    0.42660    1.000
    O764     O        0.65420    0.32110    0.46290    1.000
    O765     O        0.48530    0.20290    0.40870    1.000
    O766     O        0.44150    0.24660    0.42800    1.000
    O767     O        0.58430    0.18950    0.51310    1.000
    O768     O        0.58410    0.22670    0.56380    1.000
    Nd113    Nd       0.30115    0.30115    0.30115    1.000
    Nd114    Nd       0.45012    0.45012    0.45012    1.000
    Nd115    Nd       0.80115    0.80115    0.80115    1.000
    Nd116    Nd       0.95012    0.95012    0.95012    1.000
    Nd117    Nd       0.19885    0.69885    0.80115    1.000
    Nd118    Nd       0.04988    0.54988    0.95012    1.000
    Nd119    Nd       0.69885    0.19885    0.30115    1.000
    Nd120    Nd       0.54988    0.04988    0.45012    1.000
    Nd121    Nd       0.69885    0.80115    0.19885    1.000
    Nd122    Nd       0.54988    0.95012    0.04988    1.000
    Nd123    Nd       0.19885    0.30115    0.69885    1.000
    Nd124    Nd       0.04988    0.45012    0.54988    1.000
    Nd125    Nd       0.80115    0.19885    0.69885    1.000
    Nd126    Nd       0.95012    0.04988    0.54988    1.000
    Nd127    Nd       0.30115    0.69885    0.19885    1.000
    Nd128    Nd       0.45012    0.54988    0.04988    1.000
