data_functionalizedCrystal
_audit_creation_method	'EQeq! by Chris Wilmer'
_symmetry_space_group_name_H-M	'P1'
_symmetry_Int_Tables_number	1
_symmetry_cell_setting	triclinic
loop_
_symmetry_equiv_pos_as_xyz
  x,y,z
_cell_length_a	8.1576
_cell_length_b	23.5297
_cell_length_c	23.5297
_cell_angle_alpha	88.2781
_cell_angle_beta	80.0175
_cell_angle_gamma	80.0177
loop_
_atom_site_label
_atom_site_type_symbol
_atom_site_fract_x
_atom_site_fract_y
_atom_site_fract_z
_atom_site_charge
Mof_Zn	Zn	0.25504	0.93853	0.94953	1.242
Mof_Zn	Zn	0.79543	0.94953	0.06147	1.244
Mof_Zn	Zn	0.1431	0.06147	0.05047	1.242
Mof_Zn	Zn	0.25	0.5	0.5	1.491
Mof_Zn	Zn	0.80643	0.05047	0.93853	1.245
Mof_Zn	Zn	0.5	0	-0	1.228
Mof_H 	H 	0.9074	0.0051	0.7169	0.075
Mof_H 	H 	0.1796	0.1161	0.3807	0.31
Mof_H 	H 	0.3199	0.031	0.1984	0.132
Mof_H 	H 	0.2398	0.9792	0.1814	0.128
Mof_H 	H 	0.0729	0.1803	0.6141	0.291
Mof_H 	H 	0.422	0.9836	0.7214	0.066
Mof_H 	H 	0.6491	0.8016	0.031	0.133
Mof_H 	H 	0.7056	0.6831	0.4923	0.026
Mof_H 	H 	0.6294	0.9949	0.2831	0.065
Mof_H 	H 	0.6198	0.4895	0.2517	0.07
Mof_H 	H 	0.0543	0.0221	0.7933	0.128
Mof_H 	H 	0.9708	0.9944	0.3678	0.08
Mof_H 	H 	0.3132	0.3702	0.8438	0.315
Mof_H 	H 	0.8021	0.4923	0.3169	0.031
Mof_H 	H 	0.3006	0.9517	0.4795	0.302
Mof_H 	H 	0.0087	0.4876	0.1302	0.047
Mof_H 	H 	0.3333	0.8634	0.3896	0.072
Mof_H 	H 	0.2636	0.8098	0.0212	0.124
Mof_H 	H 	0.361	0.5105	0.7483	0.077
Mof_H 	H 	0.1967	0.4944	0.1844	0.046
Mof_H 	H 	0.6283	0.6985	0.8819	0.058
Mof_H 	H 	0.843	0.8438	0.6298	0.323
Mof_H 	H 	0.4898	0.8819	0.3015	0.052
Mof_H 	H 	0.5037	0.8698	0.4876	0.088
Mof_H 	H 	0.6824	0.38	0.495	0.238
Mof_H 	H 	0.4152	0.6319	0.5599	0.236
Mof_H 	H 	0.6732	0.1181	0.6985	0.056
Mof_H 	H 	0.9631	0.8673	0.3549	0.313
Mof_H 	H 	0.127	0.0164	0.2786	0.064
Mof_H 	H 	0.8526	0.1291	0.3101	0.059
Mof_H 	H 	0.4633	0.0102	0.373	0.064
Mof_H 	H 	0.1285	0.2517	0.5105	0.079
Mof_H 	H 	0.8611	0.1302	0.5124	0.075
Mof_H 	H 	0.2725	0.5367	0.0213	0.308
Mof_H 	H 	0.9376	0.505	0.38	0.252
Mof_H 	H 	0.3757	0.7169	0.9949	0.066
Mof_H 	H 	0.853	0.3783	0.1181	0.298
Mof_H 	H 	0.8226	0.495	0.62	0.232
Mof_H 	H 	0.6189	0.1844	0.5056	0.03
Mof_H 	H 	0.8423	0.5231	0.0039	0.298
Mof_H 	H 	0.6265	0.5124	0.8698	0.085
Mof_H 	H 	0.5574	0.62	0.505	0.238
Mof_H 	H 	0.2325	0.8587	0.5991	0.06
Mof_H 	H 	0.1364	0.1793	0.4051	0.313
Mof_H 	H 	0.7208	0.8207	0.5949	0.318
Mof_H 	H 	0.7043	0.6193	0.1161	0.316
Mof_H 	H 	0.313	0.6141	0.8197	0.295
Mof_H 	H 	0.0946	0.1902	0.9788	0.11
Mof_H 	H 	0.1853	0.1327	0.6451	0.296
Mof_H 	H 	0.8465	0.9898	0.627	0.052
Mof_H 	H 	0.6843	0.5949	0.1793	0.318
Mof_H 	H 	0.6903	0.1413	0.4009	0.068
Mof_H 	H 	0.9236	0.2067	0.0221	0.116
Mof_H 	H 	0.7062	0.0213	0.4633	0.309
Mof_H 	H 	0.1524	0.7933	0.9779	0.115
Mof_H 	H 	0.9529	0.4401	0.6319	0.233
Mof_H 	H 	0.2771	0.3896	0.1366	0.067
Mof_H 	H 	0.881	0.3169	0.5077	0.026
Mof_H 	H 	0.4585	0.4051	0.8207	0.313
Mof_H 	H 	0.2199	0.4795	0.0483	0.301
Mof_H 	H 	0.1637	0.373	0.9898	0.046
Mof_H 	H 	0.9266	0.9788	0.8098	0.142
Mof_H 	H 	0.5788	0.1814	0.0208	0.13
Mof_H 	H 	0.0875	0.2831	0.0051	0.087
Mof_H 	H 	0.8373	0.3101	0.8709	0.072
Mof_H 	H 	0.6764	0.8839	0.6193	0.314
Mof_H 	H 	0.5493	0.969	0.8016	0.128
Mof_H 	H 	0.682	0.3549	0.1327	0.303
Mof_H 	H 	0.2087	0.3015	0.1181	0.052
Mof_H 	H 	0.8697	0.9779	0.2067	0.122
Mof_H 	H 	0.4817	0.1984	0.969	0.128
Mof_H 	H 	0.8755	0.5056	0.8156	0.027
Mof_H 	H 	0.9088	0.4009	0.8587	0.052
Mof_H 	H 	0.8673	0.8197	0.3859	0.307
Mof_H 	H 	0.3693	0.4769	0.9961	0.299
Mof_H 	H 	0.6614	0.3678	0.0056	0.066
Mof_H 	H 	0.7468	0.3859	0.1803	0.3
Mof_H 	H 	0.6113	0.5077	0.6831	0.027
Mof_H 	H 	0.0249	0.5599	0.3681	0.241
Mof_H 	H 	0.3166	0.1562	0.3702	0.317
Mof_H 	H 	0.2918	0.8709	0.6899	0.06
Mof_H 	H 	0.1538	0.0039	0.4769	0.303
Mof_H 	H 	0.8566	0.7214	0.0164	0.081
Mof_H 	H 	0.781	0.8186	0.9792	0.133
Mof_H 	H 	0.3494	0.6217	0.8819	0.291
Mof_H 	H 	0.333	0.0056	0.6322	0.064
Mof_H 	H 	0.7687	0.8819	0.3783	0.302
Mof_H 	H 	0.1684	0.5991	0.1413	0.065
Mof_H 	H 	0.0183	0.6899	0.1291	0.054
Mof_H 	H 	0.1908	0.9787	0.5367	0.308
Mof_H 	H 	0.5863	0.1366	0.6104	0.068
Mof_H 	H 	0.5272	0.6298	0.1562	0.32
Mof_H 	H 	0.7152	0.0212	0.1902	0.129
Mof_H 	H 	0.6346	0.9961	0.5231	0.298
Mof_H 	H 	0.8907	0.7483	0.4895	0.084
Mof_H 	H 	0.5944	0.2786	0.9836	0.066
Mof_H 	H 	0.8033	0.6104	0.8634	0.067
Mof_H 	H 	0.8305	0.4633	0.9787	0.303
Mof_H 	H 	0.7477	0.5205	0.9517	0.295
Mof_H 	H 	0.5265	0.627	0.0102	0.063
Mof_H 	H 	0.0348	0.6322	0.9944	0.044
Mof_H 	H 	0.4004	0.0208	0.8186	0.129
Mof_H 	H 	0.4397	0.3807	0.8839	0.31
Mof_H 	H 	0.607	0.3681	0.4401	0.237
Mof_H 	H 	0.1696	0.6451	0.8673	0.296
Mof_H 	H 	0.0289	0.1181	0.6217	0.286
Mof_H 	H 	0.7318	0.0483	0.5205	0.303
Mof_H 	H 	0.3089	0.8156	0.4944	0.018
Mof_C 	C 	0.4945	0.0714	0.504	0.412
Mof_C 	C 	0.1801	0.1434	0.5054	-0.349
Mof_C 	C 	0.9793	0.9094	0.5474	-0.338
Mof_C 	C 	0.5523	0.1061	0.6329	-0.129
Mof_C 	C 	0.044	0.9832	0.8062	-0.306
Mof_C 	C 	0.05	0.3956	0.9216	0.081
Mof_C 	C 	0.8334	0.0168	0.1938	-0.279
Mof_C 	C 	0.5512	0.0499	0.7195	0.113
Mof_C 	C 	0.4805	0.7394	0.4896	0.042
Mof_C 	C 	0.9525	0.6457	0.9721	-0.087
Mof_C 	C 	0.2121	0.5571	0.8775	0.389
Mof_C 	C 	0.4341	0.496	0.0714	0.412
Mof_C 	C 	0.1679	0.9851	0.3003	-0.08
Mof_C 	C 	0.3795	0.397	0.854	-0.968
Mof_C 	C 	0.931	0.482	0.632	-0.695
Mof_C 	C 	0.4892	0.505	0.8206	0.19
Mof_C 	C 	0.5929	0.5485	0.1249	0.425
Mof_C 	C 	0.6902	0.8206	0.495	0.202
Mof_C 	C 	0.164	0.4954	0.4086	1.152
Mof_C 	C 	0.0536	0.3062	0.975	-0.148
Mof_C 	C 	0.138	0.9269	0.3871	0.148
Mof_C 	C 	0.7293	0.7195	0.9501	0.126
Mof_C 	C 	0.4274	0.4086	0.5046	1.138
Mof_C 	C 	0.3854	0.9045	0.3143	-0.066
Mof_C 	C 	0.4733	0.5474	0.0906	-0.36
Mof_C 	C 	0.7101	0.6857	0.9045	-0.084
Mof_C 	C 	0.0855	0.4923	0.2007	-0.059
Mof_C 	C 	0.6755	0.1127	0.3767	-0.125
Mof_C 	C 	0.388	0.0878	0.5568	-0.341
Mof_C 	C 	0.0552	0.5568	0.9122	-0.342
Mof_C 	C 	0.9031	0.3227	0.8949	-0.12
Mof_C 	C 	0.3672	0.6044	0.0784	0.127
Mof_C 	C 	0.3132	0.4975	0.0307	-0.947
Mof_C 	C 	0.6402	0.025	0.3062	-0.084
Mof_C 	C 	0.3145	0.5054	0.8566	-0.354
Mof_C 	C 	0.6305	0.603	0.146	-0.98
Mof_C 	C 	0.2118	0.6233	0.1127	-0.124
Mof_C 	C 	0.8148	0.6329	0.8939	-0.12
Mof_C 	C 	0.4533	0.0149	0.6997	-0.085
Mof_C 	C 	0.068	0.5046	0.5914	1.109
Mof_C 	C 	0.7742	0.1051	0.3227	-0.078
Mof_C 	C 	0.874	0.86	0.3852	-0.939
Mof_C 	C 	0.1207	0.6773	0.1051	-0.081
Mof_C 	C 	0.5318	0.3003	0.0149	-0.084
Mof_C 	C 	0.8414	0.5025	0.9693	-0.924
Mof_C 	C 	0.7753	0.7599	0.4915	-0.168
Mof_C 	C 	0.8455	0.4913	0.2777	-0.035
Mof_C 	C 	0.2663	0.4515	0.8751	0.418
Mof_C 	C 	0.1649	0.8873	0.6233	-0.108
Mof_C 	C 	0.3003	0.3143	0.0955	-0.073
Mof_C 	C 	0.9355	0.9657	0.6399	-0.087
Mof_C 	C 	0.7138	0.2007	0.5077	-0.013
Mof_C 	C 	0.0284	0.9216	0.6044	0.092
Mof_C 	C 	0.0988	0.3601	0.9657	-0.073
Mof_C 	C 	0.6467	0.4429	0.1225	0.392
Mof_C 	C 	0.6265	0.5084	0.8306	-0.223
Mof_C 	C 	0.9576	0.2868	0.939	0.165
Mof_C 	C 	0.5703	0.3543	0.0279	-0.124
Mof_C 	C 	0.3406	0.5914	0.4954	1.137
Mof_C 	C 	0.7785	0.5077	0.7993	0.006
Mof_C 	C 	0.5429	0.8306	0.4916	-0.237
Mof_C 	C 	0.6632	0.7223	0.4913	-0.02
Mof_C 	C 	0.045	0.518	0.368	-0.747
Mof_C 	C 	0.1834	0.7132	0.061	0.12
Mof_C 	C 	0.4648	0.5085	0.7599	-0.16
Mof_C 	C 	0.7332	0.4915	0.2401	-0.136
Mof_C 	C 	0.5411	0.0343	0.3601	-0.119
Mof_C 	C 	0.5544	0.0784	0.3956	0.128
Mof_C 	C 	0.9728	0.1938	0.9832	-0.246
Mof_C 	C 	0.1034	0.939	0.7132	0.115
Mof_C 	C 	0.266	0.6148	0.86	-0.905
Mof_C 	C 	0.2822	0.1249	0.4515	0.423
Mof_C 	C 	0.0699	0.9286	0.496	0.405
Mof_C 	C 	0.4693	0.1857	0.0089	-0.281
Mof_C 	C 	0.587	0.368	0.482	-0.72
Mof_C 	C 	0.9375	0.0281	0.1371	0.458
Mof_C 	C 	0.3348	0.6938	0.025	-0.088
Mof_C 	C 	0.9478	0.3767	0.8873	-0.073
Mof_C 	C 	0.7801	0.5104	0.7394	0.049
Mof_C 	C 	0.9351	0.6129	0.9269	0.126
Mof_C 	C 	0.7665	0.854	0.603	-0.982
Mof_C 	C 	0.847	0.6997	0.9851	-0.113
Mof_C 	C 	0.5242	0.4432	0.0878	-0.343
Mof_C 	C 	0.0058	0.1794	0.505	0.165
Mof_C 	C 	0.9714	0.975	0.6938	-0.096
Mof_C 	C 	0.8148	0.495	0.1794	0.144
Mof_C 	C 	0.4222	0.7993	0.4923	0.015
Mof_C 	C 	0.408	0.1297	0.0141	0.479
Mof_C 	C 	0.1027	0.9719	0.8629	0.447
Mof_C 	C 	0.9655	0.4916	0.1694	-0.131
Mof_C 	C 	0.6639	0.8143	0.9911	-0.287
Mof_C 	C 	0.452	0.0731	0.6129	0.132
Mof_C 	C 	0.8651	0.1694	0.5084	-0.186
Mof_C 	C 	0.9254	0.1371	0.9719	0.431
Mof_C 	C 	0.437	0.632	0.518	-0.72
Mof_C 	C 	0.7408	0.3852	0.14	-0.914
Mof_C 	C 	0.8768	0.2777	0.5087	-0.016
Mof_C 	C 	0.6145	0.5087	0.7223	-0.027
Mof_C 	C 	0.0015	0.504	0.9286	0.391
Mof_C 	C 	0.0344	0.8629	0.0281	0.427
Mof_C 	C 	0.0754	0.9721	0.3543	-0.152
Mof_C 	C 	0.3989	0.2805	0.0499	0.112
Mof_C 	C 	0.7095	0.2606	0.5104	0.052
Mof_C 	C 	0.5779	0.0141	0.8703	0.479
Mof_C 	C 	0.0299	0.4896	0.2606	0.06
Mof_C 	C 	0.4018	0.0279	0.6457	-0.123
Mof_C 	C 	0.2308	0.1225	0.5571	0.387
Mof_C 	C 	0.7556	0.061	0.2868	0.119
Mof_C 	C 	0.6561	0.0307	0.5025	-0.946
Mof_C 	C 	0.5218	0.0089	0.8143	-0.28
Mof_C 	C 	0.0267	0.2401	0.5085	-0.167
Mof_C 	C 	0.2913	0.8939	0.3671	-0.143
Mof_C 	C 	0.9104	0.8775	0.4429	0.417
Mof_C 	C 	0.4246	0.6399	0.0343	-0.117
Mof_C 	C 	0.1113	0.4526	0.9094	-0.342
Mof_C 	C 	0.2235	0.146	0.397	-0.972
Mof_C 	C 	0.4361	0.0906	0.4526	-0.36
Mof_C 	C 	0.3206	0.9501	0.2805	0.106
Mof_C 	C 	0.1498	0.8062	0.0168	-0.265
Mof_C 	C 	0.0326	0.9122	0.4432	-0.363
Mof_C 	C 	0.8586	0.8751	0.5485	0.428
Mof_C 	C 	0.5518	0.8703	0.9859	0.476
Mof_C 	C 	0.1192	0.14	0.6148	-0.898
Mof_C 	C 	0.6765	0.4946	0.1434	-0.341
Mof_C 	C 	0.3416	0.3671	0.1061	-0.131
Mof_C 	C 	0.345	0.9911	0.1857	-0.287
Mof_C 	C 	0.202	0.8949	0.6773	-0.09
Mof_C 	C 	0.4623	0.9859	0.1297	0.474
Mof_C 	C 	0.1893	0.9693	0.4975	-0.954
Mof_C 	C 	0.8289	0.8566	0.4946	-0.367
Mof_C 	C 	0.4749	0.3871	0.0731	0.134
Mof_C 	C 	0.6042	0.0955	0.6857	-0.075
Mof_O 	O 	0.42032	0.95555	0.22801	-0.147
Mof_O 	O 	0.03469	0.00469	0.90393	-0.546
Mof_O 	O 	0.22699	0.9342	0.86822	-0.456
Mof_O 	O 	0.68961	0.04356	0.87242	-0.482
Mof_O 	O 	0.1134	0.5023	0.5569	-1.168
Mof_O 	O 	0.08534	0.76553	0.05819	-0.159
Mof_O 	O 	0.62413	0.77199	0.95555	-0.151
Mof_O 	O 	0.14913	0.94181	0.76553	-0.149
Mof_O 	O 	0.90479	0.86822	0.0658	-0.441
Mof_O 	O 	0.929	0.506	0.696	-0.131
Mof_O 	O 	0.5071	0.98743	0.91157	-0.546
Mof_O 	O 	0.254	0	-0	-0.704
Mof_O 	O 	0.131	0.494	0.304	-0.135
Mof_O 	O 	0.26683	0.12758	0.04356	-0.485
Mof_O 	O 	0.746	0	-0	-0.699
Mof_O 	O 	0.02941	0.0658	0.13178	-0.465
Mof_O 	O 	0.375	0.696	0.494	-0.133
Mof_O 	O 	0.4061	0.01257	0.08843	-0.54
Mof_O 	O 	0.06138	0.90393	0.99531	-0.542
Mof_O 	O 	0.60559	0.95644	0.12758	-0.483
Mof_O 	O 	0.1726	0.4977	0.4431	-1.194
Mof_O 	O 	0.58133	0.91157	0.01257	-0.541
Mof_O 	O 	0.90906	0.23447	0.94181	-0.167
Mof_O 	O 	0.3297	0.5569	0.4977	-1.182
Mof_O 	O 	0.565	0.304	0.506	-0.134
Mof_O 	O 	0.3843	0.4431	0.5023	-1.183
Mof_O 	O 	0.94331	0.99531	0.09607	-0.543
Mof_O 	O 	0.96062	0.09607	0.00469	-0.53
Mof_O 	O 	0.43797	0.87242	0.95644	-0.484
Mof_O 	O 	0.83881	0.13178	0.9342	-0.448
Mof_O 	O 	0.60388	0.04445	0.77199	-0.149
Mof_O 	O 	0.85647	0.05819	0.23447	-0.148
Mof_O 	O 	0.50547	0.08843	0.98743	-0.545
Mof_O 	O 	0.35167	0.22801	0.04445	-0.15
_end
