data_functionalizedCrystal
_audit_creation_method	'EQeq! by Chris Wilmer'
_symmetry_space_group_name_H-M	'P1'
_symmetry_Int_Tables_number	1
_symmetry_cell_setting	triclinic
loop_
_symmetry_equiv_pos_as_xyz
  x,y,z
_cell_length_a	10.7864
_cell_length_b	12.2053
_cell_length_c	19
_cell_angle_alpha	90
_cell_angle_beta	92.239
_cell_angle_gamma	90
loop_
_atom_site_label
_atom_site_type_symbol
_atom_site_fract_x
_atom_site_fract_y
_atom_site_fract_z
_atom_site_charge
Mof_U 	U 	0.40774	0.04086	0.12388	0.028
Mof_U 	U 	0.03327	0.31601	0.18761	0.02
Mof_O 	O 	0.3524	0.1199	0.2338	-0.159
Mof_O 	O 	0.153	0.166	0.2231	-0.155
Mof_O 	O 	0.1226	0.9627	0.2983	-0.153
Mof_O 	O 	0.0322	0.9566	0.3995	-0.166
Mof_O 	O 	0.136	0.22	0.5841	-0.159
Mof_O 	O 	0.3303	0.2791	0.5935	-0.159
Mof_O 	O 	0.361	0.439	0.5006	-0.155
Mof_O 	O 	0.5029	0.383	0.4265	-0.161
Mof_C 	C 	0.2495	0.1612	0.338	-0.004
Mof_C 	C 	0.3233	0.2456	0.3646	-0.023
Mof_H 	H 	0.3736	0.2838	0.3344	0.091
Mof_C 	C 	0.3238	0.2748	0.4359	-0.007
Mof_C 	C 	0.2457	0.2176	0.4814	-0.009
Mof_C 	C 	0.1765	0.13	0.4539	-0.021
Mof_H 	H 	0.1269	0.0902	0.4836	0.094
Mof_C 	C 	0.1795	0.1003	0.3835	-0.012
Mof_C 	C 	0.1063	0.0018	0.3593	0.269
Mof_C 	C 	0.2498	0.146	0.2583	0.283
Mof_C 	C 	0.4018	0.3734	0.4574	0.281
Mof_C 	C 	0.239	0.2424	0.559	0.282
Mof_U 	U 	0.59226	0.54086	0.37612	0.027
Mof_U 	U 	0.96673	0.81601	0.31239	0.018
Mof_O 	O 	0.6476	0.6199	0.2662	-0.16
Mof_O 	O 	0.847	0.666	0.2769	-0.156
Mof_O 	O 	0.8774	0.4627	0.2017	-0.157
Mof_O 	O 	0.9678	0.4566	0.1005	-0.171
Mof_O 	O 	0.864	0.72	0.9159	-0.158
Mof_O 	O 	0.6697	0.7791	0.9065	-0.159
Mof_O 	O 	0.639	0.939	0.9994	-0.155
Mof_O 	O 	0.4971	0.883	0.0735	-0.161
Mof_C 	C 	0.7505	0.6612	0.162	-0.003
Mof_C 	C 	0.6767	0.7456	0.1354	-0.024
Mof_H 	H 	0.6264	0.7838	0.1656	0.091
Mof_C 	C 	0.6762	0.7748	0.0641	-0.006
Mof_C 	C 	0.7543	0.7176	0.0186	-0.01
Mof_C 	C 	0.8235	0.63	0.0461	-0.019
Mof_H 	H 	0.8731	0.5902	0.0164	0.094
Mof_C 	C 	0.8205	0.6003	0.1165	-0.014
Mof_C 	C 	0.8937	0.5018	0.1407	0.275
Mof_C 	C 	0.7502	0.646	0.2417	0.283
Mof_C 	C 	0.5982	0.8734	0.0426	0.28
Mof_C 	C 	0.761	0.7424	0.941	0.283
Mof_U 	U 	0.59226	0.95914	0.87612	0.027
Mof_U 	U 	0.96673	0.68399	0.81239	0.019
Mof_O 	O 	0.6476	0.8801	0.7662	-0.16
Mof_O 	O 	0.847	0.834	0.7769	-0.156
Mof_O 	O 	0.8774	0.0373	0.7017	-0.154
Mof_O 	O 	0.9678	0.0434	0.6005	-0.167
Mof_O 	O 	0.864	0.78	0.4159	-0.159
Mof_O 	O 	0.6697	0.7209	0.4065	-0.159
Mof_O 	O 	0.639	0.561	0.4994	-0.155
Mof_O 	O 	0.4971	0.617	0.5735	-0.161
Mof_C 	C 	0.7505	0.8388	0.662	-0.004
Mof_C 	C 	0.6767	0.7544	0.6354	-0.023
Mof_H 	H 	0.6264	0.7162	0.6656	0.091
Mof_C 	C 	0.6762	0.7252	0.5641	-0.007
Mof_C 	C 	0.7543	0.7824	0.5186	-0.009
Mof_C 	C 	0.8235	0.87	0.5461	-0.021
Mof_H 	H 	0.8731	0.9098	0.5164	0.094
Mof_C 	C 	0.8205	0.8997	0.6165	-0.012
Mof_C 	C 	0.8937	0.9982	0.6407	0.269
Mof_C 	C 	0.7502	0.854	0.7417	0.283
Mof_C 	C 	0.5982	0.6266	0.5426	0.281
Mof_C 	C 	0.761	0.7576	0.441	0.282
Mof_U 	U 	0.40774	0.45914	0.62388	0.027
Mof_U 	U 	0.03327	0.18399	0.68761	0.018
Mof_O 	O 	0.3524	0.3801	0.7338	-0.16
Mof_O 	O 	0.153	0.334	0.7231	-0.156
Mof_O 	O 	0.1226	0.5373	0.7983	-0.157
Mof_O 	O 	0.0322	0.5434	0.8995	-0.171
Mof_O 	O 	0.136	0.28	0.0841	-0.158
Mof_O 	O 	0.3303	0.2209	0.0935	-0.159
Mof_O 	O 	0.361	0.061	0.0006	-0.155
Mof_O 	O 	0.5029	0.117	0.9265	-0.161
Mof_C 	C 	0.2495	0.3388	0.838	-0.003
Mof_C 	C 	0.3233	0.2544	0.8646	-0.024
Mof_H 	H 	0.3736	0.2162	0.8344	0.091
Mof_C 	C 	0.3238	0.2252	0.9359	-0.006
Mof_C 	C 	0.2457	0.2824	0.9814	-0.01
Mof_C 	C 	0.1765	0.37	0.9539	-0.019
Mof_H 	H 	0.1269	0.4098	0.9836	0.094
Mof_C 	C 	0.1795	0.3997	0.8835	-0.014
Mof_C 	C 	0.1063	0.4982	0.8593	0.275
Mof_C 	C 	0.2498	0.354	0.7583	0.283
Mof_C 	C 	0.4018	0.1266	0.9574	0.28
Mof_C 	C 	0.239	0.2576	0.059	0.283
_end
