data_functionalizedCrystal
_audit_creation_method	'EQeq! by Chris Wilmer'
_symmetry_space_group_name_H-M	'P1'
_symmetry_Int_Tables_number	1
_symmetry_cell_setting	triclinic
loop_
_symmetry_equiv_pos_as_xyz
  x,y,z
_cell_length_a	10.7252
_cell_length_b	11.5185
_cell_length_c	17.748
_cell_angle_alpha	99.149
_cell_angle_beta	103.438
_cell_angle_gamma	104.697
loop_
_atom_site_label
_atom_site_type_symbol
_atom_site_fract_x
_atom_site_fract_y
_atom_site_fract_z
_atom_site_charge
Mof_Ag	Ag	0.16853	0.67522	0.1013	0.585
Mof_Ag	Ag	0.94928	0.58984	0.89674	0.39
Mof_Ag	Ag	0.06308	0.59599	0.23247	0.391
Mof_Ag	Ag	0.2111	0.41362	0.26674	0.5
Mof_Ag	Ag	0.81087	0.47481	0.4034	0.758
Mof_Ag	Ag	0.07928	0.64184	0.73778	0.186
Mof_Ag	Ag	0.10089	0.55017	0.39164	0.585
Mof_Ag	Ag	0.73879	0.03846	0.26579	0.771
Mof_N 	N 	0.6754	0.8384	0.2587	-0.171
Mof_C 	C 	0.2309	0.5429	0.1838	-0.422
Mof_C 	C 	0.3508	0.5921	0.2038	0.173
Mof_C 	C 	0.4941	0.6514	0.2287	-0.065
Mof_C 	C 	0.5432	0.7779	0.235	0.128
Mof_H 	H 	0.4824	0.8217	0.2223	0.005
Mof_C 	C 	0.7636	0.7762	0.2776	0.129
Mof_H 	H 	0.8551	0.8183	0.2939	0.054
Mof_C 	C 	0.7217	0.65	0.2736	-0.049
Mof_C 	C 	0.585	0.5865	0.2476	0.076
Mof_H 	H 	0.555	0.5018	0.2429	0.032
Mof_C 	C 	0.821	0.5868	0.2946	0.136
Mof_C 	C 	0.9122	0.5427	0.3079	-0.421
Mof_O 	O 	0.8351	0.2232	0.3615	-0.332
Mof_O 	O 	0.9182	0.3543	0.4779	-0.346
Mof_C 	C 	0.8896	0.2513	0.4333	0.184
Mof_C 	C 	0.9259	0.1491	0.4706	0.867
Mof_F 	F 	0.829	0.0488	0.4518	-0.288
Mof_F 	F 	0.019	0.125	0.441	-0.234
Mof_F 	F 	0.973	0.182	0.5463	-0.176
Mof_F 	F 	0.817	0.072	0.4711	-0.121
Mof_F 	F 	0.982	0.085	0.4314	-0.197
Mof_F 	F 	0.002	0.185	0.5413	-0.264
Mof_O 	O 	0.8887	0.6412	0.1448	-0.254
Mof_O 	O 	0.944	0.6323	0.0316	-0.336
Mof_C 	C 	0.8663	0.6348	0.0737	0.111
Mof_C 	C 	0.7235	0.6293	0.0293	0.886
Mof_F 	F 	0.654	0.5312	0.9787	-0.255
Mof_F 	F 	0.728	0.709	0.987	0.166
Mof_F 	F 	0.646	0.65	0.0685	-0.291
Mof_F 	F 	0.6702	0.6865	0.0776	-0.202
Mof_F 	F 	0.653	0.5115	0.007	-0.249
Mof_F 	F 	0.717	0.677	0.9663	-0.675
Mof_O 	O 	0.2949	0.3571	0.375	-0.186
Mof_O 	O 	0.2256	0.4547	0.4682	-0.297
Mof_C 	C 	0.2852	0.3862	0.4428	0.144
Mof_C 	C 	0.3655	0.3355	0.5058	1.049
Mof_F 	F 	0.296	0.284	0.5475	-0.303
Mof_F 	F 	0.463	0.425	0.5553	-0.217
Mof_F 	F 	0.415	0.259	0.4754	-0.148
Mof_F 	F 	0.462	0.305	0.4866	-0.318
Mof_F 	F 	0.291	0.24	0.5159	-0.199
Mof_F 	F 	0.42	0.4101	0.5727	-0.346
Mof_O 	O 	0.2892	0.7253	0.417	-0.142
Mof_O 	O 	0.207	0.798	0.3164	-0.109
Mof_C 	C 	0.2901	0.8103	0.3816	0.071
Mof_C 	C 	0.409	0.9307	0.4071	1.046
Mof_F 	F 	0.517	0.9134	0.3999	-0.448
Mof_F 	F 	0.4359	0.9807	0.4796	-0.319
Mof_F 	F 	0.394	0.0143	0.3709	-0.535
Mof_O 	O 	0.2628	0.8734	0.1858	-0.209
Mof_O 	O 	0.1923	0.7996	0.2961	-0.092
Mof_C 	C 	0.2264	0.876	0.2509	-0.016
Mof_C 	C 	0.286	0.004	0.3191	1.195
Mof_F 	F 	0.404	0.056	0.3204	-0.38
Mof_F 	F 	0.284	0.0094	0.3892	-0.437
Mof_F 	F 	0.22	0.073	0.2937	-0.568
Mof_Ag	Ag	0.83147	0.32478	0.8987	0.584
Mof_Ag	Ag	0.05072	0.41016	0.10326	0.389
Mof_Ag	Ag	0.93692	0.40401	0.76753	0.391
Mof_Ag	Ag	0.7889	0.58638	0.73326	0.5
Mof_Ag	Ag	0.18913	0.52519	0.5966	0.758
Mof_Ag	Ag	0.92072	0.35816	0.26222	0.186
Mof_Ag	Ag	0.89911	0.44983	0.60836	0.585
Mof_Ag	Ag	0.26121	0.96154	0.73421	0.771
Mof_N 	N 	0.3246	0.1616	0.7413	-0.171
Mof_C 	C 	0.7691	0.4571	0.8162	-0.422
Mof_C 	C 	0.6492	0.4079	0.7962	0.173
Mof_C 	C 	0.5059	0.3486	0.7713	-0.065
Mof_C 	C 	0.4568	0.2221	0.765	0.128
Mof_H 	H 	0.5176	0.1783	0.7777	0.005
Mof_C 	C 	0.2364	0.2238	0.7224	0.129
Mof_H 	H 	0.1449	0.1817	0.7061	0.054
Mof_C 	C 	0.2783	0.35	0.7264	-0.049
Mof_C 	C 	0.415	0.4135	0.7524	0.076
Mof_H 	H 	0.445	0.4982	0.7571	0.032
Mof_C 	C 	0.179	0.4132	0.7054	0.136
Mof_C 	C 	0.0878	0.4573	0.6921	-0.421
Mof_O 	O 	0.1649	0.7768	0.6385	-0.332
Mof_O 	O 	0.0818	0.6457	0.5221	-0.346
Mof_C 	C 	0.1104	0.7487	0.5667	0.184
Mof_C 	C 	0.0741	0.8509	0.5294	0.867
Mof_F 	F 	0.171	0.9512	0.5482	-0.288
Mof_F 	F 	0.981	0.875	0.559	-0.234
Mof_F 	F 	0.027	0.818	0.4537	-0.176
Mof_F 	F 	0.183	0.928	0.5289	-0.121
Mof_F 	F 	0.018	0.915	0.5686	-0.197
Mof_F 	F 	0.998	0.815	0.4587	-0.264
Mof_O 	O 	0.1113	0.3588	0.8552	-0.254
Mof_O 	O 	0.056	0.3677	0.9684	-0.336
Mof_C 	C 	0.1337	0.3652	0.9263	0.111
Mof_C 	C 	0.2765	0.3707	0.9707	0.886
Mof_F 	F 	0.346	0.4688	0.0213	-0.255
Mof_F 	F 	0.272	0.291	0.013	0.166
Mof_F 	F 	0.354	0.35	0.9315	-0.291
Mof_F 	F 	0.3298	0.3135	0.9224	-0.202
Mof_F 	F 	0.347	0.4885	0.993	-0.249
Mof_F 	F 	0.283	0.323	0.0337	-0.675
Mof_O 	O 	0.7051	0.6429	0.625	-0.186
Mof_O 	O 	0.7744	0.5453	0.5318	-0.297
Mof_C 	C 	0.7148	0.6138	0.5572	0.144
Mof_C 	C 	0.6345	0.6645	0.4942	1.049
Mof_F 	F 	0.704	0.716	0.4525	-0.303
Mof_F 	F 	0.537	0.575	0.4447	-0.217
Mof_F 	F 	0.585	0.741	0.5246	-0.148
Mof_F 	F 	0.538	0.695	0.5134	-0.318
Mof_F 	F 	0.709	0.76	0.4841	-0.199
Mof_F 	F 	0.58	0.5899	0.4273	-0.346
Mof_O 	O 	0.7108	0.2747	0.583	-0.142
Mof_O 	O 	0.793	0.202	0.6836	-0.109
Mof_C 	C 	0.7099	0.1897	0.6184	0.071
Mof_C 	C 	0.591	0.0693	0.5929	1.046
Mof_F 	F 	0.483	0.0866	0.6001	-0.448
Mof_F 	F 	0.5641	0.0193	0.5204	-0.319
Mof_F 	F 	0.606	0.9857	0.6291	-0.535
Mof_O 	O 	0.7372	0.1266	0.8142	-0.209
Mof_O 	O 	0.8077	0.2004	0.7039	-0.092
Mof_C 	C 	0.7736	0.124	0.7491	-0.016
Mof_C 	C 	0.714	0.996	0.6809	1.195
Mof_F 	F 	0.596	0.944	0.6796	-0.38
Mof_F 	F 	0.716	0.9906	0.6108	-0.437
Mof_F 	F 	0.78	0.927	0.7063	-0.568
_end
