data_functionalizedCrystal
_audit_creation_method	'EQeq! by Chris Wilmer'
_symmetry_space_group_name_H-M	'P1'
_symmetry_Int_Tables_number	1
_symmetry_cell_setting	triclinic
loop_
_symmetry_equiv_pos_as_xyz
  x,y,z
_cell_length_a	18.7223
_cell_length_b	5.7758
_cell_length_c	20.8283
_cell_angle_alpha	90
_cell_angle_beta	91.165
_cell_angle_gamma	90
loop_
_atom_site_label
_atom_site_type_symbol
_atom_site_fract_x
_atom_site_fract_y
_atom_site_fract_z
_atom_site_charge
Mof_O 	O 	0.7581	0.9523	0.3213	-0.446
Mof_O 	O 	0.6413	0.978	0.3376	-0.296
Mof_O 	O 	0.6687	0.5197	0.2589	-0.451
Mof_O 	O 	0.6575	0.5117	0.1527	-0.312
Mof_N 	N 	0.6566	0.2823	0.434	-0.09
Mof_N 	N 	0.5539	0.1896	0.1523	-0.089
Mof_C 	C 	0.7035	0.0277	0.3501	0.381
Mof_C 	C 	0.7217	0.1897	0.4053	-0.256
Mof_H 	H 	0.7499	0.1052	0.4385	0.119
Mof_H 	H 	0.7512	0.3193	0.3896	0.134
Mof_C 	C 	0.6246	0.4631	0.4075	0.06
Mof_H 	H 	0.6441	0.5316	0.3703	0.038
Mof_C 	C 	0.5628	0.5552	0.4333	-0.108
Mof_H 	H 	0.5403	0.6864	0.4142	0.078
Mof_C 	C 	0.5345	0.4531	0.4871	0.049
Mof_C 	C 	0.5695	0.263	0.5129	-0.116
Mof_H 	H 	0.5506	0.1882	0.5494	0.072
Mof_C 	C 	0.6299	0.1838	0.4872	0.062
Mof_H 	H 	0.6541	0.0567	0.5067	0.017
Mof_C 	C 	0.6402	0.4478	0.207	0.384
Mof_C 	C 	0.5799	0.272	0.2161	-0.251
Mof_H 	H 	0.5976	0.1399	0.242	0.128
Mof_H 	H 	0.5402	0.3461	0.2393	0.119
Mof_C 	C 	0.5013	0.302	0.1219	0.061
Mof_H 	H 	0.4798	0.4322	0.1415	0.019
Mof_C 	C 	0.4782	0.231	0.0631	-0.108
Mof_H 	H 	0.4403	0.3115	0.0417	0.069
Mof_C 	C 	0.51	0.0415	0.0338	0.039
Mof_C 	C 	0.5657	0.931	0.0669	-0.085
Mof_H 	H 	0.5907	0.8069	0.0476	0.07
Mof_C 	C 	0.5841	0.0044	0.128	0.036
Mof_H 	H 	0.6187	0.9209	0.1527	0.048
Mof_O 	O 	0.7419	0.9523	0.1787	-0.444
Mof_O 	O 	0.8587	0.978	0.1624	-0.294
Mof_O 	O 	0.8313	0.5197	0.2411	-0.45
Mof_O 	O 	0.8425	0.5117	0.3473	-0.311
Mof_N 	N 	0.8434	0.2823	0.066	-0.09
Mof_N 	N 	0.9461	0.1896	0.3477	-0.088
Mof_C 	C 	0.7965	0.0277	0.1499	0.38
Mof_C 	C 	0.7783	0.1897	0.0947	-0.255
Mof_H 	H 	0.7501	0.1052	0.0615	0.119
Mof_H 	H 	0.7488	0.3193	0.1104	0.134
Mof_C 	C 	0.8754	0.4631	0.0925	0.06
Mof_H 	H 	0.8559	0.5316	0.1297	0.038
Mof_C 	C 	0.9372	0.5552	0.0667	-0.107
Mof_H 	H 	0.9597	0.6864	0.0858	0.078
Mof_C 	C 	0.9655	0.4531	0.0129	0.048
Mof_C 	C 	0.9305	0.263	0.9871	-0.113
Mof_H 	H 	0.9494	0.1882	0.9506	0.071
Mof_C 	C 	0.8701	0.1838	0.0128	0.058
Mof_H 	H 	0.8459	0.0567	0.9933	0.019
Mof_C 	C 	0.8598	0.4478	0.293	0.384
Mof_C 	C 	0.9201	0.272	0.2839	-0.251
Mof_H 	H 	0.9024	0.1399	0.258	0.128
Mof_H 	H 	0.9598	0.3461	0.2607	0.119
Mof_C 	C 	0.9987	0.302	0.3781	0.058
Mof_H 	H 	0.0202	0.4322	0.3585	0.021
Mof_C 	C 	0.0218	0.231	0.4369	-0.105
Mof_H 	H 	0.0597	0.3115	0.4583	0.068
Mof_C 	C 	0.99	0.0415	0.4662	0.037
Mof_C 	C 	0.9343	0.931	0.4331	-0.083
Mof_H 	H 	0.9093	0.8069	0.4524	0.07
Mof_C 	C 	0.9159	0.0044	0.372	0.034
Mof_H 	H 	0.8813	0.9209	0.3473	0.049
Mof_O 	O 	0.2419	0.0477	0.6787	-0.445
Mof_O 	O 	0.3587	0.022	0.6624	-0.295
Mof_O 	O 	0.3313	0.4803	0.7411	-0.45
Mof_O 	O 	0.3425	0.4883	0.8473	-0.311
Mof_N 	N 	0.3434	0.7177	0.566	-0.09
Mof_N 	N 	0.4461	0.8104	0.8477	-0.089
Mof_C 	C 	0.2965	0.9723	0.6499	0.381
Mof_C 	C 	0.2783	0.8103	0.5947	-0.256
Mof_H 	H 	0.2501	0.8948	0.5615	0.119
Mof_H 	H 	0.2488	0.6807	0.6104	0.134
Mof_C 	C 	0.3754	0.5369	0.5925	0.06
Mof_H 	H 	0.3559	0.4684	0.6297	0.038
Mof_C 	C 	0.4372	0.4448	0.5667	-0.108
Mof_H 	H 	0.4597	0.3136	0.5858	0.078
Mof_C 	C 	0.4655	0.5469	0.5129	0.049
Mof_C 	C 	0.4305	0.737	0.4871	-0.116
Mof_H 	H 	0.4494	0.8118	0.4506	0.072
Mof_C 	C 	0.3701	0.8162	0.5128	0.062
Mof_H 	H 	0.3459	0.9433	0.4933	0.017
Mof_C 	C 	0.3598	0.5522	0.793	0.384
Mof_C 	C 	0.4201	0.728	0.7839	-0.251
Mof_H 	H 	0.4024	0.8601	0.758	0.128
Mof_H 	H 	0.4598	0.6539	0.7607	0.119
Mof_C 	C 	0.4987	0.698	0.8781	0.061
Mof_H 	H 	0.5202	0.5678	0.8585	0.019
Mof_C 	C 	0.5218	0.769	0.9369	-0.108
Mof_H 	H 	0.5597	0.6885	0.9583	0.069
Mof_C 	C 	0.49	0.9585	0.9662	0.039
Mof_C 	C 	0.4343	0.069	0.9331	-0.085
Mof_H 	H 	0.4093	0.1931	0.9524	0.07
Mof_C 	C 	0.4159	0.9956	0.872	0.036
Mof_H 	H 	0.3813	0.0791	0.8473	0.048
Mof_O 	O 	0.2581	0.0477	0.8213	-0.444
Mof_O 	O 	0.1413	0.022	0.8376	-0.294
Mof_O 	O 	0.1687	0.4803	0.7589	-0.45
Mof_O 	O 	0.1575	0.4883	0.6527	-0.311
Mof_N 	N 	0.1566	0.7177	0.934	-0.09
Mof_N 	N 	0.0539	0.8104	0.6523	-0.088
Mof_C 	C 	0.2035	0.9723	0.8501	0.38
Mof_C 	C 	0.2217	0.8103	0.9053	-0.255
Mof_H 	H 	0.2499	0.8948	0.9385	0.119
Mof_H 	H 	0.2512	0.6807	0.8896	0.134
Mof_C 	C 	0.1246	0.5369	0.9075	0.06
Mof_H 	H 	0.1441	0.4684	0.8703	0.038
Mof_C 	C 	0.0628	0.4448	0.9333	-0.107
Mof_H 	H 	0.0403	0.3136	0.9142	0.078
Mof_C 	C 	0.0345	0.5469	0.9871	0.048
Mof_C 	C 	0.0695	0.737	0.0129	-0.113
Mof_H 	H 	0.0506	0.8118	0.0494	0.071
Mof_C 	C 	0.1299	0.8162	0.9872	0.058
Mof_H 	H 	0.1541	0.9433	0.0067	0.019
Mof_C 	C 	0.1402	0.5522	0.707	0.384
Mof_C 	C 	0.0799	0.728	0.7161	-0.251
Mof_H 	H 	0.0976	0.8601	0.742	0.128
Mof_H 	H 	0.0402	0.6539	0.7393	0.119
Mof_C 	C 	0.0013	0.698	0.6219	0.058
Mof_H 	H 	0.9798	0.5678	0.6415	0.021
Mof_C 	C 	0.9782	0.769	0.5631	-0.105
Mof_H 	H 	0.9403	0.6885	0.5417	0.068
Mof_C 	C 	0.01	0.9585	0.5338	0.037
Mof_C 	C 	0.0657	0.069	0.5669	-0.083
Mof_H 	H 	0.0907	0.1931	0.5476	0.07
Mof_C 	C 	0.0841	0.9956	0.628	0.034
Mof_H 	H 	0.1187	0.0791	0.6527	0.049
Mof_Zn	Zn	0.75	0.7326	0.25	1.241
Mof_Zn	Zn	0.25	0.2674	0.75	1.241
_end
