data_functionalizedCrystal
_audit_creation_method	'EQeq! by Chris Wilmer'
_symmetry_space_group_name_H-M	'P1'
_symmetry_Int_Tables_number	1
_symmetry_cell_setting	triclinic
loop_
_symmetry_equiv_pos_as_xyz
  x,y,z
_cell_length_a	13.0757
_cell_length_b	14.1157
_cell_length_c	16.6631
_cell_angle_alpha	66.602
_cell_angle_beta	87.138
_cell_angle_gamma	89.757
loop_
_atom_site_label
_atom_site_type_symbol
_atom_site_fract_x
_atom_site_fract_y
_atom_site_fract_z
_atom_site_charge
Mof_Zn	Zn	0.23522	0.8337	0.41793	1.16
Mof_Zn	Zn	0.90283	0.46107	0.28174	1.233
Mof_Zn	Zn	0.74708	0.58992	0.12895	1.16
Mof_Zn	Zn	0.40818	0.95917	0.25723	1.235
Mof_H 	H 	0.0872	0.7311	0.2455	0.044
Mof_H 	H 	0.9869	0.8175	0.0003	0.076
Mof_H 	H 	0.2219	0.9746	0.0446	0.078
Mof_H 	H 	0.1705	0.097	0.9147	0.026
Mof_H 	H 	0.2505	0.0238	0.8911	0.033
Mof_H 	H 	0.0889	0.1187	0.7764	0.054
Mof_H 	H 	0.1711	0.2278	0.2629	0.059
Mof_H 	H 	0.1209	0.2766	0.4863	0.083
Mof_H 	H 	0.3103	0.0491	0.4831	0.082
Mof_H 	H 	0.2275	0.2578	0.6075	0.028
Mof_H 	H 	0.1247	0.1884	0.6274	0.01
Mof_H 	H 	0.2972	0.1141	0.7361	0.069
Mof_H 	H 	0.5793	0.683	0.3026	0.042
Mof_H 	H 	0.7253	0.4733	0.5065	0.068
Mof_H 	H 	0.4908	0.6374	0.5522	0.081
Mof_H 	H 	0.6977	0.3769	0.6517	0.03
Mof_H 	H 	0.769	0.4755	0.6368	0.032
Mof_H 	H 	0.647	0.3678	0.7974	0.059
Mof_H 	H 	0.8285	0.4815	0.7605	0.062
Mof_H 	H 	0.7667	0.4728	0.907	0.008
Mof_H 	H 	0.8556	0.393	0.9098	0.024
Mof_H 	H 	0.805	0.4011	0.0469	0.061
Mof_H 	H 	0.6811	0.1883	0.2756	0.061
Mof_H 	H 	0.617	0.1745	0.0452	0.098
Mof_C 	C 	0.2316	0.8743	0.217	0.371
Mof_C 	C 	0.9512	0.6716	0.16	0.387
Mof_C 	C 	0.1622	0.8564	0.1542	-0.06
Mof_C 	C 	0.0915	0.7759	0.1852	0.008
Mof_C 	C 	0.0262	0.7611	0.1272	-0.07
Mof_C 	C 	0.0324	0.8268	0.0394	-0.079
Mof_C 	C 	0.1056	0.9068	0.0083	0.157
Mof_C 	C 	0.1712	0.9211	0.0656	-0.091
Mof_C 	C 	0.1795	0.0494	0.8845	0.023
Mof_C 	C 	0.1582	0.1029	0.7903	-0.043
Mof_C 	C 	0.3005	0.075	0.316	0.309
Mof_C 	C 	0.0549	0.3414	0.3243	0.274
Mof_C 	C 	0.2477	0.13	0.3667	-0.05
Mof_C 	C 	0.1822	0.2096	0.323	-0.035
Mof_C 	C 	0.1328	0.2625	0.3686	-0.021
Mof_C 	C 	0.1529	0.2392	0.4559	-0.134
Mof_C 	C 	0.2208	0.16	0.498	0.176
Mof_C 	C 	0.2664	0.1045	0.4537	-0.125
Mof_C 	C 	0.2001	0.1861	0.6314	0.045
Mof_C 	C 	0.2276	0.1304	0.7241	-0.063
Mof_C 	C 	0.4463	0.7557	0.3888	0.388
Mof_C 	C 	0.7258	0.5443	0.3319	0.391
Mof_C 	C 	0.5241	0.6727	0.423	-0.066
Mof_C 	C 	0.5867	0.6482	0.3638	0.017
Mof_C 	C 	0.6599	0.5724	0.3954	-0.076
Mof_C 	C 	0.6738	0.5236	0.4852	-0.086
Mof_C 	C 	0.6116	0.5496	0.5428	0.154
Mof_C 	C 	0.5352	0.6224	0.512	-0.081
Mof_C 	C 	0.704	0.4391	0.6648	0.018
Mof_C 	C 	0.7023	0.4092	0.7617	-0.032
Mof_C 	C 	0.7756	0.4387	0.7987	-0.06
Mof_C 	C 	0.7843	0.4123	0.8935	0.053
Mof_C 	C 	0.7115	0.2947	0.0315	0.177
Mof_C 	C 	0.7622	0.3421	0.0774	-0.129
Mof_C 	C 	0.75	0.3027	0.1684	-0.055
Mof_C 	C 	0.6882	0.2156	0.2135	-0.029
Mof_C 	C 	0.6372	0.1689	0.1673	-0.015
Mof_C 	C 	0.6502	0.2078	0.0766	-0.129
Mof_C 	C 	0.8005	0.3538	0.2188	0.306
Mof_C 	C 	0.5622	0.0817	0.2139	0.285
Mof_O 	O 	0.3011	0.9424	0.18291	-0.456
Mof_O 	O 	0.215	0.8223	0.2973	-0.494
Mof_O 	O 	0.968	0.5999	0.23259	-0.474
Mof_O 	O 	0.8791	0.674	0.11259	-0.502
Mof_O 	O 	0.1077	0.9652	0.92012	-0.209
Mof_O 	O 	0.3248	0.97954	0.35626	-0.563
Mof_O 	O 	0.3232	0.1229	0.237	-0.338
Mof_O 	O 	0.9996	0.376	0.37201	-0.417
Mof_O 	O 	0.0432	0.3706	0.24438	-0.332
Mof_O 	O 	0.2447	0.1299	0.5833	-0.224
Mof_O 	O 	0.4648	0.8209	0.31092	-0.473
Mof_O 	O 	0.3703	0.7546	0.43771	-0.488
Mof_O 	O 	0.7984	0.483	0.36286	-0.471
Mof_O 	O 	0.705	0.5815	0.25336	-0.511
Mof_O 	O 	0.6182	0.5061	0.63236	-0.214
Mof_O 	O 	0.7162	0.328	0.94239	-0.236
Mof_O 	O 	0.83319	0.44855	0.17813	-0.567
Mof_O 	O 	0.8123	0.3072	0.29849	-0.368
Mof_O 	O 	0.5165	0.0435	0.1684	-0.407
Mof_O 	O 	0.5431	0.0519	0.2943	-0.318
Mof_Zn	Zn	0.76478	0.1663	0.58207	1.159
Mof_Zn	Zn	0.09717	0.53893	0.71826	1.232
Mof_Zn	Zn	0.25292	0.41008	0.87105	1.159
Mof_Zn	Zn	0.59182	0.04083	0.74277	1.234
Mof_H 	H 	0.9128	0.2689	0.7545	0.043
Mof_H 	H 	0.0131	0.1825	0.9997	0.075
Mof_H 	H 	0.7781	0.0254	0.9554	0.077
Mof_H 	H 	0.8295	0.903	0.0853	0.025
Mof_H 	H 	0.7495	0.9762	0.1089	0.033
Mof_H 	H 	0.9111	0.8813	0.2236	0.054
Mof_H 	H 	0.8289	0.7722	0.7371	0.059
Mof_H 	H 	0.8791	0.7234	0.5137	0.083
Mof_H 	H 	0.6897	0.9509	0.5169	0.082
Mof_H 	H 	0.7725	0.7422	0.3925	0.028
Mof_H 	H 	0.8753	0.8116	0.3726	0.01
Mof_H 	H 	0.7028	0.8859	0.2639	0.069
Mof_H 	H 	0.4207	0.317	0.6974	0.042
Mof_H 	H 	0.2747	0.5267	0.4935	0.068
Mof_H 	H 	0.5092	0.3626	0.4478	0.081
Mof_H 	H 	0.3023	0.6231	0.3483	0.03
Mof_H 	H 	0.231	0.5245	0.3632	0.032
Mof_H 	H 	0.353	0.6322	0.2026	0.059
Mof_H 	H 	0.1715	0.5185	0.2395	0.062
Mof_H 	H 	0.2333	0.5272	0.093	0.008
Mof_H 	H 	0.1444	0.607	0.0902	0.024
Mof_H 	H 	0.195	0.5989	0.9531	0.061
Mof_H 	H 	0.3189	0.8117	0.7244	0.061
Mof_H 	H 	0.383	0.8255	0.9548	0.098
Mof_C 	C 	0.7684	0.1257	0.783	0.371
Mof_C 	C 	0.0488	0.3284	0.84	0.387
Mof_C 	C 	0.8378	0.1436	0.8458	-0.06
Mof_C 	C 	0.9085	0.2241	0.8148	0.008
Mof_C 	C 	0.9738	0.2389	0.8728	-0.07
Mof_C 	C 	0.9676	0.1732	0.9606	-0.079
Mof_C 	C 	0.8944	0.0932	0.9917	0.157
Mof_C 	C 	0.8288	0.0789	0.9344	-0.091
Mof_C 	C 	0.8205	0.9506	0.1155	0.023
Mof_C 	C 	0.8418	0.8971	0.2097	-0.043
Mof_C 	C 	0.6995	0.925	0.684	0.309
Mof_C 	C 	0.9451	0.6586	0.6757	0.274
Mof_C 	C 	0.7523	0.87	0.6333	-0.05
Mof_C 	C 	0.8178	0.7904	0.677	-0.035
Mof_C 	C 	0.8672	0.7375	0.6314	-0.021
Mof_C 	C 	0.8471	0.7608	0.5441	-0.134
Mof_C 	C 	0.7792	0.84	0.502	0.176
Mof_C 	C 	0.7336	0.8955	0.5463	-0.125
Mof_C 	C 	0.7999	0.8139	0.3686	0.045
Mof_C 	C 	0.7724	0.8696	0.2759	-0.063
Mof_C 	C 	0.5537	0.2443	0.6112	0.388
Mof_C 	C 	0.2742	0.4557	0.6681	0.391
Mof_C 	C 	0.4759	0.3273	0.577	-0.066
Mof_C 	C 	0.4133	0.3518	0.6362	0.017
Mof_C 	C 	0.3401	0.4276	0.6046	-0.076
Mof_C 	C 	0.3262	0.4764	0.5148	-0.086
Mof_C 	C 	0.3884	0.4504	0.4572	0.154
Mof_C 	C 	0.4648	0.3776	0.488	-0.081
Mof_C 	C 	0.296	0.5609	0.3352	0.018
Mof_C 	C 	0.2977	0.5908	0.2383	-0.032
Mof_C 	C 	0.2244	0.5613	0.2013	-0.06
Mof_C 	C 	0.2157	0.5877	0.1065	0.053
Mof_C 	C 	0.2885	0.7053	0.9685	0.177
Mof_C 	C 	0.2378	0.6579	0.9226	-0.129
Mof_C 	C 	0.25	0.6973	0.8316	-0.055
Mof_C 	C 	0.3118	0.7844	0.7865	-0.029
Mof_C 	C 	0.3628	0.8311	0.8327	-0.015
Mof_C 	C 	0.3498	0.7922	0.9234	-0.129
Mof_C 	C 	0.1995	0.6462	0.7812	0.306
Mof_C 	C 	0.4378	0.9183	0.7861	0.285
Mof_O 	O 	0.6989	0.0576	0.81709	-0.456
Mof_O 	O 	0.785	0.1777	0.7027	-0.494
Mof_O 	O 	0.032	0.4001	0.76741	-0.474
Mof_O 	O 	0.1209	0.326	0.88741	-0.502
Mof_O 	O 	0.8923	0.0348	0.07988	-0.209
Mof_O 	O 	0.6752	0.02046	0.64374	-0.563
Mof_O 	O 	0.6768	0.8771	0.763	-0.338
Mof_O 	O 	0.0004	0.624	0.62799	-0.417
Mof_O 	O 	0.9568	0.6294	0.75562	-0.332
Mof_O 	O 	0.7553	0.8701	0.4167	-0.224
Mof_O 	O 	0.5352	0.1791	0.68908	-0.473
Mof_O 	O 	0.6297	0.2454	0.56229	-0.488
Mof_O 	O 	0.2016	0.517	0.63714	-0.471
Mof_O 	O 	0.295	0.4185	0.74664	-0.511
Mof_O 	O 	0.3818	0.4939	0.36764	-0.214
Mof_O 	O 	0.2838	0.672	0.05761	-0.236
Mof_O 	O 	0.16681	0.55145	0.82187	-0.567
Mof_O 	O 	0.1877	0.6928	0.70151	-0.368
Mof_O 	O 	0.4835	0.9565	0.8316	-0.407
Mof_O 	O 	0.4569	0.9481	0.7057	-0.318
_end
