data_functionalizedCrystal
_audit_creation_method	'EQeq! by Chris Wilmer'
_symmetry_space_group_name_H-M	'P1'
_symmetry_Int_Tables_number	1
_symmetry_cell_setting	triclinic
loop_
_symmetry_equiv_pos_as_xyz
  x,y,z
_cell_length_a	45.0597
_cell_length_b	45.0597
_cell_length_c	45.0597
_cell_angle_alpha	60
_cell_angle_beta	60
_cell_angle_gamma	60
loop_
_atom_site_label
_atom_site_type_symbol
_atom_site_fract_x
_atom_site_fract_y
_atom_site_fract_z
_atom_site_charge
Mof_Co	Co	0.50816	0.25	0.49184	1.12
Mof_Co	Co	0.75	0.00816	0.75	1.12
Mof_Co	Co	0.99184	0.75	0.00816	1.12
Mof_Co	Co	0.25	0.49184	0.25	1.12
Mof_Co	Co	0.50816	0.49184	0.75	1.12
Mof_Co	Co	0.75	0.75	0.49184	1.12
Mof_Co	Co	0.99184	0.00816	0.25	1.12
Mof_Co	Co	0.25	0.25	0.00816	1.12
Mof_Co	Co	0.50816	0.75	0.25	1.12
Mof_Co	Co	0.75	0.49184	0.00816	1.12
Mof_Co	Co	0.99184	0.25	0.75	1.12
Mof_Co	Co	0.25	0.00816	0.49184	1.12
Mof_Co	Co	0.49184	0.75	0.50816	1.12
Mof_Co	Co	0.25	0.99184	0.25	1.12
Mof_Co	Co	0.00816	0.25	0.99184	1.12
Mof_Co	Co	0.75	0.50816	0.75	1.12
Mof_Co	Co	0.49184	0.50816	0.25	1.12
Mof_Co	Co	0.25	0.25	0.50816	1.12
Mof_Co	Co	0.00816	0.99184	0.75	1.12
Mof_Co	Co	0.75	0.75	0.99184	1.12
Mof_Co	Co	0.49184	0.25	0.75	1.12
Mof_Co	Co	0.25	0.50816	0.99184	1.12
Mof_Co	Co	0.00816	0.75	0.25	1.12
Mof_Co	Co	0.75	0.99184	0.50816	1.12
Mof_Co	Co	0.50223	0.00223	0.74777	1.123
Mof_Co	Co	0.24777	0.74777	0.00223	1.123
Mof_Co	Co	0.50223	0.74777	0.74777	1.123
Mof_Co	Co	0.24777	0.00223	0.00223	1.123
Mof_Co	Co	0.50223	0.74777	0.00223	1.123
Mof_Co	Co	0.24777	0.00223	0.74777	1.123
Mof_Co	Co	0.99777	0.49777	0.75223	1.123
Mof_Co	Co	0.25223	0.75223	0.49777	1.123
Mof_Co	Co	0.25223	0.49777	0.75223	1.123
Mof_Co	Co	0.99777	0.75223	0.49777	1.123
Mof_Co	Co	0.25223	0.49777	0.49777	1.123
Mof_Co	Co	0.99777	0.75223	0.75223	1.123
Mof_Co	Co	0.49777	0.99777	0.25223	1.123
Mof_Co	Co	0.75223	0.25223	0.99777	1.123
Mof_Co	Co	0.49777	0.25223	0.25223	1.123
Mof_Co	Co	0.75223	0.99777	0.99777	1.123
Mof_Co	Co	0.49777	0.25223	0.99777	1.123
Mof_Co	Co	0.75223	0.99777	0.25223	1.123
Mof_Co	Co	0.00223	0.50223	0.24777	1.123
Mof_Co	Co	0.74777	0.24777	0.50223	1.123
Mof_Co	Co	0.74777	0.50223	0.24777	1.123
Mof_Co	Co	0.00223	0.24777	0.50223	1.123
Mof_Co	Co	0.74777	0.50223	0.50223	1.123
Mof_Co	Co	0.00223	0.24777	0.24777	1.123
Mof_H 	H 	0.4592	0.1854	0.8142	-0.002
Mof_H 	H 	0.441	0.1424	0.8204	0.065
Mof_H 	H 	0.4477	0.1365	0.7683	0.036
Mof_H 	H 	0.4788	0.2252	0.709	0.011
Mof_H 	H 	0.4888	0.3124	0.519	-0.002
Mof_H 	H 	0.4782	0.3204	0.5708	0.064
Mof_H 	H 	0.4741	0.2721	0.6259	0.036
Mof_H 	H 	0.4904	0.2114	0.5734	0.013
Mof_H 	H 	0.4928	0.082	0.717	0.01
Mof_H 	H 	0.5043	0.1253	0.6103	0.036
Mof_H 	H 	0.5201	0.0667	0.6115	0.067
Mof_H 	H 	0.5192	0.0186	0.6658	0
Mof_H 	H 	0.5584	0.9288	0.7738	0
Mof_H 	H 	0.5672	0.8802	0.8252	0.066
Mof_H 	H 	0.5181	0.8759	0.8801	0.037
Mof_H 	H 	0.4558	0.971	0.8276	0.011
Mof_H 	H 	0.6854	0.9592	0.5412	-0.002
Mof_H 	H 	0.6424	0.941	0.5962	0.065
Mof_H 	H 	0.6365	0.9477	0.6475	0.036
Mof_H 	H 	0.7252	0.9788	0.587	0.011
Mof_H 	H 	0.8124	0.9888	0.6798	-0.002
Mof_H 	H 	0.8204	0.9782	0.6306	0.064
Mof_H 	H 	0.7721	0.9741	0.6279	0.036
Mof_H 	H 	0.7114	0.9904	0.7248	0.013
Mof_H 	H 	0.582	0.9928	0.7082	0.01
Mof_H 	H 	0.6253	0.0043	0.7601	0.036
Mof_H 	H 	0.5667	0.0201	0.8017	0.067
Mof_H 	H 	0.5186	0.0192	0.7964	0
Mof_H 	H 	0.4288	0.0584	0.739	0
Mof_H 	H 	0.3802	0.0672	0.7274	0.066
Mof_H 	H 	0.3759	0.0181	0.7259	0.037
Mof_H 	H 	0.471	0.9558	0.7456	0.011
Mof_H 	H 	0.3142	0.5412	0.9592	-0.002
Mof_H 	H 	0.3204	0.5962	0.941	0.065
Mof_H 	H 	0.2683	0.6475	0.9477	0.036
Mof_H 	H 	0.209	0.587	0.9788	0.011
Mof_H 	H 	0.019	0.6798	0.9888	-0.002
Mof_H 	H 	0.0708	0.6306	0.9782	0.064
Mof_H 	H 	0.1259	0.6279	0.9741	0.036
Mof_H 	H 	0.0734	0.7248	0.9904	0.013
Mof_H 	H 	0.217	0.7082	0.9928	0.01
Mof_H 	H 	0.1103	0.7601	0.0043	0.036
Mof_H 	H 	0.1115	0.8017	0.0201	0.067
Mof_H 	H 	0.1658	0.7964	0.0192	0
Mof_H 	H 	0.2738	0.739	0.0584	0
Mof_H 	H 	0.3252	0.7274	0.0672	0.066
Mof_H 	H 	0.3801	0.7259	0.0181	0.037
Mof_H 	H 	0.3276	0.7456	0.9558	0.011
Mof_H 	H 	0.0412	0.8142	0.1854	-0.001
Mof_H 	H 	0.0962	0.8204	0.1424	0.065
Mof_H 	H 	0.1475	0.7683	0.1365	0.036
Mof_H 	H 	0.087	0.709	0.2252	0.011
Mof_H 	H 	0.1798	0.519	0.3124	-0.002
Mof_H 	H 	0.1306	0.5708	0.3204	0.064
Mof_H 	H 	0.1279	0.6259	0.2721	0.036
Mof_H 	H 	0.2248	0.5734	0.2114	0.013
Mof_H 	H 	0.2082	0.717	0.082	0.01
Mof_H 	H 	0.2601	0.6103	0.1253	0.036
Mof_H 	H 	0.3017	0.6115	0.0667	0.067
Mof_H 	H 	0.2964	0.6658	0.0186	0
Mof_H 	H 	0.239	0.7738	0.9288	0
Mof_H 	H 	0.2274	0.8252	0.8802	0.066
Mof_H 	H 	0.2259	0.8801	0.8759	0.037
Mof_H 	H 	0.2456	0.8276	0.971	0.011
Mof_H 	H 	0.4592	0.8142	0.5412	-0.002
Mof_H 	H 	0.441	0.8204	0.5962	0.065
Mof_H 	H 	0.4477	0.7683	0.6475	0.036
Mof_H 	H 	0.4788	0.709	0.587	0.011
Mof_H 	H 	0.4888	0.519	0.6798	-0.002
Mof_H 	H 	0.4782	0.5708	0.6306	0.064
Mof_H 	H 	0.4741	0.6259	0.6279	0.036
Mof_H 	H 	0.4904	0.5734	0.7248	0.013
Mof_H 	H 	0.4928	0.717	0.7082	0.01
Mof_H 	H 	0.5043	0.6103	0.7601	0.036
Mof_H 	H 	0.5201	0.6115	0.8017	0.067
Mof_H 	H 	0.5192	0.6658	0.7964	0
Mof_H 	H 	0.5584	0.7738	0.739	0
Mof_H 	H 	0.5672	0.8252	0.7274	0.066
Mof_H 	H 	0.5181	0.8801	0.7259	0.037
Mof_H 	H 	0.4558	0.8276	0.7456	0.011
Mof_H 	H 	0.6854	0.5412	0.8142	-0.002
Mof_H 	H 	0.6424	0.5962	0.8204	0.065
Mof_H 	H 	0.6365	0.6475	0.7683	0.036
Mof_H 	H 	0.7252	0.587	0.709	0.011
Mof_H 	H 	0.8124	0.6798	0.519	-0.002
Mof_H 	H 	0.8204	0.6306	0.5708	0.064
Mof_H 	H 	0.7721	0.6279	0.6259	0.036
Mof_H 	H 	0.7114	0.7248	0.5734	0.013
Mof_H 	H 	0.582	0.7082	0.717	0.01
Mof_H 	H 	0.6253	0.7601	0.6103	0.036
Mof_H 	H 	0.5667	0.8017	0.6115	0.067
Mof_H 	H 	0.5186	0.7964	0.6658	0
Mof_H 	H 	0.4288	0.739	0.7738	0
Mof_H 	H 	0.3802	0.7274	0.8252	0.066
Mof_H 	H 	0.3759	0.7259	0.8801	0.037
Mof_H 	H 	0.471	0.7456	0.8276	0.011
Mof_H 	H 	0.3142	0.9592	0.1854	-0.002
Mof_H 	H 	0.3204	0.941	0.1424	0.065
Mof_H 	H 	0.2683	0.9477	0.1365	0.036
Mof_H 	H 	0.209	0.9788	0.2252	0.011
Mof_H 	H 	0.019	0.9888	0.3124	-0.002
Mof_H 	H 	0.0708	0.9782	0.3204	0.064
Mof_H 	H 	0.1259	0.9741	0.2721	0.036
Mof_H 	H 	0.0734	0.9904	0.2114	0.013
Mof_H 	H 	0.217	0.9928	0.082	0.01
Mof_H 	H 	0.1103	0.0043	0.1253	0.036
Mof_H 	H 	0.1115	0.0201	0.0667	0.067
Mof_H 	H 	0.1658	0.0192	0.0186	0
Mof_H 	H 	0.2738	0.0584	0.9288	0.001
Mof_H 	H 	0.3252	0.0672	0.8802	0.067
Mof_H 	H 	0.3801	0.0181	0.8759	0.038
Mof_H 	H 	0.3276	0.9558	0.971	0.012
Mof_H 	H 	0.0412	0.1854	0.9592	-0
Mof_H 	H 	0.0962	0.1424	0.941	0.066
Mof_H 	H 	0.1475	0.1365	0.9477	0.037
Mof_H 	H 	0.087	0.2252	0.9788	0.012
Mof_H 	H 	0.1798	0.3124	0.9888	-0.001
Mof_H 	H 	0.1306	0.3204	0.9782	0.065
Mof_H 	H 	0.1279	0.2721	0.9741	0.037
Mof_H 	H 	0.2248	0.2114	0.9904	0.014
Mof_H 	H 	0.2082	0.082	0.9928	0.011
Mof_H 	H 	0.2601	0.1253	0.0043	0.037
Mof_H 	H 	0.3017	0.0667	0.0201	0.068
Mof_H 	H 	0.2964	0.0186	0.0192	0.001
Mof_H 	H 	0.239	0.9288	0.0584	0.001
Mof_H 	H 	0.2274	0.8802	0.0672	0.067
Mof_H 	H 	0.2259	0.8759	0.0181	0.038
Mof_H 	H 	0.2456	0.971	0.9558	0.012
Mof_H 	H 	0.4592	0.5412	0.1854	-0.001
Mof_H 	H 	0.441	0.5962	0.1424	0.066
Mof_H 	H 	0.4477	0.6475	0.1365	0.037
Mof_H 	H 	0.4788	0.587	0.2252	0.012
Mof_H 	H 	0.4888	0.6798	0.3124	-0.001
Mof_H 	H 	0.4782	0.6306	0.3204	0.065
Mof_H 	H 	0.4741	0.6279	0.2721	0.037
Mof_H 	H 	0.4904	0.7248	0.2114	0.014
Mof_H 	H 	0.4928	0.7082	0.082	0.011
Mof_H 	H 	0.5043	0.7601	0.1253	0.037
Mof_H 	H 	0.5201	0.8017	0.0667	0.068
Mof_H 	H 	0.5192	0.7964	0.0186	0.001
Mof_H 	H 	0.5584	0.739	0.9288	0.001
Mof_H 	H 	0.5672	0.7274	0.8802	0.067
Mof_H 	H 	0.5181	0.7259	0.8759	0.038
Mof_H 	H 	0.4558	0.7456	0.971	0.012
Mof_H 	H 	0.6854	0.8142	0.9592	-0
Mof_H 	H 	0.6424	0.8204	0.941	0.066
Mof_H 	H 	0.6365	0.7683	0.9477	0.037
Mof_H 	H 	0.7252	0.709	0.9788	0.012
Mof_H 	H 	0.8124	0.519	0.9888	-0.001
Mof_H 	H 	0.8204	0.5708	0.9782	0.065
Mof_H 	H 	0.7721	0.6259	0.9741	0.037
Mof_H 	H 	0.7114	0.5734	0.9904	0.014
Mof_H 	H 	0.582	0.717	0.9928	0.011
Mof_H 	H 	0.6253	0.6103	0.0043	0.037
Mof_H 	H 	0.5667	0.6115	0.0201	0.068
Mof_H 	H 	0.5186	0.6658	0.0192	0.001
Mof_H 	H 	0.4288	0.7738	0.0584	0.001
Mof_H 	H 	0.3802	0.8252	0.0672	0.067
Mof_H 	H 	0.3759	0.8801	0.0181	0.038
Mof_H 	H 	0.471	0.8276	0.9558	0.012
Mof_H 	H 	0.3142	0.1854	0.5412	-0.001
Mof_H 	H 	0.3204	0.1424	0.5962	0.066
Mof_H 	H 	0.2683	0.1365	0.6475	0.037
Mof_H 	H 	0.209	0.2252	0.587	0.012
Mof_H 	H 	0.019	0.3124	0.6798	-0.001
Mof_H 	H 	0.0708	0.3204	0.6306	0.065
Mof_H 	H 	0.1259	0.2721	0.6279	0.037
Mof_H 	H 	0.0734	0.2114	0.7248	0.014
Mof_H 	H 	0.217	0.082	0.7082	0.011
Mof_H 	H 	0.1103	0.1253	0.7601	0.037
Mof_H 	H 	0.1115	0.0667	0.8017	0.068
Mof_H 	H 	0.1658	0.0186	0.7964	0.001
Mof_H 	H 	0.2738	0.9288	0.739	0.001
Mof_H 	H 	0.3252	0.8802	0.7274	0.067
Mof_H 	H 	0.3801	0.8759	0.7259	0.038
Mof_H 	H 	0.3276	0.971	0.7456	0.012
Mof_H 	H 	0.0412	0.9592	0.8142	-0
Mof_H 	H 	0.0962	0.941	0.8204	0.066
Mof_H 	H 	0.1475	0.9477	0.7683	0.037
Mof_H 	H 	0.087	0.9788	0.709	0.012
Mof_H 	H 	0.1798	0.9888	0.519	-0.001
Mof_H 	H 	0.1306	0.9782	0.5708	0.065
Mof_H 	H 	0.1279	0.9741	0.6259	0.037
Mof_H 	H 	0.2248	0.9904	0.5734	0.014
Mof_H 	H 	0.2082	0.9928	0.717	0.011
Mof_H 	H 	0.2601	0.0043	0.6103	0.037
Mof_H 	H 	0.3017	0.0201	0.6115	0.068
Mof_H 	H 	0.2964	0.0192	0.6658	0.001
Mof_H 	H 	0.239	0.0584	0.7738	0.001
Mof_H 	H 	0.2274	0.0672	0.8252	0.067
Mof_H 	H 	0.2259	0.0181	0.8801	0.038
Mof_H 	H 	0.2456	0.9558	0.8276	0.012
Mof_H 	H 	0.8146	0.5408	0.6858	-0.001
Mof_H 	H 	0.8576	0.559	0.6796	0.066
Mof_H 	H 	0.8635	0.5523	0.7317	0.037
Mof_H 	H 	0.7748	0.5212	0.791	0.012
Mof_H 	H 	0.6876	0.5112	0.981	-0.001
Mof_H 	H 	0.6796	0.5218	0.9292	0.065
Mof_H 	H 	0.7279	0.5259	0.8741	0.037
Mof_H 	H 	0.7886	0.5096	0.9266	0.014
Mof_H 	H 	0.918	0.5072	0.783	0.011
Mof_H 	H 	0.8747	0.4957	0.8897	0.037
Mof_H 	H 	0.9333	0.4799	0.8885	0.068
Mof_H 	H 	0.9814	0.4808	0.8342	0.001
Mof_H 	H 	0.0712	0.4416	0.7262	0.001
Mof_H 	H 	0.1198	0.4328	0.6748	0.067
Mof_H 	H 	0.1241	0.4819	0.6199	0.038
Mof_H 	H 	0.029	0.5442	0.6724	0.012
Mof_H 	H 	0.0408	0.3146	0.9588	-0
Mof_H 	H 	0.059	0.3576	0.9038	0.066
Mof_H 	H 	0.0523	0.3635	0.8525	0.037
Mof_H 	H 	0.0212	0.2748	0.913	0.012
Mof_H 	H 	0.0112	0.1876	0.8202	-0.001
Mof_H 	H 	0.0218	0.1796	0.8694	0.065
Mof_H 	H 	0.0259	0.2279	0.8721	0.037
Mof_H 	H 	0.0096	0.2886	0.7752	0.014
Mof_H 	H 	0.0072	0.418	0.7918	0.011
Mof_H 	H 	0.9957	0.3747	0.7399	0.037
Mof_H 	H 	0.9799	0.4333	0.6983	0.068
Mof_H 	H 	0.9808	0.4814	0.7036	0.001
Mof_H 	H 	0.9416	0.5712	0.761	0.001
Mof_H 	H 	0.9328	0.6198	0.7726	0.067
Mof_H 	H 	0.9819	0.6241	0.7741	0.038
Mof_H 	H 	0.0442	0.529	0.7544	0.012
Mof_H 	H 	0.4588	0.6858	0.5408	-0.001
Mof_H 	H 	0.4038	0.6796	0.559	0.066
Mof_H 	H 	0.3525	0.7317	0.5523	0.037
Mof_H 	H 	0.413	0.791	0.5212	0.012
Mof_H 	H 	0.3202	0.981	0.5112	-0.001
Mof_H 	H 	0.3694	0.9292	0.5218	0.065
Mof_H 	H 	0.3721	0.8741	0.5259	0.037
Mof_H 	H 	0.2752	0.9266	0.5096	0.014
Mof_H 	H 	0.2918	0.783	0.5072	0.011
Mof_H 	H 	0.2399	0.8897	0.4957	0.037
Mof_H 	H 	0.1983	0.8885	0.4799	0.068
Mof_H 	H 	0.2036	0.8342	0.4808	0.001
Mof_H 	H 	0.261	0.7262	0.4416	0.001
Mof_H 	H 	0.2726	0.6748	0.4328	0.067
Mof_H 	H 	0.2741	0.6199	0.4819	0.038
Mof_H 	H 	0.2544	0.6724	0.5442	0.012
Mof_H 	H 	0.1858	0.9588	0.3146	-0
Mof_H 	H 	0.1796	0.9038	0.3576	0.066
Mof_H 	H 	0.2317	0.8525	0.3635	0.037
Mof_H 	H 	0.291	0.913	0.2748	0.012
Mof_H 	H 	0.481	0.8202	0.1876	-0.001
Mof_H 	H 	0.4292	0.8694	0.1796	0.065
Mof_H 	H 	0.3741	0.8721	0.2279	0.037
Mof_H 	H 	0.4266	0.7752	0.2886	0.014
Mof_H 	H 	0.283	0.7918	0.418	0.011
Mof_H 	H 	0.3897	0.7399	0.3747	0.037
Mof_H 	H 	0.3885	0.6983	0.4333	0.068
Mof_H 	H 	0.3342	0.7036	0.4814	0.001
Mof_H 	H 	0.2262	0.761	0.5712	0.001
Mof_H 	H 	0.1748	0.7726	0.6198	0.067
Mof_H 	H 	0.1199	0.7741	0.6241	0.038
Mof_H 	H 	0.1724	0.7544	0.529	0.012
Mof_H 	H 	0.1858	0.5408	0.9588	-0
Mof_H 	H 	0.1796	0.559	0.9038	0.066
Mof_H 	H 	0.2317	0.5523	0.8525	0.037
Mof_H 	H 	0.291	0.5212	0.913	0.012
Mof_H 	H 	0.481	0.5112	0.8202	-0.001
Mof_H 	H 	0.4292	0.5218	0.8694	0.065
Mof_H 	H 	0.3741	0.5259	0.8721	0.037
Mof_H 	H 	0.4266	0.5096	0.7752	0.014
Mof_H 	H 	0.283	0.5072	0.7918	0.011
Mof_H 	H 	0.3897	0.4957	0.7399	0.037
Mof_H 	H 	0.3885	0.4799	0.6983	0.068
Mof_H 	H 	0.3342	0.4808	0.7036	0.001
Mof_H 	H 	0.2262	0.4416	0.761	0.001
Mof_H 	H 	0.1748	0.4328	0.7726	0.067
Mof_H 	H 	0.1199	0.4819	0.7741	0.038
Mof_H 	H 	0.1724	0.5442	0.7544	0.012
Mof_H 	H 	0.4588	0.3146	0.6858	-0.001
Mof_H 	H 	0.4038	0.3576	0.6796	0.066
Mof_H 	H 	0.3525	0.3635	0.7317	0.037
Mof_H 	H 	0.413	0.2748	0.791	0.012
Mof_H 	H 	0.3202	0.1876	0.981	-0.001
Mof_H 	H 	0.3694	0.1796	0.9292	0.065
Mof_H 	H 	0.3721	0.2279	0.8741	0.037
Mof_H 	H 	0.2752	0.2886	0.9266	0.014
Mof_H 	H 	0.2918	0.418	0.783	0.011
Mof_H 	H 	0.2399	0.3747	0.8897	0.037
Mof_H 	H 	0.1983	0.4333	0.8885	0.068
Mof_H 	H 	0.2036	0.4814	0.8342	0.001
Mof_H 	H 	0.261	0.5712	0.7262	0.001
Mof_H 	H 	0.2726	0.6198	0.6748	0.067
Mof_H 	H 	0.2741	0.6241	0.6199	0.038
Mof_H 	H 	0.2544	0.529	0.6724	0.012
Mof_H 	H 	0.0408	0.6858	0.3146	-0.001
Mof_H 	H 	0.059	0.6796	0.3576	0.066
Mof_H 	H 	0.0523	0.7317	0.3635	0.037
Mof_H 	H 	0.0212	0.791	0.2748	0.012
Mof_H 	H 	0.0112	0.981	0.1876	-0.001
Mof_H 	H 	0.0218	0.9292	0.1796	0.065
Mof_H 	H 	0.0259	0.8741	0.2279	0.037
Mof_H 	H 	0.0096	0.9266	0.2886	0.014
Mof_H 	H 	0.0072	0.783	0.418	0.011
Mof_H 	H 	0.9957	0.8897	0.3747	0.037
Mof_H 	H 	0.9799	0.8885	0.4333	0.068
Mof_H 	H 	0.9808	0.8342	0.4814	0.001
Mof_H 	H 	0.9416	0.7262	0.5712	0.001
Mof_H 	H 	0.9328	0.6748	0.6198	0.067
Mof_H 	H 	0.9819	0.6199	0.6241	0.038
Mof_H 	H 	0.0442	0.6724	0.529	0.012
Mof_H 	H 	0.8146	0.9588	0.5408	-0
Mof_H 	H 	0.8576	0.9038	0.559	0.066
Mof_H 	H 	0.8635	0.8525	0.5523	0.037
Mof_H 	H 	0.7748	0.913	0.5212	0.012
Mof_H 	H 	0.6876	0.8202	0.5112	-0.001
Mof_H 	H 	0.6796	0.8694	0.5218	0.065
Mof_H 	H 	0.7279	0.8721	0.5259	0.037
Mof_H 	H 	0.7886	0.7752	0.5096	0.014
Mof_H 	H 	0.918	0.7918	0.5072	0.011
Mof_H 	H 	0.8747	0.7399	0.4957	0.037
Mof_H 	H 	0.9333	0.6983	0.4799	0.068
Mof_H 	H 	0.9814	0.7036	0.4808	0.001
Mof_H 	H 	0.0712	0.761	0.4416	0.001
Mof_H 	H 	0.1198	0.7726	0.4328	0.067
Mof_H 	H 	0.1241	0.7741	0.4819	0.038
Mof_H 	H 	0.029	0.7544	0.5442	0.012
Mof_H 	H 	0.4588	0.5408	0.3146	-0.001
Mof_H 	H 	0.4038	0.559	0.3576	0.066
Mof_H 	H 	0.3525	0.5523	0.3635	0.037
Mof_H 	H 	0.413	0.5212	0.2748	0.012
Mof_H 	H 	0.3202	0.5112	0.1876	-0.001
Mof_H 	H 	0.3694	0.5218	0.1796	0.065
Mof_H 	H 	0.3721	0.5259	0.2279	0.037
Mof_H 	H 	0.2752	0.5096	0.2886	0.014
Mof_H 	H 	0.2918	0.5072	0.418	0.011
Mof_H 	H 	0.2399	0.4957	0.3747	0.037
Mof_H 	H 	0.1983	0.4799	0.4333	0.068
Mof_H 	H 	0.2036	0.4808	0.4814	0.001
Mof_H 	H 	0.261	0.4416	0.5712	0.001
Mof_H 	H 	0.2726	0.4328	0.6198	0.067
Mof_H 	H 	0.2741	0.4819	0.6241	0.038
Mof_H 	H 	0.2544	0.5442	0.529	0.012
Mof_H 	H 	0.1858	0.3146	0.5408	-0.001
Mof_H 	H 	0.1796	0.3576	0.559	0.066
Mof_H 	H 	0.2317	0.3635	0.5523	0.037
Mof_H 	H 	0.291	0.2748	0.5212	0.012
Mof_H 	H 	0.481	0.1876	0.5112	-0.001
Mof_H 	H 	0.4292	0.1796	0.5218	0.065
Mof_H 	H 	0.3741	0.2279	0.5259	0.037
Mof_H 	H 	0.4266	0.2886	0.5096	0.014
Mof_H 	H 	0.283	0.418	0.5072	0.011
Mof_H 	H 	0.3897	0.3747	0.4957	0.037
Mof_H 	H 	0.3885	0.4333	0.4799	0.068
Mof_H 	H 	0.3342	0.4814	0.4808	0.001
Mof_H 	H 	0.2262	0.5712	0.4416	0.001
Mof_H 	H 	0.1748	0.6198	0.4328	0.067
Mof_H 	H 	0.1199	0.6241	0.4819	0.038
Mof_H 	H 	0.1724	0.529	0.5442	0.012
Mof_H 	H 	0.8146	0.6858	0.9588	-0
Mof_H 	H 	0.8576	0.6796	0.9038	0.066
Mof_H 	H 	0.8635	0.7317	0.8525	0.037
Mof_H 	H 	0.7748	0.791	0.913	0.012
Mof_H 	H 	0.6876	0.981	0.8202	-0.001
Mof_H 	H 	0.6796	0.9292	0.8694	0.065
Mof_H 	H 	0.7279	0.8741	0.8721	0.037
Mof_H 	H 	0.7886	0.9266	0.7752	0.014
Mof_H 	H 	0.918	0.783	0.7918	0.011
Mof_H 	H 	0.8747	0.8897	0.7399	0.037
Mof_H 	H 	0.9333	0.8885	0.6983	0.068
Mof_H 	H 	0.9814	0.8342	0.7036	0.001
Mof_H 	H 	0.0712	0.7262	0.761	0.001
Mof_H 	H 	0.1198	0.6748	0.7726	0.067
Mof_H 	H 	0.1241	0.6199	0.7741	0.038
Mof_H 	H 	0.029	0.6724	0.7544	0.012
Mof_H 	H 	0.0408	0.9588	0.6858	-0
Mof_H 	H 	0.059	0.9038	0.6796	0.066
Mof_H 	H 	0.0523	0.8525	0.7317	0.037
Mof_H 	H 	0.0212	0.913	0.791	0.012
Mof_H 	H 	0.0112	0.8202	0.981	-0.001
Mof_H 	H 	0.0218	0.8694	0.9292	0.065
Mof_H 	H 	0.0259	0.8721	0.8741	0.037
Mof_H 	H 	0.0096	0.7752	0.9266	0.014
Mof_H 	H 	0.0072	0.7918	0.783	0.011
Mof_H 	H 	0.9957	0.7399	0.8897	0.037
Mof_H 	H 	0.9799	0.6983	0.8885	0.068
Mof_H 	H 	0.9808	0.7036	0.8342	0.001
Mof_H 	H 	0.9416	0.761	0.7262	0.001
Mof_H 	H 	0.9328	0.7726	0.6748	0.067
Mof_H 	H 	0.9819	0.7741	0.6199	0.038
Mof_H 	H 	0.0442	0.7544	0.6724	0.012
Mof_H 	H 	0.5408	0.8146	0.1858	-0.001
Mof_H 	H 	0.559	0.8576	0.1796	0.066
Mof_H 	H 	0.5523	0.8635	0.2317	0.037
Mof_H 	H 	0.5212	0.7748	0.291	0.012
Mof_H 	H 	0.5112	0.6876	0.481	-0.001
Mof_H 	H 	0.5218	0.6796	0.4292	0.065
Mof_H 	H 	0.5259	0.7279	0.3741	0.037
Mof_H 	H 	0.5096	0.7886	0.4266	0.014
Mof_H 	H 	0.5072	0.918	0.283	0.011
Mof_H 	H 	0.4957	0.8747	0.3897	0.037
Mof_H 	H 	0.4799	0.9333	0.3885	0.068
Mof_H 	H 	0.4808	0.9814	0.3342	0.001
Mof_H 	H 	0.4416	0.0712	0.2262	0.001
Mof_H 	H 	0.4328	0.1198	0.1748	0.067
Mof_H 	H 	0.4819	0.1241	0.1199	0.038
Mof_H 	H 	0.5442	0.029	0.1724	0.012
Mof_H 	H 	0.3146	0.0408	0.4588	-0.001
Mof_H 	H 	0.3576	0.059	0.4038	0.066
Mof_H 	H 	0.3635	0.0523	0.3525	0.037
Mof_H 	H 	0.2748	0.0212	0.413	0.012
Mof_H 	H 	0.1876	0.0112	0.3202	-0.001
Mof_H 	H 	0.1796	0.0218	0.3694	0.065
Mof_H 	H 	0.2279	0.0259	0.3721	0.037
Mof_H 	H 	0.2886	0.0096	0.2752	0.014
Mof_H 	H 	0.418	0.0072	0.2918	0.011
Mof_H 	H 	0.3747	0.9957	0.2399	0.037
Mof_H 	H 	0.4333	0.9799	0.1983	0.068
Mof_H 	H 	0.4814	0.9808	0.2036	0.001
Mof_H 	H 	0.5712	0.9416	0.261	0.001
Mof_H 	H 	0.6198	0.9328	0.2726	0.067
Mof_H 	H 	0.6241	0.9819	0.2741	0.038
Mof_H 	H 	0.529	0.0442	0.2544	0.012
Mof_H 	H 	0.6858	0.4588	0.0408	-0.001
Mof_H 	H 	0.6796	0.4038	0.059	0.066
Mof_H 	H 	0.7317	0.3525	0.0523	0.037
Mof_H 	H 	0.791	0.413	0.0212	0.012
Mof_H 	H 	0.981	0.3202	0.0112	-0.001
Mof_H 	H 	0.9292	0.3694	0.0218	0.065
Mof_H 	H 	0.8741	0.3721	0.0259	0.037
Mof_H 	H 	0.9266	0.2752	0.0096	0.014
Mof_H 	H 	0.783	0.2918	0.0072	0.011
Mof_H 	H 	0.8897	0.2399	0.9957	0.037
Mof_H 	H 	0.8885	0.1983	0.9799	0.068
Mof_H 	H 	0.8342	0.2036	0.9808	0.001
Mof_H 	H 	0.7262	0.261	0.9416	0.001
Mof_H 	H 	0.6748	0.2726	0.9328	0.067
Mof_H 	H 	0.6199	0.2741	0.9819	0.038
Mof_H 	H 	0.6724	0.2544	0.0442	0.012
Mof_H 	H 	0.9588	0.1858	0.8146	-0
Mof_H 	H 	0.9038	0.1796	0.8576	0.066
Mof_H 	H 	0.8525	0.2317	0.8635	0.037
Mof_H 	H 	0.913	0.291	0.7748	0.012
Mof_H 	H 	0.8202	0.481	0.6876	-0.001
Mof_H 	H 	0.8694	0.4292	0.6796	0.065
Mof_H 	H 	0.8721	0.3741	0.7279	0.037
Mof_H 	H 	0.7752	0.4266	0.7886	0.014
Mof_H 	H 	0.7918	0.283	0.918	0.011
Mof_H 	H 	0.7399	0.3897	0.8747	0.037
Mof_H 	H 	0.6983	0.3885	0.9333	0.068
Mof_H 	H 	0.7036	0.3342	0.9814	0.001
Mof_H 	H 	0.761	0.2262	0.0712	0.001
Mof_H 	H 	0.7726	0.1748	0.1198	0.067
Mof_H 	H 	0.7741	0.1199	0.1241	0.038
Mof_H 	H 	0.7544	0.1724	0.029	0.012
Mof_H 	H 	0.5408	0.1858	0.4588	-0.001
Mof_H 	H 	0.559	0.1796	0.4038	0.066
Mof_H 	H 	0.5523	0.2317	0.3525	0.037
Mof_H 	H 	0.5212	0.291	0.413	0.012
Mof_H 	H 	0.5112	0.481	0.3202	-0.001
Mof_H 	H 	0.5218	0.4292	0.3694	0.065
Mof_H 	H 	0.5259	0.3741	0.3721	0.037
Mof_H 	H 	0.5096	0.4266	0.2752	0.014
Mof_H 	H 	0.5072	0.283	0.2918	0.011
Mof_H 	H 	0.4957	0.3897	0.2399	0.037
Mof_H 	H 	0.4799	0.3885	0.1983	0.068
Mof_H 	H 	0.4808	0.3342	0.2036	0.001
Mof_H 	H 	0.4416	0.2262	0.261	0.001
Mof_H 	H 	0.4328	0.1748	0.2726	0.067
Mof_H 	H 	0.4819	0.1199	0.2741	0.038
Mof_H 	H 	0.5442	0.1724	0.2544	0.012
Mof_H 	H 	0.3146	0.4588	0.1858	-0.001
Mof_H 	H 	0.3576	0.4038	0.1796	0.066
Mof_H 	H 	0.3635	0.3525	0.2317	0.037
Mof_H 	H 	0.2748	0.413	0.291	0.012
Mof_H 	H 	0.1876	0.3202	0.481	-0.001
Mof_H 	H 	0.1796	0.3694	0.4292	0.065
Mof_H 	H 	0.2279	0.3721	0.3741	0.037
Mof_H 	H 	0.2886	0.2752	0.4266	0.014
Mof_H 	H 	0.418	0.2918	0.283	0.011
Mof_H 	H 	0.3747	0.2399	0.3897	0.037
Mof_H 	H 	0.4333	0.1983	0.3885	0.068
Mof_H 	H 	0.4814	0.2036	0.3342	0.001
Mof_H 	H 	0.5712	0.261	0.2262	0.001
Mof_H 	H 	0.6198	0.2726	0.1748	0.067
Mof_H 	H 	0.6241	0.2741	0.1199	0.038
Mof_H 	H 	0.529	0.2544	0.1724	0.012
Mof_H 	H 	0.6858	0.0408	0.8146	-0.001
Mof_H 	H 	0.6796	0.059	0.8576	0.066
Mof_H 	H 	0.7317	0.0523	0.8635	0.037
Mof_H 	H 	0.791	0.0212	0.7748	0.012
Mof_H 	H 	0.981	0.0112	0.6876	-0.001
Mof_H 	H 	0.9292	0.0218	0.6796	0.065
Mof_H 	H 	0.8741	0.0259	0.7279	0.037
Mof_H 	H 	0.9266	0.0096	0.7886	0.014
Mof_H 	H 	0.783	0.0072	0.918	0.011
Mof_H 	H 	0.8897	0.9957	0.8747	0.037
Mof_H 	H 	0.8885	0.9799	0.9333	0.068
Mof_H 	H 	0.8342	0.9808	0.9814	0.001
Mof_H 	H 	0.7262	0.9416	0.0712	0.001
Mof_H 	H 	0.6748	0.9328	0.1198	0.067
Mof_H 	H 	0.6199	0.9819	0.1241	0.038
Mof_H 	H 	0.6724	0.0442	0.029	0.012
Mof_H 	H 	0.9588	0.8146	0.0408	-0
Mof_H 	H 	0.9038	0.8576	0.059	0.066
Mof_H 	H 	0.8525	0.8635	0.0523	0.037
Mof_H 	H 	0.913	0.7748	0.0212	0.012
Mof_H 	H 	0.8202	0.6876	0.0112	-0.001
Mof_H 	H 	0.8694	0.6796	0.0218	0.065
Mof_H 	H 	0.8721	0.7279	0.0259	0.037
Mof_H 	H 	0.7752	0.7886	0.0096	0.014
Mof_H 	H 	0.7918	0.918	0.0072	0.011
Mof_H 	H 	0.7399	0.8747	0.9957	0.037
Mof_H 	H 	0.6983	0.9333	0.9799	0.068
Mof_H 	H 	0.7036	0.9814	0.9808	0.001
Mof_H 	H 	0.761	0.0712	0.9416	0.001
Mof_H 	H 	0.7726	0.1198	0.9328	0.067
Mof_H 	H 	0.7741	0.1241	0.9819	0.038
Mof_H 	H 	0.7544	0.029	0.0442	0.012
Mof_H 	H 	0.5408	0.4588	0.8146	-0.001
Mof_H 	H 	0.559	0.4038	0.8576	0.066
Mof_H 	H 	0.5523	0.3525	0.8635	0.037
Mof_H 	H 	0.5212	0.413	0.7748	0.012
Mof_H 	H 	0.5112	0.3202	0.6876	-0.001
Mof_H 	H 	0.5218	0.3694	0.6796	0.065
Mof_H 	H 	0.5259	0.3721	0.7279	0.037
Mof_H 	H 	0.5096	0.2752	0.7886	0.014
Mof_H 	H 	0.5072	0.2918	0.918	0.011
Mof_H 	H 	0.4957	0.2399	0.8747	0.037
Mof_H 	H 	0.4799	0.1983	0.9333	0.068
Mof_H 	H 	0.4808	0.2036	0.9814	0.001
Mof_H 	H 	0.4416	0.261	0.0712	0.001
Mof_H 	H 	0.4328	0.2726	0.1198	0.067
Mof_H 	H 	0.4819	0.2741	0.1241	0.038
Mof_H 	H 	0.5442	0.2544	0.029	0.012
Mof_H 	H 	0.3146	0.1858	0.0408	-0
Mof_H 	H 	0.3576	0.1796	0.059	0.066
Mof_H 	H 	0.3635	0.2317	0.0523	0.037
Mof_H 	H 	0.2748	0.291	0.0212	0.012
Mof_H 	H 	0.1876	0.481	0.0112	-0.001
Mof_H 	H 	0.1796	0.4292	0.0218	0.065
Mof_H 	H 	0.2279	0.3741	0.0259	0.037
Mof_H 	H 	0.2886	0.4266	0.0096	0.014
Mof_H 	H 	0.418	0.283	0.0072	0.011
Mof_H 	H 	0.3747	0.3897	0.9957	0.037
Mof_H 	H 	0.4333	0.3885	0.9799	0.068
Mof_H 	H 	0.4814	0.3342	0.9808	0.001
Mof_H 	H 	0.5712	0.2262	0.9416	0.001
Mof_H 	H 	0.6198	0.1748	0.9328	0.067
Mof_H 	H 	0.6241	0.1199	0.9819	0.038
Mof_H 	H 	0.529	0.1724	0.0442	0.012
Mof_H 	H 	0.6858	0.8146	0.4588	-0.001
Mof_H 	H 	0.6796	0.8576	0.4038	0.066
Mof_H 	H 	0.7317	0.8635	0.3525	0.037
Mof_H 	H 	0.791	0.7748	0.413	0.012
Mof_H 	H 	0.981	0.6876	0.3202	-0.001
Mof_H 	H 	0.9292	0.6796	0.3694	0.065
Mof_H 	H 	0.8741	0.7279	0.3721	0.037
Mof_H 	H 	0.9266	0.7886	0.2752	0.014
Mof_H 	H 	0.783	0.918	0.2918	0.011
Mof_H 	H 	0.8897	0.8747	0.2399	0.037
Mof_H 	H 	0.8885	0.9333	0.1983	0.068
Mof_H 	H 	0.8342	0.9814	0.2036	0.001
Mof_H 	H 	0.7262	0.0712	0.261	0.001
Mof_H 	H 	0.6748	0.1198	0.2726	0.067
Mof_H 	H 	0.6199	0.1241	0.2741	0.038
Mof_H 	H 	0.6724	0.029	0.2544	0.012
Mof_H 	H 	0.9588	0.0408	0.1858	-0
Mof_H 	H 	0.9038	0.059	0.1796	0.066
Mof_H 	H 	0.8525	0.0523	0.2317	0.037
Mof_H 	H 	0.913	0.0212	0.291	0.012
Mof_H 	H 	0.8202	0.0112	0.481	-0.001
Mof_H 	H 	0.8694	0.0218	0.4292	0.065
Mof_H 	H 	0.8721	0.0259	0.3741	0.037
Mof_H 	H 	0.7752	0.0096	0.4266	0.014
Mof_H 	H 	0.7918	0.0072	0.283	0.011
Mof_H 	H 	0.7399	0.9957	0.3897	0.037
Mof_H 	H 	0.6983	0.9799	0.3885	0.068
Mof_H 	H 	0.7036	0.9808	0.3342	0.001
Mof_H 	H 	0.761	0.9416	0.2262	0.001
Mof_H 	H 	0.7726	0.9328	0.1748	0.067
Mof_H 	H 	0.7741	0.9819	0.1199	0.038
Mof_H 	H 	0.7544	0.0442	0.1724	0.012
Mof_H 	H 	0.1854	0.4592	0.3142	-0.001
Mof_H 	H 	0.1424	0.441	0.3204	0.066
Mof_H 	H 	0.1365	0.4477	0.2683	0.037
Mof_H 	H 	0.2252	0.4788	0.209	0.012
Mof_H 	H 	0.3124	0.4888	0.019	-0.001
Mof_H 	H 	0.3204	0.4782	0.0708	0.065
Mof_H 	H 	0.2721	0.4741	0.1259	0.037
Mof_H 	H 	0.2114	0.4904	0.0734	0.014
Mof_H 	H 	0.082	0.4928	0.217	0.011
Mof_H 	H 	0.1253	0.5043	0.1103	0.037
Mof_H 	H 	0.0667	0.5201	0.1115	0.068
Mof_H 	H 	0.0186	0.5192	0.1658	0.001
Mof_H 	H 	0.9288	0.5584	0.2738	0.001
Mof_H 	H 	0.8802	0.5672	0.3252	0.067
Mof_H 	H 	0.8759	0.5181	0.3801	0.038
Mof_H 	H 	0.971	0.4558	0.3276	0.012
Mof_H 	H 	0.9592	0.6854	0.0412	-0
Mof_H 	H 	0.941	0.6424	0.0962	0.066
Mof_H 	H 	0.9477	0.6365	0.1475	0.037
Mof_H 	H 	0.9788	0.7252	0.087	0.012
Mof_H 	H 	0.9888	0.8124	0.1798	-0.001
Mof_H 	H 	0.9782	0.8204	0.1306	0.065
Mof_H 	H 	0.9741	0.7721	0.1279	0.037
Mof_H 	H 	0.9904	0.7114	0.2248	0.014
Mof_H 	H 	0.9928	0.582	0.2082	0.011
Mof_H 	H 	0.0043	0.6253	0.2601	0.037
Mof_H 	H 	0.0201	0.5667	0.3017	0.068
Mof_H 	H 	0.0192	0.5186	0.2964	0.001
Mof_H 	H 	0.0584	0.4288	0.239	0.001
Mof_H 	H 	0.0672	0.3802	0.2274	0.067
Mof_H 	H 	0.0181	0.3759	0.2259	0.038
Mof_H 	H 	0.9558	0.471	0.2456	0.012
Mof_H 	H 	0.5412	0.3142	0.4592	-0.001
Mof_H 	H 	0.5962	0.3204	0.441	0.066
Mof_H 	H 	0.6475	0.2683	0.4477	0.037
Mof_H 	H 	0.587	0.209	0.4788	0.012
Mof_H 	H 	0.6798	0.019	0.4888	-0.001
Mof_H 	H 	0.6306	0.0708	0.4782	0.065
Mof_H 	H 	0.6279	0.1259	0.4741	0.037
Mof_H 	H 	0.7248	0.0734	0.4904	0.014
Mof_H 	H 	0.7082	0.217	0.4928	0.011
Mof_H 	H 	0.7601	0.1103	0.5043	0.037
Mof_H 	H 	0.8017	0.1115	0.5201	0.068
Mof_H 	H 	0.7964	0.1658	0.5192	0.001
Mof_H 	H 	0.739	0.2738	0.5584	0.001
Mof_H 	H 	0.7274	0.3252	0.5672	0.067
Mof_H 	H 	0.7259	0.3801	0.5181	0.038
Mof_H 	H 	0.7456	0.3276	0.4558	0.012
Mof_H 	H 	0.8142	0.0412	0.6854	-0
Mof_H 	H 	0.8204	0.0962	0.6424	0.066
Mof_H 	H 	0.7683	0.1475	0.6365	0.037
Mof_H 	H 	0.709	0.087	0.7252	0.012
Mof_H 	H 	0.519	0.1798	0.8124	-0.001
Mof_H 	H 	0.5708	0.1306	0.8204	0.065
Mof_H 	H 	0.6259	0.1279	0.7721	0.037
Mof_H 	H 	0.5734	0.2248	0.7114	0.014
Mof_H 	H 	0.717	0.2082	0.582	0.011
Mof_H 	H 	0.6103	0.2601	0.6253	0.037
Mof_H 	H 	0.6115	0.3017	0.5667	0.068
Mof_H 	H 	0.6658	0.2964	0.5186	0.001
Mof_H 	H 	0.7738	0.239	0.4288	0.001
Mof_H 	H 	0.8252	0.2274	0.3802	0.067
Mof_H 	H 	0.8801	0.2259	0.3759	0.038
Mof_H 	H 	0.8276	0.2456	0.471	0.012
Mof_H 	H 	0.8142	0.4592	0.0412	-0
Mof_H 	H 	0.8204	0.441	0.0962	0.066
Mof_H 	H 	0.7683	0.4477	0.1475	0.037
Mof_H 	H 	0.709	0.4788	0.087	0.012
Mof_H 	H 	0.519	0.4888	0.1798	-0.001
Mof_H 	H 	0.5708	0.4782	0.1306	0.065
Mof_H 	H 	0.6259	0.4741	0.1279	0.037
Mof_H 	H 	0.5734	0.4904	0.2248	0.014
Mof_H 	H 	0.717	0.4928	0.2082	0.011
Mof_H 	H 	0.6103	0.5043	0.2601	0.037
Mof_H 	H 	0.6115	0.5201	0.3017	0.068
Mof_H 	H 	0.6658	0.5192	0.2964	0.001
Mof_H 	H 	0.7738	0.5584	0.239	0.001
Mof_H 	H 	0.8252	0.5672	0.2274	0.067
Mof_H 	H 	0.8801	0.5181	0.2259	0.038
Mof_H 	H 	0.8276	0.4558	0.2456	0.012
Mof_H 	H 	0.5412	0.6854	0.3142	-0.001
Mof_H 	H 	0.5962	0.6424	0.3204	0.066
Mof_H 	H 	0.6475	0.6365	0.2683	0.037
Mof_H 	H 	0.587	0.7252	0.209	0.012
Mof_H 	H 	0.6798	0.8124	0.019	-0.001
Mof_H 	H 	0.6306	0.8204	0.0708	0.065
Mof_H 	H 	0.6279	0.7721	0.1259	0.037
Mof_H 	H 	0.7248	0.7114	0.0734	0.014
Mof_H 	H 	0.7082	0.582	0.217	0.011
Mof_H 	H 	0.7601	0.6253	0.1103	0.037
Mof_H 	H 	0.8017	0.5667	0.1115	0.068
Mof_H 	H 	0.7964	0.5186	0.1658	0.001
Mof_H 	H 	0.739	0.4288	0.2738	0.001
Mof_H 	H 	0.7274	0.3802	0.3252	0.067
Mof_H 	H 	0.7259	0.3759	0.3801	0.038
Mof_H 	H 	0.7456	0.471	0.3276	0.012
Mof_H 	H 	0.9592	0.3142	0.6854	-0.001
Mof_H 	H 	0.941	0.3204	0.6424	0.066
Mof_H 	H 	0.9477	0.2683	0.6365	0.037
Mof_H 	H 	0.9788	0.209	0.7252	0.012
Mof_H 	H 	0.9888	0.019	0.8124	-0.001
Mof_H 	H 	0.9782	0.0708	0.8204	0.065
Mof_H 	H 	0.9741	0.1259	0.7721	0.037
Mof_H 	H 	0.9904	0.0734	0.7114	0.014
Mof_H 	H 	0.9928	0.217	0.582	0.011
Mof_H 	H 	0.0043	0.1103	0.6253	0.037
Mof_H 	H 	0.0201	0.1115	0.5667	0.068
Mof_H 	H 	0.0192	0.1658	0.5186	0.001
Mof_H 	H 	0.0584	0.2738	0.4288	0.001
Mof_H 	H 	0.0672	0.3252	0.3802	0.067
Mof_H 	H 	0.0181	0.3801	0.3759	0.038
Mof_H 	H 	0.9558	0.3276	0.471	0.012
Mof_H 	H 	0.1854	0.0412	0.4592	-0
Mof_H 	H 	0.1424	0.0962	0.441	0.066
Mof_H 	H 	0.1365	0.1475	0.4477	0.037
Mof_H 	H 	0.2252	0.087	0.4788	0.012
Mof_H 	H 	0.3124	0.1798	0.4888	-0.001
Mof_H 	H 	0.3204	0.1306	0.4782	0.065
Mof_H 	H 	0.2721	0.1279	0.4741	0.037
Mof_H 	H 	0.2114	0.2248	0.4904	0.014
Mof_H 	H 	0.082	0.2082	0.4928	0.011
Mof_H 	H 	0.1253	0.2601	0.5043	0.037
Mof_H 	H 	0.0667	0.3017	0.5201	0.068
Mof_H 	H 	0.0186	0.2964	0.5192	0.001
Mof_H 	H 	0.9288	0.239	0.5584	0.001
Mof_H 	H 	0.8802	0.2274	0.5672	0.067
Mof_H 	H 	0.8759	0.2259	0.5181	0.038
Mof_H 	H 	0.971	0.2456	0.4558	0.012
Mof_H 	H 	0.5412	0.4592	0.6854	-0.001
Mof_H 	H 	0.5962	0.441	0.6424	0.066
Mof_H 	H 	0.6475	0.4477	0.6365	0.037
Mof_H 	H 	0.587	0.4788	0.7252	0.012
Mof_H 	H 	0.6798	0.4888	0.8124	-0.001
Mof_H 	H 	0.6306	0.4782	0.8204	0.065
Mof_H 	H 	0.6279	0.4741	0.7721	0.037
Mof_H 	H 	0.7248	0.4904	0.7114	0.014
Mof_H 	H 	0.7082	0.4928	0.582	0.011
Mof_H 	H 	0.7601	0.5043	0.6253	0.037
Mof_H 	H 	0.8017	0.5201	0.5667	0.068
Mof_H 	H 	0.7964	0.5192	0.5186	0.001
Mof_H 	H 	0.739	0.5584	0.4288	0.001
Mof_H 	H 	0.7274	0.5672	0.3802	0.067
Mof_H 	H 	0.7259	0.5181	0.3759	0.038
Mof_H 	H 	0.7456	0.4558	0.471	0.012
Mof_H 	H 	0.8142	0.6854	0.4592	-0.001
Mof_H 	H 	0.8204	0.6424	0.441	0.066
Mof_H 	H 	0.7683	0.6365	0.4477	0.037
Mof_H 	H 	0.709	0.7252	0.4788	0.012
Mof_H 	H 	0.519	0.8124	0.4888	-0.001
Mof_H 	H 	0.5708	0.8204	0.4782	0.065
Mof_H 	H 	0.6259	0.7721	0.4741	0.037
Mof_H 	H 	0.5734	0.7114	0.4904	0.014
Mof_H 	H 	0.717	0.582	0.4928	0.011
Mof_H 	H 	0.6103	0.6253	0.5043	0.037
Mof_H 	H 	0.6115	0.5667	0.5201	0.068
Mof_H 	H 	0.6658	0.5186	0.5192	0.001
Mof_H 	H 	0.7738	0.4288	0.5584	0.001
Mof_H 	H 	0.8252	0.3802	0.5672	0.067
Mof_H 	H 	0.8801	0.3759	0.5181	0.038
Mof_H 	H 	0.8276	0.471	0.4558	0.012
Mof_H 	H 	0.1854	0.3142	0.0412	-0
Mof_H 	H 	0.1424	0.3204	0.0962	0.066
Mof_H 	H 	0.1365	0.2683	0.1475	0.037
Mof_H 	H 	0.2252	0.209	0.087	0.012
Mof_H 	H 	0.3124	0.019	0.1798	-0.001
Mof_H 	H 	0.3204	0.0708	0.1306	0.065
Mof_H 	H 	0.2721	0.1259	0.1279	0.037
Mof_H 	H 	0.2114	0.0734	0.2248	0.014
Mof_H 	H 	0.082	0.217	0.2082	0.011
Mof_H 	H 	0.1253	0.1103	0.2601	0.037
Mof_H 	H 	0.0667	0.1115	0.3017	0.068
Mof_H 	H 	0.0186	0.1658	0.2964	0.001
Mof_H 	H 	0.9288	0.2738	0.239	0.001
Mof_H 	H 	0.8802	0.3252	0.2274	0.067
Mof_H 	H 	0.8759	0.3801	0.2259	0.038
Mof_H 	H 	0.971	0.3276	0.2456	0.012
Mof_H 	H 	0.9592	0.0412	0.3142	-0
Mof_H 	H 	0.941	0.0962	0.3204	0.066
Mof_H 	H 	0.9477	0.1475	0.2683	0.037
Mof_H 	H 	0.9788	0.087	0.209	0.012
Mof_H 	H 	0.9888	0.1798	0.019	-0.001
Mof_H 	H 	0.9782	0.1306	0.0708	0.065
Mof_H 	H 	0.9741	0.1279	0.1259	0.037
Mof_H 	H 	0.9904	0.2248	0.0734	0.014
Mof_H 	H 	0.9928	0.2082	0.217	0.011
Mof_H 	H 	0.0043	0.2601	0.1103	0.037
Mof_H 	H 	0.0201	0.3017	0.1115	0.068
Mof_H 	H 	0.0192	0.2964	0.1658	0.001
Mof_H 	H 	0.0584	0.239	0.2738	0.001
Mof_H 	H 	0.0672	0.2274	0.3252	0.067
Mof_H 	H 	0.0181	0.2259	0.3801	0.038
Mof_H 	H 	0.9558	0.2456	0.3276	0.012
Mof_C 	C 	0.54067	0.16339	0.52505	0.098
Mof_C 	C 	0.55307	0.94473	0.70453	0.104
Mof_C 	C 	0.4601	0.1847	0.79306	0.062
Mof_C 	C 	0.44997	0.15831	0.79695	-0.101
Mof_C 	C 	0.45309	0.15525	0.76651	0.01
Mof_C 	C 	0.46447	0.18053	0.73313	-0.05
Mof_C 	C 	0.4723	0.20724	0.7319	0.038
Mof_C 	C 	0.48713	0.29249	0.54121	0.06
Mof_C 	C 	0.4807	0.2976	0.5721	-0.099
Mof_C 	C 	0.47807	0.26945	0.60439	0.009
Mof_C 	C 	0.48128	0.23664	0.60504	-0.049
Mof_C 	C 	0.48789	0.23385	0.57293	0.037
Mof_C 	C 	0.47968	0.20476	0.63868	0.134
Mof_C 	C 	0.47087	0.17867	0.69863	0.136
Mof_C 	C 	0.48644	0.14504	0.66608	0.135
Mof_C 	C 	0.49803	0.07901	0.69519	0.043
Mof_C 	C 	0.49643	0.10959	0.66417	-0.053
Mof_C 	C 	0.50477	0.10515	0.63223	0.011
Mof_C 	C 	0.51388	0.07064	0.63302	-0.101
Mof_C 	C 	0.51381	0.04205	0.66539	0.062
Mof_C 	C 	0.53855	0.92749	0.79591	0.057
Mof_C 	C 	0.54393	0.89835	0.82637	-0.098
Mof_C 	C 	0.51516	0.89574	0.85864	0.008
Mof_C 	C 	0.48147	0.92321	0.85885	-0.052
Mof_C 	C 	0.4785	0.95202	0.82716	0.04
Mof_C 	C 	0.4498	0.9223	0.89242	0.137
Mof_C 	C 	0.66339	0.04067	0.77089	0.098
Mof_C 	C 	0.44473	0.05307	0.79767	0.104
Mof_C 	C 	0.6847	0.9601	0.56214	0.062
Mof_C 	C 	0.65831	0.94997	0.59477	-0.101
Mof_C 	C 	0.65525	0.95309	0.62515	0.01
Mof_C 	C 	0.68053	0.96447	0.62187	-0.05
Mof_C 	C 	0.70724	0.9723	0.58856	0.038
Mof_C 	C 	0.79249	0.98713	0.67917	0.06
Mof_C 	C 	0.7976	0.9807	0.6496	-0.099
Mof_C 	C 	0.76945	0.97807	0.64809	0.009
Mof_C 	C 	0.73664	0.98128	0.67704	-0.049
Mof_C 	C 	0.73385	0.98789	0.70533	0.037
Mof_C 	C 	0.70476	0.97968	0.67688	0.134
Mof_C 	C 	0.67867	0.97087	0.65183	0.136
Mof_C 	C 	0.64504	0.98644	0.70244	0.135
Mof_C 	C 	0.57901	0.99803	0.72777	0.043
Mof_C 	C 	0.60959	0.99643	0.72981	-0.053
Mof_C 	C 	0.60515	0.00477	0.75785	0.011
Mof_C 	C 	0.57064	0.01388	0.78246	-0.101
Mof_C 	C 	0.54205	0.01381	0.77875	0.062
Mof_C 	C 	0.42749	0.03855	0.73805	0.057
Mof_C 	C 	0.39835	0.04393	0.73135	-0.098
Mof_C 	C 	0.39574	0.01516	0.73046	0.008
Mof_C 	C 	0.42321	0.98147	0.73647	-0.052
Mof_C 	C 	0.45202	0.9785	0.74232	0.041
Mof_C 	C 	0.4223	0.9498	0.73548	0.137
Mof_C 	C 	0.02505	0.77089	0.04067	0.098
Mof_C 	C 	0.20453	0.79767	0.05307	0.104
Mof_C 	C 	0.29306	0.56214	0.9601	0.062
Mof_C 	C 	0.29695	0.59477	0.94997	-0.101
Mof_C 	C 	0.26651	0.62515	0.95309	0.01
Mof_C 	C 	0.23313	0.62187	0.96447	-0.05
Mof_C 	C 	0.2319	0.58856	0.9723	0.038
Mof_C 	C 	0.04121	0.67917	0.98713	0.06
Mof_C 	C 	0.0721	0.6496	0.9807	-0.099
Mof_C 	C 	0.10439	0.64809	0.97807	0.009
Mof_C 	C 	0.10504	0.67704	0.98128	-0.049
Mof_C 	C 	0.07293	0.70533	0.98789	0.037
Mof_C 	C 	0.13868	0.67688	0.97968	0.134
Mof_C 	C 	0.19863	0.65183	0.97087	0.136
Mof_C 	C 	0.16608	0.70244	0.98644	0.135
Mof_C 	C 	0.19519	0.72777	0.99803	0.043
Mof_C 	C 	0.16417	0.72981	0.99643	-0.053
Mof_C 	C 	0.13223	0.75785	0.00477	0.011
Mof_C 	C 	0.13302	0.78246	0.01388	-0.101
Mof_C 	C 	0.16539	0.77875	0.01381	0.062
Mof_C 	C 	0.29591	0.73805	0.03855	0.057
Mof_C 	C 	0.32637	0.73135	0.04393	-0.098
Mof_C 	C 	0.35864	0.73046	0.01516	0.008
Mof_C 	C 	0.35885	0.73647	0.98147	-0.052
Mof_C 	C 	0.32716	0.74232	0.9785	0.041
Mof_C 	C 	0.39242	0.73548	0.9498	0.137
Mof_C 	C 	0.27089	0.52505	0.16339	0.098
Mof_C 	C 	0.29767	0.70453	0.94473	0.104
Mof_C 	C 	0.06214	0.79306	0.1847	0.062
Mof_C 	C 	0.09477	0.79695	0.15831	-0.101
Mof_C 	C 	0.12515	0.76651	0.15525	0.01
Mof_C 	C 	0.12187	0.73313	0.18053	-0.05
Mof_C 	C 	0.08856	0.7319	0.20724	0.038
Mof_C 	C 	0.17917	0.54121	0.29249	0.06
Mof_C 	C 	0.1496	0.5721	0.2976	-0.099
Mof_C 	C 	0.14809	0.60439	0.26945	0.009
Mof_C 	C 	0.17704	0.60504	0.23664	-0.049
Mof_C 	C 	0.20533	0.57293	0.23385	0.037
Mof_C 	C 	0.17688	0.63868	0.20476	0.134
Mof_C 	C 	0.15183	0.69863	0.17867	0.136
Mof_C 	C 	0.20244	0.66608	0.14504	0.135
Mof_C 	C 	0.22777	0.69519	0.07901	0.043
Mof_C 	C 	0.22981	0.66417	0.10959	-0.053
Mof_C 	C 	0.25785	0.63223	0.10515	0.011
Mof_C 	C 	0.28246	0.63302	0.07064	-0.101
Mof_C 	C 	0.27875	0.66539	0.04205	0.062
Mof_C 	C 	0.23805	0.79591	0.92749	0.057
Mof_C 	C 	0.23135	0.82637	0.89835	-0.098
Mof_C 	C 	0.23046	0.85864	0.89574	0.008
Mof_C 	C 	0.23647	0.85885	0.92321	-0.052
Mof_C 	C 	0.24232	0.82716	0.95202	0.04
Mof_C 	C 	0.23548	0.89242	0.9223	0.137
Mof_C 	C 	0.54067	0.52505	0.77089	0.098
Mof_C 	C 	0.55307	0.70453	0.79767	0.104
Mof_C 	C 	0.4601	0.79306	0.56214	0.062
Mof_C 	C 	0.44997	0.79695	0.59477	-0.101
Mof_C 	C 	0.45309	0.76651	0.62515	0.01
Mof_C 	C 	0.46447	0.73313	0.62187	-0.05
Mof_C 	C 	0.4723	0.7319	0.58856	0.038
Mof_C 	C 	0.48713	0.54121	0.67917	0.06
Mof_C 	C 	0.4807	0.5721	0.6496	-0.099
Mof_C 	C 	0.47807	0.60439	0.64809	0.009
Mof_C 	C 	0.48128	0.60504	0.67704	-0.049
Mof_C 	C 	0.48789	0.57293	0.70533	0.037
Mof_C 	C 	0.47968	0.63868	0.67688	0.134
Mof_C 	C 	0.47087	0.69863	0.65183	0.136
Mof_C 	C 	0.48644	0.66608	0.70244	0.135
Mof_C 	C 	0.49803	0.69519	0.72777	0.043
Mof_C 	C 	0.49643	0.66417	0.72981	-0.053
Mof_C 	C 	0.50477	0.63223	0.75785	0.011
Mof_C 	C 	0.51388	0.63302	0.78246	-0.101
Mof_C 	C 	0.51381	0.66539	0.77875	0.062
Mof_C 	C 	0.53855	0.79591	0.73805	0.057
Mof_C 	C 	0.54393	0.82637	0.73135	-0.098
Mof_C 	C 	0.51516	0.85864	0.73046	0.008
Mof_C 	C 	0.48147	0.85885	0.73647	-0.052
Mof_C 	C 	0.4785	0.82716	0.74232	0.04
Mof_C 	C 	0.4498	0.89242	0.73548	0.137
Mof_C 	C 	0.66339	0.77089	0.52505	0.098
Mof_C 	C 	0.44473	0.79767	0.70453	0.104
Mof_C 	C 	0.6847	0.56214	0.79306	0.062
Mof_C 	C 	0.65831	0.59477	0.79695	-0.101
Mof_C 	C 	0.65525	0.62515	0.76651	0.01
Mof_C 	C 	0.68053	0.62187	0.73313	-0.05
Mof_C 	C 	0.70724	0.58856	0.7319	0.038
Mof_C 	C 	0.79249	0.67917	0.54121	0.06
Mof_C 	C 	0.7976	0.6496	0.5721	-0.099
Mof_C 	C 	0.76945	0.64809	0.60439	0.009
Mof_C 	C 	0.73664	0.67704	0.60504	-0.049
Mof_C 	C 	0.73385	0.70533	0.57293	0.037
Mof_C 	C 	0.70476	0.67688	0.63868	0.134
Mof_C 	C 	0.67867	0.65183	0.69863	0.136
Mof_C 	C 	0.64504	0.70244	0.66608	0.135
Mof_C 	C 	0.57901	0.72777	0.69519	0.043
Mof_C 	C 	0.60959	0.72981	0.66417	-0.053
Mof_C 	C 	0.60515	0.75785	0.63223	0.011
Mof_C 	C 	0.57064	0.78246	0.63302	-0.101
Mof_C 	C 	0.54205	0.77875	0.66539	0.062
Mof_C 	C 	0.42749	0.73805	0.79591	0.057
Mof_C 	C 	0.39835	0.73135	0.82637	-0.098
Mof_C 	C 	0.39574	0.73046	0.85864	0.008
Mof_C 	C 	0.42321	0.73647	0.85885	-0.052
Mof_C 	C 	0.45202	0.74232	0.82716	0.04
Mof_C 	C 	0.4223	0.73548	0.89242	0.137
Mof_C 	C 	0.02505	0.04067	0.16339	0.098
Mof_C 	C 	0.20453	0.05307	0.94473	0.104
Mof_C 	C 	0.29306	0.9601	0.1847	0.062
Mof_C 	C 	0.29695	0.94997	0.15831	-0.101
Mof_C 	C 	0.26651	0.95309	0.15525	0.01
Mof_C 	C 	0.23313	0.96447	0.18053	-0.05
Mof_C 	C 	0.2319	0.9723	0.20724	0.038
Mof_C 	C 	0.04121	0.98713	0.29249	0.06
Mof_C 	C 	0.0721	0.9807	0.2976	-0.099
Mof_C 	C 	0.10439	0.97807	0.26945	0.009
Mof_C 	C 	0.10504	0.98128	0.23664	-0.049
Mof_C 	C 	0.07293	0.98789	0.23385	0.037
Mof_C 	C 	0.13868	0.97968	0.20476	0.134
Mof_C 	C 	0.19863	0.97087	0.17867	0.136
Mof_C 	C 	0.16608	0.98644	0.14504	0.135
Mof_C 	C 	0.19519	0.99803	0.07901	0.043
Mof_C 	C 	0.16417	0.99643	0.10959	-0.053
Mof_C 	C 	0.13223	0.00477	0.10515	0.012
Mof_C 	C 	0.13302	0.01388	0.07064	-0.101
Mof_C 	C 	0.16539	0.01381	0.04205	0.062
Mof_C 	C 	0.29591	0.03855	0.92749	0.057
Mof_C 	C 	0.32637	0.04393	0.89835	-0.098
Mof_C 	C 	0.35864	0.01516	0.89574	0.008
Mof_C 	C 	0.35885	0.98147	0.92321	-0.052
Mof_C 	C 	0.32716	0.9785	0.95202	0.041
Mof_C 	C 	0.39242	0.9498	0.9223	0.137
Mof_C 	C 	0.27089	0.16339	0.04067	0.098
Mof_C 	C 	0.29767	0.94473	0.05307	0.104
Mof_C 	C 	0.06214	0.1847	0.9601	0.062
Mof_C 	C 	0.09477	0.15831	0.94997	-0.101
Mof_C 	C 	0.12515	0.15525	0.95309	0.01
Mof_C 	C 	0.12187	0.18053	0.96447	-0.05
Mof_C 	C 	0.08856	0.20724	0.9723	0.038
Mof_C 	C 	0.17917	0.29249	0.98713	0.06
Mof_C 	C 	0.1496	0.2976	0.9807	-0.099
Mof_C 	C 	0.14809	0.26945	0.97807	0.009
Mof_C 	C 	0.17704	0.23664	0.98128	-0.049
Mof_C 	C 	0.20533	0.23385	0.98789	0.037
Mof_C 	C 	0.17688	0.20476	0.97968	0.134
Mof_C 	C 	0.15183	0.17867	0.97087	0.136
Mof_C 	C 	0.20244	0.14504	0.98644	0.135
Mof_C 	C 	0.22777	0.07901	0.99803	0.043
Mof_C 	C 	0.22981	0.10959	0.99643	-0.053
Mof_C 	C 	0.25785	0.10515	0.00477	0.012
Mof_C 	C 	0.28246	0.07064	0.01388	-0.101
Mof_C 	C 	0.27875	0.04205	0.01381	0.062
Mof_C 	C 	0.23805	0.92749	0.03855	0.057
Mof_C 	C 	0.23135	0.89835	0.04393	-0.098
Mof_C 	C 	0.23046	0.89574	0.01516	0.008
Mof_C 	C 	0.23647	0.92321	0.98147	-0.052
Mof_C 	C 	0.24232	0.95202	0.9785	0.041
Mof_C 	C 	0.23548	0.9223	0.9498	0.137
Mof_C 	C 	0.54067	0.77089	0.16339	0.098
Mof_C 	C 	0.55307	0.79767	0.94473	0.104
Mof_C 	C 	0.4601	0.56214	0.1847	0.062
Mof_C 	C 	0.44997	0.59477	0.15831	-0.101
Mof_C 	C 	0.45309	0.62515	0.15525	0.01
Mof_C 	C 	0.46447	0.62187	0.18053	-0.05
Mof_C 	C 	0.4723	0.58856	0.20724	0.038
Mof_C 	C 	0.48713	0.67917	0.29249	0.06
Mof_C 	C 	0.4807	0.6496	0.2976	-0.099
Mof_C 	C 	0.47807	0.64809	0.26945	0.009
Mof_C 	C 	0.48128	0.67704	0.23664	-0.049
Mof_C 	C 	0.48789	0.70533	0.23385	0.037
Mof_C 	C 	0.47968	0.67688	0.20476	0.134
Mof_C 	C 	0.47087	0.65183	0.17867	0.136
Mof_C 	C 	0.48644	0.70244	0.14504	0.135
Mof_C 	C 	0.49803	0.72777	0.07901	0.043
Mof_C 	C 	0.49643	0.72981	0.10959	-0.053
Mof_C 	C 	0.50477	0.75785	0.10515	0.011
Mof_C 	C 	0.51388	0.78246	0.07064	-0.101
Mof_C 	C 	0.51381	0.77875	0.04205	0.062
Mof_C 	C 	0.53855	0.73805	0.92749	0.057
Mof_C 	C 	0.54393	0.73135	0.89835	-0.098
Mof_C 	C 	0.51516	0.73046	0.89574	0.008
Mof_C 	C 	0.48147	0.73647	0.92321	-0.052
Mof_C 	C 	0.4785	0.74232	0.95202	0.04
Mof_C 	C 	0.4498	0.73548	0.9223	0.137
Mof_C 	C 	0.66339	0.52505	0.04067	0.098
Mof_C 	C 	0.44473	0.70453	0.05307	0.104
Mof_C 	C 	0.6847	0.79306	0.9601	0.062
Mof_C 	C 	0.65831	0.79695	0.94997	-0.101
Mof_C 	C 	0.65525	0.76651	0.95309	0.01
Mof_C 	C 	0.68053	0.73313	0.96447	-0.05
Mof_C 	C 	0.70724	0.7319	0.9723	0.038
Mof_C 	C 	0.79249	0.54121	0.98713	0.06
Mof_C 	C 	0.7976	0.5721	0.9807	-0.099
Mof_C 	C 	0.76945	0.60439	0.97807	0.009
Mof_C 	C 	0.73664	0.60504	0.98128	-0.049
Mof_C 	C 	0.73385	0.57293	0.98789	0.037
Mof_C 	C 	0.70476	0.63868	0.97968	0.134
Mof_C 	C 	0.67867	0.69863	0.97087	0.136
Mof_C 	C 	0.64504	0.66608	0.98644	0.135
Mof_C 	C 	0.57901	0.69519	0.99803	0.043
Mof_C 	C 	0.60959	0.66417	0.99643	-0.053
Mof_C 	C 	0.60515	0.63223	0.00477	0.011
Mof_C 	C 	0.57064	0.63302	0.01388	-0.101
Mof_C 	C 	0.54205	0.66539	0.01381	0.062
Mof_C 	C 	0.42749	0.79591	0.03855	0.057
Mof_C 	C 	0.39835	0.82637	0.04393	-0.098
Mof_C 	C 	0.39574	0.85864	0.01516	0.008
Mof_C 	C 	0.42321	0.85885	0.98147	-0.052
Mof_C 	C 	0.45202	0.82716	0.9785	0.041
Mof_C 	C 	0.4223	0.89242	0.9498	0.137
Mof_C 	C 	0.02505	0.16339	0.77089	0.098
Mof_C 	C 	0.20453	0.94473	0.79767	0.104
Mof_C 	C 	0.29306	0.1847	0.56214	0.062
Mof_C 	C 	0.29695	0.15831	0.59477	-0.101
Mof_C 	C 	0.26651	0.15525	0.62515	0.01
Mof_C 	C 	0.23313	0.18053	0.62187	-0.05
Mof_C 	C 	0.2319	0.20724	0.58856	0.038
Mof_C 	C 	0.04121	0.29249	0.67917	0.06
Mof_C 	C 	0.0721	0.2976	0.6496	-0.099
Mof_C 	C 	0.10439	0.26945	0.64809	0.009
Mof_C 	C 	0.10504	0.23664	0.67704	-0.049
Mof_C 	C 	0.07293	0.23385	0.70533	0.037
Mof_C 	C 	0.13868	0.20476	0.67688	0.134
Mof_C 	C 	0.19863	0.17867	0.65183	0.136
Mof_C 	C 	0.16608	0.14504	0.70244	0.135
Mof_C 	C 	0.19519	0.07901	0.72777	0.043
Mof_C 	C 	0.16417	0.10959	0.72981	-0.053
Mof_C 	C 	0.13223	0.10515	0.75785	0.011
Mof_C 	C 	0.13302	0.07064	0.78246	-0.101
Mof_C 	C 	0.16539	0.04205	0.77875	0.062
Mof_C 	C 	0.29591	0.92749	0.73805	0.057
Mof_C 	C 	0.32637	0.89835	0.73135	-0.098
Mof_C 	C 	0.35864	0.89574	0.73046	0.008
Mof_C 	C 	0.35885	0.92321	0.73647	-0.052
Mof_C 	C 	0.32716	0.95202	0.74232	0.04
Mof_C 	C 	0.39242	0.9223	0.73548	0.137
Mof_C 	C 	0.27089	0.04067	0.52505	0.098
Mof_C 	C 	0.29767	0.05307	0.70453	0.104
Mof_C 	C 	0.06214	0.9601	0.79306	0.062
Mof_C 	C 	0.09477	0.94997	0.79695	-0.101
Mof_C 	C 	0.12515	0.95309	0.76651	0.01
Mof_C 	C 	0.12187	0.96447	0.73313	-0.05
Mof_C 	C 	0.08856	0.9723	0.7319	0.038
Mof_C 	C 	0.17917	0.98713	0.54121	0.06
Mof_C 	C 	0.1496	0.9807	0.5721	-0.099
Mof_C 	C 	0.14809	0.97807	0.60439	0.009
Mof_C 	C 	0.17704	0.98128	0.60504	-0.049
Mof_C 	C 	0.20533	0.98789	0.57293	0.037
Mof_C 	C 	0.17688	0.97968	0.63868	0.134
Mof_C 	C 	0.15183	0.97087	0.69863	0.136
Mof_C 	C 	0.20244	0.98644	0.66608	0.135
Mof_C 	C 	0.22777	0.99803	0.69519	0.043
Mof_C 	C 	0.22981	0.99643	0.66417	-0.053
Mof_C 	C 	0.25785	0.00477	0.63223	0.011
Mof_C 	C 	0.28246	0.01388	0.63302	-0.101
Mof_C 	C 	0.27875	0.01381	0.66539	0.062
Mof_C 	C 	0.23805	0.03855	0.79591	0.057
Mof_C 	C 	0.23135	0.04393	0.82637	-0.098
Mof_C 	C 	0.23046	0.01516	0.85864	0.008
Mof_C 	C 	0.23647	0.98147	0.85885	-0.052
Mof_C 	C 	0.24232	0.9785	0.82716	0.041
Mof_C 	C 	0.23548	0.9498	0.89242	0.137
Mof_C 	C 	0.83661	0.45933	0.97495	0.098
Mof_C 	C 	0.05527	0.44693	0.79547	0.104
Mof_C 	C 	0.8153	0.5399	0.70694	0.062
Mof_C 	C 	0.84169	0.55003	0.70305	-0.101
Mof_C 	C 	0.84475	0.54691	0.73349	0.01
Mof_C 	C 	0.81947	0.53553	0.76687	-0.05
Mof_C 	C 	0.79276	0.5277	0.7681	0.038
Mof_C 	C 	0.70751	0.51287	0.95879	0.06
Mof_C 	C 	0.7024	0.5193	0.9279	-0.099
Mof_C 	C 	0.73055	0.52193	0.89561	0.009
Mof_C 	C 	0.76336	0.51872	0.89496	-0.049
Mof_C 	C 	0.76615	0.51211	0.92707	0.037
Mof_C 	C 	0.79524	0.52032	0.86132	0.134
Mof_C 	C 	0.82133	0.52913	0.80137	0.136
Mof_C 	C 	0.85496	0.51356	0.83392	0.135
Mof_C 	C 	0.92099	0.50197	0.80481	0.043
Mof_C 	C 	0.89041	0.50357	0.83583	-0.053
Mof_C 	C 	0.89485	0.49523	0.86777	0.011
Mof_C 	C 	0.92936	0.48612	0.86698	-0.101
Mof_C 	C 	0.95795	0.48619	0.83461	0.062
Mof_C 	C 	0.07251	0.46145	0.70409	0.057
Mof_C 	C 	0.10165	0.45607	0.67363	-0.098
Mof_C 	C 	0.10426	0.48484	0.64136	0.008
Mof_C 	C 	0.07679	0.51853	0.64115	-0.052
Mof_C 	C 	0.04798	0.5215	0.67284	0.04
Mof_C 	C 	0.0777	0.5502	0.60758	0.137
Mof_C 	C 	0.95933	0.33661	0.72911	0.098
Mof_C 	C 	0.94693	0.55527	0.70233	0.104
Mof_C 	C 	0.0399	0.3153	0.93786	0.062
Mof_C 	C 	0.05003	0.34169	0.90523	-0.101
Mof_C 	C 	0.04691	0.34475	0.87485	0.01
Mof_C 	C 	0.03553	0.31947	0.87813	-0.05
Mof_C 	C 	0.0277	0.29276	0.91144	0.038
Mof_C 	C 	0.01287	0.20751	0.82083	0.06
Mof_C 	C 	0.0193	0.2024	0.8504	-0.099
Mof_C 	C 	0.02193	0.23055	0.85191	0.009
Mof_C 	C 	0.01872	0.26336	0.82296	-0.049
Mof_C 	C 	0.01211	0.26615	0.79467	0.037
Mof_C 	C 	0.02032	0.29524	0.82312	0.134
Mof_C 	C 	0.02913	0.32133	0.84817	0.136
Mof_C 	C 	0.01356	0.35496	0.79756	0.135
Mof_C 	C 	0.00197	0.42099	0.77223	0.043
Mof_C 	C 	0.00357	0.39041	0.77019	-0.053
Mof_C 	C 	0.99523	0.39485	0.74215	0.011
Mof_C 	C 	0.98612	0.42936	0.71754	-0.101
Mof_C 	C 	0.98619	0.45795	0.72125	0.062
Mof_C 	C 	0.96145	0.57251	0.76195	0.057
Mof_C 	C 	0.95607	0.60165	0.76865	-0.098
Mof_C 	C 	0.98484	0.60426	0.76954	0.008
Mof_C 	C 	0.01853	0.57679	0.76353	-0.052
Mof_C 	C 	0.0215	0.54798	0.75768	0.041
Mof_C 	C 	0.0502	0.5777	0.76452	0.137
Mof_C 	C 	0.22911	0.97495	0.45933	0.098
Mof_C 	C 	0.20233	0.79547	0.44693	0.104
Mof_C 	C 	0.43786	0.70694	0.5399	0.062
Mof_C 	C 	0.40523	0.70305	0.55003	-0.101
Mof_C 	C 	0.37485	0.73349	0.54691	0.01
Mof_C 	C 	0.37813	0.76687	0.53553	-0.05
Mof_C 	C 	0.41144	0.7681	0.5277	0.038
Mof_C 	C 	0.32083	0.95879	0.51287	0.06
Mof_C 	C 	0.3504	0.9279	0.5193	-0.099
Mof_C 	C 	0.35191	0.89561	0.52193	0.009
Mof_C 	C 	0.32296	0.89496	0.51872	-0.049
Mof_C 	C 	0.29467	0.92707	0.51211	0.037
Mof_C 	C 	0.32312	0.86132	0.52032	0.134
Mof_C 	C 	0.34817	0.80137	0.52913	0.136
Mof_C 	C 	0.29756	0.83392	0.51356	0.135
Mof_C 	C 	0.27223	0.80481	0.50197	0.043
Mof_C 	C 	0.27019	0.83583	0.50357	-0.053
Mof_C 	C 	0.24215	0.86777	0.49523	0.011
Mof_C 	C 	0.21754	0.86698	0.48612	-0.101
Mof_C 	C 	0.22125	0.83461	0.48619	0.062
Mof_C 	C 	0.26195	0.70409	0.46145	0.057
Mof_C 	C 	0.26865	0.67363	0.45607	-0.098
Mof_C 	C 	0.26954	0.64136	0.48484	0.008
Mof_C 	C 	0.26353	0.64115	0.51853	-0.052
Mof_C 	C 	0.25768	0.67284	0.5215	0.04
Mof_C 	C 	0.26452	0.60758	0.5502	0.137
Mof_C 	C 	0.47495	0.72911	0.33661	0.098
Mof_C 	C 	0.29547	0.70233	0.55527	0.104
Mof_C 	C 	0.20694	0.93786	0.3153	0.062
Mof_C 	C 	0.20305	0.90523	0.34169	-0.101
Mof_C 	C 	0.23349	0.87485	0.34475	0.01
Mof_C 	C 	0.26687	0.87813	0.31947	-0.05
Mof_C 	C 	0.2681	0.91144	0.29276	0.038
Mof_C 	C 	0.45879	0.82083	0.20751	0.06
Mof_C 	C 	0.4279	0.8504	0.2024	-0.099
Mof_C 	C 	0.39561	0.85191	0.23055	0.009
Mof_C 	C 	0.39496	0.82296	0.26336	-0.049
Mof_C 	C 	0.42707	0.79467	0.26615	0.037
Mof_C 	C 	0.36132	0.82312	0.29524	0.134
Mof_C 	C 	0.30137	0.84817	0.32133	0.136
Mof_C 	C 	0.33392	0.79756	0.35496	0.135
Mof_C 	C 	0.30481	0.77223	0.42099	0.043
Mof_C 	C 	0.33583	0.77019	0.39041	-0.053
Mof_C 	C 	0.36777	0.74215	0.39485	0.011
Mof_C 	C 	0.36698	0.71754	0.42936	-0.101
Mof_C 	C 	0.33461	0.72125	0.45795	0.062
Mof_C 	C 	0.20409	0.76195	0.57251	0.057
Mof_C 	C 	0.17363	0.76865	0.60165	-0.098
Mof_C 	C 	0.14136	0.76954	0.60426	0.008
Mof_C 	C 	0.14115	0.76353	0.57679	-0.052
Mof_C 	C 	0.17284	0.75768	0.54798	0.04
Mof_C 	C 	0.10758	0.76452	0.5777	0.137
Mof_C 	C 	0.47495	0.45933	0.72911	0.098
Mof_C 	C 	0.29547	0.44693	0.70233	0.104
Mof_C 	C 	0.20694	0.5399	0.93786	0.062
Mof_C 	C 	0.20305	0.55003	0.90523	-0.101
Mof_C 	C 	0.23349	0.54691	0.87485	0.01
Mof_C 	C 	0.26687	0.53553	0.87813	-0.05
Mof_C 	C 	0.2681	0.5277	0.91144	0.038
Mof_C 	C 	0.45879	0.51287	0.82083	0.06
Mof_C 	C 	0.4279	0.5193	0.8504	-0.099
Mof_C 	C 	0.39561	0.52193	0.85191	0.009
Mof_C 	C 	0.39496	0.51872	0.82296	-0.049
Mof_C 	C 	0.42707	0.51211	0.79467	0.037
Mof_C 	C 	0.36132	0.52032	0.82312	0.134
Mof_C 	C 	0.30137	0.52913	0.84817	0.136
Mof_C 	C 	0.33392	0.51356	0.79756	0.135
Mof_C 	C 	0.30481	0.50197	0.77223	0.043
Mof_C 	C 	0.33583	0.50357	0.77019	-0.053
Mof_C 	C 	0.36777	0.49523	0.74215	0.011
Mof_C 	C 	0.36698	0.48612	0.71754	-0.101
Mof_C 	C 	0.33461	0.48619	0.72125	0.062
Mof_C 	C 	0.20409	0.46145	0.76195	0.057
Mof_C 	C 	0.17363	0.45607	0.76865	-0.098
Mof_C 	C 	0.14136	0.48484	0.76954	0.008
Mof_C 	C 	0.14115	0.51853	0.76353	-0.052
Mof_C 	C 	0.17284	0.5215	0.75768	0.04
Mof_C 	C 	0.10758	0.5502	0.76452	0.137
Mof_C 	C 	0.22911	0.33661	0.97495	0.098
Mof_C 	C 	0.20233	0.55527	0.79547	0.104
Mof_C 	C 	0.43786	0.3153	0.70694	0.062
Mof_C 	C 	0.40523	0.34169	0.70305	-0.101
Mof_C 	C 	0.37485	0.34475	0.73349	0.01
Mof_C 	C 	0.37813	0.31947	0.76687	-0.05
Mof_C 	C 	0.41144	0.29276	0.7681	0.038
Mof_C 	C 	0.32083	0.20751	0.95879	0.06
Mof_C 	C 	0.3504	0.2024	0.9279	-0.099
Mof_C 	C 	0.35191	0.23055	0.89561	0.009
Mof_C 	C 	0.32296	0.26336	0.89496	-0.049
Mof_C 	C 	0.29467	0.26615	0.92707	0.037
Mof_C 	C 	0.32312	0.29524	0.86132	0.134
Mof_C 	C 	0.34817	0.32133	0.80137	0.136
Mof_C 	C 	0.29756	0.35496	0.83392	0.135
Mof_C 	C 	0.27223	0.42099	0.80481	0.043
Mof_C 	C 	0.27019	0.39041	0.83583	-0.053
Mof_C 	C 	0.24215	0.39485	0.86777	0.011
Mof_C 	C 	0.21754	0.42936	0.86698	-0.101
Mof_C 	C 	0.22125	0.45795	0.83461	0.062
Mof_C 	C 	0.26195	0.57251	0.70409	0.057
Mof_C 	C 	0.26865	0.60165	0.67363	-0.098
Mof_C 	C 	0.26954	0.60426	0.64136	0.008
Mof_C 	C 	0.26353	0.57679	0.64115	-0.052
Mof_C 	C 	0.25768	0.54798	0.67284	0.04
Mof_C 	C 	0.26452	0.5777	0.60758	0.137
Mof_C 	C 	0.95933	0.97495	0.33661	0.098
Mof_C 	C 	0.94693	0.79547	0.55527	0.104
Mof_C 	C 	0.0399	0.70694	0.3153	0.062
Mof_C 	C 	0.05003	0.70305	0.34169	-0.101
Mof_C 	C 	0.04691	0.73349	0.34475	0.01
Mof_C 	C 	0.03553	0.76687	0.31947	-0.05
Mof_C 	C 	0.0277	0.7681	0.29276	0.038
Mof_C 	C 	0.01287	0.95879	0.20751	0.06
Mof_C 	C 	0.0193	0.9279	0.2024	-0.099
Mof_C 	C 	0.02193	0.89561	0.23055	0.009
Mof_C 	C 	0.01872	0.89496	0.26336	-0.049
Mof_C 	C 	0.01211	0.92707	0.26615	0.037
Mof_C 	C 	0.02032	0.86132	0.29524	0.134
Mof_C 	C 	0.02913	0.80137	0.32133	0.136
Mof_C 	C 	0.01356	0.83392	0.35496	0.135
Mof_C 	C 	0.00197	0.80481	0.42099	0.043
Mof_C 	C 	0.00357	0.83583	0.39041	-0.053
Mof_C 	C 	0.99523	0.86777	0.39485	0.011
Mof_C 	C 	0.98612	0.86698	0.42936	-0.101
Mof_C 	C 	0.98619	0.83461	0.45795	0.062
Mof_C 	C 	0.96145	0.70409	0.57251	0.057
Mof_C 	C 	0.95607	0.67363	0.60165	-0.098
Mof_C 	C 	0.98484	0.64136	0.60426	0.008
Mof_C 	C 	0.01853	0.64115	0.57679	-0.052
Mof_C 	C 	0.0215	0.67284	0.54798	0.041
Mof_C 	C 	0.0502	0.60758	0.5777	0.137
Mof_C 	C 	0.83661	0.72911	0.45933	0.098
Mof_C 	C 	0.05527	0.70233	0.44693	0.104
Mof_C 	C 	0.8153	0.93786	0.5399	0.062
Mof_C 	C 	0.84169	0.90523	0.55003	-0.101
Mof_C 	C 	0.84475	0.87485	0.54691	0.01
Mof_C 	C 	0.81947	0.87813	0.53553	-0.05
Mof_C 	C 	0.79276	0.91144	0.5277	0.038
Mof_C 	C 	0.70751	0.82083	0.51287	0.06
Mof_C 	C 	0.7024	0.8504	0.5193	-0.099
Mof_C 	C 	0.73055	0.85191	0.52193	0.009
Mof_C 	C 	0.76336	0.82296	0.51872	-0.049
Mof_C 	C 	0.76615	0.79467	0.51211	0.037
Mof_C 	C 	0.79524	0.82312	0.52032	0.134
Mof_C 	C 	0.82133	0.84817	0.52913	0.136
Mof_C 	C 	0.85496	0.79756	0.51356	0.135
Mof_C 	C 	0.92099	0.77223	0.50197	0.043
Mof_C 	C 	0.89041	0.77019	0.50357	-0.053
Mof_C 	C 	0.89485	0.74215	0.49523	0.011
Mof_C 	C 	0.92936	0.71754	0.48612	-0.101
Mof_C 	C 	0.95795	0.72125	0.48619	0.062
Mof_C 	C 	0.07251	0.76195	0.46145	0.057
Mof_C 	C 	0.10165	0.76865	0.45607	-0.098
Mof_C 	C 	0.10426	0.76954	0.48484	0.008
Mof_C 	C 	0.07679	0.76353	0.51853	-0.052
Mof_C 	C 	0.04798	0.75768	0.5215	0.04
Mof_C 	C 	0.0777	0.76452	0.5502	0.137
Mof_C 	C 	0.22911	0.45933	0.33661	0.098
Mof_C 	C 	0.20233	0.44693	0.55527	0.104
Mof_C 	C 	0.43786	0.5399	0.3153	0.062
Mof_C 	C 	0.40523	0.55003	0.34169	-0.101
Mof_C 	C 	0.37485	0.54691	0.34475	0.01
Mof_C 	C 	0.37813	0.53553	0.31947	-0.05
Mof_C 	C 	0.41144	0.5277	0.29276	0.038
Mof_C 	C 	0.32083	0.51287	0.20751	0.06
Mof_C 	C 	0.3504	0.5193	0.2024	-0.099
Mof_C 	C 	0.35191	0.52193	0.23055	0.009
Mof_C 	C 	0.32296	0.51872	0.26336	-0.049
Mof_C 	C 	0.29467	0.51211	0.26615	0.037
Mof_C 	C 	0.32312	0.52032	0.29524	0.134
Mof_C 	C 	0.34817	0.52913	0.32133	0.136
Mof_C 	C 	0.29756	0.51356	0.35496	0.135
Mof_C 	C 	0.27223	0.50197	0.42099	0.043
Mof_C 	C 	0.27019	0.50357	0.39041	-0.053
Mof_C 	C 	0.24215	0.49523	0.39485	0.011
Mof_C 	C 	0.21754	0.48612	0.42936	-0.101
Mof_C 	C 	0.22125	0.48619	0.45795	0.062
Mof_C 	C 	0.26195	0.46145	0.57251	0.057
Mof_C 	C 	0.26865	0.45607	0.60165	-0.098
Mof_C 	C 	0.26954	0.48484	0.60426	0.008
Mof_C 	C 	0.26353	0.51853	0.57679	-0.052
Mof_C 	C 	0.25768	0.5215	0.54798	0.04
Mof_C 	C 	0.26452	0.5502	0.5777	0.137
Mof_C 	C 	0.47495	0.33661	0.45933	0.098
Mof_C 	C 	0.29547	0.55527	0.44693	0.104
Mof_C 	C 	0.20694	0.3153	0.5399	0.062
Mof_C 	C 	0.20305	0.34169	0.55003	-0.101
Mof_C 	C 	0.23349	0.34475	0.54691	0.01
Mof_C 	C 	0.26687	0.31947	0.53553	-0.05
Mof_C 	C 	0.2681	0.29276	0.5277	0.038
Mof_C 	C 	0.45879	0.20751	0.51287	0.06
Mof_C 	C 	0.4279	0.2024	0.5193	-0.099
Mof_C 	C 	0.39561	0.23055	0.52193	0.009
Mof_C 	C 	0.39496	0.26336	0.51872	-0.049
Mof_C 	C 	0.42707	0.26615	0.51211	0.037
Mof_C 	C 	0.36132	0.29524	0.52032	0.134
Mof_C 	C 	0.30137	0.32133	0.52913	0.136
Mof_C 	C 	0.33392	0.35496	0.51356	0.135
Mof_C 	C 	0.30481	0.42099	0.50197	0.043
Mof_C 	C 	0.33583	0.39041	0.50357	-0.053
Mof_C 	C 	0.36777	0.39485	0.49523	0.011
Mof_C 	C 	0.36698	0.42936	0.48612	-0.101
Mof_C 	C 	0.33461	0.45795	0.48619	0.062
Mof_C 	C 	0.20409	0.57251	0.46145	0.057
Mof_C 	C 	0.17363	0.60165	0.45607	-0.098
Mof_C 	C 	0.14136	0.60426	0.48484	0.008
Mof_C 	C 	0.14115	0.57679	0.51853	-0.052
Mof_C 	C 	0.17284	0.54798	0.5215	0.04
Mof_C 	C 	0.10758	0.5777	0.5502	0.137
Mof_C 	C 	0.83661	0.97495	0.72911	0.098
Mof_C 	C 	0.05527	0.79547	0.70233	0.104
Mof_C 	C 	0.8153	0.70694	0.93786	0.062
Mof_C 	C 	0.84169	0.70305	0.90523	-0.101
Mof_C 	C 	0.84475	0.73349	0.87485	0.01
Mof_C 	C 	0.81947	0.76687	0.87813	-0.05
Mof_C 	C 	0.79276	0.7681	0.91144	0.038
Mof_C 	C 	0.70751	0.95879	0.82083	0.06
Mof_C 	C 	0.7024	0.9279	0.8504	-0.099
Mof_C 	C 	0.73055	0.89561	0.85191	0.009
Mof_C 	C 	0.76336	0.89496	0.82296	-0.049
Mof_C 	C 	0.76615	0.92707	0.79467	0.037
Mof_C 	C 	0.79524	0.86132	0.82312	0.134
Mof_C 	C 	0.82133	0.80137	0.84817	0.136
Mof_C 	C 	0.85496	0.83392	0.79756	0.135
Mof_C 	C 	0.92099	0.80481	0.77223	0.043
Mof_C 	C 	0.89041	0.83583	0.77019	-0.053
Mof_C 	C 	0.89485	0.86777	0.74215	0.011
Mof_C 	C 	0.92936	0.86698	0.71754	-0.101
Mof_C 	C 	0.95795	0.83461	0.72125	0.062
Mof_C 	C 	0.07251	0.70409	0.76195	0.057
Mof_C 	C 	0.10165	0.67363	0.76865	-0.098
Mof_C 	C 	0.10426	0.64136	0.76954	0.008
Mof_C 	C 	0.07679	0.64115	0.76353	-0.052
Mof_C 	C 	0.04798	0.67284	0.75768	0.04
Mof_C 	C 	0.0777	0.60758	0.76452	0.137
Mof_C 	C 	0.95933	0.72911	0.97495	0.098
Mof_C 	C 	0.94693	0.70233	0.79547	0.104
Mof_C 	C 	0.0399	0.93786	0.70694	0.062
Mof_C 	C 	0.05003	0.90523	0.70305	-0.101
Mof_C 	C 	0.04691	0.87485	0.73349	0.01
Mof_C 	C 	0.03553	0.87813	0.76687	-0.05
Mof_C 	C 	0.0277	0.91144	0.7681	0.038
Mof_C 	C 	0.01287	0.82083	0.95879	0.06
Mof_C 	C 	0.0193	0.8504	0.9279	-0.099
Mof_C 	C 	0.02193	0.85191	0.89561	0.009
Mof_C 	C 	0.01872	0.82296	0.89496	-0.049
Mof_C 	C 	0.01211	0.79467	0.92707	0.037
Mof_C 	C 	0.02032	0.82312	0.86132	0.134
Mof_C 	C 	0.02913	0.84817	0.80137	0.136
Mof_C 	C 	0.01356	0.79756	0.83392	0.135
Mof_C 	C 	0.00197	0.77223	0.80481	0.043
Mof_C 	C 	0.00357	0.77019	0.83583	-0.053
Mof_C 	C 	0.99523	0.74215	0.86777	0.011
Mof_C 	C 	0.98612	0.71754	0.86698	-0.101
Mof_C 	C 	0.98619	0.72125	0.83461	0.062
Mof_C 	C 	0.96145	0.76195	0.70409	0.057
Mof_C 	C 	0.95607	0.76865	0.67363	-0.098
Mof_C 	C 	0.98484	0.76954	0.64136	0.008
Mof_C 	C 	0.01853	0.76353	0.64115	-0.052
Mof_C 	C 	0.0215	0.75768	0.67284	0.041
Mof_C 	C 	0.0502	0.76452	0.60758	0.137
Mof_C 	C 	0.45933	0.83661	0.47495	0.098
Mof_C 	C 	0.44693	0.05527	0.29547	0.104
Mof_C 	C 	0.5399	0.8153	0.20694	0.062
Mof_C 	C 	0.55003	0.84169	0.20305	-0.101
Mof_C 	C 	0.54691	0.84475	0.23349	0.01
Mof_C 	C 	0.53553	0.81947	0.26687	-0.05
Mof_C 	C 	0.5277	0.79276	0.2681	0.038
Mof_C 	C 	0.51287	0.70751	0.45879	0.06
Mof_C 	C 	0.5193	0.7024	0.4279	-0.099
Mof_C 	C 	0.52193	0.73055	0.39561	0.009
Mof_C 	C 	0.51872	0.76336	0.39496	-0.049
Mof_C 	C 	0.51211	0.76615	0.42707	0.037
Mof_C 	C 	0.52032	0.79524	0.36132	0.134
Mof_C 	C 	0.52913	0.82133	0.30137	0.136
Mof_C 	C 	0.51356	0.85496	0.33392	0.135
Mof_C 	C 	0.50197	0.92099	0.30481	0.043
Mof_C 	C 	0.50357	0.89041	0.33583	-0.053
Mof_C 	C 	0.49523	0.89485	0.36777	0.011
Mof_C 	C 	0.48612	0.92936	0.36698	-0.101
Mof_C 	C 	0.48619	0.95795	0.33461	0.062
Mof_C 	C 	0.46145	0.07251	0.20409	0.057
Mof_C 	C 	0.45607	0.10165	0.17363	-0.098
Mof_C 	C 	0.48484	0.10426	0.14136	0.008
Mof_C 	C 	0.51853	0.07679	0.14115	-0.052
Mof_C 	C 	0.5215	0.04798	0.17284	0.04
Mof_C 	C 	0.5502	0.0777	0.10758	0.137
Mof_C 	C 	0.33661	0.95933	0.22911	0.098
Mof_C 	C 	0.55527	0.94693	0.20233	0.104
Mof_C 	C 	0.3153	0.0399	0.43786	0.062
Mof_C 	C 	0.34169	0.05003	0.40523	-0.101
Mof_C 	C 	0.34475	0.04691	0.37485	0.01
Mof_C 	C 	0.31947	0.03553	0.37813	-0.05
Mof_C 	C 	0.29276	0.0277	0.41144	0.038
Mof_C 	C 	0.20751	0.01287	0.32083	0.06
Mof_C 	C 	0.2024	0.0193	0.3504	-0.099
Mof_C 	C 	0.23055	0.02193	0.35191	0.009
Mof_C 	C 	0.26336	0.01872	0.32296	-0.049
Mof_C 	C 	0.26615	0.01211	0.29467	0.037
Mof_C 	C 	0.29524	0.02032	0.32312	0.134
Mof_C 	C 	0.32133	0.02913	0.34817	0.136
Mof_C 	C 	0.35496	0.01356	0.29756	0.135
Mof_C 	C 	0.42099	0.00197	0.27223	0.043
Mof_C 	C 	0.39041	0.00357	0.27019	-0.053
Mof_C 	C 	0.39485	0.99523	0.24215	0.011
Mof_C 	C 	0.42936	0.98612	0.21754	-0.101
Mof_C 	C 	0.45795	0.98619	0.22125	0.062
Mof_C 	C 	0.57251	0.96145	0.26195	0.057
Mof_C 	C 	0.60165	0.95607	0.26865	-0.098
Mof_C 	C 	0.60426	0.98484	0.26954	0.008
Mof_C 	C 	0.57679	0.01853	0.26353	-0.052
Mof_C 	C 	0.54798	0.0215	0.25768	0.041
Mof_C 	C 	0.5777	0.0502	0.26452	0.137
Mof_C 	C 	0.97495	0.22911	0.95933	0.098
Mof_C 	C 	0.79547	0.20233	0.94693	0.104
Mof_C 	C 	0.70694	0.43786	0.0399	0.062
Mof_C 	C 	0.70305	0.40523	0.05003	-0.101
Mof_C 	C 	0.73349	0.37485	0.04691	0.01
Mof_C 	C 	0.76687	0.37813	0.03553	-0.05
Mof_C 	C 	0.7681	0.41144	0.0277	0.038
Mof_C 	C 	0.95879	0.32083	0.01287	0.06
Mof_C 	C 	0.9279	0.3504	0.0193	-0.099
Mof_C 	C 	0.89561	0.35191	0.02193	0.009
Mof_C 	C 	0.89496	0.32296	0.01872	-0.049
Mof_C 	C 	0.92707	0.29467	0.01211	0.037
Mof_C 	C 	0.86132	0.32312	0.02032	0.134
Mof_C 	C 	0.80137	0.34817	0.02913	0.136
Mof_C 	C 	0.83392	0.29756	0.01356	0.135
Mof_C 	C 	0.80481	0.27223	0.00197	0.043
Mof_C 	C 	0.83583	0.27019	0.00357	-0.053
Mof_C 	C 	0.86777	0.24215	0.99523	0.011
Mof_C 	C 	0.86698	0.21754	0.98612	-0.101
Mof_C 	C 	0.83461	0.22125	0.98619	0.062
Mof_C 	C 	0.70409	0.26195	0.96145	0.057
Mof_C 	C 	0.67363	0.26865	0.95607	-0.098
Mof_C 	C 	0.64136	0.26954	0.98484	0.008
Mof_C 	C 	0.64115	0.26353	0.01853	-0.052
Mof_C 	C 	0.67284	0.25768	0.0215	0.041
Mof_C 	C 	0.60758	0.26452	0.0502	0.137
Mof_C 	C 	0.72911	0.47495	0.83661	0.098
Mof_C 	C 	0.70233	0.29547	0.05527	0.104
Mof_C 	C 	0.93786	0.20694	0.8153	0.062
Mof_C 	C 	0.90523	0.20305	0.84169	-0.101
Mof_C 	C 	0.87485	0.23349	0.84475	0.01
Mof_C 	C 	0.87813	0.26687	0.81947	-0.05
Mof_C 	C 	0.91144	0.2681	0.79276	0.038
Mof_C 	C 	0.82083	0.45879	0.70751	0.06
Mof_C 	C 	0.8504	0.4279	0.7024	-0.099
Mof_C 	C 	0.85191	0.39561	0.73055	0.009
Mof_C 	C 	0.82296	0.39496	0.76336	-0.049
Mof_C 	C 	0.79467	0.42707	0.76615	0.037
Mof_C 	C 	0.82312	0.36132	0.79524	0.134
Mof_C 	C 	0.84817	0.30137	0.82133	0.136
Mof_C 	C 	0.79756	0.33392	0.85496	0.135
Mof_C 	C 	0.77223	0.30481	0.92099	0.043
Mof_C 	C 	0.77019	0.33583	0.89041	-0.053
Mof_C 	C 	0.74215	0.36777	0.89485	0.011
Mof_C 	C 	0.71754	0.36698	0.92936	-0.101
Mof_C 	C 	0.72125	0.33461	0.95795	0.062
Mof_C 	C 	0.76195	0.20409	0.07251	0.057
Mof_C 	C 	0.76865	0.17363	0.10165	-0.098
Mof_C 	C 	0.76954	0.14136	0.10426	0.008
Mof_C 	C 	0.76353	0.14115	0.07679	-0.052
Mof_C 	C 	0.75768	0.17284	0.04798	0.04
Mof_C 	C 	0.76452	0.10758	0.0777	0.137
Mof_C 	C 	0.45933	0.47495	0.22911	0.098
Mof_C 	C 	0.44693	0.29547	0.20233	0.104
Mof_C 	C 	0.5399	0.20694	0.43786	0.062
Mof_C 	C 	0.55003	0.20305	0.40523	-0.101
Mof_C 	C 	0.54691	0.23349	0.37485	0.01
Mof_C 	C 	0.53553	0.26687	0.37813	-0.05
Mof_C 	C 	0.5277	0.2681	0.41144	0.038
Mof_C 	C 	0.51287	0.45879	0.32083	0.06
Mof_C 	C 	0.5193	0.4279	0.3504	-0.099
Mof_C 	C 	0.52193	0.39561	0.35191	0.009
Mof_C 	C 	0.51872	0.39496	0.32296	-0.049
Mof_C 	C 	0.51211	0.42707	0.29467	0.037
Mof_C 	C 	0.52032	0.36132	0.32312	0.134
Mof_C 	C 	0.52913	0.30137	0.34817	0.136
Mof_C 	C 	0.51356	0.33392	0.29756	0.135
Mof_C 	C 	0.50197	0.30481	0.27223	0.043
Mof_C 	C 	0.50357	0.33583	0.27019	-0.053
Mof_C 	C 	0.49523	0.36777	0.24215	0.011
Mof_C 	C 	0.48612	0.36698	0.21754	-0.101
Mof_C 	C 	0.48619	0.33461	0.22125	0.062
Mof_C 	C 	0.46145	0.20409	0.26195	0.057
Mof_C 	C 	0.45607	0.17363	0.26865	-0.098
Mof_C 	C 	0.48484	0.14136	0.26954	0.008
Mof_C 	C 	0.51853	0.14115	0.26353	-0.052
Mof_C 	C 	0.5215	0.17284	0.25768	0.04
Mof_C 	C 	0.5502	0.10758	0.26452	0.137
Mof_C 	C 	0.33661	0.22911	0.47495	0.098
Mof_C 	C 	0.55527	0.20233	0.29547	0.104
Mof_C 	C 	0.3153	0.43786	0.20694	0.062
Mof_C 	C 	0.34169	0.40523	0.20305	-0.101
Mof_C 	C 	0.34475	0.37485	0.23349	0.01
Mof_C 	C 	0.31947	0.37813	0.26687	-0.05
Mof_C 	C 	0.29276	0.41144	0.2681	0.038
Mof_C 	C 	0.20751	0.32083	0.45879	0.06
Mof_C 	C 	0.2024	0.3504	0.4279	-0.099
Mof_C 	C 	0.23055	0.35191	0.39561	0.009
Mof_C 	C 	0.26336	0.32296	0.39496	-0.049
Mof_C 	C 	0.26615	0.29467	0.42707	0.037
Mof_C 	C 	0.29524	0.32312	0.36132	0.134
Mof_C 	C 	0.32133	0.34817	0.30137	0.136
Mof_C 	C 	0.35496	0.29756	0.33392	0.135
Mof_C 	C 	0.42099	0.27223	0.30481	0.043
Mof_C 	C 	0.39041	0.27019	0.33583	-0.053
Mof_C 	C 	0.39485	0.24215	0.36777	0.011
Mof_C 	C 	0.42936	0.21754	0.36698	-0.101
Mof_C 	C 	0.45795	0.22125	0.33461	0.062
Mof_C 	C 	0.57251	0.26195	0.20409	0.057
Mof_C 	C 	0.60165	0.26865	0.17363	-0.098
Mof_C 	C 	0.60426	0.26954	0.14136	0.008
Mof_C 	C 	0.57679	0.26353	0.14115	-0.052
Mof_C 	C 	0.54798	0.25768	0.17284	0.04
Mof_C 	C 	0.5777	0.26452	0.10758	0.137
Mof_C 	C 	0.97495	0.95933	0.83661	0.098
Mof_C 	C 	0.79547	0.94693	0.05527	0.104
Mof_C 	C 	0.70694	0.0399	0.8153	0.062
Mof_C 	C 	0.70305	0.05003	0.84169	-0.101
Mof_C 	C 	0.73349	0.04691	0.84475	0.01
Mof_C 	C 	0.76687	0.03553	0.81947	-0.05
Mof_C 	C 	0.7681	0.0277	0.79276	0.038
Mof_C 	C 	0.95879	0.01287	0.70751	0.06
Mof_C 	C 	0.9279	0.0193	0.7024	-0.099
Mof_C 	C 	0.89561	0.02193	0.73055	0.009
Mof_C 	C 	0.89496	0.01872	0.76336	-0.049
Mof_C 	C 	0.92707	0.01211	0.76615	0.037
Mof_C 	C 	0.86132	0.02032	0.79524	0.134
Mof_C 	C 	0.80137	0.02913	0.82133	0.136
Mof_C 	C 	0.83392	0.01356	0.85496	0.135
Mof_C 	C 	0.80481	0.00197	0.92099	0.043
Mof_C 	C 	0.83583	0.00357	0.89041	-0.053
Mof_C 	C 	0.86777	0.99523	0.89485	0.012
Mof_C 	C 	0.86698	0.98612	0.92936	-0.101
Mof_C 	C 	0.83461	0.98619	0.95795	0.062
Mof_C 	C 	0.70409	0.96145	0.07251	0.057
Mof_C 	C 	0.67363	0.95607	0.10165	-0.098
Mof_C 	C 	0.64136	0.98484	0.10426	0.008
Mof_C 	C 	0.64115	0.01853	0.07679	-0.052
Mof_C 	C 	0.67284	0.0215	0.04798	0.041
Mof_C 	C 	0.60758	0.0502	0.0777	0.137
Mof_C 	C 	0.72911	0.83661	0.95933	0.098
Mof_C 	C 	0.70233	0.05527	0.94693	0.104
Mof_C 	C 	0.93786	0.8153	0.0399	0.062
Mof_C 	C 	0.90523	0.84169	0.05003	-0.101
Mof_C 	C 	0.87485	0.84475	0.04691	0.01
Mof_C 	C 	0.87813	0.81947	0.03553	-0.05
Mof_C 	C 	0.91144	0.79276	0.0277	0.038
Mof_C 	C 	0.82083	0.70751	0.01287	0.06
Mof_C 	C 	0.8504	0.7024	0.0193	-0.099
Mof_C 	C 	0.85191	0.73055	0.02193	0.009
Mof_C 	C 	0.82296	0.76336	0.01872	-0.049
Mof_C 	C 	0.79467	0.76615	0.01211	0.037
Mof_C 	C 	0.82312	0.79524	0.02032	0.134
Mof_C 	C 	0.84817	0.82133	0.02913	0.136
Mof_C 	C 	0.79756	0.85496	0.01356	0.135
Mof_C 	C 	0.77223	0.92099	0.00197	0.043
Mof_C 	C 	0.77019	0.89041	0.00357	-0.053
Mof_C 	C 	0.74215	0.89485	0.99523	0.012
Mof_C 	C 	0.71754	0.92936	0.98612	-0.101
Mof_C 	C 	0.72125	0.95795	0.98619	0.062
Mof_C 	C 	0.76195	0.07251	0.96145	0.057
Mof_C 	C 	0.76865	0.10165	0.95607	-0.098
Mof_C 	C 	0.76954	0.10426	0.98484	0.008
Mof_C 	C 	0.76353	0.07679	0.01853	-0.052
Mof_C 	C 	0.75768	0.04798	0.0215	0.041
Mof_C 	C 	0.76452	0.0777	0.0502	0.137
Mof_C 	C 	0.45933	0.22911	0.83661	0.098
Mof_C 	C 	0.44693	0.20233	0.05527	0.104
Mof_C 	C 	0.5399	0.43786	0.8153	0.062
Mof_C 	C 	0.55003	0.40523	0.84169	-0.101
Mof_C 	C 	0.54691	0.37485	0.84475	0.01
Mof_C 	C 	0.53553	0.37813	0.81947	-0.05
Mof_C 	C 	0.5277	0.41144	0.79276	0.038
Mof_C 	C 	0.51287	0.32083	0.70751	0.06
Mof_C 	C 	0.5193	0.3504	0.7024	-0.099
Mof_C 	C 	0.52193	0.35191	0.73055	0.009
Mof_C 	C 	0.51872	0.32296	0.76336	-0.049
Mof_C 	C 	0.51211	0.29467	0.76615	0.037
Mof_C 	C 	0.52032	0.32312	0.79524	0.134
Mof_C 	C 	0.52913	0.34817	0.82133	0.136
Mof_C 	C 	0.51356	0.29756	0.85496	0.135
Mof_C 	C 	0.50197	0.27223	0.92099	0.043
Mof_C 	C 	0.50357	0.27019	0.89041	-0.053
Mof_C 	C 	0.49523	0.24215	0.89485	0.011
Mof_C 	C 	0.48612	0.21754	0.92936	-0.101
Mof_C 	C 	0.48619	0.22125	0.95795	0.062
Mof_C 	C 	0.46145	0.26195	0.07251	0.057
Mof_C 	C 	0.45607	0.26865	0.10165	-0.098
Mof_C 	C 	0.48484	0.26954	0.10426	0.008
Mof_C 	C 	0.51853	0.26353	0.07679	-0.052
Mof_C 	C 	0.5215	0.25768	0.04798	0.04
Mof_C 	C 	0.5502	0.26452	0.0777	0.137
Mof_C 	C 	0.33661	0.47495	0.95933	0.098
Mof_C 	C 	0.55527	0.29547	0.94693	0.104
Mof_C 	C 	0.3153	0.20694	0.0399	0.062
Mof_C 	C 	0.34169	0.20305	0.05003	-0.101
Mof_C 	C 	0.34475	0.23349	0.04691	0.01
Mof_C 	C 	0.31947	0.26687	0.03553	-0.05
Mof_C 	C 	0.29276	0.2681	0.0277	0.038
Mof_C 	C 	0.20751	0.45879	0.01287	0.06
Mof_C 	C 	0.2024	0.4279	0.0193	-0.099
Mof_C 	C 	0.23055	0.39561	0.02193	0.009
Mof_C 	C 	0.26336	0.39496	0.01872	-0.049
Mof_C 	C 	0.26615	0.42707	0.01211	0.037
Mof_C 	C 	0.29524	0.36132	0.02032	0.134
Mof_C 	C 	0.32133	0.30137	0.02913	0.136
Mof_C 	C 	0.35496	0.33392	0.01356	0.135
Mof_C 	C 	0.42099	0.30481	0.00197	0.043
Mof_C 	C 	0.39041	0.33583	0.00357	-0.053
Mof_C 	C 	0.39485	0.36777	0.99523	0.011
Mof_C 	C 	0.42936	0.36698	0.98612	-0.101
Mof_C 	C 	0.45795	0.33461	0.98619	0.062
Mof_C 	C 	0.57251	0.20409	0.96145	0.057
Mof_C 	C 	0.60165	0.17363	0.95607	-0.098
Mof_C 	C 	0.60426	0.14136	0.98484	0.008
Mof_C 	C 	0.57679	0.14115	0.01853	-0.052
Mof_C 	C 	0.54798	0.17284	0.0215	0.041
Mof_C 	C 	0.5777	0.10758	0.0502	0.137
Mof_C 	C 	0.97495	0.83661	0.22911	0.098
Mof_C 	C 	0.79547	0.05527	0.20233	0.104
Mof_C 	C 	0.70694	0.8153	0.43786	0.062
Mof_C 	C 	0.70305	0.84169	0.40523	-0.101
Mof_C 	C 	0.73349	0.84475	0.37485	0.01
Mof_C 	C 	0.76687	0.81947	0.37813	-0.05
Mof_C 	C 	0.7681	0.79276	0.41144	0.038
Mof_C 	C 	0.95879	0.70751	0.32083	0.06
Mof_C 	C 	0.9279	0.7024	0.3504	-0.099
Mof_C 	C 	0.89561	0.73055	0.35191	0.009
Mof_C 	C 	0.89496	0.76336	0.32296	-0.049
Mof_C 	C 	0.92707	0.76615	0.29467	0.037
Mof_C 	C 	0.86132	0.79524	0.32312	0.134
Mof_C 	C 	0.80137	0.82133	0.34817	0.136
Mof_C 	C 	0.83392	0.85496	0.29756	0.135
Mof_C 	C 	0.80481	0.92099	0.27223	0.043
Mof_C 	C 	0.83583	0.89041	0.27019	-0.053
Mof_C 	C 	0.86777	0.89485	0.24215	0.011
Mof_C 	C 	0.86698	0.92936	0.21754	-0.101
Mof_C 	C 	0.83461	0.95795	0.22125	0.062
Mof_C 	C 	0.70409	0.07251	0.26195	0.057
Mof_C 	C 	0.67363	0.10165	0.26865	-0.098
Mof_C 	C 	0.64136	0.10426	0.26954	0.008
Mof_C 	C 	0.64115	0.07679	0.26353	-0.052
Mof_C 	C 	0.67284	0.04798	0.25768	0.04
Mof_C 	C 	0.60758	0.0777	0.26452	0.137
Mof_C 	C 	0.72911	0.95933	0.47495	0.098
Mof_C 	C 	0.70233	0.94693	0.29547	0.104
Mof_C 	C 	0.93786	0.0399	0.20694	0.062
Mof_C 	C 	0.90523	0.05003	0.20305	-0.101
Mof_C 	C 	0.87485	0.04691	0.23349	0.01
Mof_C 	C 	0.87813	0.03553	0.26687	-0.05
Mof_C 	C 	0.91144	0.0277	0.2681	0.038
Mof_C 	C 	0.82083	0.01287	0.45879	0.06
Mof_C 	C 	0.8504	0.0193	0.4279	-0.099
Mof_C 	C 	0.85191	0.02193	0.39561	0.009
Mof_C 	C 	0.82296	0.01872	0.39496	-0.049
Mof_C 	C 	0.79467	0.01211	0.42707	0.037
Mof_C 	C 	0.82312	0.02032	0.36132	0.134
Mof_C 	C 	0.84817	0.02913	0.30137	0.136
Mof_C 	C 	0.79756	0.01356	0.33392	0.135
Mof_C 	C 	0.77223	0.00197	0.30481	0.043
Mof_C 	C 	0.77019	0.00357	0.33583	-0.053
Mof_C 	C 	0.74215	0.99523	0.36777	0.011
Mof_C 	C 	0.71754	0.98612	0.36698	-0.101
Mof_C 	C 	0.72125	0.98619	0.33461	0.062
Mof_C 	C 	0.76195	0.96145	0.20409	0.057
Mof_C 	C 	0.76865	0.95607	0.17363	-0.098
Mof_C 	C 	0.76954	0.98484	0.14136	0.008
Mof_C 	C 	0.76353	0.01853	0.14115	-0.052
Mof_C 	C 	0.75768	0.0215	0.17284	0.041
Mof_C 	C 	0.76452	0.0502	0.10758	0.137
Mof_C 	C 	0.16339	0.54067	0.02505	0.098
Mof_C 	C 	0.94473	0.55307	0.20453	0.104
Mof_C 	C 	0.1847	0.4601	0.29306	0.062
Mof_C 	C 	0.15831	0.44997	0.29695	-0.101
Mof_C 	C 	0.15525	0.45309	0.26651	0.01
Mof_C 	C 	0.18053	0.46447	0.23313	-0.05
Mof_C 	C 	0.20724	0.4723	0.2319	0.038
Mof_C 	C 	0.29249	0.48713	0.04121	0.06
Mof_C 	C 	0.2976	0.4807	0.0721	-0.099
Mof_C 	C 	0.26945	0.47807	0.10439	0.009
Mof_C 	C 	0.23664	0.48128	0.10504	-0.049
Mof_C 	C 	0.23385	0.48789	0.07293	0.037
Mof_C 	C 	0.20476	0.47968	0.13868	0.134
Mof_C 	C 	0.17867	0.47087	0.19863	0.136
Mof_C 	C 	0.14504	0.48644	0.16608	0.135
Mof_C 	C 	0.07901	0.49803	0.19519	0.043
Mof_C 	C 	0.10959	0.49643	0.16417	-0.053
Mof_C 	C 	0.10515	0.50477	0.13223	0.011
Mof_C 	C 	0.07064	0.51388	0.13302	-0.101
Mof_C 	C 	0.04205	0.51381	0.16539	0.062
Mof_C 	C 	0.92749	0.53855	0.29591	0.057
Mof_C 	C 	0.89835	0.54393	0.32637	-0.098
Mof_C 	C 	0.89574	0.51516	0.35864	0.008
Mof_C 	C 	0.92321	0.48147	0.35885	-0.052
Mof_C 	C 	0.95202	0.4785	0.32716	0.04
Mof_C 	C 	0.9223	0.4498	0.39242	0.137
Mof_C 	C 	0.04067	0.66339	0.27089	0.098
Mof_C 	C 	0.05307	0.44473	0.29767	0.104
Mof_C 	C 	0.9601	0.6847	0.06214	0.062
Mof_C 	C 	0.94997	0.65831	0.09477	-0.101
Mof_C 	C 	0.95309	0.65525	0.12515	0.01
Mof_C 	C 	0.96447	0.68053	0.12187	-0.05
Mof_C 	C 	0.9723	0.70724	0.08856	0.038
Mof_C 	C 	0.98713	0.79249	0.17917	0.06
Mof_C 	C 	0.9807	0.7976	0.1496	-0.099
Mof_C 	C 	0.97807	0.76945	0.14809	0.009
Mof_C 	C 	0.98128	0.73664	0.17704	-0.049
Mof_C 	C 	0.98789	0.73385	0.20533	0.037
Mof_C 	C 	0.97968	0.70476	0.17688	0.134
Mof_C 	C 	0.97087	0.67867	0.15183	0.136
Mof_C 	C 	0.98644	0.64504	0.20244	0.135
Mof_C 	C 	0.99803	0.57901	0.22777	0.043
Mof_C 	C 	0.99643	0.60959	0.22981	-0.053
Mof_C 	C 	0.00477	0.60515	0.25785	0.011
Mof_C 	C 	0.01388	0.57064	0.28246	-0.101
Mof_C 	C 	0.01381	0.54205	0.27875	0.062
Mof_C 	C 	0.03855	0.42749	0.23805	0.057
Mof_C 	C 	0.04393	0.39835	0.23135	-0.098
Mof_C 	C 	0.01516	0.39574	0.23046	0.008
Mof_C 	C 	0.98147	0.42321	0.23647	-0.052
Mof_C 	C 	0.9785	0.45202	0.24232	0.041
Mof_C 	C 	0.9498	0.4223	0.23548	0.137
Mof_C 	C 	0.77089	0.02505	0.54067	0.098
Mof_C 	C 	0.79767	0.20453	0.55307	0.104
Mof_C 	C 	0.56214	0.29306	0.4601	0.062
Mof_C 	C 	0.59477	0.29695	0.44997	-0.101
Mof_C 	C 	0.62515	0.26651	0.45309	0.01
Mof_C 	C 	0.62187	0.23313	0.46447	-0.05
Mof_C 	C 	0.58856	0.2319	0.4723	0.038
Mof_C 	C 	0.67917	0.04121	0.48713	0.06
Mof_C 	C 	0.6496	0.0721	0.4807	-0.099
Mof_C 	C 	0.64809	0.10439	0.47807	0.009
Mof_C 	C 	0.67704	0.10504	0.48128	-0.049
Mof_C 	C 	0.70533	0.07293	0.48789	0.037
Mof_C 	C 	0.67688	0.13868	0.47968	0.134
Mof_C 	C 	0.65183	0.19863	0.47087	0.136
Mof_C 	C 	0.70244	0.16608	0.48644	0.135
Mof_C 	C 	0.72777	0.19519	0.49803	0.043
Mof_C 	C 	0.72981	0.16417	0.49643	-0.053
Mof_C 	C 	0.75785	0.13223	0.50477	0.011
Mof_C 	C 	0.78246	0.13302	0.51388	-0.101
Mof_C 	C 	0.77875	0.16539	0.51381	0.062
Mof_C 	C 	0.73805	0.29591	0.53855	0.057
Mof_C 	C 	0.73135	0.32637	0.54393	-0.098
Mof_C 	C 	0.73046	0.35864	0.51516	0.008
Mof_C 	C 	0.73647	0.35885	0.48147	-0.052
Mof_C 	C 	0.74232	0.32716	0.4785	0.04
Mof_C 	C 	0.73548	0.39242	0.4498	0.137
Mof_C 	C 	0.52505	0.27089	0.66339	0.098
Mof_C 	C 	0.70453	0.29767	0.44473	0.104
Mof_C 	C 	0.79306	0.06214	0.6847	0.062
Mof_C 	C 	0.79695	0.09477	0.65831	-0.101
Mof_C 	C 	0.76651	0.12515	0.65525	0.01
Mof_C 	C 	0.73313	0.12187	0.68053	-0.05
Mof_C 	C 	0.7319	0.08856	0.70724	0.038
Mof_C 	C 	0.54121	0.17917	0.79249	0.06
Mof_C 	C 	0.5721	0.1496	0.7976	-0.099
Mof_C 	C 	0.60439	0.14809	0.76945	0.009
Mof_C 	C 	0.60504	0.17704	0.73664	-0.049
Mof_C 	C 	0.57293	0.20533	0.73385	0.037
Mof_C 	C 	0.63868	0.17688	0.70476	0.134
Mof_C 	C 	0.69863	0.15183	0.67867	0.136
Mof_C 	C 	0.66608	0.20244	0.64504	0.135
Mof_C 	C 	0.69519	0.22777	0.57901	0.043
Mof_C 	C 	0.66417	0.22981	0.60959	-0.053
Mof_C 	C 	0.63223	0.25785	0.60515	0.011
Mof_C 	C 	0.63302	0.28246	0.57064	-0.101
Mof_C 	C 	0.66539	0.27875	0.54205	0.062
Mof_C 	C 	0.79591	0.23805	0.42749	0.057
Mof_C 	C 	0.82637	0.23135	0.39835	-0.098
Mof_C 	C 	0.85864	0.23046	0.39574	0.008
Mof_C 	C 	0.85885	0.23647	0.42321	-0.052
Mof_C 	C 	0.82716	0.24232	0.45202	0.04
Mof_C 	C 	0.89242	0.23548	0.4223	0.137
Mof_C 	C 	0.52505	0.54067	0.27089	0.098
Mof_C 	C 	0.70453	0.55307	0.29767	0.104
Mof_C 	C 	0.79306	0.4601	0.06214	0.062
Mof_C 	C 	0.79695	0.44997	0.09477	-0.101
Mof_C 	C 	0.76651	0.45309	0.12515	0.01
Mof_C 	C 	0.73313	0.46447	0.12187	-0.05
Mof_C 	C 	0.7319	0.4723	0.08856	0.038
Mof_C 	C 	0.54121	0.48713	0.17917	0.06
Mof_C 	C 	0.5721	0.4807	0.1496	-0.099
Mof_C 	C 	0.60439	0.47807	0.14809	0.009
Mof_C 	C 	0.60504	0.48128	0.17704	-0.049
Mof_C 	C 	0.57293	0.48789	0.20533	0.037
Mof_C 	C 	0.63868	0.47968	0.17688	0.134
Mof_C 	C 	0.69863	0.47087	0.15183	0.136
Mof_C 	C 	0.66608	0.48644	0.20244	0.135
Mof_C 	C 	0.69519	0.49803	0.22777	0.043
Mof_C 	C 	0.66417	0.49643	0.22981	-0.053
Mof_C 	C 	0.63223	0.50477	0.25785	0.011
Mof_C 	C 	0.63302	0.51388	0.28246	-0.101
Mof_C 	C 	0.66539	0.51381	0.27875	0.062
Mof_C 	C 	0.79591	0.53855	0.23805	0.057
Mof_C 	C 	0.82637	0.54393	0.23135	-0.098
Mof_C 	C 	0.85864	0.51516	0.23046	0.008
Mof_C 	C 	0.85885	0.48147	0.23647	-0.052
Mof_C 	C 	0.82716	0.4785	0.24232	0.04
Mof_C 	C 	0.89242	0.4498	0.23548	0.137
Mof_C 	C 	0.77089	0.66339	0.02505	0.098
Mof_C 	C 	0.79767	0.44473	0.20453	0.104
Mof_C 	C 	0.56214	0.6847	0.29306	0.062
Mof_C 	C 	0.59477	0.65831	0.29695	-0.101
Mof_C 	C 	0.62515	0.65525	0.26651	0.01
Mof_C 	C 	0.62187	0.68053	0.23313	-0.05
Mof_C 	C 	0.58856	0.70724	0.2319	0.038
Mof_C 	C 	0.67917	0.79249	0.04121	0.06
Mof_C 	C 	0.6496	0.7976	0.0721	-0.099
Mof_C 	C 	0.64809	0.76945	0.10439	0.009
Mof_C 	C 	0.67704	0.73664	0.10504	-0.049
Mof_C 	C 	0.70533	0.73385	0.07293	0.037
Mof_C 	C 	0.67688	0.70476	0.13868	0.134
Mof_C 	C 	0.65183	0.67867	0.19863	0.136
Mof_C 	C 	0.70244	0.64504	0.16608	0.135
Mof_C 	C 	0.72777	0.57901	0.19519	0.043
Mof_C 	C 	0.72981	0.60959	0.16417	-0.053
Mof_C 	C 	0.75785	0.60515	0.13223	0.011
Mof_C 	C 	0.78246	0.57064	0.13302	-0.101
Mof_C 	C 	0.77875	0.54205	0.16539	0.062
Mof_C 	C 	0.73805	0.42749	0.29591	0.057
Mof_C 	C 	0.73135	0.39835	0.32637	-0.098
Mof_C 	C 	0.73046	0.39574	0.35864	0.008
Mof_C 	C 	0.73647	0.42321	0.35885	-0.052
Mof_C 	C 	0.74232	0.45202	0.32716	0.04
Mof_C 	C 	0.73548	0.4223	0.39242	0.137
Mof_C 	C 	0.04067	0.02505	0.66339	0.098
Mof_C 	C 	0.05307	0.20453	0.44473	0.104
Mof_C 	C 	0.9601	0.29306	0.6847	0.062
Mof_C 	C 	0.94997	0.29695	0.65831	-0.101
Mof_C 	C 	0.95309	0.26651	0.65525	0.01
Mof_C 	C 	0.96447	0.23313	0.68053	-0.05
Mof_C 	C 	0.9723	0.2319	0.70724	0.038
Mof_C 	C 	0.98713	0.04121	0.79249	0.06
Mof_C 	C 	0.9807	0.0721	0.7976	-0.099
Mof_C 	C 	0.97807	0.10439	0.76945	0.009
Mof_C 	C 	0.98128	0.10504	0.73664	-0.049
Mof_C 	C 	0.98789	0.07293	0.73385	0.037
Mof_C 	C 	0.97968	0.13868	0.70476	0.134
Mof_C 	C 	0.97087	0.19863	0.67867	0.136
Mof_C 	C 	0.98644	0.16608	0.64504	0.135
Mof_C 	C 	0.99803	0.19519	0.57901	0.043
Mof_C 	C 	0.99643	0.16417	0.60959	-0.053
Mof_C 	C 	0.00477	0.13223	0.60515	0.011
Mof_C 	C 	0.01388	0.13302	0.57064	-0.101
Mof_C 	C 	0.01381	0.16539	0.54205	0.062
Mof_C 	C 	0.03855	0.29591	0.42749	0.057
Mof_C 	C 	0.04393	0.32637	0.39835	-0.098
Mof_C 	C 	0.01516	0.35864	0.39574	0.008
Mof_C 	C 	0.98147	0.35885	0.42321	-0.052
Mof_C 	C 	0.9785	0.32716	0.45202	0.041
Mof_C 	C 	0.9498	0.39242	0.4223	0.137
Mof_C 	C 	0.16339	0.27089	0.54067	0.098
Mof_C 	C 	0.94473	0.29767	0.55307	0.104
Mof_C 	C 	0.1847	0.06214	0.4601	0.062
Mof_C 	C 	0.15831	0.09477	0.44997	-0.101
Mof_C 	C 	0.15525	0.12515	0.45309	0.01
Mof_C 	C 	0.18053	0.12187	0.46447	-0.05
Mof_C 	C 	0.20724	0.08856	0.4723	0.038
Mof_C 	C 	0.29249	0.17917	0.48713	0.06
Mof_C 	C 	0.2976	0.1496	0.4807	-0.099
Mof_C 	C 	0.26945	0.14809	0.47807	0.009
Mof_C 	C 	0.23664	0.17704	0.48128	-0.049
Mof_C 	C 	0.23385	0.20533	0.48789	0.037
Mof_C 	C 	0.20476	0.17688	0.47968	0.134
Mof_C 	C 	0.17867	0.15183	0.47087	0.136
Mof_C 	C 	0.14504	0.20244	0.48644	0.135
Mof_C 	C 	0.07901	0.22777	0.49803	0.043
Mof_C 	C 	0.10959	0.22981	0.49643	-0.053
Mof_C 	C 	0.10515	0.25785	0.50477	0.011
Mof_C 	C 	0.07064	0.28246	0.51388	-0.101
Mof_C 	C 	0.04205	0.27875	0.51381	0.062
Mof_C 	C 	0.92749	0.23805	0.53855	0.057
Mof_C 	C 	0.89835	0.23135	0.54393	-0.098
Mof_C 	C 	0.89574	0.23046	0.51516	0.008
Mof_C 	C 	0.92321	0.23647	0.48147	-0.052
Mof_C 	C 	0.95202	0.24232	0.4785	0.04
Mof_C 	C 	0.9223	0.23548	0.4498	0.137
Mof_C 	C 	0.77089	0.54067	0.66339	0.098
Mof_C 	C 	0.79767	0.55307	0.44473	0.104
Mof_C 	C 	0.56214	0.4601	0.6847	0.062
Mof_C 	C 	0.59477	0.44997	0.65831	-0.101
Mof_C 	C 	0.62515	0.45309	0.65525	0.01
Mof_C 	C 	0.62187	0.46447	0.68053	-0.05
Mof_C 	C 	0.58856	0.4723	0.70724	0.038
Mof_C 	C 	0.67917	0.48713	0.79249	0.06
Mof_C 	C 	0.6496	0.4807	0.7976	-0.099
Mof_C 	C 	0.64809	0.47807	0.76945	0.009
Mof_C 	C 	0.67704	0.48128	0.73664	-0.049
Mof_C 	C 	0.70533	0.48789	0.73385	0.037
Mof_C 	C 	0.67688	0.47968	0.70476	0.134
Mof_C 	C 	0.65183	0.47087	0.67867	0.136
Mof_C 	C 	0.70244	0.48644	0.64504	0.135
Mof_C 	C 	0.72777	0.49803	0.57901	0.043
Mof_C 	C 	0.72981	0.49643	0.60959	-0.053
Mof_C 	C 	0.75785	0.50477	0.60515	0.011
Mof_C 	C 	0.78246	0.51388	0.57064	-0.101
Mof_C 	C 	0.77875	0.51381	0.54205	0.062
Mof_C 	C 	0.73805	0.53855	0.42749	0.057
Mof_C 	C 	0.73135	0.54393	0.39835	-0.098
Mof_C 	C 	0.73046	0.51516	0.39574	0.008
Mof_C 	C 	0.73647	0.48147	0.42321	-0.052
Mof_C 	C 	0.74232	0.4785	0.45202	0.04
Mof_C 	C 	0.73548	0.4498	0.4223	0.137
Mof_C 	C 	0.52505	0.66339	0.54067	0.098
Mof_C 	C 	0.70453	0.44473	0.55307	0.104
Mof_C 	C 	0.79306	0.6847	0.4601	0.062
Mof_C 	C 	0.79695	0.65831	0.44997	-0.101
Mof_C 	C 	0.76651	0.65525	0.45309	0.01
Mof_C 	C 	0.73313	0.68053	0.46447	-0.05
Mof_C 	C 	0.7319	0.70724	0.4723	0.038
Mof_C 	C 	0.54121	0.79249	0.48713	0.06
Mof_C 	C 	0.5721	0.7976	0.4807	-0.099
Mof_C 	C 	0.60439	0.76945	0.47807	0.009
Mof_C 	C 	0.60504	0.73664	0.48128	-0.049
Mof_C 	C 	0.57293	0.73385	0.48789	0.037
Mof_C 	C 	0.63868	0.70476	0.47968	0.134
Mof_C 	C 	0.69863	0.67867	0.47087	0.136
Mof_C 	C 	0.66608	0.64504	0.48644	0.135
Mof_C 	C 	0.69519	0.57901	0.49803	0.043
Mof_C 	C 	0.66417	0.60959	0.49643	-0.053
Mof_C 	C 	0.63223	0.60515	0.50477	0.011
Mof_C 	C 	0.63302	0.57064	0.51388	-0.101
Mof_C 	C 	0.66539	0.54205	0.51381	0.062
Mof_C 	C 	0.79591	0.42749	0.53855	0.057
Mof_C 	C 	0.82637	0.39835	0.54393	-0.098
Mof_C 	C 	0.85864	0.39574	0.51516	0.008
Mof_C 	C 	0.85885	0.42321	0.48147	-0.052
Mof_C 	C 	0.82716	0.45202	0.4785	0.04
Mof_C 	C 	0.89242	0.4223	0.4498	0.137
Mof_C 	C 	0.16339	0.02505	0.27089	0.098
Mof_C 	C 	0.94473	0.20453	0.29767	0.104
Mof_C 	C 	0.1847	0.29306	0.06214	0.062
Mof_C 	C 	0.15831	0.29695	0.09477	-0.101
Mof_C 	C 	0.15525	0.26651	0.12515	0.01
Mof_C 	C 	0.18053	0.23313	0.12187	-0.05
Mof_C 	C 	0.20724	0.2319	0.08856	0.038
Mof_C 	C 	0.29249	0.04121	0.17917	0.06
Mof_C 	C 	0.2976	0.0721	0.1496	-0.099
Mof_C 	C 	0.26945	0.10439	0.14809	0.009
Mof_C 	C 	0.23664	0.10504	0.17704	-0.049
Mof_C 	C 	0.23385	0.07293	0.20533	0.037
Mof_C 	C 	0.20476	0.13868	0.17688	0.134
Mof_C 	C 	0.17867	0.19863	0.15183	0.136
Mof_C 	C 	0.14504	0.16608	0.20244	0.135
Mof_C 	C 	0.07901	0.19519	0.22777	0.043
Mof_C 	C 	0.10959	0.16417	0.22981	-0.053
Mof_C 	C 	0.10515	0.13223	0.25785	0.011
Mof_C 	C 	0.07064	0.13302	0.28246	-0.101
Mof_C 	C 	0.04205	0.16539	0.27875	0.062
Mof_C 	C 	0.92749	0.29591	0.23805	0.057
Mof_C 	C 	0.89835	0.32637	0.23135	-0.098
Mof_C 	C 	0.89574	0.35864	0.23046	0.008
Mof_C 	C 	0.92321	0.35885	0.23647	-0.052
Mof_C 	C 	0.95202	0.32716	0.24232	0.04
Mof_C 	C 	0.9223	0.39242	0.23548	0.137
Mof_C 	C 	0.04067	0.27089	0.02505	0.098
Mof_C 	C 	0.05307	0.29767	0.20453	0.104
Mof_C 	C 	0.9601	0.06214	0.29306	0.062
Mof_C 	C 	0.94997	0.09477	0.29695	-0.101
Mof_C 	C 	0.95309	0.12515	0.26651	0.01
Mof_C 	C 	0.96447	0.12187	0.23313	-0.05
Mof_C 	C 	0.9723	0.08856	0.2319	0.038
Mof_C 	C 	0.98713	0.17917	0.04121	0.06
Mof_C 	C 	0.9807	0.1496	0.0721	-0.099
Mof_C 	C 	0.97807	0.14809	0.10439	0.009
Mof_C 	C 	0.98128	0.17704	0.10504	-0.049
Mof_C 	C 	0.98789	0.20533	0.07293	0.037
Mof_C 	C 	0.97968	0.17688	0.13868	0.134
Mof_C 	C 	0.97087	0.15183	0.19863	0.136
Mof_C 	C 	0.98644	0.20244	0.16608	0.135
Mof_C 	C 	0.99803	0.22777	0.19519	0.043
Mof_C 	C 	0.99643	0.22981	0.16417	-0.053
Mof_C 	C 	0.00477	0.25785	0.13223	0.011
Mof_C 	C 	0.01388	0.28246	0.13302	-0.101
Mof_C 	C 	0.01381	0.27875	0.16539	0.062
Mof_C 	C 	0.03855	0.23805	0.29591	0.057
Mof_C 	C 	0.04393	0.23135	0.32637	-0.098
Mof_C 	C 	0.01516	0.23046	0.35864	0.008
Mof_C 	C 	0.98147	0.23647	0.35885	-0.052
Mof_C 	C 	0.9785	0.24232	0.32716	0.041
Mof_C 	C 	0.9498	0.23548	0.39242	0.137
Mof_S 	S 	0.55275	0.11995	0.53493	-0.061
Mof_S 	S 	0.57743	0.91427	0.68445	-0.061
Mof_S 	S 	0.61995	0.05275	0.79237	-0.061
Mof_S 	S 	0.41427	0.07743	0.82385	-0.061
Mof_S 	S 	0.03493	0.79237	0.05275	-0.061
Mof_S 	S 	0.18445	0.82385	0.07743	-0.061
Mof_S 	S 	0.29237	0.53493	0.11995	-0.061
Mof_S 	S 	0.32385	0.68445	0.91427	-0.061
Mof_S 	S 	0.55275	0.53493	0.79237	-0.061
Mof_S 	S 	0.57743	0.68445	0.82385	-0.061
Mof_S 	S 	0.61995	0.79237	0.53493	-0.061
Mof_S 	S 	0.41427	0.82385	0.68445	-0.061
Mof_S 	S 	0.03493	0.05275	0.11995	-0.061
Mof_S 	S 	0.18445	0.07743	0.91427	-0.061
Mof_S 	S 	0.29237	0.11995	0.05275	-0.061
Mof_S 	S 	0.32385	0.91427	0.07743	-0.061
Mof_S 	S 	0.55275	0.79237	0.11995	-0.061
Mof_S 	S 	0.57743	0.82385	0.91427	-0.061
Mof_S 	S 	0.61995	0.53493	0.05275	-0.061
Mof_S 	S 	0.41427	0.68445	0.07743	-0.061
Mof_S 	S 	0.03493	0.11995	0.79237	-0.061
Mof_S 	S 	0.18445	0.91427	0.82385	-0.061
Mof_S 	S 	0.29237	0.05275	0.53493	-0.061
Mof_S 	S 	0.32385	0.07743	0.68445	-0.061
Mof_S 	S 	0.88005	0.44725	0.96507	-0.061
Mof_S 	S 	0.08573	0.42257	0.81555	-0.061
Mof_S 	S 	0.94725	0.38005	0.70763	-0.061
Mof_S 	S 	0.92257	0.58573	0.67615	-0.061
Mof_S 	S 	0.20763	0.96507	0.44725	-0.061
Mof_S 	S 	0.17615	0.81555	0.42257	-0.061
Mof_S 	S 	0.46507	0.70763	0.38005	-0.062
Mof_S 	S 	0.31555	0.67615	0.58573	-0.061
Mof_S 	S 	0.46507	0.44725	0.70763	-0.062
Mof_S 	S 	0.31555	0.42257	0.67615	-0.061
Mof_S 	S 	0.20763	0.38005	0.96507	-0.061
Mof_S 	S 	0.17615	0.58573	0.81555	-0.061
Mof_S 	S 	0.94725	0.96507	0.38005	-0.061
Mof_S 	S 	0.92257	0.81555	0.58573	-0.061
Mof_S 	S 	0.88005	0.70763	0.44725	-0.061
Mof_S 	S 	0.08573	0.67615	0.42257	-0.061
Mof_S 	S 	0.20763	0.44725	0.38005	-0.061
Mof_S 	S 	0.17615	0.42257	0.58573	-0.061
Mof_S 	S 	0.46507	0.38005	0.44725	-0.062
Mof_S 	S 	0.31555	0.58573	0.42257	-0.061
Mof_S 	S 	0.88005	0.96507	0.70763	-0.061
Mof_S 	S 	0.08573	0.81555	0.67615	-0.061
Mof_S 	S 	0.94725	0.70763	0.96507	-0.061
Mof_S 	S 	0.92257	0.67615	0.81555	-0.061
Mof_S 	S 	0.44725	0.88005	0.46507	-0.061
Mof_S 	S 	0.42257	0.08573	0.31555	-0.061
Mof_S 	S 	0.38005	0.94725	0.20763	-0.061
Mof_S 	S 	0.58573	0.92257	0.17615	-0.061
Mof_S 	S 	0.96507	0.20763	0.94725	-0.061
Mof_S 	S 	0.81555	0.17615	0.92257	-0.061
Mof_S 	S 	0.70763	0.46507	0.88005	-0.061
Mof_S 	S 	0.67615	0.31555	0.08573	-0.061
Mof_S 	S 	0.44725	0.46507	0.20763	-0.061
Mof_S 	S 	0.42257	0.31555	0.17615	-0.061
Mof_S 	S 	0.38005	0.20763	0.46507	-0.061
Mof_S 	S 	0.58573	0.17615	0.31555	-0.061
Mof_S 	S 	0.96507	0.94725	0.88005	-0.061
Mof_S 	S 	0.81555	0.92257	0.08573	-0.061
Mof_S 	S 	0.70763	0.88005	0.94725	-0.061
Mof_S 	S 	0.67615	0.08573	0.92257	-0.061
Mof_S 	S 	0.44725	0.20763	0.88005	-0.061
Mof_S 	S 	0.42257	0.17615	0.08573	-0.061
Mof_S 	S 	0.38005	0.46507	0.94725	-0.061
Mof_S 	S 	0.58573	0.31555	0.92257	-0.061
Mof_S 	S 	0.96507	0.88005	0.20763	-0.061
Mof_S 	S 	0.81555	0.08573	0.17615	-0.061
Mof_S 	S 	0.70763	0.94725	0.46507	-0.061
Mof_S 	S 	0.67615	0.92257	0.31555	-0.061
Mof_S 	S 	0.11995	0.55275	0.03493	-0.061
Mof_S 	S 	0.91427	0.57743	0.18445	-0.061
Mof_S 	S 	0.05275	0.61995	0.29237	-0.061
Mof_S 	S 	0.07743	0.41427	0.32385	-0.061
Mof_S 	S 	0.79237	0.03493	0.55275	-0.061
Mof_S 	S 	0.82385	0.18445	0.57743	-0.061
Mof_S 	S 	0.53493	0.29237	0.61995	-0.062
Mof_S 	S 	0.68445	0.32385	0.41427	-0.061
Mof_S 	S 	0.53493	0.55275	0.29237	-0.062
Mof_S 	S 	0.68445	0.57743	0.32385	-0.061
Mof_S 	S 	0.79237	0.61995	0.03493	-0.061
Mof_S 	S 	0.82385	0.41427	0.18445	-0.061
Mof_S 	S 	0.05275	0.03493	0.61995	-0.061
Mof_S 	S 	0.07743	0.18445	0.41427	-0.061
Mof_S 	S 	0.11995	0.29237	0.55275	-0.061
Mof_S 	S 	0.91427	0.32385	0.57743	-0.061
Mof_S 	S 	0.79237	0.55275	0.61995	-0.061
Mof_S 	S 	0.82385	0.57743	0.41427	-0.061
Mof_S 	S 	0.53493	0.61995	0.55275	-0.062
Mof_S 	S 	0.68445	0.41427	0.57743	-0.061
Mof_S 	S 	0.11995	0.03493	0.29237	-0.061
Mof_S 	S 	0.91427	0.18445	0.32385	-0.061
Mof_S 	S 	0.05275	0.29237	0.03493	-0.061
Mof_S 	S 	0.07743	0.32385	0.18445	-0.061
Mof_N 	N 	0.53144	0.1947	0.51692	-0.259
Mof_N 	N 	0.53596	0.96614	0.71882	-0.262
Mof_N 	N 	0.47115	0.20937	0.76095	-0.226
Mof_N 	N 	0.49103	0.26115	0.54099	-0.227
Mof_N 	N 	0.47133	0.20889	0.66949	-0.151
Mof_N 	N 	0.48818	0.1733	0.6351	-0.15
Mof_N 	N 	0.47742	0.14644	0.6987	-0.152
Mof_N 	N 	0.50651	0.04587	0.69611	-0.23
Mof_N 	N 	0.50635	0.95443	0.79577	-0.229
Mof_N 	N 	0.42049	0.95209	0.89165	-0.154
Mof_N 	N 	0.6947	0.03144	0.75694	-0.259
Mof_N 	N 	0.46614	0.03596	0.77908	-0.262
Mof_N 	N 	0.70937	0.97115	0.55853	-0.226
Mof_N 	N 	0.76115	0.99103	0.70683	-0.227
Mof_N 	N 	0.70889	0.97133	0.65029	-0.151
Mof_N 	N 	0.6733	0.98818	0.70342	-0.15
Mof_N 	N 	0.64644	0.97742	0.67744	-0.152
Mof_N 	N 	0.54587	0.00651	0.75151	-0.23
Mof_N 	N 	0.45443	0.00635	0.74345	-0.229
Mof_N 	N 	0.45209	0.92049	0.73577	-0.154
Mof_N 	N 	0.01692	0.75694	0.03144	-0.259
Mof_N 	N 	0.21882	0.77908	0.03596	-0.262
Mof_N 	N 	0.26095	0.55853	0.97115	-0.226
Mof_N 	N 	0.04099	0.70683	0.99103	-0.227
Mof_N 	N 	0.16949	0.65029	0.97133	-0.151
Mof_N 	N 	0.1351	0.70342	0.98818	-0.15
Mof_N 	N 	0.1987	0.67744	0.97742	-0.152
Mof_N 	N 	0.19611	0.75151	0.00651	-0.23
Mof_N 	N 	0.29577	0.74345	0.00635	-0.229
Mof_N 	N 	0.39165	0.73577	0.92049	-0.154
Mof_N 	N 	0.25694	0.51692	0.1947	-0.259
Mof_N 	N 	0.27908	0.71882	0.96614	-0.262
Mof_N 	N 	0.05853	0.76095	0.20937	-0.226
Mof_N 	N 	0.20683	0.54099	0.26115	-0.227
Mof_N 	N 	0.15029	0.66949	0.20889	-0.151
Mof_N 	N 	0.20342	0.6351	0.1733	-0.15
Mof_N 	N 	0.17744	0.6987	0.14644	-0.152
Mof_N 	N 	0.25151	0.69611	0.04587	-0.23
Mof_N 	N 	0.24345	0.79577	0.95443	-0.229
Mof_N 	N 	0.23577	0.89165	0.95209	-0.154
Mof_N 	N 	0.53144	0.51692	0.75694	-0.259
Mof_N 	N 	0.53596	0.71882	0.77908	-0.262
Mof_N 	N 	0.47115	0.76095	0.55853	-0.226
Mof_N 	N 	0.49103	0.54099	0.70683	-0.227
Mof_N 	N 	0.47133	0.66949	0.65029	-0.151
Mof_N 	N 	0.48818	0.6351	0.70342	-0.15
Mof_N 	N 	0.47742	0.6987	0.67744	-0.152
Mof_N 	N 	0.50651	0.69611	0.75151	-0.23
Mof_N 	N 	0.50635	0.79577	0.74345	-0.229
Mof_N 	N 	0.42049	0.89165	0.73577	-0.154
Mof_N 	N 	0.6947	0.75694	0.51692	-0.259
Mof_N 	N 	0.46614	0.77908	0.71882	-0.262
Mof_N 	N 	0.70937	0.55853	0.76095	-0.226
Mof_N 	N 	0.76115	0.70683	0.54099	-0.227
Mof_N 	N 	0.70889	0.65029	0.66949	-0.151
Mof_N 	N 	0.6733	0.70342	0.6351	-0.15
Mof_N 	N 	0.64644	0.67744	0.6987	-0.152
Mof_N 	N 	0.54587	0.75151	0.69611	-0.23
Mof_N 	N 	0.45443	0.74345	0.79577	-0.229
Mof_N 	N 	0.45209	0.73577	0.89165	-0.154
Mof_N 	N 	0.01692	0.03144	0.1947	-0.259
Mof_N 	N 	0.21882	0.03596	0.96614	-0.262
Mof_N 	N 	0.26095	0.97115	0.20937	-0.226
Mof_N 	N 	0.04099	0.99103	0.26115	-0.227
Mof_N 	N 	0.16949	0.97133	0.20889	-0.151
Mof_N 	N 	0.1351	0.98818	0.1733	-0.15
Mof_N 	N 	0.1987	0.97742	0.14644	-0.152
Mof_N 	N 	0.19611	0.00651	0.04587	-0.23
Mof_N 	N 	0.29577	0.00635	0.95443	-0.229
Mof_N 	N 	0.39165	0.92049	0.95209	-0.154
Mof_N 	N 	0.25694	0.1947	0.03144	-0.259
Mof_N 	N 	0.27908	0.96614	0.03596	-0.262
Mof_N 	N 	0.05853	0.20937	0.97115	-0.226
Mof_N 	N 	0.20683	0.26115	0.99103	-0.227
Mof_N 	N 	0.15029	0.20889	0.97133	-0.151
Mof_N 	N 	0.20342	0.1733	0.98818	-0.15
Mof_N 	N 	0.17744	0.14644	0.97742	-0.152
Mof_N 	N 	0.25151	0.04587	0.00651	-0.23
Mof_N 	N 	0.24345	0.95443	0.00635	-0.229
Mof_N 	N 	0.23577	0.95209	0.92049	-0.154
Mof_N 	N 	0.53144	0.75694	0.1947	-0.259
Mof_N 	N 	0.53596	0.77908	0.96614	-0.262
Mof_N 	N 	0.47115	0.55853	0.20937	-0.226
Mof_N 	N 	0.49103	0.70683	0.26115	-0.227
Mof_N 	N 	0.47133	0.65029	0.20889	-0.151
Mof_N 	N 	0.48818	0.70342	0.1733	-0.15
Mof_N 	N 	0.47742	0.67744	0.14644	-0.152
Mof_N 	N 	0.50651	0.75151	0.04587	-0.23
Mof_N 	N 	0.50635	0.74345	0.95443	-0.229
Mof_N 	N 	0.42049	0.73577	0.95209	-0.154
Mof_N 	N 	0.6947	0.51692	0.03144	-0.259
Mof_N 	N 	0.46614	0.71882	0.03596	-0.262
Mof_N 	N 	0.70937	0.76095	0.97115	-0.226
Mof_N 	N 	0.76115	0.54099	0.99103	-0.227
Mof_N 	N 	0.70889	0.66949	0.97133	-0.151
Mof_N 	N 	0.6733	0.6351	0.98818	-0.15
Mof_N 	N 	0.64644	0.6987	0.97742	-0.152
Mof_N 	N 	0.54587	0.69611	0.00651	-0.23
Mof_N 	N 	0.45443	0.79577	0.00635	-0.229
Mof_N 	N 	0.45209	0.89165	0.92049	-0.154
Mof_N 	N 	0.01692	0.1947	0.75694	-0.259
Mof_N 	N 	0.21882	0.96614	0.77908	-0.262
Mof_N 	N 	0.26095	0.20937	0.55853	-0.226
Mof_N 	N 	0.04099	0.26115	0.70683	-0.227
Mof_N 	N 	0.16949	0.20889	0.65029	-0.151
Mof_N 	N 	0.1351	0.1733	0.70342	-0.15
Mof_N 	N 	0.1987	0.14644	0.67744	-0.152
Mof_N 	N 	0.19611	0.04587	0.75151	-0.23
Mof_N 	N 	0.29577	0.95443	0.74345	-0.229
Mof_N 	N 	0.39165	0.95209	0.73577	-0.154
Mof_N 	N 	0.25694	0.03144	0.51692	-0.259
Mof_N 	N 	0.27908	0.03596	0.71882	-0.262
Mof_N 	N 	0.05853	0.97115	0.76095	-0.226
Mof_N 	N 	0.20683	0.99103	0.54099	-0.227
Mof_N 	N 	0.15029	0.97133	0.66949	-0.151
Mof_N 	N 	0.20342	0.98818	0.6351	-0.15
Mof_N 	N 	0.17744	0.97742	0.6987	-0.152
Mof_N 	N 	0.25151	0.00651	0.69611	-0.23
Mof_N 	N 	0.24345	0.00635	0.79577	-0.229
Mof_N 	N 	0.23577	0.92049	0.89165	-0.154
Mof_N 	N 	0.8053	0.46856	0.98308	-0.259
Mof_N 	N 	0.03386	0.46404	0.78118	-0.262
Mof_N 	N 	0.79063	0.52885	0.73905	-0.226
Mof_N 	N 	0.73885	0.50897	0.95901	-0.227
Mof_N 	N 	0.79111	0.52867	0.83051	-0.151
Mof_N 	N 	0.8267	0.51182	0.8649	-0.15
Mof_N 	N 	0.85356	0.52258	0.8013	-0.152
Mof_N 	N 	0.95413	0.49349	0.80389	-0.23
Mof_N 	N 	0.04557	0.49365	0.70423	-0.229
Mof_N 	N 	0.04791	0.57951	0.60835	-0.154
Mof_N 	N 	0.96856	0.3053	0.74306	-0.259
Mof_N 	N 	0.96404	0.53386	0.72092	-0.262
Mof_N 	N 	0.02885	0.29063	0.94147	-0.226
Mof_N 	N 	0.00897	0.23885	0.79317	-0.227
Mof_N 	N 	0.02867	0.29111	0.84971	-0.151
Mof_N 	N 	0.01182	0.3267	0.79658	-0.15
Mof_N 	N 	0.02258	0.35356	0.82256	-0.152
Mof_N 	N 	0.99349	0.45413	0.74849	-0.23
Mof_N 	N 	0.99365	0.54557	0.75655	-0.229
Mof_N 	N 	0.07951	0.54791	0.76423	-0.154
Mof_N 	N 	0.24306	0.98308	0.46856	-0.259
Mof_N 	N 	0.22092	0.78118	0.46404	-0.262
Mof_N 	N 	0.44147	0.73905	0.52885	-0.226
Mof_N 	N 	0.29317	0.95901	0.50897	-0.227
Mof_N 	N 	0.34971	0.83051	0.52867	-0.151
Mof_N 	N 	0.29658	0.8649	0.51182	-0.15
Mof_N 	N 	0.32256	0.8013	0.52258	-0.152
Mof_N 	N 	0.24849	0.80389	0.49349	-0.23
Mof_N 	N 	0.25655	0.70423	0.49365	-0.229
Mof_N 	N 	0.26423	0.60835	0.57951	-0.154
Mof_N 	N 	0.48308	0.74306	0.3053	-0.259
Mof_N 	N 	0.28118	0.72092	0.53386	-0.262
Mof_N 	N 	0.23905	0.94147	0.29063	-0.226
Mof_N 	N 	0.45901	0.79317	0.23885	-0.227
Mof_N 	N 	0.33051	0.84971	0.29111	-0.151
Mof_N 	N 	0.3649	0.79658	0.3267	-0.15
Mof_N 	N 	0.3013	0.82256	0.35356	-0.152
Mof_N 	N 	0.30389	0.74849	0.45413	-0.23
Mof_N 	N 	0.20423	0.75655	0.54557	-0.229
Mof_N 	N 	0.10835	0.76423	0.54791	-0.154
Mof_N 	N 	0.48308	0.46856	0.74306	-0.259
Mof_N 	N 	0.28118	0.46404	0.72092	-0.262
Mof_N 	N 	0.23905	0.52885	0.94147	-0.226
Mof_N 	N 	0.45901	0.50897	0.79317	-0.227
Mof_N 	N 	0.33051	0.52867	0.84971	-0.151
Mof_N 	N 	0.3649	0.51182	0.79658	-0.15
Mof_N 	N 	0.3013	0.52258	0.82256	-0.152
Mof_N 	N 	0.30389	0.49349	0.74849	-0.23
Mof_N 	N 	0.20423	0.49365	0.75655	-0.229
Mof_N 	N 	0.10835	0.57951	0.76423	-0.154
Mof_N 	N 	0.24306	0.3053	0.98308	-0.259
Mof_N 	N 	0.22092	0.53386	0.78118	-0.262
Mof_N 	N 	0.44147	0.29063	0.73905	-0.226
Mof_N 	N 	0.29317	0.23885	0.95901	-0.227
Mof_N 	N 	0.34971	0.29111	0.83051	-0.151
Mof_N 	N 	0.29658	0.3267	0.8649	-0.15
Mof_N 	N 	0.32256	0.35356	0.8013	-0.152
Mof_N 	N 	0.24849	0.45413	0.80389	-0.23
Mof_N 	N 	0.25655	0.54557	0.70423	-0.229
Mof_N 	N 	0.26423	0.54791	0.60835	-0.154
Mof_N 	N 	0.96856	0.98308	0.3053	-0.259
Mof_N 	N 	0.96404	0.78118	0.53386	-0.262
Mof_N 	N 	0.02885	0.73905	0.29063	-0.226
Mof_N 	N 	0.00897	0.95901	0.23885	-0.227
Mof_N 	N 	0.02867	0.83051	0.29111	-0.151
Mof_N 	N 	0.01182	0.8649	0.3267	-0.15
Mof_N 	N 	0.02258	0.8013	0.35356	-0.152
Mof_N 	N 	0.99349	0.80389	0.45413	-0.23
Mof_N 	N 	0.99365	0.70423	0.54557	-0.229
Mof_N 	N 	0.07951	0.60835	0.54791	-0.154
Mof_N 	N 	0.8053	0.74306	0.46856	-0.259
Mof_N 	N 	0.03386	0.72092	0.46404	-0.262
Mof_N 	N 	0.79063	0.94147	0.52885	-0.226
Mof_N 	N 	0.73885	0.79317	0.50897	-0.227
Mof_N 	N 	0.79111	0.84971	0.52867	-0.151
Mof_N 	N 	0.8267	0.79658	0.51182	-0.15
Mof_N 	N 	0.85356	0.82256	0.52258	-0.152
Mof_N 	N 	0.95413	0.74849	0.49349	-0.23
Mof_N 	N 	0.04557	0.75655	0.49365	-0.229
Mof_N 	N 	0.04791	0.76423	0.57951	-0.154
Mof_N 	N 	0.24306	0.46856	0.3053	-0.259
Mof_N 	N 	0.22092	0.46404	0.53386	-0.262
Mof_N 	N 	0.44147	0.52885	0.29063	-0.226
Mof_N 	N 	0.29317	0.50897	0.23885	-0.227
Mof_N 	N 	0.34971	0.52867	0.29111	-0.151
Mof_N 	N 	0.29658	0.51182	0.3267	-0.15
Mof_N 	N 	0.32256	0.52258	0.35356	-0.152
Mof_N 	N 	0.24849	0.49349	0.45413	-0.23
Mof_N 	N 	0.25655	0.49365	0.54557	-0.229
Mof_N 	N 	0.26423	0.57951	0.54791	-0.154
Mof_N 	N 	0.48308	0.3053	0.46856	-0.259
Mof_N 	N 	0.28118	0.53386	0.46404	-0.262
Mof_N 	N 	0.23905	0.29063	0.52885	-0.226
Mof_N 	N 	0.45901	0.23885	0.50897	-0.227
Mof_N 	N 	0.33051	0.29111	0.52867	-0.151
Mof_N 	N 	0.3649	0.3267	0.51182	-0.15
Mof_N 	N 	0.3013	0.35356	0.52258	-0.152
Mof_N 	N 	0.30389	0.45413	0.49349	-0.23
Mof_N 	N 	0.20423	0.54557	0.49365	-0.229
Mof_N 	N 	0.10835	0.54791	0.57951	-0.154
Mof_N 	N 	0.8053	0.98308	0.74306	-0.259
Mof_N 	N 	0.03386	0.78118	0.72092	-0.262
Mof_N 	N 	0.79063	0.73905	0.94147	-0.226
Mof_N 	N 	0.73885	0.95901	0.79317	-0.227
Mof_N 	N 	0.79111	0.83051	0.84971	-0.151
Mof_N 	N 	0.8267	0.8649	0.79658	-0.15
Mof_N 	N 	0.85356	0.8013	0.82256	-0.152
Mof_N 	N 	0.95413	0.80389	0.74849	-0.23
Mof_N 	N 	0.04557	0.70423	0.75655	-0.229
Mof_N 	N 	0.04791	0.60835	0.76423	-0.154
Mof_N 	N 	0.96856	0.74306	0.98308	-0.259
Mof_N 	N 	0.96404	0.72092	0.78118	-0.262
Mof_N 	N 	0.02885	0.94147	0.73905	-0.226
Mof_N 	N 	0.00897	0.79317	0.95901	-0.227
Mof_N 	N 	0.02867	0.84971	0.83051	-0.151
Mof_N 	N 	0.01182	0.79658	0.8649	-0.15
Mof_N 	N 	0.02258	0.82256	0.8013	-0.152
Mof_N 	N 	0.99349	0.74849	0.80389	-0.23
Mof_N 	N 	0.99365	0.75655	0.70423	-0.229
Mof_N 	N 	0.07951	0.76423	0.60835	-0.154
Mof_N 	N 	0.46856	0.8053	0.48308	-0.259
Mof_N 	N 	0.46404	0.03386	0.28118	-0.262
Mof_N 	N 	0.52885	0.79063	0.23905	-0.226
Mof_N 	N 	0.50897	0.73885	0.45901	-0.227
Mof_N 	N 	0.52867	0.79111	0.33051	-0.151
Mof_N 	N 	0.51182	0.8267	0.3649	-0.15
Mof_N 	N 	0.52258	0.85356	0.3013	-0.152
Mof_N 	N 	0.49349	0.95413	0.30389	-0.23
Mof_N 	N 	0.49365	0.04557	0.20423	-0.229
Mof_N 	N 	0.57951	0.04791	0.10835	-0.154
Mof_N 	N 	0.3053	0.96856	0.24306	-0.259
Mof_N 	N 	0.53386	0.96404	0.22092	-0.262
Mof_N 	N 	0.29063	0.02885	0.44147	-0.226
Mof_N 	N 	0.23885	0.00897	0.29317	-0.227
Mof_N 	N 	0.29111	0.02867	0.34971	-0.151
Mof_N 	N 	0.3267	0.01182	0.29658	-0.15
Mof_N 	N 	0.35356	0.02258	0.32256	-0.152
Mof_N 	N 	0.45413	0.99349	0.24849	-0.23
Mof_N 	N 	0.54557	0.99365	0.25655	-0.229
Mof_N 	N 	0.54791	0.07951	0.26423	-0.154
Mof_N 	N 	0.98308	0.24306	0.96856	-0.259
Mof_N 	N 	0.78118	0.22092	0.96404	-0.262
Mof_N 	N 	0.73905	0.44147	0.02885	-0.226
Mof_N 	N 	0.95901	0.29317	0.00897	-0.227
Mof_N 	N 	0.83051	0.34971	0.02867	-0.151
Mof_N 	N 	0.8649	0.29658	0.01182	-0.15
Mof_N 	N 	0.8013	0.32256	0.02258	-0.152
Mof_N 	N 	0.80389	0.24849	0.99349	-0.23
Mof_N 	N 	0.70423	0.25655	0.99365	-0.229
Mof_N 	N 	0.60835	0.26423	0.07951	-0.154
Mof_N 	N 	0.74306	0.48308	0.8053	-0.259
Mof_N 	N 	0.72092	0.28118	0.03386	-0.262
Mof_N 	N 	0.94147	0.23905	0.79063	-0.226
Mof_N 	N 	0.79317	0.45901	0.73885	-0.227
Mof_N 	N 	0.84971	0.33051	0.79111	-0.151
Mof_N 	N 	0.79658	0.3649	0.8267	-0.15
Mof_N 	N 	0.82256	0.3013	0.85356	-0.152
Mof_N 	N 	0.74849	0.30389	0.95413	-0.23
Mof_N 	N 	0.75655	0.20423	0.04557	-0.229
Mof_N 	N 	0.76423	0.10835	0.04791	-0.154
Mof_N 	N 	0.46856	0.48308	0.24306	-0.259
Mof_N 	N 	0.46404	0.28118	0.22092	-0.262
Mof_N 	N 	0.52885	0.23905	0.44147	-0.226
Mof_N 	N 	0.50897	0.45901	0.29317	-0.227
Mof_N 	N 	0.52867	0.33051	0.34971	-0.151
Mof_N 	N 	0.51182	0.3649	0.29658	-0.15
Mof_N 	N 	0.52258	0.3013	0.32256	-0.152
Mof_N 	N 	0.49349	0.30389	0.24849	-0.23
Mof_N 	N 	0.49365	0.20423	0.25655	-0.229
Mof_N 	N 	0.57951	0.10835	0.26423	-0.154
Mof_N 	N 	0.3053	0.24306	0.48308	-0.259
Mof_N 	N 	0.53386	0.22092	0.28118	-0.262
Mof_N 	N 	0.29063	0.44147	0.23905	-0.226
Mof_N 	N 	0.23885	0.29317	0.45901	-0.227
Mof_N 	N 	0.29111	0.34971	0.33051	-0.151
Mof_N 	N 	0.3267	0.29658	0.3649	-0.15
Mof_N 	N 	0.35356	0.32256	0.3013	-0.152
Mof_N 	N 	0.45413	0.24849	0.30389	-0.23
Mof_N 	N 	0.54557	0.25655	0.20423	-0.229
Mof_N 	N 	0.54791	0.26423	0.10835	-0.154
Mof_N 	N 	0.98308	0.96856	0.8053	-0.259
Mof_N 	N 	0.78118	0.96404	0.03386	-0.262
Mof_N 	N 	0.73905	0.02885	0.79063	-0.226
Mof_N 	N 	0.95901	0.00897	0.73885	-0.227
Mof_N 	N 	0.83051	0.02867	0.79111	-0.151
Mof_N 	N 	0.8649	0.01182	0.8267	-0.15
Mof_N 	N 	0.8013	0.02258	0.85356	-0.152
Mof_N 	N 	0.80389	0.99349	0.95413	-0.23
Mof_N 	N 	0.70423	0.99365	0.04557	-0.229
Mof_N 	N 	0.60835	0.07951	0.04791	-0.154
Mof_N 	N 	0.74306	0.8053	0.96856	-0.259
Mof_N 	N 	0.72092	0.03386	0.96404	-0.262
Mof_N 	N 	0.94147	0.79063	0.02885	-0.226
Mof_N 	N 	0.79317	0.73885	0.00897	-0.227
Mof_N 	N 	0.84971	0.79111	0.02867	-0.151
Mof_N 	N 	0.79658	0.8267	0.01182	-0.15
Mof_N 	N 	0.82256	0.85356	0.02258	-0.152
Mof_N 	N 	0.74849	0.95413	0.99349	-0.23
Mof_N 	N 	0.75655	0.04557	0.99365	-0.229
Mof_N 	N 	0.76423	0.04791	0.07951	-0.154
Mof_N 	N 	0.46856	0.24306	0.8053	-0.259
Mof_N 	N 	0.46404	0.22092	0.03386	-0.262
Mof_N 	N 	0.52885	0.44147	0.79063	-0.226
Mof_N 	N 	0.50897	0.29317	0.73885	-0.227
Mof_N 	N 	0.52867	0.34971	0.79111	-0.151
Mof_N 	N 	0.51182	0.29658	0.8267	-0.15
Mof_N 	N 	0.52258	0.32256	0.85356	-0.152
Mof_N 	N 	0.49349	0.24849	0.95413	-0.23
Mof_N 	N 	0.49365	0.25655	0.04557	-0.229
Mof_N 	N 	0.57951	0.26423	0.04791	-0.154
Mof_N 	N 	0.3053	0.48308	0.96856	-0.259
Mof_N 	N 	0.53386	0.28118	0.96404	-0.262
Mof_N 	N 	0.29063	0.23905	0.02885	-0.226
Mof_N 	N 	0.23885	0.45901	0.00897	-0.227
Mof_N 	N 	0.29111	0.33051	0.02867	-0.151
Mof_N 	N 	0.3267	0.3649	0.01182	-0.15
Mof_N 	N 	0.35356	0.3013	0.02258	-0.152
Mof_N 	N 	0.45413	0.30389	0.99349	-0.23
Mof_N 	N 	0.54557	0.20423	0.99365	-0.229
Mof_N 	N 	0.54791	0.10835	0.07951	-0.154
Mof_N 	N 	0.98308	0.8053	0.24306	-0.259
Mof_N 	N 	0.78118	0.03386	0.22092	-0.262
Mof_N 	N 	0.73905	0.79063	0.44147	-0.226
Mof_N 	N 	0.95901	0.73885	0.29317	-0.227
Mof_N 	N 	0.83051	0.79111	0.34971	-0.151
Mof_N 	N 	0.8649	0.8267	0.29658	-0.15
Mof_N 	N 	0.8013	0.85356	0.32256	-0.152
Mof_N 	N 	0.80389	0.95413	0.24849	-0.23
Mof_N 	N 	0.70423	0.04557	0.25655	-0.229
Mof_N 	N 	0.60835	0.04791	0.26423	-0.154
Mof_N 	N 	0.74306	0.96856	0.48308	-0.259
Mof_N 	N 	0.72092	0.96404	0.28118	-0.262
Mof_N 	N 	0.94147	0.02885	0.23905	-0.226
Mof_N 	N 	0.79317	0.00897	0.45901	-0.227
Mof_N 	N 	0.84971	0.02867	0.33051	-0.151
Mof_N 	N 	0.79658	0.01182	0.3649	-0.15
Mof_N 	N 	0.82256	0.02258	0.3013	-0.152
Mof_N 	N 	0.74849	0.99349	0.30389	-0.23
Mof_N 	N 	0.75655	0.99365	0.20423	-0.229
Mof_N 	N 	0.76423	0.07951	0.10835	-0.154
Mof_N 	N 	0.1947	0.53144	0.01692	-0.259
Mof_N 	N 	0.96614	0.53596	0.21882	-0.262
Mof_N 	N 	0.20937	0.47115	0.26095	-0.226
Mof_N 	N 	0.26115	0.49103	0.04099	-0.227
Mof_N 	N 	0.20889	0.47133	0.16949	-0.151
Mof_N 	N 	0.1733	0.48818	0.1351	-0.15
Mof_N 	N 	0.14644	0.47742	0.1987	-0.152
Mof_N 	N 	0.04587	0.50651	0.19611	-0.23
Mof_N 	N 	0.95443	0.50635	0.29577	-0.229
Mof_N 	N 	0.95209	0.42049	0.39165	-0.154
Mof_N 	N 	0.03144	0.6947	0.25694	-0.259
Mof_N 	N 	0.03596	0.46614	0.27908	-0.262
Mof_N 	N 	0.97115	0.70937	0.05853	-0.226
Mof_N 	N 	0.99103	0.76115	0.20683	-0.227
Mof_N 	N 	0.97133	0.70889	0.15029	-0.151
Mof_N 	N 	0.98818	0.6733	0.20342	-0.15
Mof_N 	N 	0.97742	0.64644	0.17744	-0.152
Mof_N 	N 	0.00651	0.54587	0.25151	-0.23
Mof_N 	N 	0.00635	0.45443	0.24345	-0.229
Mof_N 	N 	0.92049	0.45209	0.23577	-0.154
Mof_N 	N 	0.75694	0.01692	0.53144	-0.259
Mof_N 	N 	0.77908	0.21882	0.53596	-0.262
Mof_N 	N 	0.55853	0.26095	0.47115	-0.226
Mof_N 	N 	0.70683	0.04099	0.49103	-0.227
Mof_N 	N 	0.65029	0.16949	0.47133	-0.151
Mof_N 	N 	0.70342	0.1351	0.48818	-0.15
Mof_N 	N 	0.67744	0.1987	0.47742	-0.152
Mof_N 	N 	0.75151	0.19611	0.50651	-0.23
Mof_N 	N 	0.74345	0.29577	0.50635	-0.229
Mof_N 	N 	0.73577	0.39165	0.42049	-0.154
Mof_N 	N 	0.51692	0.25694	0.6947	-0.259
Mof_N 	N 	0.71882	0.27908	0.46614	-0.262
Mof_N 	N 	0.76095	0.05853	0.70937	-0.226
Mof_N 	N 	0.54099	0.20683	0.76115	-0.227
Mof_N 	N 	0.66949	0.15029	0.70889	-0.151
Mof_N 	N 	0.6351	0.20342	0.6733	-0.15
Mof_N 	N 	0.6987	0.17744	0.64644	-0.152
Mof_N 	N 	0.69611	0.25151	0.54587	-0.23
Mof_N 	N 	0.79577	0.24345	0.45443	-0.229
Mof_N 	N 	0.89165	0.23577	0.45209	-0.154
Mof_N 	N 	0.51692	0.53144	0.25694	-0.259
Mof_N 	N 	0.71882	0.53596	0.27908	-0.262
Mof_N 	N 	0.76095	0.47115	0.05853	-0.226
Mof_N 	N 	0.54099	0.49103	0.20683	-0.227
Mof_N 	N 	0.66949	0.47133	0.15029	-0.151
Mof_N 	N 	0.6351	0.48818	0.20342	-0.15
Mof_N 	N 	0.6987	0.47742	0.17744	-0.152
Mof_N 	N 	0.69611	0.50651	0.25151	-0.23
Mof_N 	N 	0.79577	0.50635	0.24345	-0.229
Mof_N 	N 	0.89165	0.42049	0.23577	-0.154
Mof_N 	N 	0.75694	0.6947	0.01692	-0.259
Mof_N 	N 	0.77908	0.46614	0.21882	-0.262
Mof_N 	N 	0.55853	0.70937	0.26095	-0.226
Mof_N 	N 	0.70683	0.76115	0.04099	-0.227
Mof_N 	N 	0.65029	0.70889	0.16949	-0.151
Mof_N 	N 	0.70342	0.6733	0.1351	-0.15
Mof_N 	N 	0.67744	0.64644	0.1987	-0.152
Mof_N 	N 	0.75151	0.54587	0.19611	-0.23
Mof_N 	N 	0.74345	0.45443	0.29577	-0.229
Mof_N 	N 	0.73577	0.45209	0.39165	-0.154
Mof_N 	N 	0.03144	0.01692	0.6947	-0.259
Mof_N 	N 	0.03596	0.21882	0.46614	-0.262
Mof_N 	N 	0.97115	0.26095	0.70937	-0.226
Mof_N 	N 	0.99103	0.04099	0.76115	-0.227
Mof_N 	N 	0.97133	0.16949	0.70889	-0.151
Mof_N 	N 	0.98818	0.1351	0.6733	-0.15
Mof_N 	N 	0.97742	0.1987	0.64644	-0.152
Mof_N 	N 	0.00651	0.19611	0.54587	-0.23
Mof_N 	N 	0.00635	0.29577	0.45443	-0.229
Mof_N 	N 	0.92049	0.39165	0.45209	-0.154
Mof_N 	N 	0.1947	0.25694	0.53144	-0.259
Mof_N 	N 	0.96614	0.27908	0.53596	-0.262
Mof_N 	N 	0.20937	0.05853	0.47115	-0.226
Mof_N 	N 	0.26115	0.20683	0.49103	-0.227
Mof_N 	N 	0.20889	0.15029	0.47133	-0.151
Mof_N 	N 	0.1733	0.20342	0.48818	-0.15
Mof_N 	N 	0.14644	0.17744	0.47742	-0.152
Mof_N 	N 	0.04587	0.25151	0.50651	-0.23
Mof_N 	N 	0.95443	0.24345	0.50635	-0.229
Mof_N 	N 	0.95209	0.23577	0.42049	-0.154
Mof_N 	N 	0.75694	0.53144	0.6947	-0.259
Mof_N 	N 	0.77908	0.53596	0.46614	-0.262
Mof_N 	N 	0.55853	0.47115	0.70937	-0.226
Mof_N 	N 	0.70683	0.49103	0.76115	-0.227
Mof_N 	N 	0.65029	0.47133	0.70889	-0.151
Mof_N 	N 	0.70342	0.48818	0.6733	-0.15
Mof_N 	N 	0.67744	0.47742	0.64644	-0.152
Mof_N 	N 	0.75151	0.50651	0.54587	-0.23
Mof_N 	N 	0.74345	0.50635	0.45443	-0.229
Mof_N 	N 	0.73577	0.42049	0.45209	-0.154
Mof_N 	N 	0.51692	0.6947	0.53144	-0.259
Mof_N 	N 	0.71882	0.46614	0.53596	-0.262
Mof_N 	N 	0.76095	0.70937	0.47115	-0.226
Mof_N 	N 	0.54099	0.76115	0.49103	-0.227
Mof_N 	N 	0.66949	0.70889	0.47133	-0.151
Mof_N 	N 	0.6351	0.6733	0.48818	-0.15
Mof_N 	N 	0.6987	0.64644	0.47742	-0.152
Mof_N 	N 	0.69611	0.54587	0.50651	-0.23
Mof_N 	N 	0.79577	0.45443	0.50635	-0.229
Mof_N 	N 	0.89165	0.45209	0.42049	-0.154
Mof_N 	N 	0.1947	0.01692	0.25694	-0.259
Mof_N 	N 	0.96614	0.21882	0.27908	-0.262
Mof_N 	N 	0.20937	0.26095	0.05853	-0.226
Mof_N 	N 	0.26115	0.04099	0.20683	-0.227
Mof_N 	N 	0.20889	0.16949	0.15029	-0.151
Mof_N 	N 	0.1733	0.1351	0.20342	-0.15
Mof_N 	N 	0.14644	0.1987	0.17744	-0.152
Mof_N 	N 	0.04587	0.19611	0.25151	-0.23
Mof_N 	N 	0.95443	0.29577	0.24345	-0.229
Mof_N 	N 	0.95209	0.39165	0.23577	-0.154
Mof_N 	N 	0.03144	0.25694	0.01692	-0.259
Mof_N 	N 	0.03596	0.27908	0.21882	-0.262
Mof_N 	N 	0.97115	0.05853	0.26095	-0.226
Mof_N 	N 	0.99103	0.20683	0.04099	-0.227
Mof_N 	N 	0.97133	0.15029	0.16949	-0.151
Mof_N 	N 	0.98818	0.20342	0.1351	-0.15
Mof_N 	N 	0.97742	0.17744	0.1987	-0.152
Mof_N 	N 	0.00651	0.25151	0.19611	-0.23
Mof_N 	N 	0.00635	0.24345	0.29577	-0.229
Mof_N 	N 	0.92049	0.23577	0.39165	-0.154
_end
