data_functionalizedCrystal
_audit_creation_method	'EQeq! by Chris Wilmer'
_symmetry_space_group_name_H-M	'P1'
_symmetry_Int_Tables_number	1
_symmetry_cell_setting	triclinic
loop_
_symmetry_equiv_pos_as_xyz
  x,y,z
_cell_length_a	8.4735
_cell_length_b	10.8836
_cell_length_c	11.1301
_cell_angle_alpha	64.333
_cell_angle_beta	80.33
_cell_angle_gamma	73.76
loop_
_atom_site_label
_atom_site_type_symbol
_atom_site_fract_x
_atom_site_fract_y
_atom_site_fract_z
_atom_site_charge
Mof_Nd	Nd	0.25174	0.99682	0.49731	2.215
Mof_Nd	Nd	0.74826	0.00318	0.50269	2.215
Mof_H 	H 	0.2504	0.0512	0.9767	0.173
Mof_H 	H 	0.2414	0.433	0.6758	0.159
Mof_H 	H 	0.9048	0.3919	0.9856	0.157
Mof_H 	H 	0.9831	0.0307	0.1251	0.189
Mof_H 	H 	0.8765	0.1681	0.1442	0.156
Mof_H 	H 	0.468	0.2422	0.6829	0.159
Mof_H 	H 	0.4887	0.0963	0.8111	0.181
Mof_H 	H 	0.9382	0.6241	0.8287	0.169
Mof_H 	H 	0.0714	0.6414	0.7061	0.127
Mof_H 	H 	0.7496	0.9488	0.0233	0.174
Mof_H 	H 	0.7586	0.567	0.3242	0.16
Mof_H 	H 	0.0952	0.6081	0.0144	0.158
Mof_H 	H 	0.0169	0.9693	0.8749	0.19
Mof_H 	H 	0.1235	0.8319	0.8558	0.156
Mof_H 	H 	0.532	0.7578	0.3171	0.159
Mof_H 	H 	0.5113	0.9037	0.1889	0.181
Mof_H 	H 	0.0618	0.3759	0.1713	0.169
Mof_H 	H 	0.9286	0.3586	0.2939	0.127
Mof_C 	C 	0.0661	0.2073	0.0016	0.409
Mof_C 	C 	0.2021	0.1488	0.9372	-0.446
Mof_C 	C 	0.2669	0.233	0.8156	0.408
Mof_C 	C 	0.1963	0.3757	0.7588	-0.445
Mof_C 	C 	0.0618	0.4363	0.8203	0.39
Mof_C 	C 	0.997	0.3514	0.9423	-0.454
Mof_C 	C 	0.9902	0.1169	0.1316	-0.601
Mof_C 	C 	0.0829	0.0756	0.2525	0.532
Mof_C 	C 	0.4103	0.1686	0.7444	-0.578
Mof_C 	C 	0.3623	0.1023	0.6652	0.555
Mof_C 	C 	0.9841	0.5915	0.7568	-0.547
Mof_C 	C 	0.8486	0.6327	0.6637	0.546
Mof_C 	C 	0.9339	0.7927	0.9984	0.409
Mof_C 	C 	0.7979	0.8512	0.0628	-0.446
Mof_C 	C 	0.7331	0.767	0.1844	0.408
Mof_C 	C 	0.8037	0.6243	0.2412	-0.445
Mof_C 	C 	0.9382	0.5637	0.1797	0.39
Mof_C 	C 	0.003	0.6486	0.0577	-0.454
Mof_C 	C 	0.0098	0.8831	0.8684	-0.601
Mof_C 	C 	0.9171	0.9244	0.7475	0.532
Mof_C 	C 	0.5897	0.8314	0.2556	-0.578
Mof_C 	C 	0.6377	0.8977	0.3348	0.555
Mof_C 	C 	0.0159	0.4085	0.2432	-0.547
Mof_C 	C 	0.1514	0.3673	0.3363	0.546
Mof_O 	O 	0.0032	0.0485	0.367	-0.734
Mof_O 	O 	0.238	0.0592	0.2481	-0.511
Mof_O 	O 	0.2173	0.0902	0.6742	-0.526
Mof_O 	O 	0.4696	0.0626	0.587	-0.736
Mof_O 	O 	0.7784	0.7593	0.6153	-0.598
Mof_O 	O 	0.8111	0.5409	0.643	-0.351
Mof_O 	O 	0.9968	0.9515	0.633	-0.734
Mof_O 	O 	0.762	0.9408	0.7519	-0.511
Mof_O 	O 	0.7827	0.9098	0.3258	-0.526
Mof_O 	O 	0.5304	0.9374	0.413	-0.736
Mof_O 	O 	0.2216	0.2407	0.3847	-0.598
Mof_O 	O 	0.1889	0.4591	0.357	-0.351
_end
