# CIF file generated by openbabel 3.1.0, see https://openbabel.org
data_I
_chemical_name_common 'image0'
_cell_length_a 10.694
_cell_length_b 12.092
_cell_length_c 16.108
_cell_angle_alpha 90
_cell_angle_beta 90
_cell_angle_gamma 90
_space_group_name_H-M_alt 'P 1'
_space_group_name_Hall 'P 1'
loop_
    _symmetry_equiv_pos_as_xyz
    x,y,z
loop_
    _atom_site_label
    _atom_site_type_symbol
    _atom_site_fract_x
    _atom_site_fract_y
    _atom_site_fract_z
    _atom_site_occupancy
    C1       C        0.16700    0.60790    0.01130    1.000
    C2       C        0.41710    0.34000    0.16100    1.000
    N1       N        0.12380    0.42790    0.18710    1.000
    N2       N        0.40270    0.42680    0.13490    1.000
    N3       N        0.21470    0.61730    0.07300    1.000
    Mn1      Mn       0.27545    0.55427    0.19451    1.000
    N4       N        0.42130    0.23780    0.18640    1.000
    N5       N        0.10140    0.60730    0.94350    1.000
    N6       N        0.00190    0.26680    0.15920    1.000
    C3       C        0.06410    0.35480    0.17960    1.000
    C4       C        0.92150    0.21860    0.20980    1.000
    N7       N        0.85160    0.17060    0.24340    1.000
    N8       N        0.16840    0.51760    0.81610    1.000
    C5       C        0.14240    0.55750    0.87680    1.000
    N9       N        0.56520    0.17000    0.29310    1.000
    C6       C        0.50130    0.20670    0.24210    1.000
    C7       C        0.33300    0.39210    0.51130    1.000
    C8       C        0.08290    0.66000    0.66100    1.000
    N10      N        0.37620    0.57210    0.68710    1.000
    N11      N        0.09730    0.57320    0.63490    1.000
    N12      N        0.28530    0.38270    0.57300    1.000
    Mn2      Mn       0.22455    0.44573    0.69451    1.000
    N13      N        0.07870    0.76220    0.68640    1.000
    N14      N        0.39860    0.39270    0.44350    1.000
    N15      N        0.49810    0.73320    0.65920    1.000
    C9       C        0.43590    0.64520    0.67960    1.000
    C10      C        0.57850    0.78140    0.70980    1.000
    N16      N        0.64840    0.82940    0.74340    1.000
    N17      N        0.33160    0.48240    0.31610    1.000
    C11      C        0.35760    0.44250    0.37680    1.000
    N18      N        0.93480    0.83000    0.79310    1.000
    C12      C        0.99870    0.79330    0.74210    1.000
    C13      C        0.83300    0.10790    0.48870    1.000
    C14      C        0.58290    0.84000    0.33900    1.000
    N19      N        0.87620    0.92790    0.31290    1.000
    N20      N        0.59730    0.92680    0.36510    1.000
    N21      N        0.78530    0.11730    0.42700    1.000
    Mn3      Mn       0.72455    0.05427    0.30549    1.000
    N22      N        0.57870    0.73780    0.31360    1.000
    N23      N        0.89860    0.10730    0.55650    1.000
    N24      N        0.99810    0.76680    0.34080    1.000
    C15      C        0.93590    0.85480    0.32040    1.000
    C16      C        0.07850    0.71860    0.29020    1.000
    N25      N        0.14840    0.67060    0.25660    1.000
    N26      N        0.83160    0.01760    0.68390    1.000
    C17      C        0.85760    0.05750    0.62320    1.000
    N27      N        0.43480    0.67000    0.20690    1.000
    C18      C        0.49870    0.70670    0.25790    1.000
    C19      C        0.66700    0.89210    0.98870    1.000
    C20      C        0.91710    0.16000    0.83900    1.000
    N28      N        0.62380    0.07210    0.81290    1.000
    N29      N        0.90270    0.07320    0.86510    1.000
    N30      N        0.71470    0.88270    0.92700    1.000
    Mn4      Mn       0.77545    0.94573    0.80549    1.000
    N31      N        0.92130    0.26220    0.81360    1.000
    N32      N        0.60140    0.89270    0.05650    1.000
    N33      N        0.50190    0.23320    0.84080    1.000
    C21      C        0.56410    0.14520    0.82040    1.000
    C22      C        0.42150    0.28140    0.79020    1.000
    N34      N        0.35160    0.32940    0.75660    1.000
    N35      N        0.66840    0.98240    0.18390    1.000
    C23      C        0.64240    0.94250    0.12320    1.000
    N36      N        0.06520    0.33000    0.70690    1.000
    C24      C        0.00130    0.29330    0.75790    1.000
