data_functionalizedCrystal
_audit_creation_method	'EQeq! by Chris Wilmer'
_symmetry_space_group_name_H-M	'P1'
_symmetry_Int_Tables_number	1
_symmetry_cell_setting	triclinic
loop_
_symmetry_equiv_pos_as_xyz
  x,y,z
_cell_length_a	12.243
_cell_length_b	12.243
_cell_length_c	12.243
_cell_angle_alpha	90
_cell_angle_beta	90
_cell_angle_gamma	90
loop_
_atom_site_label
_atom_site_type_symbol
_atom_site_fract_x
_atom_site_fract_y
_atom_site_fract_z
_atom_site_charge
Mof_Cd	Cd	0.125	0.125	0.125	0.308
Mof_Cd	Cd	0.125	0.625	0.625	0.308
Mof_Cd	Cd	0.625	0.125	0.625	0.308
Mof_Cd	Cd	0.625	0.625	0.125	0.308
Mof_Cd	Cd	0.875	0.375	0.375	0.308
Mof_Cd	Cd	0.875	0.875	0.875	0.308
Mof_Cd	Cd	0.375	0.375	0.875	0.308
Mof_Cd	Cd	0.375	0.875	0.375	0.308
Mof_C 	C 	0.0272	0.0272	0.0272	-0.077
Mof_C 	C 	0.0272	0.5272	0.5272	-0.077
Mof_C 	C 	0.5272	0.0272	0.5272	-0.077
Mof_C 	C 	0.5272	0.5272	0.0272	-0.077
Mof_C 	C 	0.7228	0.2228	0.5272	-0.077
Mof_C 	C 	0.7228	0.7228	0.0272	-0.077
Mof_C 	C 	0.2228	0.5272	0.7228	-0.077
Mof_C 	C 	0.2228	0.0272	0.2228	-0.077
Mof_C 	C 	0.7228	0.0272	0.7228	-0.077
Mof_C 	C 	0.5272	0.7228	0.2228	-0.077
Mof_C 	C 	0.0272	0.7228	0.7228	-0.077
Mof_C 	C 	0.7772	0.2772	0.4728	-0.077
Mof_C 	C 	0.7772	0.7772	0.9728	-0.077
Mof_C 	C 	0.9728	0.9728	0.9728	-0.077
Mof_C 	C 	0.9728	0.4728	0.4728	-0.077
Mof_C 	C 	0.4728	0.9728	0.4728	-0.077
Mof_C 	C 	0.4728	0.4728	0.9728	-0.077
Mof_C 	C 	0.2772	0.4728	0.7772	-0.077
Mof_C 	C 	0.2772	0.9728	0.2772	-0.077
Mof_C 	C 	0.7772	0.9728	0.7772	-0.077
Mof_C 	C 	0.4728	0.7772	0.2772	-0.077
Mof_C 	C 	0.9728	0.7772	0.7772	-0.077
Mof_C 	C 	0.2772	0.7772	0.4728	-0.077
Mof_C 	C 	0.2772	0.2772	0.9728	-0.077
Mof_C 	C 	0.7772	0.4728	0.2772	-0.077
Mof_C 	C 	0.4728	0.2772	0.7772	-0.077
Mof_C 	C 	0.9728	0.2772	0.2772	-0.077
Mof_C 	C 	0.2228	0.7228	0.5272	-0.077
Mof_C 	C 	0.2228	0.2228	0.0272	-0.077
Mof_C 	C 	0.7228	0.5272	0.2228	-0.077
Mof_C 	C 	0.5272	0.2228	0.7228	-0.077
Mof_C 	C 	0.0272	0.2228	0.2228	-0.077
_end
