# CIF file generated by openbabel 3.1.0, see https://openbabel.org
data_I
_chemical_name_common 'image0'
_cell_length_a 10.1318
_cell_length_b 16.1752
_cell_length_c 23.1015
_cell_angle_alpha 90
_cell_angle_beta 93.411
_cell_angle_gamma 90
_space_group_name_H-M_alt 'P 1'
_space_group_name_Hall 'P 1'
loop_
    _symmetry_equiv_pos_as_xyz
    x,y,z
loop_
    _atom_site_label
    _atom_site_type_symbol
    _atom_site_fract_x
    _atom_site_fract_y
    _atom_site_fract_z
    _atom_site_occupancy
    Cd1      Cd       0.68919    0.07902    0.73986    1.000
    Cd2      Cd       0.33278    0.99523    0.77087    1.000
    N1       N        0.37030    0.85800    0.78506    1.000
    N2       N        0.11530    0.01930    0.77397    1.000
    C1       C        0.99380    0.97220    0.68300    1.000
    O1       O        0.69940    0.85700    0.73471    1.000
    N3       N        0.35010    0.72070    0.77365    1.000
    N4       N        0.67350    0.05690    0.63949    1.000
    C2       C        0.07950    0.05720    0.82390    1.000
    N5       N        0.67000    0.01210    0.33260    1.000
    O2       O        0.29750    0.04940    0.86470    1.000
    C3       C        0.00260    0.01130    0.74060    1.000
    O3       O        0.53440    0.60770    0.73982    1.000
    N6       N        0.89680    0.04320    0.76611    1.000
    C4       C        0.29150    0.79100    0.78960    1.000
    C5       C        0.48500    0.82820    0.76530    1.000
    C6       C        0.98010    0.88790    0.67690    1.000
    H1       H        0.97640    0.85520    0.70990    1.000
    O4       O        0.73700    0.11830    0.84217    1.000
    C7       C        0.59350    0.88550    0.75340    1.000
    C8       C        0.18170    0.07210    0.87080    1.000
    C9       C        0.67270    0.02780    0.45410    1.000
    C10      C        0.67240    0.03720    0.51780    1.000
    C11      C        0.66670    0.98200    0.61450    1.000
    H2       H        0.66300    0.93580    0.63830    1.000
    C12      C        0.99980    0.02010    0.63350    1.000
    H3       H        0.00860    0.07710    0.63700    1.000
    C13      C        0.97850    0.89950    0.57390    1.000
    C14      C        0.66740    0.94660    0.36730    1.000
    H4       H        0.66530    0.89450    0.35030    1.000
    C15      C        0.66480    0.96980    0.55550    1.000
    H5       H        0.65850    0.91650    0.54050    1.000
    C16      C        0.15980    0.79430    0.81320    1.000
    C17      C        0.05960    0.73910    0.79350    1.000
    H6       H        0.07730    0.69950    0.76580    1.000
    C18      C        0.93580    0.74330    0.81460    1.000
    H7       H        0.87060    0.70610    0.80160    1.000
    C19      C        0.99300    0.98450    0.57920    1.000
    H8       H        0.99800    0.01720    0.54630    1.000
    C20      C        0.97150    0.85050    0.62270    1.000
    H9       H        0.96130    0.79360    0.61930    1.000
    C21      C        0.66750    0.95130    0.42680    1.000
    H10      H        0.66410    0.90320    0.44870    1.000
    C22      C        0.12910    0.85200    0.85390    1.000
    H11      H        0.19400    0.88890    0.86760    1.000
    C23      C        0.67740    0.08650    0.35860    1.000
    H12      H        0.68240    0.13340    0.33550    1.000
    C24      C        0.90840    0.80170    0.85460    1.000
    C25      C        0.67780    0.09650    0.41750    1.000
    H13      H        0.68160    0.14940    0.43330    1.000
    C26      C        0.68000    0.12180    0.60370    1.000
    H14      H        0.68550    0.17430    0.62000    1.000
    C27      C        0.00440    0.85670    0.87510    1.000
    H15      H        0.98560    0.89620    0.90270    1.000
    O5       O        0.78030    0.80050    0.87190    1.000
    C28      C        0.67920    0.11510    0.54470    1.000
    H16      H        0.68310    0.16250    0.52220    1.000
    O6       O        0.68170    0.70580    0.72554    1.000
    C29      C        0.47290    0.74360    0.75800    1.000
    C30      C        0.56920    0.68270    0.73930    1.000
    C31      C        0.94600    0.07200    0.81850    1.000
    O7       O        0.14520    0.10840    0.91644    1.000
    C32      C        0.96390    0.78620    0.50770    1.000
    H17      H        0.04670    0.76100    0.51990    1.000
    H18      H        0.94570    0.77660    0.46700    1.000
    H19      H        0.89460    0.76250    0.52890    1.000
    O8       O        0.90380    0.13400    0.90818    1.000
    O9       O        0.97060    0.87130    0.51819    1.000
    C33      C        0.85450    0.11070    0.85810    1.000
    C34      C        0.73760    0.86630    0.90530    1.000
    H20      H        0.78970    0.86830    0.94140    1.000
    H21      H        0.64630    0.85860    0.91280    1.000
    H22      H        0.74770    0.91720    0.88470    1.000
    O10      O        0.57480    0.96040    0.76162    1.000
    H23      H        0.98700    0.13200    0.90500    1.000
    Cd3      Cd       0.31081    0.57902    0.76014    1.000
    Cd4      Cd       0.66722    0.49523    0.72913    1.000
    N7       N        0.62970    0.35800    0.71494    1.000
    N8       N        0.88470    0.51930    0.72603    1.000
    C35      C        0.00620    0.47220    0.81700    1.000
    O11      O        0.30060    0.35700    0.76529    1.000
    N9       N        0.64990    0.22070    0.72635    1.000
    N10      N        0.32650    0.55690    0.86051    1.000
    C36      C        0.92050    0.55720    0.67610    1.000
    N11      N        0.33000    0.51210    0.16740    1.000
    O12      O        0.70250    0.54940    0.63530    1.000
    C37      C        0.99740    0.51130    0.75940    1.000
    O13      O        0.46560    0.10770    0.76018    1.000
    N12      N        0.10320    0.54320    0.73389    1.000
    C38      C        0.70850    0.29100    0.71040    1.000
    C39      C        0.51500    0.32820    0.73470    1.000
    C40      C        0.01990    0.38790    0.82310    1.000
    H24      H        0.02360    0.35520    0.79010    1.000
    O14      O        0.26300    0.61830    0.65783    1.000
    C41      C        0.40650    0.38550    0.74660    1.000
    C42      C        0.81830    0.57210    0.62920    1.000
    C43      C        0.32730    0.52780    0.04590    1.000
    C44      C        0.32760    0.53720    0.98220    1.000
    C45      C        0.33330    0.48200    0.88550    1.000
    H25      H        0.33700    0.43580    0.86170    1.000
    C46      C        0.00020    0.52010    0.86650    1.000
    H26      H        0.99140    0.57710    0.86300    1.000
    C47      C        0.02150    0.39950    0.92610    1.000
    C48      C        0.33260    0.44660    0.13270    1.000
    H27      H        0.33470    0.39450    0.14970    1.000
    C49      C        0.33520    0.46980    0.94450    1.000
    H28      H        0.34150    0.41650    0.95950    1.000
    C50      C        0.84020    0.29430    0.68680    1.000
    C51      C        0.94040    0.23910    0.70650    1.000
    H29      H        0.92270    0.19950    0.73420    1.000
    C52      C        0.06420    0.24330    0.68540    1.000
    H30      H        0.12940    0.20610    0.69840    1.000
    C53      C        0.00700    0.48450    0.92080    1.000
    H31      H        0.00200    0.51720    0.95370    1.000
    C54      C        0.02850    0.35050    0.87730    1.000
    H32      H        0.03870    0.29360    0.88070    1.000
    C55      C        0.33250    0.45130    0.07320    1.000
    H33      H        0.33590    0.40320    0.05130    1.000
    C56      C        0.87090    0.35200    0.64610    1.000
    H34      H        0.80600    0.38890    0.63240    1.000
    C57      C        0.32260    0.58650    0.14140    1.000
    H35      H        0.31760    0.63340    0.16450    1.000
    C58      C        0.09160    0.30170    0.64540    1.000
    C59      C        0.32220    0.59650    0.08250    1.000
    H36      H        0.31840    0.64940    0.06670    1.000
    C60      C        0.32000    0.62180    0.89630    1.000
    H37      H        0.31450    0.67430    0.88000    1.000
    C61      C        0.99560    0.35670    0.62490    1.000
    H38      H        0.01440    0.39620    0.59730    1.000
    O15      O        0.21970    0.30050    0.62810    1.000
    C62      C        0.32080    0.61510    0.95530    1.000
    H39      H        0.31690    0.66250    0.97780    1.000
    O16      O        0.31830    0.20580    0.77446    1.000
    C63      C        0.52710    0.24360    0.74200    1.000
    C64      C        0.43080    0.18270    0.76070    1.000
    C65      C        0.05400    0.57200    0.68150    1.000
    O17      O        0.85480    0.60840    0.58356    1.000
    C66      C        0.03610    0.28620    0.99230    1.000
    H40      H        0.95330    0.26100    0.98010    1.000
    H41      H        0.05430    0.27660    0.03300    1.000
    H42      H        0.10540    0.26250    0.97110    1.000
    O18      O        0.09620    0.63400    0.59182    1.000
    O19      O        0.02940    0.37130    0.98181    1.000
    C67      C        0.14550    0.61070    0.64190    1.000
    C68      C        0.26240    0.36630    0.59470    1.000
    H43      H        0.21030    0.36830    0.55860    1.000
    H44      H        0.35370    0.35860    0.58720    1.000
    H45      H        0.25230    0.41720    0.61530    1.000
    O20      O        0.42520    0.46040    0.73838    1.000
    H46      H        0.01300    0.63200    0.59500    1.000
    Cd5      Cd       0.31081    0.92098    0.26014    1.000
    Cd6      Cd       0.66722    0.00477    0.22913    1.000
    N13      N        0.62970    0.14200    0.21494    1.000
    N14      N        0.88470    0.98070    0.22603    1.000
    C69      C        0.00620    0.02780    0.31700    1.000
    O21      O        0.30060    0.14300    0.26529    1.000
    N15      N        0.64990    0.27930    0.22635    1.000
    N16      N        0.32650    0.94310    0.36051    1.000
    C70      C        0.92050    0.94280    0.17610    1.000
    N17      N        0.33000    0.98790    0.66740    1.000
    O22      O        0.70250    0.95060    0.13530    1.000
    C71      C        0.99740    0.98870    0.25940    1.000
    O23      O        0.46560    0.39230    0.26018    1.000
    N18      N        0.10320    0.95680    0.23389    1.000
    C72      C        0.70850    0.20900    0.21040    1.000
    C73      C        0.51500    0.17180    0.23470    1.000
    C74      C        0.01990    0.11210    0.32310    1.000
    H47      H        0.02360    0.14480    0.29010    1.000
    O24      O        0.26300    0.88170    0.15783    1.000
    C75      C        0.40650    0.11450    0.24660    1.000
    C76      C        0.81830    0.92790    0.12920    1.000
    C77      C        0.32730    0.97220    0.54590    1.000
    C78      C        0.32760    0.96280    0.48220    1.000
    C79      C        0.33330    0.01800    0.38550    1.000
    H48      H        0.33700    0.06420    0.36170    1.000
    C80      C        0.00020    0.97990    0.36650    1.000
    H49      H        0.99140    0.92290    0.36300    1.000
    C81      C        0.02150    0.10050    0.42610    1.000
    C82      C        0.33260    0.05340    0.63270    1.000
    H50      H        0.33470    0.10550    0.64970    1.000
    C83      C        0.33520    0.03020    0.44450    1.000
    H51      H        0.34150    0.08350    0.45950    1.000
    C84      C        0.84020    0.20570    0.18680    1.000
    C85      C        0.94040    0.26090    0.20650    1.000
    H52      H        0.92270    0.30050    0.23420    1.000
    C86      C        0.06420    0.25670    0.18540    1.000
    H53      H        0.12940    0.29390    0.19840    1.000
    C87      C        0.00700    0.01550    0.42080    1.000
    H54      H        0.00200    0.98280    0.45370    1.000
    C88      C        0.02850    0.14950    0.37730    1.000
    H55      H        0.03870    0.20640    0.38070    1.000
    C89      C        0.33250    0.04870    0.57320    1.000
    H56      H        0.33590    0.09680    0.55130    1.000
    C90      C        0.87090    0.14800    0.14610    1.000
    H57      H        0.80600    0.11110    0.13240    1.000
    C91      C        0.32260    0.91350    0.64140    1.000
    H58      H        0.31760    0.86660    0.66450    1.000
    C92      C        0.09160    0.19830    0.14540    1.000
    C93      C        0.32220    0.90350    0.58250    1.000
    H59      H        0.31840    0.85060    0.56670    1.000
    C94      C        0.32000    0.87820    0.39630    1.000
    H60      H        0.31450    0.82570    0.38000    1.000
    C95      C        0.99560    0.14330    0.12490    1.000
    H61      H        0.01440    0.10380    0.09730    1.000
    O25      O        0.21970    0.19950    0.12810    1.000
    C96      C        0.32080    0.88490    0.45530    1.000
    H62      H        0.31690    0.83750    0.47780    1.000
    O26      O        0.31830    0.29420    0.27446    1.000
    C97      C        0.52710    0.25640    0.24200    1.000
    C98      C        0.43080    0.31730    0.26070    1.000
    C99      C        0.05400    0.92800    0.18150    1.000
    O27      O        0.85480    0.89160    0.08356    1.000
    C100     C        0.03610    0.21380    0.49230    1.000
    H63      H        0.95330    0.23900    0.48010    1.000
    H64      H        0.05430    0.22340    0.53300    1.000
    H65      H        0.10540    0.23750    0.47110    1.000
    O28      O        0.09620    0.86600    0.09182    1.000
    O29      O        0.02940    0.12870    0.48181    1.000
    C101     C        0.14550    0.88930    0.14190    1.000
    C102     C        0.26240    0.13370    0.09470    1.000
    H66      H        0.21030    0.13170    0.05860    1.000
    H67      H        0.35370    0.14140    0.08720    1.000
    H68      H        0.25230    0.08280    0.11530    1.000
    O30      O        0.42520    0.03960    0.23838    1.000
    H69      H        0.01300    0.86800    0.09500    1.000
    Cd7      Cd       0.68919    0.42098    0.23986    1.000
    Cd8      Cd       0.33278    0.50477    0.27087    1.000
    N19      N        0.37030    0.64200    0.28506    1.000
    N20      N        0.11530    0.48070    0.27397    1.000
    C103     C        0.99380    0.52780    0.18300    1.000
    O31      O        0.69940    0.64300    0.23471    1.000
    N21      N        0.35010    0.77930    0.27365    1.000
    N22      N        0.67350    0.44310    0.13949    1.000
    C104     C        0.07950    0.44280    0.32390    1.000
    N23      N        0.67000    0.48790    0.83260    1.000
    O32      O        0.29750    0.45060    0.36470    1.000
    C105     C        0.00260    0.48870    0.24060    1.000
    O33      O        0.53440    0.89230    0.23982    1.000
    N24      N        0.89680    0.45680    0.26611    1.000
    C106     C        0.29150    0.70900    0.28960    1.000
    C107     C        0.48500    0.67180    0.26530    1.000
    C108     C        0.98010    0.61210    0.17690    1.000
    H70      H        0.97640    0.64480    0.20990    1.000
    O34      O        0.73700    0.38170    0.34217    1.000
    C109     C        0.59350    0.61450    0.25340    1.000
    C110     C        0.18170    0.42790    0.37080    1.000
    C111     C        0.67270    0.47220    0.95410    1.000
    C112     C        0.67240    0.46280    0.01780    1.000
    C113     C        0.66670    0.51800    0.11450    1.000
    H71      H        0.66300    0.56420    0.13830    1.000
    C114     C        0.99980    0.47990    0.13350    1.000
    H72      H        0.00860    0.42290    0.13700    1.000
    C115     C        0.97850    0.60050    0.07390    1.000
    C116     C        0.66740    0.55340    0.86730    1.000
    H73      H        0.66530    0.60550    0.85030    1.000
    C117     C        0.66480    0.53020    0.05550    1.000
    H74      H        0.65850    0.58350    0.04050    1.000
    C118     C        0.15980    0.70570    0.31320    1.000
    C119     C        0.05960    0.76090    0.29350    1.000
    H75      H        0.07730    0.80050    0.26580    1.000
    C120     C        0.93580    0.75670    0.31460    1.000
    H76      H        0.87060    0.79390    0.30160    1.000
    C121     C        0.99300    0.51550    0.07920    1.000
    H77      H        0.99800    0.48280    0.04630    1.000
    C122     C        0.97150    0.64950    0.12270    1.000
    H78      H        0.96130    0.70640    0.11930    1.000
    C123     C        0.66750    0.54870    0.92680    1.000
    H79      H        0.66410    0.59680    0.94870    1.000
    C124     C        0.12910    0.64800    0.35390    1.000
    H80      H        0.19400    0.61110    0.36760    1.000
    C125     C        0.67740    0.41350    0.85860    1.000
    H81      H        0.68240    0.36660    0.83550    1.000
    C126     C        0.90840    0.69830    0.35460    1.000
    C127     C        0.67780    0.40350    0.91750    1.000
    H82      H        0.68160    0.35060    0.93330    1.000
    C128     C        0.68000    0.37820    0.10370    1.000
    H83      H        0.68550    0.32570    0.12000    1.000
    C129     C        0.00440    0.64330    0.37510    1.000
    H84      H        0.98560    0.60380    0.40270    1.000
    O35      O        0.78030    0.69950    0.37190    1.000
    C130     C        0.67920    0.38490    0.04470    1.000
    H85      H        0.68310    0.33750    0.02220    1.000
    O36      O        0.68170    0.79420    0.22554    1.000
    C131     C        0.47290    0.75640    0.25800    1.000
    C132     C        0.56920    0.81730    0.23930    1.000
    C133     C        0.94600    0.42800    0.31850    1.000
    O37      O        0.14520    0.39160    0.41644    1.000
    C134     C        0.96390    0.71380    0.00770    1.000
    H86      H        0.04670    0.73900    0.01990    1.000
    H87      H        0.94570    0.72340    0.96700    1.000
    H88      H        0.89460    0.73750    0.02890    1.000
    O38      O        0.90380    0.36600    0.40818    1.000
    O39      O        0.97060    0.62870    0.01819    1.000
    C135     C        0.85450    0.38930    0.35810    1.000
    C136     C        0.73760    0.63370    0.40530    1.000
    H89      H        0.78970    0.63170    0.44140    1.000
    H90      H        0.64630    0.64140    0.41280    1.000
    H91      H        0.74770    0.58280    0.38470    1.000
    O40      O        0.57480    0.53960    0.26162    1.000
    H92      H        0.98700    0.36800    0.40500    1.000
