data_functionalizedCrystal
_audit_creation_method	'EQeq! by Chris Wilmer'
_symmetry_space_group_name_H-M	'P1'
_symmetry_Int_Tables_number	1
_symmetry_cell_setting	triclinic
loop_
_symmetry_equiv_pos_as_xyz
  x,y,z
_cell_length_a	22.2003
_cell_length_b	22.2003
_cell_length_c	7.7298
_cell_angle_alpha	90
_cell_angle_beta	90
_cell_angle_gamma	120
loop_
_atom_site_label
_atom_site_type_symbol
_atom_site_fract_x
_atom_site_fract_y
_atom_site_fract_z
_atom_site_charge
Mof_C 	C 	0.4818	0.8125	0.8545	0.023
Mof_H 	H 	0.4566	0.8352	0.8686	0.054
Mof_O 	O 	0.5048	0.9191	0.6364	-0.296
Mof_O 	O 	0.5775	0.0009	0.3326	-0.266
Mof_N 	N 	0.5018	0.5806	0.3214	-0.203
Mof_C 	C 	0.5281	0.8305	0.7125	-0.032
Mof_C 	C 	0.5354	0.8859	0.592	0.235
Mof_C 	C 	0.5104	0.62	0.0315	-0.168
Mof_H 	H 	0.515	0.6123	0.9153	0.13
Mof_F 	F 	0.5997	0.9563	0.0198	-0.456
Mof_C 	C 	0.5059	0.5733	0.1538	0.162
Mof_H 	H 	0.5058	0.5335	0.1155	0.02
Mof_C 	C 	0.6335	0.9564	0.1673	0.844
Mof_C 	C 	0.5927	0.9538	0.3238	0.085
Mof_C 	C 	0.514	0.7303	0.9539	0.03
Mof_C 	C 	0.5746	0.8984	0.4358	-0.169
Mof_H 	H 	0.589	0.8669	0.4071	0.146
Mof_F 	F 	0.6486	0.9062	0.1511	-0.447
Mof_C 	C 	0.4732	0.7625	0.9712	-0.061
Mof_H 	H 	0.441	0.7499	0.0604	0.056
Mof_C 	C 	0.5631	0.7968	0.6953	0.018
Mof_H 	H 	0.5946	0.8085	0.6047	0.074
Mof_C 	C 	0.5539	0.7441	0.8095	-0.056
Mof_H 	H 	0.5752	0.718	0.7865	0.118
Mof_F 	F 	0.6925	0.015	0.1625	-0.465
Mof_C 	C 	0.4955	0.6817	0.2564	-0.179
Mof_H 	H 	0.4882	0.717	0.2965	0.105
Mof_C 	C 	0.4944	0.6342	0.3656	0.147
Mof_H 	H 	0.4878	0.6393	0.4824	-0.012
Mof_C 	C 	0.5079	0.6769	0.0797	0.132
Mof_C 	C 	0.1875	0.6693	0.8545	0.02
Mof_H 	H 	0.1648	0.6214	0.8686	0.054
Mof_O 	O 	0.0809	0.5857	0.6364	-0.307
Mof_O 	O 	0.9991	0.5766	0.3326	-0.203
Mof_N 	N 	0.4194	0.9212	0.3214	-0.194
Mof_C 	C 	0.1695	0.6976	0.7125	-0.029
Mof_C 	C 	0.1141	0.6495	0.592	0.22
Mof_C 	C 	0.38	0.8904	0.0315	-0.164
Mof_H 	H 	0.3877	0.9027	0.9153	0.132
Mof_F 	F 	0.0437	0.6434	0.0198	-0.47
Mof_C 	C 	0.4267	0.9326	0.1538	0.161
Mof_H 	H 	0.4665	0.9723	0.1155	0.032
Mof_C 	C 	0.0436	0.6771	0.1673	0.819
Mof_C 	C 	0.0462	0.6389	0.3238	0.02
Mof_C 	C 	0.2697	0.7837	0.9539	0.03
Mof_C 	C 	0.1016	0.6762	0.4358	-0.146
Mof_H 	H 	0.1331	0.7221	0.4071	0.136
Mof_F 	F 	0.0938	0.7424	0.1511	-0.451
Mof_C 	C 	0.2375	0.7107	0.9712	-0.059
Mof_H 	H 	0.2501	0.6911	0.0604	0.056
Mof_C 	C 	0.2032	0.7663	0.6953	0.014
Mof_H 	H 	0.1915	0.7861	0.6047	0.073
Mof_C 	C 	0.2559	0.8098	0.8095	-0.055
Mof_H 	H 	0.282	0.8572	0.7865	0.118
Mof_F 	F 	0.985	0.6775	0.1625	-0.427
Mof_C 	C 	0.3183	0.8138	0.2564	-0.177
Mof_H 	H 	0.283	0.7712	0.2965	0.104
Mof_C 	C 	0.3658	0.8602	0.3656	0.146
Mof_H 	H 	0.3607	0.8485	0.4824	-0.01
Mof_C 	C 	0.3231	0.831	0.0797	0.13
Mof_C 	C 	0.3307	0.5182	0.8545	0.022
Mof_H 	H 	0.3786	0.5434	0.8686	0.054
Mof_O 	O 	0.4143	0.4952	0.6364	-0.309
Mof_O 	O 	0.4234	0.4225	0.3326	-0.241
Mof_N 	N 	0.0788	0.4982	0.3214	-0.204
Mof_C 	C 	0.3024	0.4719	0.7125	-0.033
Mof_C 	C 	0.3505	0.4646	0.592	0.23
Mof_C 	C 	0.1096	0.4896	0.0315	-0.171
Mof_H 	H 	0.0973	0.485	0.9153	0.129
Mof_F 	F 	0.3566	0.4003	0.0198	-0.464
Mof_C 	C 	0.0674	0.4941	0.1538	0.161
Mof_H 	H 	0.0277	0.4942	0.1155	0.011
Mof_C 	C 	0.3229	0.3665	0.1673	0.831
Mof_C 	C 	0.3611	0.4073	0.3238	0.053
Mof_C 	C 	0.2163	0.486	0.9539	0.029
Mof_C 	C 	0.3238	0.4254	0.4358	-0.162
Mof_H 	H 	0.2779	0.411	0.4071	0.14
Mof_F 	F 	0.2576	0.3514	0.1511	-0.454
Mof_C 	C 	0.2893	0.5268	0.9712	-0.061
Mof_H 	H 	0.3089	0.559	0.0604	0.056
Mof_C 	C 	0.2337	0.4369	0.6953	0.017
Mof_H 	H 	0.2139	0.4054	0.6047	0.069
Mof_C 	C 	0.1902	0.4461	0.8095	-0.057
Mof_H 	H 	0.1428	0.4248	0.7865	0.115
Mof_F 	F 	0.3225	0.3075	0.1625	-0.451
Mof_C 	C 	0.1862	0.5045	0.2564	-0.181
Mof_H 	H 	0.2288	0.5118	0.2965	0.105
Mof_C 	C 	0.1398	0.5056	0.3656	0.145
Mof_H 	H 	0.1515	0.5122	0.4824	-0.011
Mof_C 	C 	0.169	0.4921	0.0797	0.131
Mof_C 	C 	0.5182	0.1875	0.1455	0.019
Mof_H 	H 	0.5434	0.1648	0.1314	0.054
Mof_O 	O 	0.4952	0.0809	0.3636	-0.307
Mof_O 	O 	0.4225	0.9991	0.6674	-0.203
Mof_N 	N 	0.4982	0.4194	0.6786	-0.203
Mof_C 	C 	0.4719	0.1695	0.2875	-0.029
Mof_C 	C 	0.4646	0.1141	0.408	0.22
Mof_C 	C 	0.4896	0.38	0.9685	-0.168
Mof_H 	H 	0.485	0.3877	0.0847	0.13
Mof_F 	F 	0.4003	0.0437	0.9802	-0.471
Mof_C 	C 	0.4941	0.4267	0.8462	0.162
Mof_H 	H 	0.4942	0.4665	0.8845	0.02
Mof_C 	C 	0.3665	0.0436	0.8327	0.819
Mof_C 	C 	0.4073	0.0462	0.6762	0.019
Mof_C 	C 	0.486	0.2697	0.0461	0.028
Mof_C 	C 	0.4254	0.1016	0.5642	-0.145
Mof_H 	H 	0.411	0.1331	0.5929	0.135
Mof_F 	F 	0.3514	0.0938	0.8489	-0.455
Mof_C 	C 	0.5268	0.2375	0.0288	-0.059
Mof_H 	H 	0.559	0.2501	0.9396	0.055
Mof_C 	C 	0.4369	0.2032	0.3047	0.013
Mof_H 	H 	0.4054	0.1915	0.3953	0.071
Mof_C 	C 	0.4461	0.2559	0.1905	-0.055
Mof_H 	H 	0.4248	0.282	0.2135	0.115
Mof_F 	F 	0.3075	0.985	0.8375	-0.43
Mof_C 	C 	0.5045	0.3183	0.7436	-0.18
Mof_H 	H 	0.5118	0.283	0.7035	0.105
Mof_C 	C 	0.5056	0.3658	0.6344	0.147
Mof_H 	H 	0.5122	0.3607	0.5176	-0.012
Mof_C 	C 	0.4921	0.3231	0.9203	0.132
Mof_C 	C 	0.8125	0.3307	0.1455	0.022
Mof_H 	H 	0.8352	0.3786	0.1314	0.054
Mof_O 	O 	0.9191	0.4143	0.3636	-0.296
Mof_O 	O 	0.0009	0.4234	0.6674	-0.266
Mof_N 	N 	0.5806	0.0788	0.6786	-0.204
Mof_C 	C 	0.8305	0.3024	0.2875	-0.033
Mof_C 	C 	0.8859	0.3505	0.408	0.234
Mof_C 	C 	0.62	0.1096	0.9685	-0.172
Mof_H 	H 	0.6123	0.0973	0.0847	0.129
Mof_F 	F 	0.9563	0.3566	0.9802	-0.456
Mof_C 	C 	0.5733	0.0674	0.8462	0.161
Mof_H 	H 	0.5335	0.0277	0.8845	0.011
Mof_C 	C 	0.9564	0.3229	0.8327	0.845
Mof_C 	C 	0.9538	0.3611	0.6762	0.084
Mof_C 	C 	0.7303	0.2163	0.0461	0.029
Mof_C 	C 	0.8984	0.3238	0.5642	-0.169
Mof_H 	H 	0.8669	0.2779	0.5929	0.144
Mof_F 	F 	0.9062	0.2576	0.8489	-0.451
Mof_C 	C 	0.7625	0.2893	0.0288	-0.06
Mof_H 	H 	0.7499	0.3089	0.9396	0.056
Mof_C 	C 	0.7968	0.2337	0.3047	0.018
Mof_H 	H 	0.8085	0.2139	0.3953	0.072
Mof_C 	C 	0.7441	0.1902	0.1905	-0.056
Mof_H 	H 	0.718	0.1428	0.2135	0.116
Mof_F 	F 	0.015	0.3225	0.8375	-0.468
Mof_C 	C 	0.6817	0.1862	0.7436	-0.18
Mof_H 	H 	0.717	0.2288	0.7035	0.105
Mof_C 	C 	0.6342	0.1398	0.6344	0.146
Mof_H 	H 	0.6393	0.1515	0.5176	-0.011
Mof_C 	C 	0.6769	0.169	0.9203	0.132
Mof_C 	C 	0.6693	0.4818	0.1455	0.023
Mof_H 	H 	0.6214	0.4566	0.1314	0.053
Mof_O 	O 	0.5857	0.5048	0.3636	-0.309
Mof_O 	O 	0.5766	0.5775	0.6674	-0.241
Mof_N 	N 	0.9212	0.5018	0.6786	-0.194
Mof_C 	C 	0.6976	0.5281	0.2875	-0.033
Mof_C 	C 	0.6495	0.5354	0.408	0.231
Mof_C 	C 	0.8904	0.5104	0.9685	-0.163
Mof_H 	H 	0.9027	0.515	0.0847	0.132
Mof_F 	F 	0.6434	0.5997	0.9802	-0.462
Mof_C 	C 	0.9326	0.5059	0.8462	0.161
Mof_H 	H 	0.9723	0.5058	0.8845	0.032
Mof_C 	C 	0.6771	0.6335	0.8327	0.831
Mof_C 	C 	0.6389	0.5927	0.6762	0.056
Mof_C 	C 	0.7837	0.514	0.0461	0.032
Mof_C 	C 	0.6762	0.5746	0.5642	-0.162
Mof_H 	H 	0.7221	0.589	0.5929	0.143
Mof_F 	F 	0.7424	0.6486	0.8489	-0.447
Mof_C 	C 	0.7107	0.4732	0.0288	-0.062
Mof_H 	H 	0.6911	0.441	0.9396	0.056
Mof_C 	C 	0.7663	0.5631	0.3047	0.018
Mof_H 	H 	0.7861	0.5946	0.3953	0.074
Mof_C 	C 	0.8098	0.5539	0.1905	-0.057
Mof_H 	H 	0.8572	0.5752	0.2135	0.119
Mof_F 	F 	0.6775	0.6925	0.8375	-0.444
Mof_C 	C 	0.8138	0.4955	0.7436	-0.176
Mof_H 	H 	0.7712	0.4882	0.7035	0.104
Mof_C 	C 	0.8602	0.4944	0.6344	0.146
Mof_H 	H 	0.8485	0.4878	0.5176	-0.01
Mof_C 	C 	0.831	0.5079	0.9203	0.13
Mof_Mn	Mn	0.5	3.82564e-33	0.5	0.892
Mof_Mn	Mn	-2.13202e-17	0.5	0.5	0.892
Mof_Mn	Mn	0.5	0.5	0.5	0.931
_end
