data_functionalizedCrystal
_audit_creation_method	'EQeq! by Chris Wilmer'
_symmetry_space_group_name_H-M	'P1'
_symmetry_Int_Tables_number	1
_symmetry_cell_setting	triclinic
loop_
_symmetry_equiv_pos_as_xyz
  x,y,z
_cell_length_a	29.572
_cell_length_b	29.572
_cell_length_c	33.2638
_cell_angle_alpha	63.6082
_cell_angle_beta	63.6082
_cell_angle_gamma	90
loop_
_atom_site_label
_atom_site_type_symbol
_atom_site_fract_x
_atom_site_fract_y
_atom_site_fract_z
_atom_site_charge
Mof_In	In	0.65966	0.19153	0.3961	2.044
Mof_In	In	0.79103	0.90343	0.69912	2.091
Mof_In	In	0.44424	0.41237	0.3961	2.046
Mof_In	In	0.00985	0.39745	0.69912	2.042
Mof_In	In	0.69153	0.94424	0.8961	2.083
Mof_In	In	0.40343	0.50985	0.19912	2.086
Mof_In	In	0.91237	0.15966	0.8961	2.065
Mof_In	In	0.89745	0.29103	0.19912	2.087
Mof_In	In	0.55576	0.80847	0.6039	2.048
Mof_In	In	0.99015	0.09657	0.30088	2.14
Mof_In	In	0.34034	0.58763	0.6039	2.047
Mof_In	In	0.20897	0.60255	0.30088	2.088
Mof_In	In	0.08763	0.05576	0.1039	1.989
Mof_In	In	0.10255	0.49015	0.80088	2.091
Mof_In	In	0.30847	0.84034	0.1039	2.044
Mof_In	In	0.59657	0.70897	0.80088	2.091
Mof_In	In	0.34034	0.80847	0.6039	2.048
Mof_In	In	0.20897	0.09657	0.30088	2.086
Mof_In	In	0.55576	0.58763	0.6039	2.046
Mof_In	In	0.99015	0.60255	0.30088	2.141
Mof_In	In	0.30847	0.05576	0.1039	2.007
Mof_In	In	0.59657	0.49015	0.80088	2.091
Mof_In	In	0.08763	0.84034	0.1039	2.026
Mof_In	In	0.10255	0.70897	0.80088	2.091
Mof_In	In	0.44424	0.19153	0.3961	2.045
Mof_In	In	0.00985	0.90343	0.69912	2.046
Mof_In	In	0.65966	0.41237	0.3961	2.046
Mof_In	In	0.79103	0.39745	0.69912	2.09
Mof_In	In	0.91237	0.94424	0.8961	2.098
Mof_In	In	0.89745	0.50985	0.19912	2.087
Mof_In	In	0.69153	0.15966	0.8961	2.049
Mof_In	In	0.40343	0.29103	0.19912	2.087
Mof_In	In	0.75476	0	0.5	2.023
Mof_In	In	0.24524	0.5	0.5	2.092
Mof_In	In	0.5	0.74524	-0	1.967
Mof_In	In	-2.23168e-33	0.25476	-0	1.896
Mof_In	In	0.24524	0	0.5	2.02
Mof_In	In	0.75476	0.5	0.5	2.093
Mof_In	In	0.5	0.25476	-0	1.963
Mof_In	In	-8.92671e-33	0.74524	-0	1.9
Mof_H 	H 	0.7635	0.2435	0.267	-0.021
Mof_H 	H 	0.7658	0.9946	0.6024	-0.011
Mof_H 	H 	0.6938	0.1049	0.4874	-0.021
Mof_H 	H 	0.4695	0.4895	0.267	-0.021
Mof_H 	H 	0.1318	0.403	0.6024	-0.019
Mof_H 	H 	0.3188	0.4077	0.4874	-0.021
Mof_H 	H 	0.7435	0.9695	0.767	-0.016
Mof_H 	H 	0.4946	0.6318	0.1024	-0.019
Mof_H 	H 	0.6049	0.8188	0.9874	-0.007
Mof_H 	H 	0.9895	0.2635	0.767	-0.013
Mof_H 	H 	0.903	0.2658	0.1024	-0.018
Mof_H 	H 	0.9077	0.1938	0.9874	-0.006
Mof_H 	H 	0.5305	0.7565	0.733	-0.02
Mof_H 	H 	0.8682	0.0054	0.3976	-0.024
Mof_H 	H 	0.6812	0.8951	0.5126	-0.017
Mof_H 	H 	0.2365	0.5105	0.733	-0.02
Mof_H 	H 	0.2342	0.597	0.3976	-0.019
Mof_H 	H 	0.3062	0.5923	0.5126	-0.02
Mof_H 	H 	0.0105	0.0305	0.233	-0.032
Mof_H 	H 	0.097	0.3682	0.8976	-0.011
Mof_H 	H 	0.0923	0.1812	0.0126	-0.027
Mof_H 	H 	0.2565	0.7365	0.233	-0.02
Mof_H 	H 	0.5054	0.7342	0.8976	-0.013
Mof_H 	H 	0.3951	0.8062	0.0126	-0.028
Mof_H 	H 	0.2365	0.7565	0.733	-0.02
Mof_H 	H 	0.2342	0.0054	0.3976	-0.024
Mof_H 	H 	0.3062	0.8951	0.5126	-0.017
Mof_H 	H 	0.5305	0.5105	0.733	-0.02
Mof_H 	H 	0.8682	0.597	0.3976	-0.019
Mof_H 	H 	0.6812	0.5923	0.5126	-0.02
Mof_H 	H 	0.2565	0.0305	0.233	-0.025
Mof_H 	H 	0.5054	0.3682	0.8976	-0.013
Mof_H 	H 	0.3951	0.1812	0.0126	-0.028
Mof_H 	H 	0.0105	0.7365	0.233	-0.028
Mof_H 	H 	0.097	0.7342	0.8976	-0.011
Mof_H 	H 	0.0923	0.8062	0.0126	-0.027
Mof_H 	H 	0.4695	0.2435	0.267	-0.021
Mof_H 	H 	0.1318	0.9946	0.6024	-0.011
Mof_H 	H 	0.3188	0.1049	0.4874	-0.021
Mof_H 	H 	0.7635	0.4895	0.267	-0.021
Mof_H 	H 	0.7658	0.403	0.6024	-0.019
Mof_H 	H 	0.6938	0.4077	0.4874	-0.021
Mof_H 	H 	0.9895	0.9695	0.767	-0.009
Mof_H 	H 	0.903	0.6318	0.1024	-0.017
Mof_H 	H 	0.9077	0.8188	0.9874	-0.006
Mof_H 	H 	0.7435	0.2635	0.767	-0.021
Mof_H 	H 	0.4946	0.2658	0.1024	-0.019
Mof_H 	H 	0.6049	0.1938	0.9874	-0.007
Mof_H 	H 	0.5724	0.1795	0.3552	-0.007
Mof_H 	H 	0.5724	0.4653	0.3552	-0.007
Mof_H 	H 	0.6795	0.0724	0.8552	-0.009
Mof_H 	H 	0.9653	0.0724	0.8552	-0.004
Mof_H 	H 	0.4276	0.8205	0.6448	-0.005
Mof_H 	H 	0.4276	0.5347	0.6448	-0.006
Mof_H 	H 	0.0347	0.9276	0.1448	-0.008
Mof_H 	H 	0.3205	0.9276	0.1448	-0.003
Mof_H 	H 	0.6413	0.2771	0.4458	-0.018
Mof_H 	H 	0.4129	0.2771	0.4458	-0.018
Mof_H 	H 	0.7771	0.9129	0.9458	-0.014
Mof_H 	H 	0.7771	0.1413	0.9458	-0.013
Mof_H 	H 	0.5871	0.7229	0.5542	-0.017
Mof_H 	H 	0.3587	0.7229	0.5542	-0.017
Mof_H 	H 	0.2229	0.0871	0.0542	-0.021
Mof_H 	H 	0.2229	0.8587	0.0542	-0.022
Mof_H 	H 	0.7237	0.7763	0.75	-0.019
Mof_H 	H 	0.0263	0.4737	0.75	-0.022
Mof_H 	H 	0.2763	0.5263	0.25	-0.02
Mof_H 	H 	0.9737	0.2237	0.25	-0.016
Mof_H 	H 	0.2763	0.2237	0.25	-0.02
Mof_H 	H 	0.9737	0.5263	0.25	-0.017
Mof_H 	H 	0.7237	0.4737	0.75	-0.019
Mof_H 	H 	0.0263	0.7763	0.75	-0.022
Mof_H 	H 	0.9003	0.8562	0.6994	-0.009
Mof_H 	H 	0.9003	0.4444	0.6994	-0.009
Mof_H 	H 	0.3562	0.4003	0.1994	-0.014
Mof_H 	H 	0.9444	0.4003	0.1994	-0.012
Mof_H 	H 	0.0997	0.1438	0.3006	-0.018
Mof_H 	H 	0.0997	0.5556	0.3006	-0.018
Mof_H 	H 	0.0556	0.5997	0.8006	-0.014
Mof_H 	H 	0.6438	0.5997	0.8006	-0.013
Mof_C 	C 	0.7546	0.2265	0.4094	0.246
Mof_C 	C 	0.7769	0.2391	0.3554	-0.02
Mof_C 	C 	0.7751	0.2457	0.2886	0.195
Mof_C 	C 	0.8258	0.2613	0.3138	-0.02
Mof_C 	C 	0.8749	0.2755	0.3104	0.261
Mof_C 	C 	0.8217	0.8527	0.628	0.283
Mof_C 	C 	0.804	0.8977	0.6046	-0.032
Mof_C 	C 	0.7772	0.9673	0.596	0.197
Mof_C 	C 	0.7948	0.9156	0.5654	-0.004
Mof_C 	C 	0.8005	0.8978	0.5282	0.275
Mof_C 	C 	0.5571	0.1553	0.501	0.274
Mof_C 	C 	0.5405	0.1585	0.4648	-0.02
Mof_C 	C 	0.6652	0.2935	0.2996	0.279
Mof_C 	C 	0.6557	0.307	0.3396	-0.024
Mof_C 	C 	0.6759	0.924	0.7244	0.277
Mof_C 	C 	0.6726	0.8686	0.7388	-0.022
Mof_C 	C 	0.8639	0.0102	0.656	0.234
Mof_C 	C 	0.8942	0.9709	0.665	0.004
Mof_C 	C 	0.742	0.0164	0.405	0.244
Mof_C 	C 	0.722	0.0574	0.4174	-0.009
Mof_C 	C 	0.6993	0.0957	0.462	0.191
Mof_C 	C 	0.6989	0.0946	0.3984	-0.032
Mof_C 	C 	0.689	0.1104	0.3558	0.278
Mof_C 	C 	0.336	0.3641	0.4094	0.246
Mof_C 	C 	0.3677	0.4055	0.3554	-0.02
Mof_C 	C 	0.4363	0.4657	0.2886	0.195
Mof_C 	C 	0.3604	0.4249	0.3138	-0.02
Mof_C 	C 	0.3147	0.4141	0.3104	0.262
Mof_C 	C 	0.0503	0.5193	0.628	0.283
Mof_C 	C 	0.0914	0.4977	0.6046	-0.035
Mof_C 	C 	0.1268	0.4367	0.596	0.194
Mof_C 	C 	0.1398	0.519	0.5654	-0.009
Mof_C 	C 	0.1713	0.574	0.5282	0.275
Mof_C 	C 	0.4419	0.3437	0.501	0.274
Mof_C 	C 	0.4947	0.3767	0.4648	-0.019
Mof_C 	C 	0.5352	0.4069	0.2996	0.279
Mof_C 	C 	0.5047	0.3534	0.3396	-0.024
Mof_C 	C 	0.0997	0.3516	0.7244	0.276
Mof_C 	C 	0.0886	0.3926	0.7388	-0.023
Mof_C 	C 	0.9801	0.3338	0.656	0.319
Mof_C 	C 	0.9408	0.3641	0.665	-0.029
Mof_C 	C 	0.353	0.5786	0.405	0.28
Mof_C 	C 	0.3606	0.5252	0.4174	-0.017
Mof_C 	C 	0.3387	0.4423	0.462	0.194
Mof_C 	C 	0.4027	0.507	0.3984	-0.026
Mof_C 	C 	0.4552	0.5338	0.3558	0.277
Mof_C 	C 	0.7265	0.836	0.9094	0.246
Mof_C 	C 	0.7391	0.8677	0.8554	-0.02
Mof_C 	C 	0.7457	0.9363	0.7886	0.198
Mof_C 	C 	0.7613	0.8604	0.8138	-0.019
Mof_C 	C 	0.7755	0.8147	0.8104	0.261
Mof_C 	C 	0.3527	0.5503	0.128	0.285
Mof_C 	C 	0.3977	0.5914	0.1046	-0.043
Mof_C 	C 	0.4673	0.6268	0.096	0.19
Mof_C 	C 	0.4156	0.6398	0.0654	0.005
Mof_C 	C 	0.3978	0.6713	0.0282	0.213
Mof_C 	C 	0.6553	0.9419	0.001	0.164
Mof_C 	C 	0.6585	0.9947	0.9648	0.078
Mof_C 	C 	0.7935	0.0352	0.7996	0.282
Mof_C 	C 	0.807	0.0047	0.8396	-0.041
Mof_C 	C 	0.424	0.5997	0.2244	0.278
Mof_C 	C 	0.3686	0.5886	0.2388	-0.022
Mof_C 	C 	0.5102	0.4801	0.156	0.29
Mof_C 	C 	0.4709	0.4408	0.165	-0.027
Mof_C 	C 	0.5164	0.853	0.905	0.28
Mof_C 	C 	0.5574	0.8606	0.9174	-0.01
Mof_C 	C 	0.5957	0.8387	0.962	0.197
Mof_C 	C 	0.5946	0.9027	0.8984	-0.023
Mof_C 	C 	0.6104	0.9552	0.8558	0.277
Mof_C 	C 	0.8641	0.2546	0.9094	0.246
Mof_C 	C 	0.9055	0.2769	0.8554	-0.019
Mof_C 	C 	0.9657	0.2751	0.7886	0.198
Mof_C 	C 	0.9249	0.3258	0.8138	-0.016
Mof_C 	C 	0.9141	0.3749	0.8104	0.26
Mof_C 	C 	0.0193	0.3217	0.128	0.212
Mof_C 	C 	0.9977	0.304	0.1046	0.034
Mof_C 	C 	0.9367	0.2772	0.096	0.191
Mof_C 	C 	0.019	0.2948	0.0654	-0.059
Mof_C 	C 	0.074	0.3005	0.0282	0.23
Mof_C 	C 	0.8437	0.0571	0.001	0.189
Mof_C 	C 	0.8767	0.0405	0.9648	-0.01
Mof_C 	C 	0.9069	0.1652	0.7996	0.277
Mof_C 	C 	0.8534	0.1557	0.8396	-0.023
Mof_C 	C 	0.8516	0.1759	0.2244	0.278
Mof_C 	C 	0.8926	0.1726	0.2388	-0.021
Mof_C 	C 	0.8338	0.3639	0.156	0.29
Mof_C 	C 	0.8641	0.3942	0.165	-0.025
Mof_C 	C 	0.0786	0.242	0.905	0.28
Mof_C 	C 	0.0252	0.222	0.9174	-0.02
Mof_C 	C 	0.9423	0.1993	0.962	0.197
Mof_C 	C 	0.007	0.1989	0.8984	-0.043
Mof_C 	C 	0.0338	0.189	0.8558	0.283
Mof_C 	C 	0.664	0.7735	0.5906	0.245
Mof_C 	C 	0.6323	0.7609	0.6446	-0.02
Mof_C 	C 	0.5637	0.7543	0.7114	0.195
Mof_C 	C 	0.6396	0.7387	0.6862	-0.02
Mof_C 	C 	0.6853	0.7245	0.6896	0.261
Mof_C 	C 	0.9497	0.1473	0.372	0.281
Mof_C 	C 	0.9086	0.1023	0.3954	-0.034
Mof_C 	C 	0.8732	0.0327	0.404	0.193
Mof_C 	C 	0.8602	0.0844	0.4346	-0.009
Mof_C 	C 	0.8287	0.1022	0.4718	0.273
Mof_C 	C 	0.5581	0.8447	0.499	0.275
Mof_C 	C 	0.5053	0.8415	0.5352	-0.017
Mof_C 	C 	0.4648	0.7065	0.7004	0.278
Mof_C 	C 	0.4953	0.693	0.6604	-0.024
Mof_C 	C 	0.9003	0.076	0.2756	0.279
Mof_C 	C 	0.9114	0.1314	0.2612	-0.021
Mof_C 	C 	0.0199	0.9898	0.344	0.318
Mof_C 	C 	0.0592	0.0291	0.335	-0.046
Mof_C 	C 	0.647	0.9836	0.595	0.313
Mof_C 	C 	0.6394	0.9426	0.5826	-0.022
Mof_C 	C 	0.6613	0.9043	0.538	0.194
Mof_C 	C 	0.5973	0.9054	0.6016	-0.021
Mof_C 	C 	0.5448	0.8896	0.6442	0.275
Mof_C 	C 	0.2454	0.6359	0.5906	0.245
Mof_C 	C 	0.2231	0.5945	0.6446	-0.02
Mof_C 	C 	0.2249	0.5343	0.7114	0.195
Mof_C 	C 	0.1742	0.5751	0.6862	-0.02
Mof_C 	C 	0.1251	0.5859	0.6896	0.262
Mof_C 	C 	0.1783	0.4807	0.372	0.282
Mof_C 	C 	0.196	0.5023	0.3954	-0.034
Mof_C 	C 	0.2228	0.5633	0.404	0.195
Mof_C 	C 	0.2052	0.481	0.4346	-0.009
Mof_C 	C 	0.1995	0.426	0.4718	0.275
Mof_C 	C 	0.4429	0.6563	0.499	0.274
Mof_C 	C 	0.4595	0.6233	0.5352	-0.019
Mof_C 	C 	0.3348	0.5931	0.7004	0.278
Mof_C 	C 	0.3443	0.6466	0.6604	-0.024
Mof_C 	C 	0.3241	0.6484	0.2756	0.278
Mof_C 	C 	0.3274	0.6074	0.2612	-0.022
Mof_C 	C 	0.1361	0.6662	0.344	0.291
Mof_C 	C 	0.1058	0.6359	0.335	-0.028
Mof_C 	C 	0.258	0.4214	0.595	0.28
Mof_C 	C 	0.278	0.4748	0.5826	-0.017
Mof_C 	C 	0.3007	0.5577	0.538	0.194
Mof_C 	C 	0.3011	0.493	0.6016	-0.026
Mof_C 	C 	0.311	0.4662	0.6442	0.276
Mof_C 	C 	0.1359	0.164	0.0906	0.245
Mof_C 	C 	0.0945	0.1323	0.1446	-0.02
Mof_C 	C 	0.0343	0.0637	0.2114	0.19
Mof_C 	C 	0.0751	0.1396	0.1862	-0.025
Mof_C 	C 	0.0859	0.1853	0.1896	0.263
Mof_C 	C 	0.9807	0.4497	0.872	0.345
Mof_C 	C 	0.0023	0.4086	0.8954	-0.092
Mof_C 	C 	0.0633	0.3732	0.904	0.192
Mof_C 	C 	0.981	0.3602	0.9346	0.043
Mof_C 	C 	0.926	0.3287	0.9718	0.313
Mof_C 	C 	0.1563	0.0581	0.999	0.395
Mof_C 	C 	0.1233	0.0053	0.0352	-0.126
Mof_C 	C 	0.0931	0.9648	0.2004	0.277
Mof_C 	C 	0.1466	0.9953	0.1604	-0.005
Mof_C 	C 	0.1484	0.4003	0.7756	0.277
Mof_C 	C 	0.1074	0.4114	0.7612	-0.023
Mof_C 	C 	0.1662	0.5199	0.844	0.29
Mof_C 	C 	0.1359	0.5592	0.835	-0.023
Mof_C 	C 	0.9214	0.147	0.095	0.273
Mof_C 	C 	0.9748	0.1394	0.0826	-0.001
Mof_C 	C 	0.0577	0.1613	0.038	0.18
Mof_C 	C 	0.993	0.0973	0.1016	-0.011
Mof_C 	C 	0.9662	0.0448	0.1442	0.273
Mof_C 	C 	0.2735	0.7454	0.0906	0.246
Mof_C 	C 	0.2609	0.7231	0.1446	-0.02
Mof_C 	C 	0.2543	0.7249	0.2114	0.195
Mof_C 	C 	0.2387	0.6742	0.1862	-0.02
Mof_C 	C 	0.2245	0.6251	0.1896	0.262
Mof_C 	C 	0.6473	0.6783	0.872	0.28
Mof_C 	C 	0.6023	0.696	0.8954	-0.026
Mof_C 	C 	0.5327	0.7228	0.904	0.195
Mof_C 	C 	0.5844	0.7052	0.9346	-0.016
Mof_C 	C 	0.6022	0.6995	0.9718	0.333
Mof_C 	C 	0.3447	0.9429	0.999	0.36
Mof_C 	C 	0.3415	0.9595	0.0352	-0.02
Mof_C 	C 	0.2065	0.8348	0.2004	0.279
Mof_C 	C 	0.193	0.8443	0.1604	-0.023
Mof_C 	C 	0.576	0.8241	0.7756	0.277
Mof_C 	C 	0.6314	0.8274	0.7612	-0.022
Mof_C 	C 	0.4898	0.6361	0.844	0.29
Mof_C 	C 	0.5291	0.6058	0.835	-0.022
Mof_C 	C 	0.4836	0.758	0.095	0.276
Mof_C 	C 	0.4426	0.778	0.0826	-0.017
Mof_C 	C 	0.4043	0.8007	0.038	0.187
Mof_C 	C 	0.4054	0.8011	0.1016	-0.028
Mof_C 	C 	0.3896	0.811	0.1442	0.276
Mof_C 	C 	0.2454	0.7735	0.5906	0.245
Mof_C 	C 	0.2231	0.7609	0.6446	-0.02
Mof_C 	C 	0.2249	0.7543	0.7114	0.195
Mof_C 	C 	0.1742	0.7387	0.6862	-0.02
Mof_C 	C 	0.1251	0.7245	0.6896	0.262
Mof_C 	C 	0.1783	0.1473	0.372	0.282
Mof_C 	C 	0.196	0.1023	0.3954	-0.036
Mof_C 	C 	0.2228	0.0327	0.404	0.191
Mof_C 	C 	0.2052	0.0844	0.4346	-0.01
Mof_C 	C 	0.1995	0.1022	0.4718	0.273
Mof_C 	C 	0.4429	0.8447	0.499	0.275
Mof_C 	C 	0.4595	0.8415	0.5352	-0.017
Mof_C 	C 	0.3348	0.7065	0.7004	0.278
Mof_C 	C 	0.3443	0.693	0.6604	-0.024
Mof_C 	C 	0.3241	0.076	0.2756	0.278
Mof_C 	C 	0.3274	0.1314	0.2612	-0.022
Mof_C 	C 	0.1361	0.9898	0.344	0.35
Mof_C 	C 	0.1058	0.0291	0.335	-0.054
Mof_C 	C 	0.258	0.9836	0.595	0.314
Mof_C 	C 	0.278	0.9426	0.5826	-0.022
Mof_C 	C 	0.3007	0.9043	0.538	0.194
Mof_C 	C 	0.3011	0.9054	0.6016	-0.021
Mof_C 	C 	0.311	0.8896	0.6442	0.275
Mof_C 	C 	0.664	0.6359	0.5906	0.245
Mof_C 	C 	0.6323	0.5945	0.6446	-0.02
Mof_C 	C 	0.5637	0.5343	0.7114	0.195
Mof_C 	C 	0.6396	0.5751	0.6862	-0.02
Mof_C 	C 	0.6853	0.5859	0.6896	0.261
Mof_C 	C 	0.9497	0.4807	0.372	0.281
Mof_C 	C 	0.9086	0.5023	0.3954	-0.032
Mof_C 	C 	0.8732	0.5633	0.404	0.197
Mof_C 	C 	0.8602	0.481	0.4346	-0.008
Mof_C 	C 	0.8287	0.426	0.4718	0.275
Mof_C 	C 	0.5581	0.6563	0.499	0.274
Mof_C 	C 	0.5053	0.6233	0.5352	-0.019
Mof_C 	C 	0.4648	0.5931	0.7004	0.278
Mof_C 	C 	0.4953	0.6466	0.6604	-0.024
Mof_C 	C 	0.9003	0.6484	0.2756	0.279
Mof_C 	C 	0.9114	0.6074	0.2612	-0.021
Mof_C 	C 	0.0199	0.6662	0.344	0.26
Mof_C 	C 	0.0592	0.6359	0.335	-0.02
Mof_C 	C 	0.647	0.4214	0.595	0.28
Mof_C 	C 	0.6394	0.4748	0.5826	-0.017
Mof_C 	C 	0.6613	0.5577	0.538	0.194
Mof_C 	C 	0.5973	0.493	0.6016	-0.026
Mof_C 	C 	0.5448	0.4662	0.6442	0.276
Mof_C 	C 	0.2735	0.164	0.0906	0.246
Mof_C 	C 	0.2609	0.1323	0.1446	-0.02
Mof_C 	C 	0.2543	0.0637	0.2114	0.193
Mof_C 	C 	0.2387	0.1396	0.1862	-0.021
Mof_C 	C 	0.2245	0.1853	0.1896	0.263
Mof_C 	C 	0.6473	0.4497	0.872	0.28
Mof_C 	C 	0.6023	0.4086	0.8954	-0.025
Mof_C 	C 	0.5327	0.3732	0.904	0.196
Mof_C 	C 	0.5844	0.3602	0.9346	-0.016
Mof_C 	C 	0.6022	0.3287	0.9718	0.334
Mof_C 	C 	0.3447	0.0581	0.999	0.395
Mof_C 	C 	0.3415	0.0053	0.0352	-0.125
Mof_C 	C 	0.2065	0.9648	0.2004	0.275
Mof_C 	C 	0.193	0.9953	0.1604	-0.004
Mof_C 	C 	0.576	0.4003	0.7756	0.277
Mof_C 	C 	0.6314	0.4114	0.7612	-0.022
Mof_C 	C 	0.4898	0.5199	0.844	0.291
Mof_C 	C 	0.5291	0.5592	0.835	-0.022
Mof_C 	C 	0.4836	0.147	0.095	0.275
Mof_C 	C 	0.4426	0.1394	0.0826	-0.018
Mof_C 	C 	0.4043	0.1613	0.038	0.185
Mof_C 	C 	0.4054	0.0973	0.1016	-0.031
Mof_C 	C 	0.3896	0.0448	0.1442	0.278
Mof_C 	C 	0.1359	0.7454	0.0906	0.245
Mof_C 	C 	0.0945	0.7231	0.1446	-0.021
Mof_C 	C 	0.0343	0.7249	0.2114	0.193
Mof_C 	C 	0.0751	0.6742	0.1862	-0.024
Mof_C 	C 	0.0859	0.6251	0.1896	0.263
Mof_C 	C 	0.9807	0.6783	0.872	0.343
Mof_C 	C 	0.0023	0.696	0.8954	-0.091
Mof_C 	C 	0.0633	0.7228	0.904	0.192
Mof_C 	C 	0.981	0.7052	0.9346	0.042
Mof_C 	C 	0.926	0.6995	0.9718	0.312
Mof_C 	C 	0.1563	0.9429	0.999	0.361
Mof_C 	C 	0.1233	0.9595	0.0352	-0.022
Mof_C 	C 	0.0931	0.8348	0.2004	0.28
Mof_C 	C 	0.1466	0.8443	0.1604	-0.024
Mof_C 	C 	0.1484	0.8241	0.7756	0.277
Mof_C 	C 	0.1074	0.8274	0.7612	-0.023
Mof_C 	C 	0.1662	0.6361	0.844	0.29
Mof_C 	C 	0.1359	0.6058	0.835	-0.023
Mof_C 	C 	0.9214	0.758	0.095	0.273
Mof_C 	C 	0.9748	0.778	0.0826	-0.001
Mof_C 	C 	0.0577	0.8007	0.038	0.182
Mof_C 	C 	0.993	0.8011	0.1016	-0.009
Mof_C 	C 	0.9662	0.811	0.1442	0.272
Mof_C 	C 	0.336	0.2265	0.4094	0.246
Mof_C 	C 	0.3677	0.2391	0.3554	-0.02
Mof_C 	C 	0.4363	0.2457	0.2886	0.196
Mof_C 	C 	0.3604	0.2613	0.3138	-0.02
Mof_C 	C 	0.3147	0.2755	0.3104	0.262
Mof_C 	C 	0.0503	0.8527	0.628	0.284
Mof_C 	C 	0.0914	0.8977	0.6046	-0.034
Mof_C 	C 	0.1268	0.9673	0.596	0.195
Mof_C 	C 	0.1398	0.9156	0.5654	-0.005
Mof_C 	C 	0.1713	0.8978	0.5282	0.275
Mof_C 	C 	0.4419	0.1553	0.501	0.274
Mof_C 	C 	0.4947	0.1585	0.4648	-0.02
Mof_C 	C 	0.5352	0.2935	0.2996	0.279
Mof_C 	C 	0.5047	0.307	0.3396	-0.024
Mof_C 	C 	0.0997	0.924	0.7244	0.276
Mof_C 	C 	0.0886	0.8686	0.7388	-0.023
Mof_C 	C 	0.9801	0.0102	0.656	0.263
Mof_C 	C 	0.9408	0.9709	0.665	-0.004
Mof_C 	C 	0.353	0.0164	0.405	0.243
Mof_C 	C 	0.3606	0.0574	0.4174	-0.008
Mof_C 	C 	0.3387	0.0957	0.462	0.191
Mof_C 	C 	0.4027	0.0946	0.3984	-0.032
Mof_C 	C 	0.4552	0.1104	0.3558	0.279
Mof_C 	C 	0.7546	0.3641	0.4094	0.246
Mof_C 	C 	0.7769	0.4055	0.3554	-0.02
Mof_C 	C 	0.7751	0.4657	0.2886	0.195
Mof_C 	C 	0.8258	0.4249	0.3138	-0.02
Mof_C 	C 	0.8749	0.4141	0.3104	0.261
Mof_C 	C 	0.8217	0.5193	0.628	0.282
Mof_C 	C 	0.804	0.4977	0.6046	-0.033
Mof_C 	C 	0.7772	0.4367	0.596	0.196
Mof_C 	C 	0.7948	0.519	0.5654	-0.008
Mof_C 	C 	0.8005	0.574	0.5282	0.275
Mof_C 	C 	0.5571	0.3437	0.501	0.274
Mof_C 	C 	0.5405	0.3767	0.4648	-0.019
Mof_C 	C 	0.6652	0.4069	0.2996	0.279
Mof_C 	C 	0.6557	0.3534	0.3396	-0.024
Mof_C 	C 	0.6759	0.3516	0.7244	0.277
Mof_C 	C 	0.6726	0.3926	0.7388	-0.022
Mof_C 	C 	0.8639	0.3338	0.656	0.289
Mof_C 	C 	0.8942	0.3641	0.665	-0.021
Mof_C 	C 	0.742	0.5786	0.405	0.279
Mof_C 	C 	0.722	0.5252	0.4174	-0.017
Mof_C 	C 	0.6993	0.4423	0.462	0.194
Mof_C 	C 	0.6989	0.507	0.3984	-0.026
Mof_C 	C 	0.689	0.5338	0.3558	0.277
Mof_C 	C 	0.8641	0.836	0.9094	0.247
Mof_C 	C 	0.9055	0.8677	0.8554	-0.02
Mof_C 	C 	0.9657	0.9363	0.7886	0.2
Mof_C 	C 	0.9249	0.8604	0.8138	-0.015
Mof_C 	C 	0.9141	0.8147	0.8104	0.26
Mof_C 	C 	0.0193	0.5503	0.128	0.213
Mof_C 	C 	0.9977	0.5914	0.1046	0.033
Mof_C 	C 	0.9367	0.6268	0.096	0.191
Mof_C 	C 	0.019	0.6398	0.0654	-0.059
Mof_C 	C 	0.074	0.6713	0.0282	0.231
Mof_C 	C 	0.8437	0.9419	0.001	0.168
Mof_C 	C 	0.8767	0.9947	0.9648	0.076
Mof_C 	C 	0.9069	0.0352	0.7996	0.28
Mof_C 	C 	0.8534	0.0047	0.8396	-0.041
Mof_C 	C 	0.8516	0.5997	0.2244	0.278
Mof_C 	C 	0.8926	0.5886	0.2388	-0.021
Mof_C 	C 	0.8338	0.4801	0.156	0.29
Mof_C 	C 	0.8641	0.4408	0.165	-0.025
Mof_C 	C 	0.0786	0.853	0.905	0.28
Mof_C 	C 	0.0252	0.8606	0.9174	-0.02
Mof_C 	C 	0.9423	0.8387	0.962	0.198
Mof_C 	C 	0.007	0.9027	0.8984	-0.039
Mof_C 	C 	0.0338	0.9552	0.8558	0.281
Mof_C 	C 	0.7265	0.2546	0.9094	0.245
Mof_C 	C 	0.7391	0.2769	0.8554	-0.02
Mof_C 	C 	0.7457	0.2751	0.7886	0.195
Mof_C 	C 	0.7613	0.3258	0.8138	-0.02
Mof_C 	C 	0.7755	0.3749	0.8104	0.261
Mof_C 	C 	0.3527	0.3217	0.128	0.285
Mof_C 	C 	0.3977	0.304	0.1046	-0.043
Mof_C 	C 	0.4673	0.2772	0.096	0.19
Mof_C 	C 	0.4156	0.2948	0.0654	0.005
Mof_C 	C 	0.3978	0.3005	0.0282	0.212
Mof_C 	C 	0.6553	0.0571	0.001	0.186
Mof_C 	C 	0.6585	0.0405	0.9648	-0.011
Mof_C 	C 	0.7935	0.1652	0.7996	0.279
Mof_C 	C 	0.807	0.1557	0.8396	-0.024
Mof_C 	C 	0.424	0.1759	0.2244	0.278
Mof_C 	C 	0.3686	0.1726	0.2388	-0.022
Mof_C 	C 	0.5102	0.3639	0.156	0.29
Mof_C 	C 	0.4709	0.3942	0.165	-0.027
Mof_C 	C 	0.5164	0.242	0.905	0.28
Mof_C 	C 	0.5574	0.222	0.9174	-0.01
Mof_C 	C 	0.5957	0.1993	0.962	0.196
Mof_C 	C 	0.5946	0.1989	0.8984	-0.025
Mof_C 	C 	0.6104	0.189	0.8558	0.278
Mof_C 	C 	0.5549	0.1717	0.3902	0.162
Mof_C 	C 	0.5549	0.4381	0.3902	0.163
Mof_C 	C 	0.6717	0.0549	0.8902	0.162
Mof_C 	C 	0.9381	0.0549	0.8902	0.165
Mof_C 	C 	0.4451	0.8283	0.6098	0.164
Mof_C 	C 	0.4451	0.5619	0.6098	0.163
Mof_C 	C 	0.0619	0.9451	0.1098	0.161
Mof_C 	C 	0.3283	0.9451	0.1098	0.164
Mof_C 	C 	0.6443	0.2937	0.4126	0.178
Mof_C 	C 	0.4431	0.2937	0.4126	0.178
Mof_C 	C 	0.7937	0.9431	0.9126	0.185
Mof_C 	C 	0.7937	0.1443	0.9126	0.179
Mof_C 	C 	0.5569	0.7063	0.5874	0.178
Mof_C 	C 	0.3557	0.7063	0.5874	0.178
Mof_C 	C 	0.2063	0.0569	0.0874	0.17
Mof_C 	C 	0.2063	0.8557	0.0874	0.177
Mof_C 	C 	0.7009	0.7991	0.75	0.192
Mof_C 	C 	0.0491	0.4509	0.75	0.19
Mof_C 	C 	0.2991	0.5491	0.25	0.193
Mof_C 	C 	0.9509	0.2009	0.25	0.196
Mof_C 	C 	0.2991	0.2009	0.25	0.193
Mof_C 	C 	0.9509	0.5491	0.25	0.196
Mof_C 	C 	0.7009	0.4509	0.75	0.192
Mof_C 	C 	0.0491	0.7991	0.75	0.19
Mof_C 	C 	0.9059	0.8924	0.6882	0.188
Mof_C 	C 	0.9059	0.4194	0.6882	0.188
Mof_C 	C 	0.3924	0.4059	0.1882	0.185
Mof_C 	C 	0.9194	0.4059	0.1882	0.187
Mof_C 	C 	0.0941	0.1076	0.3118	0.186
Mof_C 	C 	0.0941	0.5806	0.3118	0.187
Mof_C 	C 	0.0806	0.5941	0.8118	0.188
Mof_C 	C 	0.6076	0.5941	0.8118	0.189
Mof_N 	N 	0.7434	0.2302	0.3384	-0.322
Mof_N 	N 	0.82401	0.26431	0.27218	-0.332
Mof_N 	N 	0.7944	0.9313	0.624	-0.321
Mof_N 	N 	0.77747	0.96107	0.55886	-0.324
Mof_N 	N 	0.57857	0.16537	0.41846	-0.321
Mof_N 	N 	0.64674	0.26864	0.38692	-0.32
Mof_N 	N 	0.71711	0.84951	0.73298	-0.332
Mof_N 	N 	0.87214	0.92054	0.67952	-0.334
Mof_N 	N 	0.72231	0.05831	0.45778	-0.326
Mof_N 	N 	0.6851	0.1191	0.4264	-0.321
Mof_N 	N 	0.4182	0.4314	0.3384	-0.322
Mof_N 	N 	0.40381	0.46351	0.27218	-0.332
Mof_N 	N 	0.0816	0.4447	0.624	-0.319
Mof_N 	N 	0.16367	0.48007	0.55886	-0.337
Mof_N 	N 	0.50297	0.41617	0.41846	-0.321
Mof_N 	N 	0.46634	0.34444	0.38692	-0.32
Mof_N 	N 	0.04991	0.41751	0.73298	-0.33
Mof_N 	N 	0.94834	0.39994	0.67952	-0.32
Mof_N 	N 	0.31991	0.48391	0.45778	-0.328
Mof_N 	N 	0.3885	0.4545	0.4264	-0.322
Mof_N 	N 	0.7302	0.9182	0.8384	-0.323
Mof_N 	N 	0.76431	0.90381	0.77218	-0.333
Mof_N 	N 	0.4313	0.5816	0.124	-0.322
Mof_N 	N 	0.46107	0.66367	0.05886	-0.333
Mof_N 	N 	0.66537	0.00297	0.91846	-0.352
Mof_N 	N 	0.76864	0.96634	0.88692	-0.31
Mof_N 	N 	0.34951	0.54991	0.23298	-0.331
Mof_N 	N 	0.42054	0.44834	0.17952	-0.332
Mof_N 	N 	0.55831	0.81991	0.95778	-0.305
Mof_N 	N 	0.6191	0.8885	0.9264	-0.322
Mof_N 	N 	0.9314	0.2434	0.8384	-0.321
Mof_N 	N 	0.96351	0.32401	0.77218	-0.323
Mof_N 	N 	0.9447	0.2944	0.124	-0.331
Mof_N 	N 	0.98007	0.27747	0.05886	-0.304
Mof_N 	N 	0.91617	0.07857	0.91846	-0.321
Mof_N 	N 	0.84444	0.14674	0.88692	-0.321
Mof_N 	N 	0.91751	0.21711	0.23298	-0.331
Mof_N 	N 	0.89994	0.37214	0.17952	-0.331
Mof_N 	N 	0.98391	0.22231	0.95778	-0.284
Mof_N 	N 	0.9545	0.1851	0.9264	-0.309
Mof_N 	N 	0.5818	0.7698	0.6616	-0.322
Mof_N 	N 	0.59619	0.73569	0.72782	-0.333
Mof_N 	N 	0.9184	0.0687	0.376	-0.327
Mof_N 	N 	0.83633	0.03893	0.44114	-0.335
Mof_N 	N 	0.49703	0.83463	0.58154	-0.32
Mof_N 	N 	0.53366	0.73136	0.61308	-0.32
Mof_N 	N 	0.95009	0.15049	0.26702	-0.333
Mof_N 	N 	0.05166	0.07946	0.32048	-0.342
Mof_N 	N 	0.68009	0.94169	0.54222	-0.315
Mof_N 	N 	0.6115	0.8809	0.5736	-0.321
Mof_N 	N 	0.2566	0.5686	0.6616	-0.322
Mof_N 	N 	0.17599	0.53649	0.72782	-0.333
Mof_N 	N 	0.2056	0.5553	0.376	-0.323
Mof_N 	N 	0.22253	0.51993	0.44114	-0.337
Mof_N 	N 	0.42143	0.58383	0.58154	-0.321
Mof_N 	N 	0.35326	0.65556	0.61308	-0.32
Mof_N 	N 	0.28289	0.58249	0.26702	-0.332
Mof_N 	N 	0.12786	0.60006	0.32048	-0.332
Mof_N 	N 	0.27769	0.51609	0.54222	-0.328
Mof_N 	N 	0.3149	0.5455	0.5736	-0.322
Mof_N 	N 	0.0686	0.0818	0.1616	-0.321
Mof_N 	N 	0.03649	0.09619	0.22782	-0.343
Mof_N 	N 	0.0553	0.4184	0.876	-0.313
Mof_N 	N 	0.01993	0.33633	0.94114	-0.322
Mof_N 	N 	0.08383	0.99703	0.08154	-0.287
Mof_N 	N 	0.15556	0.03366	0.11308	-0.33
Mof_N 	N 	0.08249	0.45009	0.76702	-0.332
Mof_N 	N 	0.10006	0.55166	0.82048	-0.331
Mof_N 	N 	0.01609	0.18009	0.04222	-0.331
Mof_N 	N 	0.0455	0.1115	0.0736	-0.329
Mof_N 	N 	0.2698	0.7566	0.1616	-0.321
Mof_N 	N 	0.23569	0.67599	0.22782	-0.332
Mof_N 	N 	0.5687	0.7056	0.876	-0.322
Mof_N 	N 	0.53893	0.72253	0.94114	-0.313
Mof_N 	N 	0.33463	0.92143	0.08154	-0.321
Mof_N 	N 	0.23136	0.85326	0.11308	-0.321
Mof_N 	N 	0.65049	0.78289	0.76702	-0.332
Mof_N 	N 	0.57946	0.62786	0.82048	-0.331
Mof_N 	N 	0.44169	0.77769	0.04222	-0.324
Mof_N 	N 	0.3809	0.8149	0.0736	-0.321
Mof_N 	N 	0.2566	0.7698	0.6616	-0.322
Mof_N 	N 	0.17599	0.73569	0.72782	-0.333
Mof_N 	N 	0.2056	0.0687	0.376	-0.323
Mof_N 	N 	0.22253	0.03893	0.44114	-0.335
Mof_N 	N 	0.42143	0.83463	0.58154	-0.32
Mof_N 	N 	0.35326	0.73136	0.61308	-0.32
Mof_N 	N 	0.28289	0.15049	0.26702	-0.331
Mof_N 	N 	0.12786	0.07946	0.32048	-0.329
Mof_N 	N 	0.27769	0.94169	0.54222	-0.314
Mof_N 	N 	0.3149	0.8809	0.5736	-0.321
Mof_N 	N 	0.5818	0.5686	0.6616	-0.322
Mof_N 	N 	0.59619	0.53649	0.72782	-0.333
Mof_N 	N 	0.9184	0.5553	0.376	-0.326
Mof_N 	N 	0.83633	0.51993	0.44114	-0.338
Mof_N 	N 	0.49703	0.58383	0.58154	-0.321
Mof_N 	N 	0.53366	0.65556	0.61308	-0.32
Mof_N 	N 	0.95009	0.58249	0.26702	-0.334
Mof_N 	N 	0.05166	0.60006	0.32048	-0.344
Mof_N 	N 	0.68009	0.51609	0.54222	-0.328
Mof_N 	N 	0.6115	0.5455	0.5736	-0.322
Mof_N 	N 	0.2698	0.0818	0.1616	-0.32
Mof_N 	N 	0.23569	0.09619	0.22782	-0.332
Mof_N 	N 	0.5687	0.4184	0.876	-0.321
Mof_N 	N 	0.53893	0.33633	0.94114	-0.312
Mof_N 	N 	0.33463	0.99703	0.08154	-0.287
Mof_N 	N 	0.23136	0.03366	0.11308	-0.332
Mof_N 	N 	0.65049	0.45009	0.76702	-0.332
Mof_N 	N 	0.57946	0.55166	0.82048	-0.331
Mof_N 	N 	0.44169	0.18009	0.04222	-0.324
Mof_N 	N 	0.3809	0.1115	0.0736	-0.319
Mof_N 	N 	0.0686	0.7566	0.1616	-0.322
Mof_N 	N 	0.03649	0.67599	0.22782	-0.343
Mof_N 	N 	0.0553	0.7056	0.876	-0.313
Mof_N 	N 	0.01993	0.72253	0.94114	-0.323
Mof_N 	N 	0.08383	0.92143	0.08154	-0.321
Mof_N 	N 	0.15556	0.85326	0.11308	-0.319
Mof_N 	N 	0.08249	0.78289	0.76702	-0.332
Mof_N 	N 	0.10006	0.62786	0.82048	-0.331
Mof_N 	N 	0.01609	0.77769	0.04222	-0.331
Mof_N 	N 	0.0455	0.8149	0.0736	-0.332
Mof_N 	N 	0.4182	0.2302	0.3384	-0.322
Mof_N 	N 	0.40381	0.26431	0.27218	-0.332
Mof_N 	N 	0.0816	0.9313	0.624	-0.318
Mof_N 	N 	0.16367	0.96107	0.55886	-0.323
Mof_N 	N 	0.50297	0.16537	0.41846	-0.321
Mof_N 	N 	0.46634	0.26864	0.38692	-0.32
Mof_N 	N 	0.04991	0.84951	0.73298	-0.33
Mof_N 	N 	0.94834	0.92054	0.67952	-0.323
Mof_N 	N 	0.31991	0.05831	0.45778	-0.326
Mof_N 	N 	0.3885	0.1191	0.4264	-0.321
Mof_N 	N 	0.7434	0.4314	0.3384	-0.322
Mof_N 	N 	0.82401	0.46351	0.27218	-0.332
Mof_N 	N 	0.7944	0.4447	0.624	-0.322
Mof_N 	N 	0.77747	0.48007	0.55886	-0.337
Mof_N 	N 	0.57857	0.41617	0.41846	-0.321
Mof_N 	N 	0.64674	0.34444	0.38692	-0.32
Mof_N 	N 	0.71711	0.41751	0.73298	-0.332
Mof_N 	N 	0.87214	0.39994	0.67952	-0.331
Mof_N 	N 	0.72231	0.48391	0.45778	-0.328
Mof_N 	N 	0.6851	0.4545	0.4264	-0.322
Mof_N 	N 	0.9314	0.9182	0.8384	-0.322
Mof_N 	N 	0.96351	0.90381	0.77218	-0.323
Mof_N 	N 	0.9447	0.5816	0.124	-0.33
Mof_N 	N 	0.98007	0.66367	0.05886	-0.305
Mof_N 	N 	0.91617	0.00297	0.91846	-0.35
Mof_N 	N 	0.84444	0.96634	0.88692	-0.311
Mof_N 	N 	0.91751	0.54991	0.23298	-0.331
Mof_N 	N 	0.89994	0.44834	0.17952	-0.331
Mof_N 	N 	0.98391	0.81991	0.95778	-0.286
Mof_N 	N 	0.9545	0.8885	0.9264	-0.312
Mof_N 	N 	0.7302	0.2434	0.8384	-0.322
Mof_N 	N 	0.76431	0.32401	0.77218	-0.333
Mof_N 	N 	0.4313	0.2944	0.124	-0.322
Mof_N 	N 	0.46107	0.27747	0.05886	-0.333
Mof_N 	N 	0.66537	0.07857	0.91846	-0.321
Mof_N 	N 	0.76864	0.14674	0.88692	-0.32
Mof_N 	N 	0.34951	0.21711	0.23298	-0.331
Mof_N 	N 	0.42054	0.37214	0.17952	-0.332
Mof_N 	N 	0.55831	0.22231	0.95778	-0.304
Mof_N 	N 	0.6191	0.1851	0.9264	-0.32
Mof_O 	O 	0.70532	0.20882	0.43956	-0.34
Mof_O 	O 	0.7855	0.2345	0.4248	-0.145
Mof_O 	O 	0.91503	0.29493	0.26614	-0.352
Mof_O 	O 	0.87473	0.27063	0.35074	-0.151
Mof_O 	O 	0.8244	0.8436	0.6672	-0.388
Mof_O 	O 	0.8318	0.8226	0.6084	-0.155
Mof_O 	O 	0.78764	0.92364	0.49532	-0.357
Mof_O 	O 	0.8172	0.8564	0.534	-0.151
Mof_O 	O 	0.60435	0.16335	0.4871	-0.394
Mof_O 	O 	0.521	0.1468	0.546	-0.163
Mof_O 	O 	0.66251	0.24841	0.30978	-0.362
Mof_O 	O 	0.67503	0.33093	0.25514	-0.159
Mof_O 	O 	0.71967	0.95157	0.70586	-0.364
Mof_O 	O 	0.6335	0.9381	0.7322	-0.157
Mof_O 	O 	0.82114	0.99774	0.66172	-0.362
Mof_O 	O 	0.88742	0.05622	0.64056	-0.153
Mof_O 	O 	0.76005	0.98685	0.4299	-0.348
Mof_O 	O 	0.7399	0.0165	0.3664	-0.155
Mof_O 	O 	0.67112	0.14982	0.34336	-0.379
Mof_O 	O 	0.7012	0.0869	0.3298	-0.165
Mof_O 	O 	0.35512	0.35162	0.43956	-0.34
Mof_O 	O 	0.2897	0.3407	0.4248	-0.146
Mof_O 	O 	0.31883	0.43893	0.26614	-0.354
Mof_O 	O 	0.27453	0.37863	0.35074	-0.153
Mof_O 	O 	0.0084	0.4892	0.6672	-0.395
Mof_O 	O 	0.0598	0.569	0.6084	-0.163
Mof_O 	O 	0.21704	0.58104	0.49532	-0.371
Mof_O 	O 	0.1488	0.6096	0.534	-0.157
Mof_O 	O 	0.40855	0.34955	0.4871	-0.393
Mof_O 	O 	0.433	0.3072	0.546	-0.16
Mof_O 	O 	0.52771	0.44181	0.30978	-0.362
Mof_O 	O 	0.56983	0.41393	0.25514	-0.159
Mof_O 	O 	0.07447	0.34257	0.70586	-0.368
Mof_O 	O 	0.1343	0.3297	0.7322	-0.163
Mof_O 	O 	0.01714	0.34054	0.66172	-0.416
Mof_O 	O 	0.97202	0.30322	0.64056	-0.161
Mof_O 	O 	0.31005	0.58325	0.4299	-0.388
Mof_O 	O 	0.3937	0.6171	0.3664	-0.155
Mof_O 	O 	0.48552	0.50682	0.34336	-0.377
Mof_O 	O 	0.469	0.5833	0.3298	-0.161
Mof_O 	O 	0.70882	0.85512	0.93956	-0.338
Mof_O 	O 	0.7345	0.7897	0.9248	-0.138
Mof_O 	O 	0.79493	0.81883	0.76614	-0.352
Mof_O 	O 	0.77063	0.77453	0.85074	-0.149
Mof_O 	O 	0.3436	0.5084	0.1672	-0.394
Mof_O 	O 	0.3226	0.5598	0.1084	-0.167
Mof_O 	O 	0.42364	0.71704	0.99532	-0.301
Mof_O 	O 	0.3564	0.6488	0.034	-0.154
Mof_O 	O 	0.66335	0.90855	0.9871	-0.335
Mof_O 	O 	0.6468	0.933	0.046	-0.141
Mof_O 	O 	0.74841	0.02771	0.80978	-0.377
Mof_O 	O 	0.83093	0.06983	0.75514	-0.161
Mof_O 	O 	0.45157	0.57447	0.20586	-0.368
Mof_O 	O 	0.4381	0.6343	0.2322	-0.163
Mof_O 	O 	0.49774	0.51714	0.16172	-0.398
Mof_O 	O 	0.55622	0.47202	0.14056	-0.167
Mof_O 	O 	0.48685	0.81005	0.9299	-0.363
Mof_O 	O 	0.5165	0.8937	0.8664	-0.146
Mof_O 	O 	0.64982	0.98552	0.84336	-0.367
Mof_O 	O 	0.5869	0.969	0.8298	-0.151
Mof_O 	O 	0.85162	0.20532	0.93956	-0.337
Mof_O 	O 	0.8407	0.2855	0.9248	-0.138
Mof_O 	O 	0.93893	0.41503	0.76614	-0.339
Mof_O 	O 	0.87863	0.37473	0.85074	-0.147
Mof_O 	O 	0.9892	0.3244	0.1672	-0.359
Mof_O 	O 	0.069	0.3318	0.1084	-0.155
Mof_O 	O 	0.08104	0.28764	0.99532	-0.3
Mof_O 	O 	0.1096	0.3172	0.034	-0.161
Mof_O 	O 	0.84955	0.10435	0.9871	-0.343
Mof_O 	O 	0.8072	0.021	0.046	-0.167
Mof_O 	O 	0.94181	0.16251	0.80978	-0.358
Mof_O 	O 	0.91393	0.17503	0.75514	-0.155
Mof_O 	O 	0.84257	0.21967	0.20586	-0.368
Mof_O 	O 	0.8297	0.1335	0.2322	-0.164
Mof_O 	O 	0.84054	0.32114	0.16172	-0.397
Mof_O 	O 	0.80322	0.38742	0.14056	-0.166
Mof_O 	O 	0.08325	0.26005	0.9299	-0.359
Mof_O 	O 	0.1171	0.2399	0.8664	-0.15
Mof_O 	O 	0.00682	0.17112	0.84336	-0.393
Mof_O 	O 	0.0833	0.2012	0.8298	-0.163
Mof_O 	O 	0.64488	0.79118	0.56044	-0.339
Mof_O 	O 	0.7103	0.7655	0.5752	-0.143
Mof_O 	O 	0.68117	0.70507	0.73386	-0.352
Mof_O 	O 	0.72547	0.72937	0.64926	-0.151
Mof_O 	O 	0.9916	0.1564	0.3328	-0.386
Mof_O 	O 	0.9402	0.1774	0.3916	-0.157
Mof_O 	O 	0.78296	0.07636	0.50468	-0.37
Mof_O 	O 	0.8512	0.1436	0.466	-0.157
Mof_O 	O 	0.59145	0.83665	0.5129	-0.39
Mof_O 	O 	0.567	0.8532	0.454	-0.155
Mof_O 	O 	0.47229	0.75159	0.69022	-0.36
Mof_O 	O 	0.43017	0.66907	0.74486	-0.155
Mof_O 	O 	0.92553	0.04843	0.29414	-0.368
Mof_O 	O 	0.8657	0.0619	0.2678	-0.164
Mof_O 	O 	0.98286	0.00226	0.33828	-0.404
Mof_O 	O 	0.02798	0.94378	0.35944	-0.164
Mof_O 	O 	0.68995	0.01315	0.5701	-0.413
Mof_O 	O 	0.6063	0.9835	0.6336	-0.154
Mof_O 	O 	0.51448	0.85018	0.65664	-0.374
Mof_O 	O 	0.531	0.9131	0.6702	-0.154
Mof_O 	O 	0.29468	0.64838	0.56044	-0.34
Mof_O 	O 	0.2145	0.6593	0.5752	-0.145
Mof_O 	O 	0.08497	0.56107	0.73386	-0.353
Mof_O 	O 	0.12527	0.62137	0.64926	-0.153
Mof_O 	O 	0.1756	0.5108	0.3328	-0.393
Mof_O 	O 	0.1682	0.431	0.3916	-0.164
Mof_O 	O 	0.21236	0.41896	0.50468	-0.372
Mof_O 	O 	0.1828	0.3904	0.466	-0.159
Mof_O 	O 	0.39565	0.65045	0.5129	-0.392
Mof_O 	O 	0.479	0.6928	0.454	-0.159
Mof_O 	O 	0.33749	0.55819	0.69022	-0.36
Mof_O 	O 	0.32497	0.58607	0.74486	-0.155
Mof_O 	O 	0.28033	0.65743	0.29414	-0.366
Mof_O 	O 	0.3665	0.6703	0.2678	-0.161
Mof_O 	O 	0.17886	0.65946	0.33828	-0.395
Mof_O 	O 	0.11258	0.69678	0.35944	-0.162
Mof_O 	O 	0.23995	0.41675	0.5701	-0.389
Mof_O 	O 	0.2601	0.3829	0.6336	-0.155
Mof_O 	O 	0.32888	0.49318	0.65664	-0.375
Mof_O 	O 	0.2988	0.4167	0.6702	-0.159
Mof_O 	O 	0.14838	0.14488	0.06044	-0.34
Mof_O 	O 	0.1593	0.2103	0.0752	-0.152
Mof_O 	O 	0.06107	0.18117	0.23386	-0.368
Mof_O 	O 	0.12137	0.22547	0.14926	-0.157
Mof_O 	O 	0.0108	0.4916	0.8328	-0.418
Mof_O 	O 	0.931	0.4402	0.8916	-0.163
Mof_O 	O 	0.91896	0.28296	0.00468	-0.399
Mof_O 	O 	0.8904	0.3512	0.966	-0.149
Mof_O 	O 	0.15045	0.09145	0.0129	-0.453
Mof_O 	O 	0.1928	0.067	0.954	-0.179
Mof_O 	O 	0.05819	0.97229	0.19022	-0.349
Mof_O 	O 	0.08607	0.93017	0.24486	-0.155
Mof_O 	O 	0.15743	0.42553	0.79414	-0.365
Mof_O 	O 	0.1703	0.3657	0.7678	-0.16
Mof_O 	O 	0.15946	0.48286	0.83828	-0.391
Mof_O 	O 	0.19678	0.52798	0.85944	-0.153
Mof_O 	O 	0.91675	0.18995	0.0701	-0.375
Mof_O 	O 	0.8829	0.1063	0.1336	-0.16
Mof_O 	O 	0.99318	0.01448	0.15664	-0.367
Mof_O 	O 	0.9167	0.031	0.1702	-0.164
Mof_O 	O 	0.29118	0.79468	0.06044	-0.343
Mof_O 	O 	0.2655	0.7145	0.0752	-0.151
Mof_O 	O 	0.20507	0.58497	0.23386	-0.354
Mof_O 	O 	0.22937	0.62527	0.14926	-0.155
Mof_O 	O 	0.6564	0.6756	0.8328	-0.388
Mof_O 	O 	0.6774	0.6682	0.8916	-0.153
Mof_O 	O 	0.57636	0.71236	0.00468	-0.415
Mof_O 	O 	0.6436	0.6828	0.966	-0.156
Mof_O 	O 	0.33665	0.89565	0.0129	-0.442
Mof_O 	O 	0.3532	0.979	0.954	-0.15
Mof_O 	O 	0.25159	0.83749	0.19022	-0.36
Mof_O 	O 	0.16907	0.82497	0.24486	-0.157
Mof_O 	O 	0.54843	0.78033	0.79414	-0.365
Mof_O 	O 	0.5619	0.8665	0.7678	-0.159
Mof_O 	O 	0.50226	0.67886	0.83828	-0.39
Mof_O 	O 	0.44378	0.61258	0.85944	-0.152
Mof_O 	O 	0.51315	0.73995	0.0701	-0.386
Mof_O 	O 	0.4835	0.7601	0.1336	-0.158
Mof_O 	O 	0.35018	0.82888	0.15664	-0.376
Mof_O 	O 	0.4131	0.7988	0.1702	-0.16
Mof_O 	O 	0.29468	0.79118	0.56044	-0.339
Mof_O 	O 	0.2145	0.7655	0.5752	-0.144
Mof_O 	O 	0.08497	0.70507	0.73386	-0.353
Mof_O 	O 	0.12527	0.72937	0.64926	-0.153
Mof_O 	O 	0.1756	0.1564	0.3328	-0.393
Mof_O 	O 	0.1682	0.1774	0.3916	-0.165
Mof_O 	O 	0.21236	0.07636	0.50468	-0.371
Mof_O 	O 	0.1828	0.1436	0.466	-0.161
Mof_O 	O 	0.39565	0.83665	0.5129	-0.39
Mof_O 	O 	0.479	0.8532	0.454	-0.156
Mof_O 	O 	0.33749	0.75159	0.69022	-0.36
Mof_O 	O 	0.32497	0.66907	0.74486	-0.155
Mof_O 	O 	0.28033	0.04843	0.29414	-0.369
Mof_O 	O 	0.3665	0.0619	0.2678	-0.165
Mof_O 	O 	0.17886	0.00226	0.33828	-0.429
Mof_O 	O 	0.11258	0.94378	0.35944	-0.168
Mof_O 	O 	0.23995	0.01315	0.5701	-0.414
Mof_O 	O 	0.2601	0.9835	0.6336	-0.155
Mof_O 	O 	0.32888	0.85018	0.65664	-0.374
Mof_O 	O 	0.2988	0.9131	0.6702	-0.154
Mof_O 	O 	0.64488	0.64838	0.56044	-0.339
Mof_O 	O 	0.7103	0.6593	0.5752	-0.143
Mof_O 	O 	0.68117	0.56107	0.73386	-0.352
Mof_O 	O 	0.72547	0.62137	0.64926	-0.151
Mof_O 	O 	0.9916	0.5108	0.3328	-0.385
Mof_O 	O 	0.9402	0.431	0.3916	-0.156
Mof_O 	O 	0.78296	0.41896	0.50468	-0.371
Mof_O 	O 	0.8512	0.3904	0.466	-0.155
Mof_O 	O 	0.59145	0.65045	0.5129	-0.392
Mof_O 	O 	0.567	0.6928	0.454	-0.159
Mof_O 	O 	0.47229	0.55819	0.69022	-0.36
Mof_O 	O 	0.43017	0.58607	0.74486	-0.155
Mof_O 	O 	0.92553	0.65743	0.29414	-0.366
Mof_O 	O 	0.8657	0.6703	0.2678	-0.16
Mof_O 	O 	0.98286	0.65946	0.33828	-0.371
Mof_O 	O 	0.02798	0.69678	0.35944	-0.159
Mof_O 	O 	0.68995	0.41675	0.5701	-0.388
Mof_O 	O 	0.6063	0.3829	0.6336	-0.155
Mof_O 	O 	0.51448	0.49318	0.65664	-0.375
Mof_O 	O 	0.531	0.4167	0.6702	-0.159
Mof_O 	O 	0.29118	0.14488	0.06044	-0.341
Mof_O 	O 	0.2655	0.2103	0.0752	-0.151
Mof_O 	O 	0.20507	0.18117	0.23386	-0.354
Mof_O 	O 	0.22937	0.22547	0.14926	-0.155
Mof_O 	O 	0.6564	0.4916	0.8328	-0.388
Mof_O 	O 	0.6774	0.4402	0.8916	-0.153
Mof_O 	O 	0.57636	0.28296	0.00468	-0.416
Mof_O 	O 	0.6436	0.3512	0.966	-0.156
Mof_O 	O 	0.33665	0.09145	0.0129	-0.454
Mof_O 	O 	0.3532	0.067	0.954	-0.178
Mof_O 	O 	0.25159	0.97229	0.19022	-0.344
Mof_O 	O 	0.16907	0.93017	0.24486	-0.153
Mof_O 	O 	0.54843	0.42553	0.79414	-0.365
Mof_O 	O 	0.5619	0.3657	0.7678	-0.16
Mof_O 	O 	0.50226	0.48286	0.83828	-0.39
Mof_O 	O 	0.44378	0.52798	0.85944	-0.152
Mof_O 	O 	0.51315	0.18995	0.0701	-0.386
Mof_O 	O 	0.4835	0.1063	0.1336	-0.162
Mof_O 	O 	0.35018	0.01448	0.15664	-0.386
Mof_O 	O 	0.4131	0.031	0.1702	-0.169
Mof_O 	O 	0.14838	0.79468	0.06044	-0.342
Mof_O 	O 	0.1593	0.7145	0.0752	-0.151
Mof_O 	O 	0.06107	0.58497	0.23386	-0.368
Mof_O 	O 	0.12137	0.62527	0.14926	-0.157
Mof_O 	O 	0.0108	0.6756	0.8328	-0.417
Mof_O 	O 	0.931	0.6682	0.8916	-0.163
Mof_O 	O 	0.91896	0.71236	0.00468	-0.398
Mof_O 	O 	0.8904	0.6828	0.966	-0.149
Mof_O 	O 	0.15045	0.89565	0.0129	-0.442
Mof_O 	O 	0.1928	0.979	0.954	-0.151
Mof_O 	O 	0.05819	0.83749	0.19022	-0.365
Mof_O 	O 	0.08607	0.82497	0.24486	-0.159
Mof_O 	O 	0.15743	0.78033	0.79414	-0.365
Mof_O 	O 	0.1703	0.8665	0.7678	-0.159
Mof_O 	O 	0.15946	0.67886	0.83828	-0.391
Mof_O 	O 	0.19678	0.61258	0.85944	-0.153
Mof_O 	O 	0.91675	0.73995	0.0701	-0.375
Mof_O 	O 	0.8829	0.7601	0.1336	-0.156
Mof_O 	O 	0.99318	0.82888	0.15664	-0.358
Mof_O 	O 	0.9167	0.7988	0.1702	-0.156
Mof_O 	O 	0.35512	0.20882	0.43956	-0.341
Mof_O 	O 	0.2897	0.2345	0.4248	-0.146
Mof_O 	O 	0.31883	0.29493	0.26614	-0.354
Mof_O 	O 	0.27453	0.27063	0.35074	-0.153
Mof_O 	O 	0.0084	0.8436	0.6672	-0.395
Mof_O 	O 	0.0598	0.8226	0.6084	-0.163
Mof_O 	O 	0.21704	0.92364	0.49532	-0.358
Mof_O 	O 	0.1488	0.8564	0.534	-0.154
Mof_O 	O 	0.40855	0.16335	0.4871	-0.394
Mof_O 	O 	0.433	0.1468	0.546	-0.163
Mof_O 	O 	0.52771	0.24841	0.30978	-0.362
Mof_O 	O 	0.56983	0.33093	0.25514	-0.159
Mof_O 	O 	0.07447	0.95157	0.70586	-0.365
Mof_O 	O 	0.1343	0.9381	0.7322	-0.158
Mof_O 	O 	0.01714	0.99774	0.66172	-0.383
Mof_O 	O 	0.97202	0.05622	0.64056	-0.155
Mof_O 	O 	0.31005	0.98685	0.4299	-0.347
Mof_O 	O 	0.3937	0.0165	0.3664	-0.155
Mof_O 	O 	0.48552	0.14982	0.34336	-0.379
Mof_O 	O 	0.469	0.0869	0.3298	-0.165
Mof_O 	O 	0.70532	0.35162	0.43956	-0.34
Mof_O 	O 	0.7855	0.3407	0.4248	-0.145
Mof_O 	O 	0.91503	0.43893	0.26614	-0.352
Mof_O 	O 	0.87473	0.37863	0.35074	-0.151
Mof_O 	O 	0.8244	0.4892	0.6672	-0.389
Mof_O 	O 	0.8318	0.569	0.6084	-0.156
Mof_O 	O 	0.78764	0.58104	0.49532	-0.37
Mof_O 	O 	0.8172	0.6096	0.534	-0.153
Mof_O 	O 	0.60435	0.34955	0.4871	-0.393
Mof_O 	O 	0.521	0.3072	0.546	-0.16
Mof_O 	O 	0.66251	0.44181	0.30978	-0.362
Mof_O 	O 	0.67503	0.41393	0.25514	-0.159
Mof_O 	O 	0.71967	0.34257	0.70586	-0.367
Mof_O 	O 	0.6335	0.3297	0.7322	-0.162
Mof_O 	O 	0.82114	0.34054	0.66172	-0.394
Mof_O 	O 	0.88742	0.30322	0.64056	-0.158
Mof_O 	O 	0.76005	0.58325	0.4299	-0.388
Mof_O 	O 	0.7399	0.6171	0.3664	-0.155
Mof_O 	O 	0.67112	0.50682	0.34336	-0.377
Mof_O 	O 	0.7012	0.5833	0.3298	-0.161
Mof_O 	O 	0.85162	0.85512	0.93956	-0.339
Mof_O 	O 	0.8407	0.7897	0.9248	-0.138
Mof_O 	O 	0.93893	0.81883	0.76614	-0.34
Mof_O 	O 	0.87863	0.77453	0.85074	-0.147
Mof_O 	O 	0.9892	0.5084	0.1672	-0.359
Mof_O 	O 	0.069	0.5598	0.1084	-0.155
Mof_O 	O 	0.08104	0.71704	0.99532	-0.301
Mof_O 	O 	0.1096	0.6488	0.034	-0.161
Mof_O 	O 	0.84955	0.90855	0.9871	-0.337
Mof_O 	O 	0.8072	0.933	0.046	-0.141
Mof_O 	O 	0.94181	0.02771	0.80978	-0.372
Mof_O 	O 	0.91393	0.06983	0.75514	-0.159
Mof_O 	O 	0.84257	0.57447	0.20586	-0.367
Mof_O 	O 	0.8297	0.6343	0.2322	-0.162
Mof_O 	O 	0.84054	0.51714	0.16172	-0.397
Mof_O 	O 	0.80322	0.47202	0.14056	-0.166
Mof_O 	O 	0.08325	0.81005	0.9299	-0.359
Mof_O 	O 	0.1171	0.8937	0.8664	-0.147
Mof_O 	O 	0.00682	0.98552	0.84336	-0.382
Mof_O 	O 	0.0833	0.969	0.8298	-0.154
Mof_O 	O 	0.70882	0.20532	0.93956	-0.336
Mof_O 	O 	0.7345	0.2855	0.9248	-0.138
Mof_O 	O 	0.79493	0.41503	0.76614	-0.352
Mof_O 	O 	0.77063	0.37473	0.85074	-0.149
Mof_O 	O 	0.3436	0.3244	0.1672	-0.394
Mof_O 	O 	0.3226	0.3318	0.1084	-0.167
Mof_O 	O 	0.42364	0.28764	0.99532	-0.299
Mof_O 	O 	0.3564	0.3172	0.034	-0.154
Mof_O 	O 	0.66335	0.10435	0.9871	-0.341
Mof_O 	O 	0.6468	0.021	0.046	-0.168
Mof_O 	O 	0.74841	0.16251	0.80978	-0.362
Mof_O 	O 	0.83093	0.17503	0.75514	-0.157
Mof_O 	O 	0.45157	0.21967	0.20586	-0.368
Mof_O 	O 	0.4381	0.1335	0.2322	-0.164
Mof_O 	O 	0.49774	0.32114	0.16172	-0.398
Mof_O 	O 	0.55622	0.38742	0.14056	-0.167
Mof_O 	O 	0.48685	0.26005	0.9299	-0.363
Mof_O 	O 	0.5165	0.2399	0.8664	-0.15
Mof_O 	O 	0.64982	0.17112	0.84336	-0.377
Mof_O 	O 	0.5869	0.2012	0.8298	-0.159
_end
