data_functionalizedCrystal
_audit_creation_method	'EQeq! by Chris Wilmer'
_symmetry_space_group_name_H-M	'P1'
_symmetry_Int_Tables_number	1
_symmetry_cell_setting	triclinic
loop_
_symmetry_equiv_pos_as_xyz
  x,y,z
_cell_length_a	10.061
_cell_length_b	25.034
_cell_length_c	14.69
_cell_angle_alpha	90
_cell_angle_beta	103.081
_cell_angle_gamma	90
loop_
_atom_site_label
_atom_site_type_symbol
_atom_site_fract_x
_atom_site_fract_y
_atom_site_fract_z
_atom_site_charge
Mof_Co	Co	0.4729	0.02123	0.35893	1.177
Mof_C 	C 	0.6003	0.91106	0.3621	0.152
Mof_H 	H 	0.678	0.932	0.3674	-0.026
Mof_C 	C 	0.6147	0.85673	0.3594	-0.258
Mof_H 	H 	0.7	0.8417	0.362	0.121
Mof_C 	C 	0.5012	0.82432	0.3527	0.248
Mof_C 	C 	0.376	0.84945	0.3453	-0.252
Mof_H 	H 	0.2962	0.8296	0.3383	0.15
Mof_C 	C 	0.3728	0.90428	0.3485	0.156
Mof_H 	H 	0.2884	0.9206	0.3441	-0.019
Mof_C 	C 	0.4266	0.73026	0.3553	0.292
Mof_C 	C 	0.4713	0.67398	0.3453	-0.208
Mof_C 	C 	0.6061	0.65923	0.3555	0.189
Mof_H 	H 	0.6744	0.6848	0.3719	-0.035
Mof_C 	C 	0.6408	0.60681	0.3418	-0.324
Mof_H 	H 	0.7316	0.597	0.3486	0.165
Mof_C 	C 	0.5386	0.56941	0.3179	0.354
Mof_C 	C 	0.4046	0.58288	0.3081	-0.348
Mof_H 	H 	0.3365	0.5572	0.2917	0.172
Mof_C 	C 	0.3722	0.63524	0.3229	0.199
Mof_H 	H 	0.2813	0.6446	0.3176	-0.018
Mof_C 	C 	0.528	0.47191	0.3103	0.356
Mof_C 	C 	0.5655	0.43073	0.2597	-0.331
Mof_H 	H 	0.6152	0.4378	0.2148	0.165
Mof_C 	C 	0.5302	0.37931	0.275	0.195
Mof_H 	H 	0.5554	0.3517	0.2401	-0.043
Mof_C 	C 	0.4573	0.3681	0.3417	-0.211
Mof_C 	C 	0.4173	0.41039	0.3906	0.194
Mof_H 	H 	0.3643	0.4038	0.4337	-0.019
Mof_C 	C 	0.4555	0.46212	0.3758	-0.342
Mof_H 	H 	0.4316	0.4901	0.4106	0.156
Mof_C 	C 	0.4176	0.31254	0.3633	0.296
Mof_C 	C 	0.4853	0.2187	0.3455	0.28
Mof_C 	C 	0.5673	0.1866	0.3056	-0.28
Mof_H 	H 	0.6284	0.202	0.2743	0.129
Mof_C 	C 	0.5596	0.13244	0.3117	0.172
Mof_H 	H 	0.6189	0.1121	0.2857	-0.027
Mof_C 	C 	0.3952	0.1382	0.3897	0.174
Mof_H 	H 	0.3328	0.122	0.4189	-0.025
Mof_C 	C 	0.3991	0.1931	0.3889	-0.287
Mof_H 	H 	0.3423	0.2126	0.4183	0.157
Mof_C 	C 	0.7221	0.00143	0.5229	0.386
Mof_C 	C 	0.866	0.00036	0.511	-0.089
Mof_C 	C 	0.9669	0.97376	0.5744	-0.012
Mof_H 	H 	0.9449	0.9559	0.6245	0.059
Mof_C 	C 	0.0996	0.97345	0.5643	-0.017
Mof_H 	H 	0.1666	0.9557	0.6078	0.057
Mof_C 	C 	0.3841	0.00489	0.9288	-0.036
Mof_H 	H 	0.3062	0.0083	0.881	0.071
Mof_C 	C 	0.3755	0.01102	0.0207	-0.017
Mof_H 	H 	0.2918	0.0183	0.0348	0.05
Mof_C 	C 	0.492	0.00628	0.0923	-0.051
Mof_C 	C 	0.4845	0.01357	0.192	0.293
Mof_N 	N 	0.4816	0.93587	0.3576	-0.256
Mof_N 	N 	0.5202	0.7692	0.3513	-0.276
Mof_H 	H 	0.5999	0.7585	0.3474	0.143
Mof_N 	N 	0.5005	0.27389	0.34	-0.282
Mof_H 	H 	0.5695	0.2849	0.3198	0.146
Mof_N 	N 	0.4735	0.10694	0.3519	-0.258
Mof_O 	O 	0.312	0.74033	0.3622	-0.253
Mof_O 	O 	0.5832	0.52056	0.294	-0.341
Mof_O 	O 	0.3239	0.30331	0.3983	-0.259
Mof_O 	O 	0.6987	0.97624	0.59217	-0.442
Mof_O 	O 	0.6365	0.02744	0.4654	-0.463
Mof_O 	O 	0.3698	0.01728	0.21199	-0.375
Mof_O 	O 	0.5929	0.01619	0.25365	-0.367
Mof_Co	Co	0.5271	0.97877	0.64107	1.176
Mof_C 	C 	0.3997	0.08894	0.6379	0.151
Mof_H 	H 	0.322	0.068	0.6326	-0.027
Mof_C 	C 	0.3853	0.14327	0.6406	-0.259
Mof_H 	H 	0.3	0.1583	0.638	0.12
Mof_C 	C 	0.4988	0.17568	0.6473	0.247
Mof_C 	C 	0.624	0.15055	0.6547	-0.253
Mof_H 	H 	0.7038	0.1704	0.6617	0.149
Mof_C 	C 	0.6272	0.09572	0.6515	0.155
Mof_H 	H 	0.7116	0.0794	0.6559	-0.02
Mof_C 	C 	0.5734	0.26974	0.6447	0.292
Mof_C 	C 	0.5287	0.32602	0.6547	-0.208
Mof_C 	C 	0.3939	0.34077	0.6445	0.189
Mof_H 	H 	0.3256	0.3152	0.6281	-0.035
Mof_C 	C 	0.3592	0.39319	0.6582	-0.324
Mof_H 	H 	0.2684	0.403	0.6514	0.165
Mof_C 	C 	0.4614	0.43059	0.6821	0.354
Mof_C 	C 	0.5954	0.41712	0.6919	-0.348
Mof_H 	H 	0.6635	0.4428	0.7083	0.172
Mof_C 	C 	0.6278	0.36476	0.6771	0.199
Mof_H 	H 	0.7187	0.3554	0.6824	-0.018
Mof_C 	C 	0.472	0.52809	0.6897	0.356
Mof_C 	C 	0.4345	0.56927	0.7403	-0.331
Mof_H 	H 	0.3848	0.5622	0.7852	0.165
Mof_C 	C 	0.4698	0.62069	0.725	0.195
Mof_H 	H 	0.4446	0.6483	0.7599	-0.043
Mof_C 	C 	0.5427	0.6319	0.6583	-0.211
Mof_C 	C 	0.5827	0.58961	0.6094	0.194
Mof_H 	H 	0.6357	0.5962	0.5663	-0.019
Mof_C 	C 	0.5445	0.53788	0.6242	-0.342
Mof_H 	H 	0.5684	0.5099	0.5894	0.156
Mof_C 	C 	0.5824	0.68746	0.6367	0.296
Mof_C 	C 	0.5147	0.7813	0.6545	0.28
Mof_C 	C 	0.4327	0.8134	0.6944	-0.28
Mof_H 	H 	0.3716	0.798	0.7257	0.129
Mof_C 	C 	0.4404	0.86756	0.6883	0.172
Mof_H 	H 	0.3811	0.8879	0.7143	-0.027
Mof_C 	C 	0.6048	0.8618	0.6103	0.174
Mof_H 	H 	0.6672	0.878	0.5811	-0.025
Mof_C 	C 	0.6009	0.8069	0.6111	-0.287
Mof_H 	H 	0.6577	0.7874	0.5817	0.157
Mof_C 	C 	0.2779	0.99857	0.4771	0.386
Mof_C 	C 	0.134	0.99964	0.489	-0.089
Mof_C 	C 	0.0331	0.02624	0.4256	-0.012
Mof_H 	H 	0.0551	0.0441	0.3755	0.059
Mof_C 	C 	0.9004	0.02655	0.4357	-0.017
Mof_H 	H 	0.8334	0.0443	0.3922	0.057
Mof_C 	C 	0.6159	0.99511	0.0712	-0.036
Mof_H 	H 	0.6938	0.9917	0.119	0.071
Mof_C 	C 	0.6245	0.98898	0.9793	-0.017
Mof_H 	H 	0.7082	0.9817	0.9652	0.05
Mof_C 	C 	0.508	0.99372	0.9077	-0.051
Mof_C 	C 	0.5155	0.98643	0.808	0.293
Mof_N 	N 	0.5184	0.06413	0.6424	-0.256
Mof_N 	N 	0.4798	0.2308	0.6487	-0.276
Mof_H 	H 	0.4001	0.2415	0.6526	0.143
Mof_N 	N 	0.4995	0.72611	0.66	-0.282
Mof_H 	H 	0.4305	0.7151	0.6802	0.146
Mof_N 	N 	0.5265	0.89306	0.6481	-0.258
Mof_O 	O 	0.688	0.25967	0.6378	-0.253
Mof_O 	O 	0.4168	0.47944	0.706	-0.341
Mof_O 	O 	0.6761	0.69669	0.6017	-0.259
Mof_O 	O 	0.3013	0.02376	0.40783	-0.442
Mof_O 	O 	0.3635	0.97256	0.5346	-0.463
Mof_O 	O 	0.6302	0.98272	0.78801	-0.375
Mof_O 	O 	0.4071	0.98381	0.74635	-0.367
Mof_Co	Co	0.0271	0.52123	0.14107	1.176
Mof_C 	C 	0.8997	0.41106	0.1379	0.153
Mof_H 	H 	0.822	0.432	0.1326	-0.027
Mof_C 	C 	0.8853	0.35673	0.1406	-0.261
Mof_H 	H 	0.8	0.3417	0.138	0.121
Mof_C 	C 	0.9988	0.32432	0.1473	0.249
Mof_C 	C 	0.124	0.34945	0.1547	-0.255
Mof_H 	H 	0.2038	0.3296	0.1617	0.149
Mof_C 	C 	0.1272	0.40428	0.1515	0.156
Mof_H 	H 	0.2116	0.4206	0.1559	-0.02
Mof_C 	C 	0.0734	0.23026	0.1447	0.292
Mof_C 	C 	0.0287	0.17398	0.1547	-0.211
Mof_C 	C 	0.8939	0.15923	0.1445	0.193
Mof_H 	H 	0.8256	0.1848	0.1281	-0.037
Mof_C 	C 	0.8592	0.10681	0.1582	-0.327
Mof_H 	H 	0.7684	0.097	0.1514	0.166
Mof_C 	C 	0.9614	0.06941	0.1821	0.358
Mof_C 	C 	0.0954	0.08288	0.1919	-0.353
Mof_H 	H 	0.1635	0.0572	0.2083	0.174
Mof_C 	C 	0.1278	0.13524	0.1771	0.202
Mof_H 	H 	0.2187	0.1446	0.1824	-0.019
Mof_C 	C 	0.972	0.97191	0.1897	0.362
Mof_C 	C 	0.9345	0.93073	0.2403	-0.337
Mof_H 	H 	0.8848	0.9378	0.2852	0.167
Mof_C 	C 	0.9698	0.87931	0.225	0.202
Mof_H 	H 	0.9446	0.8517	0.2599	-0.045
Mof_C 	C 	0.0427	0.8681	0.1583	-0.216
Mof_C 	C 	0.0827	0.91039	0.1094	0.199
Mof_H 	H 	0.1357	0.9038	0.0663	-0.021
Mof_C 	C 	0.0445	0.96212	0.1242	-0.348
Mof_H 	H 	0.0684	0.9901	0.0894	0.158
Mof_C 	C 	0.0824	0.81254	0.1367	0.296
Mof_C 	C 	0.0147	0.7187	0.1545	0.275
Mof_C 	C 	0.9327	0.6866	0.1944	-0.275
Mof_H 	H 	0.8716	0.702	0.2257	0.128
Mof_C 	C 	0.9404	0.63244	0.1883	0.172
Mof_H 	H 	0.8811	0.6121	0.2143	-0.026
Mof_C 	C 	0.1048	0.6382	0.1103	0.171
Mof_H 	H 	0.1672	0.622	0.0811	-0.025
Mof_C 	C 	0.1009	0.6931	0.1111	-0.284
Mof_H 	H 	0.1577	0.7126	0.0817	0.156
Mof_C 	C 	0.7779	0.50143	0.9771	0.384
Mof_C 	C 	0.634	0.50036	0.989	-0.089
Mof_C 	C 	0.5331	0.47376	0.9256	-0.012
Mof_H 	H 	0.5551	0.4559	0.8755	0.059
Mof_C 	C 	0.4004	0.47345	0.9357	-0.017
Mof_H 	H 	0.3334	0.4557	0.8922	0.057
Mof_C 	C 	0.1159	0.50489	0.5712	-0.035
Mof_H 	H 	0.1938	0.5083	0.619	0.071
Mof_C 	C 	0.1245	0.51102	0.4793	-0.017
Mof_H 	H 	0.2082	0.5183	0.4652	0.05
Mof_C 	C 	0.008	0.50628	0.4077	-0.051
Mof_C 	C 	0.0155	0.51357	0.308	0.292
Mof_N 	N 	0.0184	0.43587	0.1424	-0.257
Mof_N 	N 	0.9798	0.2692	0.1487	-0.276
Mof_H 	H 	0.9001	0.2585	0.1526	0.143
Mof_N 	N 	0.9995	0.77389	0.16	-0.279
Mof_H 	H 	0.9305	0.7849	0.1802	0.145
Mof_N 	N 	0.0265	0.60694	0.1481	-0.259
Mof_O 	O 	0.188	0.24033	0.1378	-0.253
Mof_O 	O 	0.9168	0.02056	0.206	-0.343
Mof_O 	O 	0.1761	0.80331	0.1017	-0.259
Mof_O 	O 	0.8013	0.47624	0.90783	-0.442
Mof_O 	O 	0.8635	0.52744	0.0346	-0.461
Mof_O 	O 	0.1302	0.51728	0.28801	-0.375
Mof_O 	O 	0.9071	0.51619	0.24635	-0.366
Mof_Co	Co	0.9729	0.47877	0.85893	1.176
Mof_C 	C 	0.1003	0.58894	0.8621	0.153
Mof_H 	H 	0.178	0.568	0.8674	-0.027
Mof_C 	C 	0.1147	0.64327	0.8594	-0.261
Mof_H 	H 	0.2	0.6583	0.862	0.121
Mof_C 	C 	0.0012	0.67568	0.8527	0.249
Mof_C 	C 	0.876	0.65055	0.8453	-0.255
Mof_H 	H 	0.7962	0.6704	0.8383	0.149
Mof_C 	C 	0.8728	0.59572	0.8485	0.156
Mof_H 	H 	0.7884	0.5794	0.8441	-0.02
Mof_C 	C 	0.9266	0.76974	0.8553	0.292
Mof_C 	C 	0.9713	0.82602	0.8453	-0.211
Mof_C 	C 	0.1061	0.84077	0.8555	0.193
Mof_H 	H 	0.1744	0.8152	0.8719	-0.037
Mof_C 	C 	0.1408	0.89319	0.8418	-0.327
Mof_H 	H 	0.2316	0.903	0.8486	0.166
Mof_C 	C 	0.0386	0.93059	0.8179	0.358
Mof_C 	C 	0.9046	0.91712	0.8081	-0.353
Mof_H 	H 	0.8365	0.9428	0.7917	0.174
Mof_C 	C 	0.8722	0.86476	0.8229	0.202
Mof_H 	H 	0.7813	0.8554	0.8176	-0.019
Mof_C 	C 	0.028	0.02809	0.8103	0.362
Mof_C 	C 	0.0655	0.06927	0.7597	-0.337
Mof_H 	H 	0.1152	0.0622	0.7148	0.167
Mof_C 	C 	0.0302	0.12069	0.775	0.202
Mof_H 	H 	0.0554	0.1483	0.7401	-0.045
Mof_C 	C 	0.9573	0.1319	0.8417	-0.216
Mof_C 	C 	0.9173	0.08961	0.8906	0.199
Mof_H 	H 	0.8643	0.0962	0.9337	-0.021
Mof_C 	C 	0.9555	0.03788	0.8758	-0.348
Mof_H 	H 	0.9316	0.0099	0.9106	0.158
Mof_C 	C 	0.9176	0.18746	0.8633	0.296
Mof_C 	C 	0.9853	0.2813	0.8455	0.275
Mof_C 	C 	0.0673	0.3134	0.8056	-0.275
Mof_H 	H 	0.1284	0.298	0.7743	0.128
Mof_C 	C 	0.0596	0.36756	0.8117	0.172
Mof_H 	H 	0.1189	0.3879	0.7857	-0.026
Mof_C 	C 	0.8952	0.3618	0.8897	0.171
Mof_H 	H 	0.8328	0.378	0.9189	-0.025
Mof_C 	C 	0.8991	0.3069	0.8889	-0.284
Mof_H 	H 	0.8423	0.2874	0.9183	0.156
Mof_C 	C 	0.2221	0.49857	0.0229	0.384
Mof_C 	C 	0.366	0.49964	0.011	-0.089
Mof_C 	C 	0.4669	0.52624	0.0744	-0.012
Mof_H 	H 	0.4449	0.5441	0.1245	0.059
Mof_C 	C 	0.5996	0.52655	0.0643	-0.017
Mof_H 	H 	0.6666	0.5443	0.1078	0.057
Mof_C 	C 	0.8841	0.49511	0.4288	-0.035
Mof_H 	H 	0.8062	0.4917	0.381	0.071
Mof_C 	C 	0.8755	0.48898	0.5207	-0.017
Mof_H 	H 	0.7918	0.4817	0.5348	0.05
Mof_C 	C 	0.992	0.49372	0.5923	-0.051
Mof_C 	C 	0.9845	0.48643	0.692	0.292
Mof_N 	N 	0.9816	0.56413	0.8576	-0.257
Mof_N 	N 	0.0202	0.7308	0.8513	-0.276
Mof_H 	H 	0.0999	0.7415	0.8474	0.143
Mof_N 	N 	0.0005	0.22611	0.84	-0.279
Mof_H 	H 	0.0695	0.2151	0.8198	0.145
Mof_N 	N 	0.9735	0.39306	0.8519	-0.259
Mof_O 	O 	0.812	0.75967	0.8622	-0.253
Mof_O 	O 	0.0832	0.97944	0.794	-0.343
Mof_O 	O 	0.8239	0.19669	0.8983	-0.259
Mof_O 	O 	0.1987	0.52376	0.09217	-0.442
Mof_O 	O 	0.1365	0.47256	0.9654	-0.461
Mof_O 	O 	0.8698	0.48272	0.71199	-0.375
Mof_O 	O 	0.0929	0.48381	0.75365	-0.366
_end
