# CIF file generated by openbabel 3.1.0, see https://openbabel.org
data_I
_chemical_name_common 'image0'
_cell_length_a 13.475
_cell_length_b 13.475
_cell_length_c 8.0291
_cell_angle_alpha 90
_cell_angle_beta 90
_cell_angle_gamma 120
_space_group_name_H-M_alt 'P 1'
_space_group_name_Hall 'P 1'
loop_
    _symmetry_equiv_pos_as_xyz
    x,y,z
loop_
    _atom_site_label
    _atom_site_type_symbol
    _atom_site_fract_x
    _atom_site_fract_y
    _atom_site_fract_z
    _atom_site_occupancy
    Mn1      Mn       0.30265    0.33739    0.95416    1.000
    O1       O        0.22656    0.17902    0.09350    1.000
    C1       C        0.53497    0.32188    0.94990    1.000
    C2       C        0.35407    0.55960    0.72430    1.000
    O2       O        0.23911    0.05498    0.25740    1.000
    C3       C        0.26342    0.15580    0.22150    1.000
    N1       N        0.34632    0.20777    0.50150    1.000
    H1       H        0.28610    0.19770    0.56290    1.000
    H2       H        0.41130    0.25610    0.55570    1.000
    C4       C        0.34394    0.25337    0.33640    1.000
    H3       H        0.42110    0.28500    0.28980    1.000
    N2       N        0.36683    0.42781    0.19820    1.000
    H4       H        0.44370    0.46070    0.20040    1.000
    H5       H        0.34950    0.48410    0.20530    1.000
    C5       C        0.31899    0.35239    0.34530    1.000
    H6       H        0.23680    0.32190    0.34990    1.000
    H7       H        0.35250    0.39650    0.44590    1.000
    N3       N        0.45553    0.31973    0.89260    1.000
    N4       N        0.36777    0.49852    0.80870    1.000
    Mn2      Mn       0.66261    0.96526    0.95416    1.000
    O3       O        0.82098    0.04754    0.09350    1.000
    C6       C        0.67812    0.21309    0.94990    1.000
    C7       C        0.44040    0.79447    0.72430    1.000
    O4       O        0.94502    0.18413    0.25740    1.000
    C8       C        0.84420    0.10762    0.22150    1.000
    N5       N        0.79223    0.13855    0.50150    1.000
    H8       H        0.80230    0.08840    0.56290    1.000
    H9       H        0.74390    0.15520    0.55570    1.000
    C9       C        0.74663    0.09057    0.33640    1.000
    H10      H        0.71500    0.13610    0.28980    1.000
    N6       N        0.57219    0.93902    0.19820    1.000
    H11      H        0.53930    0.98300    0.20040    1.000
    H12      H        0.51590    0.86540    0.20530    1.000
    C10      C        0.64761    0.96660    0.34530    1.000
    H13      H        0.67810    0.91490    0.34990    1.000
    H14      H        0.60350    0.95600    0.44590    1.000
    N7       N        0.68027    0.13580    0.89260    1.000
    N8       N        0.50148    0.86925    0.80870    1.000
    Mn3      Mn       0.03474    0.69735    0.95416    1.000
    O5       O        0.95246    0.77344    0.09350    1.000
    C11      C        0.78691    0.46503    0.94990    1.000
    C12      C        0.20553    0.64593    0.72430    1.000
    O6       O        0.81587    0.76089    0.25740    1.000
    C13      C        0.89238    0.73658    0.22150    1.000
    N9       N        0.86145    0.65368    0.50150    1.000
    H15      H        0.91160    0.71390    0.56290    1.000
    H16      H        0.84480    0.58870    0.55570    1.000
    C14      C        0.90943    0.65606    0.33640    1.000
    H17      H        0.86390    0.57890    0.28980    1.000
    N10      N        0.06098    0.63317    0.19820    1.000
    H18      H        0.01700    0.55630    0.20040    1.000
    H19      H        0.13460    0.65050    0.20530    1.000
    C15      C        0.03340    0.68101    0.34530    1.000
    H20      H        0.08510    0.76320    0.34990    1.000
    H21      H        0.04400    0.64750    0.44590    1.000
    N11      N        0.86420    0.54447    0.89260    1.000
    N12      N        0.13075    0.63223    0.80870    1.000
    Mn4      Mn       0.69735    0.66261    0.45416    1.000
    O7       O        0.77344    0.82098    0.59350    1.000
    C16      C        0.46503    0.67812    0.44990    1.000
    C17      C        0.64593    0.44040    0.22430    1.000
    O8       O        0.76089    0.94502    0.75740    1.000
    C18      C        0.73658    0.84420    0.72150    1.000
    N13      N        0.65368    0.79223    0.00150    1.000
    H22      H        0.71390    0.80230    0.06290    1.000
    H23      H        0.58870    0.74390    0.05570    1.000
    C19      C        0.65606    0.74663    0.83640    1.000
    H24      H        0.57890    0.71500    0.78980    1.000
    N14      N        0.63317    0.57219    0.69820    1.000
    H25      H        0.55630    0.53930    0.70040    1.000
    H26      H        0.65050    0.51590    0.70530    1.000
    C20      C        0.68101    0.64761    0.84530    1.000
    H27      H        0.76320    0.67810    0.84990    1.000
    H28      H        0.64750    0.60350    0.94590    1.000
    N15      N        0.54447    0.68027    0.39260    1.000
    N16      N        0.63223    0.50148    0.30870    1.000
    Mn5      Mn       0.33739    0.03474    0.45416    1.000
    O9       O        0.17902    0.95246    0.59350    1.000
    C21      C        0.32188    0.78691    0.44990    1.000
    C22      C        0.55960    0.20553    0.22430    1.000
    O10      O        0.05498    0.81587    0.75740    1.000
    C23      C        0.15580    0.89238    0.72150    1.000
    N17      N        0.20777    0.86145    0.00150    1.000
    H29      H        0.19770    0.91160    0.06290    1.000
    H30      H        0.25610    0.84480    0.05570    1.000
    C24      C        0.25337    0.90943    0.83640    1.000
    H31      H        0.28500    0.86390    0.78980    1.000
    N18      N        0.42781    0.06098    0.69820    1.000
    H32      H        0.46070    0.01700    0.70040    1.000
    H33      H        0.48410    0.13460    0.70530    1.000
    C25      C        0.35239    0.03340    0.84530    1.000
    H34      H        0.32190    0.08510    0.84990    1.000
    H35      H        0.39650    0.04400    0.94590    1.000
    N19      N        0.31973    0.86420    0.39260    1.000
    N20      N        0.49852    0.13075    0.30870    1.000
    Mn6      Mn       0.96526    0.30265    0.45416    1.000
    O11      O        0.04754    0.22656    0.59350    1.000
    C26      C        0.21309    0.53497    0.44990    1.000
    C27      C        0.79447    0.35407    0.22430    1.000
    O12      O        0.18413    0.23911    0.75740    1.000
    C28      C        0.10762    0.26342    0.72150    1.000
    N21      N        0.13855    0.34632    0.00150    1.000
    H36      H        0.08840    0.28610    0.06290    1.000
    H37      H        0.15520    0.41130    0.05570    1.000
    C29      C        0.09057    0.34394    0.83640    1.000
    H38      H        0.13610    0.42110    0.78980    1.000
    N22      N        0.93902    0.36683    0.69820    1.000
    H39      H        0.98300    0.44370    0.70040    1.000
    H40      H        0.86540    0.34950    0.70530    1.000
    C30      C        0.96660    0.31899    0.84530    1.000
    H41      H        0.91490    0.23680    0.84990    1.000
    H42      H        0.95600    0.35250    0.94590    1.000
    N23      N        0.13580    0.45553    0.39260    1.000
    N24      N        0.86925    0.36777    0.30870    1.000
    Mn7      Mn       0.33333    0.66667    0.57900    1.000
    Mn8      Mn       0.66667    0.33333    0.07900    1.000
