data_functionalizedCrystal
_audit_creation_method	'EQeq! by Chris Wilmer'
_symmetry_space_group_name_H-M	'P1'
_symmetry_Int_Tables_number	1
_symmetry_cell_setting	triclinic
loop_
_symmetry_equiv_pos_as_xyz
  x,y,z
_cell_length_a	18.2382
_cell_length_b	18.2382
_cell_length_c	10.212
_cell_angle_alpha	90
_cell_angle_beta	90
_cell_angle_gamma	123.628
loop_
_atom_site_label
_atom_site_type_symbol
_atom_site_fract_x
_atom_site_fract_y
_atom_site_fract_z
_atom_site_charge
Mof_Rb	Rb	0.09241	0.76209	0.96049	3.111
Mof_Ga	Ga	0.84582	0.00702	0.28894	4.274
Mof_Ga	Ga	0.15492	0.66866	0.29917	3.902
Mof_Ga	Ga	0.34558	0.0087	0.1073	3.878
Mof_Ga	Ga	0.96214	0.51168	0.1323	4.492
Mof_P 	P 	0.30768	0.81756	0.1046	1.036
Mof_P 	P 	0.34292	0.02624	0.81621	1.045
Mof_P 	P 	0.15883	0.97681	0.09568	1.066
Mof_P 	P 	0.93272	0.52656	0.83467	0.969
Mof_F 	F 	0.08448	0.61662	0.1288	-1.544
Mof_F 	F 	0.96627	0.04841	0.3316	-1.58
Mof_F 	F 	0.45291	0.01027	0.0422	-1.452
Mof_O 	O 	0.01298	0.5281	0.7928	-1.237
Mof_O 	O 	0.40406	0.84834	0.1264	-1.137
Mof_O 	O 	0.25343	0.74261	0.1991	-1.185
Mof_O 	O 	0.94415	0.55935	0.9755	-1.207
Mof_O 	O 	0.42811	0.07631	0.7358	-1.125
Mof_O 	O 	0.27766	0.78442	0.9653	-1.174
Mof_O 	O 	0.84827	0.43313	0.82	-1.105
Mof_O 	O 	0.30693	0.92793	0.8368	-1.442
Mof_O 	O 	0.16734	0.95732	0.9517	-1.422
Mof_O 	O 	0.92111	0.58941	0.7474	-1.17
Mof_O 	O 	0.24532	0.01132	0.1648	-1.177
Mof_O 	O 	0.13437	0.04431	0.1048	-1.173
Mof_O 	O 	0.27463	0.03411	0.7431	-1.158
Mof_O 	O 	0.08755	0.88639	0.1538	-1.524
Mof_O 	O 	0.361	0.06934	0.9529	-1.033
Mof_O 	O 	0.28943	0.88837	0.139	-1.438
Mof_O 	O 	0.81759	0.89479	0.2468	-1.115
Mof_N 	N 	0.58693	0.18043	0.9264	-0.424
Mof_H 	H 	0.6259	0.2045	0.8614	0.107
Mof_H 	H 	0.5352	0.137	0.8951	0.153
Mof_H 	H 	0.6058	0.1592	0.9863	0.13
Mof_C 	C 	0.57693	0.24807	0.9869	0.47
Mof_H 	H 	0.6081	0.2657	0.0698	-0.162
Mof_H 	H 	0.515	0.2222	0.0051	-0.175
Mof_C 	C 	0.61094	0.32906	0.9028	-0.446
Mof_H 	H 	0.5681	0.3139	0.834	0.155
Mof_H 	H 	0.6646	0.342	0.8607	0.146
Mof_C 	C 	0.6308	0.4134	0.9663	0.217
Mof_H 	H 	0.5735	0.4035	0.9822	-0.026
Mof_H 	H 	0.6541	0.4141	0.0519	-0.069
Mof_C 	C 	0.6871	0.5067	0.9194	-0.173
Mof_H 	H 	0.6604	0.5208	0.8502	0.076
Mof_H 	H 	0.7467	0.5255	0.8966	0.091
Mof_C 	C 	0.6786	0.5356	0.0533	-0.162
Mof_H 	H 	0.6464	0.4832	0.1073	0.059
Mof_H 	H 	0.642	0.5586	0.0446	0.055
Mof_C 	C 	0.7594	0.6024	0.1282	0.048
Mof_H 	H 	0.7524	0.6486	0.1584	0.022
Mof_H 	H 	0.7649	0.5743	0.2047	0.017
Mof_N 	N 	0.8411	0.6423	0.05	-0.346
Mof_H 	H 	0.8356	0.6664	0.9779	0.119
Mof_H 	H 	0.8504	0.601	0.0277	0.084
Mof_H 	H 	0.8863	0.6837	0.0971	0.062
Mof_Rb	Rb	0.90759	0.23791	0.46049	2.955
Mof_Ga	Ga	0.15418	0.99298	0.78894	4.282
Mof_Ga	Ga	0.84508	0.33134	0.79917	3.916
Mof_Ga	Ga	0.65442	0.9913	0.6073	4.006
Mof_Ga	Ga	0.03786	0.48832	0.6323	4.569
Mof_P 	P 	0.69232	0.18244	0.6046	1.08
Mof_P 	P 	0.65708	0.97376	0.31621	1.044
Mof_P 	P 	0.84117	0.02319	0.59568	1.1
Mof_P 	P 	0.06728	0.47344	0.33467	0.965
Mof_F 	F 	0.91552	0.38338	0.6288	-1.526
Mof_F 	F 	0.03373	0.95159	0.8316	-1.578
Mof_F 	F 	0.54709	0.98973	0.5422	-1.447
Mof_O 	O 	0.98702	0.4719	0.2928	-1.224
Mof_O 	O 	0.59594	0.15166	0.6264	-1.148
Mof_O 	O 	0.74657	0.25739	0.6991	-1.19
Mof_O 	O 	0.05585	0.44065	0.4755	-1.234
Mof_O 	O 	0.57189	0.92369	0.2358	-1.12
Mof_O 	O 	0.72234	0.21558	0.4653	-1.196
Mof_O 	O 	0.15173	0.56687	0.32	-1.106
Mof_O 	O 	0.69307	0.07207	0.3368	-1.45
Mof_O 	O 	0.83266	0.04268	0.4517	-1.444
Mof_O 	O 	0.07889	0.41059	0.2474	-1.146
Mof_O 	O 	0.75468	0.98868	0.6648	-1.193
Mof_O 	O 	0.86563	0.95569	0.6048	-1.162
Mof_O 	O 	0.72537	0.96589	0.2431	-1.168
Mof_O 	O 	0.91245	0.11361	0.6538	-1.511
Mof_O 	O 	0.639	0.93066	0.4529	-1.087
Mof_O 	O 	0.71057	0.11163	0.639	-1.458
Mof_O 	O 	0.18241	0.10521	0.7468	-1.107
Mof_N 	N 	0.41307	0.81957	0.4264	-0.364
Mof_H 	H 	0.3741	0.7955	0.3614	0.1
Mof_H 	H 	0.4648	0.863	0.3951	0.132
Mof_H 	H 	0.3942	0.8408	0.4863	0.1
Mof_C 	C 	0.42307	0.75193	0.4869	0.158
Mof_H 	H 	0.3919	0.7343	0.5698	-0.042
Mof_H 	H 	0.485	0.7778	0.5051	-0.042
Mof_C 	C 	0.38906	0.67094	0.4028	-0.231
Mof_H 	H 	0.4319	0.6861	0.334	0.091
Mof_H 	H 	0.3354	0.658	0.3607	0.085
Mof_C 	C 	0.3692	0.5866	0.4663	0
Mof_H 	H 	0.4265	0.5965	0.4822	0.017
Mof_H 	H 	0.3459	0.5859	0.5519	0.021
Mof_C 	C 	0.3129	0.4933	0.4194	-0.114
Mof_H 	H 	0.3396	0.4792	0.3502	0.05
Mof_H 	H 	0.2533	0.4745	0.3966	0.064
Mof_C 	C 	0.3214	0.4644	0.5533	-0.133
Mof_H 	H 	0.3536	0.5168	0.6073	0.054
Mof_H 	H 	0.358	0.4414	0.5446	0.061
Mof_C 	C 	0.2406	0.3976	0.6282	0.037
Mof_H 	H 	0.2476	0.3514	0.6584	0.031
Mof_H 	H 	0.2351	0.4257	0.7047	0.022
Mof_N 	N 	0.1589	0.3577	0.55	-0.315
Mof_H 	H 	0.1644	0.3336	0.4779	0.082
Mof_H 	H 	0.1496	0.399	0.5277	0.099
Mof_H 	H 	0.1137	0.3163	0.5971	0.069
Mof_Rb	Rb	0.23791	0.90759	0.46049	2.955
Mof_Ga	Ga	0.99298	0.15418	0.78894	4.282
Mof_Ga	Ga	0.33134	0.84508	0.79917	3.916
Mof_Ga	Ga	0.9913	0.65442	0.6073	4.006
Mof_Ga	Ga	0.48832	0.03786	0.6323	4.569
Mof_P 	P 	0.18244	0.69232	0.6046	1.08
Mof_P 	P 	0.97376	0.65708	0.31621	1.044
Mof_P 	P 	0.02319	0.84117	0.59568	1.1
Mof_P 	P 	0.47344	0.06728	0.33467	0.965
Mof_F 	F 	0.38338	0.91552	0.6288	-1.526
Mof_F 	F 	0.95159	0.03373	0.8316	-1.578
Mof_F 	F 	0.98973	0.54709	0.5422	-1.447
Mof_O 	O 	0.4719	0.98702	0.2928	-1.224
Mof_O 	O 	0.15166	0.59594	0.6264	-1.148
Mof_O 	O 	0.25739	0.74657	0.6991	-1.19
Mof_O 	O 	0.44065	0.05585	0.4755	-1.234
Mof_O 	O 	0.92369	0.57189	0.2358	-1.12
Mof_O 	O 	0.21558	0.72234	0.4653	-1.196
Mof_O 	O 	0.56687	0.15173	0.32	-1.106
Mof_O 	O 	0.07207	0.69307	0.3368	-1.45
Mof_O 	O 	0.04268	0.83266	0.4517	-1.444
Mof_O 	O 	0.41059	0.07889	0.2474	-1.146
Mof_O 	O 	0.98868	0.75468	0.6648	-1.193
Mof_O 	O 	0.95569	0.86563	0.6048	-1.162
Mof_O 	O 	0.96589	0.72537	0.2431	-1.168
Mof_O 	O 	0.11361	0.91245	0.6538	-1.511
Mof_O 	O 	0.93066	0.639	0.4529	-1.087
Mof_O 	O 	0.11163	0.71057	0.639	-1.458
Mof_O 	O 	0.10521	0.18241	0.7468	-1.107
Mof_N 	N 	0.81957	0.41307	0.4264	-0.364
Mof_H 	H 	0.7955	0.3741	0.3614	0.1
Mof_H 	H 	0.863	0.4648	0.3951	0.132
Mof_H 	H 	0.8408	0.3942	0.4863	0.1
Mof_C 	C 	0.75193	0.42307	0.4869	0.158
Mof_H 	H 	0.7343	0.3919	0.5698	-0.042
Mof_H 	H 	0.7778	0.485	0.5051	-0.042
Mof_C 	C 	0.67094	0.38906	0.4028	-0.231
Mof_H 	H 	0.6861	0.4319	0.334	0.091
Mof_H 	H 	0.658	0.3354	0.3607	0.085
Mof_C 	C 	0.5866	0.3692	0.4663	0
Mof_H 	H 	0.5965	0.4265	0.4822	0.017
Mof_H 	H 	0.5859	0.3459	0.5519	0.021
Mof_C 	C 	0.4933	0.3129	0.4194	-0.114
Mof_H 	H 	0.4792	0.3396	0.3502	0.05
Mof_H 	H 	0.4745	0.2533	0.3966	0.064
Mof_C 	C 	0.4644	0.3214	0.5533	-0.133
Mof_H 	H 	0.5168	0.3536	0.6073	0.054
Mof_H 	H 	0.4414	0.358	0.5446	0.061
Mof_C 	C 	0.3976	0.2406	0.6282	0.037
Mof_H 	H 	0.3514	0.2476	0.6584	0.031
Mof_H 	H 	0.4257	0.2351	0.7047	0.022
Mof_N 	N 	0.3577	0.1589	0.55	-0.315
Mof_H 	H 	0.3336	0.1644	0.4779	0.082
Mof_H 	H 	0.399	0.1496	0.5277	0.099
Mof_H 	H 	0.3163	0.1137	0.5971	0.069
Mof_Rb	Rb	0.76209	0.09241	0.96049	3.111
Mof_Ga	Ga	0.00702	0.84582	0.28894	4.274
Mof_Ga	Ga	0.66866	0.15492	0.29917	3.902
Mof_Ga	Ga	0.0087	0.34558	0.1073	3.878
Mof_Ga	Ga	0.51168	0.96214	0.1323	4.492
Mof_P 	P 	0.81756	0.30768	0.1046	1.036
Mof_P 	P 	0.02624	0.34292	0.81621	1.045
Mof_P 	P 	0.97681	0.15883	0.09568	1.066
Mof_P 	P 	0.52656	0.93272	0.83467	0.969
Mof_F 	F 	0.61662	0.08448	0.1288	-1.544
Mof_F 	F 	0.04841	0.96627	0.3316	-1.58
Mof_F 	F 	0.01027	0.45291	0.0422	-1.452
Mof_O 	O 	0.5281	0.01298	0.7928	-1.237
Mof_O 	O 	0.84834	0.40406	0.1264	-1.137
Mof_O 	O 	0.74261	0.25343	0.1991	-1.185
Mof_O 	O 	0.55935	0.94415	0.9755	-1.207
Mof_O 	O 	0.07631	0.42811	0.7358	-1.125
Mof_O 	O 	0.78442	0.27766	0.9653	-1.174
Mof_O 	O 	0.43313	0.84827	0.82	-1.105
Mof_O 	O 	0.92793	0.30693	0.8368	-1.442
Mof_O 	O 	0.95732	0.16734	0.9517	-1.422
Mof_O 	O 	0.58941	0.92111	0.7474	-1.17
Mof_O 	O 	0.01132	0.24532	0.1648	-1.177
Mof_O 	O 	0.04431	0.13437	0.1048	-1.173
Mof_O 	O 	0.03411	0.27463	0.7431	-1.158
Mof_O 	O 	0.88639	0.08755	0.1538	-1.524
Mof_O 	O 	0.06934	0.361	0.9529	-1.033
Mof_O 	O 	0.88837	0.28943	0.139	-1.438
Mof_O 	O 	0.89479	0.81759	0.2468	-1.115
Mof_N 	N 	0.18043	0.58693	0.9264	-0.424
Mof_H 	H 	0.2045	0.6259	0.8614	0.107
Mof_H 	H 	0.137	0.5352	0.8951	0.153
Mof_H 	H 	0.1592	0.6058	0.9863	0.13
Mof_C 	C 	0.24807	0.57693	0.9869	0.47
Mof_H 	H 	0.2657	0.6081	0.0698	-0.162
Mof_H 	H 	0.2222	0.515	0.0051	-0.175
Mof_C 	C 	0.32906	0.61094	0.9028	-0.446
Mof_H 	H 	0.3139	0.5681	0.834	0.155
Mof_H 	H 	0.342	0.6646	0.8607	0.146
Mof_C 	C 	0.4134	0.6308	0.9663	0.217
Mof_H 	H 	0.4035	0.5735	0.9822	-0.026
Mof_H 	H 	0.4141	0.6541	0.0519	-0.069
Mof_C 	C 	0.5067	0.6871	0.9194	-0.173
Mof_H 	H 	0.5208	0.6604	0.8502	0.076
Mof_H 	H 	0.5255	0.7467	0.8966	0.091
Mof_C 	C 	0.5356	0.6786	0.0533	-0.162
Mof_H 	H 	0.4832	0.6464	0.1073	0.059
Mof_H 	H 	0.5586	0.642	0.0446	0.055
Mof_C 	C 	0.6024	0.7594	0.1282	0.048
Mof_H 	H 	0.6486	0.7524	0.1584	0.022
Mof_H 	H 	0.5743	0.7649	0.2047	0.017
Mof_N 	N 	0.6423	0.8411	0.05	-0.346
Mof_H 	H 	0.6664	0.8356	0.9779	0.119
Mof_H 	H 	0.601	0.8504	0.0277	0.084
Mof_H 	H 	0.6837	0.8863	0.0971	0.062
Mof_Ga	Ga	0.05093	0.05093	0.21266	4.711
Mof_P 	P 	0.87258	0.87258	0.16255	0.826
Mof_F 	F 	0.14686	0.14686	0.3085	-0.995
Mof_O 	O 	0.95472	0.95472	0.1062	-1.137
Mof_O 	O 	0.8134	0.8134	0.0475	-0.296
Mof_Ga	Ga	0.94907	0.94907	0.71266	4.737
Mof_P 	P 	0.12742	0.12742	0.66255	0.828
Mof_F 	F 	0.85314	0.85314	0.8085	-0.987
Mof_O 	O 	0.04528	0.04528	0.6062	-1.129
Mof_O 	O 	0.1866	0.1866	0.5475	-0.272
_end
