# CIF file generated by openbabel 3.1.0, see https://openbabel.org
data_I
_chemical_name_common 'image0'
_cell_length_a 8.3104
_cell_length_b 12.4546
_cell_length_c 33.5852
_cell_angle_alpha 90
_cell_angle_beta 90
_cell_angle_gamma 90
_space_group_name_H-M_alt 'P 1'
_space_group_name_Hall 'P 1'
loop_
    _symmetry_equiv_pos_as_xyz
    x,y,z
loop_
    _atom_site_label
    _atom_site_type_symbol
    _atom_site_fract_x
    _atom_site_fract_y
    _atom_site_fract_z
    _atom_site_occupancy
    C1       C        0.37060    0.57172    0.18486    1.000
    H1       H        0.31570    0.52070    0.20340    1.000
    C2       C        0.48880    0.50387    0.15928    1.000
    H2       H        0.44500    0.43090    0.15500    1.000
    H3       H        0.50570    0.53820    0.13300    1.000
    C3       C        0.64910    0.49798    0.18251    1.000
    H4       H        0.68220    0.42250    0.18690    1.000
    H5       H        0.73590    0.53620    0.16810    1.000
    C4       C        0.61040    0.55351    0.22202    1.000
    H6       H        0.55050    0.49960    0.23830    1.000
    C5       C        0.74970    0.59120    0.24768    1.000
    H7       H        0.81090    0.64750    0.23280    1.000
    C6       C        0.86370    0.49803    0.25728    1.000
    H8       H        0.80040    0.43780    0.26840    1.000
    H9       H        0.91440    0.47280    0.23230    1.000
    C7       C        0.99550    0.52864    0.28682    1.000
    H10      H        0.07110    0.57910    0.27380    1.000
    H11      H        0.05660    0.46340    0.29420    1.000
    C8       C        0.92830    0.58106    0.32468    1.000
    H12      H        0.02220    0.60940    0.34000    1.000
    C9       C        0.84400    0.49860    0.35126    1.000
    H13      H        0.75600    0.46440    0.33600    1.000
    H14      H        0.92200    0.44180    0.35850    1.000
    C10      C        0.77480    0.54705    0.38911    1.000
    H15      H        0.86510    0.57530    0.40580    1.000
    C11      C        0.66090    0.63873    0.37943    1.000
    H16      H        0.62150    0.67210    0.40430    1.000
    H17      H        0.56700    0.61130    0.36440    1.000
    C12      C        0.75090    0.72167    0.35454    1.000
    H18      H        0.84130    0.75040    0.37050    1.000
    H19      H        0.67720    0.78210    0.34870    1.000
    C13      C        0.81810    0.67825    0.31491    1.000
    C14      C        0.41970    0.68613    0.24983    1.000
    H20      H        0.35820    0.62930    0.26370    1.000
    H21      H        0.34490    0.74590    0.24390    1.000
    C15      C        0.55440    0.72685    0.27730    1.000
    H22      H        0.60720    0.78940    0.26460    1.000
    H23      H        0.50620    0.75150    0.30270    1.000
    C16      C        0.68210    0.64123    0.28635    1.000
    H24      H        0.62440    0.58190    0.30050    1.000
    C17      C        0.48630    0.64130    0.21077    1.000
    C18      C        0.23830    0.62348    0.15934    1.000
    H25      H        0.29110    0.66420    0.13730    1.000
    C19      C        0.13670    0.53284    0.14079    1.000
    H26      H        0.20980    0.48430    0.12600    1.000
    H27      H        0.08780    0.49070    0.16270    1.000
    C20      C        0.00250    0.56820    0.11257    1.000
    H28      H        0.94120    0.50400    0.10410    1.000
    H29      H        0.92760    0.61570    0.12730    1.000
    C21      C        0.06170    0.62693    0.07582    1.000
    O1       O        0.98675    0.71048    0.06578    1.000
    O2       O        0.17957    0.58872    0.05707    1.000
    C22      C        0.13130    0.70100    0.18253    1.000
    H30      H        0.04450    0.72680    0.16520    1.000
    H31      H        0.19570    0.76220    0.19170    1.000
    H32      H        0.08500    0.66400    0.20560    1.000
    C23      C        0.91870    0.76931    0.29625    1.000
    H33      H        0.95970    0.74610    0.27030    1.000
    H34      H        0.00920    0.78660    0.31380    1.000
    H35      H        0.85100    0.83310    0.29280    1.000
    C24      C        0.56000    0.73139    0.18535    1.000
    H36      H        0.59640    0.70180    0.15990    1.000
    H37      H        0.65180    0.76290    0.19950    1.000
    H38      H        0.47880    0.78690    0.18050    1.000
    O3       O        0.70074    0.45826    0.40955    1.000
    C25      C        0.60960    0.48272    0.44352    1.000
    H39      H        0.65170    0.55010    0.45590    1.000
    C26      C        0.62600    0.39065    0.47276    1.000
    H40      H        0.55610    0.40510    0.49640    1.000
    C27      C        0.57050    0.28689    0.45282    1.000
    H41      H        0.63570    0.27420    0.42820    1.000
    C28      C        0.39490    0.30308    0.44141    1.000
    H42      H        0.32870    0.31180    0.46610    1.000
    C29      C        0.37690    0.40309    0.41523    1.000
    H43      H        0.43340    0.39030    0.38940    1.000
    O4       O        0.44446    0.49645    0.43384    1.000
    O5       O        0.78769    0.38071    0.48566    1.000
    H44      H        0.80230    0.41940    0.50580    1.000
    O6       O        0.58729    0.19728    0.47900    1.000
    H45      H        0.66850    0.16130    0.47240    1.000
    O7       O        0.33769    0.21276    0.41928    1.000
    H46      H        0.23910    0.20400    0.42370    1.000
    C30      C        0.20230    0.42950    0.40690    1.000
    H47      H        0.19680    0.49580    0.39070    1.000
    H48      H        0.15370    0.37050    0.39120    1.000
    O8       O        0.11176    0.44461    0.44245    1.000
    H49      H        0.14470    0.49980    0.45430    1.000
    Li1      Li       0.00980    0.82870    0.03130    1.000
    C31      C        0.12940    0.42828    0.68486    1.000
    H50      H        0.18430    0.47930    0.70340    1.000
    C32      C        0.01120    0.49613    0.65928    1.000
    H51      H        0.05500    0.56910    0.65500    1.000
    H52      H        0.99430    0.46180    0.63300    1.000
    C33      C        0.85090    0.50202    0.68251    1.000
    H53      H        0.81780    0.57750    0.68690    1.000
    H54      H        0.76410    0.46380    0.66810    1.000
    C34      C        0.88960    0.44649    0.72202    1.000
    H55      H        0.94950    0.50040    0.73830    1.000
    C35      C        0.75030    0.40880    0.74768    1.000
    H56      H        0.68910    0.35250    0.73280    1.000
    C36      C        0.63630    0.50197    0.75728    1.000
    H57      H        0.69960    0.56220    0.76840    1.000
    H58      H        0.58560    0.52720    0.73230    1.000
    C37      C        0.50450    0.47136    0.78682    1.000
    H59      H        0.42890    0.42090    0.77380    1.000
    H60      H        0.44340    0.53660    0.79420    1.000
    C38      C        0.57170    0.41894    0.82468    1.000
    H61      H        0.47780    0.39060    0.84000    1.000
    C39      C        0.65600    0.50140    0.85126    1.000
    H62      H        0.74400    0.53560    0.83600    1.000
    H63      H        0.57800    0.55820    0.85850    1.000
    C40      C        0.72520    0.45295    0.88911    1.000
    H64      H        0.63490    0.42470    0.90580    1.000
    C41      C        0.83910    0.36127    0.87943    1.000
    H65      H        0.87850    0.32790    0.90430    1.000
    H66      H        0.93300    0.38870    0.86440    1.000
    C42      C        0.74910    0.27833    0.85454    1.000
    H67      H        0.65870    0.24960    0.87050    1.000
    H68      H        0.82280    0.21790    0.84870    1.000
    C43      C        0.68190    0.32175    0.81491    1.000
    C44      C        0.08030    0.31387    0.74983    1.000
    H69      H        0.14180    0.37070    0.76370    1.000
    H70      H        0.15510    0.25410    0.74390    1.000
    C45      C        0.94560    0.27315    0.77730    1.000
    H71      H        0.89280    0.21060    0.76460    1.000
    H72      H        0.99380    0.24850    0.80270    1.000
    C46      C        0.81790    0.35877    0.78635    1.000
    H73      H        0.87560    0.41810    0.80050    1.000
    C47      C        0.01370    0.35870    0.71077    1.000
    C48      C        0.26170    0.37652    0.65934    1.000
    H74      H        0.20890    0.33580    0.63730    1.000
    C49      C        0.36330    0.46716    0.64079    1.000
    H75      H        0.29020    0.51570    0.62600    1.000
    H76      H        0.41220    0.50930    0.66270    1.000
    C50      C        0.49750    0.43180    0.61257    1.000
    H77      H        0.55880    0.49600    0.60410    1.000
    H78      H        0.57240    0.38430    0.62730    1.000
    C51      C        0.43830    0.37307    0.57582    1.000
    O9       O        0.51325    0.28952    0.56578    1.000
    O10      O        0.32043    0.41128    0.55707    1.000
    C52      C        0.36870    0.29900    0.68253    1.000
    H79      H        0.45550    0.27320    0.66520    1.000
    H80      H        0.30430    0.23780    0.69170    1.000
    H81      H        0.41500    0.33600    0.70560    1.000
    C53      C        0.58130    0.23069    0.79625    1.000
    H82      H        0.54030    0.25390    0.77030    1.000
    H83      H        0.49080    0.21340    0.81380    1.000
    H84      H        0.64900    0.16690    0.79280    1.000
    C54      C        0.94000    0.26861    0.68535    1.000
    H85      H        0.90360    0.29820    0.65990    1.000
    H86      H        0.84820    0.23710    0.69950    1.000
    H87      H        0.02120    0.21310    0.68050    1.000
    O11      O        0.79926    0.54174    0.90955    1.000
    C55      C        0.89040    0.51728    0.94352    1.000
    H88      H        0.84830    0.44990    0.95590    1.000
    C56      C        0.87400    0.60935    0.97276    1.000
    H89      H        0.94390    0.59490    0.99640    1.000
    C57      C        0.92950    0.71311    0.95282    1.000
    H90      H        0.86430    0.72580    0.92820    1.000
    C58      C        0.10510    0.69692    0.94141    1.000
    H91      H        0.17130    0.68820    0.96610    1.000
    C59      C        0.12310    0.59691    0.91523    1.000
    H92      H        0.06660    0.60970    0.88940    1.000
    O12      O        0.05554    0.50355    0.93384    1.000
    O13      O        0.71231    0.61929    0.98566    1.000
    H93      H        0.69770    0.58060    0.00580    1.000
    O14      O        0.91271    0.80272    0.97900    1.000
    H94      H        0.83150    0.83870    0.97240    1.000
    O15      O        0.16231    0.78724    0.91928    1.000
    H95      H        0.26090    0.79600    0.92370    1.000
    C60      C        0.29770    0.57050    0.90690    1.000
    H96      H        0.30320    0.50420    0.89070    1.000
    H97      H        0.34630    0.62950    0.89120    1.000
    O16      O        0.38824    0.55539    0.94245    1.000
    H98      H        0.35530    0.50020    0.95430    1.000
    Li2      Li       0.49020    0.17130    0.53130    1.000
    C61      C        0.62940    0.07172    0.31514    1.000
    H99      H        0.68430    0.02070    0.29660    1.000
    C62      C        0.51120    0.00387    0.34072    1.000
    H100     H        0.55500    0.93090    0.34500    1.000
    H101     H        0.49430    0.03820    0.36700    1.000
    C63      C        0.35090    0.99798    0.31749    1.000
    H102     H        0.31780    0.92250    0.31310    1.000
    H103     H        0.26410    0.03620    0.33190    1.000
    C64      C        0.38960    0.05351    0.27798    1.000
    H104     H        0.44950    0.99960    0.26170    1.000
    C65      C        0.25030    0.09120    0.25232    1.000
    H105     H        0.18910    0.14750    0.26720    1.000
    C66      C        0.13630    0.99803    0.24272    1.000
    H106     H        0.19960    0.93780    0.23160    1.000
    H107     H        0.08560    0.97280    0.26770    1.000
    C67      C        0.00450    0.02864    0.21318    1.000
    H108     H        0.92890    0.07910    0.22620    1.000
    H109     H        0.94340    0.96340    0.20580    1.000
    C68      C        0.07170    0.08106    0.17532    1.000
    H110     H        0.97780    0.10940    0.16000    1.000
    C69      C        0.15600    0.99860    0.14874    1.000
    H111     H        0.24400    0.96440    0.16400    1.000
    H112     H        0.07800    0.94180    0.14150    1.000
    C70      C        0.22520    0.04705    0.11089    1.000
    H113     H        0.13490    0.07530    0.09420    1.000
    C71      C        0.33910    0.13873    0.12057    1.000
    H114     H        0.37850    0.17210    0.09570    1.000
    H115     H        0.43300    0.11130    0.13560    1.000
    C72      C        0.24910    0.22167    0.14546    1.000
    H116     H        0.15870    0.25040    0.12950    1.000
    H117     H        0.32280    0.28210    0.15130    1.000
    C73      C        0.18190    0.17825    0.18509    1.000
    C74      C        0.58030    0.18613    0.25017    1.000
    H118     H        0.64180    0.12930    0.23630    1.000
    H119     H        0.65510    0.24590    0.25610    1.000
    C75      C        0.44560    0.22685    0.22270    1.000
    H120     H        0.39280    0.28940    0.23540    1.000
    H121     H        0.49380    0.25150    0.19730    1.000
    C76      C        0.31790    0.14123    0.21365    1.000
    H122     H        0.37560    0.08190    0.19950    1.000
    C77      C        0.51370    0.14130    0.28923    1.000
    C78      C        0.76170    0.12348    0.34066    1.000
    H123     H        0.70890    0.16420    0.36270    1.000
    C79      C        0.86330    0.03284    0.35921    1.000
    H124     H        0.79020    0.98430    0.37400    1.000
    H125     H        0.91220    0.99070    0.33730    1.000
    C80      C        0.99750    0.06820    0.38743    1.000
    H126     H        0.05880    0.00400    0.39590    1.000
    H127     H        0.07240    0.11570    0.37270    1.000
    C81      C        0.93830    0.12693    0.42418    1.000
    O17      O        0.01325    0.21048    0.43422    1.000
    O18      O        0.82043    0.08872    0.44293    1.000
    C82      C        0.86870    0.20100    0.31747    1.000
    H128     H        0.95550    0.22680    0.33480    1.000
    H129     H        0.80430    0.26220    0.30830    1.000
    H130     H        0.91500    0.16400    0.29440    1.000
    C83      C        0.08130    0.26931    0.20375    1.000
    H131     H        0.04030    0.24610    0.22970    1.000
    H132     H        0.99080    0.28660    0.18620    1.000
    H133     H        0.14900    0.33310    0.20720    1.000
    C84      C        0.44000    0.23139    0.31465    1.000
    H134     H        0.40360    0.20180    0.34010    1.000
    H135     H        0.34820    0.26290    0.30050    1.000
    H136     H        0.52120    0.28690    0.31950    1.000
    O19      O        0.29926    0.95826    0.09045    1.000
    C85      C        0.39040    0.98272    0.05648    1.000
    H137     H        0.34830    0.05010    0.04410    1.000
    C86      C        0.37400    0.89065    0.02724    1.000
    H138     H        0.44390    0.90510    0.00360    1.000
    C87      C        0.42950    0.78689    0.04718    1.000
    H139     H        0.36430    0.77420    0.07180    1.000
    C88      C        0.60510    0.80308    0.05859    1.000
    H140     H        0.67130    0.81180    0.03390    1.000
    C89      C        0.62310    0.90309    0.08477    1.000
    H141     H        0.56660    0.89030    0.11060    1.000
    O20      O        0.55554    0.99645    0.06616    1.000
    O21      O        0.21231    0.88071    0.01434    1.000
    H142     H        0.19770    0.91940    0.99420    1.000
    O22      O        0.41271    0.69728    0.02100    1.000
    H143     H        0.33150    0.66130    0.02760    1.000
    O23      O        0.66231    0.71276    0.08072    1.000
    H144     H        0.76090    0.70400    0.07630    1.000
    C90      C        0.79770    0.92950    0.09310    1.000
    H145     H        0.80320    0.99580    0.10930    1.000
    H146     H        0.84630    0.87050    0.10880    1.000
    O24      O        0.88824    0.94461    0.05755    1.000
    H147     H        0.85530    0.99980    0.04570    1.000
    Li3      Li       0.99020    0.32870    0.46870    1.000
    C91      C        0.87060    0.92828    0.81514    1.000
    H148     H        0.81570    0.97930    0.79660    1.000
    C92      C        0.98880    0.99613    0.84072    1.000
    H149     H        0.94500    0.06910    0.84500    1.000
    H150     H        0.00570    0.96180    0.86700    1.000
    C93      C        0.14910    0.00202    0.81749    1.000
    H151     H        0.18220    0.07750    0.81310    1.000
    H152     H        0.23590    0.96380    0.83190    1.000
    C94      C        0.11040    0.94649    0.77798    1.000
    H153     H        0.05050    0.00040    0.76170    1.000
    C95      C        0.24970    0.90880    0.75232    1.000
    H154     H        0.31090    0.85250    0.76720    1.000
    C96      C        0.36370    0.00197    0.74272    1.000
    H155     H        0.30040    0.06220    0.73160    1.000
    H156     H        0.41440    0.02720    0.76770    1.000
    C97      C        0.49550    0.97136    0.71318    1.000
    H157     H        0.57110    0.92090    0.72620    1.000
    H158     H        0.55660    0.03660    0.70580    1.000
    C98      C        0.42830    0.91894    0.67532    1.000
    H159     H        0.52220    0.89060    0.66000    1.000
    C99      C        0.34400    0.00140    0.64874    1.000
    H160     H        0.25600    0.03560    0.66400    1.000
    H161     H        0.42200    0.05820    0.64150    1.000
    C100     C        0.27480    0.95295    0.61089    1.000
    H162     H        0.36510    0.92470    0.59420    1.000
    C101     C        0.16090    0.86127    0.62057    1.000
    H163     H        0.12150    0.82790    0.59570    1.000
    H164     H        0.06700    0.88870    0.63560    1.000
    C102     C        0.25090    0.77833    0.64546    1.000
    H165     H        0.34130    0.74960    0.62950    1.000
    H166     H        0.17720    0.71790    0.65130    1.000
    C103     C        0.31810    0.82175    0.68509    1.000
    C104     C        0.91970    0.81387    0.75017    1.000
    H167     H        0.85820    0.87070    0.73630    1.000
    H168     H        0.84490    0.75410    0.75610    1.000
    C105     C        0.05440    0.77315    0.72270    1.000
    H169     H        0.10720    0.71060    0.73540    1.000
    H170     H        0.00620    0.74850    0.69730    1.000
    C106     C        0.18210    0.85877    0.71365    1.000
    H171     H        0.12440    0.91810    0.69950    1.000
    C107     C        0.98630    0.85870    0.78923    1.000
    C108     C        0.73830    0.87652    0.84066    1.000
    H172     H        0.79110    0.83580    0.86270    1.000
    C109     C        0.63670    0.96716    0.85921    1.000
    H173     H        0.70980    0.01570    0.87400    1.000
    H174     H        0.58780    0.00930    0.83730    1.000
    C110     C        0.50250    0.93180    0.88743    1.000
    H175     H        0.44120    0.99600    0.89590    1.000
    H176     H        0.42760    0.88430    0.87270    1.000
    C111     C        0.56170    0.87307    0.92418    1.000
    O25      O        0.48675    0.78952    0.93422    1.000
    O26      O        0.67957    0.91128    0.94293    1.000
    C112     C        0.63130    0.79900    0.81747    1.000
    H177     H        0.54450    0.77320    0.83480    1.000
    H178     H        0.69570    0.73780    0.80830    1.000
    H179     H        0.58500    0.83600    0.79440    1.000
    C113     C        0.41870    0.73069    0.70375    1.000
    H180     H        0.45970    0.75390    0.72970    1.000
    H181     H        0.50920    0.71340    0.68620    1.000
    H182     H        0.35100    0.66690    0.70720    1.000
    C114     C        0.06000    0.76861    0.81465    1.000
    H183     H        0.09640    0.79820    0.84010    1.000
    H184     H        0.15180    0.73710    0.80050    1.000
    H185     H        0.97880    0.71310    0.81950    1.000
    O27      O        0.20074    0.04174    0.59045    1.000
    C115     C        0.10960    0.01728    0.55648    1.000
    H186     H        0.15170    0.94990    0.54410    1.000
    C116     C        0.12600    0.10935    0.52724    1.000
    H187     H        0.05610    0.09490    0.50360    1.000
    C117     C        0.07050    0.21311    0.54718    1.000
    H188     H        0.13570    0.22580    0.57180    1.000
    C118     C        0.89490    0.19692    0.55859    1.000
    H189     H        0.82870    0.18820    0.53390    1.000
    C119     C        0.87690    0.09691    0.58477    1.000
    H190     H        0.93340    0.10970    0.61060    1.000
    O28      O        0.94446    0.00355    0.56616    1.000
    O29      O        0.28769    0.11929    0.51434    1.000
    H191     H        0.30230    0.08060    0.49420    1.000
    O30      O        0.08729    0.30272    0.52100    1.000
    H192     H        0.16850    0.33870    0.52760    1.000
    O31      O        0.83769    0.28724    0.58072    1.000
    H193     H        0.73910    0.29600    0.57630    1.000
    C120     C        0.70230    0.07050    0.59310    1.000
    H194     H        0.69680    0.00420    0.60930    1.000
    H195     H        0.65370    0.12950    0.60880    1.000
    O32      O        0.61176    0.05539    0.55755    1.000
    H196     H        0.64470    0.00020    0.54570    1.000
    Li4      Li       0.50980    0.67130    0.96870    1.000
