data_functionalizedCrystal
_audit_creation_method	'EQeq! by Chris Wilmer'
_symmetry_space_group_name_H-M	'P1'
_symmetry_Int_Tables_number	1
_symmetry_cell_setting	triclinic
loop_
_symmetry_equiv_pos_as_xyz
  x,y,z
_cell_length_a	10.011
_cell_length_b	19.369
_cell_length_c	6.414
_cell_angle_alpha	90
_cell_angle_beta	90
_cell_angle_gamma	90
loop_
_atom_site_label
_atom_site_type_symbol
_atom_site_fract_x
_atom_site_fract_y
_atom_site_fract_z
_atom_site_charge
Mof_N 	N 	0.2675	0.18646	0.6895	-0.16
Mof_C 	C 	0.3263	0.1164	0.687	0.029
Mof_H 	H 	0.2558	0.0828	0.6885	-0.022
Mof_H 	H 	0.3797	0.1097	0.8096	-0.01
Mof_C 	C 	0.3782	0.237	0.687	0.025
Mof_H 	H 	0.4323	0.2305	0.809	0.001
Mof_H 	H 	0.3427	0.283	0.6907	-0.01
Mof_H 	H 	0.5717	0.1508	0.3788	-0.019
Mof_N 	N 	0.7325	0.81354	0.6895	-0.158
Mof_C 	C 	0.6737	0.8836	0.687	0.022
Mof_H 	H 	0.7442	0.9172	0.6885	-0.008
Mof_H 	H 	0.6203	0.8903	0.8096	-0.002
Mof_C 	C 	0.6218	0.763	0.687	0.024
Mof_H 	H 	0.5677	0.7695	0.809	0.001
Mof_H 	H 	0.6573	0.717	0.6907	-0.008
Mof_H 	H 	0.4283	0.8492	0.3788	-0.015
Mof_N 	N 	0.2325	0.68646	0.8105	-0.162
Mof_C 	C 	0.1737	0.6164	0.813	0.058
Mof_H 	H 	0.2442	0.5828	0.8115	-0.022
Mof_H 	H 	0.1203	0.6097	0.6904	-0.025
Mof_C 	C 	0.1218	0.737	0.813	0.058
Mof_H 	H 	0.0677	0.7305	0.691	-0.02
Mof_H 	H 	0.1573	0.783	0.8093	-0.016
Mof_H 	H 	0.9283	0.6508	0.1212	-0.006
Mof_N 	N 	0.7675	0.31354	0.8105	-0.16
Mof_C 	C 	0.8263	0.3836	0.813	0.054
Mof_H 	H 	0.7558	0.4172	0.8115	-0.02
Mof_H 	H 	0.8797	0.3903	0.6904	-0.016
Mof_C 	C 	0.8782	0.263	0.813	0.052
Mof_H 	H 	0.9323	0.2695	0.691	-0.007
Mof_H 	H 	0.8427	0.217	0.8093	-0.012
Mof_H 	H 	0.0717	0.3492	0.1212	0.007
Mof_N 	N 	0.7325	0.81354	0.3105	-0.166
Mof_C 	C 	0.6737	0.8836	0.313	0.03
Mof_H 	H 	0.7442	0.9172	0.3115	-0.017
Mof_H 	H 	0.6203	0.8903	0.1904	-0.019
Mof_C 	C 	0.6218	0.763	0.313	0.032
Mof_H 	H 	0.5677	0.7695	0.191	-0.015
Mof_H 	H 	0.6573	0.717	0.3093	-0.017
Mof_H 	H 	0.4283	0.8492	0.6212	-0.01
Mof_N 	N 	0.2675	0.18646	0.3105	-0.168
Mof_C 	C 	0.3263	0.1164	0.313	0.038
Mof_H 	H 	0.2558	0.0828	0.3115	-0.032
Mof_H 	H 	0.3797	0.1097	0.1904	-0.027
Mof_C 	C 	0.3782	0.237	0.313	0.033
Mof_H 	H 	0.4323	0.2305	0.191	-0.015
Mof_H 	H 	0.3427	0.283	0.3093	-0.019
Mof_H 	H 	0.5717	0.1508	0.6212	-0.014
Mof_N 	N 	0.7675	0.31354	0.1895	-0.165
Mof_C 	C 	0.8263	0.3836	0.187	0.028
Mof_H 	H 	0.7558	0.4172	0.1885	-0.023
Mof_H 	H 	0.8797	0.3903	0.3096	-0.01
Mof_C 	C 	0.8782	0.263	0.187	0.025
Mof_H 	H 	0.9323	0.2695	0.309	-0.001
Mof_H 	H 	0.8427	0.217	0.1907	-0.016
Mof_H 	H 	0.0717	0.3492	0.8788	0.027
Mof_N 	N 	0.2325	0.68646	0.1895	-0.168
Mof_C 	C 	0.1737	0.6164	0.187	0.031
Mof_H 	H 	0.2442	0.5828	0.1885	-0.026
Mof_H 	H 	0.1203	0.6097	0.3096	-0.019
Mof_C 	C 	0.1218	0.737	0.187	0.03
Mof_H 	H 	0.0677	0.7305	0.309	-0.013
Mof_H 	H 	0.1573	0.783	0.1907	-0.02
Mof_H 	H 	0.9283	0.6508	0.8788	0.014
Mof_Ag	Ag	0.14116	0.19616	-0	0.424
Mof_Ag	Ag	0.85884	0.80384	-0	0.469
Mof_Ag	Ag	0.35884	0.69616	0.5	0.49
Mof_Ag	Ag	0.64116	0.30384	0.5	0.49
Mof_Ag	Ag	0.5	-1.26858e-33	0.5	0.383
Mof_Ag	Ag	-0	0.5	-0	0.362
Mof_N 	N 	0.409	0.1061	0.5	-0.173
Mof_N 	N 	0.462	0.2285	0.5	-0.169
Mof_C 	C 	0.1873	0.1956	0.5	0.036
Mof_H 	H 	0.1189	0.1609	0.5	-0.02
Mof_H 	H 	0.1468	0.2406	0.5	-0.011
Mof_C 	C 	0.5169	0.1573	0.5	0.029
Mof_N 	N 	0.591	0.8939	0.5	-0.164
Mof_N 	N 	0.538	0.7715	0.5	-0.169
Mof_C 	C 	0.8127	0.8044	0.5	0.028
Mof_H 	H 	0.8811	0.8391	0.5	-0.007
Mof_H 	H 	0.8532	0.7594	0.5	-0.001
Mof_C 	C 	0.4831	0.8427	0.5	0.026
Mof_N 	N 	0.091	0.6061	-0	-0.185
Mof_N 	N 	0.038	0.7285	-0	-0.188
Mof_C 	C 	0.3127	0.6956	-0	0.014
Mof_H 	H 	0.3811	0.6609	-0	-0.019
Mof_H 	H 	0.3532	0.7406	-0	-0.011
Mof_C 	C 	0.9831	0.6573	-0	0.007
Mof_N 	N 	0.909	0.3939	-0	-0.161
Mof_N 	N 	0.962	0.2715	-0	-0.158
Mof_C 	C 	0.6873	0.3044	-0	0.015
Mof_H 	H 	0.6189	0.3391	-0	-0.019
Mof_H 	H 	0.6468	0.2594	-0	-0.012
Mof_C 	C 	0.0169	0.3427	-0	-0.067
_end
