# CIF file generated by openbabel 3.1.0, see https://openbabel.org
data_I
_chemical_name_common 'ZABQIC_ion_b'
_cell_length_a 11.592
_cell_length_b 19.0992
_cell_length_c 38.7481
_cell_angle_alpha 90
_cell_angle_beta 90
_cell_angle_gamma 90
_space_group_name_H-M_alt 'P 1'
_space_group_name_Hall 'P 1'
loop_
    _symmetry_equiv_pos_as_xyz
    x,y,z
loop_
    _atom_site_label
    _atom_site_type_symbol
    _atom_site_fract_x
    _atom_site_fract_y
    _atom_site_fract_z
    _atom_site_occupancy
    Ag1      Ag       0.20060    0.53410    0.25660    1.000
    S2       S        0.35980    0.68020    0.22530    1.000
    F3       F        0.20420    0.76350    0.24040    1.000
    F4       F        0.29550    0.79910    0.20660    1.000
    F5       F        0.36220    0.79110    0.26040    1.000
    O6       O        0.31660    0.64050    0.25840    1.000
    O7       O        0.30340    0.66170    0.19460    1.000
    O8       O        0.48020    0.67850    0.21890    1.000
    N9       N        0.25380    0.43830    0.28490    1.000
    N10      N        0.67050    0.98790    0.70380    1.000
    N11      N        0.06410    0.59620    0.28380    1.000
    N12      N        0.39260    0.56810    0.32510    1.000
    C13      C        0.31060    0.77500    0.23260    1.000
    C14      C        0.60750    0.06440    0.44400    1.000
    C15      C        0.60180    0.07250    0.40910    1.000
    C16      C        0.54580    0.12830    0.39020    1.000
    C17      C        0.49980    0.17870    0.37400    1.000
    C18      C        0.44590    0.23270    0.35770    1.000
    C19      C        0.41420    0.29350    0.37390    1.000
    C20      C        0.36560    0.34910    0.35390    1.000
    C21      C        0.35800    0.33930    0.32000    1.000
    C22      C        0.30190    0.39570    0.30320    1.000
    C23      C        0.38980    0.28080    0.30530    1.000
    C24      C        0.43530    0.22780    0.32480    1.000
    C25      C        0.65640    0.02120    0.38750    1.000
    C26      C        0.71610    0.96110    0.40240    1.000
    C27      C        0.77050    0.91090    0.38230    1.000
    C28      C        0.81800    0.86730    0.36640    1.000
    C29      C        0.86710    0.80760    0.34960    1.000
    C30      C        0.88100    0.82040    0.31400    1.000
    C31      C        0.93340    0.76150    0.29340    1.000
    C32      C        0.96490    0.69720    0.31430    1.000
    C33      C        0.02650    0.63920    0.29580    1.000
    C34      C        0.94970    0.69430    0.35010    1.000
    C35      C        0.89560    0.74840    0.36650    1.000
    C36      C        0.71440    0.95710    0.43840    1.000
    C37      C        0.65830    0.01000    0.46000    1.000
    C38      C        0.66400    0.00490    0.49490    1.000
    C39      C        0.66770    0.99950    0.52580    1.000
    C40      C        0.67180    0.99640    0.56390    1.000
    C41      C        0.70070    0.93870    0.58010    1.000
    C42      C        0.71280    0.93630    0.61560    1.000
    C43      C        0.67320    0.99420    0.63450    1.000
    C44      C        0.67450    0.99070    0.67570    1.000
    C45      C        0.63890    0.05230    0.61610    1.000
    C46      C        0.63070    0.05420    0.58270    1.000
    C47      C        0.03960    0.94500    0.43650    1.000
    C48      C        0.08770    0.88560    0.41890    1.000
    C49      C        0.12740    0.83530    0.40370    1.000
    C50      C        0.18600    0.78230    0.38810    1.000
    C51      C        0.22350    0.72540    0.40570    1.000
    C52      C        0.28130    0.66400    0.39160    1.000
    C53      C        0.29320    0.66680    0.35570    1.000
    C54      C        0.34980    0.61340    0.33580    1.000
    C55      C        0.25980    0.72010    0.33550    1.000
    C56      C        0.20310    0.78410    0.35220    1.000
    C57      C        0.04190    0.94190    0.47450    1.000
    C58      C        0.02400    0.93460    0.65090    1.000
    C59      C        0.02300    0.94050    0.61580    1.000
    H68      H        0.57410    0.09890    0.45770    1.000
    H69      H        0.42410    0.29860    0.39750    1.000
    H70      H        0.34050    0.39030    0.36420    1.000
    H71      H        0.38160    0.27520    0.28160    1.000
    H72      H        0.45930    0.18700    0.31380    1.000
    H73      H        0.65360    0.02630    0.36360    1.000
    H74      H        0.85910    0.86250    0.30380    1.000
    H75      H        0.94550    0.76440    0.26970    1.000
    H76      H        0.97620    0.65600    0.36250    1.000
    H77      H        0.87800    0.74420    0.38980    1.000
    H78      H        0.75040    0.91940    0.44910    1.000
    H79      H        0.71350    0.89820    0.56730    1.000
    H80      H        0.74580    0.89790    0.62650    1.000
    H81      H        0.62050    0.09260    0.62840    1.000
    H82      H        0.59860    0.09260    0.57150    1.000
    H83      H        0.21100    0.72560    0.42940    1.000
    H84      H        0.30750    0.62700    0.40510    1.000
    H85      H        0.27080    0.71820    0.31170    1.000
    H86      H        0.18090    0.82260    0.33920    1.000
    H87      H        0.07000    0.90300    0.48620    1.000
    H88      H        0.03810    0.89410    0.66360    1.000
    H89      H        0.03970    0.89990    0.60360    1.000
    Ag96     Ag       0.79940    0.46590    0.25660    1.000
    S97      S        0.64020    0.31980    0.22530    1.000
    F98      F        0.79580    0.23650    0.24040    1.000
    F99      F        0.70450    0.20090    0.20660    1.000
    F100     F        0.63780    0.20890    0.26040    1.000
    O101     O        0.68340    0.35950    0.25840    1.000
    O102     O        0.69660    0.33830    0.19460    1.000
    O103     O        0.51980    0.32150    0.21890    1.000
    N104     N        0.74620    0.56170    0.28490    1.000
    N105     N        0.32950    0.01210    0.70380    1.000
    N106     N        0.93590    0.40380    0.28380    1.000
    N107     N        0.60740    0.43190    0.32510    1.000
    C108     C        0.68940    0.22500    0.23260    1.000
    C109     C        0.39250    0.93560    0.44400    1.000
    C110     C        0.39820    0.92750    0.40910    1.000
    C111     C        0.45420    0.87170    0.39020    1.000
    C112     C        0.50020    0.82130    0.37400    1.000
    C113     C        0.55410    0.76730    0.35770    1.000
    C114     C        0.58580    0.70650    0.37390    1.000
    C115     C        0.63440    0.65090    0.35390    1.000
    C116     C        0.64200    0.66070    0.32000    1.000
    C117     C        0.69810    0.60430    0.30320    1.000
    C118     C        0.61020    0.71920    0.30530    1.000
    C119     C        0.56470    0.77220    0.32480    1.000
    C120     C        0.34360    0.97880    0.38750    1.000
    C121     C        0.28390    0.03890    0.40240    1.000
    C122     C        0.22950    0.08910    0.38230    1.000
    C123     C        0.18200    0.13270    0.36640    1.000
    C124     C        0.13290    0.19240    0.34960    1.000
    C125     C        0.11900    0.17960    0.31400    1.000
    C126     C        0.06660    0.23850    0.29340    1.000
    C127     C        0.03510    0.30280    0.31430    1.000
    C128     C        0.97350    0.36080    0.29580    1.000
    C129     C        0.05030    0.30570    0.35010    1.000
    C130     C        0.10440    0.25160    0.36650    1.000
    C131     C        0.28560    0.04290    0.43840    1.000
    C132     C        0.34170    0.99000    0.46000    1.000
    C133     C        0.33600    0.99510    0.49490    1.000
    C134     C        0.33230    0.00050    0.52580    1.000
    C135     C        0.32820    0.00360    0.56390    1.000
    C136     C        0.29930    0.06130    0.58010    1.000
    C137     C        0.28720    0.06370    0.61560    1.000
    C138     C        0.32680    0.00580    0.63450    1.000
    C139     C        0.32550    0.00930    0.67570    1.000
    C140     C        0.36110    0.94770    0.61610    1.000
    C141     C        0.36930    0.94580    0.58270    1.000
    C142     C        0.96040    0.05500    0.43650    1.000
    C143     C        0.91230    0.11440    0.41890    1.000
    C144     C        0.87260    0.16470    0.40370    1.000
    C145     C        0.81400    0.21770    0.38810    1.000
    C146     C        0.77650    0.27460    0.40570    1.000
    C147     C        0.71870    0.33600    0.39160    1.000
    C148     C        0.70680    0.33320    0.35570    1.000
    C149     C        0.65020    0.38660    0.33580    1.000
    C150     C        0.74020    0.27990    0.33550    1.000
    C151     C        0.79690    0.21590    0.35220    1.000
    C152     C        0.95810    0.05810    0.47450    1.000
    C153     C        0.97600    0.06540    0.65090    1.000
    C154     C        0.97700    0.05950    0.61580    1.000
    H163     H        0.42590    0.90110    0.45770    1.000
    H164     H        0.57590    0.70140    0.39750    1.000
    H165     H        0.65950    0.60970    0.36420    1.000
    H166     H        0.61840    0.72480    0.28160    1.000
    H167     H        0.54070    0.81300    0.31380    1.000
    H168     H        0.34640    0.97370    0.36360    1.000
    H169     H        0.14090    0.13750    0.30380    1.000
    H170     H        0.05450    0.23560    0.26970    1.000
    H171     H        0.02380    0.34400    0.36250    1.000
    H172     H        0.12200    0.25580    0.38980    1.000
    H173     H        0.24960    0.08060    0.44910    1.000
    H174     H        0.28650    0.10180    0.56730    1.000
    H175     H        0.25420    0.10210    0.62650    1.000
    H176     H        0.37950    0.90740    0.62840    1.000
    H177     H        0.40140    0.90740    0.57150    1.000
    H178     H        0.78900    0.27440    0.42940    1.000
    H179     H        0.69250    0.37300    0.40510    1.000
    H180     H        0.72920    0.28180    0.31170    1.000
    H181     H        0.81910    0.17740    0.33920    1.000
    H182     H        0.93000    0.09700    0.48620    1.000
    H183     H        0.96190    0.10590    0.66360    1.000
    H184     H        0.96030    0.10010    0.60360    1.000
    Ag191    Ag       0.70060    0.96590    0.75660    1.000
    S192     S        0.85980    0.81980    0.72530    1.000
    F193     F        0.70420    0.73650    0.74040    1.000
    F194     F        0.79550    0.70090    0.70660    1.000
    F195     F        0.86220    0.70890    0.76040    1.000
    O196     O        0.81660    0.85950    0.75840    1.000
    O197     O        0.80340    0.83830    0.69460    1.000
    O198     O        0.98020    0.82150    0.71890    1.000
    N199     N        0.75380    0.06170    0.78490    1.000
    N200     N        0.17050    0.51210    0.20380    1.000
    N201     N        0.56410    0.90380    0.78380    1.000
    N202     N        0.89260    0.93190    0.82510    1.000
    C203     C        0.81060    0.72500    0.73260    1.000
    C204     C        0.10750    0.43560    0.94400    1.000
    C205     C        0.10180    0.42750    0.90910    1.000
    C206     C        0.04580    0.37170    0.89020    1.000
    C207     C        0.99980    0.32130    0.87400    1.000
    C208     C        0.94590    0.26730    0.85770    1.000
    C209     C        0.91420    0.20650    0.87390    1.000
    C210     C        0.86560    0.15090    0.85390    1.000
    C211     C        0.85800    0.16070    0.82000    1.000
    C212     C        0.80190    0.10430    0.80320    1.000
    C213     C        0.88980    0.21920    0.80530    1.000
    C214     C        0.93530    0.27220    0.82480    1.000
    C215     C        0.15640    0.47880    0.88750    1.000
    C216     C        0.21610    0.53890    0.90240    1.000
    C217     C        0.27050    0.58910    0.88230    1.000
    C218     C        0.31800    0.63270    0.86640    1.000
    C219     C        0.36710    0.69240    0.84960    1.000
    C220     C        0.38100    0.67960    0.81400    1.000
    C221     C        0.43340    0.73850    0.79340    1.000
    C222     C        0.46490    0.80280    0.81430    1.000
    C223     C        0.52650    0.86080    0.79580    1.000
    C224     C        0.44970    0.80570    0.85010    1.000
    C225     C        0.39560    0.75160    0.86650    1.000
    C226     C        0.21440    0.54290    0.93840    1.000
    C227     C        0.15830    0.49000    0.96000    1.000
    C228     C        0.16400    0.49510    0.99490    1.000
    C229     C        0.16770    0.50050    0.02580    1.000
    C230     C        0.17180    0.50360    0.06390    1.000
    C231     C        0.20070    0.56130    0.08010    1.000
    C232     C        0.21280    0.56370    0.11560    1.000
    C233     C        0.17320    0.50580    0.13450    1.000
    C234     C        0.17450    0.50930    0.17570    1.000
    C235     C        0.13890    0.44770    0.11610    1.000
    C236     C        0.13070    0.44580    0.08270    1.000
    C237     C        0.53960    0.55500    0.93650    1.000
    C238     C        0.58770    0.61440    0.91890    1.000
    C239     C        0.62740    0.66470    0.90370    1.000
    C240     C        0.68600    0.71770    0.88810    1.000
    C241     C        0.72350    0.77460    0.90570    1.000
    C242     C        0.78130    0.83600    0.89160    1.000
    C243     C        0.79320    0.83320    0.85570    1.000
    C244     C        0.84980    0.88660    0.83580    1.000
    C245     C        0.75980    0.77990    0.83550    1.000
    C246     C        0.70310    0.71590    0.85220    1.000
    C247     C        0.54190    0.55810    0.97450    1.000
    C248     C        0.52400    0.56540    0.15090    1.000
    C249     C        0.52300    0.55950    0.11580    1.000
    H258     H        0.07410    0.40110    0.95770    1.000
    H259     H        0.92410    0.20140    0.89750    1.000
    H260     H        0.84050    0.10970    0.86420    1.000
    H261     H        0.88160    0.22480    0.78160    1.000
    H262     H        0.95930    0.31300    0.81380    1.000
    H263     H        0.15360    0.47370    0.86360    1.000
    H264     H        0.35910    0.63750    0.80380    1.000
    H265     H        0.44550    0.73560    0.76970    1.000
    H266     H        0.47620    0.84400    0.86250    1.000
    H267     H        0.37800    0.75580    0.88980    1.000
    H268     H        0.25040    0.58060    0.94910    1.000
    H269     H        0.21350    0.60180    0.06730    1.000
    H270     H        0.24580    0.60210    0.12650    1.000
    H271     H        0.12050    0.40740    0.12840    1.000
    H272     H        0.09860    0.40740    0.07150    1.000
    H273     H        0.71100    0.77440    0.92940    1.000
    H274     H        0.80750    0.87300    0.90510    1.000
    H275     H        0.77080    0.78180    0.81170    1.000
    H276     H        0.68090    0.67740    0.83920    1.000
    H277     H        0.57000    0.59700    0.98620    1.000
    H278     H        0.53810    0.60590    0.16360    1.000
    H279     H        0.53970    0.60010    0.10360    1.000
    Ag286    Ag       0.29940    0.03410    0.75660    1.000
    S287     S        0.14020    0.18020    0.72530    1.000
    F288     F        0.29580    0.26350    0.74040    1.000
    F289     F        0.20450    0.29910    0.70660    1.000
    F290     F        0.13780    0.29110    0.76040    1.000
    O291     O        0.18340    0.14050    0.75840    1.000
    O292     O        0.19660    0.16170    0.69460    1.000
    O293     O        0.01980    0.17850    0.71890    1.000
    N294     N        0.24620    0.93830    0.78490    1.000
    N295     N        0.82950    0.48790    0.20380    1.000
    N296     N        0.43590    0.09620    0.78380    1.000
    N297     N        0.10740    0.06810    0.82510    1.000
    C298     C        0.18940    0.27500    0.73260    1.000
    C299     C        0.89250    0.56440    0.94400    1.000
    C300     C        0.89820    0.57250    0.90910    1.000
    C301     C        0.95420    0.62830    0.89020    1.000
    C302     C        0.00020    0.67870    0.87400    1.000
    C303     C        0.05410    0.73270    0.85770    1.000
    C304     C        0.08580    0.79350    0.87390    1.000
    C305     C        0.13440    0.84910    0.85390    1.000
    C306     C        0.14200    0.83930    0.82000    1.000
    C307     C        0.19810    0.89570    0.80320    1.000
    C308     C        0.11020    0.78080    0.80530    1.000
    C309     C        0.06470    0.72780    0.82480    1.000
    C310     C        0.84360    0.52120    0.88750    1.000
    C311     C        0.78390    0.46110    0.90240    1.000
    C312     C        0.72950    0.41090    0.88230    1.000
    C313     C        0.68200    0.36730    0.86640    1.000
    C314     C        0.63290    0.30760    0.84960    1.000
    C315     C        0.61900    0.32040    0.81400    1.000
    C316     C        0.56660    0.26150    0.79340    1.000
    C317     C        0.53510    0.19720    0.81430    1.000
    C318     C        0.47350    0.13920    0.79580    1.000
    C319     C        0.55030    0.19430    0.85010    1.000
    C320     C        0.60440    0.24840    0.86650    1.000
    C321     C        0.78560    0.45710    0.93840    1.000
    C322     C        0.84170    0.51000    0.96000    1.000
    C323     C        0.83600    0.50490    0.99490    1.000
    C324     C        0.83230    0.49950    0.02580    1.000
    C325     C        0.82820    0.49640    0.06390    1.000
    C326     C        0.79930    0.43870    0.08010    1.000
    C327     C        0.78720    0.43630    0.11560    1.000
    C328     C        0.82680    0.49420    0.13450    1.000
    C329     C        0.82550    0.49070    0.17570    1.000
    C330     C        0.86110    0.55230    0.11610    1.000
    C331     C        0.86930    0.55420    0.08270    1.000
    C332     C        0.46040    0.44500    0.93650    1.000
    C333     C        0.41230    0.38560    0.91890    1.000
    C334     C        0.37260    0.33530    0.90370    1.000
    C335     C        0.31400    0.28230    0.88810    1.000
    C336     C        0.27650    0.22540    0.90570    1.000
    C337     C        0.21870    0.16400    0.89160    1.000
    C338     C        0.20680    0.16680    0.85570    1.000
    C339     C        0.15020    0.11340    0.83580    1.000
    C340     C        0.24020    0.22010    0.83550    1.000
    C341     C        0.29690    0.28410    0.85220    1.000
    C342     C        0.45810    0.44190    0.97450    1.000
    C343     C        0.47600    0.43460    0.15090    1.000
    C344     C        0.47700    0.44050    0.11580    1.000
    H353     H        0.92590    0.59890    0.95770    1.000
    H354     H        0.07590    0.79860    0.89750    1.000
    H355     H        0.15950    0.89030    0.86420    1.000
    H356     H        0.11840    0.77520    0.78160    1.000
    H357     H        0.04070    0.68700    0.81380    1.000
    H358     H        0.84640    0.52630    0.86360    1.000
    H359     H        0.64090    0.36250    0.80380    1.000
    H360     H        0.55450    0.26440    0.76970    1.000
    H361     H        0.52380    0.15600    0.86250    1.000
    H362     H        0.62200    0.24420    0.88980    1.000
    H363     H        0.74960    0.41940    0.94910    1.000
    H364     H        0.78650    0.39820    0.06730    1.000
    H365     H        0.75420    0.39790    0.12650    1.000
    H366     H        0.87950    0.59260    0.12840    1.000
    H367     H        0.90140    0.59260    0.07150    1.000
    H368     H        0.28900    0.22560    0.92940    1.000
    H369     H        0.19250    0.12700    0.90510    1.000
    H370     H        0.22920    0.21820    0.81170    1.000
    H371     H        0.31910    0.32260    0.83920    1.000
    H372     H        0.43000    0.40300    0.98620    1.000
    H373     H        0.46190    0.39410    0.16360    1.000
    H374     H        0.46030    0.39990    0.10360    1.000
    Ag381    Ag       0.50000    0.50000    0.29000    1.000
    Ag384    Ag       0.00000    0.00000    0.79000    1.000
    N387     N        0.00000    0.00000    0.73330    1.000
    C388     C        0.00000    0.00000    0.41930    1.000
    C389     C        0.00000    0.00000    0.49190    1.000
    C390     C        0.00000    0.00000    0.52980    1.000
    C391     C        0.00000    0.00000    0.59610    1.000
    C392     C        0.00000    0.00000    0.56070    1.000
    C393     C        0.00000    0.00000    0.66410    1.000
    C394     C        0.00000    0.00000    0.69940    1.000
    H395     H        0.00000    0.00000    0.39530    1.000
    N396     N        0.50000    0.50000    0.23330    1.000
    C397     C        0.50000    0.50000    0.91930    1.000
    C398     C        0.50000    0.50000    0.99190    1.000
    C399     C        0.50000    0.50000    0.02980    1.000
    C400     C        0.50000    0.50000    0.09610    1.000
    C401     C        0.50000    0.50000    0.06070    1.000
    C402     C        0.50000    0.50000    0.16410    1.000
    C403     C        0.50000    0.50000    0.19940    1.000
    H404     H        0.50000    0.50000    0.89530    1.000
