# CIF file generated by openbabel 3.1.0, see https://openbabel.org
data_I
_chemical_name_common 'image0'
_cell_length_a 9.265
_cell_length_b 9.397
_cell_length_c 9.238
_cell_angle_alpha 94.36
_cell_angle_beta 90.64
_cell_angle_gamma 103.67
_space_group_name_H-M_alt 'P 1'
_space_group_name_Hall 'P 1'
loop_
    _symmetry_equiv_pos_as_xyz
    x,y,z
loop_
    _atom_site_label
    _atom_site_type_symbol
    _atom_site_fract_x
    _atom_site_fract_y
    _atom_site_fract_z
    _atom_site_occupancy
    Ga1      Ga       0.13908    0.08599    0.43565    1.000
    Ga2      Ga       0.60890    0.34138    0.39230    1.000
    Ga3      Ga       0.62500    0.92141    0.15717    1.000
    P1       P        0.37722    0.09021    0.18526    1.000
    P2       P        0.37956    0.32951    0.62664    1.000
    P3       P        0.16776    0.85014    0.64341    1.000
    F1       F        0.97990    0.90940    0.38750    1.000
    O1       O        0.43940    0.95310    0.17760    1.000
    O2       O        0.27120    0.26670    0.50230    1.000
    O3       O        0.53960    0.34620    0.57470    1.000
    O4       O        0.23140    0.91160    0.79750    1.000
    O5       O        0.21090    0.70250    0.60850    1.000
    O6       O        0.23670    0.95970    0.53610    1.000
    O7       O        0.22760    0.05970    0.25510    1.000
    O8       O        0.35730    0.24050    0.75870    1.000
    O9       O        0.99840    0.81180    0.64670    1.000
    O10      O        0.48770    0.21850    0.26220    1.000
    O11      O        0.35890    0.48120    0.68190    1.000
    O12      O        0.35430    0.13290    0.03200    1.000
    Ga4      Ga       0.86092    0.91401    0.56435    1.000
    Ga5      Ga       0.39110    0.65862    0.60770    1.000
    Ga6      Ga       0.37500    0.07859    0.84283    1.000
    P4       P        0.62278    0.90979    0.81474    1.000
    P5       P        0.62044    0.67049    0.37336    1.000
    P6       P        0.83224    0.14986    0.35659    1.000
    F2       F        0.02010    0.09060    0.61250    1.000
    O13      O        0.56060    0.04690    0.82240    1.000
    O14      O        0.72880    0.73330    0.49770    1.000
    O15      O        0.46040    0.65380    0.42530    1.000
    O16      O        0.76860    0.08840    0.20250    1.000
    O17      O        0.78910    0.29750    0.39150    1.000
    O18      O        0.76330    0.04030    0.46390    1.000
    O19      O        0.77240    0.94030    0.74490    1.000
    O20      O        0.64270    0.75950    0.24130    1.000
    O21      O        0.00160    0.18820    0.35330    1.000
    O22      O        0.51230    0.78150    0.73780    1.000
    O23      O        0.64110    0.51880    0.31810    1.000
    O24      O        0.64570    0.86710    0.96800    1.000
