# CIF file generated by openbabel 3.1.0, see https://openbabel.org
data_I
_chemical_name_common 'PIHWAG_clean'
_cell_length_a 8.206
_cell_length_b 14.1833
_cell_length_c 14.1833
_cell_angle_alpha 110.031
_cell_angle_beta 91.265
_cell_angle_gamma 88.735
_space_group_name_H-M_alt 'P 1'
_space_group_name_Hall 'P 1'
loop_
    _symmetry_equiv_pos_as_xyz
    x,y,z
loop_
    _atom_site_label
    _atom_site_type_symbol
    _atom_site_fract_x
    _atom_site_fract_y
    _atom_site_fract_z
    _atom_site_occupancy
    La1      La       0.00345    0.74878    0.21800    1.000
    La2      La       0.50345    0.78200    0.25122    1.000
    H1       H        0.49730    0.56320    0.60220    1.000
    H2       H        0.42870    0.28180    0.40820    1.000
    H3       H        0.27710    0.35740    0.69480    1.000
    H4       H        0.46390    0.74290    0.95370    1.000
    H5       H        0.52670    0.66030    0.77510    1.000
    H6       H        0.78460    0.39560    0.21720    1.000
    H7       H        0.62670    0.31350    0.31430    1.000
    H8       H        0.05090    0.03950    0.57070    1.000
    H9       H        0.13170    0.21460    0.64780    1.000
    H10      H        0.99730    0.39780    0.43680    1.000
    H11      H        0.92870    0.59180    0.71820    1.000
    H12      H        0.77710    0.30520    0.64260    1.000
    H13      H        0.96390    0.04630    0.25710    1.000
    H14      H        0.02670    0.22490    0.33970    1.000
    H15      H        0.28460    0.78280    0.60440    1.000
    H16      H        0.12670    0.68570    0.68650    1.000
    H17      H        0.55090    0.42930    0.96050    1.000
    H18      H        0.63170    0.35220    0.78540    1.000
    C1       C        0.38510    0.47390    0.66550    1.000
    C2       C        0.45940    0.49700    0.58880    1.000
    C3       C        0.48020    0.42600    0.49280    1.000
    C4       C        0.41860    0.33020    0.47360    1.000
    C5       C        0.34250    0.30340    0.54780    1.000
    C6       C        0.32710    0.37510    0.64350    1.000
    C7       C        0.36720    0.54780    0.76740    1.000
    C8       C        0.30000    0.63240    0.94540    1.000
    C9       C        0.41470    0.68240    0.91220    1.000
    C10      C        0.45170    0.63490    0.81030    1.000
    C11      C        0.22900    0.65950    0.04630    1.000
    C12      C        0.56830    0.44890    0.41470    1.000
    C13      C        0.71670    0.53430    0.31670    1.000
    C14      C        0.72590    0.43130    0.27610    1.000
    C15      C        0.63650    0.38420    0.33300    1.000
    C16      C        0.79480    0.60770    0.27970    1.000
    C17      C        0.27490    0.20260    0.52680    1.000
    C18      C        0.19400    0.02420    0.45020    1.000
    C19      C        0.12380    0.07140    0.54040    1.000
    C20      C        0.16960    0.17190    0.58450    1.000
    C21      C        0.15830    0.92280    0.37860    1.000
    C22      C        0.88510    0.33450    0.52610    1.000
    C23      C        0.95940    0.41120    0.50300    1.000
    C24      C        0.98020    0.50720    0.57400    1.000
    C25      C        0.91860    0.52640    0.66980    1.000
    C26      C        0.84250    0.45220    0.69660    1.000
    C27      C        0.82710    0.35650    0.62490    1.000
    C28      C        0.86720    0.23260    0.45220    1.000
    C29      C        0.80000    0.05460    0.36760    1.000
    C30      C        0.91470    0.08780    0.31760    1.000
    C31      C        0.95170    0.18970    0.36510    1.000
    C32      C        0.72900    0.95370    0.34050    1.000
    C33      C        0.06830    0.58530    0.55110    1.000
    C34      C        0.21670    0.68330    0.46570    1.000
    C35      C        0.22590    0.72390    0.56870    1.000
    C36      C        0.13650    0.66700    0.61580    1.000
    C37      C        0.29480    0.72030    0.39230    1.000
    C38      C        0.77490    0.47320    0.79740    1.000
    C39      C        0.69400    0.54980    0.97580    1.000
    C40      C        0.62380    0.45960    0.92860    1.000
    C41      C        0.66960    0.41550    0.82810    1.000
    C42      C        0.65830    0.62140    0.07720    1.000
    S1       S        0.23590    0.52682    0.85064    1.000
    S2       S        0.59990    0.57177    0.42367    1.000
    S3       S        0.32130    0.10408    0.41864    1.000
    S4       S        0.73590    0.14936    0.47318    1.000
    S5       S        0.09990    0.57633    0.42823    1.000
    S6       S        0.82130    0.58136    0.89592    1.000
    O1       O        0.29030    0.73230    0.11670    1.000
    O2       O        0.10950    0.61230    0.05930    1.000
    O3       O        0.90610    0.57920    0.21820    1.000
    O4       O        0.74750    0.69960    0.31540    1.000
    O5       O        0.05320    0.87110    0.39850    1.000
    O6       O        0.23630    0.89120    0.29580    1.000
    O7       O        0.79030    0.88330    0.26770    1.000
    O8       O        0.60950    0.94070    0.38770    1.000
    O9       O        0.40610    0.78180    0.42080    1.000
    O10      O        0.24750    0.68460    0.30040    1.000
    O11      O        0.55320    0.60150    0.12890    1.000
    O12      O        0.73630    0.70420    0.10880    1.000
