data_functionalizedCrystal
_audit_creation_method	'EQeq! by Chris Wilmer'
_symmetry_space_group_name_H-M	'P1'
_symmetry_Int_Tables_number	1
_symmetry_cell_setting	triclinic
loop_
_symmetry_equiv_pos_as_xyz
  x,y,z
_cell_length_a	12.313
_cell_length_b	22.626
_cell_length_c	34.702
_cell_angle_alpha	90
_cell_angle_beta	90
_cell_angle_gamma	90
loop_
_atom_site_label
_atom_site_type_symbol
_atom_site_fract_x
_atom_site_fract_y
_atom_site_fract_z
_atom_site_charge
Mof_Zn	Zn	0.24093	0.32491	0.24846	1.238
Mof_C 	C 	0.0817	0.3515	0.3058	0.4
Mof_C 	C 	0.0751	0.4027	0.2793	-0.091
Mof_C 	C 	0.0278	0.4573	0.2812	-0.079
Mof_C 	C 	0.9605	0.4871	0.3103	0.384
Mof_C 	C 	0.1262	0.4529	0.2289	0.134
Mof_C 	C 	0.1798	0.4688	0.1934	-0.1
Mof_C 	C 	0.1925	0.5266	0.1821	0.036
Mof_H 	H 	0.1622	0.5568	0.1968	0.005
Mof_C 	C 	0.2515	0.5406	0.1482	-0.136
Mof_H 	H 	0.2594	0.5793	0.1396	0.078
Mof_C 	C 	0.2956	0.4942	0.1292	0.094
Mof_H 	H 	0.3353	0.5029	0.1071	-0.03
Mof_C 	C 	0.2286	0.4256	0.1709	0.038
Mof_H 	H 	0.2208	0.3862	0.1779	-0.023
Mof_N 	N 	0.1383	0.4004	0.2462	-0.221
Mof_N 	N 	0.0594	0.4897	0.2493	-0.225
Mof_N 	N 	0.2881	0.4393	0.1386	-0.294
Mof_O 	O 	0.1548	0.3128	0.2978	-0.468
Mof_O 	O 	0.0197	0.3461	0.3344	-0.553
Mof_O 	O 	0.9373	0.4633	0.3416	-0.517
Mof_O 	O 	0.934	0.5409	0.3025	-0.469
Mof_Zn	Zn	0.24093	0.82491	0.74846	1.239
Mof_C 	C 	0.0817	0.8515	0.8058	0.401
Mof_C 	C 	0.0751	0.9027	0.7793	-0.09
Mof_C 	C 	0.0278	0.9573	0.7812	-0.076
Mof_C 	C 	0.9605	0.9871	0.8103	0.381
Mof_C 	C 	0.1262	0.9529	0.7289	0.135
Mof_C 	C 	0.1798	0.9688	0.6934	-0.098
Mof_C 	C 	0.1925	0.0266	0.6821	0.036
Mof_H 	H 	0.1622	0.0568	0.6968	0.005
Mof_C 	C 	0.2515	0.0406	0.6482	-0.137
Mof_H 	H 	0.2594	0.0793	0.6396	0.078
Mof_C 	C 	0.2956	0.9942	0.6292	0.096
Mof_H 	H 	0.3353	0.0029	0.6071	-0.031
Mof_C 	C 	0.2286	0.9256	0.6709	0.038
Mof_H 	H 	0.2208	0.8862	0.6779	-0.023
Mof_N 	N 	0.1383	0.9004	0.7462	-0.221
Mof_N 	N 	0.0594	0.9897	0.7493	-0.225
Mof_N 	N 	0.2881	0.9393	0.6386	-0.294
Mof_O 	O 	0.1548	0.8128	0.7978	-0.468
Mof_O 	O 	0.0197	0.8461	0.8344	-0.552
Mof_O 	O 	0.9373	0.9633	0.8416	-0.517
Mof_O 	O 	0.934	0.0409	0.8025	-0.468
Mof_Zn	Zn	0.74093	0.32491	0.74846	1.239
Mof_C 	C 	0.5817	0.3515	0.8058	0.401
Mof_C 	C 	0.5751	0.4027	0.7793	-0.09
Mof_C 	C 	0.5278	0.4573	0.7812	-0.078
Mof_C 	C 	0.4605	0.4871	0.8103	0.385
Mof_C 	C 	0.6262	0.4529	0.7289	0.135
Mof_C 	C 	0.6798	0.4688	0.6934	-0.099
Mof_C 	C 	0.6925	0.5266	0.6821	0.037
Mof_H 	H 	0.6622	0.5568	0.6968	0.005
Mof_C 	C 	0.7515	0.5406	0.6482	-0.136
Mof_H 	H 	0.7594	0.5793	0.6396	0.078
Mof_C 	C 	0.7956	0.4942	0.6292	0.094
Mof_H 	H 	0.8353	0.5029	0.6071	-0.03
Mof_C 	C 	0.7286	0.4256	0.6709	0.038
Mof_H 	H 	0.7208	0.3862	0.6779	-0.023
Mof_N 	N 	0.6383	0.4004	0.7462	-0.221
Mof_N 	N 	0.5594	0.4897	0.7493	-0.225
Mof_N 	N 	0.7881	0.4393	0.6386	-0.294
Mof_O 	O 	0.6548	0.3128	0.7978	-0.468
Mof_O 	O 	0.5197	0.3461	0.8344	-0.553
Mof_O 	O 	0.4373	0.4633	0.8416	-0.517
Mof_O 	O 	0.434	0.5409	0.8025	-0.469
Mof_Zn	Zn	0.74093	0.82491	0.24846	1.239
Mof_C 	C 	0.5817	0.8515	0.3058	0.401
Mof_C 	C 	0.5751	0.9027	0.2793	-0.09
Mof_C 	C 	0.5278	0.9573	0.2812	-0.078
Mof_C 	C 	0.4605	0.9871	0.3103	0.384
Mof_C 	C 	0.6262	0.9529	0.2289	0.135
Mof_C 	C 	0.6798	0.9688	0.1934	-0.099
Mof_C 	C 	0.6925	0.0266	0.1821	0.036
Mof_H 	H 	0.6622	0.0568	0.1968	0.006
Mof_C 	C 	0.7515	0.0406	0.1482	-0.132
Mof_H 	H 	0.7594	0.0793	0.1396	0.076
Mof_C 	C 	0.7956	0.9942	0.1292	0.089
Mof_H 	H 	0.8353	0.0029	0.1071	-0.028
Mof_C 	C 	0.7286	0.9256	0.1709	0.038
Mof_H 	H 	0.7208	0.8862	0.1779	-0.023
Mof_N 	N 	0.6383	0.9004	0.2462	-0.221
Mof_N 	N 	0.5594	0.9897	0.2493	-0.225
Mof_N 	N 	0.7881	0.9393	0.1386	-0.293
Mof_O 	O 	0.6548	0.8128	0.2978	-0.468
Mof_O 	O 	0.5197	0.8461	0.3344	-0.553
Mof_O 	O 	0.4373	0.9633	0.3416	-0.517
Mof_O 	O 	0.434	0.0409	0.3025	-0.469
Mof_Zn	Zn	0.50907	0.42509	0.24846	1.239
Mof_C 	C 	0.6683	0.3985	0.3058	0.401
Mof_C 	C 	0.6749	0.3473	0.2793	-0.09
Mof_C 	C 	0.7222	0.2927	0.2812	-0.078
Mof_C 	C 	0.7895	0.2629	0.3103	0.385
Mof_C 	C 	0.6238	0.2971	0.2289	0.135
Mof_C 	C 	0.5702	0.2812	0.1934	-0.099
Mof_C 	C 	0.5575	0.2234	0.1821	0.037
Mof_H 	H 	0.5878	0.1932	0.1968	0.005
Mof_C 	C 	0.4985	0.2094	0.1482	-0.136
Mof_H 	H 	0.4906	0.1707	0.1396	0.078
Mof_C 	C 	0.4544	0.2558	0.1292	0.094
Mof_H 	H 	0.4147	0.2471	0.1071	-0.03
Mof_C 	C 	0.5214	0.3244	0.1709	0.038
Mof_H 	H 	0.5292	0.3638	0.1779	-0.023
Mof_N 	N 	0.6117	0.3496	0.2462	-0.221
Mof_N 	N 	0.6906	0.2603	0.2493	-0.225
Mof_N 	N 	0.4619	0.3107	0.1386	-0.294
Mof_O 	O 	0.5952	0.4372	0.2978	-0.468
Mof_O 	O 	0.7303	0.4039	0.3344	-0.553
Mof_O 	O 	0.8127	0.2867	0.3416	-0.517
Mof_O 	O 	0.816	0.2091	0.3025	-0.469
Mof_Zn	Zn	0.50907	0.92509	0.74846	1.239
Mof_C 	C 	0.6683	0.8985	0.8058	0.401
Mof_C 	C 	0.6749	0.8473	0.7793	-0.09
Mof_C 	C 	0.7222	0.7927	0.7812	-0.078
Mof_C 	C 	0.7895	0.7629	0.8103	0.384
Mof_C 	C 	0.6238	0.7971	0.7289	0.135
Mof_C 	C 	0.5702	0.7812	0.6934	-0.099
Mof_C 	C 	0.5575	0.7234	0.6821	0.037
Mof_H 	H 	0.5878	0.6932	0.6968	0.005
Mof_C 	C 	0.4985	0.7094	0.6482	-0.136
Mof_H 	H 	0.4906	0.6707	0.6396	0.078
Mof_C 	C 	0.4544	0.7558	0.6292	0.094
Mof_H 	H 	0.4147	0.7471	0.6071	-0.03
Mof_C 	C 	0.5214	0.8244	0.6709	0.038
Mof_H 	H 	0.5292	0.8638	0.6779	-0.023
Mof_N 	N 	0.6117	0.8496	0.7462	-0.221
Mof_N 	N 	0.6906	0.7603	0.7493	-0.225
Mof_N 	N 	0.4619	0.8107	0.6386	-0.294
Mof_O 	O 	0.5952	0.9372	0.7978	-0.468
Mof_O 	O 	0.7303	0.9039	0.8344	-0.553
Mof_O 	O 	0.8127	0.7867	0.8416	-0.517
Mof_O 	O 	0.816	0.7091	0.8025	-0.469
Mof_Zn	Zn	0.00907	0.42509	0.74846	1.239
Mof_C 	C 	0.1683	0.3985	0.8058	0.401
Mof_C 	C 	0.1749	0.3473	0.7793	-0.09
Mof_C 	C 	0.2222	0.2927	0.7812	-0.078
Mof_C 	C 	0.2895	0.2629	0.8103	0.385
Mof_C 	C 	0.1238	0.2971	0.7289	0.135
Mof_C 	C 	0.0702	0.2812	0.6934	-0.099
Mof_C 	C 	0.0575	0.2234	0.6821	0.036
Mof_H 	H 	0.0878	0.1932	0.6968	0.006
Mof_C 	C 	0.9985	0.2094	0.6482	-0.134
Mof_H 	H 	0.9906	0.1707	0.6396	0.077
Mof_C 	C 	0.9544	0.2558	0.6292	0.094
Mof_H 	H 	0.9147	0.2471	0.6071	-0.03
Mof_C 	C 	0.0214	0.3244	0.6709	0.038
Mof_H 	H 	0.0292	0.3638	0.6779	-0.023
Mof_N 	N 	0.1117	0.3496	0.7462	-0.221
Mof_N 	N 	0.1906	0.2603	0.7493	-0.225
Mof_N 	N 	0.9619	0.3107	0.6386	-0.294
Mof_O 	O 	0.0952	0.4372	0.7978	-0.468
Mof_O 	O 	0.2303	0.4039	0.8344	-0.553
Mof_O 	O 	0.3127	0.2867	0.8416	-0.517
Mof_O 	O 	0.316	0.2091	0.8025	-0.469
Mof_Zn	Zn	0.00907	0.92509	0.24846	1.239
Mof_C 	C 	0.1683	0.8985	0.3058	0.401
Mof_C 	C 	0.1749	0.8473	0.2793	-0.09
Mof_C 	C 	0.2222	0.7927	0.2812	-0.078
Mof_C 	C 	0.2895	0.7629	0.3103	0.385
Mof_C 	C 	0.1238	0.7971	0.2289	0.135
Mof_C 	C 	0.0702	0.7812	0.1934	-0.1
Mof_C 	C 	0.0575	0.7234	0.1821	0.038
Mof_H 	H 	0.0878	0.6932	0.1968	0.005
Mof_C 	C 	0.9985	0.7094	0.1482	-0.136
Mof_H 	H 	0.9906	0.6707	0.1396	0.078
Mof_C 	C 	0.9544	0.7558	0.1292	0.094
Mof_H 	H 	0.9147	0.7471	0.1071	-0.03
Mof_C 	C 	0.0214	0.8244	0.1709	0.039
Mof_H 	H 	0.0292	0.8638	0.1779	-0.023
Mof_N 	N 	0.1117	0.8496	0.2462	-0.221
Mof_N 	N 	0.1906	0.7603	0.2493	-0.225
Mof_N 	N 	0.9619	0.8107	0.1386	-0.295
Mof_O 	O 	0.0952	0.9372	0.2978	-0.468
Mof_O 	O 	0.2303	0.9039	0.3344	-0.553
Mof_O 	O 	0.3127	0.7867	0.3416	-0.517
Mof_O 	O 	0.316	0.7091	0.3025	-0.469
Mof_Zn	Zn	0.50907	0.32491	0.50154	1.239
Mof_C 	C 	0.6683	0.3515	0.4442	0.401
Mof_C 	C 	0.6749	0.4027	0.4707	-0.09
Mof_C 	C 	0.7222	0.4573	0.4688	-0.078
Mof_C 	C 	0.7895	0.4871	0.4397	0.385
Mof_C 	C 	0.6238	0.4529	0.5211	0.135
Mof_C 	C 	0.5702	0.4688	0.5566	-0.099
Mof_C 	C 	0.5575	0.5266	0.5679	0.037
Mof_H 	H 	0.5878	0.5568	0.5532	0.005
Mof_C 	C 	0.4985	0.5406	0.6018	-0.136
Mof_H 	H 	0.4906	0.5793	0.6104	0.078
Mof_C 	C 	0.4544	0.4942	0.6208	0.094
Mof_H 	H 	0.4147	0.5029	0.6429	-0.03
Mof_C 	C 	0.5214	0.4256	0.5791	0.038
Mof_H 	H 	0.5292	0.3862	0.5721	-0.023
Mof_N 	N 	0.6117	0.4004	0.5038	-0.221
Mof_N 	N 	0.6906	0.4897	0.5007	-0.225
Mof_N 	N 	0.4619	0.4393	0.6114	-0.294
Mof_O 	O 	0.5952	0.3128	0.4522	-0.468
Mof_O 	O 	0.7303	0.3461	0.4156	-0.553
Mof_O 	O 	0.8127	0.4633	0.4084	-0.517
Mof_O 	O 	0.816	0.5409	0.4475	-0.469
Mof_Zn	Zn	0.50907	0.82491	0.00154	1.239
Mof_C 	C 	0.6683	0.8515	0.9442	0.401
Mof_C 	C 	0.6749	0.9027	0.9707	-0.09
Mof_C 	C 	0.7222	0.9573	0.9688	-0.078
Mof_C 	C 	0.7895	0.9871	0.9397	0.383
Mof_C 	C 	0.6238	0.9529	0.0211	0.135
Mof_C 	C 	0.5702	0.9688	0.0566	-0.1
Mof_C 	C 	0.5575	0.0266	0.0679	0.037
Mof_H 	H 	0.5878	0.0568	0.0532	0.005
Mof_C 	C 	0.4985	0.0406	0.1018	-0.135
Mof_H 	H 	0.4906	0.0793	0.1104	0.078
Mof_C 	C 	0.4544	0.9942	0.1208	0.094
Mof_H 	H 	0.4147	0.0029	0.1429	-0.03
Mof_C 	C 	0.5214	0.9256	0.0791	0.039
Mof_H 	H 	0.5292	0.8862	0.0721	-0.023
Mof_N 	N 	0.6117	0.9004	0.0038	-0.221
Mof_N 	N 	0.6906	0.9897	0.0007	-0.225
Mof_N 	N 	0.4619	0.9393	0.1114	-0.294
Mof_O 	O 	0.5952	0.8128	0.9522	-0.468
Mof_O 	O 	0.7303	0.8461	0.9156	-0.553
Mof_O 	O 	0.8127	0.9633	0.9084	-0.517
Mof_O 	O 	0.816	0.0409	0.9475	-0.468
Mof_Zn	Zn	0.00907	0.32491	0.00154	1.239
Mof_C 	C 	0.1683	0.3515	0.9442	0.401
Mof_C 	C 	0.1749	0.4027	0.9707	-0.09
Mof_C 	C 	0.2222	0.4573	0.9688	-0.078
Mof_C 	C 	0.2895	0.4871	0.9397	0.385
Mof_C 	C 	0.1238	0.4529	0.0211	0.135
Mof_C 	C 	0.0702	0.4688	0.0566	-0.099
Mof_C 	C 	0.0575	0.5266	0.0679	0.036
Mof_H 	H 	0.0878	0.5568	0.0532	0.006
Mof_C 	C 	0.9985	0.5406	0.1018	-0.134
Mof_H 	H 	0.9906	0.5793	0.1104	0.077
Mof_C 	C 	0.9544	0.4942	0.1208	0.094
Mof_H 	H 	0.9147	0.5029	0.1429	-0.03
Mof_C 	C 	0.0214	0.4256	0.0791	0.038
Mof_H 	H 	0.0292	0.3862	0.0721	-0.023
Mof_N 	N 	0.1117	0.4004	0.0038	-0.221
Mof_N 	N 	0.1906	0.4897	0.0007	-0.225
Mof_N 	N 	0.9619	0.4393	0.1114	-0.294
Mof_O 	O 	0.0952	0.3128	0.9522	-0.468
Mof_O 	O 	0.2303	0.3461	0.9156	-0.553
Mof_O 	O 	0.3127	0.4633	0.9084	-0.517
Mof_O 	O 	0.316	0.5409	0.9475	-0.469
Mof_Zn	Zn	0.00907	0.82491	0.50154	1.24
Mof_C 	C 	0.1683	0.8515	0.4442	0.401
Mof_C 	C 	0.1749	0.9027	0.4707	-0.09
Mof_C 	C 	0.2222	0.9573	0.4688	-0.078
Mof_C 	C 	0.2895	0.9871	0.4397	0.385
Mof_C 	C 	0.1238	0.9529	0.5211	0.134
Mof_C 	C 	0.0702	0.9688	0.5566	-0.095
Mof_C 	C 	0.0575	0.0266	0.5679	0.03
Mof_H 	H 	0.0878	0.0568	0.5532	0.008
Mof_C 	C 	0.9985	0.0406	0.6018	-0.127
Mof_H 	H 	0.9906	0.0793	0.6104	0.075
Mof_C 	C 	0.9544	0.9942	0.6208	0.086
Mof_H 	H 	0.9147	0.0029	0.6429	-0.027
Mof_C 	C 	0.0214	0.9256	0.5791	0.038
Mof_H 	H 	0.0292	0.8862	0.5721	-0.023
Mof_N 	N 	0.1117	0.9004	0.5038	-0.221
Mof_N 	N 	0.1906	0.9897	0.5007	-0.225
Mof_N 	N 	0.9619	0.9393	0.6114	-0.293
Mof_O 	O 	0.0952	0.8128	0.4522	-0.468
Mof_O 	O 	0.2303	0.8461	0.4156	-0.553
Mof_O 	O 	0.3127	0.9633	0.4084	-0.517
Mof_O 	O 	0.316	0.0409	0.4475	-0.469
Mof_Zn	Zn	0.24093	0.42509	0.50154	1.239
Mof_C 	C 	0.0817	0.3985	0.4442	0.401
Mof_C 	C 	0.0751	0.3473	0.4707	-0.09
Mof_C 	C 	0.0278	0.2927	0.4688	-0.078
Mof_C 	C 	0.9605	0.2629	0.4397	0.385
Mof_C 	C 	0.1262	0.2971	0.5211	0.135
Mof_C 	C 	0.1798	0.2812	0.5566	-0.099
Mof_C 	C 	0.1925	0.2234	0.5679	0.037
Mof_H 	H 	0.1622	0.1932	0.5532	0.005
Mof_C 	C 	0.2515	0.2094	0.6018	-0.136
Mof_H 	H 	0.2594	0.1707	0.6104	0.078
Mof_C 	C 	0.2956	0.2558	0.6208	0.094
Mof_H 	H 	0.3353	0.2471	0.6429	-0.03
Mof_C 	C 	0.2286	0.3244	0.5791	0.038
Mof_H 	H 	0.2208	0.3638	0.5721	-0.023
Mof_N 	N 	0.1383	0.3496	0.5038	-0.221
Mof_N 	N 	0.0594	0.2603	0.5007	-0.225
Mof_N 	N 	0.2881	0.3107	0.6114	-0.294
Mof_O 	O 	0.1548	0.4372	0.4522	-0.468
Mof_O 	O 	0.0197	0.4039	0.4156	-0.553
Mof_O 	O 	0.9373	0.2867	0.4084	-0.517
Mof_O 	O 	0.934	0.2091	0.4475	-0.469
Mof_Zn	Zn	0.24093	0.92509	0.00154	1.239
Mof_C 	C 	0.0817	0.8985	0.9442	0.401
Mof_C 	C 	0.0751	0.8473	0.9707	-0.09
Mof_C 	C 	0.0278	0.7927	0.9688	-0.076
Mof_C 	C 	0.9605	0.7629	0.9397	0.383
Mof_C 	C 	0.1262	0.7971	0.0211	0.135
Mof_C 	C 	0.1798	0.7812	0.0566	-0.099
Mof_C 	C 	0.1925	0.7234	0.0679	0.037
Mof_H 	H 	0.1622	0.6932	0.0532	0.005
Mof_C 	C 	0.2515	0.7094	0.1018	-0.136
Mof_H 	H 	0.2594	0.6707	0.1104	0.078
Mof_C 	C 	0.2956	0.7558	0.1208	0.094
Mof_H 	H 	0.3353	0.7471	0.1429	-0.03
Mof_C 	C 	0.2286	0.8244	0.0791	0.039
Mof_H 	H 	0.2208	0.8638	0.0721	-0.023
Mof_N 	N 	0.1383	0.8496	0.0038	-0.221
Mof_N 	N 	0.0594	0.7603	0.0007	-0.225
Mof_N 	N 	0.2881	0.8107	0.1114	-0.294
Mof_O 	O 	0.1548	0.9372	0.9522	-0.468
Mof_O 	O 	0.0197	0.9039	0.9156	-0.552
Mof_O 	O 	0.9373	0.7867	0.9084	-0.517
Mof_O 	O 	0.934	0.7091	0.9475	-0.469
Mof_Zn	Zn	0.74093	0.42509	0.00154	1.239
Mof_C 	C 	0.5817	0.3985	0.9442	0.401
Mof_C 	C 	0.5751	0.3473	0.9707	-0.09
Mof_C 	C 	0.5278	0.2927	0.9688	-0.078
Mof_C 	C 	0.4605	0.2629	0.9397	0.385
Mof_C 	C 	0.6262	0.2971	0.0211	0.135
Mof_C 	C 	0.6798	0.2812	0.0566	-0.099
Mof_C 	C 	0.6925	0.2234	0.0679	0.037
Mof_H 	H 	0.6622	0.1932	0.0532	0.005
Mof_C 	C 	0.7515	0.2094	0.1018	-0.136
Mof_H 	H 	0.7594	0.1707	0.1104	0.078
Mof_C 	C 	0.7956	0.2558	0.1208	0.094
Mof_H 	H 	0.8353	0.2471	0.1429	-0.03
Mof_C 	C 	0.7286	0.3244	0.0791	0.039
Mof_H 	H 	0.7208	0.3638	0.0721	-0.023
Mof_N 	N 	0.6383	0.3496	0.0038	-0.221
Mof_N 	N 	0.5594	0.2603	0.0007	-0.225
Mof_N 	N 	0.7881	0.3107	0.1114	-0.294
Mof_O 	O 	0.6548	0.4372	0.9522	-0.468
Mof_O 	O 	0.5197	0.4039	0.9156	-0.553
Mof_O 	O 	0.4373	0.2867	0.9084	-0.517
Mof_O 	O 	0.434	0.2091	0.9475	-0.469
Mof_Zn	Zn	0.74093	0.92509	0.50154	1.239
Mof_C 	C 	0.5817	0.8985	0.4442	0.401
Mof_C 	C 	0.5751	0.8473	0.4707	-0.09
Mof_C 	C 	0.5278	0.7927	0.4688	-0.078
Mof_C 	C 	0.4605	0.7629	0.4397	0.385
Mof_C 	C 	0.6262	0.7971	0.5211	0.135
Mof_C 	C 	0.6798	0.7812	0.5566	-0.099
Mof_C 	C 	0.6925	0.7234	0.5679	0.037
Mof_H 	H 	0.6622	0.6932	0.5532	0.005
Mof_C 	C 	0.7515	0.7094	0.6018	-0.136
Mof_H 	H 	0.7594	0.6707	0.6104	0.078
Mof_C 	C 	0.7956	0.7558	0.6208	0.094
Mof_H 	H 	0.8353	0.7471	0.6429	-0.03
Mof_C 	C 	0.7286	0.8244	0.5791	0.038
Mof_H 	H 	0.7208	0.8638	0.5721	-0.023
Mof_N 	N 	0.6383	0.8496	0.5038	-0.221
Mof_N 	N 	0.5594	0.7603	0.5007	-0.225
Mof_N 	N 	0.7881	0.8107	0.6114	-0.294
Mof_O 	O 	0.6548	0.9372	0.4522	-0.468
Mof_O 	O 	0.5197	0.9039	0.4156	-0.553
Mof_O 	O 	0.4373	0.7867	0.4084	-0.517
Mof_O 	O 	0.434	0.7091	0.4475	-0.469
Mof_Zn	Zn	0.75907	0.67509	0.75154	1.239
Mof_C 	C 	0.9183	0.6485	0.6942	0.401
Mof_C 	C 	0.9249	0.5973	0.7207	-0.09
Mof_C 	C 	0.9722	0.5427	0.7188	-0.078
Mof_C 	C 	0.0395	0.5129	0.6897	0.385
Mof_C 	C 	0.8738	0.5471	0.7711	0.135
Mof_C 	C 	0.8202	0.5312	0.8066	-0.099
Mof_C 	C 	0.8075	0.4734	0.8179	0.037
Mof_H 	H 	0.8378	0.4432	0.8032	0.005
Mof_C 	C 	0.7485	0.4594	0.8518	-0.136
Mof_H 	H 	0.7406	0.4207	0.8604	0.078
Mof_C 	C 	0.7044	0.5058	0.8708	0.094
Mof_H 	H 	0.6647	0.4971	0.8929	-0.03
Mof_C 	C 	0.7714	0.5744	0.8291	0.038
Mof_H 	H 	0.7792	0.6138	0.8221	-0.023
Mof_N 	N 	0.8617	0.5996	0.7538	-0.221
Mof_N 	N 	0.9406	0.5103	0.7507	-0.225
Mof_N 	N 	0.7119	0.5607	0.8614	-0.294
Mof_O 	O 	0.8452	0.6872	0.7022	-0.468
Mof_O 	O 	0.9803	0.6539	0.6656	-0.553
Mof_O 	O 	0.0627	0.5367	0.6584	-0.517
Mof_O 	O 	0.066	0.4591	0.6975	-0.469
Mof_Zn	Zn	0.75907	0.17509	0.25154	1.239
Mof_C 	C 	0.9183	0.1485	0.1942	0.401
Mof_C 	C 	0.9249	0.0973	0.2207	-0.09
Mof_C 	C 	0.9722	0.0427	0.2188	-0.076
Mof_C 	C 	0.0395	0.0129	0.1897	0.381
Mof_C 	C 	0.8738	0.0471	0.2711	0.135
Mof_C 	C 	0.8202	0.0312	0.3066	-0.098
Mof_C 	C 	0.8075	0.9734	0.3179	0.036
Mof_H 	H 	0.8378	0.9432	0.3032	0.005
Mof_C 	C 	0.7485	0.9594	0.3518	-0.137
Mof_H 	H 	0.7406	0.9207	0.3604	0.078
Mof_C 	C 	0.7044	0.0058	0.3708	0.096
Mof_H 	H 	0.6647	0.9971	0.3929	-0.031
Mof_C 	C 	0.7714	0.0744	0.3291	0.038
Mof_H 	H 	0.7792	0.1138	0.3221	-0.023
Mof_N 	N 	0.8617	0.0996	0.2538	-0.221
Mof_N 	N 	0.9406	0.0103	0.2507	-0.225
Mof_N 	N 	0.7119	0.0607	0.3614	-0.294
Mof_O 	O 	0.8452	0.1872	0.2022	-0.468
Mof_O 	O 	0.9803	0.1539	0.1656	-0.552
Mof_O 	O 	0.0627	0.0367	0.1584	-0.517
Mof_O 	O 	0.066	0.9591	0.1975	-0.468
Mof_Zn	Zn	0.25907	0.67509	0.25154	1.239
Mof_C 	C 	0.4183	0.6485	0.1942	0.401
Mof_C 	C 	0.4249	0.5973	0.2207	-0.09
Mof_C 	C 	0.4722	0.5427	0.2188	-0.078
Mof_C 	C 	0.5395	0.5129	0.1897	0.385
Mof_C 	C 	0.3738	0.5471	0.2711	0.135
Mof_C 	C 	0.3202	0.5312	0.3066	-0.099
Mof_C 	C 	0.3075	0.4734	0.3179	0.037
Mof_H 	H 	0.3378	0.4432	0.3032	0.005
Mof_C 	C 	0.2485	0.4594	0.3518	-0.136
Mof_H 	H 	0.2406	0.4207	0.3604	0.078
Mof_C 	C 	0.2044	0.5058	0.3708	0.094
Mof_H 	H 	0.1647	0.4971	0.3929	-0.03
Mof_C 	C 	0.2714	0.5744	0.3291	0.038
Mof_H 	H 	0.2792	0.6138	0.3221	-0.023
Mof_N 	N 	0.3617	0.5996	0.2538	-0.221
Mof_N 	N 	0.4406	0.5103	0.2507	-0.225
Mof_N 	N 	0.2119	0.5607	0.3614	-0.294
Mof_O 	O 	0.3452	0.6872	0.2022	-0.468
Mof_O 	O 	0.4803	0.6539	0.1656	-0.553
Mof_O 	O 	0.5627	0.5367	0.1584	-0.517
Mof_O 	O 	0.566	0.4591	0.1975	-0.469
Mof_Zn	Zn	0.25907	0.17509	0.75154	1.239
Mof_C 	C 	0.4183	0.1485	0.6942	0.401
Mof_C 	C 	0.4249	0.0973	0.7207	-0.09
Mof_C 	C 	0.4722	0.0427	0.7188	-0.078
Mof_C 	C 	0.5395	0.0129	0.6897	0.384
Mof_C 	C 	0.3738	0.0471	0.7711	0.135
Mof_C 	C 	0.3202	0.0312	0.8066	-0.099
Mof_C 	C 	0.3075	0.9734	0.8179	0.036
Mof_H 	H 	0.3378	0.9432	0.8032	0.006
Mof_C 	C 	0.2485	0.9594	0.8518	-0.132
Mof_H 	H 	0.2406	0.9207	0.8604	0.076
Mof_C 	C 	0.2044	0.0058	0.8708	0.089
Mof_H 	H 	0.1647	0.9971	0.8929	-0.028
Mof_C 	C 	0.2714	0.0744	0.8291	0.038
Mof_H 	H 	0.2792	0.1138	0.8221	-0.023
Mof_N 	N 	0.3617	0.0996	0.7538	-0.221
Mof_N 	N 	0.4406	0.0103	0.7507	-0.225
Mof_N 	N 	0.2119	0.0607	0.8614	-0.293
Mof_O 	O 	0.3452	0.1872	0.7022	-0.468
Mof_O 	O 	0.4803	0.1539	0.6656	-0.553
Mof_O 	O 	0.5627	0.0367	0.6584	-0.517
Mof_O 	O 	0.566	0.9591	0.6975	-0.469
Mof_Zn	Zn	0.49093	0.57491	0.75154	1.239
Mof_C 	C 	0.3317	0.6015	0.6942	0.401
Mof_C 	C 	0.3251	0.6527	0.7207	-0.09
Mof_C 	C 	0.2778	0.7073	0.7188	-0.078
Mof_C 	C 	0.2105	0.7371	0.6897	0.385
Mof_C 	C 	0.3762	0.7029	0.7711	0.135
Mof_C 	C 	0.4298	0.7188	0.8066	-0.099
Mof_C 	C 	0.4425	0.7766	0.8179	0.037
Mof_H 	H 	0.4122	0.8068	0.8032	0.005
Mof_C 	C 	0.5015	0.7906	0.8518	-0.136
Mof_H 	H 	0.5094	0.8293	0.8604	0.078
Mof_C 	C 	0.5456	0.7442	0.8708	0.094
Mof_H 	H 	0.5853	0.7529	0.8929	-0.03
Mof_C 	C 	0.4786	0.6756	0.8291	0.038
Mof_H 	H 	0.4708	0.6362	0.8221	-0.023
Mof_N 	N 	0.3883	0.6504	0.7538	-0.221
Mof_N 	N 	0.3094	0.7397	0.7507	-0.225
Mof_N 	N 	0.5381	0.6893	0.8614	-0.294
Mof_O 	O 	0.4048	0.5628	0.7022	-0.468
Mof_O 	O 	0.2697	0.5961	0.6656	-0.553
Mof_O 	O 	0.1873	0.7133	0.6584	-0.517
Mof_O 	O 	0.184	0.7909	0.6975	-0.469
Mof_Zn	Zn	0.49093	0.07491	0.25154	1.239
Mof_C 	C 	0.3317	0.1015	0.1942	0.401
Mof_C 	C 	0.3251	0.1527	0.2207	-0.09
Mof_C 	C 	0.2778	0.2073	0.2188	-0.078
Mof_C 	C 	0.2105	0.2371	0.1897	0.384
Mof_C 	C 	0.3762	0.2029	0.2711	0.135
Mof_C 	C 	0.4298	0.2188	0.3066	-0.099
Mof_C 	C 	0.4425	0.2766	0.3179	0.037
Mof_H 	H 	0.4122	0.3068	0.3032	0.005
Mof_C 	C 	0.5015	0.2906	0.3518	-0.136
Mof_H 	H 	0.5094	0.3293	0.3604	0.078
Mof_C 	C 	0.5456	0.2442	0.3708	0.094
Mof_H 	H 	0.5853	0.2529	0.3929	-0.03
Mof_C 	C 	0.4786	0.1756	0.3291	0.038
Mof_H 	H 	0.4708	0.1362	0.3221	-0.023
Mof_N 	N 	0.3883	0.1504	0.2538	-0.221
Mof_N 	N 	0.3094	0.2397	0.2507	-0.225
Mof_N 	N 	0.5381	0.1893	0.3614	-0.294
Mof_O 	O 	0.4048	0.0628	0.2022	-0.468
Mof_O 	O 	0.2697	0.0961	0.1656	-0.553
Mof_O 	O 	0.1873	0.2133	0.1584	-0.517
Mof_O 	O 	0.184	0.2909	0.1975	-0.469
Mof_Zn	Zn	0.99093	0.57491	0.25154	1.239
Mof_C 	C 	0.8317	0.6015	0.1942	0.401
Mof_C 	C 	0.8251	0.6527	0.2207	-0.09
Mof_C 	C 	0.7778	0.7073	0.2188	-0.078
Mof_C 	C 	0.7105	0.7371	0.1897	0.385
Mof_C 	C 	0.8762	0.7029	0.2711	0.135
Mof_C 	C 	0.9298	0.7188	0.3066	-0.099
Mof_C 	C 	0.9425	0.7766	0.3179	0.036
Mof_H 	H 	0.9122	0.8068	0.3032	0.006
Mof_C 	C 	0.0015	0.7906	0.3518	-0.134
Mof_H 	H 	0.0094	0.8293	0.3604	0.077
Mof_C 	C 	0.0456	0.7442	0.3708	0.094
Mof_H 	H 	0.0853	0.7529	0.3929	-0.03
Mof_C 	C 	0.9786	0.6756	0.3291	0.038
Mof_H 	H 	0.9708	0.6362	0.3221	-0.023
Mof_N 	N 	0.8883	0.6504	0.2538	-0.221
Mof_N 	N 	0.8094	0.7397	0.2507	-0.225
Mof_N 	N 	0.0381	0.6893	0.3614	-0.294
Mof_O 	O 	0.9048	0.5628	0.2022	-0.468
Mof_O 	O 	0.7697	0.5961	0.1656	-0.553
Mof_O 	O 	0.6873	0.7133	0.1584	-0.517
Mof_O 	O 	0.684	0.7909	0.1975	-0.469
Mof_Zn	Zn	0.99093	0.07491	0.75154	1.239
Mof_C 	C 	0.8317	0.1015	0.6942	0.401
Mof_C 	C 	0.8251	0.1527	0.7207	-0.09
Mof_C 	C 	0.7778	0.2073	0.7188	-0.078
Mof_C 	C 	0.7105	0.2371	0.6897	0.385
Mof_C 	C 	0.8762	0.2029	0.7711	0.135
Mof_C 	C 	0.9298	0.2188	0.8066	-0.1
Mof_C 	C 	0.9425	0.2766	0.8179	0.038
Mof_H 	H 	0.9122	0.3068	0.8032	0.005
Mof_C 	C 	0.0015	0.2906	0.8518	-0.136
Mof_H 	H 	0.0094	0.3293	0.8604	0.078
Mof_C 	C 	0.0456	0.2442	0.8708	0.094
Mof_H 	H 	0.0853	0.2529	0.8929	-0.03
Mof_C 	C 	0.9786	0.1756	0.8291	0.039
Mof_H 	H 	0.9708	0.1362	0.8221	-0.023
Mof_N 	N 	0.8883	0.1504	0.7538	-0.221
Mof_N 	N 	0.8094	0.2397	0.7507	-0.225
Mof_N 	N 	0.0381	0.1893	0.8614	-0.295
Mof_O 	O 	0.9048	0.0628	0.7022	-0.468
Mof_O 	O 	0.7697	0.0961	0.6656	-0.553
Mof_O 	O 	0.6873	0.2133	0.6584	-0.517
Mof_O 	O 	0.684	0.2909	0.6975	-0.469
Mof_Zn	Zn	0.49093	0.67509	0.49846	1.239
Mof_C 	C 	0.3317	0.6485	0.5558	0.401
Mof_C 	C 	0.3251	0.5973	0.5293	-0.09
Mof_C 	C 	0.2778	0.5427	0.5312	-0.078
Mof_C 	C 	0.2105	0.5129	0.5603	0.385
Mof_C 	C 	0.3762	0.5471	0.4789	0.135
Mof_C 	C 	0.4298	0.5312	0.4434	-0.099
Mof_C 	C 	0.4425	0.4734	0.4321	0.037
Mof_H 	H 	0.4122	0.4432	0.4468	0.005
Mof_C 	C 	0.5015	0.4594	0.3982	-0.136
Mof_H 	H 	0.5094	0.4207	0.3896	0.078
Mof_C 	C 	0.5456	0.5058	0.3792	0.094
Mof_H 	H 	0.5853	0.4971	0.3571	-0.03
Mof_C 	C 	0.4786	0.5744	0.4209	0.038
Mof_H 	H 	0.4708	0.6138	0.4279	-0.023
Mof_N 	N 	0.3883	0.5996	0.4962	-0.221
Mof_N 	N 	0.3094	0.5103	0.4993	-0.225
Mof_N 	N 	0.5381	0.5607	0.3886	-0.294
Mof_O 	O 	0.4048	0.6872	0.5478	-0.468
Mof_O 	O 	0.2697	0.6539	0.5844	-0.553
Mof_O 	O 	0.1873	0.5367	0.5916	-0.517
Mof_O 	O 	0.184	0.4591	0.5525	-0.469
Mof_Zn	Zn	0.49093	0.17509	0.99846	1.239
Mof_C 	C 	0.3317	0.1485	0.0558	0.401
Mof_C 	C 	0.3251	0.0973	0.0293	-0.09
Mof_C 	C 	0.2778	0.0427	0.0312	-0.078
Mof_C 	C 	0.2105	0.0129	0.0603	0.383
Mof_C 	C 	0.3762	0.0471	0.9789	0.135
Mof_C 	C 	0.4298	0.0312	0.9434	-0.1
Mof_C 	C 	0.4425	0.9734	0.9321	0.037
Mof_H 	H 	0.4122	0.9432	0.9468	0.005
Mof_C 	C 	0.5015	0.9594	0.8982	-0.135
Mof_H 	H 	0.5094	0.9207	0.8896	0.078
Mof_C 	C 	0.5456	0.0058	0.8792	0.094
Mof_H 	H 	0.5853	0.9971	0.8571	-0.03
Mof_C 	C 	0.4786	0.0744	0.9209	0.039
Mof_H 	H 	0.4708	0.1138	0.9279	-0.023
Mof_N 	N 	0.3883	0.0996	0.9962	-0.221
Mof_N 	N 	0.3094	0.0103	0.9993	-0.225
Mof_N 	N 	0.5381	0.0607	0.8886	-0.294
Mof_O 	O 	0.4048	0.1872	0.0478	-0.468
Mof_O 	O 	0.2697	0.1539	0.0844	-0.553
Mof_O 	O 	0.1873	0.0367	0.0916	-0.517
Mof_O 	O 	0.184	0.9591	0.0525	-0.468
Mof_Zn	Zn	0.99093	0.67509	0.99846	1.239
Mof_C 	C 	0.8317	0.6485	0.0558	0.401
Mof_C 	C 	0.8251	0.5973	0.0293	-0.09
Mof_C 	C 	0.7778	0.5427	0.0312	-0.078
Mof_C 	C 	0.7105	0.5129	0.0603	0.385
Mof_C 	C 	0.8762	0.5471	0.9789	0.135
Mof_C 	C 	0.9298	0.5312	0.9434	-0.099
Mof_C 	C 	0.9425	0.4734	0.9321	0.036
Mof_H 	H 	0.9122	0.4432	0.9468	0.006
Mof_C 	C 	0.0015	0.4594	0.8982	-0.134
Mof_H 	H 	0.0094	0.4207	0.8896	0.077
Mof_C 	C 	0.0456	0.5058	0.8792	0.094
Mof_H 	H 	0.0853	0.4971	0.8571	-0.03
Mof_C 	C 	0.9786	0.5744	0.9209	0.038
Mof_H 	H 	0.9708	0.6138	0.9279	-0.023
Mof_N 	N 	0.8883	0.5996	0.9962	-0.221
Mof_N 	N 	0.8094	0.5103	0.9993	-0.225
Mof_N 	N 	0.0381	0.5607	0.8886	-0.294
Mof_O 	O 	0.9048	0.6872	0.0478	-0.468
Mof_O 	O 	0.7697	0.6539	0.0844	-0.553
Mof_O 	O 	0.6873	0.5367	0.0916	-0.517
Mof_O 	O 	0.684	0.4591	0.0525	-0.469
Mof_Zn	Zn	0.99093	0.17509	0.49846	1.24
Mof_C 	C 	0.8317	0.1485	0.5558	0.401
Mof_C 	C 	0.8251	0.0973	0.5293	-0.09
Mof_C 	C 	0.7778	0.0427	0.5312	-0.078
Mof_C 	C 	0.7105	0.0129	0.5603	0.385
Mof_C 	C 	0.8762	0.0471	0.4789	0.134
Mof_C 	C 	0.9298	0.0312	0.4434	-0.095
Mof_C 	C 	0.9425	0.9734	0.4321	0.03
Mof_H 	H 	0.9122	0.9432	0.4468	0.008
Mof_C 	C 	0.0015	0.9594	0.3982	-0.127
Mof_H 	H 	0.0094	0.9207	0.3896	0.075
Mof_C 	C 	0.0456	0.0058	0.3792	0.086
Mof_H 	H 	0.0853	0.9971	0.3571	-0.027
Mof_C 	C 	0.9786	0.0744	0.4209	0.038
Mof_H 	H 	0.9708	0.1138	0.4279	-0.023
Mof_N 	N 	0.8883	0.0996	0.4962	-0.221
Mof_N 	N 	0.8094	0.0103	0.4993	-0.225
Mof_N 	N 	0.0381	0.0607	0.3886	-0.293
Mof_O 	O 	0.9048	0.1872	0.5478	-0.468
Mof_O 	O 	0.7697	0.1539	0.5844	-0.553
Mof_O 	O 	0.6873	0.0367	0.5916	-0.517
Mof_O 	O 	0.684	0.9591	0.5525	-0.469
Mof_Zn	Zn	0.75907	0.57491	0.49846	1.239
Mof_C 	C 	0.9183	0.6015	0.5558	0.401
Mof_C 	C 	0.9249	0.6527	0.5293	-0.09
Mof_C 	C 	0.9722	0.7073	0.5312	-0.078
Mof_C 	C 	0.0395	0.7371	0.5603	0.385
Mof_C 	C 	0.8738	0.7029	0.4789	0.135
Mof_C 	C 	0.8202	0.7188	0.4434	-0.099
Mof_C 	C 	0.8075	0.7766	0.4321	0.037
Mof_H 	H 	0.8378	0.8068	0.4468	0.005
Mof_C 	C 	0.7485	0.7906	0.3982	-0.136
Mof_H 	H 	0.7406	0.8293	0.3896	0.078
Mof_C 	C 	0.7044	0.7442	0.3792	0.094
Mof_H 	H 	0.6647	0.7529	0.3571	-0.03
Mof_C 	C 	0.7714	0.6756	0.4209	0.038
Mof_H 	H 	0.7792	0.6362	0.4279	-0.023
Mof_N 	N 	0.8617	0.6504	0.4962	-0.221
Mof_N 	N 	0.9406	0.7397	0.4993	-0.225
Mof_N 	N 	0.7119	0.6893	0.3886	-0.294
Mof_O 	O 	0.8452	0.5628	0.5478	-0.468
Mof_O 	O 	0.9803	0.5961	0.5844	-0.553
Mof_O 	O 	0.0627	0.7133	0.5916	-0.517
Mof_O 	O 	0.066	0.7909	0.5525	-0.469
Mof_Zn	Zn	0.75907	0.07491	0.99846	1.239
Mof_C 	C 	0.9183	0.1015	0.0558	0.401
Mof_C 	C 	0.9249	0.1527	0.0293	-0.09
Mof_C 	C 	0.9722	0.2073	0.0312	-0.076
Mof_C 	C 	0.0395	0.2371	0.0603	0.383
Mof_C 	C 	0.8738	0.2029	0.9789	0.135
Mof_C 	C 	0.8202	0.2188	0.9434	-0.099
Mof_C 	C 	0.8075	0.2766	0.9321	0.037
Mof_H 	H 	0.8378	0.3068	0.9468	0.005
Mof_C 	C 	0.7485	0.2906	0.8982	-0.136
Mof_H 	H 	0.7406	0.3293	0.8896	0.078
Mof_C 	C 	0.7044	0.2442	0.8792	0.094
Mof_H 	H 	0.6647	0.2529	0.8571	-0.03
Mof_C 	C 	0.7714	0.1756	0.9209	0.039
Mof_H 	H 	0.7792	0.1362	0.9279	-0.023
Mof_N 	N 	0.8617	0.1504	0.9962	-0.221
Mof_N 	N 	0.9406	0.2397	0.9993	-0.225
Mof_N 	N 	0.7119	0.1893	0.8886	-0.294
Mof_O 	O 	0.8452	0.0628	0.0478	-0.468
Mof_O 	O 	0.9803	0.0961	0.0844	-0.552
Mof_O 	O 	0.0627	0.2133	0.0916	-0.517
Mof_O 	O 	0.066	0.2909	0.0525	-0.469
Mof_Zn	Zn	0.25907	0.57491	0.99846	1.239
Mof_C 	C 	0.4183	0.6015	0.0558	0.401
Mof_C 	C 	0.4249	0.6527	0.0293	-0.09
Mof_C 	C 	0.4722	0.7073	0.0312	-0.078
Mof_C 	C 	0.5395	0.7371	0.0603	0.385
Mof_C 	C 	0.3738	0.7029	0.9789	0.135
Mof_C 	C 	0.3202	0.7188	0.9434	-0.099
Mof_C 	C 	0.3075	0.7766	0.9321	0.037
Mof_H 	H 	0.3378	0.8068	0.9468	0.005
Mof_C 	C 	0.2485	0.7906	0.8982	-0.136
Mof_H 	H 	0.2406	0.8293	0.8896	0.078
Mof_C 	C 	0.2044	0.7442	0.8792	0.094
Mof_H 	H 	0.1647	0.7529	0.8571	-0.03
Mof_C 	C 	0.2714	0.6756	0.9209	0.039
Mof_H 	H 	0.2792	0.6362	0.9279	-0.023
Mof_N 	N 	0.3617	0.6504	0.9962	-0.221
Mof_N 	N 	0.4406	0.7397	0.9993	-0.225
Mof_N 	N 	0.2119	0.6893	0.8886	-0.294
Mof_O 	O 	0.3452	0.5628	0.0478	-0.468
Mof_O 	O 	0.4803	0.5961	0.0844	-0.553
Mof_O 	O 	0.5627	0.7133	0.0916	-0.517
Mof_O 	O 	0.566	0.7909	0.0525	-0.469
Mof_Zn	Zn	0.25907	0.07491	0.49846	1.239
Mof_C 	C 	0.4183	0.1015	0.5558	0.401
Mof_C 	C 	0.4249	0.1527	0.5293	-0.09
Mof_C 	C 	0.4722	0.2073	0.5312	-0.078
Mof_C 	C 	0.5395	0.2371	0.5603	0.385
Mof_C 	C 	0.3738	0.2029	0.4789	0.135
Mof_C 	C 	0.3202	0.2188	0.4434	-0.099
Mof_C 	C 	0.3075	0.2766	0.4321	0.037
Mof_H 	H 	0.3378	0.3068	0.4468	0.005
Mof_C 	C 	0.2485	0.2906	0.3982	-0.136
Mof_H 	H 	0.2406	0.3293	0.3896	0.078
Mof_C 	C 	0.2044	0.2442	0.3792	0.094
Mof_H 	H 	0.1647	0.2529	0.3571	-0.03
Mof_C 	C 	0.2714	0.1756	0.4209	0.038
Mof_H 	H 	0.2792	0.1362	0.4279	-0.023
Mof_N 	N 	0.3617	0.1504	0.4962	-0.221
Mof_N 	N 	0.4406	0.2397	0.4993	-0.225
Mof_N 	N 	0.2119	0.1893	0.3886	-0.294
Mof_O 	O 	0.3452	0.0628	0.5478	-0.468
Mof_O 	O 	0.4803	0.0961	0.5844	-0.553
Mof_O 	O 	0.5627	0.2133	0.5916	-0.517
Mof_O 	O 	0.566	0.2909	0.5525	-0.469
Mof_Sm	Sm	0.875	0.375	0.375	2.701
Mof_Sm	Sm	0.875	0.875	0.875	2.697
Mof_Sm	Sm	0.375	0.375	0.875	2.701
Mof_Sm	Sm	0.375	0.875	0.375	2.701
Mof_Sm	Sm	0.125	0.625	0.625	2.701
Mof_Sm	Sm	0.125	0.125	0.125	2.697
Mof_Sm	Sm	0.625	0.625	0.125	2.701
Mof_Sm	Sm	0.625	0.125	0.625	2.701
Mof_Zn	Zn	0.375	0.375	0.10846	1.114
Mof_Cl	Cl	0.375	0.375	0.2428	-0.882
Mof_Zn	Zn	0.375	0.875	0.60846	1.114
Mof_Cl	Cl	0.375	0.875	0.7428	-0.882
Mof_Zn	Zn	0.875	0.375	0.60846	1.114
Mof_Cl	Cl	0.875	0.375	0.7428	-0.882
Mof_Zn	Zn	0.875	0.875	0.10846	1.114
Mof_Cl	Cl	0.875	0.875	0.2428	-0.883
Mof_Zn	Zn	0.375	0.375	0.64154	1.114
Mof_Cl	Cl	0.375	0.375	0.5072	-0.882
Mof_Zn	Zn	0.375	0.875	0.14154	1.114
Mof_Cl	Cl	0.375	0.875	0.0072	-0.882
Mof_Zn	Zn	0.875	0.375	0.14154	1.114
Mof_Cl	Cl	0.875	0.375	0.0072	-0.881
Mof_Zn	Zn	0.875	0.875	0.64154	1.114
Mof_Cl	Cl	0.875	0.875	0.5072	-0.883
Mof_Zn	Zn	0.625	0.625	0.89154	1.114
Mof_Cl	Cl	0.625	0.625	0.7572	-0.882
Mof_Zn	Zn	0.625	0.125	0.39154	1.114
Mof_Cl	Cl	0.625	0.125	0.2572	-0.882
Mof_Zn	Zn	0.125	0.625	0.39154	1.114
Mof_Cl	Cl	0.125	0.625	0.2572	-0.882
Mof_Zn	Zn	0.125	0.125	0.89154	1.114
Mof_Cl	Cl	0.125	0.125	0.7572	-0.883
Mof_Zn	Zn	0.625	0.625	0.35846	1.114
Mof_Cl	Cl	0.625	0.625	0.4928	-0.882
Mof_Zn	Zn	0.625	0.125	0.85846	1.114
Mof_Cl	Cl	0.625	0.125	0.9928	-0.882
Mof_Zn	Zn	0.125	0.625	0.85846	1.114
Mof_Cl	Cl	0.125	0.625	0.9928	-0.881
Mof_Zn	Zn	0.125	0.125	0.35846	1.114
Mof_Cl	Cl	0.125	0.125	0.4928	-0.883
_end
