# CIF file generated by openbabel 3.1.0, see https://openbabel.org
data_I
_chemical_name_common 'image0'
_cell_length_a 26.1535
_cell_length_b 13.6168
_cell_length_c 17.1807
_cell_angle_alpha 90
_cell_angle_beta 126.056
_cell_angle_gamma 90
_space_group_name_H-M_alt 'P 1'
_space_group_name_Hall 'P 1'
loop_
    _symmetry_equiv_pos_as_xyz
    x,y,z
loop_
    _atom_site_label
    _atom_site_type_symbol
    _atom_site_fract_x
    _atom_site_fract_y
    _atom_site_fract_z
    _atom_site_occupancy
    Co1      Co       0.12292    0.22335    0.18843    1.000
    O1       O        0.11890    0.35330    0.11120    1.000
    O2       O        0.09760    0.36910    0.21460    1.000
    N1       N        0.71950    0.25530    0.80350    1.000
    N2       N        0.02610    0.19640    0.07530    1.000
    N3       N        0.92510    0.15450    0.00050    1.000
    N4       N        0.85030    0.87810    0.87090    1.000
    N5       N        0.81160    0.19100    0.91990    1.000
    N6       N        0.88520    0.13930    0.21670    1.000
    N7       N        0.87490    0.10540    0.08170    1.000
    N8       N        0.84640    0.01600    0.93560    1.000
    C1       C        0.08220    0.51140    0.11940    1.000
    H1       H        0.06820    0.54160    0.15630    1.000
    H2       H        0.11990    0.54790    0.13470    1.000
    C2       C        0.03060    0.52110    0.01420    1.000
    H3       H        0.02440    0.59160    0.99650    1.000
    H4       H        0.04380    0.48770    0.97740    1.000
    C3       C        0.81630    0.29250    0.93040    1.000
    H5       H        0.85240    0.32870    0.97870    1.000
    C4       C        0.98150    0.16640    0.08490    1.000
    H6       H        0.98900    0.15480    0.14540    1.000
    C5       C        0.93430    0.18200    0.93220    1.000
    H7       H        0.90300    0.18350    0.86450    1.000
    C6       C        0.75190    0.17560    0.84100    1.000
    H8       H        0.73530    0.11220    0.81550    1.000
    C7       C        0.87650    0.96460    0.90700    1.000
    H9       H        0.91260    0.98800    0.91210    1.000
    C8       C        0.99530    0.20630    0.97850    1.000
    H10      H        0.01430    0.22740    0.94830    1.000
    C9       C        0.76050    0.32920    0.85990    1.000
    H11      H        0.75040    0.39720    0.85000    1.000
    C10      C        0.86670    0.17160    0.13180    1.000
    H12      H        0.84940    0.23510    0.10810    1.000
    C11      C        0.79740    0.95620    0.91690    1.000
    H13      H        0.76740    0.97100    0.92960    1.000
    C12      C        0.90670    0.04620    0.22240    1.000
    H14      H        0.92370    0.00320    0.27590    1.000
    C13      C        0.90020    0.02480    0.14040    1.000
    H15      H        0.91120    0.96450    0.12590    1.000
    C14      C        0.80060    0.87260    0.87720    1.000
    H16      H        0.77260    0.81840    0.85670    1.000
    C15      C        0.10070    0.40430    0.15090    1.000
    B1       B        0.86420    0.11730    0.98370    1.000
    Co2      Co       0.62292    0.72335    0.18843    1.000
    O3       O        0.61890    0.85330    0.11120    1.000
    O4       O        0.59760    0.86910    0.21460    1.000
    N9       N        0.21950    0.75530    0.80350    1.000
    N10      N        0.52610    0.69640    0.07530    1.000
    N11      N        0.42510    0.65450    0.00050    1.000
    N12      N        0.35030    0.37810    0.87090    1.000
    N13      N        0.31160    0.69100    0.91990    1.000
    N14      N        0.38520    0.63930    0.21670    1.000
    N15      N        0.37490    0.60540    0.08170    1.000
    N16      N        0.34640    0.51600    0.93560    1.000
    C16      C        0.58220    0.01140    0.11940    1.000
    H17      H        0.56820    0.04160    0.15630    1.000
    H18      H        0.61990    0.04790    0.13470    1.000
    C17      C        0.53060    0.02110    0.01420    1.000
    H19      H        0.52440    0.09160    0.99650    1.000
    H20      H        0.54380    0.98770    0.97740    1.000
    C18      C        0.31630    0.79250    0.93040    1.000
    H21      H        0.35240    0.82870    0.97870    1.000
    C19      C        0.48150    0.66640    0.08490    1.000
    H22      H        0.48900    0.65480    0.14540    1.000
    C20      C        0.43430    0.68200    0.93220    1.000
    H23      H        0.40300    0.68350    0.86450    1.000
    C21      C        0.25190    0.67560    0.84100    1.000
    H24      H        0.23530    0.61220    0.81550    1.000
    C22      C        0.37650    0.46460    0.90700    1.000
    H25      H        0.41260    0.48800    0.91210    1.000
    C23      C        0.49530    0.70630    0.97850    1.000
    H26      H        0.51430    0.72740    0.94830    1.000
    C24      C        0.26050    0.82920    0.85990    1.000
    H27      H        0.25040    0.89720    0.85000    1.000
    C25      C        0.36670    0.67160    0.13180    1.000
    H28      H        0.34940    0.73510    0.10810    1.000
    C26      C        0.29740    0.45620    0.91690    1.000
    H29      H        0.26740    0.47100    0.92960    1.000
    C27      C        0.40670    0.54620    0.22240    1.000
    H30      H        0.42370    0.50320    0.27590    1.000
    C28      C        0.40020    0.52480    0.14040    1.000
    H31      H        0.41120    0.46450    0.12590    1.000
    C29      C        0.30060    0.37260    0.87720    1.000
    H32      H        0.27260    0.31840    0.85670    1.000
    C30      C        0.60070    0.90430    0.15090    1.000
    B2       B        0.36420    0.61730    0.98370    1.000
    Co3      Co       0.87708    0.22335    0.31157    1.000
    O5       O        0.88110    0.35330    0.38880    1.000
    O6       O        0.90240    0.36910    0.28540    1.000
    N17      N        0.28050    0.25530    0.69650    1.000
    N18      N        0.97390    0.19640    0.42470    1.000
    N19      N        0.07490    0.15450    0.49950    1.000
    N20      N        0.14970    0.87810    0.62910    1.000
    N21      N        0.18840    0.19100    0.58010    1.000
    N22      N        0.11480    0.13930    0.28330    1.000
    N23      N        0.12510    0.10540    0.41830    1.000
    N24      N        0.15360    0.01600    0.56440    1.000
    C31      C        0.91780    0.51140    0.38060    1.000
    H33      H        0.93180    0.54160    0.34370    1.000
    H34      H        0.88010    0.54790    0.36530    1.000
    C32      C        0.96940    0.52110    0.48580    1.000
    H35      H        0.97560    0.59160    0.50350    1.000
    H36      H        0.95620    0.48770    0.52260    1.000
    C33      C        0.18370    0.29250    0.56960    1.000
    H37      H        0.14760    0.32870    0.52130    1.000
    C34      C        0.01850    0.16640    0.41510    1.000
    H38      H        0.01100    0.15480    0.35460    1.000
    C35      C        0.06570    0.18200    0.56780    1.000
    H39      H        0.09700    0.18350    0.63550    1.000
    C36      C        0.24810    0.17560    0.65900    1.000
    H40      H        0.26470    0.11220    0.68450    1.000
    C37      C        0.12350    0.96460    0.59300    1.000
    H41      H        0.08740    0.98800    0.58790    1.000
    C38      C        0.00470    0.20630    0.52150    1.000
    H42      H        0.98570    0.22740    0.55170    1.000
    C39      C        0.23950    0.32920    0.64010    1.000
    H43      H        0.24960    0.39720    0.65000    1.000
    C40      C        0.13330    0.17160    0.36820    1.000
    H44      H        0.15060    0.23510    0.39190    1.000
    C41      C        0.20260    0.95620    0.58310    1.000
    H45      H        0.23260    0.97100    0.57040    1.000
    C42      C        0.09330    0.04620    0.27760    1.000
    H46      H        0.07630    0.00320    0.22410    1.000
    C43      C        0.09980    0.02480    0.35960    1.000
    H47      H        0.08880    0.96450    0.37410    1.000
    C44      C        0.19940    0.87260    0.62280    1.000
    H48      H        0.22740    0.81840    0.64330    1.000
    C45      C        0.89930    0.40430    0.34910    1.000
    B3       B        0.13580    0.11730    0.51630    1.000
    Co4      Co       0.37708    0.72335    0.31157    1.000
    O7       O        0.38110    0.85330    0.38880    1.000
    O8       O        0.40240    0.86910    0.28540    1.000
    N25      N        0.78050    0.75530    0.69650    1.000
    N26      N        0.47390    0.69640    0.42470    1.000
    N27      N        0.57490    0.65450    0.49950    1.000
    N28      N        0.64970    0.37810    0.62910    1.000
    N29      N        0.68840    0.69100    0.58010    1.000
    N30      N        0.61480    0.63930    0.28330    1.000
    N31      N        0.62510    0.60540    0.41830    1.000
    N32      N        0.65360    0.51600    0.56440    1.000
    C46      C        0.41780    0.01140    0.38060    1.000
    H49      H        0.43180    0.04160    0.34370    1.000
    H50      H        0.38010    0.04790    0.36530    1.000
    C47      C        0.46940    0.02110    0.48580    1.000
    H51      H        0.47560    0.09160    0.50350    1.000
    H52      H        0.45620    0.98770    0.52260    1.000
    C48      C        0.68370    0.79250    0.56960    1.000
    H53      H        0.64760    0.82870    0.52130    1.000
    C49      C        0.51850    0.66640    0.41510    1.000
    H54      H        0.51100    0.65480    0.35460    1.000
    C50      C        0.56570    0.68200    0.56780    1.000
    H55      H        0.59700    0.68350    0.63550    1.000
    C51      C        0.74810    0.67560    0.65900    1.000
    H56      H        0.76470    0.61220    0.68450    1.000
    C52      C        0.62350    0.46460    0.59300    1.000
    H57      H        0.58740    0.48800    0.58790    1.000
    C53      C        0.50470    0.70630    0.52150    1.000
    H58      H        0.48570    0.72740    0.55170    1.000
    C54      C        0.73950    0.82920    0.64010    1.000
    H59      H        0.74960    0.89720    0.65000    1.000
    C55      C        0.63330    0.67160    0.36820    1.000
    H60      H        0.65060    0.73510    0.39190    1.000
    C56      C        0.70260    0.45620    0.58310    1.000
    H61      H        0.73260    0.47100    0.57040    1.000
    C57      C        0.59330    0.54620    0.27760    1.000
    H62      H        0.57630    0.50320    0.22410    1.000
    C58      C        0.59980    0.52480    0.35960    1.000
    H63      H        0.58880    0.46450    0.37410    1.000
    C59      C        0.69940    0.37260    0.62280    1.000
    H64      H        0.72740    0.31840    0.64330    1.000
    C60      C        0.39930    0.90430    0.34910    1.000
    B4       B        0.63580    0.61730    0.51630    1.000
    Co5      Co       0.87708    0.77665    0.81157    1.000
    O9       O        0.88110    0.64670    0.88880    1.000
    O10      O        0.90240    0.63090    0.78540    1.000
    N33      N        0.28050    0.74470    0.19650    1.000
    N34      N        0.97390    0.80360    0.92470    1.000
    N35      N        0.07490    0.84550    0.99950    1.000
    N36      N        0.14970    0.12190    0.12910    1.000
    N37      N        0.18840    0.80900    0.08010    1.000
    N38      N        0.11480    0.86070    0.78330    1.000
    N39      N        0.12510    0.89460    0.91830    1.000
    N40      N        0.15360    0.98400    0.06440    1.000
    C61      C        0.91780    0.48860    0.88060    1.000
    H65      H        0.93180    0.45840    0.84370    1.000
    H66      H        0.88010    0.45210    0.86530    1.000
    C62      C        0.96940    0.47890    0.98580    1.000
    H67      H        0.97560    0.40840    0.00350    1.000
    H68      H        0.95620    0.51230    0.02260    1.000
    C63      C        0.18370    0.70750    0.06960    1.000
    H69      H        0.14760    0.67130    0.02130    1.000
    C64      C        0.01850    0.83360    0.91510    1.000
    H70      H        0.01100    0.84520    0.85460    1.000
    C65      C        0.06570    0.81800    0.06780    1.000
    H71      H        0.09700    0.81650    0.13550    1.000
    C66      C        0.24810    0.82440    0.15900    1.000
    H72      H        0.26470    0.88780    0.18450    1.000
    C67      C        0.12350    0.03540    0.09300    1.000
    H73      H        0.08740    0.01200    0.08790    1.000
    C68      C        0.00470    0.79370    0.02150    1.000
    H74      H        0.98570    0.77260    0.05170    1.000
    C69      C        0.23950    0.67080    0.14010    1.000
    H75      H        0.24960    0.60280    0.15000    1.000
    C70      C        0.13330    0.82840    0.86820    1.000
    H76      H        0.15060    0.76490    0.89190    1.000
    C71      C        0.20260    0.04380    0.08310    1.000
    H77      H        0.23260    0.02900    0.07040    1.000
    C72      C        0.09330    0.95380    0.77760    1.000
    H78      H        0.07630    0.99680    0.72410    1.000
    C73      C        0.09980    0.97520    0.85960    1.000
    H79      H        0.08880    0.03550    0.87410    1.000
    C74      C        0.19940    0.12740    0.12280    1.000
    H80      H        0.22740    0.18160    0.14330    1.000
    C75      C        0.89930    0.59570    0.84910    1.000
    B5       B        0.13580    0.88270    0.01630    1.000
    Co6      Co       0.37708    0.27665    0.81157    1.000
    O11      O        0.38110    0.14670    0.88880    1.000
    O12      O        0.40240    0.13090    0.78540    1.000
    N41      N        0.78050    0.24470    0.19650    1.000
    N42      N        0.47390    0.30360    0.92470    1.000
    N43      N        0.57490    0.34550    0.99950    1.000
    N44      N        0.64970    0.62190    0.12910    1.000
    N45      N        0.68840    0.30900    0.08010    1.000
    N46      N        0.61480    0.36070    0.78330    1.000
    N47      N        0.62510    0.39460    0.91830    1.000
    N48      N        0.65360    0.48400    0.06440    1.000
    C76      C        0.41780    0.98860    0.88060    1.000
    H81      H        0.43180    0.95840    0.84370    1.000
    H82      H        0.38010    0.95210    0.86530    1.000
    C77      C        0.46940    0.97890    0.98580    1.000
    H83      H        0.47560    0.90840    0.00350    1.000
    H84      H        0.45620    0.01230    0.02260    1.000
    C78      C        0.68370    0.20750    0.06960    1.000
    H85      H        0.64760    0.17130    0.02130    1.000
    C79      C        0.51850    0.33360    0.91510    1.000
    H86      H        0.51100    0.34520    0.85460    1.000
    C80      C        0.56570    0.31800    0.06780    1.000
    H87      H        0.59700    0.31650    0.13550    1.000
    C81      C        0.74810    0.32440    0.15900    1.000
    H88      H        0.76470    0.38780    0.18450    1.000
    C82      C        0.62350    0.53540    0.09300    1.000
    H89      H        0.58740    0.51200    0.08790    1.000
    C83      C        0.50470    0.29370    0.02150    1.000
    H90      H        0.48570    0.27260    0.05170    1.000
    C84      C        0.73950    0.17080    0.14010    1.000
    H91      H        0.74960    0.10280    0.15000    1.000
    C85      C        0.63330    0.32840    0.86820    1.000
    H92      H        0.65060    0.26490    0.89190    1.000
    C86      C        0.70260    0.54380    0.08310    1.000
    H93      H        0.73260    0.52900    0.07040    1.000
    C87      C        0.59330    0.45380    0.77760    1.000
    H94      H        0.57630    0.49680    0.72410    1.000
    C88      C        0.59980    0.47520    0.85960    1.000
    H95      H        0.58880    0.53550    0.87410    1.000
    C89      C        0.69940    0.62740    0.12280    1.000
    H96      H        0.72740    0.68160    0.14330    1.000
    C90      C        0.39930    0.09570    0.84910    1.000
    B6       B        0.63580    0.38270    0.01630    1.000
    Co7      Co       0.12292    0.77665    0.68843    1.000
    O13      O        0.11890    0.64670    0.61120    1.000
    O14      O        0.09760    0.63090    0.71460    1.000
    N49      N        0.71950    0.74470    0.30350    1.000
    N50      N        0.02610    0.80360    0.57530    1.000
    N51      N        0.92510    0.84550    0.50050    1.000
    N52      N        0.85030    0.12190    0.37090    1.000
    N53      N        0.81160    0.80900    0.41990    1.000
    N54      N        0.88520    0.86070    0.71670    1.000
    N55      N        0.87490    0.89460    0.58170    1.000
    N56      N        0.84640    0.98400    0.43560    1.000
    C91      C        0.08220    0.48860    0.61940    1.000
    H97      H        0.06820    0.45840    0.65630    1.000
    H98      H        0.11990    0.45210    0.63470    1.000
    C92      C        0.03060    0.47890    0.51420    1.000
    H99      H        0.02440    0.40840    0.49650    1.000
    H100     H        0.04380    0.51230    0.47740    1.000
    C93      C        0.81630    0.70750    0.43040    1.000
    H101     H        0.85240    0.67130    0.47870    1.000
    C94      C        0.98150    0.83360    0.58490    1.000
    H102     H        0.98900    0.84520    0.64540    1.000
    C95      C        0.93430    0.81800    0.43220    1.000
    H103     H        0.90300    0.81650    0.36450    1.000
    C96      C        0.75190    0.82440    0.34100    1.000
    H104     H        0.73530    0.88780    0.31550    1.000
    C97      C        0.87650    0.03540    0.40700    1.000
    H105     H        0.91260    0.01200    0.41210    1.000
    C98      C        0.99530    0.79370    0.47850    1.000
    H106     H        0.01430    0.77260    0.44830    1.000
    C99      C        0.76050    0.67080    0.35990    1.000
    H107     H        0.75040    0.60280    0.35000    1.000
    C100     C        0.86670    0.82840    0.63180    1.000
    H108     H        0.84940    0.76490    0.60810    1.000
    C101     C        0.79740    0.04380    0.41690    1.000
    H109     H        0.76740    0.02900    0.42960    1.000
    C102     C        0.90670    0.95380    0.72240    1.000
    H110     H        0.92370    0.99680    0.77590    1.000
    C103     C        0.90020    0.97520    0.64040    1.000
    H111     H        0.91120    0.03550    0.62590    1.000
    C104     C        0.80060    0.12740    0.37720    1.000
    H112     H        0.77260    0.18160    0.35670    1.000
    C105     C        0.10070    0.59570    0.65090    1.000
    B7       B        0.86420    0.88270    0.48370    1.000
    Co8      Co       0.62292    0.27665    0.68843    1.000
    O15      O        0.61890    0.14670    0.61120    1.000
    O16      O        0.59760    0.13090    0.71460    1.000
    N57      N        0.21950    0.24470    0.30350    1.000
    N58      N        0.52610    0.30360    0.57530    1.000
    N59      N        0.42510    0.34550    0.50050    1.000
    N60      N        0.35030    0.62190    0.37090    1.000
    N61      N        0.31160    0.30900    0.41990    1.000
    N62      N        0.38520    0.36070    0.71670    1.000
    N63      N        0.37490    0.39460    0.58170    1.000
    N64      N        0.34640    0.48400    0.43560    1.000
    C106     C        0.58220    0.98860    0.61940    1.000
    H113     H        0.56820    0.95840    0.65630    1.000
    H114     H        0.61990    0.95210    0.63470    1.000
    C107     C        0.53060    0.97890    0.51420    1.000
    H115     H        0.52440    0.90840    0.49650    1.000
    H116     H        0.54380    0.01230    0.47740    1.000
    C108     C        0.31630    0.20750    0.43040    1.000
    H117     H        0.35240    0.17130    0.47870    1.000
    C109     C        0.48150    0.33360    0.58490    1.000
    H118     H        0.48900    0.34520    0.64540    1.000
    C110     C        0.43430    0.31800    0.43220    1.000
    H119     H        0.40300    0.31650    0.36450    1.000
    C111     C        0.25190    0.32440    0.34100    1.000
    H120     H        0.23530    0.38780    0.31550    1.000
    C112     C        0.37650    0.53540    0.40700    1.000
    H121     H        0.41260    0.51200    0.41210    1.000
    C113     C        0.49530    0.29370    0.47850    1.000
    H122     H        0.51430    0.27260    0.44830    1.000
    C114     C        0.26050    0.17080    0.35990    1.000
    H123     H        0.25040    0.10280    0.35000    1.000
    C115     C        0.36670    0.32840    0.63180    1.000
    H124     H        0.34940    0.26490    0.60810    1.000
    C116     C        0.29740    0.54380    0.41690    1.000
    H125     H        0.26740    0.52900    0.42960    1.000
    C117     C        0.40670    0.45380    0.72240    1.000
    H126     H        0.42370    0.49680    0.77590    1.000
    C118     C        0.40020    0.47520    0.64040    1.000
    H127     H        0.41120    0.53550    0.62590    1.000
    C119     C        0.30060    0.62740    0.37720    1.000
    H128     H        0.27260    0.68160    0.35670    1.000
    C120     C        0.60070    0.09570    0.65090    1.000
    B8       B        0.36420    0.38270    0.48370    1.000
