data_functionalizedCrystal
_audit_creation_method	'EQeq! by Chris Wilmer'
_symmetry_space_group_name_H-M	'P1'
_symmetry_Int_Tables_number	1
_symmetry_cell_setting	triclinic
loop_
_symmetry_equiv_pos_as_xyz
  x,y,z
_cell_length_a	18.38
_cell_length_b	18.38
_cell_length_c	18.38
_cell_angle_alpha	60.2595
_cell_angle_beta	60.2595
_cell_angle_gamma	60.2595
loop_
_atom_site_label
_atom_site_type_symbol
_atom_site_fract_x
_atom_site_fract_y
_atom_site_fract_z
_atom_site_charge
Mof_Zn	Zn	0.60933	0.78329	0.60933	1.208
Mof_Zn	Zn	0.19614	0.02202	0.19614	1.196
Mof_Zn	Zn	0.60933	0.60933	0.78329	1.209
Mof_Zn	Zn	0.19614	0.19614	0.02202	1.197
Mof_Zn	Zn	0.78329	0.60933	0.60933	1.209
Mof_Zn	Zn	0.02202	0.19614	0.19614	1.197
Mof_Zn	Zn	0.60879	0.60879	0.60879	1.209
Mof_Zn	Zn	0.19661	0.19661	0.19661	1.205
Mof_H 	H 	0.8393	0.0551	0.3567	0.081
Mof_H 	H 	0.7509	0.9654	0.4448	0.031
Mof_H 	H 	0.3567	0.8393	0.0551	0.081
Mof_H 	H 	0.4448	0.7509	0.9654	0.031
Mof_H 	H 	0.0551	0.3567	0.8393	0.081
Mof_H 	H 	0.9654	0.4448	0.7509	0.031
Mof_H 	H 	0.0551	0.8393	0.3567	0.081
Mof_H 	H 	0.9654	0.7509	0.4448	0.031
Mof_H 	H 	0.8393	0.3567	0.0551	0.081
Mof_H 	H 	0.7509	0.4448	0.9654	0.031
Mof_H 	H 	0.3567	0.0551	0.8393	0.081
Mof_H 	H 	0.4448	0.9654	0.7509	0.031
Mof_H 	H 	0.3585	0.055	0.3585	0.041
Mof_H 	H 	0.4476	0.9662	0.4476	0.051
Mof_H 	H 	0.358	0.8397	0.358	0.054
Mof_H 	H 	0.4463	0.7516	0.4463	0.045
Mof_H 	H 	0.3585	0.3585	0.055	0.041
Mof_H 	H 	0.4476	0.4476	0.9662	0.051
Mof_H 	H 	0.358	0.358	0.8397	0.054
Mof_H 	H 	0.4463	0.4463	0.7516	0.045
Mof_H 	H 	0.055	0.3585	0.3585	0.041
Mof_H 	H 	0.9662	0.4476	0.4476	0.051
Mof_H 	H 	0.8397	0.358	0.358	0.054
Mof_H 	H 	0.7516	0.4463	0.4463	0.045
Mof_C 	C 	0.86557	0.99357	0.37447	-0.091
Mof_C 	C 	0.81235	0.93945	0.42775	0.034
Mof_C 	C 	0.37447	0.86557	0.99357	-0.091
Mof_C 	C 	0.42775	0.81235	0.93945	0.034
Mof_C 	C 	0.99357	0.37447	0.86557	-0.091
Mof_C 	C 	0.93945	0.42775	0.81235	0.034
Mof_C 	C 	0.99357	0.86557	0.37447	-0.091
Mof_C 	C 	0.93945	0.81235	0.42775	0.034
Mof_C 	C 	0.86557	0.37447	0.99357	-0.091
Mof_C 	C 	0.81235	0.42775	0.93945	0.034
Mof_C 	C 	0.37447	0.99357	0.86557	-0.091
Mof_C 	C 	0.42775	0.93945	0.81235	0.034
Mof_C 	C 	0.29093	0.01443	0.29093	0.351
Mof_C 	C 	0.34934	0.95614	0.34934	-0.063
Mof_C 	C 	0.37601	0.99361	0.37601	-0.006
Mof_C 	C 	0.4298	0.94	0.4298	-0.018
Mof_C 	C 	0.37576	0.86586	0.37576	-0.03
Mof_C 	C 	0.42903	0.81293	0.42903	-0.009
Mof_C 	C 	0.45653	0.84883	0.45653	-0.088
Mof_C 	C 	0.51439	0.79119	0.51439	0.381
Mof_C 	C 	0.29093	0.29093	0.01443	0.351
Mof_C 	C 	0.34934	0.34934	0.95614	-0.063
Mof_C 	C 	0.37601	0.37601	0.99361	-0.006
Mof_C 	C 	0.4298	0.4298	0.94	-0.018
Mof_C 	C 	0.37576	0.37576	0.86586	-0.03
Mof_C 	C 	0.42903	0.42903	0.81293	-0.009
Mof_C 	C 	0.45653	0.45653	0.84883	-0.088
Mof_C 	C 	0.51439	0.51439	0.79119	0.381
Mof_C 	C 	0.01443	0.29093	0.29093	0.351
Mof_C 	C 	0.95614	0.34934	0.34934	-0.063
Mof_C 	C 	0.99361	0.37601	0.37601	-0.006
Mof_C 	C 	0.94	0.4298	0.4298	-0.018
Mof_C 	C 	0.86586	0.37576	0.37576	-0.03
Mof_C 	C 	0.81293	0.42903	0.42903	-0.009
Mof_C 	C 	0.84883	0.45653	0.45653	-0.088
Mof_C 	C 	0.79119	0.51439	0.51439	0.381
Mof_C 	C 	0.0146	0.0146	0.2909	0.293
Mof_C 	C 	0.95626	0.95626	0.34836	-0.011
Mof_C 	C 	0.84925	0.84925	0.45495	-0.12
Mof_C 	C 	0.79099	0.79099	0.51459	0.391
Mof_C 	C 	0.2909	0.0146	0.0146	0.293
Mof_C 	C 	0.34836	0.95626	0.95626	-0.011
Mof_C 	C 	0.45495	0.84925	0.84925	-0.12
Mof_C 	C 	0.51459	0.79099	0.79099	0.391
Mof_C 	C 	0.0146	0.2909	0.0146	0.293
Mof_C 	C 	0.95626	0.34836	0.95626	-0.011
Mof_C 	C 	0.84925	0.45495	0.84925	-0.12
Mof_C 	C 	0.79099	0.51459	0.79099	0.391
Mof_O 	O 	0.70787	0.82967	0.53677	-0.508
Mof_O 	O 	0.97615	0.09705	0.26835	-0.467
Mof_O 	O 	0.53677	0.70787	0.82967	-0.508
Mof_O 	O 	0.26835	0.97615	0.09705	-0.467
Mof_O 	O 	0.82967	0.53677	0.70787	-0.508
Mof_O 	O 	0.09705	0.26835	0.97615	-0.467
Mof_O 	O 	0.82967	0.70787	0.53677	-0.508
Mof_O 	O 	0.09705	0.97615	0.26835	-0.467
Mof_O 	O 	0.70787	0.53677	0.82967	-0.508
Mof_O 	O 	0.97615	0.26835	0.09705	-0.467
Mof_O 	O 	0.53677	0.82967	0.70787	-0.508
Mof_O 	O 	0.26835	0.09705	0.97615	-0.467
Mof_O 	O 	0.53696	0.82951	0.53696	-0.506
Mof_O 	O 	0.53625	0.70805	0.53625	-0.504
Mof_O 	O 	0.26927	0.09753	0.26927	-0.502
Mof_O 	O 	0.2686	0.97635	0.2686	-0.488
Mof_O 	O 	0.53696	0.53696	0.82951	-0.506
Mof_O 	O 	0.53625	0.53625	0.70805	-0.504
Mof_O 	O 	0.26927	0.26927	0.09753	-0.502
Mof_O 	O 	0.2686	0.2686	0.97635	-0.488
Mof_O 	O 	0.82951	0.53696	0.53696	-0.506
Mof_O 	O 	0.70805	0.53625	0.53625	-0.504
Mof_O 	O 	0.09753	0.26927	0.26927	-0.502
Mof_O 	O 	0.97635	0.2686	0.2686	-0.488
Mof_O 	O 	0.65253	0.65253	0.65253	-0.943
Mof_O 	O 	0.15274	0.15274	0.15274	-0.954
Mof_Zn	Zn	0.21671	0.39067	0.39067	1.209
Mof_Zn	Zn	0.97798	0.80386	0.80386	1.197
Mof_Zn	Zn	0.39067	0.39067	0.21671	1.209
Mof_Zn	Zn	0.80386	0.80386	0.97798	1.197
Mof_Zn	Zn	0.39067	0.21671	0.39067	1.209
Mof_Zn	Zn	0.80386	0.97798	0.80386	1.197
Mof_Zn	Zn	0.39121	0.39121	0.39121	1.209
Mof_Zn	Zn	0.80339	0.80339	0.80339	1.205
Mof_H 	H 	0.9449	0.1607	0.6433	0.081
Mof_H 	H 	0.0346	0.2491	0.5552	0.031
Mof_H 	H 	0.1607	0.6433	0.9449	0.081
Mof_H 	H 	0.2491	0.5552	0.0346	0.031
Mof_H 	H 	0.6433	0.9449	0.1607	0.081
Mof_H 	H 	0.5552	0.0346	0.2491	0.031
Mof_H 	H 	0.1607	0.9449	0.6433	0.081
Mof_H 	H 	0.2491	0.0346	0.5552	0.031
Mof_H 	H 	0.6433	0.1607	0.9449	0.081
Mof_H 	H 	0.5552	0.2491	0.0346	0.031
Mof_H 	H 	0.9449	0.6433	0.1607	0.081
Mof_H 	H 	0.0346	0.5552	0.2491	0.031
Mof_H 	H 	0.945	0.6415	0.6415	0.041
Mof_H 	H 	0.0338	0.5524	0.5524	0.051
Mof_H 	H 	0.1603	0.642	0.642	0.054
Mof_H 	H 	0.2484	0.5537	0.5537	0.045
Mof_H 	H 	0.6415	0.6415	0.945	0.041
Mof_H 	H 	0.5524	0.5524	0.0338	0.051
Mof_H 	H 	0.642	0.642	0.1603	0.054
Mof_H 	H 	0.5537	0.5537	0.2484	0.045
Mof_H 	H 	0.6415	0.945	0.6415	0.041
Mof_H 	H 	0.5524	0.0338	0.5524	0.051
Mof_H 	H 	0.642	0.1603	0.642	0.054
Mof_H 	H 	0.5537	0.2484	0.5537	0.045
Mof_C 	C 	0.00643	0.13443	0.62553	-0.091
Mof_C 	C 	0.06055	0.18765	0.57225	0.034
Mof_C 	C 	0.13443	0.62553	0.00643	-0.091
Mof_C 	C 	0.18765	0.57225	0.06055	0.034
Mof_C 	C 	0.62553	0.00643	0.13443	-0.091
Mof_C 	C 	0.57225	0.06055	0.18765	0.034
Mof_C 	C 	0.13443	0.00643	0.62553	-0.091
Mof_C 	C 	0.18765	0.06055	0.57225	0.034
Mof_C 	C 	0.62553	0.13443	0.00643	-0.091
Mof_C 	C 	0.57225	0.18765	0.06055	0.034
Mof_C 	C 	0.00643	0.62553	0.13443	-0.091
Mof_C 	C 	0.06055	0.57225	0.18765	0.034
Mof_C 	C 	0.98557	0.70907	0.70907	0.351
Mof_C 	C 	0.04386	0.65066	0.65066	-0.063
Mof_C 	C 	0.00639	0.62399	0.62399	-0.006
Mof_C 	C 	0.06	0.5702	0.5702	-0.018
Mof_C 	C 	0.13414	0.62424	0.62424	-0.03
Mof_C 	C 	0.18707	0.57097	0.57097	-0.009
Mof_C 	C 	0.15117	0.54347	0.54347	-0.088
Mof_C 	C 	0.20881	0.48561	0.48561	0.381
Mof_C 	C 	0.70907	0.70907	0.98557	0.351
Mof_C 	C 	0.65066	0.65066	0.04386	-0.063
Mof_C 	C 	0.62399	0.62399	0.00639	-0.006
Mof_C 	C 	0.5702	0.5702	0.06	-0.018
Mof_C 	C 	0.62424	0.62424	0.13414	-0.03
Mof_C 	C 	0.57097	0.57097	0.18707	-0.009
Mof_C 	C 	0.54347	0.54347	0.15117	-0.088
Mof_C 	C 	0.48561	0.48561	0.20881	0.381
Mof_C 	C 	0.70907	0.98557	0.70907	0.351
Mof_C 	C 	0.65066	0.04386	0.65066	-0.063
Mof_C 	C 	0.62399	0.00639	0.62399	-0.006
Mof_C 	C 	0.5702	0.06	0.5702	-0.018
Mof_C 	C 	0.62424	0.13414	0.62424	-0.03
Mof_C 	C 	0.57097	0.18707	0.57097	-0.009
Mof_C 	C 	0.54347	0.15117	0.54347	-0.088
Mof_C 	C 	0.48561	0.20881	0.48561	0.381
Mof_C 	C 	0.9854	0.9854	0.7091	0.293
Mof_C 	C 	0.04374	0.04374	0.65164	-0.011
Mof_C 	C 	0.15075	0.15075	0.54505	-0.12
Mof_C 	C 	0.20901	0.20901	0.48541	0.391
Mof_C 	C 	0.9854	0.7091	0.9854	0.293
Mof_C 	C 	0.04374	0.65164	0.04374	-0.011
Mof_C 	C 	0.15075	0.54505	0.15075	-0.12
Mof_C 	C 	0.20901	0.48541	0.20901	0.391
Mof_C 	C 	0.7091	0.9854	0.9854	0.293
Mof_C 	C 	0.65164	0.04374	0.04374	-0.011
Mof_C 	C 	0.54505	0.15075	0.15075	-0.12
Mof_C 	C 	0.48541	0.20901	0.20901	0.391
Mof_O 	O 	0.17033	0.29213	0.46323	-0.508
Mof_O 	O 	0.90295	0.02385	0.73165	-0.467
Mof_O 	O 	0.29213	0.46323	0.17033	-0.508
Mof_O 	O 	0.02385	0.73165	0.90295	-0.467
Mof_O 	O 	0.46323	0.17033	0.29213	-0.508
Mof_O 	O 	0.73165	0.90295	0.02385	-0.467
Mof_O 	O 	0.29213	0.17033	0.46323	-0.508
Mof_O 	O 	0.02385	0.90295	0.73165	-0.467
Mof_O 	O 	0.46323	0.29213	0.17033	-0.508
Mof_O 	O 	0.73165	0.02385	0.90295	-0.467
Mof_O 	O 	0.17033	0.46323	0.29213	-0.508
Mof_O 	O 	0.90295	0.73165	0.02385	-0.467
Mof_O 	O 	0.17049	0.46304	0.46304	-0.506
Mof_O 	O 	0.29195	0.46375	0.46375	-0.504
Mof_O 	O 	0.90247	0.73073	0.73073	-0.502
Mof_O 	O 	0.02365	0.7314	0.7314	-0.488
Mof_O 	O 	0.46304	0.46304	0.17049	-0.506
Mof_O 	O 	0.46375	0.46375	0.29195	-0.504
Mof_O 	O 	0.73073	0.73073	0.90247	-0.502
Mof_O 	O 	0.7314	0.7314	0.02365	-0.488
Mof_O 	O 	0.46304	0.17049	0.46304	-0.506
Mof_O 	O 	0.46375	0.29195	0.46375	-0.504
Mof_O 	O 	0.73073	0.90247	0.73073	-0.502
Mof_O 	O 	0.7314	0.02365	0.7314	-0.488
Mof_O 	O 	0.34747	0.34747	0.34747	-0.943
Mof_O 	O 	0.84726	0.84726	0.84726	-0.954
_end
