data_functionalizedCrystal
_audit_creation_method	'EQeq! by Chris Wilmer'
_symmetry_space_group_name_H-M	'P1'
_symmetry_Int_Tables_number	1
_symmetry_cell_setting	triclinic
loop_
_symmetry_equiv_pos_as_xyz
  x,y,z
_cell_length_a	10.8778
_cell_length_b	15.1518
_cell_length_c	11.6221
_cell_angle_alpha	90
_cell_angle_beta	96.249
_cell_angle_gamma	90
loop_
_atom_site_label
_atom_site_type_symbol
_atom_site_fract_x
_atom_site_fract_y
_atom_site_fract_z
_atom_site_charge
Mof_Zn	Zn	0.25483	0.0124	0.49878	1.246
Mof_C 	C 	0.4102	0.1755	0.2623	-0.031
Mof_C 	C 	0.5364	0.1699	0.2982	-0.011
Mof_C 	C 	0.6176	0.2226	0.2451	-0.016
Mof_H 	H 	0.7019	0.2174	0.2681	0.084
Mof_C 	C 	0.5785	0.2828	0.159	-0.025
Mof_C 	C 	0.4514	0.2893	0.1249	-0.024
Mof_C 	C 	0.37	0.2352	0.1744	-0.008
Mof_H 	H 	0.2861	0.2385	0.1488	0.078
Mof_C 	C 	0.315	0.1218	0.3159	0.326
Mof_C 	C 	0.592	0.1144	0.3995	0.316
Mof_C 	C 	0.6717	0.3418	0.1119	0.326
Mof_C 	C 	0.3953	0.3556	0.0373	0.336
Mof_O 	O 	0.3577	0.0621	0.3876	-0.405
Mof_O 	O 	0.2045	0.1377	0.2908	-0.247
Mof_O 	O 	0.6356	0.0397	0.3736	-0.392
Mof_O 	O 	0.6009	0.1474	0.4971	-0.257
Mof_O 	O 	0.6306	0.412	0.063	-0.397
Mof_O 	O 	0.7814	0.321	0.1236	-0.257
Mof_O 	O 	0.3575	0.4259	0.0838	-0.394
Mof_O 	O 	0.3818	0.3374	0.934	-0.245
Mof_Zn	Zn	0.24517	0.5124	0.00122	1.245
Mof_C 	C 	0.0898	0.6755	0.2377	-0.035
Mof_C 	C 	0.9636	0.6699	0.2018	-0.01
Mof_C 	C 	0.8824	0.7226	0.2549	-0.017
Mof_H 	H 	0.7981	0.7174	0.2319	0.084
Mof_C 	C 	0.9215	0.7828	0.341	-0.026
Mof_C 	C 	0.0486	0.7893	0.3751	-0.024
Mof_C 	C 	0.13	0.7352	0.3256	-0.007
Mof_H 	H 	0.2139	0.7385	0.3512	0.078
Mof_C 	C 	0.185	0.6218	0.1841	0.326
Mof_C 	C 	0.908	0.6144	0.1005	0.316
Mof_C 	C 	0.8283	0.8418	0.3881	0.326
Mof_C 	C 	0.1047	0.8556	0.4627	0.338
Mof_O 	O 	0.1423	0.5621	0.1124	-0.407
Mof_O 	O 	0.2955	0.6377	0.2092	-0.246
Mof_O 	O 	0.8644	0.5397	0.1264	-0.392
Mof_O 	O 	0.8991	0.6474	0.0029	-0.255
Mof_O 	O 	0.8694	0.912	0.437	-0.399
Mof_O 	O 	0.7186	0.821	0.3764	-0.259
Mof_O 	O 	0.1425	0.9259	0.4162	-0.392
Mof_O 	O 	0.1182	0.8374	0.566	-0.245
Mof_Zn	Zn	0.74517	0.9876	0.50122	1.245
Mof_C 	C 	0.5898	0.8245	0.7377	-0.032
Mof_C 	C 	0.4636	0.8301	0.7018	-0.012
Mof_C 	C 	0.3824	0.7774	0.7549	-0.017
Mof_H 	H 	0.2981	0.7826	0.7319	0.084
Mof_C 	C 	0.4215	0.7172	0.841	-0.025
Mof_C 	C 	0.5486	0.7107	0.8751	-0.024
Mof_C 	C 	0.63	0.7648	0.8256	-0.008
Mof_H 	H 	0.7139	0.7615	0.8512	0.078
Mof_C 	C 	0.685	0.8782	0.6841	0.326
Mof_C 	C 	0.408	0.8856	0.6005	0.316
Mof_C 	C 	0.3283	0.6582	0.8881	0.326
Mof_C 	C 	0.6047	0.6444	0.9627	0.336
Mof_O 	O 	0.6423	0.9379	0.6124	-0.405
Mof_O 	O 	0.7955	0.8623	0.7092	-0.247
Mof_O 	O 	0.3644	0.9603	0.6264	-0.392
Mof_O 	O 	0.3991	0.8526	0.5029	-0.257
Mof_O 	O 	0.3694	0.588	0.937	-0.397
Mof_O 	O 	0.2186	0.679	0.8764	-0.257
Mof_O 	O 	0.6425	0.5741	0.9162	-0.394
Mof_O 	O 	0.6182	0.6626	0.066	-0.245
Mof_Zn	Zn	0.75483	0.4876	0.99878	1.245
Mof_C 	C 	0.9102	0.3245	0.7623	-0.035
Mof_C 	C 	0.0364	0.3301	0.7982	-0.01
Mof_C 	C 	0.1176	0.2774	0.7451	-0.017
Mof_H 	H 	0.2019	0.2826	0.7681	0.084
Mof_C 	C 	0.0785	0.2172	0.659	-0.026
Mof_C 	C 	0.9514	0.2107	0.6249	-0.024
Mof_C 	C 	0.87	0.2648	0.6744	-0.007
Mof_H 	H 	0.7861	0.2615	0.6488	0.078
Mof_C 	C 	0.815	0.3782	0.8159	0.326
Mof_C 	C 	0.092	0.3856	0.8995	0.316
Mof_C 	C 	0.1717	0.1582	0.6119	0.326
Mof_C 	C 	0.8953	0.1444	0.5373	0.338
Mof_O 	O 	0.8577	0.4379	0.8876	-0.407
Mof_O 	O 	0.7045	0.3623	0.7908	-0.246
Mof_O 	O 	0.1356	0.4603	0.8736	-0.392
Mof_O 	O 	0.1009	0.3526	0.9971	-0.255
Mof_O 	O 	0.1306	0.088	0.563	-0.399
Mof_O 	O 	0.2814	0.179	0.6236	-0.259
Mof_O 	O 	0.8575	0.0741	0.5838	-0.392
Mof_O 	O 	0.8818	0.1626	0.434	-0.245
_end
