data_functionalizedCrystal
_audit_creation_method	'EQeq! by Chris Wilmer'
_symmetry_space_group_name_H-M	'P1'
_symmetry_Int_Tables_number	1
_symmetry_cell_setting	triclinic
loop_
_symmetry_equiv_pos_as_xyz
  x,y,z
_cell_length_a	25.45
_cell_length_b	11.928
_cell_length_c	25.835
_cell_angle_alpha	90
_cell_angle_beta	116.777
_cell_angle_gamma	90
loop_
_atom_site_label
_atom_site_type_symbol
_atom_site_fract_x
_atom_site_fract_y
_atom_site_fract_z
_atom_site_charge
Mof_Cd	Cd	0.4775	0.17535	0.09091	0.454
Mof_Cd	Cd	0.07013	0.74728	0.51095	0.385
Mof_Na	Na	0.97939	0.5125	0.92696	2.274
Mof_C 	C 	0.3981	0.0174	0.0285	0.302
Mof_C 	C 	0.3518	0.9354	0.9882	-0.115
Mof_C 	C 	0.3535	0.9011	0.9368	0.075
Mof_H 	H 	0.3827	0.9277	0.9276	0.034
Mof_C 	C 	0.311	0.8271	0.9003	-0.198
Mof_H 	H 	0.313	0.7999	0.8675	0.109
Mof_C 	C 	0.2665	0.7939	0.9122	0.178
Mof_C 	C 	0.2664	0.8249	0.9629	-0.199
Mof_H 	H 	0.2377	0.7963	0.9723	0.101
Mof_C 	C 	0.3074	0.8968	-0	0.079
Mof_H 	H 	0.3055	0.9201	0.0335	0.016
Mof_C 	C 	0.1999	0.7255	0.8119	0.291
Mof_C 	C 	0.1781	0.6307	0.7789	-0.402
Mof_H 	H 	0.1818	0.5624	0.7976	0.154
Mof_C 	C 	0.1517	0.6331	0.7213	0.316
Mof_H 	H 	0.1356	0.5677	0.7005	-0.165
Mof_C 	C 	0.1479	0.733	0.6915	-0.374
Mof_C 	C 	0.17	0.8271	0.7254	0.279
Mof_H 	H 	0.1678	0.8956	0.7073	-0.063
Mof_C 	C 	0.195	0.8238	0.7842	-0.374
Mof_H 	H 	0.2087	0.8895	0.8054	0.158
Mof_C 	C 	0.1195	0.7371	0.6275	0.514
Mof_C 	C 	0.12	0.4018	0.9674	0.49
Mof_C 	C 	0.1474	0.4843	0.9419	-0.322
Mof_C 	C 	0.1106	0.554	0.8974	0.26
Mof_H 	H 	0.07	0.546	0.8814	-0.175
Mof_C 	C 	0.1346	0.6337	0.8775	-0.338
Mof_H 	H 	0.1102	0.6858	0.8506	0.118
Mof_C 	C 	0.1956	0.6394	0.8967	0.237
Mof_C 	C 	0.2315	0.5651	0.9392	-0.299
Mof_H 	H 	0.272	0.5665	0.952	0.138
Mof_C 	C 	0.2072	0.4889	0.9627	0.214
Mof_H 	H 	0.2313	0.4412	0.9924	-0.031
Mof_C 	C 	0.4451	0.3811	0.1346	0.341
Mof_C 	C 	0.4086	0.4752	0.1391	-0.17
Mof_C 	C 	0.4182	0.5236	0.1899	0.133
Mof_H 	H 	0.4484	0.4964	0.2241	0.001
Mof_C 	C 	0.385	0.6109	0.1925	-0.234
Mof_H 	H 	0.394	0.6443	0.228	0.12
Mof_C 	C 	0.3377	0.6508	0.1426	0.206
Mof_C 	C 	0.3281	0.6044	0.0916	-0.235
Mof_H 	H 	0.2984	0.6335	0.0576	0.115
Mof_C 	C 	0.3609	0.5148	0.088	0.121
Mof_H 	H 	0.3516	0.4812	0.0524	0.001
Mof_C 	C 	0.3336	0.8313	0.186	0.205
Mof_C 	C 	0.3822	0.8753	0.1846	-0.23
Mof_H 	H 	0.3928	0.8492	0.1567	0.125
Mof_C 	C 	0.4161	0.9561	0.2224	0.128
Mof_H 	H 	0.4479	0.9871	0.2188	0.008
Mof_C 	C 	0.4024	0.9912	0.266	-0.176
Mof_C 	C 	0.352	0.9494	0.2656	0.135
Mof_H 	H 	0.3401	0.9763	0.2924	-0.004
Mof_C 	C 	0.3184	0.8684	0.2264	-0.242
Mof_H 	H 	0.2853	0.8396	0.2281	0.112
Mof_C 	C 	0.2404	0.735	0.1185	0.242
Mof_C 	C 	0.2079	0.8362	0.1008	-0.327
Mof_H 	H 	0.2264	0.9057	0.1093	0.153
Mof_C 	C 	0.1487	0.827	0.0711	0.251
Mof_H 	H 	0.1266	0.8925	0.0589	-0.048
Mof_C 	C 	0.1196	0.7276	0.0581	-0.368
Mof_C 	C 	0.152	0.6313	0.073	0.255
Mof_H 	H 	0.1328	0.5627	0.062	-0.141
Mof_C 	C 	0.2133	0.633	0.1041	-0.339
Mof_H 	H 	0.2349	0.5669	0.1147	0.148
Mof_C 	C 	0.0526	0.7176	0.0271	0.494
Mof_C 	C 	0.4437	0.0655	0.3116	0.327
Mof_N 	N 	0.2218	0.719	0.8749	-0.221
Mof_N 	N 	0.3044	0.7406	0.1461	-0.211
Mof_O 	O 	0.4895	0.1044	0.3103	-0.303
Mof_O 	O 	0.4326	0.0902	0.3539	-0.277
Mof_O 	O 	0.4381	0.0492	0.0156	-0.265
Mof_O 	O 	0.3945	0.0563	0.0718	-0.261
Mof_O 	O 	0.4274	0.3278	0.0886	-0.298
Mof_O 	O 	0.4926	0.3581	0.1803	-0.296
Mof_O 	O 	0.0231	0.8097	0.0216	-0.37
Mof_O 	O 	0.0286	0.625	0.0095	-0.915
Mof_O 	O 	0.1525	0.3357	0.0051	-0.348
Mof_O 	O 	0.0653	0.3996	0.9477	-0.663
Mof_O 	O 	0.1205	0.8263	0.602	-0.343
Mof_O 	O 	0.094	0.6511	0.5994	-0.673
Mof_Cd	Cd	0.5225	0.17535	0.40909	0.454
Mof_Cd	Cd	0.92987	0.74728	0.98905	0.385
Mof_Na	Na	0.02061	0.5125	0.57304	2.274
Mof_C 	C 	0.6019	0.0174	0.4715	0.31
Mof_C 	C 	0.6482	0.9354	0.5118	-0.132
Mof_C 	C 	0.6465	0.9011	0.5632	0.087
Mof_H 	H 	0.6173	0.9277	0.5724	0.029
Mof_C 	C 	0.689	0.8271	0.5997	-0.21
Mof_H 	H 	0.687	0.7999	0.6325	0.113
Mof_C 	C 	0.7335	0.7939	0.5878	0.188
Mof_C 	C 	0.7336	0.8249	0.5371	-0.218
Mof_H 	H 	0.7623	0.7963	0.5277	0.107
Mof_C 	C 	0.6926	0.8968	0.5	0.102
Mof_H 	H 	0.6945	0.9201	0.4665	0.008
Mof_C 	C 	0.8001	0.7255	0.6881	0.291
Mof_C 	C 	0.8219	0.6307	0.7211	-0.402
Mof_H 	H 	0.8182	0.5624	0.7024	0.154
Mof_C 	C 	0.8483	0.6331	0.7787	0.316
Mof_H 	H 	0.8644	0.5677	0.7995	-0.165
Mof_C 	C 	0.8521	0.733	0.8085	-0.374
Mof_C 	C 	0.83	0.8271	0.7746	0.279
Mof_H 	H 	0.8322	0.8956	0.7927	-0.063
Mof_C 	C 	0.805	0.8238	0.7158	-0.374
Mof_H 	H 	0.7913	0.8895	0.6946	0.158
Mof_C 	C 	0.8805	0.7371	0.8725	0.514
Mof_C 	C 	0.88	0.4018	0.5326	0.484
Mof_C 	C 	0.8526	0.4843	0.5581	-0.321
Mof_C 	C 	0.8894	0.554	0.6026	0.258
Mof_H 	H 	0.93	0.546	0.6186	-0.176
Mof_C 	C 	0.8654	0.6337	0.6225	-0.338
Mof_H 	H 	0.8898	0.6858	0.6494	0.118
Mof_C 	C 	0.8044	0.6394	0.6033	0.236
Mof_C 	C 	0.7685	0.5651	0.5608	-0.299
Mof_H 	H 	0.728	0.5665	0.548	0.137
Mof_C 	C 	0.7928	0.4889	0.5373	0.213
Mof_H 	H 	0.7687	0.4412	0.5076	-0.032
Mof_C 	C 	0.5549	0.3811	0.3654	0.341
Mof_C 	C 	0.5914	0.4752	0.3609	-0.17
Mof_C 	C 	0.5818	0.5236	0.3101	0.133
Mof_H 	H 	0.5516	0.4964	0.2759	0.001
Mof_C 	C 	0.615	0.6109	0.3075	-0.234
Mof_H 	H 	0.606	0.6443	0.272	0.12
Mof_C 	C 	0.6623	0.6508	0.3574	0.206
Mof_C 	C 	0.6719	0.6044	0.4084	-0.235
Mof_H 	H 	0.7016	0.6335	0.4424	0.116
Mof_C 	C 	0.6391	0.5148	0.412	0.121
Mof_H 	H 	0.6484	0.4812	0.4476	0.002
Mof_C 	C 	0.6664	0.8313	0.314	0.205
Mof_C 	C 	0.6178	0.8753	0.3154	-0.23
Mof_H 	H 	0.6072	0.8492	0.3433	0.125
Mof_C 	C 	0.5839	0.9561	0.2776	0.128
Mof_H 	H 	0.5521	0.9871	0.2812	0.008
Mof_C 	C 	0.5976	0.9912	0.234	-0.176
Mof_C 	C 	0.648	0.9494	0.2344	0.135
Mof_H 	H 	0.6599	0.9763	0.2076	-0.004
Mof_C 	C 	0.6816	0.8684	0.2736	-0.242
Mof_H 	H 	0.7147	0.8396	0.2719	0.112
Mof_C 	C 	0.7596	0.735	0.3815	0.242
Mof_C 	C 	0.7921	0.8362	0.3992	-0.326
Mof_H 	H 	0.7736	0.9057	0.3907	0.153
Mof_C 	C 	0.8513	0.827	0.4289	0.251
Mof_H 	H 	0.8734	0.8925	0.4411	-0.047
Mof_C 	C 	0.8804	0.7276	0.4419	-0.367
Mof_C 	C 	0.848	0.6313	0.427	0.255
Mof_H 	H 	0.8672	0.5627	0.438	-0.141
Mof_C 	C 	0.7867	0.633	0.3959	-0.339
Mof_H 	H 	0.7651	0.5669	0.3853	0.148
Mof_C 	C 	0.9474	0.7176	0.4729	0.494
Mof_C 	C 	0.5563	0.0655	0.1884	0.327
Mof_N 	N 	0.7782	0.719	0.6251	-0.222
Mof_N 	N 	0.6956	0.7406	0.3539	-0.211
Mof_O 	O 	0.5105	0.1044	0.1897	-0.303
Mof_O 	O 	0.5674	0.0902	0.1461	-0.278
Mof_O 	O 	0.5619	0.0492	0.4844	-0.265
Mof_O 	O 	0.6055	0.0563	0.4282	-0.263
Mof_O 	O 	0.5726	0.3278	0.4114	-0.297
Mof_O 	O 	0.5074	0.3581	0.3197	-0.295
Mof_O 	O 	0.9769	0.8097	0.4784	-0.369
Mof_O 	O 	0.9714	0.625	0.4905	-0.914
Mof_O 	O 	0.8475	0.3357	0.4949	-0.343
Mof_O 	O 	0.9347	0.3996	0.5523	-0.664
Mof_O 	O 	0.8795	0.8263	0.898	-0.343
Mof_O 	O 	0.906	0.6511	0.9006	-0.672
Mof_Cd	Cd	0.5225	0.82465	0.90909	0.454
Mof_Cd	Cd	0.92987	0.25272	0.48905	0.384
Mof_Na	Na	0.02061	0.4875	0.07304	2.265
Mof_C 	C 	0.6019	0.9826	0.9715	0.31
Mof_C 	C 	0.6482	0.0646	0.0118	-0.131
Mof_C 	C 	0.6465	0.0989	0.0632	0.086
Mof_H 	H 	0.6173	0.0723	0.0724	0.029
Mof_C 	C 	0.689	0.1729	0.0997	-0.208
Mof_H 	H 	0.687	0.2001	0.1325	0.112
Mof_C 	C 	0.7335	0.2061	0.0878	0.186
Mof_C 	C 	0.7336	0.1751	0.0371	-0.214
Mof_H 	H 	0.7623	0.2037	0.0277	0.105
Mof_C 	C 	0.6926	0.1032	-0	0.096
Mof_H 	H 	0.6945	0.0799	0.9665	0.012
Mof_C 	C 	0.8001	0.2745	0.1881	0.291
Mof_C 	C 	0.8219	0.3693	0.2211	-0.402
Mof_H 	H 	0.8182	0.4376	0.2024	0.154
Mof_C 	C 	0.8483	0.3669	0.2787	0.316
Mof_H 	H 	0.8644	0.4323	0.2995	-0.165
Mof_C 	C 	0.8521	0.267	0.3085	-0.373
Mof_C 	C 	0.83	0.1729	0.2746	0.279
Mof_H 	H 	0.8322	0.1044	0.2927	-0.063
Mof_C 	C 	0.805	0.1762	0.2158	-0.374
Mof_H 	H 	0.7913	0.1105	0.1946	0.158
Mof_C 	C 	0.8805	0.2629	0.3725	0.514
Mof_C 	C 	0.88	0.5982	0.0326	0.481
Mof_C 	C 	0.8526	0.5157	0.0581	-0.32
Mof_C 	C 	0.8894	0.446	0.1026	0.257
Mof_H 	H 	0.93	0.454	0.1186	-0.175
Mof_C 	C 	0.8654	0.3663	0.1225	-0.337
Mof_H 	H 	0.8898	0.3142	0.1494	0.118
Mof_C 	C 	0.8044	0.3606	0.1033	0.235
Mof_C 	C 	0.7685	0.4349	0.0608	-0.298
Mof_H 	H 	0.728	0.4335	0.048	0.137
Mof_C 	C 	0.7928	0.5111	0.0373	0.211
Mof_H 	H 	0.7687	0.5588	0.0076	-0.032
Mof_C 	C 	0.5549	0.6189	0.8654	0.341
Mof_C 	C 	0.5914	0.5248	0.8609	-0.17
Mof_C 	C 	0.5818	0.4764	0.8101	0.133
Mof_H 	H 	0.5516	0.5036	0.7759	0.001
Mof_C 	C 	0.615	0.3891	0.8075	-0.234
Mof_H 	H 	0.606	0.3557	0.772	0.12
Mof_C 	C 	0.6623	0.3492	0.8574	0.206
Mof_C 	C 	0.6719	0.3956	0.9084	-0.235
Mof_H 	H 	0.7016	0.3665	0.9424	0.117
Mof_C 	C 	0.6391	0.4852	0.912	0.121
Mof_H 	H 	0.6484	0.5188	0.9476	0.003
Mof_C 	C 	0.6664	0.1687	0.814	0.205
Mof_C 	C 	0.6178	0.1247	0.8154	-0.229
Mof_H 	H 	0.6072	0.1508	0.8433	0.125
Mof_C 	C 	0.5839	0.0439	0.7776	0.128
Mof_H 	H 	0.5521	0.0129	0.7812	0.008
Mof_C 	C 	0.5976	0.0088	0.734	-0.175
Mof_C 	C 	0.648	0.0506	0.7344	0.134
Mof_H 	H 	0.6599	0.0237	0.7076	-0.003
Mof_C 	C 	0.6816	0.1316	0.7736	-0.242
Mof_H 	H 	0.7147	0.1604	0.7719	0.112
Mof_C 	C 	0.7596	0.265	0.8815	0.242
Mof_C 	C 	0.7921	0.1638	0.8992	-0.326
Mof_H 	H 	0.7736	0.0943	0.8907	0.153
Mof_C 	C 	0.8513	0.173	0.9289	0.25
Mof_H 	H 	0.8734	0.1075	0.9411	-0.047
Mof_C 	C 	0.8804	0.2724	0.9419	-0.366
Mof_C 	C 	0.848	0.3687	0.927	0.255
Mof_H 	H 	0.8672	0.4373	0.938	-0.14
Mof_C 	C 	0.7867	0.367	0.8959	-0.338
Mof_H 	H 	0.7651	0.4331	0.8853	0.148
Mof_C 	C 	0.9474	0.2824	0.9729	0.494
Mof_C 	C 	0.5563	0.9345	0.6884	0.327
Mof_N 	N 	0.7782	0.281	0.1251	-0.222
Mof_N 	N 	0.6956	0.2594	0.8539	-0.211
Mof_O 	O 	0.5105	0.8956	0.6897	-0.303
Mof_O 	O 	0.5674	0.9098	0.6461	-0.277
Mof_O 	O 	0.5619	0.9508	0.9844	-0.265
Mof_O 	O 	0.6055	0.9437	0.9282	-0.263
Mof_O 	O 	0.5726	0.6722	0.9114	-0.297
Mof_O 	O 	0.5074	0.6419	0.8197	-0.295
Mof_O 	O 	0.9769	0.1903	0.9784	-0.367
Mof_O 	O 	0.9714	0.375	0.9905	-0.912
Mof_O 	O 	0.8475	0.6643	0.9949	-0.341
Mof_O 	O 	0.9347	0.6004	0.0523	-0.662
Mof_O 	O 	0.8795	0.1737	0.398	-0.343
Mof_O 	O 	0.906	0.3489	0.4006	-0.672
Mof_Cd	Cd	0.4775	0.82465	0.59091	0.454
Mof_Cd	Cd	0.07013	0.25272	0.01095	0.381
Mof_Na	Na	0.97939	0.4875	0.42696	2.271
Mof_C 	C 	0.3981	0.9826	0.5285	0.309
Mof_C 	C 	0.3518	0.0646	0.4882	-0.131
Mof_C 	C 	0.3535	0.0989	0.4368	0.087
Mof_H 	H 	0.3827	0.0723	0.4276	0.029
Mof_C 	C 	0.311	0.1729	0.4003	-0.209
Mof_H 	H 	0.313	0.2001	0.3675	0.113
Mof_C 	C 	0.2665	0.2061	0.4122	0.188
Mof_C 	C 	0.2664	0.1751	0.4629	-0.218
Mof_H 	H 	0.2377	0.2037	0.4723	0.107
Mof_C 	C 	0.3074	0.1032	0.5	0.102
Mof_H 	H 	0.3055	0.0799	0.5335	0.009
Mof_C 	C 	0.1999	0.2745	0.3119	0.291
Mof_C 	C 	0.1781	0.3693	0.2789	-0.402
Mof_H 	H 	0.1818	0.4376	0.2976	0.154
Mof_C 	C 	0.1517	0.3669	0.2213	0.316
Mof_H 	H 	0.1356	0.4323	0.2005	-0.165
Mof_C 	C 	0.1479	0.267	0.1915	-0.373
Mof_C 	C 	0.17	0.1729	0.2254	0.279
Mof_H 	H 	0.1678	0.1044	0.2073	-0.063
Mof_C 	C 	0.195	0.1762	0.2842	-0.374
Mof_H 	H 	0.2087	0.1105	0.3054	0.158
Mof_C 	C 	0.1195	0.2629	0.1275	0.514
Mof_C 	C 	0.12	0.5982	0.4674	0.484
Mof_C 	C 	0.1474	0.5157	0.4419	-0.321
Mof_C 	C 	0.1106	0.446	0.3974	0.258
Mof_H 	H 	0.07	0.454	0.3814	-0.175
Mof_C 	C 	0.1346	0.3663	0.3775	-0.338
Mof_H 	H 	0.1102	0.3142	0.3506	0.118
Mof_C 	C 	0.1956	0.3606	0.3967	0.236
Mof_C 	C 	0.2315	0.4349	0.4392	-0.298
Mof_H 	H 	0.272	0.4335	0.452	0.137
Mof_C 	C 	0.2072	0.5111	0.4627	0.213
Mof_H 	H 	0.2313	0.5588	0.4924	-0.032
Mof_C 	C 	0.4451	0.6189	0.6346	0.341
Mof_C 	C 	0.4086	0.5248	0.6391	-0.17
Mof_C 	C 	0.4182	0.4764	0.6899	0.133
Mof_H 	H 	0.4484	0.5036	0.7241	0.001
Mof_C 	C 	0.385	0.3891	0.6925	-0.234
Mof_H 	H 	0.394	0.3557	0.728	0.12
Mof_C 	C 	0.3377	0.3492	0.6426	0.206
Mof_C 	C 	0.3281	0.3956	0.5916	-0.235
Mof_H 	H 	0.2984	0.3665	0.5576	0.116
Mof_C 	C 	0.3609	0.4852	0.588	0.121
Mof_H 	H 	0.3516	0.5188	0.5524	0.002
Mof_C 	C 	0.3336	0.1687	0.686	0.205
Mof_C 	C 	0.3822	0.1247	0.6846	-0.229
Mof_H 	H 	0.3928	0.1508	0.6567	0.125
Mof_C 	C 	0.4161	0.0439	0.7224	0.127
Mof_H 	H 	0.4479	0.0129	0.7188	0.008
Mof_C 	C 	0.4024	0.0088	0.766	-0.174
Mof_C 	C 	0.352	0.0506	0.7656	0.134
Mof_H 	H 	0.3401	0.0237	0.7924	-0.003
Mof_C 	C 	0.3184	0.1316	0.7264	-0.242
Mof_H 	H 	0.2853	0.1604	0.7281	0.112
Mof_C 	C 	0.2404	0.265	0.6185	0.242
Mof_C 	C 	0.2079	0.1638	0.6008	-0.326
Mof_H 	H 	0.2264	0.0943	0.6093	0.153
Mof_C 	C 	0.1487	0.173	0.5711	0.251
Mof_H 	H 	0.1266	0.1075	0.5589	-0.047
Mof_C 	C 	0.1196	0.2724	0.5581	-0.367
Mof_C 	C 	0.152	0.3687	0.573	0.255
Mof_H 	H 	0.1328	0.4373	0.562	-0.141
Mof_C 	C 	0.2133	0.367	0.6041	-0.339
Mof_H 	H 	0.2349	0.4331	0.6147	0.148
Mof_C 	C 	0.0526	0.2824	0.5271	0.494
Mof_C 	C 	0.4437	0.9345	0.8116	0.327
Mof_N 	N 	0.2218	0.281	0.3749	-0.222
Mof_N 	N 	0.3044	0.2594	0.6461	-0.211
Mof_O 	O 	0.4895	0.8956	0.8103	-0.303
Mof_O 	O 	0.4326	0.9098	0.8539	-0.277
Mof_O 	O 	0.4381	0.9508	0.5156	-0.265
Mof_O 	O 	0.3945	0.9437	0.5718	-0.263
Mof_O 	O 	0.4274	0.6722	0.5886	-0.297
Mof_O 	O 	0.4926	0.6419	0.6803	-0.295
Mof_O 	O 	0.0231	0.1903	0.5216	-0.368
Mof_O 	O 	0.0286	0.375	0.5095	-0.914
Mof_O 	O 	0.1525	0.6643	0.5051	-0.343
Mof_O 	O 	0.0653	0.6004	0.4477	-0.664
Mof_O 	O 	0.1205	0.1737	0.102	-0.343
Mof_O 	O 	0.094	0.3489	0.0994	-0.672
Mof_Cd	Cd	0.5	0.2341	0.25	0.43
Mof_Cd	Cd	0.5	0.7659	0.75	0.43
_end
