data_functionalizedCrystal
_audit_creation_method	'EQeq! by Chris Wilmer'
_symmetry_space_group_name_H-M	'P1'
_symmetry_Int_Tables_number	1
_symmetry_cell_setting	triclinic
loop_
_symmetry_equiv_pos_as_xyz
  x,y,z
_cell_length_a	14.7194
_cell_length_b	14.7194
_cell_length_c	27.1139
_cell_angle_alpha	85.9669
_cell_angle_beta	85.9669
_cell_angle_gamma	60.0355
loop_
_atom_site_label
_atom_site_type_symbol
_atom_site_fract_x
_atom_site_fract_y
_atom_site_fract_z
_atom_site_charge
Mof_Cu	Cu	0.63515	0.56303	0.93408	0.917
Mof_Cu	Cu	0.6902	0.7634	0.38447	0.906
Mof_Cu	Cu	0.7634	0.6902	0.88447	0.906
Mof_Cu	Cu	0.81422	0.51124	0.38454	0.918
Mof_Cu	Cu	0.51124	0.81422	0.88454	0.918
Mof_Cu	Cu	0.56303	0.63515	0.43408	0.917
Mof_H 	H 	0.5523	0.4177	0.4535	0.017
Mof_H 	H 	0.2907	0.8215	0.8743	-0
Mof_H 	H 	0.08	0.2904	0.9701	0.044
Mof_H 	H 	0.7647	0.7137	0.6664	0.094
Mof_H 	H 	0.7975	0.6411	0.7539	-0.003
Mof_H 	H 	0.8446	0.3302	0.9303	0.007
Mof_H 	H 	0.8215	0.2907	0.3743	-0
Mof_H 	H 	0.4774	0.979	0.3568	0.007
Mof_H 	H 	0.7716	0.6822	0.5829	0.034
Mof_H 	H 	0.2468	0.092	0.9207	0.012
Mof_H 	H 	0.6241	0.2287	0.4825	0.103
Mof_H 	H 	0.0977	0.6527	0.4682	0.128
Mof_H 	H 	0.3302	0.8446	0.4303	0.007
Mof_H 	H 	0.0975	0.2503	0.937	-0.056
Mof_H 	H 	0.6221	0.5335	0.1067	0.022
Mof_H 	H 	0.6822	0.7716	0.0829	0.034
Mof_H 	H 	0.5335	0.6221	0.6067	0.022
Mof_H 	H 	0.2287	0.6241	0.9825	0.103
Mof_H 	H 	0.7903	0.8989	0.8967	0.001
Mof_H 	H 	0.4177	0.5523	0.9535	0.017
Mof_H 	H 	0.3072	0.6136	0.3248	0.023
Mof_H 	H 	0.0991	0.1481	0.2869	0.092
Mof_H 	H 	0.1294	0.2368	0.4744	0.196
Mof_H 	H 	0.2904	0.08	0.4701	0.044
Mof_H 	H 	0.6506	0.2576	0.9724	0.023
Mof_H 	H 	0.979	0.4774	0.8568	0.007
Mof_H 	H 	0.8989	0.7903	0.3967	0.001
Mof_H 	H 	0.045	0.2284	0.8307	-0.053
Mof_H 	H 	0.0731	0.6193	0.9804	0.021
Mof_H 	H 	0.2368	0.1294	0.9744	0.196
Mof_H 	H 	0.2064	0.0706	0.8375	-0.046
Mof_H 	H 	0.0528	0.4822	0.3847	0.001
Mof_H 	H 	0.2576	0.6506	0.4724	0.023
Mof_H 	H 	0.6527	0.0977	0.9682	0.128
Mof_H 	H 	0.64	0.714	0.9441	0.294
Mof_H 	H 	0.7344	0.0374	0.3386	0.023
Mof_H 	H 	0.1941	0.7379	0.8406	0.099
Mof_H 	H 	0.2503	0.0975	0.437	-0.056
Mof_H 	H 	0.5302	0.6454	0.6911	0.099
Mof_H 	H 	0.0706	0.2064	0.3375	-0.046
Mof_H 	H 	0.7379	0.1941	0.3406	0.099
Mof_H 	H 	0.6411	0.7975	0.2539	-0.003
Mof_H 	H 	0.2284	0.045	0.3307	-0.053
Mof_H 	H 	0.6136	0.3072	0.8248	0.023
Mof_H 	H 	0.1481	0.0991	0.7869	0.092
Mof_H 	H 	0.7761	0.4869	0.2592	0.01
Mof_H 	H 	0.6193	0.0731	0.4804	0.021
Mof_H 	H 	0.7137	0.7647	0.1664	0.094
Mof_H 	H 	0.6142	0.1478	0.8201	0.097
Mof_H 	H 	0.1478	0.6142	0.3201	0.097
Mof_H 	H 	0.0374	0.7344	0.8386	0.023
Mof_H 	H 	0.4869	0.7761	0.7592	0.01
Mof_H 	H 	0.257	0.9982	0.3025	0.022
Mof_H 	H 	0.6454	0.5302	0.1911	0.099
Mof_H 	H 	0.092	0.2468	0.4207	0.012
Mof_H 	H 	0.9982	0.257	0.8025	0.022
Mof_H 	H 	0.714	0.64	0.4441	0.294
Mof_H 	H 	0.4822	0.0528	0.8847	0.001
Mof_C 	C 	0.264	0.0374	0.3708	-0.114
Mof_C 	C 	0.0497	0.2225	0.8267	0.085
Mof_C 	C 	0.1304	0.1374	0.3178	-0.149
Mof_C 	C 	0.67566	0.93886	0.41007	0.323
Mof_C 	C 	0.93886	0.67566	0.91007	0.323
Mof_C 	C 	0.6343	0.1107	0.8943	0.172
Mof_C 	C 	0.2101	0.0823	0.8524	0.178
Mof_C 	C 	0.1893	0.6467	0.9534	-0.172
Mof_C 	C 	0.4637	0.9293	0.375	0.106
Mof_C 	C 	0.62971	0.40031	0.9005	0.324
Mof_C 	C 	0.6553	0.6359	0.53182	0.335
Mof_C 	C 	0.0974	0.6438	0.952	0.08
Mof_C 	C 	0.6756	0.7262	0.26551	0.108
Mof_C 	C 	0.0374	0.264	0.8708	-0.114
Mof_C 	C 	0.2644	0.6216	0.3538	0.077
Mof_C 	C 	0.7181	0.6943	0.6542	-0.169
Mof_C 	C 	0.9894	0.341	0.4076	0.303
Mof_C 	C 	0.1703	0.6221	0.3507	-0.174
Mof_C 	C 	0.2339	0.0897	0.9054	0.18
Mof_C 	C 	0.40813	0.61393	0.93537	0.112
Mof_C 	C 	0.6438	0.0974	0.452	0.08
Mof_C 	C 	0.6833	0.6459	0.18582	0.161
Mof_C 	C 	0.64	0.5812	0.11892	0.081
Mof_C 	C 	0.6448	0.1406	0.9392	-0.184
Mof_C 	C 	0.61393	0.40813	0.43537	0.112
Mof_C 	C 	0.312	0.9788	0.8425	0.306
Mof_C 	C 	0.1979	0.1511	0.9452	-0.184
Mof_C 	C 	0.6548	0.578	0.16891	-0.173
Mof_C 	C 	0.2225	0.0497	0.3267	0.085
Mof_C 	C 	0.2711	0.0493	0.4007	-0.027
Mof_C 	C 	0.9979	0.5529	0.3869	0.135
Mof_C 	C 	0.245	0.105	0.4431	0.073
Mof_C 	C 	0.7119	0.0763	0.3678	0.079
Mof_C 	C 	0.6221	0.1703	0.8507	-0.174
Mof_C 	C 	0.76036	0.33916	0.39235	0.117
Mof_C 	C 	0.105	0.245	0.9431	0.073
Mof_C 	C 	0.6522	0.6508	0.58618	-0.124
Mof_C 	C 	0.6359	0.6553	0.03182	0.335
Mof_C 	C 	0.40031	0.62971	0.4005	0.324
Mof_C 	C 	0.1954	0.1262	0.8964	-0.233
Mof_C 	C 	0.67596	0.04016	0.40956	-0.127
Mof_C 	C 	0.5812	0.64	0.61892	0.081
Mof_C 	C 	0.1687	0.7147	0.869	-0.177
Mof_C 	C 	0.68333	0.22313	0.4117	0.165
Mof_C 	C 	0.22313	0.68333	0.9117	0.165
Mof_C 	C 	0.9293	0.4637	0.875	0.106
Mof_C 	C 	0.7147	0.1687	0.369	-0.177
Mof_C 	C 	0.2186	0.1084	0.4062	0.144
Mof_C 	C 	0.1163	0.1793	0.3644	-0.123
Mof_C 	C 	0.9144	0.7202	0.3933	0.133
Mof_C 	C 	0.55724	0.74904	0.76826	0.11
Mof_C 	C 	0.74904	0.55724	0.26826	0.11
Mof_C 	C 	0.6766	0.721	0.1047	0.075
Mof_C 	C 	0.6216	0.2644	0.8538	0.077
Mof_C 	C 	0.7202	0.9144	0.8933	0.133
Mof_C 	C 	0.6943	0.7181	0.1542	-0.169
Mof_C 	C 	0.2351	0.6437	0.4416	0.086
Mof_C 	C 	0.8564	0.3836	0.9149	0.101
Mof_C 	C 	0.1511	0.1979	0.4452	-0.184
Mof_C 	C 	0.341	0.9894	0.9076	0.303
Mof_C 	C 	0.63251	0.29671	0.8986	-0.127
Mof_C 	C 	0.29671	0.63251	0.3986	-0.127
Mof_C 	C 	0.1084	0.2186	0.9062	0.144
Mof_C 	C 	0.6437	0.2351	0.9416	0.086
Mof_C 	C 	0.33916	0.76036	0.89235	0.117
Mof_C 	C 	0.1107	0.6343	0.3943	0.172
Mof_C 	C 	0.0838	0.209	0.8598	0.13
Mof_C 	C 	0.578	0.6548	0.66891	-0.173
Mof_C 	C 	0.9788	0.312	0.3425	0.306
Mof_C 	C 	0.1793	0.1163	0.8644	-0.123
Mof_C 	C 	0.1374	0.1304	0.8178	-0.149
Mof_C 	C 	0.0897	0.2339	0.4054	0.18
Mof_C 	C 	0.6459	0.6833	0.68582	0.161
Mof_C 	C 	0.3836	0.8564	0.4149	0.101
Mof_C 	C 	0.1406	0.6448	0.4392	-0.183
Mof_C 	C 	0.6508	0.6522	0.08618	-0.124
Mof_C 	C 	0.0823	0.2101	0.3524	0.178
Mof_C 	C 	0.0493	0.2711	0.9007	-0.027
Mof_C 	C 	0.5529	0.9979	0.8869	0.135
Mof_C 	C 	0.721	0.6766	0.6047	0.075
Mof_C 	C 	0.6467	0.1893	0.4534	-0.172
Mof_C 	C 	0.209	0.0838	0.3598	0.13
Mof_C 	C 	0.04016	0.67596	0.90956	-0.127
Mof_C 	C 	0.0763	0.7119	0.8678	0.079
Mof_C 	C 	0.1262	0.1954	0.3964	-0.233
Mof_C 	C 	0.7262	0.6756	0.76551	0.108
Mof_N 	N 	0.47871	0.64251	0.92785	-0.184
Mof_N 	N 	0.64251	0.47871	0.42785	-0.184
Mof_N 	N 	0.31888	0.68568	0.91328	-0.164
Mof_N 	N 	0.48377	0.78897	0.4144	-0.187
Mof_N 	N 	0.78897	0.48377	0.9144	-0.187
Mof_N 	N 	0.64295	0.70115	0.7372	-0.162
Mof_N 	N 	0.63575	0.01155	0.8913	-0.164
Mof_N 	N 	0.89846	0.58386	0.38605	-0.187
Mof_N 	N 	0.8363	0.5343	0.88896	-0.192
Mof_N 	N 	0.68568	0.31888	0.41328	-0.164
Mof_N 	N 	0.73621	0.43401	0.40064	-0.192
Mof_N 	N 	0.01155	0.63575	0.3913	-0.164
Mof_N 	N 	0.94589	0.36729	0.8899	-0.115
Mof_N 	N 	0.5343	0.8363	0.38896	-0.192
Mof_N 	N 	0.694	0.705	0.81074	-0.171
Mof_N 	N 	0.58511	0.75271	0.81231	-0.173
Mof_N 	N 	0.58386	0.89846	0.88605	-0.187
Mof_N 	N 	0.70115	0.64295	0.2372	-0.162
Mof_N 	N 	0.75271	0.58511	0.31231	-0.173
Mof_N 	N 	0.36729	0.94589	0.3899	-0.115
Mof_N 	N 	0.84445	0.69105	0.3898	-0.192
Mof_N 	N 	0.69105	0.84445	0.8898	-0.192
Mof_N 	N 	0.705	0.694	0.31074	-0.171
Mof_N 	N 	0.43401	0.73621	0.90064	-0.192
Mof_O 	O 	0.62411	0.45211	0.86149	-0.298
Mof_O 	O 	0.37924	0.94224	0.87169	-0.516
Mof_O 	O 	0.62993	0.58093	0.01492	-0.352
Mof_O 	O 	0.1119	0.2941	0.5026	-0.199
Mof_O 	O 	0.89765	0.68725	0.86798	-0.377
Mof_O 	O 	0.66543	0.89763	0.44962	-0.301
Mof_O 	O 	0.9602	0.3844	0.4468	-0.281
Mof_O 	O 	0.69516	0.63576	0.41616	-0.733
Mof_O 	O 	0.68725	0.89765	0.36798	-0.377
Mof_O 	O 	0.63549	0.42889	0.943	-0.377
Mof_O 	O 	0.42889	0.63549	0.443	-0.377
Mof_O 	O 	0.2941	0.1119	0.0026	-0.199
Mof_O 	O 	0.73168	0.63268	0.50633	-0.297
Mof_O 	O 	0.9317	0.3247	0.3039	-0.262
Mof_O 	O 	0.63268	0.73168	0.00633	-0.297
Mof_O 	O 	0.58093	0.62993	0.51492	-0.352
Mof_O 	O 	0.63576	0.69516	0.91616	-0.733
Mof_O 	O 	0.89763	0.66543	0.94962	-0.301
Mof_O 	O 	0.94224	0.37924	0.37169	-0.516
Mof_O 	O 	0.45211	0.62411	0.36149	-0.298
Mof_O 	O 	0.3247	0.9317	0.8039	-0.262
Mof_O 	O 	0.3844	0.9602	0.9468	-0.281
Mof_Cu	Cu	0.48876	0.18578	0.11546	0.919
Mof_Cu	Cu	0.43697	0.36485	0.56592	0.918
Mof_Cu	Cu	0.36485	0.43697	0.06592	0.918
Mof_Cu	Cu	0.3098	0.2366	0.61553	0.907
Mof_Cu	Cu	0.2366	0.3098	0.11553	0.907
Mof_Cu	Cu	0.18578	0.48876	0.61546	0.919
Mof_H 	H 	0.3779	0.4665	0.8933	0.022
Mof_H 	H 	0.4477	0.5823	0.5465	0.017
Mof_H 	H 	0.7936	0.9294	0.1625	-0.046
Mof_H 	H 	0.021	0.5226	0.1432	0.007
Mof_H 	H 	0.7497	0.9025	0.563	-0.056
Mof_H 	H 	0.7632	0.8706	0.0256	0.196
Mof_H 	H 	0.2025	0.3589	0.2461	-0.003
Mof_H 	H 	0.5131	0.2239	0.2408	0.01
Mof_H 	H 	0.9294	0.7936	0.6625	-0.046
Mof_H 	H 	0.5178	0.9472	0.1153	0.001
Mof_H 	H 	0.286	0.36	0.5559	0.294
Mof_H 	H 	0.7093	0.1785	0.1257	-0
Mof_H 	H 	0.9472	0.5178	0.6153	0.001
Mof_H 	H 	0.3546	0.4698	0.8089	0.099
Mof_H 	H 	0.1785	0.7093	0.6257	-0
Mof_H 	H 	0.5823	0.4477	0.0465	0.017
Mof_H 	H 	0.0018	0.743	0.1975	0.022
Mof_H 	H 	0.3864	0.6928	0.1752	0.023
Mof_H 	H 	0.8059	0.2621	0.1594	0.099
Mof_H 	H 	0.7716	0.955	0.6693	-0.053
Mof_H 	H 	0.3473	0.9023	0.0318	0.128
Mof_H 	H 	0.2284	0.3178	0.4171	0.034
Mof_H 	H 	0.7532	0.908	0.0793	0.012
Mof_H 	H 	0.3759	0.7713	0.5175	0.103
Mof_H 	H 	0.6698	0.1554	0.5697	0.007
Mof_H 	H 	0.8522	0.3858	0.6799	0.097
Mof_H 	H 	0.92	0.7096	0.0299	0.044
Mof_H 	H 	0.2097	0.1011	0.1033	0.001
Mof_H 	H 	0.3494	0.7424	0.0276	0.023
Mof_H 	H 	0.3178	0.2284	0.9171	0.034
Mof_H 	H 	0.1554	0.6698	0.0697	0.007
Mof_H 	H 	0.3589	0.2025	0.7461	-0.003
Mof_H 	H 	0.1011	0.2097	0.6033	0.001
Mof_H 	H 	0.6928	0.3864	0.6752	0.023
Mof_H 	H 	0.2656	0.9626	0.6614	0.023
Mof_H 	H 	0.9025	0.7497	0.063	-0.056
Mof_H 	H 	0.908	0.7532	0.5793	0.012
Mof_H 	H 	0.7096	0.92	0.5299	0.044
Mof_H 	H 	0.743	0.0018	0.6975	0.022
Mof_H 	H 	0.8519	0.9009	0.2131	0.092
Mof_H 	H 	0.9009	0.8519	0.7131	0.092
Mof_H 	H 	0.3807	0.9269	0.5196	0.021
Mof_H 	H 	0.955	0.7716	0.1693	-0.053
Mof_H 	H 	0.2863	0.2353	0.8336	0.094
Mof_H 	H 	0.3858	0.8522	0.1799	0.097
Mof_H 	H 	0.2239	0.5131	0.7408	0.01
Mof_H 	H 	0.7713	0.3759	0.0175	0.103
Mof_H 	H 	0.2621	0.8059	0.6594	0.099
Mof_H 	H 	0.2353	0.2863	0.3336	0.094
Mof_H 	H 	0.9626	0.2656	0.1614	0.023
Mof_H 	H 	0.36	0.286	0.0559	0.294
Mof_H 	H 	0.9023	0.3473	0.5318	0.128
Mof_H 	H 	0.4698	0.3546	0.3089	0.099
Mof_H 	H 	0.5226	0.021	0.6432	0.007
Mof_H 	H 	0.7424	0.3494	0.5276	0.023
Mof_H 	H 	0.9269	0.3807	0.0196	0.021
Mof_H 	H 	0.4665	0.3779	0.3933	0.022
Mof_H 	H 	0.8706	0.7632	0.5256	0.196
Mof_C 	C 	0.0021	0.4471	0.6131	0.135
Mof_C 	C 	0.9103	0.7661	0.5946	0.18
Mof_C 	C 	0.59187	0.38607	0.06463	0.112
Mof_C 	C 	0.2819	0.3057	0.3458	-0.169
Mof_C 	C 	0.8916	0.7814	0.0938	0.144
Mof_C 	C 	0.3492	0.3478	0.91382	-0.124
Mof_C 	C 	0.7775	0.9503	0.6733	0.085
Mof_C 	C 	0.36	0.4188	0.88108	0.081
Mof_C 	C 	0.77687	0.31667	0.0883	0.165
Mof_C 	C 	0.9177	0.7899	0.6476	0.178
Mof_C 	C 	0.3657	0.8893	0.1057	0.172
Mof_C 	C 	0.2738	0.3244	0.23449	0.108
Mof_C 	C 	0.70329	0.36749	0.6014	-0.127
Mof_C 	C 	0.32434	0.06114	0.58993	0.323
Mof_C 	C 	0.7661	0.9103	0.0946	0.18
Mof_C 	C 	0.3533	0.8107	0.5466	-0.172
Mof_C 	C 	0.9507	0.7289	0.0993	-0.027
Mof_C 	C 	0.895	0.755	0.0569	0.073
Mof_C 	C 	0.9026	0.3562	0.048	0.08
Mof_C 	C 	0.3447	0.3641	0.46818	0.335
Mof_C 	C 	0.3784	0.7356	0.1462	0.077
Mof_C 	C 	0.8594	0.3552	0.5608	-0.183
Mof_C 	C 	0.7356	0.3784	0.6462	0.077
Mof_C 	C 	0.8107	0.3533	0.0466	-0.172
Mof_C 	C 	0.3779	0.8297	0.1493	-0.174
Mof_C 	C 	0.3234	0.279	0.8953	0.075
Mof_C 	C 	0.9626	0.736	0.1292	-0.114
Mof_C 	C 	0.755	0.895	0.5569	0.073
Mof_C 	C 	0.7899	0.9177	0.1476	0.178
Mof_C 	C 	0.8046	0.8738	0.1036	-0.233
Mof_C 	C 	0.95984	0.32404	0.09044	-0.127
Mof_C 	C 	0.25096	0.44276	0.73174	0.11
Mof_C 	C 	0.37029	0.59969	0.0995	0.324
Mof_C 	C 	0.06114	0.32434	0.08993	0.323
Mof_C 	C 	0.0707	0.5363	0.125	0.106
Mof_C 	C 	0.3452	0.422	0.83109	-0.173
Mof_C 	C 	0.38607	0.59187	0.56463	0.112
Mof_C 	C 	0.8313	0.2853	0.131	-0.177
Mof_C 	C 	0.32404	0.95984	0.59044	-0.127
Mof_C 	C 	0.3478	0.3492	0.41382	-0.124
Mof_C 	C 	0.9503	0.7775	0.1733	0.085
Mof_C 	C 	0.8738	0.8046	0.6036	-0.233
Mof_C 	C 	0.3057	0.2819	0.8458	-0.169
Mof_C 	C 	0.8837	0.8207	0.6356	-0.123
Mof_C 	C 	0.23964	0.66084	0.60765	0.117
Mof_C 	C 	0.791	0.9162	0.6402	0.13
Mof_C 	C 	0.59969	0.37029	0.5995	0.324
Mof_C 	C 	0.8626	0.8696	0.1822	-0.149
Mof_C 	C 	0.7649	0.3563	0.5584	0.086
Mof_C 	C 	0.8696	0.8626	0.6822	-0.149
Mof_C 	C 	0.0106	0.659	0.5924	0.303
Mof_C 	C 	0.659	0.0106	0.0924	0.303
Mof_C 	C 	0.7814	0.8916	0.5938	0.144
Mof_C 	C 	0.3563	0.7649	0.0584	0.086
Mof_C 	C 	0.422	0.3452	0.33109	-0.173
Mof_C 	C 	0.9237	0.2881	0.1322	0.079
Mof_C 	C 	0.8489	0.8021	0.5548	-0.184
Mof_C 	C 	0.8207	0.8837	0.1356	-0.123
Mof_C 	C 	0.3562	0.9026	0.548	0.08
Mof_C 	C 	0.8297	0.3779	0.6493	-0.174
Mof_C 	C 	0.3244	0.2738	0.73449	0.108
Mof_C 	C 	0.9162	0.791	0.1402	0.13
Mof_C 	C 	0.0856	0.2798	0.6067	0.133
Mof_C 	C 	0.0212	0.688	0.6575	0.306
Mof_C 	C 	0.4188	0.36	0.38108	0.081
Mof_C 	C 	0.3641	0.3447	0.96818	0.335
Mof_C 	C 	0.1436	0.6164	0.0851	0.101
Mof_C 	C 	0.2853	0.8313	0.631	-0.177
Mof_C 	C 	0.31667	0.77687	0.5883	0.165
Mof_C 	C 	0.3552	0.8594	0.0608	-0.184
Mof_C 	C 	0.688	0.0212	0.1575	0.306
Mof_C 	C 	0.4471	0.0021	0.1131	0.135
Mof_C 	C 	0.3167	0.3541	0.81418	0.161
Mof_C 	C 	0.7289	0.9507	0.5993	-0.027
Mof_C 	C 	0.3541	0.3167	0.31418	0.161
Mof_C 	C 	0.2798	0.0856	0.1067	0.133
Mof_C 	C 	0.8021	0.8489	0.0548	-0.184
Mof_C 	C 	0.5363	0.0707	0.625	0.106
Mof_C 	C 	0.736	0.9626	0.6292	-0.114
Mof_C 	C 	0.36749	0.70329	0.1014	-0.127
Mof_C 	C 	0.44276	0.25096	0.23174	0.11
Mof_C 	C 	0.279	0.3234	0.3953	0.075
Mof_C 	C 	0.6164	0.1436	0.5851	0.101
Mof_C 	C 	0.8893	0.3657	0.6057	0.172
Mof_C 	C 	0.2881	0.9237	0.6322	0.079
Mof_C 	C 	0.66084	0.23964	0.10765	0.117
Mof_N 	N 	0.306	0.295	0.18926	-0.171
Mof_N 	N 	0.36425	0.98845	0.1087	-0.164
Mof_N 	N 	0.31432	0.68112	0.58672	-0.164
Mof_N 	N 	0.30895	0.15555	0.1102	-0.192
Mof_N 	N 	0.10154	0.41614	0.61395	-0.187
Mof_N 	N 	0.68112	0.31432	0.08672	-0.164
Mof_N 	N 	0.05411	0.63271	0.1101	-0.115
Mof_N 	N 	0.41614	0.10154	0.11395	-0.187
Mof_N 	N 	0.52129	0.35749	0.07215	-0.184
Mof_N 	N 	0.26379	0.56599	0.59936	-0.192
Mof_N 	N 	0.24729	0.41489	0.68769	-0.173
Mof_N 	N 	0.51623	0.21103	0.5856	-0.187
Mof_N 	N 	0.4657	0.1637	0.61104	-0.192
Mof_N 	N 	0.15555	0.30895	0.6102	-0.192
Mof_N 	N 	0.35705	0.29885	0.2628	-0.162
Mof_N 	N 	0.41489	0.24729	0.18769	-0.173
Mof_N 	N 	0.98845	0.36425	0.6087	-0.164
Mof_N 	N 	0.21103	0.51623	0.0856	-0.187
Mof_N 	N 	0.295	0.306	0.68926	-0.171
Mof_N 	N 	0.29885	0.35705	0.7628	-0.162
Mof_N 	N 	0.63271	0.05411	0.6101	-0.115
Mof_N 	N 	0.1637	0.4657	0.11104	-0.192
Mof_N 	N 	0.56599	0.26379	0.09936	-0.192
Mof_N 	N 	0.35749	0.52129	0.57215	-0.184
Mof_O 	O 	0.57111	0.36451	0.557	-0.377
Mof_O 	O 	0.8881	0.7059	0.4974	-0.199
Mof_O 	O 	0.62076	0.05776	0.12831	-0.516
Mof_O 	O 	0.6156	0.0398	0.0532	-0.281
Mof_O 	O 	0.26832	0.36732	0.49367	-0.297
Mof_O 	O 	0.36732	0.26832	0.99367	-0.297
Mof_O 	O 	0.05776	0.62076	0.62831	-0.516
Mof_O 	O 	0.36451	0.57111	0.057	-0.377
Mof_O 	O 	0.0683	0.6753	0.6961	-0.262
Mof_O 	O 	0.33457	0.10237	0.55038	-0.301
Mof_O 	O 	0.54789	0.37589	0.63851	-0.298
Mof_O 	O 	0.37589	0.54789	0.13851	-0.298
Mof_O 	O 	0.6753	0.0683	0.1961	-0.262
Mof_O 	O 	0.37007	0.41907	0.98508	-0.352
Mof_O 	O 	0.7059	0.8881	0.9974	-0.199
Mof_O 	O 	0.36424	0.30484	0.08384	-0.733
Mof_O 	O 	0.10235	0.31275	0.13202	-0.377
Mof_O 	O 	0.41907	0.37007	0.48508	-0.352
Mof_O 	O 	0.31275	0.10235	0.63202	-0.377
Mof_O 	O 	0.30484	0.36424	0.58384	-0.733
Mof_O 	O 	0.0398	0.6156	0.5532	-0.281
Mof_O 	O 	0.10237	0.33457	0.05038	-0.301
_end
