data_functionalizedCrystal
_audit_creation_method	'EQeq! by Chris Wilmer'
_symmetry_space_group_name_H-M	'P1'
_symmetry_Int_Tables_number	1
_symmetry_cell_setting	triclinic
loop_
_symmetry_equiv_pos_as_xyz
  x,y,z
_cell_length_a	9.72
_cell_length_b	9.72
_cell_length_c	15.7262
_cell_angle_alpha	92.7414
_cell_angle_beta	92.7414
_cell_angle_gamma	99.086
loop_
_atom_site_label
_atom_site_type_symbol
_atom_site_fract_x
_atom_site_fract_y
_atom_site_fract_z
_atom_site_charge
Mof_La	La	0.01171	0.98829	0.75	1.744
Mof_La	La	0.98829	0.01171	0.25	1.744
Mof_P 	P 	0.35714	0.04578	0.64359	0.415
Mof_P 	P 	0.6481	0.97366	0.65131	0.416
Mof_P 	P 	0.95422	0.64286	0.85641	0.415
Mof_P 	P 	0.02634	0.3519	0.84869	0.417
Mof_P 	P 	0.64286	0.95422	0.35641	0.415
Mof_P 	P 	0.3519	0.02634	0.34869	0.416
Mof_P 	P 	0.04578	0.35714	0.14359	0.415
Mof_P 	P 	0.97366	0.6481	0.15131	0.417
Mof_H 	H 	0.4788	0.1596	0.8111	0.134
Mof_H 	H 	0.6347	0.1261	0.8106	0.125
Mof_H 	H 	0.5815	0.2245	0.7416	0.126
Mof_H 	H 	0.511	0.821	0.763	0.135
Mof_H 	H 	0.8404	0.5212	0.6889	0.134
Mof_H 	H 	0.8739	0.3653	0.6894	0.124
Mof_H 	H 	0.7755	0.4185	0.7584	0.125
Mof_H 	H 	0.179	0.489	0.737	0.135
Mof_H 	H 	0.5212	0.8404	0.1889	0.134
Mof_H 	H 	0.3653	0.8739	0.1894	0.125
Mof_H 	H 	0.4185	0.7755	0.2584	0.126
Mof_H 	H 	0.489	0.179	0.237	0.135
Mof_H 	H 	0.1596	0.4788	0.3111	0.134
Mof_H 	H 	0.1261	0.6347	0.3106	0.124
Mof_H 	H 	0.2245	0.5815	0.2416	0.125
Mof_H 	H 	0.821	0.511	0.263	0.135
Mof_Ru	Ru	0.54646	0.11972	0.50209	0.859
Mof_Ru	Ru	0.88028	0.45354	0.99791	0.859
Mof_Ru	Ru	0.45354	0.88028	0.49791	0.859
Mof_Ru	Ru	0.11972	0.54646	0.00209	0.859
Mof_C 	C 	0.50419	0.01501	0.71435	0.026
Mof_C 	C 	0.55427	0.14273	0.77486	-0.36
Mof_C 	C 	0.98499	0.49581	0.78565	0.025
Mof_C 	C 	0.85727	0.44573	0.72514	-0.358
Mof_C 	C 	0.49581	0.98499	0.28565	0.026
Mof_C 	C 	0.44573	0.85727	0.22514	-0.36
Mof_C 	C 	0.01501	0.50419	0.21435	0.025
Mof_C 	C 	0.14273	0.55427	0.27486	-0.358
Mof_O 	O 	0.41187	0.16827	0.58897	-0.384
Mof_O 	O 	0.31161	0.91155	0.58512	-0.406
Mof_O 	O 	0.24148	0.07834	0.6973	-0.432
Mof_O 	O 	0.68985	0.10061	0.59704	-0.414
Mof_O 	O 	0.59164	0.84398	0.59211	-0.384
Mof_O 	O 	0.76628	0.94954	0.71056	-0.453
Mof_O 	O 	0.45009	0.89809	0.76346	-0.275
Mof_O 	O 	0.83173	0.58813	0.91103	-0.384
Mof_O 	O 	0.08845	0.68839	0.91488	-0.407
Mof_O 	O 	0.92166	0.75852	0.8027	-0.433
Mof_O 	O 	0.89939	0.31015	0.90296	-0.414
Mof_O 	O 	0.15602	0.40836	0.90789	-0.384
Mof_O 	O 	0.05046	0.23372	0.78944	-0.452
Mof_O 	O 	0.10191	0.54991	0.73654	-0.274
Mof_O 	O 	0.58813	0.83173	0.41103	-0.384
Mof_O 	O 	0.68839	0.08845	0.41488	-0.406
Mof_O 	O 	0.75852	0.92166	0.3027	-0.432
Mof_O 	O 	0.31015	0.89939	0.40296	-0.414
Mof_O 	O 	0.40836	0.15602	0.40789	-0.384
Mof_O 	O 	0.23372	0.05046	0.28944	-0.453
Mof_O 	O 	0.54991	0.10191	0.23654	-0.275
Mof_O 	O 	0.16827	0.41187	0.08897	-0.384
Mof_O 	O 	0.91155	0.31161	0.08512	-0.407
Mof_O 	O 	0.07834	0.24148	0.1973	-0.433
Mof_O 	O 	0.10061	0.68985	0.09704	-0.414
Mof_O 	O 	0.84398	0.59164	0.09211	-0.384
Mof_O 	O 	0.94954	0.76628	0.21056	-0.452
Mof_O 	O 	0.89809	0.45009	0.26346	-0.274
_end
