data_functionalizedCrystal
_audit_creation_method	'EQeq! by Chris Wilmer'
_symmetry_space_group_name_H-M	'P1'
_symmetry_Int_Tables_number	1
_symmetry_cell_setting	triclinic
loop_
_symmetry_equiv_pos_as_xyz
  x,y,z
_cell_length_a	22.4004
_cell_length_b	22.4004
_cell_length_c	22.4004
_cell_angle_alpha	109.471
_cell_angle_beta	109.471
_cell_angle_gamma	109.471
loop_
_atom_site_label
_atom_site_type_symbol
_atom_site_fract_x
_atom_site_fract_y
_atom_site_fract_z
_atom_site_charge
Mof_Cu	Cu	0.90816	0.50563	-0	0.914
Mof_Cu	Cu	0.50563	0.90816	-0	0.914
Mof_Cu	Cu	0.49437	0.49437	0.40253	0.914
Mof_Cu	Cu	0.09184	0.09184	0.59747	0.912
Mof_Cu	Cu	0.40253	0.49437	0.49437	0.914
Mof_Cu	Cu	0.59747	0.09184	0.09184	0.911
Mof_Cu	Cu	9.19728e-17	0.90816	0.50563	0.913
Mof_Cu	Cu	7.88338e-17	0.50563	0.90816	0.913
Mof_Cu	Cu	0.90816	0	0.50563	0.913
Mof_Cu	Cu	0.50563	-5.25559e-17	0.90816	0.913
Mof_Cu	Cu	0.09184	0.59747	0.09184	0.911
Mof_Cu	Cu	0.49437	0.40253	0.49437	0.913
Mof_Cu	Cu	0.55187	0	0.55187	0.901
Mof_Cu	Cu	0.44813	0	0.44813	0.899
Mof_Cu	Cu	0.55187	0.55187	-0	0.901
Mof_Cu	Cu	0.44813	0.44813	-0	0.899
Mof_Cu	Cu	3.94169e-17	0.44813	0.44813	0.899
Mof_Cu	Cu	5.25559e-17	0.55187	0.55187	0.901
Mof_H 	H 	0.7461	0.4018	0.8531	0.012
Mof_H 	H 	0.5487	0.893	0.1469	0.004
Mof_H 	H 	0.4513	0.5982	0.3443	0.007
Mof_H 	H 	0.2539	0.107	0.6557	0.008
Mof_H 	H 	0.3443	0.4513	0.5982	0.007
Mof_H 	H 	0.6557	0.2539	0.107	0.008
Mof_H 	H 	0.8531	0.7461	0.4018	0.012
Mof_H 	H 	0.1469	0.5487	0.893	0.004
Mof_H 	H 	0.893	0.1469	0.5487	0.004
Mof_H 	H 	0.4018	0.8531	0.7461	0.012
Mof_H 	H 	0.107	0.6557	0.2539	0.008
Mof_H 	H 	0.5982	0.3443	0.4513	0.007
Mof_H 	H 	0.893	0.5487	0.1469	0.004
Mof_H 	H 	0.4018	0.7461	0.8531	0.012
Mof_H 	H 	0.107	0.2539	0.6557	0.008
Mof_H 	H 	0.5982	0.4513	0.3443	0.007
Mof_H 	H 	0.7461	0.8531	0.4018	0.012
Mof_H 	H 	0.5487	0.1469	0.893	0.004
Mof_H 	H 	0.4513	0.3443	0.5982	0.007
Mof_H 	H 	0.2539	0.6557	0.107	0.008
Mof_H 	H 	0.3443	0.5982	0.4513	0.007
Mof_H 	H 	0.6557	0.107	0.2539	0.008
Mof_H 	H 	0.8531	0.4018	0.7461	0.012
Mof_H 	H 	0.1469	0.893	0.5487	0.004
Mof_H 	H 	0.5301	0.2304	0.5301	0.074
Mof_H 	H 	0.6914	0.2366	0.6914	0.086
Mof_H 	H 	0.7024	0.4248	0.7024	0.094
Mof_H 	H 	0.7003	0	0.4699	0.073
Mof_H 	H 	0.5452	-2.62779e-17	0.3086	0.08
Mof_H 	H 	0.7224	0	0.2976	0.088
Mof_H 	H 	0.2997	0.7696	0.2997	0.076
Mof_H 	H 	0.4548	0.7634	0.4548	0.086
Mof_H 	H 	0.2776	0.5752	0.2776	0.089
Mof_H 	H 	0.4699	0	0.7003	0.073
Mof_H 	H 	0.3086	0	0.5452	0.08
Mof_H 	H 	0.2976	0	0.7224	0.088
Mof_H 	H 	0.2997	0.2997	0.7696	0.076
Mof_H 	H 	0.4548	0.4548	0.7634	0.086
Mof_H 	H 	0.2776	0.2776	0.5752	0.089
Mof_H 	H 	0.7003	0.4699	-0	0.073
Mof_H 	H 	0.5452	0.3086	-0	0.08
Mof_H 	H 	0.7224	0.2976	-0	0.088
Mof_H 	H 	0.5301	0.5301	0.2304	0.074
Mof_H 	H 	0.6914	0.6914	0.2366	0.086
Mof_H 	H 	0.7024	0.7024	0.4248	0.094
Mof_H 	H 	0.4699	0.7003	-0	0.073
Mof_H 	H 	0.3086	0.5452	-0	0.08
Mof_H 	H 	0.2976	0.7224	-0	0.088
Mof_H 	H 	-1.3139e-17	0.4699	0.7003	0.073
Mof_H 	H 	1.3139e-17	0.3086	0.5452	0.08
Mof_H 	H 	2.62779e-17	0.2976	0.7224	0.088
Mof_H 	H 	0.2304	0.5301	0.5301	0.074
Mof_H 	H 	0.2366	0.6914	0.6914	0.086
Mof_H 	H 	0.4248	0.7024	0.7024	0.094
Mof_H 	H 	1.3139e-17	0.7003	0.4699	0.073
Mof_H 	H 	-1.3139e-17	0.5452	0.3086	0.08
Mof_H 	H 	-1.3139e-17	0.7224	0.2976	0.088
Mof_H 	H 	0.7696	0.2997	0.2997	0.076
Mof_H 	H 	0.7634	0.4548	0.4548	0.086
Mof_H 	H 	0.5752	0.2776	0.2776	0.089
Mof_H 	H 	2.62779e-17	0.474	-0	0.237
Mof_H 	H 	0.474	0	-0	0.237
Mof_H 	H 	0.526	0.526	0.526	0.245
Mof_H 	H 	1.3139e-17	0	0.474	0.237
Mof_C 	C 	0.78464	0.40886	0.8423	0.122
Mof_C 	C 	0.56656	0.94234	0.1577	0.14
Mof_C 	C 	0.43344	0.59114	0.37578	0.119
Mof_C 	C 	0.21536	0.05766	0.62422	0.117
Mof_C 	C 	0.37578	0.43344	0.59114	0.119
Mof_C 	C 	0.62422	0.21536	0.05766	0.117
Mof_C 	C 	0.8423	0.78464	0.40886	0.122
Mof_C 	C 	0.1577	0.56656	0.94234	0.14
Mof_C 	C 	0.94234	0.1577	0.56656	0.14
Mof_C 	C 	0.40886	0.8423	0.78464	0.122
Mof_C 	C 	0.05766	0.62422	0.21536	0.117
Mof_C 	C 	0.59114	0.37578	0.43344	0.119
Mof_C 	C 	0.94234	0.56656	0.1577	0.14
Mof_C 	C 	0.40886	0.78464	0.8423	0.122
Mof_C 	C 	0.05766	0.21536	0.62422	0.117
Mof_C 	C 	0.59114	0.43344	0.37578	0.119
Mof_C 	C 	0.78464	0.8423	0.40886	0.122
Mof_C 	C 	0.56656	0.1577	0.94234	0.14
Mof_C 	C 	0.43344	0.37578	0.59114	0.119
Mof_C 	C 	0.21536	0.62422	0.05766	0.117
Mof_C 	C 	0.37578	0.59114	0.43344	0.119
Mof_C 	C 	0.62422	0.05766	0.21536	0.117
Mof_C 	C 	0.8423	0.40886	0.78464	0.122
Mof_C 	C 	0.1577	0.94234	0.56656	0.14
Mof_C 	C 	0.58023	0.37286	0.58023	0.283
Mof_C 	C 	0.61129	0.333	0.61129	-0.018
Mof_C 	C 	0.57498	0.25792	0.57498	-0.028
Mof_C 	C 	0.60683	0.22106	0.60683	-0.031
Mof_C 	C 	0.67042	0.26006	0.67042	-0.081
Mof_C 	C 	0.70536	0.33778	0.70536	0.11
Mof_C 	C 	0.67733	0.37286	0.67733	-0.098
Mof_C 	C 	0.56569	0.13898	0.56569	0.33
Mof_C 	C 	0.79263	-2.62779e-17	0.41977	0.283
Mof_C 	C 	0.72171	-2.62779e-17	0.38871	-0.022
Mof_C 	C 	0.68294	-2.62779e-17	0.42502	-0.027
Mof_C 	C 	0.61423	-2.62779e-17	0.39317	-0.035
Mof_C 	C 	0.58964	-2.62779e-17	0.32958	-0.08
Mof_C 	C 	0.63242	0	0.29464	0.104
Mof_C 	C 	0.69553	0	0.32267	-0.097
Mof_C 	C 	0.57329	-2.62779e-17	0.43431	0.329
Mof_C 	C 	0.20737	0.62714	0.20737	0.284
Mof_C 	C 	0.27829	0.667	0.27829	-0.02
Mof_C 	C 	0.31706	0.74208	0.31706	-0.027
Mof_C 	C 	0.38577	0.77894	0.38577	-0.029
Mof_C 	C 	0.41036	0.73994	0.41036	-0.081
Mof_C 	C 	0.36758	0.66222	0.36758	0.108
Mof_C 	C 	0.30447	0.62714	0.30447	-0.097
Mof_C 	C 	0.42671	0.86102	0.42671	0.328
Mof_C 	C 	0.41977	0	0.79263	0.283
Mof_C 	C 	0.38871	-5.25559e-17	0.72171	-0.022
Mof_C 	C 	0.42502	-5.25559e-17	0.68294	-0.027
Mof_C 	C 	0.39317	0	0.61423	-0.035
Mof_C 	C 	0.32958	0	0.58964	-0.08
Mof_C 	C 	0.29464	-5.25559e-17	0.63242	0.104
Mof_C 	C 	0.32267	-5.25559e-17	0.69553	-0.097
Mof_C 	C 	0.43431	0	0.57329	0.329
Mof_C 	C 	0.20737	0.20737	0.62714	0.284
Mof_C 	C 	0.27829	0.27829	0.667	-0.02
Mof_C 	C 	0.31706	0.31706	0.74208	-0.027
Mof_C 	C 	0.38577	0.38577	0.77894	-0.029
Mof_C 	C 	0.41036	0.41036	0.73994	-0.081
Mof_C 	C 	0.36758	0.36758	0.66222	0.108
Mof_C 	C 	0.30447	0.30447	0.62714	-0.097
Mof_C 	C 	0.42671	0.42671	0.86102	0.328
Mof_C 	C 	0.79263	0.41977	-0	0.283
Mof_C 	C 	0.72171	0.38871	-0	-0.022
Mof_C 	C 	0.68294	0.42502	-0	-0.027
Mof_C 	C 	0.61423	0.39317	-0	-0.035
Mof_C 	C 	0.58964	0.32958	-0	-0.08
Mof_C 	C 	0.63242	0.29464	-0	0.104
Mof_C 	C 	0.69553	0.32267	-0	-0.097
Mof_C 	C 	0.57329	0.43431	-0	0.329
Mof_C 	C 	0.58023	0.58023	0.37286	0.283
Mof_C 	C 	0.61129	0.61129	0.333	-0.018
Mof_C 	C 	0.57498	0.57498	0.25792	-0.028
Mof_C 	C 	0.60683	0.60683	0.22106	-0.031
Mof_C 	C 	0.67042	0.67042	0.26006	-0.081
Mof_C 	C 	0.70536	0.70536	0.33778	0.11
Mof_C 	C 	0.67733	0.67733	0.37286	-0.098
Mof_C 	C 	0.56569	0.56569	0.13898	0.33
Mof_C 	C 	0.41977	0.79263	-0	0.283
Mof_C 	C 	0.38871	0.72171	-0	-0.022
Mof_C 	C 	0.42502	0.68294	-0	-0.027
Mof_C 	C 	0.39317	0.61423	-0	-0.035
Mof_C 	C 	0.32958	0.58964	-0	-0.08
Mof_C 	C 	0.29464	0.63242	-0	0.104
Mof_C 	C 	0.32267	0.69553	-0	-0.097
Mof_C 	C 	0.43431	0.57329	-0	0.329
Mof_C 	C 	-0	0.41977	0.79263	0.283
Mof_C 	C 	7.88338e-17	0.38871	0.72171	-0.022
Mof_C 	C 	2.62779e-17	0.42502	0.68294	-0.027
Mof_C 	C 	5.25559e-17	0.39317	0.61423	-0.035
Mof_C 	C 	5.25559e-17	0.32958	0.58964	-0.08
Mof_C 	C 	-0	0.29464	0.63242	0.104
Mof_C 	C 	5.25559e-17	0.32267	0.69553	-0.097
Mof_C 	C 	-2.62779e-17	0.43431	0.57329	0.329
Mof_C 	C 	0.37286	0.58023	0.58023	0.283
Mof_C 	C 	0.333	0.61129	0.61129	-0.018
Mof_C 	C 	0.25792	0.57498	0.57498	-0.028
Mof_C 	C 	0.22106	0.60683	0.60683	-0.031
Mof_C 	C 	0.26006	0.67042	0.67042	-0.081
Mof_C 	C 	0.33778	0.70536	0.70536	0.11
Mof_C 	C 	0.37286	0.67733	0.67733	-0.098
Mof_C 	C 	0.13898	0.56569	0.56569	0.33
Mof_C 	C 	-0	0.79263	0.41977	0.283
Mof_C 	C 	5.25559e-17	0.72171	0.38871	-0.022
Mof_C 	C 	3.94169e-17	0.68294	0.42502	-0.027
Mof_C 	C 	1.3139e-17	0.61423	0.39317	-0.035
Mof_C 	C 	5.91253e-17	0.58964	0.32958	-0.08
Mof_C 	C 	3.94169e-17	0.63242	0.29464	0.104
Mof_C 	C 	3.28474e-17	0.69553	0.32267	-0.097
Mof_C 	C 	-0	0.57329	0.43431	0.329
Mof_C 	C 	0.62714	0.20737	0.20737	0.284
Mof_C 	C 	0.667	0.27829	0.27829	-0.02
Mof_C 	C 	0.74208	0.31706	0.31706	-0.027
Mof_C 	C 	0.77894	0.38577	0.38577	-0.029
Mof_C 	C 	0.73994	0.41036	0.41036	-0.081
Mof_C 	C 	0.66222	0.36758	0.36758	0.108
Mof_C 	C 	0.62714	0.30447	0.30447	-0.097
Mof_C 	C 	0.86102	0.42671	0.42671	0.328
Mof_S 	S 	-0	0.65544	-0	0.588
Mof_S 	S 	0.65544	0	-0	0.588
Mof_S 	S 	0.34456	0.34456	0.34456	0.631
Mof_S 	S 	2.62779e-17	0	0.65544	0.588
Mof_N 	N 	0.85472	0.44685	0.89175	-0.18
Mof_N 	N 	0.5551	0.96297	0.10825	-0.183
Mof_N 	N 	0.4449	0.55315	0.40787	-0.189
Mof_N 	N 	0.14528	0.03703	0.59213	-0.196
Mof_N 	N 	0.40787	0.4449	0.55315	-0.189
Mof_N 	N 	0.59213	0.14528	0.03703	-0.196
Mof_N 	N 	0.89175	0.85472	0.44685	-0.18
Mof_N 	N 	0.10825	0.5551	0.96297	-0.183
Mof_N 	N 	0.96297	0.10825	0.5551	-0.183
Mof_N 	N 	0.44685	0.89175	0.85472	-0.18
Mof_N 	N 	0.03703	0.59213	0.14528	-0.196
Mof_N 	N 	0.55315	0.40787	0.4449	-0.189
Mof_N 	N 	0.96297	0.5551	0.10825	-0.183
Mof_N 	N 	0.44685	0.85472	0.89175	-0.18
Mof_N 	N 	0.03703	0.14528	0.59213	-0.196
Mof_N 	N 	0.55315	0.4449	0.40787	-0.189
Mof_N 	N 	0.85472	0.89175	0.44685	-0.18
Mof_N 	N 	0.5551	0.10825	0.96297	-0.183
Mof_N 	N 	0.4449	0.40787	0.55315	-0.189
Mof_N 	N 	0.14528	0.59213	0.03703	-0.196
Mof_N 	N 	0.40787	0.55315	0.4449	-0.189
Mof_N 	N 	0.59213	0.03703	0.14528	-0.196
Mof_N 	N 	0.89175	0.44685	0.85472	-0.18
Mof_N 	N 	0.10825	0.96297	0.5551	-0.183
Mof_N 	N 	0.7755	0.382	0.7755	-0.155
Mof_N 	N 	0.6065	-1.3139e-17	0.2245	-0.166
Mof_N 	N 	0.3935	0.618	0.3935	-0.156
Mof_N 	N 	0.2245	0	0.6065	-0.166
Mof_N 	N 	0.3935	0.3935	0.618	-0.156
Mof_N 	N 	0.6065	0.2245	-0	-0.166
Mof_N 	N 	0.7755	0.7755	0.382	-0.155
Mof_N 	N 	0.2245	0.6065	-0	-0.166
Mof_N 	N 	5.25559e-17	0.2245	0.6065	-0.166
Mof_N 	N 	0.382	0.7755	0.7755	-0.155
Mof_N 	N 	3.94169e-17	0.6065	0.2245	-0.166
Mof_N 	N 	0.618	0.3935	0.3935	-0.156
Mof_O 	O 	0.52044	0.33444	0.52044	-0.359
Mof_O 	O 	0.61312	0.44158	0.61312	-0.282
Mof_O 	O 	0.59505	0.10796	0.59505	-0.381
Mof_O 	O 	0.50725	0.10642	0.50725	-0.398
Mof_O 	O 	0.814	0	0.47956	-0.361
Mof_O 	O 	0.82846	-2.62779e-17	0.38688	-0.288
Mof_O 	O 	0.51291	-5.25559e-17	0.40495	-0.387
Mof_O 	O 	0.59917	-5.25559e-17	0.49275	-0.401
Mof_O 	O 	0.186	0.66556	0.186	-0.359
Mof_O 	O 	0.17154	0.55842	0.17154	-0.29
Mof_O 	O 	0.48709	0.89204	0.48709	-0.37
Mof_O 	O 	0.40083	0.89358	0.40083	-0.387
Mof_O 	O 	0.47956	-5.25559e-17	0.814	-0.361
Mof_O 	O 	0.38688	0	0.82846	-0.288
Mof_O 	O 	0.40495	-5.25559e-17	0.51291	-0.387
Mof_O 	O 	0.49275	0	0.59917	-0.401
Mof_O 	O 	0.186	0.186	0.66556	-0.359
Mof_O 	O 	0.17154	0.17154	0.55842	-0.29
Mof_O 	O 	0.48709	0.48709	0.89204	-0.37
Mof_O 	O 	0.40083	0.40083	0.89358	-0.387
Mof_O 	O 	0.814	0.47956	-0	-0.361
Mof_O 	O 	0.82846	0.38688	-0	-0.288
Mof_O 	O 	0.51291	0.40495	-0	-0.387
Mof_O 	O 	0.59917	0.49275	-0	-0.401
Mof_O 	O 	0.52044	0.52044	0.33444	-0.359
Mof_O 	O 	0.61312	0.61312	0.44158	-0.282
Mof_O 	O 	0.59505	0.59505	0.10796	-0.381
Mof_O 	O 	0.50725	0.50725	0.10642	-0.398
Mof_O 	O 	0.47956	0.814	-0	-0.361
Mof_O 	O 	0.38688	0.82846	-0	-0.288
Mof_O 	O 	0.40495	0.51291	-0	-0.387
Mof_O 	O 	0.49275	0.59917	-0	-0.401
Mof_O 	O 	7.88338e-17	0.47956	0.814	-0.361
Mof_O 	O 	2.62779e-17	0.38688	0.82846	-0.288
Mof_O 	O 	3.94169e-17	0.40495	0.51291	-0.387
Mof_O 	O 	-0	0.49275	0.59917	-0.401
Mof_O 	O 	0.33444	0.52044	0.52044	-0.359
Mof_O 	O 	0.44158	0.61312	0.61312	-0.282
Mof_O 	O 	0.10796	0.59505	0.59505	-0.381
Mof_O 	O 	0.10642	0.50725	0.50725	-0.398
Mof_O 	O 	1.18251e-16	0.814	0.47956	-0.361
Mof_O 	O 	-0	0.82846	0.38688	-0.288
Mof_O 	O 	5.25559e-17	0.51291	0.40495	-0.387
Mof_O 	O 	-2.62779e-17	0.59917	0.49275	-0.401
Mof_O 	O 	0.66556	0.186	0.186	-0.359
Mof_O 	O 	0.55842	0.17154	0.17154	-0.29
Mof_O 	O 	0.89204	0.48709	0.48709	-0.37
Mof_O 	O 	0.89358	0.40083	0.40083	-0.387
Mof_O 	O 	5.25559e-17	0.51166	-0	-0.716
Mof_O 	O 	5.25559e-17	0.72136	-0	-0.224
Mof_O 	O 	0.51166	0	-0	-0.716
Mof_O 	O 	0.72136	0	-0	-0.224
Mof_O 	O 	0.48834	0.48834	0.48834	-0.703
Mof_O 	O 	0.27864	0.27864	0.27864	-0.229
Mof_O 	O 	5.25559e-17	0	0.51166	-0.716
Mof_O 	O 	7.88338e-17	0	0.72136	-0.224
Mof_O 	O 	0.93352	0.61146	-0	-0.334
Mof_O 	O 	0.61146	0.93352	-0	-0.334
Mof_O 	O 	0.38854	0.38854	0.32206	-0.353
Mof_O 	O 	0.06648	0.06648	0.67794	-0.346
Mof_O 	O 	0.32206	0.38854	0.38854	-0.353
Mof_O 	O 	0.67794	0.06648	0.06648	-0.346
Mof_O 	O 	3.94169e-17	0.93352	0.61146	-0.334
Mof_O 	O 	7.88338e-17	0.61146	0.93352	-0.334
Mof_O 	O 	0.93352	0	0.61146	-0.334
Mof_O 	O 	0.61146	0	0.93352	-0.334
Mof_O 	O 	0.06648	0.67794	0.06648	-0.346
Mof_O 	O 	0.38854	0.32206	0.38854	-0.353
_end
