data_functionalizedCrystal
_audit_creation_method	'EQeq! by Chris Wilmer'
_symmetry_space_group_name_H-M	'P1'
_symmetry_Int_Tables_number	1
_symmetry_cell_setting	triclinic
loop_
_symmetry_equiv_pos_as_xyz
  x,y,z
_cell_length_a	24.4332
_cell_length_b	24.4332
_cell_length_c	24.4332
_cell_angle_alpha	90
_cell_angle_beta	90
_cell_angle_gamma	90
loop_
_atom_site_label
_atom_site_type_symbol
_atom_site_fract_x
_atom_site_fract_y
_atom_site_fract_z
_atom_site_charge
Mof_Na	Na	0.59698	0.90302	0.09698	3.318
Mof_Na	Na	0.90302	0.09698	0.59698	3.318
Mof_Na	Na	0.40302	0.40302	0.40302	3.318
Mof_Na	Na	0.09698	0.59698	0.90302	3.318
Mof_Mn	Mn	0.73683	0.91008	0.89389	1.185
Mof_Mn	Mn	0.79383	0.95274	0.79444	1.154
Mof_Mn	Mn	0.72788	0.84495	0.78305	1.172
Mof_Mn	Mn	0.65615	0.98834	0.18743	0.922
Mof_Mn	Mn	0.68174	0.79133	0.88799	1.173
Mof_Mn	Mn	0.77545	0.22292	0.16702	0.941
Mof_Mn	Mn	0.76317	0.08992	0.39389	1.185
Mof_Mn	Mn	0.70617	0.04726	0.29444	1.154
Mof_Mn	Mn	0.77212	0.15505	0.28305	1.171
Mof_Mn	Mn	0.84385	0.01166	0.68743	0.921
Mof_Mn	Mn	0.81826	0.20867	0.38799	1.172
Mof_Mn	Mn	0.72455	0.77708	0.66702	0.94
Mof_Mn	Mn	0.26317	0.41008	0.60611	1.184
Mof_Mn	Mn	0.20617	0.45274	0.70556	1.154
Mof_Mn	Mn	0.27212	0.34495	0.71695	1.171
Mof_Mn	Mn	0.34385	0.48834	0.31257	0.92
Mof_Mn	Mn	0.31826	0.29133	0.61201	1.172
Mof_Mn	Mn	0.22455	0.72292	0.33298	0.94
Mof_Mn	Mn	0.23683	0.58992	0.10611	1.183
Mof_Mn	Mn	0.29383	0.54726	0.20556	1.154
Mof_Mn	Mn	0.22788	0.65505	0.21695	1.171
Mof_Mn	Mn	0.15615	0.51166	0.81257	0.92
Mof_Mn	Mn	0.18174	0.70867	0.11201	1.172
Mof_Mn	Mn	0.27545	0.27708	0.83298	0.94
Mof_Mn	Mn	0.89389	0.73683	0.91008	1.184
Mof_Mn	Mn	0.79444	0.79383	0.95274	1.153
Mof_Mn	Mn	0.78305	0.72788	0.84495	1.171
Mof_Mn	Mn	0.18743	0.65615	0.98834	0.921
Mof_Mn	Mn	0.88799	0.68174	0.79133	1.172
Mof_Mn	Mn	0.16702	0.77545	0.22292	0.94
Mof_Mn	Mn	0.39389	0.76317	0.08992	1.184
Mof_Mn	Mn	0.29444	0.70617	0.04726	1.153
Mof_Mn	Mn	0.28305	0.77212	0.15505	1.171
Mof_Mn	Mn	0.68743	0.84385	0.01166	0.921
Mof_Mn	Mn	0.38799	0.81826	0.20867	1.172
Mof_Mn	Mn	0.66702	0.72455	0.77708	0.94
Mof_Mn	Mn	0.60611	0.26317	0.41008	1.184
Mof_Mn	Mn	0.70556	0.20617	0.45274	1.154
Mof_Mn	Mn	0.71695	0.27212	0.34495	1.171
Mof_Mn	Mn	0.31257	0.34385	0.48834	0.92
Mof_Mn	Mn	0.61201	0.31826	0.29133	1.172
Mof_Mn	Mn	0.33298	0.22455	0.72292	0.94
Mof_Mn	Mn	0.10611	0.23683	0.58992	1.183
Mof_Mn	Mn	0.20556	0.29383	0.54726	1.154
Mof_Mn	Mn	0.21695	0.22788	0.65505	1.171
Mof_Mn	Mn	0.81257	0.15615	0.51166	0.92
Mof_Mn	Mn	0.11201	0.18174	0.70867	1.172
Mof_Mn	Mn	0.83298	0.27545	0.27708	0.94
Mof_Mn	Mn	0.91008	0.89389	0.73683	1.184
Mof_Mn	Mn	0.95274	0.79444	0.79383	1.153
Mof_Mn	Mn	0.84495	0.78305	0.72788	1.171
Mof_Mn	Mn	0.98834	0.18743	0.65615	0.921
Mof_Mn	Mn	0.79133	0.88799	0.68174	1.172
Mof_Mn	Mn	0.22292	0.16702	0.77545	0.94
Mof_Mn	Mn	0.08992	0.39389	0.76317	1.184
Mof_Mn	Mn	0.04726	0.29444	0.70617	1.153
Mof_Mn	Mn	0.15505	0.28305	0.77212	1.171
Mof_Mn	Mn	0.01166	0.68743	0.84385	0.921
Mof_Mn	Mn	0.20867	0.38799	0.81826	1.172
Mof_Mn	Mn	0.77708	0.66702	0.72455	0.94
Mof_Mn	Mn	0.41008	0.60611	0.26317	1.184
Mof_Mn	Mn	0.45274	0.70556	0.20617	1.154
Mof_Mn	Mn	0.34495	0.71695	0.27212	1.171
Mof_Mn	Mn	0.48834	0.31257	0.34385	0.92
Mof_Mn	Mn	0.29133	0.61201	0.31826	1.172
Mof_Mn	Mn	0.72292	0.33298	0.22455	0.94
Mof_Mn	Mn	0.58992	0.10611	0.23683	1.183
Mof_Mn	Mn	0.54726	0.20556	0.29383	1.154
Mof_Mn	Mn	0.65505	0.21695	0.22788	1.171
Mof_Mn	Mn	0.51166	0.81257	0.15615	0.92
Mof_Mn	Mn	0.70867	0.11201	0.18174	1.172
Mof_Mn	Mn	0.27708	0.83298	0.27545	0.94
Mof_Mn	Mn	0.86125	0.86125	0.86125	1.018
Mof_Mn	Mn	0.63875	0.13875	0.36125	1.019
Mof_Mn	Mn	0.13875	0.36125	0.63875	1.019
Mof_Mn	Mn	0.36125	0.63875	0.13875	1.019
Mof_H 	H 	0.603	0.8702	0.7976	-0.053
Mof_H 	H 	0.6049	0.9076	0.8498	-0.06
Mof_H 	H 	0.6515	0.9757	0.8042	0.06
Mof_H 	H 	0.6796	0.9741	0.7145	-0.067
Mof_H 	H 	0.6531	0.9165	0.7041	-0.04
Mof_H 	H 	0.554	0.9703	0.7818	0.106
Mof_H 	H 	0.5864	0.9962	0.7329	0.105
Mof_H 	H 	0.5682	0.9348	0.7303	0.118
Mof_H 	H 	0.8109	0.0809	0.7991	-0.06
Mof_H 	H 	0.7672	0.0932	0.7547	-0.07
Mof_H 	H 	0.6973	0.0718	0.8121	0.076
Mof_H 	H 	0.7444	0.1581	0.8326	0.082
Mof_H 	H 	0.7235	0.1324	0.8876	0.085
Mof_H 	H 	0.7852	0.1265	0.8708	0.083
Mof_H 	H 	0.7141	0.0349	0.8969	-0.059
Mof_H 	H 	0.7775	0.0422	0.89	-0.069
Mof_H 	H 	0.7124	0.0142	0.0675	-0.124
Mof_H 	H 	0.67	0.0621	0.0645	-0.121
Mof_H 	H 	0.781	0.0693	0.0717	0.095
Mof_H 	H 	0.7315	0.1674	0.0598	-0.107
Mof_H 	H 	0.7938	0.1541	0.0671	-0.101
Mof_H 	H 	0.7874	0.0843	0.984	0.063
Mof_H 	H 	0.7394	0.0419	0.988	0.075
Mof_H 	H 	0.7266	0.104	0.9783	0.065
Mof_H 	H 	0.883	0.9206	0.0333	0.471
Mof_H 	H 	0.8974	0.9636	0.988	0.454
Mof_H 	H 	0.8472	0.9734	0.0267	0.48
Mof_H 	H 	0.8051	0.9501	0.1216	0.411
Mof_H 	H 	0.7692	0.9535	0.1746	0.437
Mof_H 	H 	0.7957	0.8976	0.1573	0.421
Mof_H 	H 	0.571	0.9882	0.9895	0.321
Mof_H 	H 	0.6197	0.0278	0.9761	0.391
Mof_H 	H 	0.5872	0.9996	0.9285	0.402
Mof_H 	H 	0.897	0.1298	0.2976	-0.052
Mof_H 	H 	0.8951	0.0924	0.3498	-0.059
Mof_H 	H 	0.8485	0.0243	0.3042	0.06
Mof_H 	H 	0.8204	0.0259	0.2145	-0.067
Mof_H 	H 	0.8469	0.0835	0.2041	-0.04
Mof_H 	H 	0.946	0.0297	0.2818	0.106
Mof_H 	H 	0.9136	0.0038	0.2329	0.105
Mof_H 	H 	0.9318	0.0652	0.2303	0.118
Mof_H 	H 	0.6891	0.9191	0.2991	-0.06
Mof_H 	H 	0.7328	0.9068	0.2547	-0.07
Mof_H 	H 	0.8027	0.9282	0.3121	0.076
Mof_H 	H 	0.7556	0.8419	0.3326	0.082
Mof_H 	H 	0.7765	0.8676	0.3876	0.085
Mof_H 	H 	0.7148	0.8735	0.3708	0.083
Mof_H 	H 	0.7859	0.9651	0.3969	-0.059
Mof_H 	H 	0.7225	0.9578	0.39	-0.069
Mof_H 	H 	0.7876	0.9858	0.5675	-0.123
Mof_H 	H 	0.83	0.9379	0.5645	-0.12
Mof_H 	H 	0.719	0.9307	0.5717	0.094
Mof_H 	H 	0.7685	0.8326	0.5598	-0.106
Mof_H 	H 	0.7062	0.8459	0.5671	-0.1
Mof_H 	H 	0.7126	0.9157	0.484	0.063
Mof_H 	H 	0.7606	0.9581	0.488	0.076
Mof_H 	H 	0.7734	0.896	0.4783	0.065
Mof_H 	H 	0.617	0.0794	0.5333	0.475
Mof_H 	H 	0.6026	0.0364	0.488	0.459
Mof_H 	H 	0.6528	0.0266	0.5267	0.484
Mof_H 	H 	0.6949	0.0499	0.6216	0.411
Mof_H 	H 	0.7308	0.0465	0.6746	0.436
Mof_H 	H 	0.7043	0.1024	0.6573	0.421
Mof_H 	H 	0.929	0.0118	0.4895	0.319
Mof_H 	H 	0.8803	0.9722	0.4761	0.388
Mof_H 	H 	0.9128	0.0004	0.4285	0.4
Mof_H 	H 	0.397	0.3702	0.7024	-0.053
Mof_H 	H 	0.3951	0.4076	0.6502	-0.06
Mof_H 	H 	0.3485	0.4757	0.6958	0.06
Mof_H 	H 	0.3204	0.4741	0.7855	-0.067
Mof_H 	H 	0.3469	0.4165	0.7959	-0.04
Mof_H 	H 	0.446	0.4703	0.7182	0.106
Mof_H 	H 	0.4136	0.4962	0.7671	0.105
Mof_H 	H 	0.4318	0.4348	0.7697	0.118
Mof_H 	H 	0.1891	0.5809	0.7009	-0.06
Mof_H 	H 	0.2328	0.5932	0.7453	-0.07
Mof_H 	H 	0.3027	0.5718	0.6879	0.076
Mof_H 	H 	0.2556	0.6581	0.6674	0.082
Mof_H 	H 	0.2765	0.6324	0.6124	0.085
Mof_H 	H 	0.2148	0.6265	0.6292	0.083
Mof_H 	H 	0.2859	0.5349	0.6031	-0.059
Mof_H 	H 	0.2225	0.5422	0.61	-0.069
Mof_H 	H 	0.2876	0.5142	0.4325	-0.123
Mof_H 	H 	0.33	0.5621	0.4355	-0.12
Mof_H 	H 	0.219	0.5693	0.4283	0.094
Mof_H 	H 	0.2685	0.6674	0.4402	-0.106
Mof_H 	H 	0.2062	0.6541	0.4329	-0.1
Mof_H 	H 	0.2126	0.5843	0.516	0.064
Mof_H 	H 	0.2606	0.5419	0.512	0.076
Mof_H 	H 	0.2734	0.604	0.5217	0.065
Mof_H 	H 	0.117	0.4206	0.4667	0.475
Mof_H 	H 	0.1026	0.4636	0.512	0.459
Mof_H 	H 	0.1528	0.4734	0.4733	0.484
Mof_H 	H 	0.1949	0.4501	0.3784	0.41
Mof_H 	H 	0.2308	0.4535	0.3254	0.436
Mof_H 	H 	0.2043	0.3976	0.3427	0.42
Mof_H 	H 	0.429	0.4882	0.5105	0.319
Mof_H 	H 	0.3803	0.5278	0.5239	0.388
Mof_H 	H 	0.4128	0.4996	0.5715	0.4
Mof_H 	H 	0.103	0.6298	0.2024	-0.053
Mof_H 	H 	0.1049	0.5924	0.1502	-0.06
Mof_H 	H 	0.1515	0.5243	0.1958	0.061
Mof_H 	H 	0.1796	0.5259	0.2855	-0.067
Mof_H 	H 	0.1531	0.5835	0.2959	-0.04
Mof_H 	H 	0.054	0.5297	0.2182	0.106
Mof_H 	H 	0.0864	0.5038	0.2671	0.104
Mof_H 	H 	0.0682	0.5652	0.2697	0.117
Mof_H 	H 	0.3109	0.4191	0.2009	-0.06
Mof_H 	H 	0.2672	0.4068	0.2453	-0.071
Mof_H 	H 	0.1973	0.4282	0.1879	0.076
Mof_H 	H 	0.2444	0.3419	0.1674	0.082
Mof_H 	H 	0.2235	0.3676	0.1124	0.084
Mof_H 	H 	0.2852	0.3735	0.1292	0.082
Mof_H 	H 	0.2141	0.4651	0.1031	-0.059
Mof_H 	H 	0.2775	0.4578	0.11	-0.07
Mof_H 	H 	0.2124	0.4858	0.9325	-0.122
Mof_H 	H 	0.17	0.4379	0.9355	-0.119
Mof_H 	H 	0.281	0.4307	0.9283	0.094
Mof_H 	H 	0.2315	0.3326	0.9402	-0.105
Mof_H 	H 	0.2938	0.3459	0.9329	-0.099
Mof_H 	H 	0.2874	0.4157	0.016	0.065
Mof_H 	H 	0.2394	0.4581	0.012	0.077
Mof_H 	H 	0.2266	0.396	0.0217	0.066
Mof_H 	H 	0.383	0.5794	0.9667	0.473
Mof_H 	H 	0.3974	0.5364	0.012	0.457
Mof_H 	H 	0.3472	0.5266	0.9733	0.482
Mof_H 	H 	0.3051	0.5499	0.8784	0.411
Mof_H 	H 	0.2692	0.5465	0.8254	0.436
Mof_H 	H 	0.2957	0.6024	0.8427	0.421
Mof_H 	H 	0.071	0.5118	0.0105	0.317
Mof_H 	H 	0.1197	0.4722	0.0239	0.386
Mof_H 	H 	0.0872	0.5004	0.0715	0.399
Mof_H 	H 	0.7976	0.603	0.8702	-0.053
Mof_H 	H 	0.8498	0.6049	0.9076	-0.06
Mof_H 	H 	0.8042	0.6515	0.9757	0.06
Mof_H 	H 	0.7145	0.6796	0.9741	-0.067
Mof_H 	H 	0.7041	0.6531	0.9165	-0.04
Mof_H 	H 	0.7818	0.554	0.9703	0.106
Mof_H 	H 	0.7329	0.5864	0.9962	0.105
Mof_H 	H 	0.7303	0.5682	0.9348	0.118
Mof_H 	H 	0.7991	0.8109	0.0809	-0.06
Mof_H 	H 	0.7547	0.7672	0.0932	-0.07
Mof_H 	H 	0.8121	0.6973	0.0718	0.076
Mof_H 	H 	0.8326	0.7444	0.1581	0.082
Mof_H 	H 	0.8876	0.7235	0.1324	0.085
Mof_H 	H 	0.8708	0.7852	0.1265	0.083
Mof_H 	H 	0.8969	0.7141	0.0349	-0.059
Mof_H 	H 	0.89	0.7775	0.0422	-0.069
Mof_H 	H 	0.0675	0.7124	0.0142	-0.124
Mof_H 	H 	0.0645	0.67	0.0621	-0.121
Mof_H 	H 	0.0717	0.781	0.0693	0.095
Mof_H 	H 	0.0598	0.7315	0.1674	-0.107
Mof_H 	H 	0.0671	0.7938	0.1541	-0.101
Mof_H 	H 	0.984	0.7874	0.0843	0.063
Mof_H 	H 	0.988	0.7394	0.0419	0.075
Mof_H 	H 	0.9783	0.7266	0.104	0.065
Mof_H 	H 	0.0333	0.883	0.9206	0.471
Mof_H 	H 	0.988	0.8974	0.9636	0.454
Mof_H 	H 	0.0267	0.8472	0.9734	0.48
Mof_H 	H 	0.1216	0.8051	0.9501	0.411
Mof_H 	H 	0.1746	0.7692	0.9535	0.437
Mof_H 	H 	0.1573	0.7957	0.8976	0.421
Mof_H 	H 	0.9895	0.571	0.9882	0.321
Mof_H 	H 	0.9761	0.6197	0.0278	0.391
Mof_H 	H 	0.9285	0.5872	0.9996	0.402
Mof_H 	H 	0.2976	0.897	0.1298	-0.052
Mof_H 	H 	0.3498	0.8951	0.0924	-0.059
Mof_H 	H 	0.3042	0.8485	0.0243	0.06
Mof_H 	H 	0.2145	0.8204	0.0259	-0.067
Mof_H 	H 	0.2041	0.8469	0.0835	-0.04
Mof_H 	H 	0.2818	0.946	0.0297	0.106
Mof_H 	H 	0.2329	0.9136	0.0038	0.105
Mof_H 	H 	0.2303	0.9318	0.0652	0.118
Mof_H 	H 	0.2991	0.6891	0.9191	-0.06
Mof_H 	H 	0.2547	0.7328	0.9068	-0.07
Mof_H 	H 	0.3121	0.8027	0.9282	0.076
Mof_H 	H 	0.3326	0.7556	0.8419	0.082
Mof_H 	H 	0.3876	0.7765	0.8676	0.085
Mof_H 	H 	0.3708	0.7148	0.8735	0.083
Mof_H 	H 	0.3969	0.7859	0.9651	-0.059
Mof_H 	H 	0.39	0.7225	0.9578	-0.069
Mof_H 	H 	0.5675	0.7876	0.9858	-0.123
Mof_H 	H 	0.5645	0.83	0.9379	-0.12
Mof_H 	H 	0.5717	0.719	0.9307	0.094
Mof_H 	H 	0.5598	0.7685	0.8326	-0.106
Mof_H 	H 	0.5671	0.7062	0.8459	-0.1
Mof_H 	H 	0.484	0.7126	0.9157	0.063
Mof_H 	H 	0.488	0.7606	0.9581	0.076
Mof_H 	H 	0.4783	0.7734	0.896	0.065
Mof_H 	H 	0.5333	0.617	0.0794	0.475
Mof_H 	H 	0.488	0.6026	0.0364	0.459
Mof_H 	H 	0.5267	0.6528	0.0266	0.484
Mof_H 	H 	0.6216	0.6949	0.0499	0.411
Mof_H 	H 	0.6746	0.7308	0.0465	0.436
Mof_H 	H 	0.6573	0.7043	0.1024	0.421
Mof_H 	H 	0.4895	0.929	0.0118	0.319
Mof_H 	H 	0.4761	0.8803	0.9722	0.388
Mof_H 	H 	0.4285	0.9128	0.0004	0.4
Mof_H 	H 	0.7024	0.397	0.3702	-0.053
Mof_H 	H 	0.6502	0.3951	0.4076	-0.06
Mof_H 	H 	0.6958	0.3485	0.4757	0.06
Mof_H 	H 	0.7855	0.3204	0.4741	-0.067
Mof_H 	H 	0.7959	0.3469	0.4165	-0.04
Mof_H 	H 	0.7182	0.446	0.4703	0.106
Mof_H 	H 	0.7671	0.4136	0.4962	0.105
Mof_H 	H 	0.7697	0.4318	0.4348	0.118
Mof_H 	H 	0.7009	0.1891	0.5809	-0.06
Mof_H 	H 	0.7453	0.2328	0.5932	-0.07
Mof_H 	H 	0.6879	0.3027	0.5718	0.076
Mof_H 	H 	0.6674	0.2556	0.6581	0.082
Mof_H 	H 	0.6124	0.2765	0.6324	0.085
Mof_H 	H 	0.6292	0.2148	0.6265	0.083
Mof_H 	H 	0.6031	0.2859	0.5349	-0.059
Mof_H 	H 	0.61	0.2225	0.5422	-0.069
Mof_H 	H 	0.4325	0.2876	0.5142	-0.123
Mof_H 	H 	0.4355	0.33	0.5621	-0.12
Mof_H 	H 	0.4283	0.219	0.5693	0.094
Mof_H 	H 	0.4402	0.2685	0.6674	-0.106
Mof_H 	H 	0.4329	0.2062	0.6541	-0.1
Mof_H 	H 	0.516	0.2126	0.5843	0.064
Mof_H 	H 	0.512	0.2606	0.5419	0.076
Mof_H 	H 	0.5217	0.2734	0.604	0.065
Mof_H 	H 	0.4667	0.117	0.4206	0.475
Mof_H 	H 	0.512	0.1026	0.4636	0.459
Mof_H 	H 	0.4733	0.1528	0.4734	0.484
Mof_H 	H 	0.3784	0.1949	0.4501	0.41
Mof_H 	H 	0.3254	0.2308	0.4535	0.436
Mof_H 	H 	0.3427	0.2043	0.3976	0.42
Mof_H 	H 	0.5105	0.429	0.4882	0.319
Mof_H 	H 	0.5239	0.3803	0.5278	0.388
Mof_H 	H 	0.5715	0.4128	0.4996	0.4
Mof_H 	H 	0.2024	0.103	0.6298	-0.053
Mof_H 	H 	0.1502	0.1049	0.5924	-0.06
Mof_H 	H 	0.1958	0.1515	0.5243	0.061
Mof_H 	H 	0.2855	0.1796	0.5259	-0.067
Mof_H 	H 	0.2959	0.1531	0.5835	-0.04
Mof_H 	H 	0.2182	0.054	0.5297	0.106
Mof_H 	H 	0.2671	0.0864	0.5038	0.104
Mof_H 	H 	0.2697	0.0682	0.5652	0.117
Mof_H 	H 	0.2009	0.3109	0.4191	-0.06
Mof_H 	H 	0.2453	0.2672	0.4068	-0.071
Mof_H 	H 	0.1879	0.1973	0.4282	0.076
Mof_H 	H 	0.1674	0.2444	0.3419	0.082
Mof_H 	H 	0.1124	0.2235	0.3676	0.084
Mof_H 	H 	0.1292	0.2852	0.3735	0.082
Mof_H 	H 	0.1031	0.2141	0.4651	-0.059
Mof_H 	H 	0.11	0.2775	0.4578	-0.07
Mof_H 	H 	0.9325	0.2124	0.4858	-0.122
Mof_H 	H 	0.9355	0.17	0.4379	-0.119
Mof_H 	H 	0.9283	0.281	0.4307	0.094
Mof_H 	H 	0.9402	0.2315	0.3326	-0.105
Mof_H 	H 	0.9329	0.2938	0.3459	-0.099
Mof_H 	H 	0.016	0.2874	0.4157	0.065
Mof_H 	H 	0.012	0.2394	0.4581	0.077
Mof_H 	H 	0.0217	0.2266	0.396	0.066
Mof_H 	H 	0.9667	0.383	0.5794	0.473
Mof_H 	H 	0.012	0.3974	0.5364	0.457
Mof_H 	H 	0.9733	0.3472	0.5266	0.482
Mof_H 	H 	0.8784	0.3051	0.5499	0.411
Mof_H 	H 	0.8254	0.2692	0.5465	0.436
Mof_H 	H 	0.8427	0.2957	0.6024	0.421
Mof_H 	H 	0.0105	0.071	0.5118	0.317
Mof_H 	H 	0.0239	0.1197	0.4722	0.386
Mof_H 	H 	0.0715	0.0872	0.5004	0.399
Mof_H 	H 	0.8702	0.7976	0.603	-0.053
Mof_H 	H 	0.9076	0.8498	0.6049	-0.06
Mof_H 	H 	0.9757	0.8042	0.6515	0.06
Mof_H 	H 	0.9741	0.7145	0.6796	-0.067
Mof_H 	H 	0.9165	0.7041	0.6531	-0.04
Mof_H 	H 	0.9703	0.7818	0.554	0.106
Mof_H 	H 	0.9962	0.7329	0.5864	0.105
Mof_H 	H 	0.9348	0.7303	0.5682	0.118
Mof_H 	H 	0.0809	0.7991	0.8109	-0.06
Mof_H 	H 	0.0932	0.7547	0.7672	-0.07
Mof_H 	H 	0.0718	0.8121	0.6973	0.076
Mof_H 	H 	0.1581	0.8326	0.7444	0.082
Mof_H 	H 	0.1324	0.8876	0.7235	0.085
Mof_H 	H 	0.1265	0.8708	0.7852	0.083
Mof_H 	H 	0.0349	0.8969	0.7141	-0.059
Mof_H 	H 	0.0422	0.89	0.7775	-0.069
Mof_H 	H 	0.0142	0.0675	0.7124	-0.124
Mof_H 	H 	0.0621	0.0645	0.67	-0.121
Mof_H 	H 	0.0693	0.0717	0.781	0.095
Mof_H 	H 	0.1674	0.0598	0.7315	-0.107
Mof_H 	H 	0.1541	0.0671	0.7938	-0.101
Mof_H 	H 	0.0843	0.984	0.7874	0.063
Mof_H 	H 	0.0419	0.988	0.7394	0.075
Mof_H 	H 	0.104	0.9783	0.7266	0.065
Mof_H 	H 	0.9206	0.0333	0.883	0.471
Mof_H 	H 	0.9636	0.988	0.8974	0.454
Mof_H 	H 	0.9734	0.0267	0.8472	0.48
Mof_H 	H 	0.9501	0.1216	0.8051	0.411
Mof_H 	H 	0.9535	0.1746	0.7692	0.437
Mof_H 	H 	0.8976	0.1573	0.7957	0.421
Mof_H 	H 	0.9882	0.9895	0.571	0.321
Mof_H 	H 	0.0278	0.9761	0.6197	0.391
Mof_H 	H 	0.9996	0.9285	0.5872	0.402
Mof_H 	H 	0.1298	0.2976	0.897	-0.052
Mof_H 	H 	0.0924	0.3498	0.8951	-0.059
Mof_H 	H 	0.0243	0.3042	0.8485	0.06
Mof_H 	H 	0.0259	0.2145	0.8204	-0.067
Mof_H 	H 	0.0835	0.2041	0.8469	-0.04
Mof_H 	H 	0.0297	0.2818	0.946	0.106
Mof_H 	H 	0.0038	0.2329	0.9136	0.105
Mof_H 	H 	0.0652	0.2303	0.9318	0.118
Mof_H 	H 	0.9191	0.2991	0.6891	-0.06
Mof_H 	H 	0.9068	0.2547	0.7328	-0.07
Mof_H 	H 	0.9282	0.3121	0.8027	0.076
Mof_H 	H 	0.8419	0.3326	0.7556	0.082
Mof_H 	H 	0.8676	0.3876	0.7765	0.085
Mof_H 	H 	0.8735	0.3708	0.7148	0.083
Mof_H 	H 	0.9651	0.3969	0.7859	-0.059
Mof_H 	H 	0.9578	0.39	0.7225	-0.069
Mof_H 	H 	0.9858	0.5675	0.7876	-0.123
Mof_H 	H 	0.9379	0.5645	0.83	-0.12
Mof_H 	H 	0.9307	0.5717	0.719	0.094
Mof_H 	H 	0.8326	0.5598	0.7685	-0.106
Mof_H 	H 	0.8459	0.5671	0.7062	-0.1
Mof_H 	H 	0.9157	0.484	0.7126	0.063
Mof_H 	H 	0.9581	0.488	0.7606	0.076
Mof_H 	H 	0.896	0.4783	0.7734	0.065
Mof_H 	H 	0.0794	0.5333	0.617	0.475
Mof_H 	H 	0.0364	0.488	0.6026	0.459
Mof_H 	H 	0.0266	0.5267	0.6528	0.484
Mof_H 	H 	0.0499	0.6216	0.6949	0.411
Mof_H 	H 	0.0465	0.6746	0.7308	0.436
Mof_H 	H 	0.1024	0.6573	0.7043	0.421
Mof_H 	H 	0.0118	0.4895	0.929	0.319
Mof_H 	H 	0.9722	0.4761	0.8803	0.388
Mof_H 	H 	0.0004	0.4285	0.9128	0.4
Mof_H 	H 	0.3702	0.7024	0.397	-0.053
Mof_H 	H 	0.4076	0.6502	0.3951	-0.06
Mof_H 	H 	0.4757	0.6958	0.3485	0.06
Mof_H 	H 	0.4741	0.7855	0.3204	-0.067
Mof_H 	H 	0.4165	0.7959	0.3469	-0.04
Mof_H 	H 	0.4703	0.7182	0.446	0.106
Mof_H 	H 	0.4962	0.7671	0.4136	0.105
Mof_H 	H 	0.4348	0.7697	0.4318	0.118
Mof_H 	H 	0.5809	0.7009	0.1891	-0.06
Mof_H 	H 	0.5932	0.7453	0.2328	-0.07
Mof_H 	H 	0.5718	0.6879	0.3027	0.076
Mof_H 	H 	0.6581	0.6674	0.2556	0.082
Mof_H 	H 	0.6324	0.6124	0.2765	0.085
Mof_H 	H 	0.6265	0.6292	0.2148	0.083
Mof_H 	H 	0.5349	0.6031	0.2859	-0.059
Mof_H 	H 	0.5422	0.61	0.2225	-0.069
Mof_H 	H 	0.5142	0.4325	0.2876	-0.123
Mof_H 	H 	0.5621	0.4355	0.33	-0.12
Mof_H 	H 	0.5693	0.4283	0.219	0.094
Mof_H 	H 	0.6674	0.4402	0.2685	-0.106
Mof_H 	H 	0.6541	0.4329	0.2062	-0.1
Mof_H 	H 	0.5843	0.516	0.2126	0.064
Mof_H 	H 	0.5419	0.512	0.2606	0.076
Mof_H 	H 	0.604	0.5217	0.2734	0.065
Mof_H 	H 	0.4206	0.4667	0.117	0.475
Mof_H 	H 	0.4636	0.512	0.1026	0.459
Mof_H 	H 	0.4734	0.4733	0.1528	0.484
Mof_H 	H 	0.4501	0.3784	0.1949	0.41
Mof_H 	H 	0.4535	0.3254	0.2308	0.436
Mof_H 	H 	0.3976	0.3427	0.2043	0.42
Mof_H 	H 	0.4882	0.5105	0.429	0.319
Mof_H 	H 	0.5278	0.5239	0.3803	0.388
Mof_H 	H 	0.4996	0.5715	0.4128	0.4
Mof_H 	H 	0.6298	0.2024	0.103	-0.053
Mof_H 	H 	0.5924	0.1502	0.1049	-0.06
Mof_H 	H 	0.5243	0.1958	0.1515	0.061
Mof_H 	H 	0.5259	0.2855	0.1796	-0.067
Mof_H 	H 	0.5835	0.2959	0.1531	-0.04
Mof_H 	H 	0.5297	0.2182	0.054	0.106
Mof_H 	H 	0.5038	0.2671	0.0864	0.104
Mof_H 	H 	0.5652	0.2697	0.0682	0.117
Mof_H 	H 	0.4191	0.2009	0.3109	-0.06
Mof_H 	H 	0.4068	0.2453	0.2672	-0.071
Mof_H 	H 	0.4282	0.1879	0.1973	0.076
Mof_H 	H 	0.3419	0.1674	0.2444	0.082
Mof_H 	H 	0.3676	0.1124	0.2235	0.084
Mof_H 	H 	0.3735	0.1292	0.2852	0.082
Mof_H 	H 	0.4651	0.1031	0.2141	-0.059
Mof_H 	H 	0.4578	0.11	0.2775	-0.07
Mof_H 	H 	0.4858	0.9325	0.2124	-0.122
Mof_H 	H 	0.4379	0.9355	0.17	-0.119
Mof_H 	H 	0.4307	0.9283	0.281	0.094
Mof_H 	H 	0.3326	0.9402	0.2315	-0.105
Mof_H 	H 	0.3459	0.9329	0.2938	-0.099
Mof_H 	H 	0.4157	0.016	0.2874	0.065
Mof_H 	H 	0.4581	0.012	0.2394	0.077
Mof_H 	H 	0.396	0.0217	0.2266	0.066
Mof_H 	H 	0.5794	0.9667	0.383	0.473
Mof_H 	H 	0.5364	0.012	0.3974	0.457
Mof_H 	H 	0.5266	0.9733	0.3472	0.482
Mof_H 	H 	0.5499	0.8784	0.3051	0.411
Mof_H 	H 	0.5465	0.8254	0.2692	0.436
Mof_H 	H 	0.6024	0.8427	0.2957	0.421
Mof_H 	H 	0.5118	0.0105	0.071	0.317
Mof_H 	H 	0.4722	0.0239	0.1197	0.386
Mof_H 	H 	0.5004	0.0715	0.0872	0.399
Mof_C 	C 	0.6255	0.8959	0.8179	0.234
Mof_C 	C 	0.6372	0.9456	0.7818	-0.135
Mof_C 	C 	0.6727	0.9386	0.7307	0.2
Mof_C 	C 	0.5808	0.9635	0.7539	-0.337
Mof_C 	C 	0.7772	0.0673	0.7831	0.261
Mof_C 	C 	0.7347	0.0728	0.8265	-0.206
Mof_C 	C 	0.7483	0.1278	0.8574	-0.259
Mof_C 	C 	0.7441	0.0326	0.8709	0.289
Mof_C 	C 	0.7048	0.0511	0.0801	0.365
Mof_C 	C 	0.7477	0.0879	0.0592	-0.3
Mof_C 	C 	0.7572	0.1432	0.0779	0.394
Mof_C 	C 	0.7506	0.0787	0.9964	-0.18
Mof_C 	C 	0.8337	0.9182	0.97	0.899
Mof_C 	C 	0.8681	0.9462	0.0076	-1.575
Mof_C 	C 	0.729	0.9173	0.111	0.94
Mof_C 	C 	0.7793	0.9309	0.1442	-1.386
Mof_C 	C 	0.6395	0.9482	0.9665	0.898
Mof_C 	C 	0.6009	0.9951	0.965	-1.329
Mof_C 	C 	0.8745	0.1041	0.3179	0.234
Mof_C 	C 	0.8628	0.0544	0.2818	-0.135
Mof_C 	C 	0.8273	0.0614	0.2307	0.2
Mof_C 	C 	0.9192	0.0365	0.2539	-0.338
Mof_C 	C 	0.7228	0.9327	0.2831	0.261
Mof_C 	C 	0.7653	0.9272	0.3265	-0.206
Mof_C 	C 	0.7517	0.8722	0.3574	-0.259
Mof_C 	C 	0.7559	0.9674	0.3709	0.289
Mof_C 	C 	0.7952	0.9489	0.5801	0.363
Mof_C 	C 	0.7523	0.9121	0.5592	-0.297
Mof_C 	C 	0.7428	0.8568	0.5779	0.392
Mof_C 	C 	0.7494	0.9213	0.4964	-0.184
Mof_C 	C 	0.6663	0.0818	0.47	0.906
Mof_C 	C 	0.6319	0.0538	0.5076	-1.591
Mof_C 	C 	0.771	0.0827	0.611	0.939
Mof_C 	C 	0.7207	0.0691	0.6442	-1.385
Mof_C 	C 	0.8605	0.0518	0.4665	0.897
Mof_C 	C 	0.8991	0.0049	0.465	-1.324
Mof_C 	C 	0.3745	0.3959	0.6821	0.234
Mof_C 	C 	0.3628	0.4456	0.7182	-0.135
Mof_C 	C 	0.3273	0.4386	0.7693	0.2
Mof_C 	C 	0.4192	0.4635	0.7461	-0.338
Mof_C 	C 	0.2228	0.5673	0.7169	0.261
Mof_C 	C 	0.2653	0.5728	0.6735	-0.206
Mof_C 	C 	0.2517	0.6278	0.6426	-0.259
Mof_C 	C 	0.2559	0.5326	0.6291	0.288
Mof_C 	C 	0.2952	0.5511	0.4199	0.363
Mof_C 	C 	0.2523	0.5879	0.4408	-0.297
Mof_C 	C 	0.2428	0.6432	0.4221	0.392
Mof_C 	C 	0.2494	0.5787	0.5036	-0.184
Mof_C 	C 	0.1663	0.4182	0.53	0.906
Mof_C 	C 	0.1319	0.4462	0.4924	-1.591
Mof_C 	C 	0.271	0.4173	0.389	0.939
Mof_C 	C 	0.2207	0.4309	0.3558	-1.385
Mof_C 	C 	0.3605	0.4482	0.5335	0.898
Mof_C 	C 	0.3991	0.4951	0.535	-1.325
Mof_C 	C 	0.1255	0.6041	0.1821	0.235
Mof_C 	C 	0.1372	0.5544	0.2182	-0.136
Mof_C 	C 	0.1727	0.5614	0.2693	0.201
Mof_C 	C 	0.0808	0.5365	0.2461	-0.336
Mof_C 	C 	0.2772	0.4327	0.2169	0.261
Mof_C 	C 	0.2347	0.4272	0.1735	-0.206
Mof_C 	C 	0.2483	0.3722	0.1426	-0.258
Mof_C 	C 	0.2441	0.4674	0.1291	0.289
Mof_C 	C 	0.2048	0.4489	0.9199	0.361
Mof_C 	C 	0.2477	0.4121	0.9408	-0.293
Mof_C 	C 	0.2572	0.3568	0.9221	0.389
Mof_C 	C 	0.2506	0.4213	0.0036	-0.189
Mof_C 	C 	0.3337	0.5818	0.03	0.903
Mof_C 	C 	0.3681	0.5538	0.9924	-1.584
Mof_C 	C 	0.229	0.5827	0.889	0.939
Mof_C 	C 	0.2793	0.5691	0.8558	-1.385
Mof_C 	C 	0.1395	0.5518	0.0335	0.895
Mof_C 	C 	0.1009	0.5049	0.035	-1.32
Mof_C 	C 	0.8179	0.6255	0.8959	0.234
Mof_C 	C 	0.7818	0.6372	0.9456	-0.135
Mof_C 	C 	0.7307	0.6727	0.9386	0.2
Mof_C 	C 	0.7539	0.5808	0.9635	-0.337
Mof_C 	C 	0.7831	0.7772	0.0673	0.261
Mof_C 	C 	0.8265	0.7347	0.0728	-0.206
Mof_C 	C 	0.8574	0.7483	0.1278	-0.259
Mof_C 	C 	0.8709	0.7441	0.0326	0.289
Mof_C 	C 	0.0801	0.7048	0.0511	0.365
Mof_C 	C 	0.0592	0.7477	0.0879	-0.3
Mof_C 	C 	0.0779	0.7572	0.1432	0.394
Mof_C 	C 	0.9964	0.7506	0.0787	-0.18
Mof_C 	C 	0.97	0.8337	0.9182	0.899
Mof_C 	C 	0.0076	0.8681	0.9462	-1.575
Mof_C 	C 	0.111	0.729	0.9173	0.94
Mof_C 	C 	0.1442	0.7793	0.9309	-1.386
Mof_C 	C 	0.9665	0.6395	0.9482	0.898
Mof_C 	C 	0.965	0.6009	0.9951	-1.329
Mof_C 	C 	0.3179	0.8745	0.1041	0.234
Mof_C 	C 	0.2818	0.8628	0.0544	-0.135
Mof_C 	C 	0.2307	0.8273	0.0614	0.2
Mof_C 	C 	0.2539	0.9192	0.0365	-0.338
Mof_C 	C 	0.2831	0.7228	0.9327	0.261
Mof_C 	C 	0.3265	0.7653	0.9272	-0.206
Mof_C 	C 	0.3574	0.7517	0.8722	-0.259
Mof_C 	C 	0.3709	0.7559	0.9674	0.289
Mof_C 	C 	0.5801	0.7952	0.9489	0.363
Mof_C 	C 	0.5592	0.7523	0.9121	-0.297
Mof_C 	C 	0.5779	0.7428	0.8568	0.392
Mof_C 	C 	0.4964	0.7494	0.9213	-0.184
Mof_C 	C 	0.47	0.6663	0.0818	0.906
Mof_C 	C 	0.5076	0.6319	0.0538	-1.591
Mof_C 	C 	0.611	0.771	0.0827	0.939
Mof_C 	C 	0.6442	0.7207	0.0691	-1.385
Mof_C 	C 	0.4665	0.8605	0.0518	0.897
Mof_C 	C 	0.465	0.8991	0.0049	-1.324
Mof_C 	C 	0.6821	0.3745	0.3959	0.234
Mof_C 	C 	0.7182	0.3628	0.4456	-0.135
Mof_C 	C 	0.7693	0.3273	0.4386	0.2
Mof_C 	C 	0.7461	0.4192	0.4635	-0.338
Mof_C 	C 	0.7169	0.2228	0.5673	0.261
Mof_C 	C 	0.6735	0.2653	0.5728	-0.206
Mof_C 	C 	0.6426	0.2517	0.6278	-0.259
Mof_C 	C 	0.6291	0.2559	0.5326	0.288
Mof_C 	C 	0.4199	0.2952	0.5511	0.363
Mof_C 	C 	0.4408	0.2523	0.5879	-0.297
Mof_C 	C 	0.4221	0.2428	0.6432	0.392
Mof_C 	C 	0.5036	0.2494	0.5787	-0.184
Mof_C 	C 	0.53	0.1663	0.4182	0.906
Mof_C 	C 	0.4924	0.1319	0.4462	-1.591
Mof_C 	C 	0.389	0.271	0.4173	0.939
Mof_C 	C 	0.3558	0.2207	0.4309	-1.385
Mof_C 	C 	0.5335	0.3605	0.4482	0.898
Mof_C 	C 	0.535	0.3991	0.4951	-1.325
Mof_C 	C 	0.1821	0.1255	0.6041	0.235
Mof_C 	C 	0.2182	0.1372	0.5544	-0.136
Mof_C 	C 	0.2693	0.1727	0.5614	0.201
Mof_C 	C 	0.2461	0.0808	0.5365	-0.336
Mof_C 	C 	0.2169	0.2772	0.4327	0.261
Mof_C 	C 	0.1735	0.2347	0.4272	-0.206
Mof_C 	C 	0.1426	0.2483	0.3722	-0.258
Mof_C 	C 	0.1291	0.2441	0.4674	0.289
Mof_C 	C 	0.9199	0.2048	0.4489	0.361
Mof_C 	C 	0.9408	0.2477	0.4121	-0.293
Mof_C 	C 	0.9221	0.2572	0.3568	0.389
Mof_C 	C 	0.0036	0.2506	0.4213	-0.189
Mof_C 	C 	0.03	0.3337	0.5818	0.903
Mof_C 	C 	0.9924	0.3681	0.5538	-1.584
Mof_C 	C 	0.889	0.229	0.5827	0.939
Mof_C 	C 	0.8558	0.2793	0.5691	-1.385
Mof_C 	C 	0.0335	0.1395	0.5518	0.895
Mof_C 	C 	0.035	0.1009	0.5049	-1.32
Mof_C 	C 	0.8959	0.8179	0.6255	0.234
Mof_C 	C 	0.9456	0.7818	0.6372	-0.135
Mof_C 	C 	0.9386	0.7307	0.6727	0.2
Mof_C 	C 	0.9635	0.7539	0.5808	-0.337
Mof_C 	C 	0.0673	0.7831	0.7772	0.261
Mof_C 	C 	0.0728	0.8265	0.7347	-0.206
Mof_C 	C 	0.1278	0.8574	0.7483	-0.259
Mof_C 	C 	0.0326	0.8709	0.7441	0.289
Mof_C 	C 	0.0511	0.0801	0.7048	0.365
Mof_C 	C 	0.0879	0.0592	0.7477	-0.3
Mof_C 	C 	0.1432	0.0779	0.7572	0.394
Mof_C 	C 	0.0787	0.9964	0.7506	-0.18
Mof_C 	C 	0.9182	0.97	0.8337	0.899
Mof_C 	C 	0.9462	0.0076	0.8681	-1.575
Mof_C 	C 	0.9173	0.111	0.729	0.94
Mof_C 	C 	0.9309	0.1442	0.7793	-1.386
Mof_C 	C 	0.9482	0.9665	0.6395	0.898
Mof_C 	C 	0.9951	0.965	0.6009	-1.329
Mof_C 	C 	0.1041	0.3179	0.8745	0.234
Mof_C 	C 	0.0544	0.2818	0.8628	-0.135
Mof_C 	C 	0.0614	0.2307	0.8273	0.2
Mof_C 	C 	0.0365	0.2539	0.9192	-0.338
Mof_C 	C 	0.9327	0.2831	0.7228	0.261
Mof_C 	C 	0.9272	0.3265	0.7653	-0.206
Mof_C 	C 	0.8722	0.3574	0.7517	-0.259
Mof_C 	C 	0.9674	0.3709	0.7559	0.289
Mof_C 	C 	0.9489	0.5801	0.7952	0.363
Mof_C 	C 	0.9121	0.5592	0.7523	-0.297
Mof_C 	C 	0.8568	0.5779	0.7428	0.392
Mof_C 	C 	0.9213	0.4964	0.7494	-0.184
Mof_C 	C 	0.0818	0.47	0.6663	0.906
Mof_C 	C 	0.0538	0.5076	0.6319	-1.591
Mof_C 	C 	0.0827	0.611	0.771	0.939
Mof_C 	C 	0.0691	0.6442	0.7207	-1.385
Mof_C 	C 	0.0518	0.4665	0.8605	0.897
Mof_C 	C 	0.0049	0.465	0.8991	-1.324
Mof_C 	C 	0.3959	0.6821	0.3745	0.234
Mof_C 	C 	0.4456	0.7182	0.3628	-0.135
Mof_C 	C 	0.4386	0.7693	0.3273	0.2
Mof_C 	C 	0.4635	0.7461	0.4192	-0.338
Mof_C 	C 	0.5673	0.7169	0.2228	0.261
Mof_C 	C 	0.5728	0.6735	0.2653	-0.206
Mof_C 	C 	0.6278	0.6426	0.2517	-0.259
Mof_C 	C 	0.5326	0.6291	0.2559	0.288
Mof_C 	C 	0.5511	0.4199	0.2952	0.363
Mof_C 	C 	0.5879	0.4408	0.2523	-0.297
Mof_C 	C 	0.6432	0.4221	0.2428	0.392
Mof_C 	C 	0.5787	0.5036	0.2494	-0.184
Mof_C 	C 	0.4182	0.53	0.1663	0.906
Mof_C 	C 	0.4462	0.4924	0.1319	-1.591
Mof_C 	C 	0.4173	0.389	0.271	0.939
Mof_C 	C 	0.4309	0.3558	0.2207	-1.385
Mof_C 	C 	0.4482	0.5335	0.3605	0.898
Mof_C 	C 	0.4951	0.535	0.3991	-1.325
Mof_C 	C 	0.6041	0.1821	0.1255	0.235
Mof_C 	C 	0.5544	0.2182	0.1372	-0.136
Mof_C 	C 	0.5614	0.2693	0.1727	0.201
Mof_C 	C 	0.5365	0.2461	0.0808	-0.336
Mof_C 	C 	0.4327	0.2169	0.2772	0.261
Mof_C 	C 	0.4272	0.1735	0.2347	-0.206
Mof_C 	C 	0.3722	0.1426	0.2483	-0.258
Mof_C 	C 	0.4674	0.1291	0.2441	0.289
Mof_C 	C 	0.4489	0.9199	0.2048	0.361
Mof_C 	C 	0.4121	0.9408	0.2477	-0.293
Mof_C 	C 	0.3568	0.9221	0.2572	0.389
Mof_C 	C 	0.4213	0.0036	0.2506	-0.189
Mof_C 	C 	0.5818	0.03	0.3337	0.903
Mof_C 	C 	0.5538	0.9924	0.3681	-1.584
Mof_C 	C 	0.5827	0.889	0.229	0.939
Mof_C 	C 	0.5691	0.8558	0.2793	-1.385
Mof_C 	C 	0.5518	0.0335	0.1395	0.895
Mof_C 	C 	0.5049	0.035	0.1009	-1.32
Mof_O 	O 	0.673	0.8693	0.8353	-0.543
Mof_O 	O 	0.7248	0.9124	0.7435	-0.547
Mof_O 	O 	0.7482	0.9785	0.852	-0.544
Mof_O 	O 	0.7911	0.0193	0.756	-0.521
Mof_O 	O 	0.6998	0.0502	0.1373	-0.537
Mof_O 	O 	0.7522	0.1497	0.1324	-0.575
Mof_O 	O 	0.7901	0.9423	0.9556	-0.57
Mof_O 	O 	0.8472	0.8724	0.9504	-0.649
Mof_O 	O 	0.684	0.926	0.1329	-0.935
Mof_O 	O 	0.7346	0.8926	0.0686	-0.626
Mof_O 	O 	0.6336	0.9135	0.0046	-0.907
Mof_O 	O 	0.6728	0.9448	0.9284	-0.62
Mof_O 	O 	0.6592	0.8092	0.728	-0.362
Mof_O 	O 	0.7334	0.8378	0.9262	-0.72
Mof_O 	O 	0.7845	0.885	0.8332	-0.728
Mof_O 	O 	0.7782	0.8237	0.7276	-0.756
Mof_O 	O 	0.8518	0.2091	0.1447	-0.289
Mof_O 	O 	0.827	0.1307	0.3353	-0.543
Mof_O 	O 	0.7752	0.0876	0.2435	-0.547
Mof_O 	O 	0.7518	0.0215	0.352	-0.544
Mof_O 	O 	0.7089	0.9807	0.256	-0.521
Mof_O 	O 	0.8002	0.9498	0.6373	-0.536
Mof_O 	O 	0.7478	0.8503	0.6324	-0.574
Mof_O 	O 	0.7099	0.0577	0.4556	-0.571
Mof_O 	O 	0.6528	0.1276	0.4504	-0.651
Mof_O 	O 	0.816	0.074	0.6329	-0.935
Mof_O 	O 	0.7654	0.1074	0.5686	-0.627
Mof_O 	O 	0.8664	0.0865	0.5046	-0.907
Mof_O 	O 	0.8272	0.0552	0.4284	-0.62
Mof_O 	O 	0.8408	0.1908	0.228	-0.362
Mof_O 	O 	0.7666	0.1622	0.4262	-0.72
Mof_O 	O 	0.7155	0.115	0.3332	-0.728
Mof_O 	O 	0.7218	0.1763	0.2276	-0.756
Mof_O 	O 	0.6482	0.7909	0.6447	-0.289
Mof_O 	O 	0.327	0.3693	0.6647	-0.543
Mof_O 	O 	0.2752	0.4124	0.7565	-0.547
Mof_O 	O 	0.2518	0.4785	0.648	-0.544
Mof_O 	O 	0.2089	0.5193	0.744	-0.522
Mof_O 	O 	0.3002	0.5502	0.3627	-0.536
Mof_O 	O 	0.2478	0.6497	0.3676	-0.574
Mof_O 	O 	0.2099	0.4423	0.5444	-0.571
Mof_O 	O 	0.1528	0.3724	0.5496	-0.651
Mof_O 	O 	0.316	0.426	0.3671	-0.935
Mof_O 	O 	0.2654	0.3926	0.4314	-0.627
Mof_O 	O 	0.3664	0.4135	0.4954	-0.907
Mof_O 	O 	0.3272	0.4448	0.5716	-0.62
Mof_O 	O 	0.3408	0.3092	0.772	-0.362
Mof_O 	O 	0.2666	0.3378	0.5738	-0.72
Mof_O 	O 	0.2155	0.385	0.6668	-0.728
Mof_O 	O 	0.2218	0.3237	0.7724	-0.756
Mof_O 	O 	0.1482	0.7091	0.3553	-0.289
Mof_O 	O 	0.173	0.6307	0.1647	-0.543
Mof_O 	O 	0.2248	0.5876	0.2565	-0.547
Mof_O 	O 	0.2482	0.5215	0.148	-0.544
Mof_O 	O 	0.2911	0.4807	0.244	-0.522
Mof_O 	O 	0.1998	0.4498	0.8627	-0.535
Mof_O 	O 	0.2522	0.3503	0.8676	-0.573
Mof_O 	O 	0.2901	0.5577	0.0444	-0.571
Mof_O 	O 	0.3472	0.6276	0.0496	-0.65
Mof_O 	O 	0.184	0.574	0.8671	-0.935
Mof_O 	O 	0.2346	0.6074	0.9314	-0.627
Mof_O 	O 	0.1336	0.5865	0.9954	-0.906
Mof_O 	O 	0.1728	0.5552	0.0716	-0.619
Mof_O 	O 	0.1592	0.6908	0.272	-0.362
Mof_O 	O 	0.2334	0.6622	0.0738	-0.72
Mof_O 	O 	0.2845	0.615	0.1668	-0.728
Mof_O 	O 	0.2782	0.6763	0.2724	-0.756
Mof_O 	O 	0.3518	0.2909	0.8553	-0.288
Mof_O 	O 	0.8353	0.673	0.8693	-0.543
Mof_O 	O 	0.7435	0.7248	0.9124	-0.547
Mof_O 	O 	0.852	0.7482	0.9785	-0.544
Mof_O 	O 	0.756	0.7911	0.0193	-0.521
Mof_O 	O 	0.1373	0.6998	0.0502	-0.537
Mof_O 	O 	0.1324	0.7522	0.1497	-0.575
Mof_O 	O 	0.9556	0.7901	0.9423	-0.57
Mof_O 	O 	0.9504	0.8472	0.8724	-0.649
Mof_O 	O 	0.1329	0.684	0.926	-0.935
Mof_O 	O 	0.0686	0.7346	0.8926	-0.626
Mof_O 	O 	0.0046	0.6336	0.9135	-0.907
Mof_O 	O 	0.9284	0.6728	0.9448	-0.62
Mof_O 	O 	0.728	0.6592	0.8092	-0.362
Mof_O 	O 	0.9262	0.7334	0.8378	-0.72
Mof_O 	O 	0.8332	0.7845	0.885	-0.728
Mof_O 	O 	0.7276	0.7782	0.8237	-0.756
Mof_O 	O 	0.1447	0.8518	0.2091	-0.289
Mof_O 	O 	0.3353	0.827	0.1307	-0.543
Mof_O 	O 	0.2435	0.7752	0.0876	-0.547
Mof_O 	O 	0.352	0.7518	0.0215	-0.544
Mof_O 	O 	0.256	0.7089	0.9807	-0.521
Mof_O 	O 	0.6373	0.8002	0.9498	-0.536
Mof_O 	O 	0.6324	0.7478	0.8503	-0.574
Mof_O 	O 	0.4556	0.7099	0.0577	-0.571
Mof_O 	O 	0.4504	0.6528	0.1276	-0.651
Mof_O 	O 	0.6329	0.816	0.074	-0.935
Mof_O 	O 	0.5686	0.7654	0.1074	-0.627
Mof_O 	O 	0.5046	0.8664	0.0865	-0.907
Mof_O 	O 	0.4284	0.8272	0.0552	-0.62
Mof_O 	O 	0.228	0.8408	0.1908	-0.362
Mof_O 	O 	0.4262	0.7666	0.1622	-0.72
Mof_O 	O 	0.3332	0.7155	0.115	-0.728
Mof_O 	O 	0.2276	0.7218	0.1763	-0.756
Mof_O 	O 	0.6447	0.6482	0.7909	-0.289
Mof_O 	O 	0.6647	0.327	0.3693	-0.543
Mof_O 	O 	0.7565	0.2752	0.4124	-0.547
Mof_O 	O 	0.648	0.2518	0.4785	-0.544
Mof_O 	O 	0.744	0.2089	0.5193	-0.522
Mof_O 	O 	0.3627	0.3002	0.5502	-0.536
Mof_O 	O 	0.3676	0.2478	0.6497	-0.574
Mof_O 	O 	0.5444	0.2099	0.4423	-0.571
Mof_O 	O 	0.5496	0.1528	0.3724	-0.651
Mof_O 	O 	0.3671	0.316	0.426	-0.935
Mof_O 	O 	0.4314	0.2654	0.3926	-0.627
Mof_O 	O 	0.4954	0.3664	0.4135	-0.907
Mof_O 	O 	0.5716	0.3272	0.4448	-0.62
Mof_O 	O 	0.772	0.3408	0.3092	-0.362
Mof_O 	O 	0.5738	0.2666	0.3378	-0.72
Mof_O 	O 	0.6668	0.2155	0.385	-0.728
Mof_O 	O 	0.7724	0.2218	0.3237	-0.756
Mof_O 	O 	0.3553	0.1482	0.7091	-0.289
Mof_O 	O 	0.1647	0.173	0.6307	-0.543
Mof_O 	O 	0.2565	0.2248	0.5876	-0.547
Mof_O 	O 	0.148	0.2482	0.5215	-0.544
Mof_O 	O 	0.244	0.2911	0.4807	-0.522
Mof_O 	O 	0.8627	0.1998	0.4498	-0.535
Mof_O 	O 	0.8676	0.2522	0.3503	-0.573
Mof_O 	O 	0.0444	0.2901	0.5577	-0.571
Mof_O 	O 	0.0496	0.3472	0.6276	-0.65
Mof_O 	O 	0.8671	0.184	0.574	-0.935
Mof_O 	O 	0.9314	0.2346	0.6074	-0.627
Mof_O 	O 	0.9954	0.1336	0.5865	-0.906
Mof_O 	O 	0.0716	0.1728	0.5552	-0.619
Mof_O 	O 	0.272	0.1592	0.6908	-0.362
Mof_O 	O 	0.0738	0.2334	0.6622	-0.72
Mof_O 	O 	0.1668	0.2845	0.615	-0.728
Mof_O 	O 	0.2724	0.2782	0.6763	-0.756
Mof_O 	O 	0.8553	0.3518	0.2909	-0.288
Mof_O 	O 	0.8693	0.8353	0.673	-0.543
Mof_O 	O 	0.9124	0.7435	0.7248	-0.547
Mof_O 	O 	0.9785	0.852	0.7482	-0.544
Mof_O 	O 	0.0193	0.756	0.7911	-0.521
Mof_O 	O 	0.0502	0.1373	0.6998	-0.537
Mof_O 	O 	0.1497	0.1324	0.7522	-0.575
Mof_O 	O 	0.9423	0.9556	0.7901	-0.57
Mof_O 	O 	0.8724	0.9504	0.8472	-0.649
Mof_O 	O 	0.926	0.1329	0.684	-0.935
Mof_O 	O 	0.8926	0.0686	0.7346	-0.626
Mof_O 	O 	0.9135	0.0046	0.6336	-0.907
Mof_O 	O 	0.9448	0.9284	0.6728	-0.62
Mof_O 	O 	0.8092	0.728	0.6592	-0.362
Mof_O 	O 	0.8378	0.9262	0.7334	-0.72
Mof_O 	O 	0.885	0.8332	0.7845	-0.728
Mof_O 	O 	0.8237	0.7276	0.7782	-0.756
Mof_O 	O 	0.2091	0.1447	0.8518	-0.289
Mof_O 	O 	0.1307	0.3353	0.827	-0.543
Mof_O 	O 	0.0876	0.2435	0.7752	-0.547
Mof_O 	O 	0.0215	0.352	0.7518	-0.544
Mof_O 	O 	0.9807	0.256	0.7089	-0.521
Mof_O 	O 	0.9498	0.6373	0.8002	-0.536
Mof_O 	O 	0.8503	0.6324	0.7478	-0.574
Mof_O 	O 	0.0577	0.4556	0.7099	-0.571
Mof_O 	O 	0.1276	0.4504	0.6528	-0.651
Mof_O 	O 	0.074	0.6329	0.816	-0.935
Mof_O 	O 	0.1074	0.5686	0.7654	-0.627
Mof_O 	O 	0.0865	0.5046	0.8664	-0.907
Mof_O 	O 	0.0552	0.4284	0.8272	-0.62
Mof_O 	O 	0.1908	0.228	0.8408	-0.362
Mof_O 	O 	0.1622	0.4262	0.7666	-0.72
Mof_O 	O 	0.115	0.3332	0.7155	-0.728
Mof_O 	O 	0.1763	0.2276	0.7218	-0.756
Mof_O 	O 	0.7909	0.6447	0.6482	-0.289
Mof_O 	O 	0.3693	0.6647	0.327	-0.543
Mof_O 	O 	0.4124	0.7565	0.2752	-0.547
Mof_O 	O 	0.4785	0.648	0.2518	-0.544
Mof_O 	O 	0.5193	0.744	0.2089	-0.522
Mof_O 	O 	0.5502	0.3627	0.3002	-0.536
Mof_O 	O 	0.6497	0.3676	0.2478	-0.574
Mof_O 	O 	0.4423	0.5444	0.2099	-0.571
Mof_O 	O 	0.3724	0.5496	0.1528	-0.651
Mof_O 	O 	0.426	0.3671	0.316	-0.935
Mof_O 	O 	0.3926	0.4314	0.2654	-0.627
Mof_O 	O 	0.4135	0.4954	0.3664	-0.907
Mof_O 	O 	0.4448	0.5716	0.3272	-0.62
Mof_O 	O 	0.3092	0.772	0.3408	-0.362
Mof_O 	O 	0.3378	0.5738	0.2666	-0.72
Mof_O 	O 	0.385	0.6668	0.2155	-0.728
Mof_O 	O 	0.3237	0.7724	0.2218	-0.756
Mof_O 	O 	0.7091	0.3553	0.1482	-0.289
Mof_O 	O 	0.6307	0.1647	0.173	-0.543
Mof_O 	O 	0.5876	0.2565	0.2248	-0.547
Mof_O 	O 	0.5215	0.148	0.2482	-0.544
Mof_O 	O 	0.4807	0.244	0.2911	-0.522
Mof_O 	O 	0.4498	0.8627	0.1998	-0.535
Mof_O 	O 	0.3503	0.8676	0.2522	-0.573
Mof_O 	O 	0.5577	0.0444	0.2901	-0.571
Mof_O 	O 	0.6276	0.0496	0.3472	-0.65
Mof_O 	O 	0.574	0.8671	0.184	-0.935
Mof_O 	O 	0.6074	0.9314	0.2346	-0.627
Mof_O 	O 	0.5865	0.9954	0.1336	-0.906
Mof_O 	O 	0.5552	0.0716	0.1728	-0.619
Mof_O 	O 	0.6908	0.272	0.1592	-0.362
Mof_O 	O 	0.6622	0.0738	0.2334	-0.72
Mof_O 	O 	0.615	0.1668	0.2845	-0.728
Mof_O 	O 	0.6763	0.2724	0.2782	-0.756
Mof_O 	O 	0.2909	0.8553	0.3518	-0.288
Mof_O 	O 	0.788	0.288	0.212	-0.594
Mof_O 	O 	0.712	0.712	0.712	-0.594
Mof_O 	O 	0.212	0.788	0.288	-0.594
Mof_O 	O 	0.288	0.212	0.788	-0.594
_end
