data_functionalizedCrystal
_audit_creation_method	'EQeq! by Chris Wilmer'
_symmetry_space_group_name_H-M	'P1'
_symmetry_Int_Tables_number	1
_symmetry_cell_setting	triclinic
loop_
_symmetry_equiv_pos_as_xyz
  x,y,z
_cell_length_a	6.82
_cell_length_b	16.493
_cell_length_c	22.22
_cell_angle_alpha	90
_cell_angle_beta	90
_cell_angle_gamma	90
loop_
_atom_site_label
_atom_site_type_symbol
_atom_site_fract_x
_atom_site_fract_y
_atom_site_fract_z
_atom_site_charge
Mof_Sr	Sr	0.04403	0.05797	0.91306	1.287
Mof_Sr	Sr	0.45597	0.44203	0.41306	1.394
Mof_Sr	Sr	0.04403	0.94203	0.58694	1.503
Mof_Sr	Sr	0.45597	0.55797	0.08694	1.386
Mof_Sr	Sr	0.95597	0.94203	0.08694	1.495
Mof_Sr	Sr	0.54403	0.55797	0.58694	1.392
Mof_Sr	Sr	0.95597	0.05797	0.41306	1.28
Mof_Sr	Sr	0.54403	0.44203	0.91306	1.4
Mof_Sr	Sr	0.24167	1.01e-32	0.75	1.327
Mof_Sr	Sr	0.25833	0.5	0.25	1.464
Mof_Sr	Sr	0.75833	0	0.25	1.324
Mof_Sr	Sr	0.74167	0.5	0.75	1.464
Mof_H 	H 	0.4666	0.7529	0.9094	0.023
Mof_H 	H 	0.2995	0.6623	0.7497	-0.002
Mof_H 	H 	0.295	0.031	0.026	0.316
Mof_H 	H 	0.305	0.967	0.9924	0.381
Mof_H 	H 	0.0334	0.7471	0.4094	0.023
Mof_H 	H 	0.2005	0.8377	0.2497	0.009
Mof_H 	H 	0.205	0.469	0.526	0.419
Mof_H 	H 	0.195	0.533	0.4924	0.419
Mof_H 	H 	0.4666	0.2471	0.5906	0.021
Mof_H 	H 	0.2995	0.3377	0.7503	-0.004
Mof_H 	H 	0.295	0.969	0.474	0.526
Mof_H 	H 	0.305	0.033	0.5076	0.466
Mof_H 	H 	0.0334	0.2529	0.0906	0.021
Mof_H 	H 	0.2005	0.1623	0.2503	-0.003
Mof_H 	H 	0.205	0.531	0.974	0.414
Mof_H 	H 	0.195	0.467	0.0076	0.41
Mof_H 	H 	0.5334	0.2471	0.0906	0.019
Mof_H 	H 	0.7005	0.3377	0.2503	-0.004
Mof_H 	H 	0.705	0.969	0.974	0.516
Mof_H 	H 	0.695	0.033	0.0076	0.448
Mof_H 	H 	0.9666	0.2529	0.5906	0.022
Mof_H 	H 	0.7995	0.1623	0.7503	-0.003
Mof_H 	H 	0.795	0.531	0.474	0.419
Mof_H 	H 	0.805	0.467	0.5076	0.42
Mof_H 	H 	0.5334	0.7529	0.4094	0.022
Mof_H 	H 	0.7005	0.6623	0.2497	-0.003
Mof_H 	H 	0.705	0.031	0.526	0.314
Mof_H 	H 	0.695	0.967	0.4924	0.374
Mof_H 	H 	0.9666	0.7471	0.9094	0.024
Mof_H 	H 	0.7995	0.8377	0.7497	0.009
Mof_H 	H 	0.795	0.469	0.026	0.424
Mof_H 	H 	0.805	0.533	0.9924	0.433
Mof_C 	C 	0.3878	0.8364	0.8476	-0.056
Mof_C 	C 	0.4233	0.7596	0.8701	0.028
Mof_C 	C 	0.2908	0.7847	0.7559	-0.073
Mof_C 	C 	0.2081	0.8037	0.694	0.377
Mof_C 	C 	0.3937	0.6929	0.8335	-0.123
Mof_C 	C 	0.4414	0.6084	0.8552	0.353
Mof_C 	C 	0.4162	0.9109	0.8872	0.336
Mof_C 	C 	0.3237	0.7059	0.7752	0.041
Mof_C 	C 	0.1122	0.6636	0.3476	-0.061
Mof_C 	C 	0.0767	0.7404	0.3701	0.028
Mof_C 	C 	0.2092	0.7153	0.2559	-0.072
Mof_C 	C 	0.2919	0.6963	0.194	0.379
Mof_C 	C 	0.1063	0.8071	0.3335	-0.112
Mof_C 	C 	0.0586	0.8916	0.3552	0.343
Mof_C 	C 	0.0838	0.5891	0.3872	0.344
Mof_C 	C 	0.1763	0.7941	0.2752	0.038
Mof_C 	C 	0.3878	0.1636	0.6524	-0.067
Mof_C 	C 	0.4233	0.2404	0.6299	0.035
Mof_C 	C 	0.2908	0.2153	0.7441	-0.078
Mof_C 	C 	0.2081	0.1963	0.806	0.377
Mof_C 	C 	0.3937	0.3071	0.6665	-0.126
Mof_C 	C 	0.4414	0.3916	0.6448	0.355
Mof_C 	C 	0.4162	0.0891	0.6128	0.347
Mof_C 	C 	0.3237	0.2941	0.7248	0.045
Mof_C 	C 	0.1122	0.3364	0.1524	-0.063
Mof_C 	C 	0.0767	0.2596	0.1299	0.035
Mof_C 	C 	0.2092	0.2847	0.2441	-0.077
Mof_C 	C 	0.2919	0.3037	0.306	0.381
Mof_C 	C 	0.1063	0.1929	0.1665	-0.124
Mof_C 	C 	0.0586	0.1084	0.1448	0.359
Mof_C 	C 	0.0838	0.4109	0.1128	0.345
Mof_C 	C 	0.1763	0.2059	0.2248	0.047
Mof_C 	C 	0.6122	0.1636	0.1524	-0.068
Mof_C 	C 	0.5767	0.2404	0.1299	0.035
Mof_C 	C 	0.7092	0.2153	0.2441	-0.079
Mof_C 	C 	0.7919	0.1963	0.306	0.377
Mof_C 	C 	0.6063	0.3071	0.1665	-0.127
Mof_C 	C 	0.5586	0.3916	0.1448	0.355
Mof_C 	C 	0.5838	0.0891	0.1128	0.347
Mof_C 	C 	0.6763	0.2941	0.2248	0.045
Mof_C 	C 	0.8878	0.3364	0.6524	-0.063
Mof_C 	C 	0.9233	0.2596	0.6299	0.034
Mof_C 	C 	0.7908	0.2847	0.7441	-0.077
Mof_C 	C 	0.7081	0.3037	0.806	0.381
Mof_C 	C 	0.8937	0.1929	0.6665	-0.124
Mof_C 	C 	0.9414	0.1084	0.6448	0.358
Mof_C 	C 	0.9162	0.4109	0.6128	0.344
Mof_C 	C 	0.8237	0.2059	0.7248	0.047
Mof_C 	C 	0.6122	0.8364	0.3476	-0.057
Mof_C 	C 	0.5767	0.7596	0.3701	0.029
Mof_C 	C 	0.7092	0.7847	0.2559	-0.073
Mof_C 	C 	0.7919	0.8037	0.194	0.376
Mof_C 	C 	0.6063	0.6929	0.3335	-0.123
Mof_C 	C 	0.5586	0.6084	0.3552	0.353
Mof_C 	C 	0.5838	0.9109	0.3872	0.336
Mof_C 	C 	0.6763	0.7059	0.2752	0.042
Mof_C 	C 	0.8878	0.6636	0.8476	-0.06
Mof_C 	C 	0.9233	0.7404	0.8701	0.027
Mof_C 	C 	0.7908	0.7153	0.7559	-0.072
Mof_C 	C 	0.7081	0.6963	0.694	0.379
Mof_C 	C 	0.8937	0.8071	0.8335	-0.112
Mof_C 	C 	0.9414	0.8916	0.8552	0.343
Mof_C 	C 	0.9162	0.5891	0.8872	0.343
Mof_C 	C 	0.8237	0.7941	0.7752	0.038
Mof_N 	N 	0.3238	0.8493	0.79123	-0.145
Mof_N 	N 	0.1762	0.6507	0.29123	-0.157
Mof_N 	N 	0.3238	0.1507	0.70877	-0.152
Mof_N 	N 	0.1762	0.3493	0.20877	-0.156
Mof_N 	N 	0.6762	0.1507	0.20877	-0.152
Mof_N 	N 	0.8238	0.3493	0.70877	-0.156
Mof_N 	N 	0.6762	0.8493	0.29123	-0.145
Mof_N 	N 	0.8238	0.6507	0.79123	-0.158
Mof_O 	O 	0.3635	0.9784	0.86512	-0.433
Mof_O 	O 	0.1679	0.8771	0.68346	-0.527
Mof_O 	O 	0.4815	0.6	0.91023	-0.4
Mof_O 	O 	0.2287	0.9987	0.00723	-0.892
Mof_O 	O 	0.4442	0.5508	0.81828	-0.476
Mof_O 	O 	0.4826	0.9004	0.93846	-0.377
Mof_O 	O 	0.1823	0.7479	0.65833	-0.371
Mof_O 	O 	0.1365	0.5216	0.36512	-0.484
Mof_O 	O 	0.3321	0.6229	0.18346	-0.549
Mof_O 	O 	0.0185	0.9	0.41023	-0.377
Mof_O 	O 	0.2713	0.5013	0.50723	-1.048
Mof_O 	O 	0.0558	0.9492	0.31828	-0.421
Mof_O 	O 	0.0174	0.5996	0.43846	-0.388
Mof_O 	O 	0.3177	0.7521	0.15833	-0.365
Mof_O 	O 	0.3635	0.0216	0.63488	-0.511
Mof_O 	O 	0.1679	0.1229	0.81654	-0.543
Mof_O 	O 	0.4815	0.4	0.58977	-0.401
Mof_O 	O 	0.2287	0.0013	0.49277	-1.213
Mof_O 	O 	0.4442	0.4492	0.68172	-0.476
Mof_O 	O 	0.4826	0.0996	0.56154	-0.396
Mof_O 	O 	0.1823	0.2521	0.84167	-0.367
Mof_O 	O 	0.1365	0.4784	0.13488	-0.485
Mof_O 	O 	0.3321	0.3771	0.31654	-0.549
Mof_O 	O 	0.0185	0.1	0.08977	-0.416
Mof_O 	O 	0.2713	0.4987	0.99277	-1.033
Mof_O 	O 	0.0558	0.0508	0.18172	-0.489
Mof_O 	O 	0.0174	0.4004	0.06154	-0.388
Mof_O 	O 	0.3177	0.2479	0.34167	-0.368
Mof_O 	O 	0.6365	0.0216	0.13488	-0.511
Mof_O 	O 	0.8321	0.1229	0.31654	-0.543
Mof_O 	O 	0.5185	0.4	0.08977	-0.402
Mof_O 	O 	0.7713	0.0013	0.99277	-1.184
Mof_O 	O 	0.5558	0.4492	0.18172	-0.476
Mof_O 	O 	0.5174	0.0996	0.06154	-0.397
Mof_O 	O 	0.8177	0.2521	0.34167	-0.368
Mof_O 	O 	0.8635	0.4784	0.63488	-0.485
Mof_O 	O 	0.6679	0.3771	0.81654	-0.549
Mof_O 	O 	0.9815	0.1	0.58977	-0.416
Mof_O 	O 	0.7287	0.4987	0.49277	-1.048
Mof_O 	O 	0.9442	0.0508	0.68172	-0.489
Mof_O 	O 	0.9826	0.4004	0.56154	-0.387
Mof_O 	O 	0.6823	0.2479	0.84167	-0.367
Mof_O 	O 	0.6365	0.9784	0.36512	-0.432
Mof_O 	O 	0.8321	0.8771	0.18346	-0.526
Mof_O 	O 	0.5185	0.6	0.41023	-0.401
Mof_O 	O 	0.7713	0.9987	0.50723	-0.882
Mof_O 	O 	0.5558	0.5508	0.31828	-0.476
Mof_O 	O 	0.5174	0.9004	0.43846	-0.378
Mof_O 	O 	0.8177	0.7479	0.15833	-0.372
Mof_O 	O 	0.8635	0.5216	0.86512	-0.484
Mof_O 	O 	0.6679	0.6229	0.68346	-0.549
Mof_O 	O 	0.9815	0.9	0.91023	-0.377
Mof_O 	O 	0.7287	0.5013	0.00723	-1.068
Mof_O 	O 	0.9442	0.9492	0.81828	-0.422
Mof_O 	O 	0.9826	0.5996	0.93846	-0.386
Mof_O 	O 	0.6823	0.7521	0.65833	-0.365
_end
