data_functionalizedCrystal
_audit_creation_method	'EQeq! by Chris Wilmer'
_symmetry_space_group_name_H-M	'P1'
_symmetry_Int_Tables_number	1
_symmetry_cell_setting	triclinic
loop_
_symmetry_equiv_pos_as_xyz
  x,y,z
_cell_length_a	16.3257
_cell_length_b	59.1677
_cell_length_c	32.1508
_cell_angle_alpha	90
_cell_angle_beta	90
_cell_angle_gamma	90
loop_
_atom_site_label
_atom_site_type_symbol
_atom_site_fract_x
_atom_site_fract_y
_atom_site_fract_z
_atom_site_charge
Mof_Ho	Ho	0.76137	0.13427	0.72949	1.694
Mof_O 	O 	0.00813	0.13063	0.70539	-0.587
Mof_O 	O 	0.8885	0.1464	0.71318	-0.558
Mof_O 	O 	0.1983	0.13789	0.3362	-0.456
Mof_O 	O 	0.22657	0.16994	0.30754	-0.452
Mof_O 	O 	0.1199	0.09533	0.71876	-0.643
Mof_O 	O 	0.2272	0.11614	0.70764	-0.622
Mof_O 	O 	0.3137	0.10509	0.30768	-0.572
Mof_O 	O 	0.43109	0.0876	0.30751	-0.603
Mof_C 	C 	0.0098	0.2376	0.51569	-0.142
Mof_C 	C 	0.99772	0.22439	0.55114	0.076
Mof_H 	H 	0.9762	0.2312	0.5748	0.012
Mof_C 	C 	0.0171	0.20097	0.55231	-0.08
Mof_C 	C 	0.0516	0.19124	0.51742	-0.017
Mof_H 	H 	0.0663	0.1761	0.5179	0.028
Mof_C 	C 	0.0648	0.20401	0.48123	-0.066
Mof_C 	C 	0.0429	0.22737	0.48114	0.01
Mof_H 	H 	0.0513	0.2359	0.4572	0.01
Mof_C 	C 	0.0025	0.18716	0.58932	0.056
Mof_C 	C 	0.9329	0.18973	0.61245	-0.105
Mof_H 	H 	0.8955	0.2009	0.6052	0.072
Mof_C 	C 	0.9166	0.1761	0.64636	0.068
Mof_H 	H 	0.8683	0.1779	0.6613	0.015
Mof_C 	C 	0.9727	0.15965	0.65808	-0.162
Mof_C 	C 	0.0419	0.15701	0.63621	0.043
Mof_H 	H 	0.0798	0.146	0.6439	0.009
Mof_C 	C 	0.0568	0.17062	0.60226	-0.141
Mof_H 	H 	0.1052	0.1686	0.5875	0.072
Mof_C 	C 	0.956	0.14429	0.69531	0.565
Mof_C 	C 	0.0995	0.19273	0.44393	0.132
Mof_C 	C 	0.0964	0.16985	0.43857	-0.199
Mof_H 	H 	0.0717	0.1611	0.459	0.09
Mof_C 	C 	0.1288	0.15907	0.40374	0.115
Mof_H 	H 	0.1246	0.1435	0.4011	-0.007
Mof_C 	C 	0.1655	0.17108	0.37441	-0.194
Mof_C 	C 	0.1684	0.19325	0.37873	0.117
Mof_H 	H 	0.1939	0.2018	0.3582	-0.008
Mof_C 	C 	0.1343	0.20434	0.41324	-0.204
Mof_H 	H 	0.1361	0.22	0.4147	0.093
Mof_C 	C 	0.2002	0.15947	0.33677	0.375
Mof_C 	C 	0.253	0.01299	0.51398	0.025
Mof_C 	C 	0.2337	0.02572	0.54871	-0.082
Mof_H 	H 	0.2171	0.0184	0.5729	0.051
Mof_C 	C 	0.2385	0.04971	0.54857	-0.012
Mof_C 	C 	0.2614	0.0607	0.51216	-0.072
Mof_H 	H 	0.2652	0.0764	0.5115	0.05
Mof_C 	C 	0.2783	0.04823	0.477	-0
Mof_C 	C 	0.2754	0.02479	0.4783	-0.088
Mof_H 	H 	0.289	0.0167	0.4545	0.056
Mof_C 	C 	0.2207	0.0629	0.58635	0.128
Mof_C 	C 	0.2676	0.0818	0.59707	-0.224
Mof_H 	H 	0.3098	0.0862	0.5794	0.102
Mof_C 	C 	0.254	0.094	0.63247	0.174
Mof_H 	H 	0.2866	0.1064	0.6386	-0.037
Mof_C 	C 	0.1924	0.08784	0.65869	-0.287
Mof_C 	C 	0.1425	0.06989	0.64784	0.18
Mof_H 	H 	0.0975	0.0664	0.6644	-0.047
Mof_C 	C 	0.1584	0.05711	0.61269	-0.23
Mof_H 	H 	0.1265	0.0445	0.6069	0.099
Mof_C 	C 	0.1805	0.10151	0.69859	0.625
Mof_C 	C 	0.303	0.06024	0.43788	0.109
Mof_C 	C 	0.3667	0.05203	0.41405	-0.204
Mof_H 	H 	0.3956	0.0393	0.4228	0.096
Mof_C 	C 	0.3874	0.06235	0.37798	0.149
Mof_H 	H 	0.4308	0.0568	0.3623	-0.022
Mof_C 	C 	0.3444	0.08122	0.36406	-0.248
Mof_C 	C 	0.2811	0.08973	0.38759	0.135
Mof_H 	H 	0.2516	0.1023	0.3785	-0.008
Mof_C 	C 	0.262	0.0794	0.42484	-0.194
Mof_H 	H 	0.2208	0.0854	0.4414	0.092
Mof_C 	C 	0.3653	0.09257	0.32311	0.586
Mof_Ho	Ho	0.26137	0.63427	0.72949	1.679
Mof_O 	O 	0.50813	0.63063	0.70539	-0.565
Mof_O 	O 	0.3885	0.6464	0.71318	-0.558
Mof_O 	O 	0.6983	0.63789	0.3362	-0.45
Mof_O 	O 	0.72657	0.66994	0.30754	-0.446
Mof_O 	O 	0.6199	0.59533	0.71876	-0.65
Mof_O 	O 	0.7272	0.61614	0.70764	-0.621
Mof_O 	O 	0.8137	0.60509	0.30768	-0.565
Mof_O 	O 	0.93109	0.5876	0.30751	-0.574
Mof_C 	C 	0.5098	0.7376	0.51569	0.029
Mof_C 	C 	0.49772	0.72439	0.55114	-0.085
Mof_H 	H 	0.4762	0.7312	0.5748	0.057
Mof_C 	C 	0.5171	0.70097	0.55231	-0.002
Mof_C 	C 	0.5516	0.69124	0.51742	-0.075
Mof_H 	H 	0.5663	0.6761	0.5179	0.053
Mof_C 	C 	0.5648	0.70401	0.48123	0.005
Mof_C 	C 	0.5429	0.72737	0.48114	-0.087
Mof_H 	H 	0.5513	0.7359	0.4572	0.056
Mof_C 	C 	0.5025	0.68716	0.58932	0.111
Mof_C 	C 	0.4329	0.68973	0.61245	-0.193
Mof_H 	H 	0.3955	0.7009	0.6052	0.097
Mof_C 	C 	0.4166	0.6761	0.64636	0.136
Mof_H 	H 	0.3683	0.6779	0.6613	-0.009
Mof_C 	C 	0.4727	0.65965	0.65808	-0.243
Mof_C 	C 	0.5419	0.65701	0.63621	0.148
Mof_H 	H 	0.5798	0.646	0.6439	-0.02
Mof_C 	C 	0.5568	0.67062	0.60226	-0.2
Mof_H 	H 	0.6052	0.6686	0.5875	0.096
Mof_C 	C 	0.456	0.64429	0.69531	0.552
Mof_C 	C 	0.5995	0.69273	0.44393	0.092
Mof_C 	C 	0.5964	0.66985	0.43857	-0.161
Mof_H 	H 	0.5717	0.6611	0.459	0.082
Mof_C 	C 	0.6288	0.65907	0.40374	0.088
Mof_H 	H 	0.6246	0.6435	0.4011	0.006
Mof_C 	C 	0.6655	0.67108	0.37441	-0.167
Mof_C 	C 	0.6684	0.69325	0.37873	0.089
Mof_H 	H 	0.6939	0.7018	0.3582	0.006
Mof_C 	C 	0.6343	0.70434	0.41324	-0.165
Mof_H 	H 	0.6361	0.72	0.4147	0.084
Mof_C 	C 	0.7002	0.65947	0.33677	0.367
Mof_C 	C 	0.753	0.51299	0.51398	0.029
Mof_C 	C 	0.7337	0.52572	0.54871	-0.081
Mof_H 	H 	0.7171	0.5184	0.5729	0.055
Mof_C 	C 	0.7385	0.54971	0.54857	-0.008
Mof_C 	C 	0.7614	0.5607	0.51216	-0.071
Mof_H 	H 	0.7652	0.5764	0.5115	0.054
Mof_C 	C 	0.7783	0.54823	0.477	0.005
Mof_C 	C 	0.7754	0.52479	0.4783	-0.087
Mof_H 	H 	0.789	0.5167	0.4545	0.06
Mof_C 	C 	0.7207	0.5629	0.58635	0.131
Mof_C 	C 	0.7676	0.5818	0.59707	-0.223
Mof_H 	H 	0.8098	0.5862	0.5794	0.107
Mof_C 	C 	0.754	0.594	0.63247	0.177
Mof_H 	H 	0.7866	0.6064	0.6386	-0.033
Mof_C 	C 	0.6924	0.58784	0.65869	-0.286
Mof_C 	C 	0.6425	0.56989	0.64784	0.183
Mof_H 	H 	0.5975	0.5664	0.6644	-0.041
Mof_C 	C 	0.6584	0.55711	0.61269	-0.228
Mof_H 	H 	0.6265	0.5445	0.6069	0.105
Mof_C 	C 	0.6805	0.60151	0.69859	0.631
Mof_C 	C 	0.803	0.56024	0.43788	0.108
Mof_C 	C 	0.8667	0.55203	0.41405	-0.197
Mof_H 	H 	0.8956	0.5393	0.4228	0.101
Mof_C 	C 	0.8874	0.56235	0.37798	0.146
Mof_H 	H 	0.9308	0.5568	0.3623	-0.012
Mof_C 	C 	0.8444	0.58122	0.36406	-0.238
Mof_C 	C 	0.7811	0.58973	0.38759	0.132
Mof_H 	H 	0.7516	0.6023	0.3785	-0.004
Mof_C 	C 	0.762	0.5794	0.42484	-0.188
Mof_H 	H 	0.7208	0.5854	0.4414	0.094
Mof_C 	C 	0.8653	0.59257	0.32311	0.579
Mof_Ho	Ho	0.73863	0.86573	0.72949	1.701
Mof_O 	O 	0.49187	0.86937	0.70539	-0.565
Mof_O 	O 	0.6115	0.8536	0.71318	-0.56
Mof_O 	O 	0.3017	0.86211	0.3362	-0.45
Mof_O 	O 	0.27343	0.83006	0.30754	-0.447
Mof_O 	O 	0.3801	0.90467	0.71876	-0.651
Mof_O 	O 	0.2728	0.88386	0.70764	-0.625
Mof_O 	O 	0.1863	0.89491	0.30768	-0.569
Mof_O 	O 	0.06891	0.9124	0.30751	-0.601
Mof_C 	C 	0.4902	0.7624	0.51569	0.028
Mof_C 	C 	0.50228	0.77561	0.55114	-0.086
Mof_H 	H 	0.5238	0.7688	0.5748	0.057
Mof_C 	C 	0.4829	0.79903	0.55231	-0.002
Mof_C 	C 	0.4484	0.80876	0.51742	-0.075
Mof_H 	H 	0.4337	0.8239	0.5179	0.051
Mof_C 	C 	0.4352	0.79599	0.48123	0.003
Mof_C 	C 	0.4571	0.77263	0.48114	-0.087
Mof_H 	H 	0.4487	0.7641	0.4572	0.055
Mof_C 	C 	0.4975	0.81284	0.58932	0.111
Mof_C 	C 	0.5671	0.81027	0.61245	-0.194
Mof_H 	H 	0.6045	0.7991	0.6052	0.097
Mof_C 	C 	0.5834	0.8239	0.64636	0.136
Mof_H 	H 	0.6317	0.8221	0.6613	-0.009
Mof_C 	C 	0.5273	0.84035	0.65808	-0.244
Mof_C 	C 	0.4581	0.84299	0.63621	0.147
Mof_H 	H 	0.4202	0.854	0.6439	-0.021
Mof_C 	C 	0.4432	0.82938	0.60226	-0.2
Mof_H 	H 	0.3948	0.8314	0.5875	0.092
Mof_C 	C 	0.544	0.85571	0.69531	0.553
Mof_C 	C 	0.4005	0.80727	0.44393	0.092
Mof_C 	C 	0.4036	0.83015	0.43857	-0.163
Mof_H 	H 	0.4283	0.8389	0.459	0.082
Mof_C 	C 	0.3712	0.84093	0.40374	0.088
Mof_H 	H 	0.3754	0.8565	0.4011	0.005
Mof_C 	C 	0.3345	0.82892	0.37441	-0.169
Mof_C 	C 	0.3316	0.80675	0.37873	0.09
Mof_H 	H 	0.3061	0.7982	0.3582	0.003
Mof_C 	C 	0.3657	0.79566	0.41324	-0.168
Mof_H 	H 	0.3639	0.78	0.4147	0.082
Mof_C 	C 	0.2998	0.84053	0.33677	0.367
Mof_C 	C 	0.247	0.98701	0.51398	0.024
Mof_C 	C 	0.2663	0.97428	0.54871	-0.081
Mof_H 	H 	0.2829	0.9816	0.5729	0.052
Mof_C 	C 	0.2615	0.95029	0.54857	-0.013
Mof_C 	C 	0.2386	0.9393	0.51216	-0.071
Mof_H 	H 	0.2348	0.9236	0.5115	0.049
Mof_C 	C 	0.2217	0.95177	0.477	-0.002
Mof_C 	C 	0.2246	0.97521	0.4783	-0.087
Mof_H 	H 	0.211	0.9833	0.4545	0.055
Mof_C 	C 	0.2793	0.9371	0.58635	0.13
Mof_C 	C 	0.2324	0.9182	0.59707	-0.226
Mof_H 	H 	0.1902	0.9138	0.5794	0.098
Mof_C 	C 	0.246	0.906	0.63247	0.176
Mof_H 	H 	0.2134	0.8936	0.6386	-0.042
Mof_C 	C 	0.3076	0.91216	0.65869	-0.29
Mof_C 	C 	0.3575	0.93011	0.64784	0.183
Mof_H 	H 	0.4025	0.9336	0.6644	-0.042
Mof_C 	C 	0.3416	0.94289	0.61269	-0.231
Mof_H 	H 	0.3735	0.9555	0.6069	0.105
Mof_C 	C 	0.3195	0.89849	0.69859	0.631
Mof_C 	C 	0.197	0.93976	0.43788	0.109
Mof_C 	C 	0.1333	0.94797	0.41405	-0.207
Mof_H 	H 	0.1044	0.9607	0.4228	0.092
Mof_C 	C 	0.1126	0.93765	0.37798	0.149
Mof_H 	H 	0.0692	0.9432	0.3623	-0.029
Mof_C 	C 	0.1556	0.91878	0.36406	-0.251
Mof_C 	C 	0.2189	0.91027	0.38759	0.136
Mof_H 	H 	0.2484	0.8977	0.3785	-0.008
Mof_C 	C 	0.238	0.9206	0.42484	-0.196
Mof_H 	H 	0.2792	0.9146	0.4414	0.095
Mof_C 	C 	0.1347	0.90743	0.32311	0.583
Mof_Ho	Ho	0.23863	0.36573	0.72949	1.685
Mof_O 	O 	0.99187	0.36937	0.70539	-0.518
Mof_O 	O 	0.1115	0.3536	0.71318	-0.554
Mof_O 	O 	0.8017	0.36211	0.3362	-0.446
Mof_O 	O 	0.77343	0.33006	0.30754	-0.442
Mof_O 	O 	0.8801	0.40467	0.71876	-0.627
Mof_O 	O 	0.7728	0.38386	0.70764	-0.618
Mof_O 	O 	0.6863	0.39491	0.30768	-0.571
Mof_O 	O 	0.56891	0.4124	0.30751	-0.602
Mof_C 	C 	0.9902	0.2624	0.51569	0.199
Mof_C 	C 	0.00228	0.27561	0.55114	-0.249
Mof_H 	H 	0.0238	0.2688	0.5748	0.102
Mof_C 	C 	0.9829	0.29903	0.55231	0.077
Mof_C 	C 	0.9484	0.30876	0.51742	-0.135
Mof_H 	H 	0.9337	0.3239	0.5179	0.075
Mof_C 	C 	0.9352	0.29599	0.48123	0.073
Mof_C 	C 	0.9571	0.27263	0.48114	-0.186
Mof_H 	H 	0.9487	0.2641	0.4572	0.1
Mof_C 	C 	0.9975	0.31284	0.58932	0.163
Mof_C 	C 	0.0671	0.31027	0.61245	-0.279
Mof_H 	H 	0.1045	0.2991	0.6052	0.119
Mof_C 	C 	0.0834	0.3239	0.64636	0.199
Mof_H 	H 	0.1317	0.3221	0.6613	-0.033
Mof_C 	C 	0.0273	0.34035	0.65808	-0.32
Mof_C 	C 	0.9581	0.34299	0.63621	0.245
Mof_H 	H 	0.9202	0.354	0.6439	-0.048
Mof_C 	C 	0.9432	0.32938	0.60226	-0.255
Mof_H 	H 	0.8948	0.3314	0.5875	0.114
Mof_C 	C 	0.044	0.35571	0.69531	0.528
Mof_C 	C 	0.9005	0.30727	0.44393	0.051
Mof_C 	C 	0.9036	0.33015	0.43857	-0.125
Mof_H 	H 	0.9283	0.3389	0.459	0.073
Mof_C 	C 	0.8712	0.34093	0.40374	0.061
Mof_H 	H 	0.8754	0.3565	0.4011	0.019
Mof_C 	C 	0.8345	0.32892	0.37441	-0.142
Mof_C 	C 	0.8316	0.30675	0.37873	0.062
Mof_H 	H 	0.8061	0.2982	0.3582	0.016
Mof_C 	C 	0.8657	0.29566	0.41324	-0.128
Mof_H 	H 	0.8639	0.28	0.4147	0.072
Mof_C 	C 	0.7998	0.34053	0.33677	0.359
Mof_C 	C 	0.747	0.48701	0.51398	0.028
Mof_C 	C 	0.7663	0.47428	0.54871	-0.082
Mof_H 	H 	0.7829	0.4816	0.5729	0.056
Mof_C 	C 	0.7615	0.45029	0.54857	-0.007
Mof_C 	C 	0.7386	0.4393	0.51216	-0.071
Mof_H 	H 	0.7348	0.4236	0.5115	0.053
Mof_C 	C 	0.7217	0.45177	0.477	0.003
Mof_C 	C 	0.7246	0.47521	0.4783	-0.086
Mof_H 	H 	0.711	0.4833	0.4545	0.058
Mof_C 	C 	0.7793	0.4371	0.58635	0.127
Mof_C 	C 	0.7324	0.4182	0.59707	-0.218
Mof_H 	H 	0.6902	0.4138	0.5794	0.101
Mof_C 	C 	0.746	0.406	0.63247	0.17
Mof_H 	H 	0.7134	0.3936	0.6386	-0.035
Mof_C 	C 	0.8076	0.41216	0.65869	-0.278
Mof_C 	C 	0.8575	0.43011	0.64784	0.177
Mof_H 	H 	0.9025	0.4336	0.6644	-0.03
Mof_C 	C 	0.8416	0.44289	0.61269	-0.221
Mof_H 	H 	0.8735	0.4555	0.6069	0.109
Mof_C 	C 	0.8195	0.39849	0.69859	0.622
Mof_C 	C 	0.697	0.43976	0.43788	0.111
Mof_C 	C 	0.6333	0.44797	0.41405	-0.204
Mof_H 	H 	0.6044	0.4607	0.4228	0.097
Mof_C 	C 	0.6126	0.43765	0.37798	0.151
Mof_H 	H 	0.5692	0.4432	0.3623	-0.022
Mof_C 	C 	0.6556	0.41878	0.36406	-0.248
Mof_C 	C 	0.7189	0.41027	0.38759	0.138
Mof_H 	H 	0.7484	0.3977	0.3785	-0.006
Mof_C 	C 	0.738	0.4206	0.42484	-0.194
Mof_H 	H 	0.7792	0.4146	0.4414	0.098
Mof_C 	C 	0.6347	0.40743	0.32311	0.588
Mof_Ho	Ho	0.23863	0.13427	0.77051	1.685
Mof_O 	O 	0.99187	0.13063	0.79461	-0.518
Mof_O 	O 	0.1115	0.1464	0.78682	-0.554
Mof_O 	O 	0.8017	0.13789	0.1638	-0.446
Mof_O 	O 	0.77343	0.16994	0.19246	-0.442
Mof_O 	O 	0.8801	0.09533	0.78124	-0.627
Mof_O 	O 	0.7728	0.11614	0.79236	-0.618
Mof_O 	O 	0.6863	0.10509	0.19232	-0.571
Mof_O 	O 	0.56891	0.0876	0.19249	-0.602
Mof_C 	C 	0.9902	0.2376	0.98431	0.198
Mof_C 	C 	0.00228	0.22439	0.94886	-0.248
Mof_H 	H 	0.0238	0.2312	0.9252	0.101
Mof_C 	C 	0.9829	0.20097	0.94769	0.076
Mof_C 	C 	0.9484	0.19124	0.98258	-0.135
Mof_H 	H 	0.9337	0.1761	0.9821	0.075
Mof_C 	C 	0.9352	0.20401	0.01877	0.073
Mof_C 	C 	0.9571	0.22737	0.01886	-0.186
Mof_H 	H 	0.9487	0.2359	0.0428	0.1
Mof_C 	C 	0.9975	0.18716	0.91068	0.163
Mof_C 	C 	0.0671	0.18973	0.88755	-0.279
Mof_H 	H 	0.1045	0.2009	0.8948	0.119
Mof_C 	C 	0.0834	0.1761	0.85364	0.198
Mof_H 	H 	0.1317	0.1779	0.8387	-0.033
Mof_C 	C 	0.0273	0.15965	0.84192	-0.319
Mof_C 	C 	0.9581	0.15701	0.86379	0.245
Mof_H 	H 	0.9202	0.146	0.8561	-0.048
Mof_C 	C 	0.9432	0.17062	0.89774	-0.255
Mof_H 	H 	0.8948	0.1686	0.9125	0.114
Mof_C 	C 	0.044	0.14429	0.80469	0.528
Mof_C 	C 	0.9005	0.19273	0.05607	0.051
Mof_C 	C 	0.9036	0.16985	0.06143	-0.125
Mof_H 	H 	0.9283	0.1611	0.041	0.073
Mof_C 	C 	0.8712	0.15907	0.09626	0.061
Mof_H 	H 	0.8754	0.1435	0.0989	0.019
Mof_C 	C 	0.8345	0.17108	0.12559	-0.143
Mof_C 	C 	0.8316	0.19325	0.12127	0.062
Mof_H 	H 	0.8061	0.2018	0.1418	0.016
Mof_C 	C 	0.8657	0.20434	0.08676	-0.128
Mof_H 	H 	0.8639	0.22	0.0853	0.072
Mof_C 	C 	0.7998	0.15947	0.16323	0.359
Mof_C 	C 	0.747	0.01299	0.98602	0.028
Mof_C 	C 	0.7663	0.02572	0.95129	-0.082
Mof_H 	H 	0.7829	0.0184	0.9271	0.056
Mof_C 	C 	0.7615	0.04971	0.95143	-0.007
Mof_C 	C 	0.7386	0.0607	0.98784	-0.071
Mof_H 	H 	0.7348	0.0764	0.9885	0.053
Mof_C 	C 	0.7217	0.04823	0.023	0.003
Mof_C 	C 	0.7246	0.02479	0.0217	-0.087
Mof_H 	H 	0.711	0.0167	0.0455	0.058
Mof_C 	C 	0.7793	0.0629	0.91365	0.127
Mof_C 	C 	0.7324	0.0818	0.90293	-0.218
Mof_H 	H 	0.6902	0.0862	0.9206	0.101
Mof_C 	C 	0.746	0.094	0.86753	0.17
Mof_H 	H 	0.7134	0.1064	0.8614	-0.035
Mof_C 	C 	0.8076	0.08784	0.84131	-0.278
Mof_C 	C 	0.8575	0.06989	0.85216	0.177
Mof_H 	H 	0.9025	0.0664	0.8356	-0.03
Mof_C 	C 	0.8416	0.05711	0.88731	-0.221
Mof_H 	H 	0.8735	0.0445	0.8931	0.109
Mof_C 	C 	0.8195	0.10151	0.80141	0.622
Mof_C 	C 	0.697	0.06024	0.06212	0.111
Mof_C 	C 	0.6333	0.05203	0.08595	-0.204
Mof_H 	H 	0.6044	0.0393	0.0772	0.097
Mof_C 	C 	0.6126	0.06235	0.12202	0.151
Mof_H 	H 	0.5692	0.0568	0.1377	-0.022
Mof_C 	C 	0.6556	0.08122	0.13594	-0.248
Mof_C 	C 	0.7189	0.08973	0.11241	0.138
Mof_H 	H 	0.7484	0.1023	0.1215	-0.006
Mof_C 	C 	0.738	0.0794	0.07516	-0.194
Mof_H 	H 	0.7792	0.0854	0.0586	0.098
Mof_C 	C 	0.6347	0.09257	0.17689	0.588
Mof_Ho	Ho	0.73863	0.63427	0.77051	1.701
Mof_O 	O 	0.49187	0.63063	0.79461	-0.565
Mof_O 	O 	0.6115	0.6464	0.78682	-0.56
Mof_O 	O 	0.3017	0.63789	0.1638	-0.45
Mof_O 	O 	0.27343	0.66994	0.19246	-0.447
Mof_O 	O 	0.3801	0.59533	0.78124	-0.651
Mof_O 	O 	0.2728	0.61614	0.79236	-0.625
Mof_O 	O 	0.1863	0.60509	0.19232	-0.569
Mof_O 	O 	0.06891	0.5876	0.19249	-0.601
Mof_C 	C 	0.4902	0.7376	0.98431	0.028
Mof_C 	C 	0.50228	0.72439	0.94886	-0.086
Mof_H 	H 	0.5238	0.7312	0.9252	0.057
Mof_C 	C 	0.4829	0.70097	0.94769	-0.002
Mof_C 	C 	0.4484	0.69124	0.98258	-0.075
Mof_H 	H 	0.4337	0.6761	0.9821	0.051
Mof_C 	C 	0.4352	0.70401	0.01877	0.003
Mof_C 	C 	0.4571	0.72737	0.01886	-0.088
Mof_H 	H 	0.4487	0.7359	0.0428	0.055
Mof_C 	C 	0.4975	0.68716	0.91068	0.111
Mof_C 	C 	0.5671	0.68973	0.88755	-0.194
Mof_H 	H 	0.6045	0.7009	0.8948	0.097
Mof_C 	C 	0.5834	0.6761	0.85364	0.136
Mof_H 	H 	0.6317	0.6779	0.8387	-0.009
Mof_C 	C 	0.5273	0.65965	0.84192	-0.244
Mof_C 	C 	0.4581	0.65701	0.86379	0.147
Mof_H 	H 	0.4202	0.646	0.8561	-0.021
Mof_C 	C 	0.4432	0.67062	0.89774	-0.199
Mof_H 	H 	0.3948	0.6686	0.9125	0.092
Mof_C 	C 	0.544	0.64429	0.80469	0.553
Mof_C 	C 	0.4005	0.69273	0.05607	0.092
Mof_C 	C 	0.4036	0.66985	0.06143	-0.163
Mof_H 	H 	0.4283	0.6611	0.041	0.082
Mof_C 	C 	0.3712	0.65907	0.09626	0.088
Mof_H 	H 	0.3754	0.6435	0.0989	0.005
Mof_C 	C 	0.3345	0.67108	0.12559	-0.169
Mof_C 	C 	0.3316	0.69325	0.12127	0.09
Mof_H 	H 	0.3061	0.7018	0.1418	0.003
Mof_C 	C 	0.3657	0.70434	0.08676	-0.168
Mof_H 	H 	0.3639	0.72	0.0853	0.082
Mof_C 	C 	0.2998	0.65947	0.16323	0.367
Mof_C 	C 	0.247	0.51299	0.98602	0.024
Mof_C 	C 	0.2663	0.52572	0.95129	-0.081
Mof_H 	H 	0.2829	0.5184	0.9271	0.052
Mof_C 	C 	0.2615	0.54971	0.95143	-0.013
Mof_C 	C 	0.2386	0.5607	0.98784	-0.071
Mof_H 	H 	0.2348	0.5764	0.9885	0.049
Mof_C 	C 	0.2217	0.54823	0.023	-0.002
Mof_C 	C 	0.2246	0.52479	0.0217	-0.087
Mof_H 	H 	0.211	0.5167	0.0455	0.055
Mof_C 	C 	0.2793	0.5629	0.91365	0.13
Mof_C 	C 	0.2324	0.5818	0.90293	-0.226
Mof_H 	H 	0.1902	0.5862	0.9206	0.098
Mof_C 	C 	0.246	0.594	0.86753	0.176
Mof_H 	H 	0.2134	0.6064	0.8614	-0.042
Mof_C 	C 	0.3076	0.58784	0.84131	-0.29
Mof_C 	C 	0.3575	0.56989	0.85216	0.183
Mof_H 	H 	0.4025	0.5664	0.8356	-0.042
Mof_C 	C 	0.3416	0.55711	0.88731	-0.231
Mof_H 	H 	0.3735	0.5445	0.8931	0.105
Mof_C 	C 	0.3195	0.60151	0.80141	0.631
Mof_C 	C 	0.197	0.56024	0.06212	0.109
Mof_C 	C 	0.1333	0.55203	0.08595	-0.207
Mof_H 	H 	0.1044	0.5393	0.0772	0.092
Mof_C 	C 	0.1126	0.56235	0.12202	0.149
Mof_H 	H 	0.0692	0.5568	0.1377	-0.029
Mof_C 	C 	0.1556	0.58122	0.13594	-0.251
Mof_C 	C 	0.2189	0.58973	0.11241	0.136
Mof_H 	H 	0.2484	0.6023	0.1215	-0.008
Mof_C 	C 	0.238	0.5794	0.07516	-0.196
Mof_H 	H 	0.2792	0.5854	0.0586	0.095
Mof_C 	C 	0.1347	0.59257	0.17689	0.583
Mof_Ho	Ho	0.26137	0.86573	0.77051	1.679
Mof_O 	O 	0.50813	0.86937	0.79461	-0.565
Mof_O 	O 	0.3885	0.8536	0.78682	-0.558
Mof_O 	O 	0.6983	0.86211	0.1638	-0.45
Mof_O 	O 	0.72657	0.83006	0.19246	-0.446
Mof_O 	O 	0.6199	0.90467	0.78124	-0.65
Mof_O 	O 	0.7272	0.88386	0.79236	-0.621
Mof_O 	O 	0.8137	0.89491	0.19232	-0.565
Mof_O 	O 	0.93109	0.9124	0.19249	-0.574
Mof_C 	C 	0.5098	0.7624	0.98431	0.029
Mof_C 	C 	0.49772	0.77561	0.94886	-0.085
Mof_H 	H 	0.4762	0.7688	0.9252	0.057
Mof_C 	C 	0.5171	0.79903	0.94769	-0.002
Mof_C 	C 	0.5516	0.80876	0.98258	-0.075
Mof_H 	H 	0.5663	0.8239	0.9821	0.053
Mof_C 	C 	0.5648	0.79599	0.01877	0.005
Mof_C 	C 	0.5429	0.77263	0.01886	-0.088
Mof_H 	H 	0.5513	0.7641	0.0428	0.056
Mof_C 	C 	0.5025	0.81284	0.91068	0.111
Mof_C 	C 	0.4329	0.81027	0.88755	-0.193
Mof_H 	H 	0.3955	0.7991	0.8948	0.096
Mof_C 	C 	0.4166	0.8239	0.85364	0.136
Mof_H 	H 	0.3683	0.8221	0.8387	-0.009
Mof_C 	C 	0.4727	0.84035	0.84192	-0.243
Mof_C 	C 	0.5419	0.84299	0.86379	0.148
Mof_H 	H 	0.5798	0.854	0.8561	-0.02
Mof_C 	C 	0.5568	0.82938	0.89774	-0.2
Mof_H 	H 	0.6052	0.8314	0.9125	0.096
Mof_C 	C 	0.456	0.85571	0.80469	0.552
Mof_C 	C 	0.5995	0.80727	0.05607	0.092
Mof_C 	C 	0.5964	0.83015	0.06143	-0.161
Mof_H 	H 	0.5717	0.8389	0.041	0.082
Mof_C 	C 	0.6288	0.84093	0.09626	0.088
Mof_H 	H 	0.6246	0.8565	0.0989	0.006
Mof_C 	C 	0.6655	0.82892	0.12559	-0.167
Mof_C 	C 	0.6684	0.80675	0.12127	0.089
Mof_H 	H 	0.6939	0.7982	0.1418	0.006
Mof_C 	C 	0.6343	0.79566	0.08676	-0.165
Mof_H 	H 	0.6361	0.78	0.0853	0.084
Mof_C 	C 	0.7002	0.84053	0.16323	0.366
Mof_C 	C 	0.753	0.98701	0.98602	0.029
Mof_C 	C 	0.7337	0.97428	0.95129	-0.081
Mof_H 	H 	0.7171	0.9816	0.9271	0.055
Mof_C 	C 	0.7385	0.95029	0.95143	-0.008
Mof_C 	C 	0.7614	0.9393	0.98784	-0.072
Mof_H 	H 	0.7652	0.9236	0.9885	0.054
Mof_C 	C 	0.7783	0.95177	0.023	0.005
Mof_C 	C 	0.7754	0.97521	0.0217	-0.087
Mof_H 	H 	0.789	0.9833	0.0455	0.06
Mof_C 	C 	0.7207	0.9371	0.91365	0.131
Mof_C 	C 	0.7676	0.9182	0.90293	-0.223
Mof_H 	H 	0.8098	0.9138	0.9206	0.107
Mof_C 	C 	0.754	0.906	0.86753	0.177
Mof_H 	H 	0.7866	0.8936	0.8614	-0.033
Mof_C 	C 	0.6924	0.91216	0.84131	-0.286
Mof_C 	C 	0.6425	0.93011	0.85216	0.183
Mof_H 	H 	0.5975	0.9336	0.8356	-0.041
Mof_C 	C 	0.6584	0.94289	0.88731	-0.228
Mof_H 	H 	0.6265	0.9555	0.8931	0.105
Mof_C 	C 	0.6805	0.89849	0.80141	0.631
Mof_C 	C 	0.803	0.93976	0.06212	0.108
Mof_C 	C 	0.8667	0.94797	0.08595	-0.197
Mof_H 	H 	0.8956	0.9607	0.0772	0.101
Mof_C 	C 	0.8874	0.93765	0.12202	0.146
Mof_H 	H 	0.9308	0.9432	0.1377	-0.012
Mof_C 	C 	0.8444	0.91878	0.13594	-0.238
Mof_C 	C 	0.7811	0.91027	0.11241	0.132
Mof_H 	H 	0.7516	0.8977	0.1215	-0.004
Mof_C 	C 	0.762	0.9206	0.07516	-0.188
Mof_H 	H 	0.7208	0.9146	0.0586	0.094
Mof_C 	C 	0.8653	0.90743	0.17689	0.579
Mof_Ho	Ho	0.76137	0.36573	0.77051	1.695
Mof_O 	O 	0.00813	0.36937	0.79461	-0.586
Mof_O 	O 	0.8885	0.3536	0.78682	-0.557
Mof_O 	O 	0.1983	0.36211	0.1638	-0.455
Mof_O 	O 	0.22657	0.33006	0.19246	-0.451
Mof_O 	O 	0.1199	0.40467	0.78124	-0.642
Mof_O 	O 	0.2272	0.38386	0.79236	-0.621
Mof_O 	O 	0.3137	0.39491	0.19232	-0.571
Mof_O 	O 	0.43109	0.4124	0.19249	-0.602
Mof_C 	C 	0.0098	0.2624	0.98431	-0.14
Mof_C 	C 	0.99772	0.27561	0.94886	0.076
Mof_H 	H 	0.9762	0.2688	0.9252	0.013
Mof_C 	C 	0.0171	0.29903	0.94769	-0.079
Mof_C 	C 	0.0516	0.30876	0.98258	-0.016
Mof_H 	H 	0.0663	0.3239	0.9821	0.03
Mof_C 	C 	0.0648	0.29599	0.01877	-0.065
Mof_C 	C 	0.0429	0.27263	0.01886	0.01
Mof_H 	H 	0.0513	0.2641	0.0428	0.012
Mof_C 	C 	0.0025	0.31284	0.91068	0.057
Mof_C 	C 	0.9329	0.31027	0.88755	-0.104
Mof_H 	H 	0.8955	0.2991	0.8948	0.073
Mof_C 	C 	0.9166	0.3239	0.85364	0.069
Mof_H 	H 	0.8683	0.3221	0.8387	0.016
Mof_C 	C 	0.9727	0.34035	0.84192	-0.161
Mof_C 	C 	0.0419	0.34299	0.86379	0.044
Mof_H 	H 	0.0798	0.354	0.8561	0.01
Mof_C 	C 	0.0568	0.32938	0.89774	-0.14
Mof_H 	H 	0.1052	0.3314	0.9125	0.073
Mof_C 	C 	0.956	0.35571	0.80469	0.566
Mof_C 	C 	0.0995	0.30727	0.05607	0.133
Mof_C 	C 	0.0964	0.33015	0.06143	-0.198
Mof_H 	H 	0.0717	0.3389	0.041	0.091
Mof_C 	C 	0.1288	0.34093	0.09626	0.115
Mof_H 	H 	0.1246	0.3565	0.0989	-0.007
Mof_C 	C 	0.1655	0.32892	0.12559	-0.193
Mof_C 	C 	0.1684	0.30675	0.12127	0.117
Mof_H 	H 	0.1939	0.2982	0.1418	-0.008
Mof_C 	C 	0.1343	0.29566	0.08676	-0.204
Mof_H 	H 	0.1361	0.28	0.0853	0.093
Mof_C 	C 	0.2002	0.34053	0.16323	0.375
Mof_C 	C 	0.253	0.48701	0.98602	0.025
Mof_C 	C 	0.2337	0.47428	0.95129	-0.082
Mof_H 	H 	0.2171	0.4816	0.9271	0.051
Mof_C 	C 	0.2385	0.45029	0.95143	-0.012
Mof_C 	C 	0.2614	0.4393	0.98784	-0.072
Mof_H 	H 	0.2652	0.4236	0.9885	0.05
Mof_C 	C 	0.2783	0.45177	0.023	-0
Mof_C 	C 	0.2754	0.47521	0.0217	-0.088
Mof_H 	H 	0.289	0.4833	0.0455	0.056
Mof_C 	C 	0.2207	0.4371	0.91365	0.128
Mof_C 	C 	0.2676	0.4182	0.90293	-0.224
Mof_H 	H 	0.3098	0.4138	0.9206	0.102
Mof_C 	C 	0.254	0.406	0.86753	0.174
Mof_H 	H 	0.2866	0.3936	0.8614	-0.037
Mof_C 	C 	0.1924	0.41216	0.84131	-0.287
Mof_C 	C 	0.1425	0.43011	0.85216	0.18
Mof_H 	H 	0.0975	0.4336	0.8356	-0.047
Mof_C 	C 	0.1584	0.44289	0.88731	-0.23
Mof_H 	H 	0.1265	0.4555	0.8931	0.099
Mof_C 	C 	0.1805	0.39849	0.80141	0.625
Mof_C 	C 	0.303	0.43976	0.06212	0.109
Mof_C 	C 	0.3667	0.44797	0.08595	-0.204
Mof_H 	H 	0.3956	0.4607	0.0772	0.096
Mof_C 	C 	0.3874	0.43765	0.12202	0.149
Mof_H 	H 	0.4308	0.4432	0.1377	-0.022
Mof_C 	C 	0.3444	0.41878	0.13594	-0.248
Mof_C 	C 	0.2811	0.41027	0.11241	0.135
Mof_H 	H 	0.2516	0.3977	0.1215	-0.008
Mof_C 	C 	0.262	0.4206	0.07516	-0.194
Mof_H 	H 	0.2208	0.4146	0.0586	0.092
Mof_C 	C 	0.3653	0.40743	0.17689	0.586
Mof_Ho	Ho	0.23863	0.86573	0.27051	1.685
Mof_O 	O 	0.99187	0.86937	0.29461	-0.518
Mof_O 	O 	0.1115	0.8536	0.28682	-0.554
Mof_O 	O 	0.8017	0.86211	0.6638	-0.446
Mof_O 	O 	0.77343	0.83006	0.69246	-0.442
Mof_O 	O 	0.8801	0.90467	0.28124	-0.627
Mof_O 	O 	0.7728	0.88386	0.29236	-0.618
Mof_O 	O 	0.6863	0.89491	0.69232	-0.571
Mof_O 	O 	0.56891	0.9124	0.69249	-0.602
Mof_C 	C 	0.9902	0.7624	0.48431	0.199
Mof_C 	C 	0.00228	0.77561	0.44886	-0.249
Mof_H 	H 	0.0238	0.7688	0.4252	0.102
Mof_C 	C 	0.9829	0.79903	0.44769	0.077
Mof_C 	C 	0.9484	0.80876	0.48258	-0.135
Mof_H 	H 	0.9337	0.8239	0.4821	0.075
Mof_C 	C 	0.9352	0.79599	0.51877	0.073
Mof_C 	C 	0.9571	0.77263	0.51886	-0.186
Mof_H 	H 	0.9487	0.7641	0.5428	0.1
Mof_C 	C 	0.9975	0.81284	0.41068	0.163
Mof_C 	C 	0.0671	0.81027	0.38755	-0.279
Mof_H 	H 	0.1045	0.7991	0.3948	0.119
Mof_C 	C 	0.0834	0.8239	0.35364	0.199
Mof_H 	H 	0.1317	0.8221	0.3387	-0.033
Mof_C 	C 	0.0273	0.84035	0.34192	-0.32
Mof_C 	C 	0.9581	0.84299	0.36379	0.245
Mof_H 	H 	0.9202	0.854	0.3561	-0.048
Mof_C 	C 	0.9432	0.82938	0.39774	-0.255
Mof_H 	H 	0.8948	0.8314	0.4125	0.114
Mof_C 	C 	0.044	0.85571	0.30469	0.528
Mof_C 	C 	0.9005	0.80727	0.55607	0.051
Mof_C 	C 	0.9036	0.83015	0.56143	-0.125
Mof_H 	H 	0.9283	0.8389	0.541	0.073
Mof_C 	C 	0.8712	0.84093	0.59626	0.061
Mof_H 	H 	0.8754	0.8565	0.5989	0.019
Mof_C 	C 	0.8345	0.82892	0.62559	-0.142
Mof_C 	C 	0.8316	0.80675	0.62127	0.062
Mof_H 	H 	0.8061	0.7982	0.6418	0.016
Mof_C 	C 	0.8657	0.79566	0.58676	-0.128
Mof_H 	H 	0.8639	0.78	0.5853	0.072
Mof_C 	C 	0.7998	0.84053	0.66323	0.359
Mof_C 	C 	0.747	0.98701	0.48602	0.028
Mof_C 	C 	0.7663	0.97428	0.45129	-0.082
Mof_H 	H 	0.7829	0.9816	0.4271	0.056
Mof_C 	C 	0.7615	0.95029	0.45143	-0.007
Mof_C 	C 	0.7386	0.9393	0.48784	-0.071
Mof_H 	H 	0.7348	0.9236	0.4885	0.053
Mof_C 	C 	0.7217	0.95177	0.523	0.003
Mof_C 	C 	0.7246	0.97521	0.5217	-0.086
Mof_H 	H 	0.711	0.9833	0.5455	0.058
Mof_C 	C 	0.7793	0.9371	0.41365	0.127
Mof_C 	C 	0.7324	0.9182	0.40293	-0.218
Mof_H 	H 	0.6902	0.9138	0.4206	0.101
Mof_C 	C 	0.746	0.906	0.36753	0.17
Mof_H 	H 	0.7134	0.8936	0.3614	-0.035
Mof_C 	C 	0.8076	0.91216	0.34131	-0.278
Mof_C 	C 	0.8575	0.93011	0.35216	0.177
Mof_H 	H 	0.9025	0.9336	0.3356	-0.03
Mof_C 	C 	0.8416	0.94289	0.38731	-0.221
Mof_H 	H 	0.8735	0.9555	0.3931	0.109
Mof_C 	C 	0.8195	0.89849	0.30141	0.622
Mof_C 	C 	0.697	0.93976	0.56212	0.111
Mof_C 	C 	0.6333	0.94797	0.58595	-0.204
Mof_H 	H 	0.6044	0.9607	0.5772	0.097
Mof_C 	C 	0.6126	0.93765	0.62202	0.151
Mof_H 	H 	0.5692	0.9432	0.6377	-0.022
Mof_C 	C 	0.6556	0.91878	0.63594	-0.248
Mof_C 	C 	0.7189	0.91027	0.61241	0.138
Mof_H 	H 	0.7484	0.8977	0.6215	-0.006
Mof_C 	C 	0.738	0.9206	0.57516	-0.194
Mof_H 	H 	0.7792	0.9146	0.5586	0.098
Mof_C 	C 	0.6347	0.90743	0.67689	0.588
Mof_Ho	Ho	0.73863	0.36573	0.27051	1.701
Mof_O 	O 	0.49187	0.36937	0.29461	-0.565
Mof_O 	O 	0.6115	0.3536	0.28682	-0.56
Mof_O 	O 	0.3017	0.36211	0.6638	-0.45
Mof_O 	O 	0.27343	0.33006	0.69246	-0.447
Mof_O 	O 	0.3801	0.40467	0.28124	-0.651
Mof_O 	O 	0.2728	0.38386	0.29236	-0.625
Mof_O 	O 	0.1863	0.39491	0.69232	-0.569
Mof_O 	O 	0.06891	0.4124	0.69249	-0.601
Mof_C 	C 	0.4902	0.2624	0.48431	0.028
Mof_C 	C 	0.50228	0.27561	0.44886	-0.086
Mof_H 	H 	0.5238	0.2688	0.4252	0.057
Mof_C 	C 	0.4829	0.29903	0.44769	-0.002
Mof_C 	C 	0.4484	0.30876	0.48258	-0.075
Mof_H 	H 	0.4337	0.3239	0.4821	0.051
Mof_C 	C 	0.4352	0.29599	0.51877	0.003
Mof_C 	C 	0.4571	0.27263	0.51886	-0.087
Mof_H 	H 	0.4487	0.2641	0.5428	0.055
Mof_C 	C 	0.4975	0.31284	0.41068	0.111
Mof_C 	C 	0.5671	0.31027	0.38755	-0.194
Mof_H 	H 	0.6045	0.2991	0.3948	0.097
Mof_C 	C 	0.5834	0.3239	0.35364	0.136
Mof_H 	H 	0.6317	0.3221	0.3387	-0.009
Mof_C 	C 	0.5273	0.34035	0.34192	-0.244
Mof_C 	C 	0.4581	0.34299	0.36379	0.147
Mof_H 	H 	0.4202	0.354	0.3561	-0.021
Mof_C 	C 	0.4432	0.32938	0.39774	-0.2
Mof_H 	H 	0.3948	0.3314	0.4125	0.092
Mof_C 	C 	0.544	0.35571	0.30469	0.553
Mof_C 	C 	0.4005	0.30727	0.55607	0.092
Mof_C 	C 	0.4036	0.33015	0.56143	-0.163
Mof_H 	H 	0.4283	0.3389	0.541	0.082
Mof_C 	C 	0.3712	0.34093	0.59626	0.088
Mof_H 	H 	0.3754	0.3565	0.5989	0.005
Mof_C 	C 	0.3345	0.32892	0.62559	-0.169
Mof_C 	C 	0.3316	0.30675	0.62127	0.09
Mof_H 	H 	0.3061	0.2982	0.6418	0.003
Mof_C 	C 	0.3657	0.29566	0.58676	-0.168
Mof_H 	H 	0.3639	0.28	0.5853	0.082
Mof_C 	C 	0.2998	0.34053	0.66323	0.367
Mof_C 	C 	0.247	0.48701	0.48602	0.024
Mof_C 	C 	0.2663	0.47428	0.45129	-0.081
Mof_H 	H 	0.2829	0.4816	0.4271	0.052
Mof_C 	C 	0.2615	0.45029	0.45143	-0.013
Mof_C 	C 	0.2386	0.4393	0.48784	-0.071
Mof_H 	H 	0.2348	0.4236	0.4885	0.049
Mof_C 	C 	0.2217	0.45177	0.523	-0.002
Mof_C 	C 	0.2246	0.47521	0.5217	-0.087
Mof_H 	H 	0.211	0.4833	0.5455	0.055
Mof_C 	C 	0.2793	0.4371	0.41365	0.13
Mof_C 	C 	0.2324	0.4182	0.40293	-0.226
Mof_H 	H 	0.1902	0.4138	0.4206	0.098
Mof_C 	C 	0.246	0.406	0.36753	0.176
Mof_H 	H 	0.2134	0.3936	0.3614	-0.042
Mof_C 	C 	0.3076	0.41216	0.34131	-0.29
Mof_C 	C 	0.3575	0.43011	0.35216	0.183
Mof_H 	H 	0.4025	0.4336	0.3356	-0.042
Mof_C 	C 	0.3416	0.44289	0.38731	-0.231
Mof_H 	H 	0.3735	0.4555	0.3931	0.105
Mof_C 	C 	0.3195	0.39849	0.30141	0.631
Mof_C 	C 	0.197	0.43976	0.56212	0.109
Mof_C 	C 	0.1333	0.44797	0.58595	-0.207
Mof_H 	H 	0.1044	0.4607	0.5772	0.092
Mof_C 	C 	0.1126	0.43765	0.62202	0.149
Mof_H 	H 	0.0692	0.4432	0.6377	-0.029
Mof_C 	C 	0.1556	0.41878	0.63594	-0.251
Mof_C 	C 	0.2189	0.41027	0.61241	0.136
Mof_H 	H 	0.2484	0.3977	0.6215	-0.008
Mof_C 	C 	0.238	0.4206	0.57516	-0.196
Mof_H 	H 	0.2792	0.4146	0.5586	0.095
Mof_C 	C 	0.1347	0.40743	0.67689	0.583
Mof_Ho	Ho	0.26137	0.13427	0.27051	1.679
Mof_O 	O 	0.50813	0.13063	0.29461	-0.565
Mof_O 	O 	0.3885	0.1464	0.28682	-0.558
Mof_O 	O 	0.6983	0.13789	0.6638	-0.45
Mof_O 	O 	0.72657	0.16994	0.69246	-0.446
Mof_O 	O 	0.6199	0.09533	0.28124	-0.65
Mof_O 	O 	0.7272	0.11614	0.29236	-0.621
Mof_O 	O 	0.8137	0.10509	0.69232	-0.565
Mof_O 	O 	0.93109	0.0876	0.69249	-0.574
Mof_C 	C 	0.5098	0.2376	0.48431	0.029
Mof_C 	C 	0.49772	0.22439	0.44886	-0.085
Mof_H 	H 	0.4762	0.2312	0.4252	0.057
Mof_C 	C 	0.5171	0.20097	0.44769	-0.002
Mof_C 	C 	0.5516	0.19124	0.48258	-0.075
Mof_H 	H 	0.5663	0.1761	0.4821	0.053
Mof_C 	C 	0.5648	0.20401	0.51877	0.005
Mof_C 	C 	0.5429	0.22737	0.51886	-0.087
Mof_H 	H 	0.5513	0.2359	0.5428	0.056
Mof_C 	C 	0.5025	0.18716	0.41068	0.111
Mof_C 	C 	0.4329	0.18973	0.38755	-0.193
Mof_H 	H 	0.3955	0.2009	0.3948	0.097
Mof_C 	C 	0.4166	0.1761	0.35364	0.136
Mof_H 	H 	0.3683	0.1779	0.3387	-0.009
Mof_C 	C 	0.4727	0.15965	0.34192	-0.243
Mof_C 	C 	0.5419	0.15701	0.36379	0.148
Mof_H 	H 	0.5798	0.146	0.3561	-0.02
Mof_C 	C 	0.5568	0.17062	0.39774	-0.2
Mof_H 	H 	0.6052	0.1686	0.4125	0.096
Mof_C 	C 	0.456	0.14429	0.30469	0.552
Mof_C 	C 	0.5995	0.19273	0.55607	0.092
Mof_C 	C 	0.5964	0.16985	0.56143	-0.161
Mof_H 	H 	0.5717	0.1611	0.541	0.082
Mof_C 	C 	0.6288	0.15907	0.59626	0.088
Mof_H 	H 	0.6246	0.1435	0.5989	0.006
Mof_C 	C 	0.6655	0.17108	0.62559	-0.167
Mof_C 	C 	0.6684	0.19325	0.62127	0.089
Mof_H 	H 	0.6939	0.2018	0.6418	0.006
Mof_C 	C 	0.6343	0.20434	0.58676	-0.165
Mof_H 	H 	0.6361	0.22	0.5853	0.084
Mof_C 	C 	0.7002	0.15947	0.66323	0.367
Mof_C 	C 	0.753	0.01299	0.48602	0.029
Mof_C 	C 	0.7337	0.02572	0.45129	-0.081
Mof_H 	H 	0.7171	0.0184	0.4271	0.055
Mof_C 	C 	0.7385	0.04971	0.45143	-0.008
Mof_C 	C 	0.7614	0.0607	0.48784	-0.071
Mof_H 	H 	0.7652	0.0764	0.4885	0.054
Mof_C 	C 	0.7783	0.04823	0.523	0.005
Mof_C 	C 	0.7754	0.02479	0.5217	-0.087
Mof_H 	H 	0.789	0.0167	0.5455	0.06
Mof_C 	C 	0.7207	0.0629	0.41365	0.131
Mof_C 	C 	0.7676	0.0818	0.40293	-0.223
Mof_H 	H 	0.8098	0.0862	0.4206	0.107
Mof_C 	C 	0.754	0.094	0.36753	0.177
Mof_H 	H 	0.7866	0.1064	0.3614	-0.033
Mof_C 	C 	0.6924	0.08784	0.34131	-0.286
Mof_C 	C 	0.6425	0.06989	0.35216	0.183
Mof_H 	H 	0.5975	0.0664	0.3356	-0.041
Mof_C 	C 	0.6584	0.05711	0.38731	-0.228
Mof_H 	H 	0.6265	0.0445	0.3931	0.105
Mof_C 	C 	0.6805	0.10151	0.30141	0.631
Mof_C 	C 	0.803	0.06024	0.56212	0.108
Mof_C 	C 	0.8667	0.05203	0.58595	-0.197
Mof_H 	H 	0.8956	0.0393	0.5772	0.101
Mof_C 	C 	0.8874	0.06235	0.62202	0.146
Mof_H 	H 	0.9308	0.0568	0.6377	-0.012
Mof_C 	C 	0.8444	0.08122	0.63594	-0.238
Mof_C 	C 	0.7811	0.08973	0.61241	0.132
Mof_H 	H 	0.7516	0.1023	0.6215	-0.004
Mof_C 	C 	0.762	0.0794	0.57516	-0.188
Mof_H 	H 	0.7208	0.0854	0.5586	0.094
Mof_C 	C 	0.8653	0.09257	0.67689	0.579
Mof_Ho	Ho	0.76137	0.63427	0.27051	1.695
Mof_O 	O 	0.00813	0.63063	0.29461	-0.586
Mof_O 	O 	0.8885	0.6464	0.28682	-0.557
Mof_O 	O 	0.1983	0.63789	0.6638	-0.455
Mof_O 	O 	0.22657	0.66994	0.69246	-0.451
Mof_O 	O 	0.1199	0.59533	0.28124	-0.642
Mof_O 	O 	0.2272	0.61614	0.29236	-0.621
Mof_O 	O 	0.3137	0.60509	0.69232	-0.571
Mof_O 	O 	0.43109	0.5876	0.69249	-0.602
Mof_C 	C 	0.0098	0.7376	0.48431	-0.141
Mof_C 	C 	0.99772	0.72439	0.44886	0.077
Mof_H 	H 	0.9762	0.7312	0.4252	0.013
Mof_C 	C 	0.0171	0.70097	0.44769	-0.079
Mof_C 	C 	0.0516	0.69124	0.48258	-0.016
Mof_H 	H 	0.0663	0.6761	0.4821	0.029
Mof_C 	C 	0.0648	0.70401	0.51877	-0.065
Mof_C 	C 	0.0429	0.72737	0.51886	0.011
Mof_H 	H 	0.0513	0.7359	0.5428	0.011
Mof_C 	C 	0.0025	0.68716	0.41068	0.057
Mof_C 	C 	0.9329	0.68973	0.38755	-0.104
Mof_H 	H 	0.8955	0.7009	0.3948	0.073
Mof_C 	C 	0.9166	0.6761	0.35364	0.069
Mof_H 	H 	0.8683	0.6779	0.3387	0.016
Mof_C 	C 	0.9727	0.65965	0.34192	-0.161
Mof_C 	C 	0.0419	0.65701	0.36379	0.044
Mof_H 	H 	0.0798	0.646	0.3561	0.01
Mof_C 	C 	0.0568	0.67062	0.39774	-0.14
Mof_H 	H 	0.1052	0.6686	0.4125	0.073
Mof_C 	C 	0.956	0.64429	0.30469	0.566
Mof_C 	C 	0.0995	0.69273	0.55607	0.133
Mof_C 	C 	0.0964	0.66985	0.56143	-0.198
Mof_H 	H 	0.0717	0.6611	0.541	0.091
Mof_C 	C 	0.1288	0.65907	0.59626	0.115
Mof_H 	H 	0.1246	0.6435	0.5989	-0.007
Mof_C 	C 	0.1655	0.67108	0.62559	-0.194
Mof_C 	C 	0.1684	0.69325	0.62127	0.117
Mof_H 	H 	0.1939	0.7018	0.6418	-0.008
Mof_C 	C 	0.1343	0.70434	0.58676	-0.204
Mof_H 	H 	0.1361	0.72	0.5853	0.093
Mof_C 	C 	0.2002	0.65947	0.66323	0.375
Mof_C 	C 	0.253	0.51299	0.48602	0.025
Mof_C 	C 	0.2337	0.52572	0.45129	-0.082
Mof_H 	H 	0.2171	0.5184	0.4271	0.051
Mof_C 	C 	0.2385	0.54971	0.45143	-0.012
Mof_C 	C 	0.2614	0.5607	0.48784	-0.072
Mof_H 	H 	0.2652	0.5764	0.4885	0.05
Mof_C 	C 	0.2783	0.54823	0.523	-0
Mof_C 	C 	0.2754	0.52479	0.5217	-0.088
Mof_H 	H 	0.289	0.5167	0.5455	0.056
Mof_C 	C 	0.2207	0.5629	0.41365	0.128
Mof_C 	C 	0.2676	0.5818	0.40293	-0.224
Mof_H 	H 	0.3098	0.5862	0.4206	0.102
Mof_C 	C 	0.254	0.594	0.36753	0.174
Mof_H 	H 	0.2866	0.6064	0.3614	-0.037
Mof_C 	C 	0.1924	0.58784	0.34131	-0.287
Mof_C 	C 	0.1425	0.56989	0.35216	0.18
Mof_H 	H 	0.0975	0.5664	0.3356	-0.047
Mof_C 	C 	0.1584	0.55711	0.38731	-0.23
Mof_H 	H 	0.1265	0.5445	0.3931	0.099
Mof_C 	C 	0.1805	0.60151	0.30141	0.625
Mof_C 	C 	0.303	0.56024	0.56212	0.109
Mof_C 	C 	0.3667	0.55203	0.58595	-0.204
Mof_H 	H 	0.3956	0.5393	0.5772	0.096
Mof_C 	C 	0.3874	0.56235	0.62202	0.149
Mof_H 	H 	0.4308	0.5568	0.6377	-0.022
Mof_C 	C 	0.3444	0.58122	0.63594	-0.248
Mof_C 	C 	0.2811	0.58973	0.61241	0.135
Mof_H 	H 	0.2516	0.6023	0.6215	-0.008
Mof_C 	C 	0.262	0.5794	0.57516	-0.194
Mof_H 	H 	0.2208	0.5854	0.5586	0.092
Mof_C 	C 	0.3653	0.59257	0.67689	0.586
Mof_Ho	Ho	0.76137	0.86573	0.22949	1.695
Mof_O 	O 	0.00813	0.86937	0.20539	-0.586
Mof_O 	O 	0.8885	0.8536	0.21318	-0.557
Mof_O 	O 	0.1983	0.86211	0.8362	-0.455
Mof_O 	O 	0.22657	0.83006	0.80754	-0.451
Mof_O 	O 	0.1199	0.90467	0.21876	-0.642
Mof_O 	O 	0.2272	0.88386	0.20764	-0.621
Mof_O 	O 	0.3137	0.89491	0.80768	-0.571
Mof_O 	O 	0.43109	0.9124	0.80751	-0.602
Mof_C 	C 	0.0098	0.7624	0.01569	-0.14
Mof_C 	C 	0.99772	0.77561	0.05114	0.076
Mof_H 	H 	0.9762	0.7688	0.0748	0.013
Mof_C 	C 	0.0171	0.79903	0.05231	-0.079
Mof_C 	C 	0.0516	0.80876	0.01742	-0.016
Mof_H 	H 	0.0663	0.8239	0.0179	0.03
Mof_C 	C 	0.0648	0.79599	0.98123	-0.065
Mof_C 	C 	0.0429	0.77263	0.98114	0.01
Mof_H 	H 	0.0513	0.7641	0.9572	0.012
Mof_C 	C 	0.0025	0.81284	0.08932	0.057
Mof_C 	C 	0.9329	0.81027	0.11245	-0.104
Mof_H 	H 	0.8955	0.7991	0.1052	0.073
Mof_C 	C 	0.9166	0.8239	0.14636	0.069
Mof_H 	H 	0.8683	0.8221	0.1613	0.016
Mof_C 	C 	0.9727	0.84035	0.15808	-0.161
Mof_C 	C 	0.0419	0.84299	0.13621	0.044
Mof_H 	H 	0.0798	0.854	0.1439	0.01
Mof_C 	C 	0.0568	0.82938	0.10226	-0.14
Mof_H 	H 	0.1052	0.8314	0.0875	0.073
Mof_C 	C 	0.956	0.85571	0.19531	0.566
Mof_C 	C 	0.0995	0.80727	0.94393	0.133
Mof_C 	C 	0.0964	0.83015	0.93857	-0.198
Mof_H 	H 	0.0717	0.8389	0.959	0.091
Mof_C 	C 	0.1288	0.84093	0.90374	0.115
Mof_H 	H 	0.1246	0.8565	0.9011	-0.007
Mof_C 	C 	0.1655	0.82892	0.87441	-0.193
Mof_C 	C 	0.1684	0.80675	0.87873	0.117
Mof_H 	H 	0.1939	0.7982	0.8582	-0.008
Mof_C 	C 	0.1343	0.79566	0.91324	-0.204
Mof_H 	H 	0.1361	0.78	0.9147	0.093
Mof_C 	C 	0.2002	0.84053	0.83677	0.375
Mof_C 	C 	0.253	0.98701	0.01398	0.025
Mof_C 	C 	0.2337	0.97428	0.04871	-0.082
Mof_H 	H 	0.2171	0.9816	0.0729	0.051
Mof_C 	C 	0.2385	0.95029	0.04857	-0.012
Mof_C 	C 	0.2614	0.9393	0.01216	-0.072
Mof_H 	H 	0.2652	0.9236	0.0115	0.05
Mof_C 	C 	0.2783	0.95177	0.977	-0
Mof_C 	C 	0.2754	0.97521	0.9783	-0.088
Mof_H 	H 	0.289	0.9833	0.9545	0.056
Mof_C 	C 	0.2207	0.9371	0.08635	0.128
Mof_C 	C 	0.2676	0.9182	0.09707	-0.224
Mof_H 	H 	0.3098	0.9138	0.0794	0.102
Mof_C 	C 	0.254	0.906	0.13247	0.174
Mof_H 	H 	0.2866	0.8936	0.1386	-0.037
Mof_C 	C 	0.1924	0.91216	0.15869	-0.287
Mof_C 	C 	0.1425	0.93011	0.14784	0.18
Mof_H 	H 	0.0975	0.9336	0.1644	-0.047
Mof_C 	C 	0.1584	0.94289	0.11269	-0.23
Mof_H 	H 	0.1265	0.9555	0.1069	0.099
Mof_C 	C 	0.1805	0.89849	0.19859	0.625
Mof_C 	C 	0.303	0.93976	0.93788	0.109
Mof_C 	C 	0.3667	0.94797	0.91405	-0.204
Mof_H 	H 	0.3956	0.9607	0.9228	0.096
Mof_C 	C 	0.3874	0.93765	0.87798	0.149
Mof_H 	H 	0.4308	0.9432	0.8623	-0.022
Mof_C 	C 	0.3444	0.91878	0.86406	-0.248
Mof_C 	C 	0.2811	0.91027	0.88759	0.135
Mof_H 	H 	0.2516	0.8977	0.8785	-0.008
Mof_C 	C 	0.262	0.9206	0.92484	-0.194
Mof_H 	H 	0.2208	0.9146	0.9414	0.092
Mof_C 	C 	0.3653	0.90743	0.82311	0.586
Mof_Ho	Ho	0.26137	0.36573	0.22949	1.679
Mof_O 	O 	0.50813	0.36937	0.20539	-0.565
Mof_O 	O 	0.3885	0.3536	0.21318	-0.558
Mof_O 	O 	0.6983	0.36211	0.8362	-0.45
Mof_O 	O 	0.72657	0.33006	0.80754	-0.446
Mof_O 	O 	0.6199	0.40467	0.21876	-0.65
Mof_O 	O 	0.7272	0.38386	0.20764	-0.621
Mof_O 	O 	0.8137	0.39491	0.80768	-0.565
Mof_O 	O 	0.93109	0.4124	0.80751	-0.574
Mof_C 	C 	0.5098	0.2624	0.01569	0.029
Mof_C 	C 	0.49772	0.27561	0.05114	-0.085
Mof_H 	H 	0.4762	0.2688	0.0748	0.057
Mof_C 	C 	0.5171	0.29903	0.05231	-0.002
Mof_C 	C 	0.5516	0.30876	0.01742	-0.075
Mof_H 	H 	0.5663	0.3239	0.0179	0.053
Mof_C 	C 	0.5648	0.29599	0.98123	0.005
Mof_C 	C 	0.5429	0.27263	0.98114	-0.088
Mof_H 	H 	0.5513	0.2641	0.9572	0.056
Mof_C 	C 	0.5025	0.31284	0.08932	0.111
Mof_C 	C 	0.4329	0.31027	0.11245	-0.193
Mof_H 	H 	0.3955	0.2991	0.1052	0.096
Mof_C 	C 	0.4166	0.3239	0.14636	0.136
Mof_H 	H 	0.3683	0.3221	0.1613	-0.009
Mof_C 	C 	0.4727	0.34035	0.15808	-0.243
Mof_C 	C 	0.5419	0.34299	0.13621	0.148
Mof_H 	H 	0.5798	0.354	0.1439	-0.02
Mof_C 	C 	0.5568	0.32938	0.10226	-0.2
Mof_H 	H 	0.6052	0.3314	0.0875	0.096
Mof_C 	C 	0.456	0.35571	0.19531	0.552
Mof_C 	C 	0.5995	0.30727	0.94393	0.092
Mof_C 	C 	0.5964	0.33015	0.93857	-0.161
Mof_H 	H 	0.5717	0.3389	0.959	0.082
Mof_C 	C 	0.6288	0.34093	0.90374	0.088
Mof_H 	H 	0.6246	0.3565	0.9011	0.006
Mof_C 	C 	0.6655	0.32892	0.87441	-0.167
Mof_C 	C 	0.6684	0.30675	0.87873	0.089
Mof_H 	H 	0.6939	0.2982	0.8582	0.006
Mof_C 	C 	0.6343	0.29566	0.91324	-0.165
Mof_H 	H 	0.6361	0.28	0.9147	0.084
Mof_C 	C 	0.7002	0.34053	0.83677	0.366
Mof_C 	C 	0.753	0.48701	0.01398	0.029
Mof_C 	C 	0.7337	0.47428	0.04871	-0.081
Mof_H 	H 	0.7171	0.4816	0.0729	0.055
Mof_C 	C 	0.7385	0.45029	0.04857	-0.008
Mof_C 	C 	0.7614	0.4393	0.01216	-0.072
Mof_H 	H 	0.7652	0.4236	0.0115	0.054
Mof_C 	C 	0.7783	0.45177	0.977	0.005
Mof_C 	C 	0.7754	0.47521	0.9783	-0.087
Mof_H 	H 	0.789	0.4833	0.9545	0.06
Mof_C 	C 	0.7207	0.4371	0.08635	0.131
Mof_C 	C 	0.7676	0.4182	0.09707	-0.223
Mof_H 	H 	0.8098	0.4138	0.0794	0.107
Mof_C 	C 	0.754	0.406	0.13247	0.177
Mof_H 	H 	0.7866	0.3936	0.1386	-0.033
Mof_C 	C 	0.6924	0.41216	0.15869	-0.286
Mof_C 	C 	0.6425	0.43011	0.14784	0.183
Mof_H 	H 	0.5975	0.4336	0.1644	-0.041
Mof_C 	C 	0.6584	0.44289	0.11269	-0.228
Mof_H 	H 	0.6265	0.4555	0.1069	0.105
Mof_C 	C 	0.6805	0.39849	0.19859	0.631
Mof_C 	C 	0.803	0.43976	0.93788	0.108
Mof_C 	C 	0.8667	0.44797	0.91405	-0.197
Mof_H 	H 	0.8956	0.4607	0.9228	0.101
Mof_C 	C 	0.8874	0.43765	0.87798	0.146
Mof_H 	H 	0.9308	0.4432	0.8623	-0.012
Mof_C 	C 	0.8444	0.41878	0.86406	-0.238
Mof_C 	C 	0.7811	0.41027	0.88759	0.132
Mof_H 	H 	0.7516	0.3977	0.8785	-0.004
Mof_C 	C 	0.762	0.4206	0.92484	-0.188
Mof_H 	H 	0.7208	0.4146	0.9414	0.094
Mof_C 	C 	0.8653	0.40743	0.82311	0.579
Mof_Ho	Ho	0.73863	0.13427	0.22949	1.701
Mof_O 	O 	0.49187	0.13063	0.20539	-0.565
Mof_O 	O 	0.6115	0.1464	0.21318	-0.56
Mof_O 	O 	0.3017	0.13789	0.8362	-0.45
Mof_O 	O 	0.27343	0.16994	0.80754	-0.447
Mof_O 	O 	0.3801	0.09533	0.21876	-0.651
Mof_O 	O 	0.2728	0.11614	0.20764	-0.625
Mof_O 	O 	0.1863	0.10509	0.80768	-0.569
Mof_O 	O 	0.06891	0.0876	0.80751	-0.601
Mof_C 	C 	0.4902	0.2376	0.01569	0.028
Mof_C 	C 	0.50228	0.22439	0.05114	-0.086
Mof_H 	H 	0.5238	0.2312	0.0748	0.057
Mof_C 	C 	0.4829	0.20097	0.05231	-0.002
Mof_C 	C 	0.4484	0.19124	0.01742	-0.075
Mof_H 	H 	0.4337	0.1761	0.0179	0.051
Mof_C 	C 	0.4352	0.20401	0.98123	0.003
Mof_C 	C 	0.4571	0.22737	0.98114	-0.088
Mof_H 	H 	0.4487	0.2359	0.9572	0.055
Mof_C 	C 	0.4975	0.18716	0.08932	0.111
Mof_C 	C 	0.5671	0.18973	0.11245	-0.194
Mof_H 	H 	0.6045	0.2009	0.1052	0.097
Mof_C 	C 	0.5834	0.1761	0.14636	0.136
Mof_H 	H 	0.6317	0.1779	0.1613	-0.009
Mof_C 	C 	0.5273	0.15965	0.15808	-0.244
Mof_C 	C 	0.4581	0.15701	0.13621	0.147
Mof_H 	H 	0.4202	0.146	0.1439	-0.021
Mof_C 	C 	0.4432	0.17062	0.10226	-0.199
Mof_H 	H 	0.3948	0.1686	0.0875	0.092
Mof_C 	C 	0.544	0.14429	0.19531	0.553
Mof_C 	C 	0.4005	0.19273	0.94393	0.092
Mof_C 	C 	0.4036	0.16985	0.93857	-0.163
Mof_H 	H 	0.4283	0.1611	0.959	0.082
Mof_C 	C 	0.3712	0.15907	0.90374	0.088
Mof_H 	H 	0.3754	0.1435	0.9011	0.005
Mof_C 	C 	0.3345	0.17108	0.87441	-0.169
Mof_C 	C 	0.3316	0.19325	0.87873	0.09
Mof_H 	H 	0.3061	0.2018	0.8582	0.003
Mof_C 	C 	0.3657	0.20434	0.91324	-0.168
Mof_H 	H 	0.3639	0.22	0.9147	0.082
Mof_C 	C 	0.2998	0.15947	0.83677	0.367
Mof_C 	C 	0.247	0.01299	0.01398	0.024
Mof_C 	C 	0.2663	0.02572	0.04871	-0.081
Mof_H 	H 	0.2829	0.0184	0.0729	0.052
Mof_C 	C 	0.2615	0.04971	0.04857	-0.013
Mof_C 	C 	0.2386	0.0607	0.01216	-0.071
Mof_H 	H 	0.2348	0.0764	0.0115	0.049
Mof_C 	C 	0.2217	0.04823	0.977	-0.002
Mof_C 	C 	0.2246	0.02479	0.9783	-0.087
Mof_H 	H 	0.211	0.0167	0.9545	0.055
Mof_C 	C 	0.2793	0.0629	0.08635	0.13
Mof_C 	C 	0.2324	0.0818	0.09707	-0.226
Mof_H 	H 	0.1902	0.0862	0.0794	0.098
Mof_C 	C 	0.246	0.094	0.13247	0.176
Mof_H 	H 	0.2134	0.1064	0.1386	-0.042
Mof_C 	C 	0.3076	0.08784	0.15869	-0.29
Mof_C 	C 	0.3575	0.06989	0.14784	0.183
Mof_H 	H 	0.4025	0.0664	0.1644	-0.042
Mof_C 	C 	0.3416	0.05711	0.11269	-0.231
Mof_H 	H 	0.3735	0.0445	0.1069	0.105
Mof_C 	C 	0.3195	0.10151	0.19859	0.631
Mof_C 	C 	0.197	0.06024	0.93788	0.109
Mof_C 	C 	0.1333	0.05203	0.91405	-0.207
Mof_H 	H 	0.1044	0.0393	0.9228	0.092
Mof_C 	C 	0.1126	0.06235	0.87798	0.149
Mof_H 	H 	0.0692	0.0568	0.8623	-0.029
Mof_C 	C 	0.1556	0.08122	0.86406	-0.251
Mof_C 	C 	0.2189	0.08973	0.88759	0.136
Mof_H 	H 	0.2484	0.1023	0.8785	-0.008
Mof_C 	C 	0.238	0.0794	0.92484	-0.196
Mof_H 	H 	0.2792	0.0854	0.9414	0.095
Mof_C 	C 	0.1347	0.09257	0.82311	0.583
Mof_Ho	Ho	0.23863	0.63427	0.22949	1.685
Mof_O 	O 	0.99187	0.63063	0.20539	-0.518
Mof_O 	O 	0.1115	0.6464	0.21318	-0.554
Mof_O 	O 	0.8017	0.63789	0.8362	-0.446
Mof_O 	O 	0.77343	0.66994	0.80754	-0.442
Mof_O 	O 	0.8801	0.59533	0.21876	-0.627
Mof_O 	O 	0.7728	0.61614	0.20764	-0.618
Mof_O 	O 	0.6863	0.60509	0.80768	-0.571
Mof_O 	O 	0.56891	0.5876	0.80751	-0.602
Mof_C 	C 	0.9902	0.7376	0.01569	0.198
Mof_C 	C 	0.00228	0.72439	0.05114	-0.248
Mof_H 	H 	0.0238	0.7312	0.0748	0.101
Mof_C 	C 	0.9829	0.70097	0.05231	0.076
Mof_C 	C 	0.9484	0.69124	0.01742	-0.135
Mof_H 	H 	0.9337	0.6761	0.0179	0.075
Mof_C 	C 	0.9352	0.70401	0.98123	0.073
Mof_C 	C 	0.9571	0.72737	0.98114	-0.186
Mof_H 	H 	0.9487	0.7359	0.9572	0.1
Mof_C 	C 	0.9975	0.68716	0.08932	0.163
Mof_C 	C 	0.0671	0.68973	0.11245	-0.279
Mof_H 	H 	0.1045	0.7009	0.1052	0.119
Mof_C 	C 	0.0834	0.6761	0.14636	0.198
Mof_H 	H 	0.1317	0.6779	0.1613	-0.033
Mof_C 	C 	0.0273	0.65965	0.15808	-0.319
Mof_C 	C 	0.9581	0.65701	0.13621	0.245
Mof_H 	H 	0.9202	0.646	0.1439	-0.048
Mof_C 	C 	0.9432	0.67062	0.10226	-0.255
Mof_H 	H 	0.8948	0.6686	0.0875	0.114
Mof_C 	C 	0.044	0.64429	0.19531	0.528
Mof_C 	C 	0.9005	0.69273	0.94393	0.051
Mof_C 	C 	0.9036	0.66985	0.93857	-0.125
Mof_H 	H 	0.9283	0.6611	0.959	0.073
Mof_C 	C 	0.8712	0.65907	0.90374	0.061
Mof_H 	H 	0.8754	0.6435	0.9011	0.019
Mof_C 	C 	0.8345	0.67108	0.87441	-0.143
Mof_C 	C 	0.8316	0.69325	0.87873	0.062
Mof_H 	H 	0.8061	0.7018	0.8582	0.016
Mof_C 	C 	0.8657	0.70434	0.91324	-0.128
Mof_H 	H 	0.8639	0.72	0.9147	0.072
Mof_C 	C 	0.7998	0.65947	0.83677	0.359
Mof_C 	C 	0.747	0.51299	0.01398	0.028
Mof_C 	C 	0.7663	0.52572	0.04871	-0.082
Mof_H 	H 	0.7829	0.5184	0.0729	0.056
Mof_C 	C 	0.7615	0.54971	0.04857	-0.007
Mof_C 	C 	0.7386	0.5607	0.01216	-0.071
Mof_H 	H 	0.7348	0.5764	0.0115	0.053
Mof_C 	C 	0.7217	0.54823	0.977	0.003
Mof_C 	C 	0.7246	0.52479	0.9783	-0.087
Mof_H 	H 	0.711	0.5167	0.9545	0.058
Mof_C 	C 	0.7793	0.5629	0.08635	0.127
Mof_C 	C 	0.7324	0.5818	0.09707	-0.218
Mof_H 	H 	0.6902	0.5862	0.0794	0.101
Mof_C 	C 	0.746	0.594	0.13247	0.17
Mof_H 	H 	0.7134	0.6064	0.1386	-0.035
Mof_C 	C 	0.8076	0.58784	0.15869	-0.278
Mof_C 	C 	0.8575	0.56989	0.14784	0.177
Mof_H 	H 	0.9025	0.5664	0.1644	-0.03
Mof_C 	C 	0.8416	0.55711	0.11269	-0.221
Mof_H 	H 	0.8735	0.5445	0.1069	0.109
Mof_C 	C 	0.8195	0.60151	0.19859	0.622
Mof_C 	C 	0.697	0.56024	0.93788	0.111
Mof_C 	C 	0.6333	0.55203	0.91405	-0.204
Mof_H 	H 	0.6044	0.5393	0.9228	0.097
Mof_C 	C 	0.6126	0.56235	0.87798	0.151
Mof_H 	H 	0.5692	0.5568	0.8623	-0.022
Mof_C 	C 	0.6556	0.58122	0.86406	-0.248
Mof_C 	C 	0.7189	0.58973	0.88759	0.138
Mof_H 	H 	0.7484	0.6023	0.8785	-0.006
Mof_C 	C 	0.738	0.5794	0.92484	-0.194
Mof_H 	H 	0.7792	0.5854	0.9414	0.098
Mof_C 	C 	0.6347	0.59257	0.82311	0.588
Mof_Ho	Ho	1.85432e-32	0.09987	0.75	2.106
Mof_Ho	Ho	0.5	0.59987	0.75	2.196
Mof_Ho	Ho	0.5	0.90013	0.75	2.196
Mof_Ho	Ho	5.53787e-33	0.40013	0.75	2.106
Mof_Ho	Ho	1.84596e-33	0.90013	0.25	2.106
Mof_Ho	Ho	0.5	0.40013	0.25	2.196
Mof_Ho	Ho	0.5	0.09987	0.25	2.196
Mof_Ho	Ho	-2.41647e-32	0.59987	0.25	2.106
_end
