# CIF file generated by openbabel 3.1.0, see https://openbabel.org
data_I
_chemical_name_common 'IDUDES_clean'
_cell_length_a 10.5385
_cell_length_b 10.7768
_cell_length_c 14.7694
_cell_angle_alpha 90
_cell_angle_beta 108.72
_cell_angle_gamma 90
_space_group_name_H-M_alt 'P 1'
_space_group_name_Hall 'P 1'
loop_
    _symmetry_equiv_pos_as_xyz
    x,y,z
loop_
    _atom_site_label
    _atom_site_type_symbol
    _atom_site_fract_x
    _atom_site_fract_y
    _atom_site_fract_z
    _atom_site_occupancy
    Cu1      Cu       0.09349    0.08595    0.01114    1.000
    Cu2      Cu       0.90651    0.58595    0.48886    1.000
    Cu3      Cu       0.90651    0.91405    0.98886    1.000
    Cu4      Cu       0.09349    0.41405    0.51114    1.000
    H1       H        0.05330    0.72530    0.77400    1.000
    H2       H        0.57560    0.46990    0.93290    1.000
    H3       H        0.39230    0.55100    0.77890    1.000
    H4       H        0.39750    0.80100    0.98150    1.000
    H5       H        0.93050    0.63610    0.03880    1.000
    H6       H        0.60970    0.83900    0.93960    1.000
    H7       H        0.80580    0.45810    0.00590    1.000
    H8       H        0.94670    0.22530    0.72600    1.000
    H9       H        0.42440    0.96990    0.56710    1.000
    H10      H        0.60770    0.05100    0.72110    1.000
    H11      H        0.60250    0.30100    0.51850    1.000
    H12      H        0.06950    0.13610    0.46120    1.000
    H13      H        0.39030    0.33900    0.56040    1.000
    H14      H        0.19420    0.95810    0.49410    1.000
    H15      H        0.94670    0.27470    0.22600    1.000
    H16      H        0.42440    0.53010    0.06710    1.000
    H17      H        0.60770    0.44900    0.22110    1.000
    H18      H        0.60250    0.19900    0.01850    1.000
    H19      H        0.06950    0.36390    0.96120    1.000
    H20      H        0.39030    0.16100    0.06040    1.000
    H21      H        0.19420    0.54190    0.99410    1.000
    H22      H        0.05330    0.77470    0.27400    1.000
    H23      H        0.57560    0.03010    0.43290    1.000
    H24      H        0.39230    0.94900    0.27890    1.000
    H25      H        0.39750    0.69900    0.48150    1.000
    H26      H        0.93050    0.86390    0.53880    1.000
    H27      H        0.60970    0.66100    0.43960    1.000
    H28      H        0.80580    0.04190    0.50590    1.000
    C1       C        0.13820    0.85980    0.93008    1.000
    C2       C        0.56640    0.65810    0.93041    1.000
    C3       C        0.13800    0.57277    0.66616    1.000
    C4       C        0.41820    0.67410    0.88591    1.000
    C5       C        0.14480    0.71240    0.80217    1.000
    C6       C        0.21290    0.77424    0.88555    1.000
    C7       C        0.62690    0.54180    0.94872    1.000
    C8       C        0.34810    0.60935    0.80428    1.000
    C9       C        0.35070    0.75707    0.92674    1.000
    C10      C        0.21170    0.63090    0.75961    1.000
    C11      C        0.83820    0.64190    0.01011    1.000
    C12      C        0.64910    0.76090    0.95184    1.000
    C13      C        0.76400    0.53490    0.99080    1.000
    C14      C        0.86180    0.35980    0.56992    1.000
    C15      C        0.43360    0.15810    0.56959    1.000
    C16      C        0.86200    0.07277    0.83384    1.000
    C17      C        0.58180    0.17410    0.61409    1.000
    C18      C        0.85520    0.21240    0.69783    1.000
    C19      C        0.78710    0.27424    0.61445    1.000
    C20      C        0.37310    0.04180    0.55128    1.000
    C21      C        0.65190    0.10935    0.69572    1.000
    C22      C        0.64930    0.25707    0.57326    1.000
    C23      C        0.78830    0.13090    0.74039    1.000
    C24      C        0.16180    0.14190    0.48989    1.000
    C25      C        0.35090    0.26090    0.54816    1.000
    C26      C        0.23600    0.03490    0.50920    1.000
    C27      C        0.86180    0.14020    0.06992    1.000
    C28      C        0.43360    0.34190    0.06959    1.000
    C29      C        0.86200    0.42723    0.33384    1.000
    C30      C        0.58180    0.32590    0.11409    1.000
    C31      C        0.85520    0.28760    0.19783    1.000
    C32      C        0.78710    0.22576    0.11445    1.000
    C33      C        0.37310    0.45820    0.05128    1.000
    C34      C        0.65190    0.39065    0.19572    1.000
    C35      C        0.64930    0.24293    0.07326    1.000
    C36      C        0.78830    0.36910    0.24039    1.000
    C37      C        0.16180    0.35810    0.98989    1.000
    C38      C        0.35090    0.23910    0.04816    1.000
    C39      C        0.23600    0.46510    0.00920    1.000
    C40      C        0.13820    0.64020    0.43008    1.000
    C41      C        0.56640    0.84190    0.43041    1.000
    C42      C        0.13800    0.92723    0.16616    1.000
    C43      C        0.41820    0.82590    0.38591    1.000
    C44      C        0.14480    0.78760    0.30217    1.000
    C45      C        0.21290    0.72576    0.38555    1.000
    C46      C        0.62690    0.95820    0.44872    1.000
    C47      C        0.34810    0.89065    0.30428    1.000
    C48      C        0.35070    0.74293    0.42674    1.000
    C49      C        0.21170    0.86910    0.25961    1.000
    C50      C        0.83820    0.85810    0.51011    1.000
    C51      C        0.64910    0.73910    0.45184    1.000
    C52      C        0.76400    0.96510    0.49080    1.000
    N1       N        0.78272    0.75448    0.98922    1.000
    N2       N        0.21728    0.25448    0.51078    1.000
    N3       N        0.21728    0.24552    0.01078    1.000
    N4       N        0.78272    0.74552    0.48922    1.000
    O1       O        0.19149    0.96243    0.96089    1.000
    O2       O        0.02568    0.82202    0.93227    1.000
    O3       O        0.19010    0.47991    0.63911    1.000
    O4       O        0.02801    0.62181    0.61923    1.000
    O5       O        0.80851    0.46243    0.53911    1.000
    O6       O        0.97432    0.32202    0.56773    1.000
    O7       O        0.80990    0.97991    0.86089    1.000
    O8       O        0.97199    0.12181    0.88077    1.000
    O9       O        0.80851    0.03757    0.03911    1.000
    O10      O        0.97432    0.17798    0.06773    1.000
    O11      O        0.80990    0.52009    0.36089    1.000
    O12      O        0.97199    0.37819    0.38077    1.000
    O13      O        0.19149    0.53757    0.46089    1.000
    O14      O        0.02568    0.67798    0.43227    1.000
    O15      O        0.19010    0.02009    0.13911    1.000
    O16      O        0.02801    0.87819    0.11923    1.000
