data_functionalizedCrystal
_audit_creation_method	'EQeq! by Chris Wilmer'
_symmetry_space_group_name_H-M	'P1'
_symmetry_Int_Tables_number	1
_symmetry_cell_setting	triclinic
loop_
_symmetry_equiv_pos_as_xyz
  x,y,z
_cell_length_a	14.867
_cell_length_b	32.323
_cell_length_c	9.1792
_cell_angle_alpha	90
_cell_angle_beta	104.26
_cell_angle_gamma	90
loop_
_atom_site_label
_atom_site_type_symbol
_atom_site_fract_x
_atom_site_fract_y
_atom_site_fract_z
_atom_site_charge
Mof_Co	Co	0.19346	0.12484	0.38181	1.149
Mof_C 	C 	0.3241	0.1675	0.209	0.088
Mof_H 	H 	0.3688	0.1734	0.2969	0.009
Mof_C 	C 	0.1973	0.1489	0.0548	0.001
Mof_H 	H 	0.1371	0.1392	0.0173	0.038
Mof_C 	C 	0.2558	0.1614	0.9698	0
Mof_H 	H 	0.2436	0.1618	0.8655	0.039
Mof_C 	C 	0.4152	0.1924	0.0343	0.151
Mof_C 	C 	0.4031	0.2211	0.921	-0.162
Mof_H 	H 	0.3442	0.2267	0.8609	0.094
Mof_C 	C 	0.4797	0.2415	0.8979	0.047
Mof_H 	H 	0.4714	0.2607	0.8202	0.025
Mof_C 	C 	0.5688	0.2347	0.9856	-0.082
Mof_C 	C 	0.5786	0.2041	0.0938	0.043
Mof_H 	H 	0.6376	0.1981	0.1526	0.022
Mof_C 	C 	0.5035	0.1821	0.1177	-0.159
Mof_H 	H 	0.5121	0.1609	0.1881	0.094
Mof_C 	C 	0.6488	0.2609	0.9676	0.127
Mof_C 	C 	0.6435	0.3025	0.006	-0.181
Mof_H 	H 	0.5933	0.3118	0.0408	0.107
Mof_C 	C 	0.7128	0.3303	0.9927	0.114
Mof_C 	C 	0.7851	0.3147	0.9356	-0.18
Mof_H 	H 	0.8316	0.3328	0.925	0.095
Mof_C 	C 	0.7914	0.2732	0.8934	0.122
Mof_C 	C 	0.721	0.2466	0.9129	-0.189
Mof_H 	H 	0.7231	0.2188	0.8883	0.098
Mof_C 	C 	0.8663	0.2583	0.8249	-0.07
Mof_C 	C 	0.892	0.2165	0.8276	0.035
Mof_H 	H 	0.8599	0.1973	0.8712	0.018
Mof_C 	C 	0.9638	0.2025	0.7675	-0.154
Mof_H 	H 	0.9815	0.1749	0.776	0.088
Mof_C 	C 	0.008	0.2302	0.6953	0.139
Mof_C 	C 	0.9853	0.2719	0.6919	-0.149
Mof_H 	H 	0.0171	0.2908	0.6465	0.092
Mof_C 	C 	0.9156	0.2855	0.7559	0.034
Mof_H 	H 	0.9012	0.3135	0.7528	0.022
Mof_C 	C 	0.0785	0.1802	0.5512	0.101
Mof_H 	H 	0.0323	0.1603	0.5413	-0.006
Mof_C 	C 	0.199	0.2125	0.5312	0.007
Mof_H 	H 	0.2541	0.2189	0.5057	0.026
Mof_C 	C 	0.1555	0.2378	0.6099	0.004
Mof_H 	H 	0.1738	0.2641	0.6458	0.032
Mof_C 	C 	0.7121	0.3739	0.0367	-0.07
Mof_C 	C 	0.7955	0.3939	0.1091	0.024
Mof_H 	H 	0.8513	0.3794	0.1316	0.022
Mof_C 	C 	0.7936	0.4355	0.1464	-0.155
Mof_H 	H 	0.8488	0.4487	0.1931	0.091
Mof_C 	C 	0.7111	0.4579	0.1155	0.136
Mof_C 	C 	0.6291	0.4374	0.051	-0.153
Mof_H 	H 	0.5729	0.4515	0.0337	0.09
Mof_C 	C 	0.6304	0.3961	0.0122	0.035
Mof_H 	H 	0.5747	0.3829	0.9684	0.021
Mof_C 	C 	0.7735	0.529	0.1387	0.104
Mof_H 	H 	0.8246	0.5232	0.1008	0.003
Mof_C 	C 	0.6729	0.5597	0.2277	-0.002
Mof_H 	H 	0.6411	0.5803	0.2652	0.03
Mof_C 	C 	0.6462	0.52	0.2103	0.015
Mof_H 	H 	0.5938	0.5083	0.2319	0.031
Mof_C 	C 	0.0253	0.1003	0.2883	0.345
Mof_C 	C 	0.9253	0.0891	0.2241	-0.196
Mof_C 	C 	0.883	0.0936	0.073	0.18
Mof_H 	H 	0.9165	0.104	0.0079	-0.02
Mof_C 	C 	0.7902	0.0826	0.0182	-0.328
Mof_H 	H 	0.7633	0.0856	0.916	0.15
Mof_C 	C 	0.7373	0.0676	0.1072	0.347
Mof_C 	C 	0.7775	0.0639	0.2585	-0.297
Mof_H 	H 	0.7416	0.0558	0.3233	0.154
Mof_C 	C 	0.8734	0.0724	0.3167	0.157
Mof_H 	H 	0.9015	0.0667	0.4169	-0.008
Mof_C 	C 	0.5864	0.075	0.949	0.329
Mof_C 	C 	0.595	0.1148	0.9093	-0.313
Mof_H 	H 	0.647	0.1299	0.9574	0.141
Mof_C 	C 	0.5265	0.1334	0.7967	0.159
Mof_H 	H 	0.533	0.1609	0.7713	-0.012
Mof_C 	C 	0.4478	0.1111	0.7215	-0.176
Mof_C 	C 	0.4403	0.0701	0.763	0.143
Mof_H 	H 	0.3888	0.0545	0.7158	-0.002
Mof_C 	C 	0.5114	0.0519	0.8777	-0.285
Mof_H 	H 	0.5069	0.0243	0.9041	0.144
Mof_C 	C 	0.3751	0.1321	0.595	0.358
Mof_N 	N 	0.2414	0.1527	0.2054	-0.228
Mof_N 	N 	0.336	0.1733	0.0696	-0.143
Mof_N 	N 	0.1518	0.1768	0.4948	-0.225
Mof_N 	N 	0.0793	0.2165	0.6255	-0.145
Mof_N 	N 	0.7544	0.566	0.1821	-0.212
Mof_N 	N 	0.7109	0.5004	0.1551	-0.147
Mof_O 	O 	0.0688	0.0871	0.4171	-0.364
Mof_O 	O 	0.0613	0.1237	0.2134	-0.402
Mof_O 	O 	0.6485	0.0546	0.0618	-0.34
Mof_O 	O 	0.4009	0.1627	0.5342	-0.302
Mof_O 	O 	0.2964	0.1147	0.5688	-0.426
Mof_Co	Co	0.80654	0.62484	0.11819	1.149
Mof_C 	C 	0.6759	0.6675	0.291	0.089
Mof_H 	H 	0.6312	0.6734	0.2031	0.009
Mof_C 	C 	0.8027	0.6489	0.4452	-0.005
Mof_H 	H 	0.8629	0.6392	0.4827	0.04
Mof_C 	C 	0.7442	0.6614	0.5302	0.01
Mof_H 	H 	0.7564	0.6618	0.6345	0.037
Mof_C 	C 	0.5848	0.6924	0.4657	0.141
Mof_C 	C 	0.5969	0.7211	0.579	-0.151
Mof_H 	H 	0.6558	0.7267	0.6391	0.09
Mof_C 	C 	0.5203	0.7415	0.6021	0.041
Mof_H 	H 	0.5286	0.7607	0.6798	0.028
Mof_C 	C 	0.4312	0.7347	0.5144	-0.075
Mof_C 	C 	0.4214	0.7041	0.4062	0.032
Mof_H 	H 	0.3624	0.6981	0.3474	0.025
Mof_C 	C 	0.4965	0.6821	0.3823	-0.151
Mof_H 	H 	0.4879	0.6609	0.3119	0.091
Mof_C 	C 	0.3512	0.7609	0.5324	0.135
Mof_C 	C 	0.3565	0.8025	0.494	-0.198
Mof_H 	H 	0.4067	0.8118	0.4592	0.112
Mof_C 	C 	0.2872	0.8303	0.5073	0.129
Mof_C 	C 	0.2149	0.8147	0.5644	-0.187
Mof_H 	H 	0.1684	0.8328	0.575	0.099
Mof_C 	C 	0.2086	0.7732	0.6066	0.128
Mof_C 	C 	0.279	0.7466	0.5871	-0.194
Mof_H 	H 	0.2769	0.7188	0.6117	0.101
Mof_C 	C 	0.1337	0.7583	0.6751	-0.071
Mof_C 	C 	0.108	0.7165	0.6724	0.036
Mof_H 	H 	0.1401	0.6973	0.6288	0.019
Mof_C 	C 	0.0362	0.7025	0.7325	-0.152
Mof_H 	H 	0.0185	0.6749	0.724	0.088
Mof_C 	C 	0.992	0.7302	0.8047	0.138
Mof_C 	C 	0.0147	0.7719	0.8081	-0.145
Mof_H 	H 	0.9829	0.7908	0.8535	0.092
Mof_C 	C 	0.0844	0.7855	0.7441	0.034
Mof_H 	H 	0.0988	0.8135	0.7472	0.022
Mof_C 	C 	0.9215	0.6802	0.9488	0.105
Mof_H 	H 	0.9677	0.6603	0.9587	-0.007
Mof_C 	C 	0.801	0.7125	0.9688	0.011
Mof_H 	H 	0.7459	0.7189	0.9943	0.026
Mof_C 	C 	0.8445	0.7378	0.8901	0.003
Mof_H 	H 	0.8262	0.7641	0.8542	0.033
Mof_C 	C 	0.2879	0.8739	0.4633	-0.078
Mof_C 	C 	0.2045	0.8939	0.3909	0.028
Mof_H 	H 	0.1487	0.8794	0.3684	0.02
Mof_C 	C 	0.2064	0.9355	0.3536	-0.157
Mof_H 	H 	0.1512	0.9487	0.3069	0.092
Mof_C 	C 	0.2889	0.9579	0.3845	0.137
Mof_C 	C 	0.3709	0.9374	0.449	-0.153
Mof_H 	H 	0.4271	0.9515	0.4663	0.089
Mof_C 	C 	0.3696	0.8961	0.4878	0.033
Mof_H 	H 	0.4253	0.8829	0.5316	0.023
Mof_C 	C 	0.2265	0.029	0.3613	0.105
Mof_H 	H 	0.1754	0.0232	0.3992	0.003
Mof_C 	C 	0.3271	0.0597	0.2723	-0.002
Mof_H 	H 	0.3589	0.0803	0.2348	0.03
Mof_C 	C 	0.3538	0.02	0.2897	0.015
Mof_H 	H 	0.4062	0.0083	0.2681	0.031
Mof_C 	C 	0.9747	0.6003	0.2117	0.348
Mof_C 	C 	0.0747	0.5891	0.2759	-0.201
Mof_C 	C 	0.117	0.5936	0.427	0.187
Mof_H 	H 	0.0835	0.604	0.4921	-0.023
Mof_C 	C 	0.2098	0.5826	0.4818	-0.338
Mof_H 	H 	0.2367	0.5856	0.584	0.155
Mof_C 	C 	0.2627	0.5676	0.3928	0.353
Mof_C 	C 	0.2225	0.5639	0.2415	-0.301
Mof_H 	H 	0.2584	0.5558	0.1767	0.155
Mof_C 	C 	0.1266	0.5724	0.1833	0.161
Mof_H 	H 	0.0985	0.5667	0.0831	-0.01
Mof_C 	C 	0.4136	0.575	0.551	0.333
Mof_C 	C 	0.405	0.6148	0.5907	-0.315
Mof_H 	H 	0.353	0.6299	0.5426	0.143
Mof_C 	C 	0.4735	0.6334	0.7033	0.161
Mof_H 	H 	0.467	0.6609	0.7287	-0.012
Mof_C 	C 	0.5522	0.6111	0.7785	-0.176
Mof_C 	C 	0.5597	0.5701	0.737	0.144
Mof_H 	H 	0.6112	0.5545	0.7842	-0.003
Mof_C 	C 	0.4886	0.5519	0.6223	-0.287
Mof_H 	H 	0.4931	0.5243	0.5959	0.145
Mof_C 	C 	0.6249	0.6321	0.905	0.358
Mof_N 	N 	0.7586	0.6527	0.2946	-0.227
Mof_N 	N 	0.664	0.6733	0.4304	-0.144
Mof_N 	N 	0.8482	0.6768	0.0052	-0.229
Mof_N 	N 	0.9207	0.7165	0.8745	-0.145
Mof_N 	N 	0.2456	0.066	0.3179	-0.212
Mof_N 	N 	0.2891	0.0004	0.3449	-0.147
Mof_O 	O 	0.9312	0.5871	0.0829	-0.365
Mof_O 	O 	0.9387	0.6237	0.2866	-0.403
Mof_O 	O 	0.3515	0.5546	0.4382	-0.343
Mof_O 	O 	0.5991	0.6627	0.9658	-0.301
Mof_O 	O 	0.7036	0.6147	0.9312	-0.424
Mof_Co	Co	0.80654	0.87516	0.61819	1.15
Mof_C 	C 	0.6759	0.8325	0.791	0.089
Mof_H 	H 	0.6312	0.8266	0.7031	0.01
Mof_C 	C 	0.8027	0.8511	0.9452	0.002
Mof_H 	H 	0.8629	0.8608	0.9827	0.039
Mof_C 	C 	0.7442	0.8386	0.0302	0.001
Mof_H 	H 	0.7564	0.8382	0.1345	0.039
Mof_C 	C 	0.5848	0.8076	0.9657	0.151
Mof_C 	C 	0.5969	0.7789	0.079	-0.162
Mof_H 	H 	0.6558	0.7733	0.1391	0.094
Mof_C 	C 	0.5203	0.7585	0.1021	0.047
Mof_H 	H 	0.5286	0.7393	0.1798	0.025
Mof_C 	C 	0.4312	0.7653	0.0144	-0.082
Mof_C 	C 	0.4214	0.7959	0.9062	0.043
Mof_H 	H 	0.3624	0.8019	0.8474	0.022
Mof_C 	C 	0.4965	0.8179	0.8823	-0.159
Mof_H 	H 	0.4879	0.8391	0.8119	0.094
Mof_C 	C 	0.3512	0.7391	0.0324	0.127
Mof_C 	C 	0.3565	0.6975	0.994	-0.181
Mof_H 	H 	0.4067	0.6882	0.9592	0.107
Mof_C 	C 	0.2872	0.6697	0.0073	0.114
Mof_C 	C 	0.2149	0.6853	0.0644	-0.18
Mof_H 	H 	0.1684	0.6672	0.075	0.095
Mof_C 	C 	0.2086	0.7268	0.1066	0.122
Mof_C 	C 	0.279	0.7534	0.0871	-0.189
Mof_H 	H 	0.2769	0.7812	0.1117	0.098
Mof_C 	C 	0.1337	0.7417	0.1751	-0.07
Mof_C 	C 	0.108	0.7835	0.1724	0.035
Mof_H 	H 	0.1401	0.8027	0.1288	0.018
Mof_C 	C 	0.0362	0.7975	0.2325	-0.154
Mof_H 	H 	0.0185	0.8251	0.224	0.088
Mof_C 	C 	0.992	0.7698	0.3047	0.139
Mof_C 	C 	0.0147	0.7281	0.3081	-0.149
Mof_H 	H 	0.9829	0.7092	0.3535	0.092
Mof_C 	C 	0.0844	0.7145	0.2441	0.034
Mof_H 	H 	0.0988	0.6865	0.2472	0.022
Mof_C 	C 	0.9215	0.8198	0.4488	0.101
Mof_H 	H 	0.9677	0.8397	0.4587	-0.006
Mof_C 	C 	0.801	0.7875	0.4688	0.007
Mof_H 	H 	0.7459	0.7811	0.4943	0.026
Mof_C 	C 	0.8445	0.7622	0.3901	0.004
Mof_H 	H 	0.8262	0.7359	0.3542	0.032
Mof_C 	C 	0.2879	0.6261	0.9633	-0.07
Mof_C 	C 	0.2045	0.6061	0.8909	0.024
Mof_H 	H 	0.1487	0.6206	0.8684	0.022
Mof_C 	C 	0.2064	0.5645	0.8536	-0.155
Mof_H 	H 	0.1512	0.5513	0.8069	0.091
Mof_C 	C 	0.2889	0.5421	0.8845	0.136
Mof_C 	C 	0.3709	0.5626	0.949	-0.153
Mof_H 	H 	0.4271	0.5485	0.9663	0.09
Mof_C 	C 	0.3696	0.6039	0.9878	0.035
Mof_H 	H 	0.4253	0.6171	0.0316	0.021
Mof_C 	C 	0.2265	0.471	0.8613	0.104
Mof_H 	H 	0.1754	0.4768	0.8992	0.003
Mof_C 	C 	0.3271	0.4403	0.7723	-0.002
Mof_H 	H 	0.3589	0.4197	0.7348	0.03
Mof_C 	C 	0.3538	0.48	0.7897	0.015
Mof_H 	H 	0.4062	0.4917	0.7681	0.031
Mof_C 	C 	0.9747	0.8997	0.7117	0.345
Mof_C 	C 	0.0747	0.9109	0.7759	-0.196
Mof_C 	C 	0.117	0.9064	0.927	0.18
Mof_H 	H 	0.0835	0.896	0.9921	-0.02
Mof_C 	C 	0.2098	0.9174	0.9818	-0.328
Mof_H 	H 	0.2367	0.9144	0.084	0.15
Mof_C 	C 	0.2627	0.9324	0.8928	0.347
Mof_C 	C 	0.2225	0.9361	0.7415	-0.297
Mof_H 	H 	0.2584	0.9442	0.6767	0.154
Mof_C 	C 	0.1266	0.9276	0.6833	0.157
Mof_H 	H 	0.0985	0.9333	0.5831	-0.008
Mof_C 	C 	0.4136	0.925	0.051	0.329
Mof_C 	C 	0.405	0.8852	0.0907	-0.313
Mof_H 	H 	0.353	0.8701	0.0426	0.141
Mof_C 	C 	0.4735	0.8666	0.2033	0.159
Mof_H 	H 	0.467	0.8391	0.2287	-0.012
Mof_C 	C 	0.5522	0.8889	0.2785	-0.176
Mof_C 	C 	0.5597	0.9299	0.237	0.143
Mof_H 	H 	0.6112	0.9455	0.2842	-0.002
Mof_C 	C 	0.4886	0.9481	0.1223	-0.285
Mof_H 	H 	0.4931	0.9757	0.0959	0.144
Mof_C 	C 	0.6249	0.8679	0.405	0.358
Mof_N 	N 	0.7586	0.8473	0.7946	-0.228
Mof_N 	N 	0.664	0.8267	0.9304	-0.143
Mof_N 	N 	0.8482	0.8232	0.5052	-0.225
Mof_N 	N 	0.9207	0.7835	0.3745	-0.145
Mof_N 	N 	0.2456	0.434	0.8179	-0.212
Mof_N 	N 	0.2891	0.4996	0.8449	-0.147
Mof_O 	O 	0.9312	0.9129	0.5829	-0.364
Mof_O 	O 	0.9387	0.8763	0.7866	-0.402
Mof_O 	O 	0.3515	0.9454	0.9382	-0.34
Mof_O 	O 	0.5991	0.8373	0.4658	-0.302
Mof_O 	O 	0.7036	0.8853	0.4312	-0.426
Mof_Co	Co	0.19346	0.37516	0.88181	1.149
Mof_C 	C 	0.3241	0.3325	0.709	0.089
Mof_H 	H 	0.3688	0.3266	0.7969	0.009
Mof_C 	C 	0.1973	0.3511	0.5548	-0.005
Mof_H 	H 	0.1371	0.3608	0.5173	0.04
Mof_C 	C 	0.2558	0.3386	0.4698	0.01
Mof_H 	H 	0.2436	0.3382	0.3655	0.037
Mof_C 	C 	0.4152	0.3076	0.5343	0.141
Mof_C 	C 	0.4031	0.2789	0.421	-0.151
Mof_H 	H 	0.3442	0.2733	0.3609	0.09
Mof_C 	C 	0.4797	0.2585	0.3979	0.041
Mof_H 	H 	0.4714	0.2393	0.3202	0.028
Mof_C 	C 	0.5688	0.2653	0.4856	-0.075
Mof_C 	C 	0.5786	0.2959	0.5938	0.032
Mof_H 	H 	0.6376	0.3019	0.6526	0.025
Mof_C 	C 	0.5035	0.3179	0.6177	-0.151
Mof_H 	H 	0.5121	0.3391	0.6881	0.091
Mof_C 	C 	0.6488	0.2391	0.4676	0.135
Mof_C 	C 	0.6435	0.1975	0.506	-0.198
Mof_H 	H 	0.5933	0.1882	0.5408	0.112
Mof_C 	C 	0.7128	0.1697	0.4927	0.129
Mof_C 	C 	0.7851	0.1853	0.4356	-0.187
Mof_H 	H 	0.8316	0.1672	0.425	0.099
Mof_C 	C 	0.7914	0.2268	0.3934	0.128
Mof_C 	C 	0.721	0.2534	0.4129	-0.194
Mof_H 	H 	0.7231	0.2812	0.3883	0.101
Mof_C 	C 	0.8663	0.2417	0.3249	-0.071
Mof_C 	C 	0.892	0.2835	0.3276	0.036
Mof_H 	H 	0.8599	0.3027	0.3712	0.019
Mof_C 	C 	0.9638	0.2975	0.2675	-0.152
Mof_H 	H 	0.9815	0.3251	0.276	0.088
Mof_C 	C 	0.008	0.2698	0.1953	0.138
Mof_C 	C 	0.9853	0.2281	0.1919	-0.145
Mof_H 	H 	0.0171	0.2092	0.1465	0.092
Mof_C 	C 	0.9156	0.2145	0.2559	0.034
Mof_H 	H 	0.9012	0.1865	0.2528	0.022
Mof_C 	C 	0.0785	0.3198	0.0512	0.105
Mof_H 	H 	0.0323	0.3397	0.0413	-0.007
Mof_C 	C 	0.199	0.2875	0.0312	0.011
Mof_H 	H 	0.2541	0.2811	0.0057	0.026
Mof_C 	C 	0.1555	0.2622	0.1099	0.003
Mof_H 	H 	0.1738	0.2359	0.1458	0.033
Mof_C 	C 	0.7121	0.1261	0.5367	-0.078
Mof_C 	C 	0.7955	0.1061	0.6091	0.028
Mof_H 	H 	0.8513	0.1206	0.6316	0.02
Mof_C 	C 	0.7936	0.0645	0.6464	-0.157
Mof_H 	H 	0.8488	0.0513	0.6931	0.092
Mof_C 	C 	0.7111	0.0421	0.6155	0.137
Mof_C 	C 	0.6291	0.0626	0.551	-0.153
Mof_H 	H 	0.5729	0.0485	0.5337	0.089
Mof_C 	C 	0.6304	0.1039	0.5122	0.033
Mof_H 	H 	0.5747	0.1171	0.4684	0.023
Mof_C 	C 	0.7735	0.971	0.6387	0.105
Mof_H 	H 	0.8246	0.9768	0.6008	0.003
Mof_C 	C 	0.6729	0.9403	0.7277	-0.002
Mof_H 	H 	0.6411	0.9197	0.7652	0.03
Mof_C 	C 	0.6462	0.98	0.7103	0.015
Mof_H 	H 	0.5938	0.9917	0.7319	0.031
Mof_C 	C 	0.0253	0.3997	0.7883	0.348
Mof_C 	C 	0.9253	0.4109	0.7241	-0.201
Mof_C 	C 	0.883	0.4064	0.573	0.187
Mof_H 	H 	0.9165	0.396	0.5079	-0.023
Mof_C 	C 	0.7902	0.4174	0.5182	-0.338
Mof_H 	H 	0.7633	0.4144	0.416	0.155
Mof_C 	C 	0.7373	0.4324	0.6072	0.353
Mof_C 	C 	0.7775	0.4361	0.7585	-0.301
Mof_H 	H 	0.7416	0.4442	0.8233	0.155
Mof_C 	C 	0.8734	0.4276	0.8167	0.161
Mof_H 	H 	0.9015	0.4333	0.9169	-0.01
Mof_C 	C 	0.5864	0.425	0.449	0.333
Mof_C 	C 	0.595	0.3852	0.4093	-0.315
Mof_H 	H 	0.647	0.3701	0.4574	0.143
Mof_C 	C 	0.5265	0.3666	0.2967	0.161
Mof_H 	H 	0.533	0.3391	0.2713	-0.012
Mof_C 	C 	0.4478	0.3889	0.2215	-0.176
Mof_C 	C 	0.4403	0.4299	0.263	0.144
Mof_H 	H 	0.3888	0.4455	0.2158	-0.003
Mof_C 	C 	0.5114	0.4481	0.3777	-0.287
Mof_H 	H 	0.5069	0.4757	0.4041	0.145
Mof_C 	C 	0.3751	0.3679	0.095	0.358
Mof_N 	N 	0.2414	0.3473	0.7054	-0.227
Mof_N 	N 	0.336	0.3267	0.5696	-0.144
Mof_N 	N 	0.1518	0.3232	0.9948	-0.229
Mof_N 	N 	0.0793	0.2835	0.1255	-0.145
Mof_N 	N 	0.7544	0.934	0.6821	-0.212
Mof_N 	N 	0.7109	0.9996	0.6551	-0.147
Mof_O 	O 	0.0688	0.4129	0.9171	-0.365
Mof_O 	O 	0.0613	0.3763	0.7134	-0.403
Mof_O 	O 	0.6485	0.4454	0.5618	-0.343
Mof_O 	O 	0.4009	0.3373	0.0342	-0.301
Mof_O 	O 	0.2964	0.3853	0.0688	-0.424
_end
