# CIF file generated by openbabel 3.1.0, see https://openbabel.org
data_I
_chemical_name_common 'image0'
_cell_length_a 24.8326
_cell_length_b 17.4185
_cell_length_c 17.0634
_cell_angle_alpha 90
_cell_angle_beta 113.428
_cell_angle_gamma 90
_space_group_name_H-M_alt 'P 1'
_space_group_name_Hall 'P 1'
loop_
    _symmetry_equiv_pos_as_xyz
    x,y,z
loop_
    _atom_site_label
    _atom_site_type_symbol
    _atom_site_fract_x
    _atom_site_fract_y
    _atom_site_fract_z
    _atom_site_occupancy
    C1       C        0.11804    0.27212    0.85670    1.000
    C2       C        0.21023    0.08659    0.92390    1.000
    C3       C        0.08544    0.32336    0.89300    1.000
    C4       C        0.35337    0.23490    0.84240    1.000
    C5       C        0.29974    0.22980    0.86340    1.000
    C6       C        0.02487    0.31530    0.86590    1.000
    H1       H        0.00530    0.27660    0.82770    1.000
    C7       C        0.34835    0.22030    0.76030    1.000
    H2       H        0.31200    0.20710    0.71840    1.000
    C8       C        0.39662    0.22490    0.73940    1.000
    H3       H        0.39250    0.21620    0.68350    1.000
    C9       C        0.02320    0.42270    0.95200    1.000
    C10      C        0.11427    0.38030    0.95070    1.000
    H4       H        0.15480    0.38490    0.96990    1.000
    C11      C        0.99398    0.36460    0.89560    1.000
    H5       H        0.95360    0.35890    0.87780    1.000
    C12      C        0.45121    0.24270    0.80210    1.000
    C13      C        0.08361    0.43050    0.98030    1.000
    H6       H        0.10320    0.46910    0.01870    1.000
    C14      C        0.21956    0.00390    0.94810    1.000
    C15      C        0.40767    0.25390    0.90450    1.000
    H7       H        0.41120    0.26450    0.95980    1.000
    C16      C        0.45690    0.25720    0.88550    1.000
    H8       H        0.49340    0.26900    0.92790    1.000
    C17      C        0.26980    0.90500    0.04940    1.000
    H9       H        0.29710    0.89120    0.10320    1.000
    C18      C        0.25950    0.98220    0.02760    1.000
    H10      H        0.27990    0.01960    0.06720    1.000
    C19      C        0.18990    0.94720    0.89160    1.000
    H11      H        0.16230    0.96020    0.83780    1.000
    C20      C        0.20080    0.87020    0.91460    1.000
    H12      H        0.18060    0.83230    0.87560    1.000
    C21      C        0.24010    0.84980    0.99230    1.000
    Mg1      Mg       0.17016    0.20044    0.78295    1.000
    N1       N        0.98622    0.47306    0.97550    1.000
    N2       N        0.50421    0.24560    0.78800    1.000
    N3       N        0.26210    0.76870    0.02720    1.000
    O1       O        0.25547    0.19855    0.80718    1.000
    O2       O        0.30296    0.25671    0.93256    1.000
    O3       O        0.23830    0.13374    0.97932    1.000
    O4       O        0.17534    0.10161    0.84817    1.000
    O5       O        0.09052    0.23165    0.79307    1.000
    O6       O        0.17410    0.27275    0.88838    1.000
    C22      C        0.61804    0.77212    0.85670    1.000
    C23      C        0.71023    0.58659    0.92390    1.000
    C24      C        0.58544    0.82336    0.89300    1.000
    C25      C        0.85337    0.73490    0.84240    1.000
    C26      C        0.79974    0.72980    0.86340    1.000
    C27      C        0.52487    0.81530    0.86590    1.000
    H13      H        0.50530    0.77660    0.82770    1.000
    C28      C        0.84835    0.72030    0.76030    1.000
    H14      H        0.81200    0.70710    0.71840    1.000
    C29      C        0.89662    0.72490    0.73940    1.000
    H15      H        0.89250    0.71620    0.68350    1.000
    C30      C        0.52320    0.92270    0.95200    1.000
    C31      C        0.61427    0.88030    0.95070    1.000
    H16      H        0.65480    0.88490    0.96990    1.000
    C32      C        0.49398    0.86460    0.89560    1.000
    H17      H        0.45360    0.85890    0.87780    1.000
    C33      C        0.95121    0.74270    0.80210    1.000
    C34      C        0.58361    0.93050    0.98030    1.000
    H18      H        0.60320    0.96910    0.01870    1.000
    C35      C        0.71956    0.50390    0.94810    1.000
    C36      C        0.90767    0.75390    0.90450    1.000
    H19      H        0.91120    0.76450    0.95980    1.000
    C37      C        0.95690    0.75720    0.88550    1.000
    H20      H        0.99340    0.76900    0.92790    1.000
    C38      C        0.76980    0.40500    0.04940    1.000
    H21      H        0.79710    0.39120    0.10320    1.000
    C39      C        0.75950    0.48220    0.02760    1.000
    H22      H        0.77990    0.51960    0.06720    1.000
    C40      C        0.68990    0.44720    0.89160    1.000
    H23      H        0.66230    0.46020    0.83780    1.000
    C41      C        0.70080    0.37020    0.91460    1.000
    H24      H        0.68060    0.33230    0.87560    1.000
    C42      C        0.74010    0.34980    0.99230    1.000
    Mg2      Mg       0.67016    0.70044    0.78295    1.000
    N4       N        0.48622    0.97306    0.97550    1.000
    N5       N        0.00421    0.74560    0.78800    1.000
    N6       N        0.76210    0.26870    0.02720    1.000
    O7       O        0.75547    0.69855    0.80718    1.000
    O8       O        0.80296    0.75671    0.93256    1.000
    O9       O        0.73830    0.63374    0.97932    1.000
    O10      O        0.67534    0.60161    0.84817    1.000
    O11      O        0.59052    0.73165    0.79307    1.000
    O12      O        0.67410    0.77275    0.88838    1.000
    C43      C        0.88196    0.27212    0.64330    1.000
    C44      C        0.78977    0.08659    0.57610    1.000
    C45      C        0.91456    0.32336    0.60700    1.000
    C46      C        0.64663    0.23490    0.65760    1.000
    C47      C        0.70026    0.22980    0.63660    1.000
    C48      C        0.97513    0.31530    0.63410    1.000
    H25      H        0.99470    0.27660    0.67230    1.000
    C49      C        0.65165    0.22030    0.73970    1.000
    H26      H        0.68800    0.20710    0.78160    1.000
    C50      C        0.60338    0.22490    0.76060    1.000
    H27      H        0.60750    0.21620    0.81650    1.000
    C51      C        0.97680    0.42270    0.54800    1.000
    C52      C        0.88573    0.38030    0.54930    1.000
    H28      H        0.84520    0.38490    0.53010    1.000
    C53      C        0.00602    0.36460    0.60440    1.000
    H29      H        0.04640    0.35890    0.62220    1.000
    C54      C        0.54879    0.24270    0.69790    1.000
    C55      C        0.91639    0.43050    0.51970    1.000
    H30      H        0.89680    0.46910    0.48130    1.000
    C56      C        0.78044    0.00390    0.55190    1.000
    C57      C        0.59233    0.25390    0.59550    1.000
    H31      H        0.58880    0.26450    0.54020    1.000
    C58      C        0.54310    0.25720    0.61450    1.000
    H32      H        0.50660    0.26900    0.57210    1.000
    C59      C        0.73020    0.90500    0.45060    1.000
    H33      H        0.70290    0.89120    0.39680    1.000
    C60      C        0.74050    0.98220    0.47240    1.000
    H34      H        0.72010    0.01960    0.43280    1.000
    C61      C        0.81010    0.94720    0.60840    1.000
    H35      H        0.83770    0.96020    0.66220    1.000
    C62      C        0.79920    0.87020    0.58540    1.000
    H36      H        0.81940    0.83230    0.62440    1.000
    C63      C        0.75990    0.84980    0.50770    1.000
    Mg3      Mg       0.82984    0.20044    0.71705    1.000
    N7       N        0.01378    0.47306    0.52450    1.000
    N8       N        0.49579    0.24560    0.71200    1.000
    N9       N        0.73790    0.76870    0.47280    1.000
    O13      O        0.74453    0.19855    0.69282    1.000
    O14      O        0.69704    0.25671    0.56744    1.000
    O15      O        0.76170    0.13374    0.52068    1.000
    O16      O        0.82466    0.10161    0.65183    1.000
    O17      O        0.90948    0.23165    0.70693    1.000
    O18      O        0.82590    0.27275    0.61162    1.000
    C64      C        0.38196    0.77212    0.64330    1.000
    C65      C        0.28977    0.58659    0.57610    1.000
    C66      C        0.41456    0.82336    0.60700    1.000
    C67      C        0.14663    0.73490    0.65760    1.000
    C68      C        0.20026    0.72980    0.63660    1.000
    C69      C        0.47513    0.81530    0.63410    1.000
    H37      H        0.49470    0.77660    0.67230    1.000
    C70      C        0.15165    0.72030    0.73970    1.000
    H38      H        0.18800    0.70710    0.78160    1.000
    C71      C        0.10338    0.72490    0.76060    1.000
    H39      H        0.10750    0.71620    0.81650    1.000
    C72      C        0.47680    0.92270    0.54800    1.000
    C73      C        0.38573    0.88030    0.54930    1.000
    H40      H        0.34520    0.88490    0.53010    1.000
    C74      C        0.50602    0.86460    0.60440    1.000
    H41      H        0.54640    0.85890    0.62220    1.000
    C75      C        0.04879    0.74270    0.69790    1.000
    C76      C        0.41639    0.93050    0.51970    1.000
    H42      H        0.39680    0.96910    0.48130    1.000
    C77      C        0.28044    0.50390    0.55190    1.000
    C78      C        0.09233    0.75390    0.59550    1.000
    H43      H        0.08880    0.76450    0.54020    1.000
    C79      C        0.04310    0.75720    0.61450    1.000
    H44      H        0.00660    0.76900    0.57210    1.000
    C80      C        0.23020    0.40500    0.45060    1.000
    H45      H        0.20290    0.39120    0.39680    1.000
    C81      C        0.24050    0.48220    0.47240    1.000
    H46      H        0.22010    0.51960    0.43280    1.000
    C82      C        0.31010    0.44720    0.60840    1.000
    H47      H        0.33770    0.46020    0.66220    1.000
    C83      C        0.29920    0.37020    0.58540    1.000
    H48      H        0.31940    0.33230    0.62440    1.000
    C84      C        0.25990    0.34980    0.50770    1.000
    Mg4      Mg       0.32984    0.70044    0.71705    1.000
    N10      N        0.51378    0.97306    0.52450    1.000
    N11      N        0.99579    0.74560    0.71200    1.000
    N12      N        0.23790    0.26870    0.47280    1.000
    O19      O        0.24453    0.69855    0.69282    1.000
    O20      O        0.19704    0.75671    0.56744    1.000
    O21      O        0.26170    0.63374    0.52068    1.000
    O22      O        0.32466    0.60161    0.65183    1.000
    O23      O        0.40948    0.73165    0.70693    1.000
    O24      O        0.32590    0.77275    0.61162    1.000
    C85      C        0.88196    0.72788    0.14330    1.000
    C86      C        0.78977    0.91341    0.07610    1.000
    C87      C        0.91456    0.67664    0.10700    1.000
    C88      C        0.64663    0.76510    0.15760    1.000
    C89      C        0.70026    0.77020    0.13660    1.000
    C90      C        0.97513    0.68470    0.13410    1.000
    H49      H        0.99470    0.72340    0.17230    1.000
    C91      C        0.65165    0.77970    0.23970    1.000
    H50      H        0.68800    0.79290    0.28160    1.000
    C92      C        0.60338    0.77510    0.26060    1.000
    H51      H        0.60750    0.78380    0.31650    1.000
    C93      C        0.97680    0.57730    0.04800    1.000
    C94      C        0.88573    0.61970    0.04930    1.000
    H52      H        0.84520    0.61510    0.03010    1.000
    C95      C        0.00602    0.63540    0.10440    1.000
    H53      H        0.04640    0.64110    0.12220    1.000
    C96      C        0.54879    0.75730    0.19790    1.000
    C97      C        0.91639    0.56950    0.01970    1.000
    H54      H        0.89680    0.53090    0.98130    1.000
    C98      C        0.78044    0.99610    0.05190    1.000
    C99      C        0.59233    0.74610    0.09550    1.000
    H55      H        0.58880    0.73550    0.04020    1.000
    C100     C        0.54310    0.74280    0.11450    1.000
    H56      H        0.50660    0.73100    0.07210    1.000
    C101     C        0.73020    0.09500    0.95060    1.000
    H57      H        0.70290    0.10880    0.89680    1.000
    C102     C        0.74050    0.01780    0.97240    1.000
    H58      H        0.72010    0.98040    0.93280    1.000
    C103     C        0.81010    0.05280    0.10840    1.000
    H59      H        0.83770    0.03980    0.16220    1.000
    C104     C        0.79920    0.12980    0.08540    1.000
    H60      H        0.81940    0.16770    0.12440    1.000
    C105     C        0.75990    0.15020    0.00770    1.000
    Mg5      Mg       0.82984    0.79956    0.21705    1.000
    N13      N        0.01378    0.52694    0.02450    1.000
    N14      N        0.49579    0.75440    0.21200    1.000
    N15      N        0.73790    0.23130    0.97280    1.000
    O25      O        0.74453    0.80145    0.19282    1.000
    O26      O        0.69704    0.74329    0.06744    1.000
    O27      O        0.76170    0.86626    0.02068    1.000
    O28      O        0.82466    0.89839    0.15183    1.000
    O29      O        0.90948    0.76835    0.20693    1.000
    O30      O        0.82590    0.72725    0.11162    1.000
    C106     C        0.38196    0.22788    0.14330    1.000
    C107     C        0.28977    0.41341    0.07610    1.000
    C108     C        0.41456    0.17664    0.10700    1.000
    C109     C        0.14663    0.26510    0.15760    1.000
    C110     C        0.20026    0.27020    0.13660    1.000
    C111     C        0.47513    0.18470    0.13410    1.000
    H61      H        0.49470    0.22340    0.17230    1.000
    C112     C        0.15165    0.27970    0.23970    1.000
    H62      H        0.18800    0.29290    0.28160    1.000
    C113     C        0.10338    0.27510    0.26060    1.000
    H63      H        0.10750    0.28380    0.31650    1.000
    C114     C        0.47680    0.07730    0.04800    1.000
    C115     C        0.38573    0.11970    0.04930    1.000
    H64      H        0.34520    0.11510    0.03010    1.000
    C116     C        0.50602    0.13540    0.10440    1.000
    H65      H        0.54640    0.14110    0.12220    1.000
    C117     C        0.04879    0.25730    0.19790    1.000
    C118     C        0.41639    0.06950    0.01970    1.000
    H66      H        0.39680    0.03090    0.98130    1.000
    C119     C        0.28044    0.49610    0.05190    1.000
    C120     C        0.09233    0.24610    0.09550    1.000
    H67      H        0.08880    0.23550    0.04020    1.000
    C121     C        0.04310    0.24280    0.11450    1.000
    H68      H        0.00660    0.23100    0.07210    1.000
    C122     C        0.23020    0.59500    0.95060    1.000
    H69      H        0.20290    0.60880    0.89680    1.000
    C123     C        0.24050    0.51780    0.97240    1.000
    H70      H        0.22010    0.48040    0.93280    1.000
    C124     C        0.31010    0.55280    0.10840    1.000
    H71      H        0.33770    0.53980    0.16220    1.000
    C125     C        0.29920    0.62980    0.08540    1.000
    H72      H        0.31940    0.66770    0.12440    1.000
    C126     C        0.25990    0.65020    0.00770    1.000
    Mg6      Mg       0.32984    0.29956    0.21705    1.000
    N16      N        0.51378    0.02694    0.02450    1.000
    N17      N        0.99579    0.25440    0.21200    1.000
    N18      N        0.23790    0.73130    0.97280    1.000
    O31      O        0.24453    0.30145    0.19282    1.000
    O32      O        0.19704    0.24329    0.06744    1.000
    O33      O        0.26170    0.36626    0.02068    1.000
    O34      O        0.32466    0.39839    0.15183    1.000
    O35      O        0.40948    0.26835    0.20693    1.000
    O36      O        0.32590    0.22725    0.11162    1.000
    C127     C        0.11804    0.72788    0.35670    1.000
    C128     C        0.21023    0.91341    0.42390    1.000
    C129     C        0.08544    0.67664    0.39300    1.000
    C130     C        0.35337    0.76510    0.34240    1.000
    C131     C        0.29974    0.77020    0.36340    1.000
    C132     C        0.02487    0.68470    0.36590    1.000
    H73      H        0.00530    0.72340    0.32770    1.000
    C133     C        0.34835    0.77970    0.26030    1.000
    H74      H        0.31200    0.79290    0.21840    1.000
    C134     C        0.39662    0.77510    0.23940    1.000
    H75      H        0.39250    0.78380    0.18350    1.000
    C135     C        0.02320    0.57730    0.45200    1.000
    C136     C        0.11427    0.61970    0.45070    1.000
    H76      H        0.15480    0.61510    0.46990    1.000
    C137     C        0.99398    0.63540    0.39560    1.000
    H77      H        0.95360    0.64110    0.37780    1.000
    C138     C        0.45121    0.75730    0.30210    1.000
    C139     C        0.08361    0.56950    0.48030    1.000
    H78      H        0.10320    0.53090    0.51870    1.000
    C140     C        0.21956    0.99610    0.44810    1.000
    C141     C        0.40767    0.74610    0.40450    1.000
    H79      H        0.41120    0.73550    0.45980    1.000
    C142     C        0.45690    0.74280    0.38550    1.000
    H80      H        0.49340    0.73100    0.42790    1.000
    C143     C        0.26980    0.09500    0.54940    1.000
    H81      H        0.29710    0.10880    0.60320    1.000
    C144     C        0.25950    0.01780    0.52760    1.000
    H82      H        0.27990    0.98040    0.56720    1.000
    C145     C        0.18990    0.05280    0.39160    1.000
    H83      H        0.16230    0.03980    0.33780    1.000
    C146     C        0.20080    0.12980    0.41460    1.000
    H84      H        0.18060    0.16770    0.37560    1.000
    C147     C        0.24010    0.15020    0.49230    1.000
    Mg7      Mg       0.17016    0.79956    0.28295    1.000
    N19      N        0.98622    0.52694    0.47550    1.000
    N20      N        0.50421    0.75440    0.28800    1.000
    N21      N        0.26210    0.23130    0.52720    1.000
    O37      O        0.25547    0.80145    0.30718    1.000
    O38      O        0.30296    0.74329    0.43256    1.000
    O39      O        0.23830    0.86626    0.47932    1.000
    O40      O        0.17534    0.89839    0.34817    1.000
    O41      O        0.09052    0.76835    0.29307    1.000
    O42      O        0.17410    0.72725    0.38838    1.000
    C148     C        0.61804    0.22788    0.35670    1.000
    C149     C        0.71023    0.41341    0.42390    1.000
    C150     C        0.58544    0.17664    0.39300    1.000
    C151     C        0.85337    0.26510    0.34240    1.000
    C152     C        0.79974    0.27020    0.36340    1.000
    C153     C        0.52487    0.18470    0.36590    1.000
    H85      H        0.50530    0.22340    0.32770    1.000
    C154     C        0.84835    0.27970    0.26030    1.000
    H86      H        0.81200    0.29290    0.21840    1.000
    C155     C        0.89662    0.27510    0.23940    1.000
    H87      H        0.89250    0.28380    0.18350    1.000
    C156     C        0.52320    0.07730    0.45200    1.000
    C157     C        0.61427    0.11970    0.45070    1.000
    H88      H        0.65480    0.11510    0.46990    1.000
    C158     C        0.49398    0.13540    0.39560    1.000
    H89      H        0.45360    0.14110    0.37780    1.000
    C159     C        0.95121    0.25730    0.30210    1.000
    C160     C        0.58361    0.06950    0.48030    1.000
    H90      H        0.60320    0.03090    0.51870    1.000
    C161     C        0.71956    0.49610    0.44810    1.000
    C162     C        0.90767    0.24610    0.40450    1.000
    H91      H        0.91120    0.23550    0.45980    1.000
    C163     C        0.95690    0.24280    0.38550    1.000
    H92      H        0.99340    0.23100    0.42790    1.000
    C164     C        0.76980    0.59500    0.54940    1.000
    H93      H        0.79710    0.60880    0.60320    1.000
    C165     C        0.75950    0.51780    0.52760    1.000
    H94      H        0.77990    0.48040    0.56720    1.000
    C166     C        0.68990    0.55280    0.39160    1.000
    H95      H        0.66230    0.53980    0.33780    1.000
    C167     C        0.70080    0.62980    0.41460    1.000
    H96      H        0.68060    0.66770    0.37560    1.000
    C168     C        0.74010    0.65020    0.49230    1.000
    Mg8      Mg       0.67016    0.29956    0.28295    1.000
    N22      N        0.48622    0.02694    0.47550    1.000
    N23      N        0.00421    0.25440    0.28800    1.000
    N24      N        0.76210    0.73130    0.52720    1.000
    O43      O        0.75547    0.30145    0.30718    1.000
    O44      O        0.80296    0.24329    0.43256    1.000
    O45      O        0.73830    0.36626    0.47932    1.000
    O46      O        0.67534    0.39839    0.34817    1.000
    O47      O        0.59052    0.26835    0.29307    1.000
    O48      O        0.67410    0.22725    0.38838    1.000
    Mg9      Mg       0.25000    0.25000    0.00000    1.000
    Mg10     Mg       0.75000    0.25000    0.50000    1.000
    Mg11     Mg       0.75000    0.75000    0.00000    1.000
    Mg12     Mg       0.25000    0.75000    0.50000    1.000
