# CIF file generated by openbabel 3.1.0, see https://openbabel.org
data_I
_chemical_name_common 'image0'
_cell_length_a 28.147
_cell_length_b 13.8926
_cell_length_c 44.028
_cell_angle_alpha 90
_cell_angle_beta 90
_cell_angle_gamma 90
_space_group_name_H-M_alt 'P 1'
_space_group_name_Hall 'P 1'
loop_
    _symmetry_equiv_pos_as_xyz
    x,y,z
loop_
    _atom_site_label
    _atom_site_type_symbol
    _atom_site_fract_x
    _atom_site_fract_y
    _atom_site_fract_z
    _atom_site_occupancy
    Zn1      Zn       0.02212    0.88888    0.91023    1.000
    Zn2      Zn       0.54637    0.86352    0.90696    1.000
    Zn3      Zn       0.76073    0.19089    0.67546    1.000
    I1       I        0.00652    0.80378    0.96103    1.000
    I2       I        0.07090    0.81224    0.86847    1.000
    I3       I        0.55663    0.68203    0.90825    1.000
    I4       I        0.48174    0.95110    0.87713    1.000
    I5       I        0.67265    0.19159    0.66245    1.000
    I6       I        0.80338    0.35164    0.68203    1.000
    C1       C        0.91690    0.91260    0.90551    1.000
    H1       H        0.91770    0.89720    0.92650    1.000
    C2       C        0.87290    0.92620    0.89157    1.000
    H2       H        0.84430    0.92000    0.90290    1.000
    C3       C        0.87130    0.94890    0.86107    1.000
    C4       C        0.91330    0.95800    0.84546    1.000
    H3       H        0.91300    0.97410    0.82450    1.000
    C5       C        0.95590    0.94360    0.86030    1.000
    H4       H        0.98460    0.95000    0.84910    1.000
    C6       C        0.81210    0.11280    0.72920    1.000
    H5       H        0.83880    0.14090    0.71950    1.000
    C7       C        0.81790    0.07290    0.75726    1.000
    H6       H        0.84850    0.07150    0.76640    1.000
    C8       C        0.77870    0.03370    0.77273    1.000
    C9       C        0.73540    0.03260    0.75752    1.000
    H7       H        0.70820    0.00450    0.76670    1.000
    C10      C        0.73220    0.07290    0.72882    1.000
    H8       H        0.70240    0.07150    0.71880    1.000
    C11      C        0.61370    0.94070    0.86229    1.000
    H9       H        0.58490    0.95000    0.85140    1.000
    C12      C        0.65610    0.95780    0.84732    1.000
    H10      H        0.65650    0.97730    0.82660    1.000
    C13      C        0.69820    0.94550    0.86359    1.000
    C14      C        0.69620    0.91960    0.89393    1.000
    H11      H        0.72430    0.91330    0.90570    1.000
    C15      C        0.65180    0.90310    0.90670    1.000
    H12      H        0.65030    0.88470    0.92750    1.000
    C16      C        0.82400    0.96200    0.84532    1.000
    C17      C        0.74500    0.95920    0.84767    1.000
    C18      C        0.78170    0.99870    0.80411    1.000
    C19      C        0.06660    0.63410    0.02642    1.000
    H13      H        0.07250    0.70090    0.02920    1.000
    C20      C        0.07720    0.59260    0.99904    1.000
    H14      H        0.08920    0.63130    0.98300    1.000
    C21      C        0.07050    0.49540    0.99437    1.000
    C22      C        0.05030    0.44250    0.01853    1.000
    H15      H        0.04440    0.37550    0.01640    1.000
    C23      C        0.03940    0.48870    0.04486    1.000
    H16      H        0.02490    0.45260    0.06070    1.000
    C24      C        0.04250    0.06180    0.94880    1.000
    H17      H        0.02700    0.02500    0.96400    1.000
    C25      C        0.05650    0.15550    0.95529    1.000
    H18      H        0.05050    0.18250    0.97470    1.000
    C26      C        0.07960    0.21000    0.93287    1.000
    C27      C        0.08810    0.16700    0.90457    1.000
    H19      H        0.10490    0.20080    0.88920    1.000
    C28      C        0.07170    0.07450    0.89952    1.000
    H20      H        0.07570    0.04730    0.87990    1.000
    C29      C        0.20120    0.51440    0.85414    1.000
    H21      H        0.21830    0.48310    0.83840    1.000
    C30      C        0.17700    0.45940    0.87553    1.000
    H22      H        0.17700    0.39120    0.87420    1.000
    C31      C        0.15290    0.50500    0.89871    1.000
    C32      C        0.15240    0.60510    0.89900    1.000
    H23      H        0.13580    0.63910    0.91440    1.000
    C33      C        0.17620    0.65350    0.87690    1.000
    H24      H        0.17490    0.72180    0.87680    1.000
    C34      C        0.08630    0.44710    0.96619    1.000
    C35      C        0.12630    0.44870    0.92238    1.000
    C36      C        0.09250    0.31140    0.93806    1.000
    N1       N        0.95840    0.92060    0.89016    1.000
    N2       N        0.61080    0.91190    0.89110    1.000
    N3       N        0.76930    0.11410    0.71442    1.000
    N4       N        0.78500    0.94560    0.86244    1.000
    N5       N        0.74100    0.98520    0.81821    1.000
    N6       N        0.82550    0.98750    0.81676    1.000
    N7       N        0.04800    0.58230    0.04972    1.000
    N8       N        0.20080    0.60980    0.85537    1.000
    N9       N        0.05060    0.02140    0.92101    1.000
    N10      N        0.11080    0.49890    0.94617    1.000
    N11      N        0.11910    0.35540    0.91719    1.000
    N12      N        0.07510    0.35240    0.96277    1.000
    Zn4      Zn       0.47788    0.11112    0.41023    1.000
    Zn5      Zn       0.95363    0.13648    0.40696    1.000
    Zn6      Zn       0.73927    0.80911    0.17546    1.000
    I7       I        0.49348    0.19622    0.46103    1.000
    I8       I        0.42910    0.18776    0.36847    1.000
    I9       I        0.94337    0.31797    0.40825    1.000
    I10      I        0.01826    0.04890    0.37713    1.000
    I11      I        0.82735    0.80841    0.16245    1.000
    I12      I        0.69662    0.64836    0.18203    1.000
    C37      C        0.58310    0.08740    0.40551    1.000
    H25      H        0.58230    0.10280    0.42650    1.000
    C38      C        0.62710    0.07380    0.39157    1.000
    H26      H        0.65570    0.08000    0.40290    1.000
    C39      C        0.62870    0.05110    0.36107    1.000
    C40      C        0.58670    0.04200    0.34546    1.000
    H27      H        0.58700    0.02590    0.32450    1.000
    C41      C        0.54410    0.05640    0.36030    1.000
    H28      H        0.51540    0.05000    0.34910    1.000
    C42      C        0.68790    0.88720    0.22920    1.000
    H29      H        0.66120    0.85910    0.21950    1.000
    C43      C        0.68210    0.92710    0.25726    1.000
    H30      H        0.65150    0.92850    0.26640    1.000
    C44      C        0.72130    0.96630    0.27273    1.000
    C45      C        0.76460    0.96740    0.25752    1.000
    H31      H        0.79180    0.99550    0.26670    1.000
    C46      C        0.76780    0.92710    0.22882    1.000
    H32      H        0.79760    0.92850    0.21880    1.000
    C47      C        0.88630    0.05930    0.36229    1.000
    H33      H        0.91510    0.05000    0.35140    1.000
    C48      C        0.84390    0.04220    0.34732    1.000
    H34      H        0.84350    0.02270    0.32660    1.000
    C49      C        0.80180    0.05450    0.36359    1.000
    C50      C        0.80380    0.08040    0.39393    1.000
    H35      H        0.77570    0.08670    0.40570    1.000
    C51      C        0.84820    0.09690    0.40670    1.000
    H36      H        0.84970    0.11530    0.42750    1.000
    C52      C        0.67600    0.03800    0.34532    1.000
    C53      C        0.75500    0.04080    0.34767    1.000
    C54      C        0.71830    0.00130    0.30411    1.000
    C55      C        0.43340    0.36590    0.52642    1.000
    H37      H        0.42750    0.29910    0.52920    1.000
    C56      C        0.42280    0.40740    0.49904    1.000
    H38      H        0.41080    0.36870    0.48300    1.000
    C57      C        0.42950    0.50460    0.49437    1.000
    C58      C        0.44970    0.55750    0.51853    1.000
    H39      H        0.45560    0.62450    0.51640    1.000
    C59      C        0.46060    0.51130    0.54486    1.000
    H40      H        0.47510    0.54740    0.56070    1.000
    C60      C        0.45750    0.93820    0.44880    1.000
    H41      H        0.47300    0.97500    0.46400    1.000
    C61      C        0.44350    0.84450    0.45529    1.000
    H42      H        0.44950    0.81750    0.47470    1.000
    C62      C        0.42040    0.79000    0.43287    1.000
    C63      C        0.41190    0.83300    0.40457    1.000
    H43      H        0.39510    0.79920    0.38920    1.000
    C64      C        0.42830    0.92550    0.39952    1.000
    H44      H        0.42430    0.95270    0.37990    1.000
    C65      C        0.29880    0.48560    0.35414    1.000
    H45      H        0.28170    0.51690    0.33840    1.000
    C66      C        0.32300    0.54060    0.37553    1.000
    H46      H        0.32300    0.60880    0.37420    1.000
    C67      C        0.34710    0.49500    0.39871    1.000
    C68      C        0.34760    0.39490    0.39900    1.000
    H47      H        0.36420    0.36090    0.41440    1.000
    C69      C        0.32380    0.34650    0.37690    1.000
    H48      H        0.32510    0.27820    0.37680    1.000
    C70      C        0.41370    0.55290    0.46619    1.000
    C71      C        0.37370    0.55130    0.42238    1.000
    C72      C        0.40750    0.68860    0.43806    1.000
    N13      N        0.54160    0.07940    0.39016    1.000
    N14      N        0.88920    0.08810    0.39110    1.000
    N15      N        0.73070    0.88590    0.21442    1.000
    N16      N        0.71500    0.05440    0.36244    1.000
    N17      N        0.75900    0.01480    0.31821    1.000
    N18      N        0.67450    0.01250    0.31676    1.000
    N19      N        0.45200    0.41770    0.54972    1.000
    N20      N        0.29920    0.39020    0.35537    1.000
    N21      N        0.44940    0.97860    0.42101    1.000
    N22      N        0.38920    0.50110    0.44617    1.000
    N23      N        0.38090    0.64460    0.41719    1.000
    N24      N        0.42490    0.64760    0.46277    1.000
    Zn7      Zn       0.97788    0.38888    0.58977    1.000
    Zn8      Zn       0.45363    0.36352    0.59304    1.000
    Zn9      Zn       0.23927    0.69089    0.82454    1.000
    I13      I        0.99348    0.30378    0.53897    1.000
    I14      I        0.92910    0.31224    0.63153    1.000
    I15      I        0.44337    0.18203    0.59175    1.000
    I16      I        0.51826    0.45110    0.62287    1.000
    I17      I        0.32735    0.69159    0.83755    1.000
    I18      I        0.19662    0.85164    0.81797    1.000
    C73      C        0.08310    0.41260    0.59449    1.000
    H49      H        0.08230    0.39720    0.57350    1.000
    C74      C        0.12710    0.42620    0.60843    1.000
    H50      H        0.15570    0.42000    0.59710    1.000
    C75      C        0.12870    0.44890    0.63893    1.000
    C76      C        0.08670    0.45800    0.65454    1.000
    H51      H        0.08700    0.47410    0.67550    1.000
    C77      C        0.04410    0.44360    0.63970    1.000
    H52      H        0.01540    0.45000    0.65090    1.000
    C78      C        0.18790    0.61280    0.77080    1.000
    H53      H        0.16120    0.64090    0.78050    1.000
    C79      C        0.18210    0.57290    0.74274    1.000
    H54      H        0.15150    0.57150    0.73360    1.000
    C80      C        0.22130    0.53370    0.72727    1.000
    C81      C        0.26460    0.53260    0.74248    1.000
    H55      H        0.29180    0.50450    0.73330    1.000
    C82      C        0.26780    0.57290    0.77118    1.000
    H56      H        0.29760    0.57150    0.78120    1.000
    C83      C        0.38630    0.44070    0.63771    1.000
    H57      H        0.41510    0.45000    0.64860    1.000
    C84      C        0.34390    0.45780    0.65268    1.000
    H58      H        0.34350    0.47730    0.67340    1.000
    C85      C        0.30180    0.44550    0.63641    1.000
    C86      C        0.30380    0.41960    0.60607    1.000
    H59      H        0.27570    0.41330    0.59430    1.000
    C87      C        0.34820    0.40310    0.59330    1.000
    H60      H        0.34970    0.38470    0.57250    1.000
    C88      C        0.17600    0.46200    0.65468    1.000
    C89      C        0.25500    0.45920    0.65233    1.000
    C90      C        0.21830    0.49870    0.69589    1.000
    C91      C        0.93340    0.13410    0.47358    1.000
    H61      H        0.92750    0.20090    0.47080    1.000
    C92      C        0.92280    0.09260    0.50096    1.000
    H62      H        0.91080    0.13130    0.51700    1.000
    C93      C        0.92950    0.99540    0.50563    1.000
    C94      C        0.94970    0.94250    0.48147    1.000
    H63      H        0.95560    0.87550    0.48360    1.000
    C95      C        0.96060    0.98870    0.45514    1.000
    H64      H        0.97510    0.95260    0.43930    1.000
    C96      C        0.95750    0.56180    0.55120    1.000
    H65      H        0.97300    0.52500    0.53600    1.000
    C97      C        0.94350    0.65550    0.54471    1.000
    H66      H        0.94950    0.68250    0.52530    1.000
    C98      C        0.92040    0.71000    0.56713    1.000
    C99      C        0.91190    0.66700    0.59543    1.000
    H67      H        0.89510    0.70080    0.61080    1.000
    C100     C        0.92830    0.57450    0.60048    1.000
    H68      H        0.92430    0.54730    0.62010    1.000
    C101     C        0.79880    0.01440    0.64586    1.000
    H69      H        0.78170    0.98310    0.66160    1.000
    C102     C        0.82300    0.95940    0.62447    1.000
    H70      H        0.82300    0.89120    0.62580    1.000
    C103     C        0.84710    0.00500    0.60129    1.000
    C104     C        0.84760    0.10510    0.60100    1.000
    H71      H        0.86420    0.13910    0.58560    1.000
    C105     C        0.82380    0.15350    0.62310    1.000
    H72      H        0.82510    0.22180    0.62320    1.000
    C106     C        0.91370    0.94710    0.53381    1.000
    C107     C        0.87370    0.94870    0.57762    1.000
    C108     C        0.90750    0.81140    0.56194    1.000
    N25      N        0.04160    0.42060    0.60984    1.000
    N26      N        0.38920    0.41190    0.60890    1.000
    N27      N        0.23070    0.61410    0.78558    1.000
    N28      N        0.21500    0.44560    0.63756    1.000
    N29      N        0.25900    0.48520    0.68179    1.000
    N30      N        0.17450    0.48750    0.68324    1.000
    N31      N        0.95200    0.08230    0.45028    1.000
    N32      N        0.79920    0.10980    0.64463    1.000
    N33      N        0.94940    0.52140    0.57899    1.000
    N34      N        0.88920    0.99890    0.55383    1.000
    N35      N        0.88090    0.85540    0.58281    1.000
    N36      N        0.92490    0.85240    0.53723    1.000
    Zn10     Zn       0.52212    0.61112    0.08977    1.000
    Zn11     Zn       0.04637    0.63648    0.09304    1.000
    Zn12     Zn       0.26073    0.30911    0.32454    1.000
    I19      I        0.50652    0.69622    0.03897    1.000
    I20      I        0.57090    0.68776    0.13153    1.000
    I21      I        0.05663    0.81797    0.09175    1.000
    I22      I        0.98174    0.54890    0.12287    1.000
    I23      I        0.17265    0.30841    0.33755    1.000
    I24      I        0.30338    0.14836    0.31797    1.000
    C109     C        0.41690    0.58740    0.09449    1.000
    H73      H        0.41770    0.60280    0.07350    1.000
    C110     C        0.37290    0.57380    0.10843    1.000
    H74      H        0.34430    0.58000    0.09710    1.000
    C111     C        0.37130    0.55110    0.13893    1.000
    C112     C        0.41330    0.54200    0.15454    1.000
    H75      H        0.41300    0.52590    0.17550    1.000
    C113     C        0.45590    0.55640    0.13970    1.000
    H76      H        0.48460    0.55000    0.15090    1.000
    C114     C        0.31210    0.38720    0.27080    1.000
    H77      H        0.33880    0.35910    0.28050    1.000
    C115     C        0.31790    0.42710    0.24274    1.000
    H78      H        0.34850    0.42850    0.23360    1.000
    C116     C        0.27870    0.46630    0.22727    1.000
    C117     C        0.23540    0.46740    0.24248    1.000
    H79      H        0.20820    0.49550    0.23330    1.000
    C118     C        0.23220    0.42710    0.27118    1.000
    H80      H        0.20240    0.42850    0.28120    1.000
    C119     C        0.11370    0.55930    0.13771    1.000
    H81      H        0.08490    0.55000    0.14860    1.000
    C120     C        0.15610    0.54220    0.15268    1.000
    H82      H        0.15650    0.52270    0.17340    1.000
    C121     C        0.19820    0.55450    0.13641    1.000
    C122     C        0.19620    0.58040    0.10607    1.000
    H83      H        0.22430    0.58670    0.09430    1.000
    C123     C        0.15180    0.59690    0.09330    1.000
    H84      H        0.15030    0.61530    0.07250    1.000
    C124     C        0.32400    0.53800    0.15468    1.000
    C125     C        0.24500    0.54080    0.15233    1.000
    C126     C        0.28170    0.50130    0.19589    1.000
    C127     C        0.56660    0.86590    0.97358    1.000
    H85      H        0.57250    0.79910    0.97080    1.000
    C128     C        0.57720    0.90740    0.00096    1.000
    H86      H        0.58920    0.86870    0.01700    1.000
    C129     C        0.57050    0.00460    0.00563    1.000
    C130     C        0.55030    0.05750    0.98147    1.000
    H87      H        0.54440    0.12450    0.98360    1.000
    C131     C        0.53940    0.01130    0.95514    1.000
    H88      H        0.52490    0.04740    0.93930    1.000
    C132     C        0.54250    0.43820    0.05120    1.000
    H89      H        0.52700    0.47500    0.03600    1.000
    C133     C        0.55650    0.34450    0.04471    1.000
    H90      H        0.55050    0.31750    0.02530    1.000
    C134     C        0.57960    0.29000    0.06713    1.000
    C135     C        0.58810    0.33300    0.09543    1.000
    H91      H        0.60490    0.29920    0.11080    1.000
    C136     C        0.57170    0.42550    0.10048    1.000
    H92      H        0.57570    0.45270    0.12010    1.000
    C137     C        0.70120    0.98560    0.14586    1.000
    H93      H        0.71830    0.01690    0.16160    1.000
    C138     C        0.67700    0.04060    0.12447    1.000
    H94      H        0.67700    0.10880    0.12580    1.000
    C139     C        0.65290    0.99500    0.10129    1.000
    C140     C        0.65240    0.89490    0.10100    1.000
    H95      H        0.63580    0.86090    0.08560    1.000
    C141     C        0.67620    0.84650    0.12310    1.000
    H96      H        0.67490    0.77820    0.12320    1.000
    C142     C        0.58630    0.05290    0.03381    1.000
    C143     C        0.62630    0.05130    0.07762    1.000
    C144     C        0.59250    0.18860    0.06194    1.000
    N37      N        0.45840    0.57940    0.10984    1.000
    N38      N        0.11080    0.58810    0.10890    1.000
    N39      N        0.26930    0.38590    0.28558    1.000
    N40      N        0.28500    0.55440    0.13756    1.000
    N41      N        0.24100    0.51480    0.18179    1.000
    N42      N        0.32550    0.51250    0.18324    1.000
    N43      N        0.54800    0.91770    0.95028    1.000
    N44      N        0.70080    0.89020    0.14463    1.000
    N45      N        0.55060    0.47860    0.07899    1.000
    N46      N        0.61080    0.00110    0.05383    1.000
    N47      N        0.61910    0.14460    0.08281    1.000
    N48      N        0.57510    0.14760    0.03723    1.000
    Zn13     Zn       0.97788    0.11112    0.08977    1.000
    Zn14     Zn       0.45363    0.13648    0.09304    1.000
    Zn15     Zn       0.23927    0.80911    0.32454    1.000
    I25      I        0.99348    0.19622    0.03897    1.000
    I26      I        0.92910    0.18776    0.13153    1.000
    I27      I        0.44337    0.31797    0.09175    1.000
    I28      I        0.51826    0.04890    0.12287    1.000
    I29      I        0.32735    0.80841    0.33755    1.000
    I30      I        0.19662    0.64836    0.31797    1.000
    C145     C        0.08310    0.08740    0.09449    1.000
    H97      H        0.08230    0.10280    0.07350    1.000
    C146     C        0.12710    0.07380    0.10843    1.000
    H98      H        0.15570    0.08000    0.09710    1.000
    C147     C        0.12870    0.05110    0.13893    1.000
    C148     C        0.08670    0.04200    0.15454    1.000
    H99      H        0.08700    0.02590    0.17550    1.000
    C149     C        0.04410    0.05640    0.13970    1.000
    H100     H        0.01540    0.05000    0.15090    1.000
    C150     C        0.18790    0.88720    0.27080    1.000
    H101     H        0.16120    0.85910    0.28050    1.000
    C151     C        0.18210    0.92710    0.24274    1.000
    H102     H        0.15150    0.92850    0.23360    1.000
    C152     C        0.22130    0.96630    0.22727    1.000
    C153     C        0.26460    0.96740    0.24248    1.000
    H103     H        0.29180    0.99550    0.23330    1.000
    C154     C        0.26780    0.92710    0.27118    1.000
    H104     H        0.29760    0.92850    0.28120    1.000
    C155     C        0.38630    0.05930    0.13771    1.000
    H105     H        0.41510    0.05000    0.14860    1.000
    C156     C        0.34390    0.04220    0.15268    1.000
    H106     H        0.34350    0.02270    0.17340    1.000
    C157     C        0.30180    0.05450    0.13641    1.000
    C158     C        0.30380    0.08040    0.10607    1.000
    H107     H        0.27570    0.08670    0.09430    1.000
    C159     C        0.34820    0.09690    0.09330    1.000
    H108     H        0.34970    0.11530    0.07250    1.000
    C160     C        0.17600    0.03800    0.15468    1.000
    C161     C        0.25500    0.04080    0.15233    1.000
    C162     C        0.21830    0.00130    0.19589    1.000
    C163     C        0.93340    0.36590    0.97358    1.000
    H109     H        0.92750    0.29910    0.97080    1.000
    C164     C        0.92280    0.40740    0.00096    1.000
    H110     H        0.91080    0.36870    0.01700    1.000
    C165     C        0.92950    0.50460    0.00563    1.000
    C166     C        0.94970    0.55750    0.98147    1.000
    H111     H        0.95560    0.62450    0.98360    1.000
    C167     C        0.96060    0.51130    0.95514    1.000
    H112     H        0.97510    0.54740    0.93930    1.000
    C168     C        0.95750    0.93820    0.05120    1.000
    H113     H        0.97300    0.97500    0.03600    1.000
    C169     C        0.94350    0.84450    0.04471    1.000
    H114     H        0.94950    0.81750    0.02530    1.000
    C170     C        0.92040    0.79000    0.06713    1.000
    C171     C        0.91190    0.83300    0.09543    1.000
    H115     H        0.89510    0.79920    0.11080    1.000
    C172     C        0.92830    0.92550    0.10048    1.000
    H116     H        0.92430    0.95270    0.12010    1.000
    C173     C        0.79880    0.48560    0.14586    1.000
    H117     H        0.78170    0.51690    0.16160    1.000
    C174     C        0.82300    0.54060    0.12447    1.000
    H118     H        0.82300    0.60880    0.12580    1.000
    C175     C        0.84710    0.49500    0.10129    1.000
    C176     C        0.84760    0.39490    0.10100    1.000
    H119     H        0.86420    0.36090    0.08560    1.000
    C177     C        0.82380    0.34650    0.12310    1.000
    H120     H        0.82510    0.27820    0.12320    1.000
    C178     C        0.91370    0.55290    0.03381    1.000
    C179     C        0.87370    0.55130    0.07762    1.000
    C180     C        0.90750    0.68860    0.06194    1.000
    N49      N        0.04160    0.07940    0.10984    1.000
    N50      N        0.38920    0.08810    0.10890    1.000
    N51      N        0.23070    0.88590    0.28558    1.000
    N52      N        0.21500    0.05440    0.13756    1.000
    N53      N        0.25900    0.01480    0.18179    1.000
    N54      N        0.17450    0.01250    0.18324    1.000
    N55      N        0.95200    0.41770    0.95028    1.000
    N56      N        0.79920    0.39020    0.14463    1.000
    N57      N        0.94940    0.97860    0.07899    1.000
    N58      N        0.88920    0.50110    0.05383    1.000
    N59      N        0.88090    0.64460    0.08281    1.000
    N60      N        0.92490    0.64760    0.03723    1.000
    Zn16     Zn       0.52212    0.88888    0.58977    1.000
    Zn17     Zn       0.04637    0.86352    0.59304    1.000
    Zn18     Zn       0.26073    0.19089    0.82454    1.000
    I31      I        0.50652    0.80378    0.53897    1.000
    I32      I        0.57090    0.81224    0.63153    1.000
    I33      I        0.05663    0.68203    0.59175    1.000
    I34      I        0.98174    0.95110    0.62287    1.000
    I35      I        0.17265    0.19159    0.83755    1.000
    I36      I        0.30338    0.35164    0.81797    1.000
    C181     C        0.41690    0.91260    0.59449    1.000
    H121     H        0.41770    0.89720    0.57350    1.000
    C182     C        0.37290    0.92620    0.60843    1.000
    H122     H        0.34430    0.92000    0.59710    1.000
    C183     C        0.37130    0.94890    0.63893    1.000
    C184     C        0.41330    0.95800    0.65454    1.000
    H123     H        0.41300    0.97410    0.67550    1.000
    C185     C        0.45590    0.94360    0.63970    1.000
    H124     H        0.48460    0.95000    0.65090    1.000
    C186     C        0.31210    0.11280    0.77080    1.000
    H125     H        0.33880    0.14090    0.78050    1.000
    C187     C        0.31790    0.07290    0.74274    1.000
    H126     H        0.34850    0.07150    0.73360    1.000
    C188     C        0.27870    0.03370    0.72727    1.000
    C189     C        0.23540    0.03260    0.74248    1.000
    H127     H        0.20820    0.00450    0.73330    1.000
    C190     C        0.23220    0.07290    0.77118    1.000
    H128     H        0.20240    0.07150    0.78120    1.000
    C191     C        0.11370    0.94070    0.63771    1.000
    H129     H        0.08490    0.95000    0.64860    1.000
    C192     C        0.15610    0.95780    0.65268    1.000
    H130     H        0.15650    0.97730    0.67340    1.000
    C193     C        0.19820    0.94550    0.63641    1.000
    C194     C        0.19620    0.91960    0.60607    1.000
    H131     H        0.22430    0.91330    0.59430    1.000
    C195     C        0.15180    0.90310    0.59330    1.000
    H132     H        0.15030    0.88470    0.57250    1.000
    C196     C        0.32400    0.96200    0.65468    1.000
    C197     C        0.24500    0.95920    0.65233    1.000
    C198     C        0.28170    0.99870    0.69589    1.000
    C199     C        0.56660    0.63410    0.47358    1.000
    H133     H        0.57250    0.70090    0.47080    1.000
    C200     C        0.57720    0.59260    0.50096    1.000
    H134     H        0.58920    0.63130    0.51700    1.000
    C201     C        0.57050    0.49540    0.50563    1.000
    C202     C        0.55030    0.44250    0.48147    1.000
    H135     H        0.54440    0.37550    0.48360    1.000
    C203     C        0.53940    0.48870    0.45514    1.000
    H136     H        0.52490    0.45260    0.43930    1.000
    C204     C        0.54250    0.06180    0.55120    1.000
    H137     H        0.52700    0.02500    0.53600    1.000
    C205     C        0.55650    0.15550    0.54471    1.000
    H138     H        0.55050    0.18250    0.52530    1.000
    C206     C        0.57960    0.21000    0.56713    1.000
    C207     C        0.58810    0.16700    0.59543    1.000
    H139     H        0.60490    0.20080    0.61080    1.000
    C208     C        0.57170    0.07450    0.60048    1.000
    H140     H        0.57570    0.04730    0.62010    1.000
    C209     C        0.70120    0.51440    0.64586    1.000
    H141     H        0.71830    0.48310    0.66160    1.000
    C210     C        0.67700    0.45940    0.62447    1.000
    H142     H        0.67700    0.39120    0.62580    1.000
    C211     C        0.65290    0.50500    0.60129    1.000
    C212     C        0.65240    0.60510    0.60100    1.000
    H143     H        0.63580    0.63910    0.58560    1.000
    C213     C        0.67620    0.65350    0.62310    1.000
    H144     H        0.67490    0.72180    0.62320    1.000
    C214     C        0.58630    0.44710    0.53381    1.000
    C215     C        0.62630    0.44870    0.57762    1.000
    C216     C        0.59250    0.31140    0.56194    1.000
    N61      N        0.45840    0.92060    0.60984    1.000
    N62      N        0.11080    0.91190    0.60890    1.000
    N63      N        0.26930    0.11410    0.78558    1.000
    N64      N        0.28500    0.94560    0.63756    1.000
    N65      N        0.24100    0.98520    0.68179    1.000
    N66      N        0.32550    0.98750    0.68324    1.000
    N67      N        0.54800    0.58230    0.45028    1.000
    N68      N        0.70080    0.60980    0.64463    1.000
    N69      N        0.55060    0.02140    0.57899    1.000
    N70      N        0.61080    0.49890    0.55383    1.000
    N71      N        0.61910    0.35540    0.58281    1.000
    N72      N        0.57510    0.35240    0.53723    1.000
    Zn19     Zn       0.02212    0.61112    0.41023    1.000
    Zn20     Zn       0.54637    0.63648    0.40696    1.000
    Zn21     Zn       0.76073    0.30911    0.17546    1.000
    I37      I        0.00652    0.69622    0.46103    1.000
    I38      I        0.07090    0.68776    0.36847    1.000
    I39      I        0.55663    0.81797    0.40825    1.000
    I40      I        0.48174    0.54890    0.37713    1.000
    I41      I        0.67265    0.30841    0.16245    1.000
    I42      I        0.80338    0.14836    0.18203    1.000
    C217     C        0.91690    0.58740    0.40551    1.000
    H145     H        0.91770    0.60280    0.42650    1.000
    C218     C        0.87290    0.57380    0.39157    1.000
    H146     H        0.84430    0.58000    0.40290    1.000
    C219     C        0.87130    0.55110    0.36107    1.000
    C220     C        0.91330    0.54200    0.34546    1.000
    H147     H        0.91300    0.52590    0.32450    1.000
    C221     C        0.95590    0.55640    0.36030    1.000
    H148     H        0.98460    0.55000    0.34910    1.000
    C222     C        0.81210    0.38720    0.22920    1.000
    H149     H        0.83880    0.35910    0.21950    1.000
    C223     C        0.81790    0.42710    0.25726    1.000
    H150     H        0.84850    0.42850    0.26640    1.000
    C224     C        0.77870    0.46630    0.27273    1.000
    C225     C        0.73540    0.46740    0.25752    1.000
    H151     H        0.70820    0.49550    0.26670    1.000
    C226     C        0.73220    0.42710    0.22882    1.000
    H152     H        0.70240    0.42850    0.21880    1.000
    C227     C        0.61370    0.55930    0.36229    1.000
    H153     H        0.58490    0.55000    0.35140    1.000
    C228     C        0.65610    0.54220    0.34732    1.000
    H154     H        0.65650    0.52270    0.32660    1.000
    C229     C        0.69820    0.55450    0.36359    1.000
    C230     C        0.69620    0.58040    0.39393    1.000
    H155     H        0.72430    0.58670    0.40570    1.000
    C231     C        0.65180    0.59690    0.40670    1.000
    H156     H        0.65030    0.61530    0.42750    1.000
    C232     C        0.82400    0.53800    0.34532    1.000
    C233     C        0.74500    0.54080    0.34767    1.000
    C234     C        0.78170    0.50130    0.30411    1.000
    C235     C        0.06660    0.86590    0.52642    1.000
    H157     H        0.07250    0.79910    0.52920    1.000
    C236     C        0.07720    0.90740    0.49904    1.000
    H158     H        0.08920    0.86870    0.48300    1.000
    C237     C        0.07050    0.00460    0.49437    1.000
    C238     C        0.05030    0.05750    0.51853    1.000
    H159     H        0.04440    0.12450    0.51640    1.000
    C239     C        0.03940    0.01130    0.54486    1.000
    H160     H        0.02490    0.04740    0.56070    1.000
    C240     C        0.04250    0.43820    0.44880    1.000
    H161     H        0.02700    0.47500    0.46400    1.000
    C241     C        0.05650    0.34450    0.45529    1.000
    H162     H        0.05050    0.31750    0.47470    1.000
    C242     C        0.07960    0.29000    0.43287    1.000
    C243     C        0.08810    0.33300    0.40457    1.000
    H163     H        0.10490    0.29920    0.38920    1.000
    C244     C        0.07170    0.42550    0.39952    1.000
    H164     H        0.07570    0.45270    0.37990    1.000
    C245     C        0.20120    0.98560    0.35414    1.000
    H165     H        0.21830    0.01690    0.33840    1.000
    C246     C        0.17700    0.04060    0.37553    1.000
    H166     H        0.17700    0.10880    0.37420    1.000
    C247     C        0.15290    0.99500    0.39871    1.000
    C248     C        0.15240    0.89490    0.39900    1.000
    H167     H        0.13580    0.86090    0.41440    1.000
    C249     C        0.17620    0.84650    0.37690    1.000
    H168     H        0.17490    0.77820    0.37680    1.000
    C250     C        0.08630    0.05290    0.46619    1.000
    C251     C        0.12630    0.05130    0.42238    1.000
    C252     C        0.09250    0.18860    0.43806    1.000
    N73      N        0.95840    0.57940    0.39016    1.000
    N74      N        0.61080    0.58810    0.39110    1.000
    N75      N        0.76930    0.38590    0.21442    1.000
    N76      N        0.78500    0.55440    0.36244    1.000
    N77      N        0.74100    0.51480    0.31821    1.000
    N78      N        0.82550    0.51250    0.31676    1.000
    N79      N        0.04800    0.91770    0.54972    1.000
    N80      N        0.20080    0.89020    0.35537    1.000
    N81      N        0.05060    0.47860    0.42101    1.000
    N82      N        0.11080    0.00110    0.44617    1.000
    N83      N        0.11910    0.14460    0.41719    1.000
    N84      N        0.07510    0.14760    0.46277    1.000
    Zn22     Zn       0.47788    0.38888    0.91023    1.000
    Zn23     Zn       0.95363    0.36352    0.90696    1.000
    Zn24     Zn       0.73927    0.69089    0.67546    1.000
    I43      I        0.49348    0.30378    0.96103    1.000
    I44      I        0.42910    0.31224    0.86847    1.000
    I45      I        0.94337    0.18203    0.90825    1.000
    I46      I        0.01826    0.45110    0.87713    1.000
    I47      I        0.82735    0.69159    0.66245    1.000
    I48      I        0.69662    0.85164    0.68203    1.000
    C253     C        0.58310    0.41260    0.90551    1.000
    H169     H        0.58230    0.39720    0.92650    1.000
    C254     C        0.62710    0.42620    0.89157    1.000
    H170     H        0.65570    0.42000    0.90290    1.000
    C255     C        0.62870    0.44890    0.86107    1.000
    C256     C        0.58670    0.45800    0.84546    1.000
    H171     H        0.58700    0.47410    0.82450    1.000
    C257     C        0.54410    0.44360    0.86030    1.000
    H172     H        0.51540    0.45000    0.84910    1.000
    C258     C        0.68790    0.61280    0.72920    1.000
    H173     H        0.66120    0.64090    0.71950    1.000
    C259     C        0.68210    0.57290    0.75726    1.000
    H174     H        0.65150    0.57150    0.76640    1.000
    C260     C        0.72130    0.53370    0.77273    1.000
    C261     C        0.76460    0.53260    0.75752    1.000
    H175     H        0.79180    0.50450    0.76670    1.000
    C262     C        0.76780    0.57290    0.72882    1.000
    H176     H        0.79760    0.57150    0.71880    1.000
    C263     C        0.88630    0.44070    0.86229    1.000
    H177     H        0.91510    0.45000    0.85140    1.000
    C264     C        0.84390    0.45780    0.84732    1.000
    H178     H        0.84350    0.47730    0.82660    1.000
    C265     C        0.80180    0.44550    0.86359    1.000
    C266     C        0.80380    0.41960    0.89393    1.000
    H179     H        0.77570    0.41330    0.90570    1.000
    C267     C        0.84820    0.40310    0.90670    1.000
    H180     H        0.84970    0.38470    0.92750    1.000
    C268     C        0.67600    0.46200    0.84532    1.000
    C269     C        0.75500    0.45920    0.84767    1.000
    C270     C        0.71830    0.49870    0.80411    1.000
    C271     C        0.43340    0.13410    0.02642    1.000
    H181     H        0.42750    0.20090    0.02920    1.000
    C272     C        0.42280    0.09260    0.99904    1.000
    H182     H        0.41080    0.13130    0.98300    1.000
    C273     C        0.42950    0.99540    0.99437    1.000
    C274     C        0.44970    0.94250    0.01853    1.000
    H183     H        0.45560    0.87550    0.01640    1.000
    C275     C        0.46060    0.98870    0.04486    1.000
    H184     H        0.47510    0.95260    0.06070    1.000
    C276     C        0.45750    0.56180    0.94880    1.000
    H185     H        0.47300    0.52500    0.96400    1.000
    C277     C        0.44350    0.65550    0.95529    1.000
    H186     H        0.44950    0.68250    0.97470    1.000
    C278     C        0.42040    0.71000    0.93287    1.000
    C279     C        0.41190    0.66700    0.90457    1.000
    H187     H        0.39510    0.70080    0.88920    1.000
    C280     C        0.42830    0.57450    0.89952    1.000
    H188     H        0.42430    0.54730    0.87990    1.000
    C281     C        0.29880    0.01440    0.85414    1.000
    H189     H        0.28170    0.98310    0.83840    1.000
    C282     C        0.32300    0.95940    0.87553    1.000
    H190     H        0.32300    0.89120    0.87420    1.000
    C283     C        0.34710    0.00500    0.89871    1.000
    C284     C        0.34760    0.10510    0.89900    1.000
    H191     H        0.36420    0.13910    0.91440    1.000
    C285     C        0.32380    0.15350    0.87690    1.000
    H192     H        0.32510    0.22180    0.87680    1.000
    C286     C        0.41370    0.94710    0.96619    1.000
    C287     C        0.37370    0.94870    0.92238    1.000
    C288     C        0.40750    0.81140    0.93806    1.000
    N85      N        0.54160    0.42060    0.89016    1.000
    N86      N        0.88920    0.41190    0.89110    1.000
    N87      N        0.73070    0.61410    0.71442    1.000
    N88      N        0.71500    0.44560    0.86244    1.000
    N89      N        0.75900    0.48520    0.81821    1.000
    N90      N        0.67450    0.48750    0.81676    1.000
    N91      N        0.45200    0.08230    0.04972    1.000
    N92      N        0.29920    0.10980    0.85537    1.000
    N93      N        0.44940    0.52140    0.92101    1.000
    N94      N        0.38920    0.99890    0.94617    1.000
    N95      N        0.38090    0.85540    0.91719    1.000
    N96      N        0.42490    0.85240    0.96277    1.000
