# CIF file generated by openbabel 3.1.0, see https://openbabel.org
data_I
_chemical_name_common 'QOCSAD_clean'
_cell_length_a 9.8555
_cell_length_b 10.705
_cell_length_c 11.106
_cell_angle_alpha 62.947
_cell_angle_beta 65.653
_cell_angle_gamma 66.647
_space_group_name_H-M_alt 'P 1'
_space_group_name_Hall 'P 1'
loop_
    _symmetry_equiv_pos_as_xyz
    x,y,z
loop_
    _atom_site_label
    _atom_site_type_symbol
    _atom_site_fract_x
    _atom_site_fract_y
    _atom_site_fract_z
    _atom_site_occupancy
    Ce1      Ce       0.78301    0.50930    0.51034    1.000
    Ce2      Ce       0.21699    0.49070    0.48966    1.000
    H1       H        0.02530    0.10630    0.33220    1.000
    H2       H        0.17930    0.87270    0.34040    1.000
    H3       H        0.78510    0.10320    0.91540    1.000
    H4       H        0.20430    0.10990    0.88860    1.000
    H5       H        0.35060    0.17990    0.40550    1.000
    H6       H        0.50410    0.94580    0.41410    1.000
    H7       H        0.97470    0.89370    0.66780    1.000
    H8       H        0.82070    0.12730    0.65960    1.000
    H9       H        0.21490    0.89680    0.08460    1.000
    H10      H        0.79570    0.89010    0.11140    1.000
    H11      H        0.64940    0.82010    0.59450    1.000
    H12      H        0.49590    0.05420    0.58590    1.000
    C1       C        0.98590    0.26460    0.75640    1.000
    C2       C        0.12100    0.07270    0.35250    1.000
    C3       C        0.21320    0.93380    0.35670    1.000
    C4       C        0.35390    0.88400    0.38460    1.000
    C5       C        0.16800    0.16190    0.37760    1.000
    C6       C        0.99310    0.12630    0.88220    1.000
    C7       C        0.87290    0.06100    0.94960    1.000
    C8       C        0.12150    0.06520    0.93360    1.000
    C9       C        0.31360    0.11620    0.39590    1.000
    C10      C        0.40530    0.97700    0.40030    1.000
    C11      C        0.05960    0.30230    0.39180    1.000
    C12      C        0.55470    0.27090    0.59530    1.000
    C13      C        0.01410    0.73540    0.24360    1.000
    C14      C        0.87900    0.92730    0.64750    1.000
    C15      C        0.78680    0.06620    0.64330    1.000
    C16      C        0.64610    0.11600    0.61540    1.000
    C17      C        0.83200    0.83810    0.62240    1.000
    C18      C        0.00690    0.87370    0.11780    1.000
    C19      C        0.12710    0.93900    0.05040    1.000
    C20      C        0.87850    0.93480    0.06640    1.000
    C21      C        0.68640    0.88380    0.60410    1.000
    C22      C        0.59470    0.02300    0.59970    1.000
    C23      C        0.94040    0.69770    0.60820    1.000
    C24      C        0.44530    0.72910    0.40470    1.000
    O1       O        0.42180    0.30600    0.58570    1.000
    O2       O        0.61340    0.35650    0.59330    1.000
    O3       O        0.92960    0.34010    0.37350    1.000
    O4       O        0.09670    0.37710    0.42910    1.000
    O5       O        0.87530    0.30810    0.70710    1.000
    O6       O        0.09250    0.32520    0.70930    1.000
    O7       O        0.57820    0.69400    0.41430    1.000
    O8       O        0.38660    0.64350    0.40670    1.000
    O9       O        0.07040    0.65990    0.62650    1.000
    O10      O        0.90330    0.62290    0.57090    1.000
    O11      O        0.12470    0.69190    0.29290    1.000
    O12      O        0.90750    0.67480    0.29070    1.000
