data_functionalizedCrystal
_audit_creation_method	'EQeq! by Chris Wilmer'
_symmetry_space_group_name_H-M	'P1'
_symmetry_Int_Tables_number	1
_symmetry_cell_setting	triclinic
loop_
_symmetry_equiv_pos_as_xyz
  x,y,z
_cell_length_a	11.815
_cell_length_b	12.816
_cell_length_c	20.109
_cell_angle_alpha	90
_cell_angle_beta	96.715
_cell_angle_gamma	90
loop_
_atom_site_label
_atom_site_type_symbol
_atom_site_fract_x
_atom_site_fract_y
_atom_site_fract_z
_atom_site_charge
Mof_Ag	Ag	0.22082	0.60887	0.3208	0.339
Mof_Ag	Ag	0.33388	0.4136	0.27481	0.217
Mof_Ag	Ag	0.3395	0.432	0.276	0.251
Mof_Ag	Ag	0.09313	0.41805	0.28149	0.632
Mof_Ag	Ag	0.31193	0.67784	0.19963	0.213
Mof_Ag	Ag	0.3249	0.667	0.1934	0.169
Mof_Ag	Ag	0.07257	0.6763	0.2009	0.459
Mof_C 	C 	0.1933	0.5394	0.22091	0.041
Mof_C 	C 	0.1789	0.4782	0.1752	-0.99
Mof_C 	C 	0.1593	0.4139	0.1121	2.939
Mof_C 	C 	0.0388	0.3858	0.0995	-4.007
Mof_H 	H 	0.9932	0.448	0.097	1.199
Mof_H 	H 	0.0187	0.3424	0.1352	1.226
Mof_H 	H 	0.0253	0.3486	0.0579	1.205
Mof_C 	C 	0.1974	0.4836	0.0573	-3.438
Mof_H 	H 	0.1519	0.5459	0.0535	0.998
Mof_H 	H 	0.1882	0.4468	0.0154	1.015
Mof_H 	H 	0.2761	0.502	0.0685	1.033
Mof_C 	C 	0.2329	0.3193	0.1146	-3.888
Mof_H 	H 	0.2125	0.2729	0.1488	1.229
Mof_H 	H 	0.3113	0.3394	0.1245	1.201
Mof_H 	H 	0.2222	0.2845	0.072	1.226
Mof_O 	O 	0.2849	0.8581	0.21016	-0.238
Mof_O 	O 	0.0991	0.8584	0.219	-0.361
Mof_O 	O 	0.1129	0.2335	0.28075	-0.366
Mof_O 	O 	0.3009	0.2329	0.28024	-0.263
Mof_C 	C 	0.193	0.9004	0.2144	0.31
Mof_C 	C 	0.1931	0.022	0.2143	0.393
Mof_C 	C 	0.2078	0.0705	0.28434	0.395
Mof_C 	C 	0.2076	0.1909	0.28258	0.255
Mof_F 	F 	0.2775	0.05828	0.18072	-0.399
Mof_F 	F 	0.0933	0.05934	0.18207	-0.464
Mof_F 	F 	0.3052	0.03333	0.31725	-0.434
Mof_F 	F 	0.1218	0.03394	0.31742	-0.533
Mof_O 	O 	0.101	0.4107	0.39854	-0.272
Mof_O 	O 	0.1526	0.5767	0.42174	-0.243
Mof_C 	C 	0.1117	0.4907	0.43403	0.303
Mof_C 	C 	0.0625	0.483	0.50227	0.413
Mof_F 	F 	0.0697	0.38432	0.52519	-0.457
Mof_F 	F 	0.1236	0.5435	0.54863	-0.385
Mof_O 	O 	0.446	0.407	0.37921	-0.225
Mof_O 	O 	0.4275	0.5795	0.37663	-0.23
Mof_C 	C 	0.4637	0.496	0.4014	0.286
Mof_C 	C 	0.5358	0.5029	0.4708	0.42
Mof_F 	F 	0.5945	0.5931	0.4759	-0.413
Mof_F 	F 	0.613	0.4265	0.4781	-0.399
Mof_O 	O 	0.4963	0.6516	0.2525	-0.143
Mof_O 	O 	0.4993	0.4106	0.2185	-0.175
Mof_Ag	Ag	0.77918	0.10887	0.1792	0.336
Mof_Ag	Ag	0.66612	0.9136	0.22519	0.226
Mof_Ag	Ag	0.6605	0.932	0.224	0.255
Mof_Ag	Ag	0.90687	0.91805	0.21851	0.653
Mof_Ag	Ag	0.68807	0.17784	0.30037	0.22
Mof_Ag	Ag	0.6751	0.167	0.3066	0.176
Mof_Ag	Ag	0.92743	0.1763	0.2991	0.462
Mof_C 	C 	0.8067	0.0394	0.27909	-0.025
Mof_C 	C 	0.8211	0.9782	0.3248	-0.881
Mof_C 	C 	0.8407	0.9139	0.3879	2.686
Mof_C 	C 	0.9612	0.8858	0.4005	-3.671
Mof_H 	H 	0.0068	0.948	0.403	1.095
Mof_H 	H 	0.9813	0.8424	0.3648	1.127
Mof_H 	H 	0.9747	0.8486	0.4421	1.111
Mof_C 	C 	0.8026	0.9836	0.4427	-3.107
Mof_H 	H 	0.8481	0.0459	0.4465	0.896
Mof_H 	H 	0.8118	0.9468	0.4846	0.925
Mof_H 	H 	0.7239	0.002	0.4315	0.93
Mof_C 	C 	0.7671	0.8193	0.3854	-3.611
Mof_H 	H 	0.7875	0.7729	0.3512	1.146
Mof_H 	H 	0.6887	0.8394	0.3755	1.12
Mof_H 	H 	0.7778	0.7845	0.428	1.147
Mof_O 	O 	0.7151	0.3581	0.28984	-0.24
Mof_O 	O 	0.9009	0.3584	0.281	-0.36
Mof_O 	O 	0.8871	0.7335	0.21925	-0.368
Mof_O 	O 	0.6991	0.7329	0.21976	-0.263
Mof_C 	C 	0.807	0.4004	0.2856	0.32
Mof_C 	C 	0.8069	0.522	0.2857	0.385
Mof_C 	C 	0.7922	0.5705	0.21566	0.398
Mof_C 	C 	0.7924	0.6909	0.21742	0.255
Mof_F 	F 	0.7225	0.55828	0.31928	-0.396
Mof_F 	F 	0.9067	0.55934	0.31793	-0.465
Mof_F 	F 	0.6948	0.53333	0.18275	-0.439
Mof_F 	F 	0.8782	0.53394	0.18258	-0.545
Mof_O 	O 	0.899	0.9107	0.10146	-0.28
Mof_O 	O 	0.8474	0.0767	0.07826	-0.263
Mof_C 	C 	0.8883	0.9907	0.06597	0.32
Mof_C 	C 	0.9375	0.983	0.99773	0.42
Mof_F 	F 	0.9303	0.88432	0.97481	-0.461
Mof_F 	F 	0.8764	0.0435	0.95137	-0.396
Mof_O 	O 	0.554	0.907	0.12079	-0.228
Mof_O 	O 	0.5725	0.0795	0.12337	-0.236
Mof_C 	C 	0.5363	0.996	0.0986	0.292
Mof_C 	C 	0.4642	0.0029	0.0292	0.417
Mof_F 	F 	0.4055	0.0931	0.0241	-0.415
Mof_F 	F 	0.387	0.9265	0.0219	-0.4
Mof_O 	O 	0.5037	0.1516	0.2475	-0.145
Mof_O 	O 	0.5007	0.9106	0.2815	-0.172
Mof_Ag	Ag	0.77918	0.39113	0.67919	0.341
Mof_Ag	Ag	0.66612	0.5864	0.72519	0.218
Mof_Ag	Ag	0.6605	0.568	0.724	0.252
Mof_Ag	Ag	0.90687	0.58195	0.71851	0.633
Mof_Ag	Ag	0.68807	0.32216	0.80037	0.214
Mof_Ag	Ag	0.6751	0.333	0.8066	0.17
Mof_Ag	Ag	0.92743	0.3237	0.7991	0.46
Mof_C 	C 	0.8067	0.4606	0.77909	0.042
Mof_C 	C 	0.8211	0.5218	0.8248	-0.989
Mof_C 	C 	0.8407	0.5861	0.8879	2.939
Mof_C 	C 	0.9612	0.6142	0.9005	-4.007
Mof_H 	H 	0.0068	0.552	0.903	1.199
Mof_H 	H 	0.9813	0.6576	0.8648	1.226
Mof_H 	H 	0.9747	0.6514	0.9421	1.205
Mof_C 	C 	0.8026	0.5164	0.9427	-3.438
Mof_H 	H 	0.8481	0.4541	0.9465	0.998
Mof_H 	H 	0.8118	0.5532	0.9846	1.015
Mof_H 	H 	0.7239	0.498	0.9315	1.033
Mof_C 	C 	0.7671	0.6807	0.8854	-3.888
Mof_H 	H 	0.7875	0.7271	0.8512	1.229
Mof_H 	H 	0.6887	0.6606	0.8755	1.201
Mof_H 	H 	0.7778	0.7155	0.928	1.226
Mof_O 	O 	0.7151	0.1419	0.78984	-0.238
Mof_O 	O 	0.9009	0.1416	0.781	-0.361
Mof_O 	O 	0.8871	0.7665	0.71925	-0.366
Mof_O 	O 	0.6991	0.7671	0.71976	-0.263
Mof_C 	C 	0.807	0.0996	0.7856	0.31
Mof_C 	C 	0.8069	0.978	0.7857	0.393
Mof_C 	C 	0.7922	0.9295	0.71566	0.395
Mof_C 	C 	0.7924	0.8091	0.71742	0.255
Mof_F 	F 	0.7225	0.94172	0.81928	-0.399
Mof_F 	F 	0.9067	0.94066	0.81793	-0.464
Mof_F 	F 	0.6948	0.96667	0.68275	-0.434
Mof_F 	F 	0.8782	0.96606	0.68258	-0.533
Mof_O 	O 	0.899	0.5893	0.60146	-0.272
Mof_O 	O 	0.8474	0.4233	0.57826	-0.243
Mof_C 	C 	0.8883	0.5093	0.56597	0.303
Mof_C 	C 	0.9375	0.517	0.49773	0.413
Mof_F 	F 	0.9303	0.61568	0.47481	-0.457
Mof_F 	F 	0.8764	0.4565	0.45137	-0.385
Mof_O 	O 	0.554	0.593	0.62079	-0.225
Mof_O 	O 	0.5725	0.4205	0.62337	-0.23
Mof_C 	C 	0.5363	0.504	0.5986	0.286
Mof_C 	C 	0.4642	0.4971	0.5292	0.42
Mof_F 	F 	0.4055	0.4069	0.5241	-0.413
Mof_F 	F 	0.387	0.5735	0.5219	-0.399
Mof_O 	O 	0.5037	0.3484	0.7475	-0.143
Mof_O 	O 	0.5007	0.5894	0.7815	-0.175
Mof_Ag	Ag	0.22082	0.89113	0.8208	0.336
Mof_Ag	Ag	0.33388	0.0864	0.77481	0.226
Mof_Ag	Ag	0.3395	0.068	0.776	0.255
Mof_Ag	Ag	0.09313	0.08195	0.78149	0.653
Mof_Ag	Ag	0.31193	0.82216	0.69963	0.22
Mof_Ag	Ag	0.3249	0.833	0.6934	0.176
Mof_Ag	Ag	0.07257	0.8237	0.7009	0.462
Mof_C 	C 	0.1933	0.9606	0.72091	-0.025
Mof_C 	C 	0.1789	0.0218	0.6752	-0.881
Mof_C 	C 	0.1593	0.0861	0.6121	2.686
Mof_C 	C 	0.0388	0.1142	0.5995	-3.671
Mof_H 	H 	0.9932	0.052	0.597	1.095
Mof_H 	H 	0.0187	0.1576	0.6352	1.127
Mof_H 	H 	0.0253	0.1514	0.5579	1.111
Mof_C 	C 	0.1974	0.0164	0.5573	-3.107
Mof_H 	H 	0.1519	0.9541	0.5535	0.896
Mof_H 	H 	0.1882	0.0532	0.5154	0.925
Mof_H 	H 	0.2761	0.998	0.5685	0.93
Mof_C 	C 	0.2329	0.1807	0.6146	-3.611
Mof_H 	H 	0.2125	0.2271	0.6488	1.146
Mof_H 	H 	0.3113	0.1606	0.6245	1.12
Mof_H 	H 	0.2222	0.2155	0.572	1.147
Mof_O 	O 	0.2849	0.6419	0.71016	-0.24
Mof_O 	O 	0.0991	0.6416	0.719	-0.36
Mof_O 	O 	0.1129	0.2665	0.78075	-0.368
Mof_O 	O 	0.3009	0.2671	0.78024	-0.263
Mof_C 	C 	0.193	0.5996	0.7144	0.32
Mof_C 	C 	0.1931	0.478	0.7143	0.385
Mof_C 	C 	0.2078	0.4295	0.78434	0.398
Mof_C 	C 	0.2076	0.3091	0.78258	0.255
Mof_F 	F 	0.2775	0.44172	0.68072	-0.396
Mof_F 	F 	0.0933	0.44066	0.68207	-0.465
Mof_F 	F 	0.3052	0.46667	0.81725	-0.439
Mof_F 	F 	0.1218	0.46606	0.81742	-0.545
Mof_O 	O 	0.101	0.0893	0.89854	-0.28
Mof_O 	O 	0.1526	0.9233	0.92174	-0.263
Mof_C 	C 	0.1117	0.0093	0.93403	0.32
Mof_C 	C 	0.0625	0.017	0.00227	0.42
Mof_F 	F 	0.0697	0.11568	0.02519	-0.461
Mof_F 	F 	0.1236	0.9565	0.04863	-0.396
Mof_O 	O 	0.446	0.093	0.87921	-0.228
Mof_O 	O 	0.4275	0.9205	0.87663	-0.236
Mof_C 	C 	0.4637	0.004	0.9014	0.292
Mof_C 	C 	0.5358	0.9971	0.9708	0.417
Mof_F 	F 	0.5945	0.9069	0.9759	-0.415
Mof_F 	F 	0.613	0.0735	0.9781	-0.4
Mof_O 	O 	0.4963	0.8484	0.7525	-0.145
Mof_O 	O 	0.4993	0.0894	0.7185	-0.172
_end
