data_functionalizedCrystal
_audit_creation_method	'EQeq! by Chris Wilmer'
_symmetry_space_group_name_H-M	'P1'
_symmetry_Int_Tables_number	1
_symmetry_cell_setting	triclinic
loop_
_symmetry_equiv_pos_as_xyz
  x,y,z
_cell_length_a	10.193
_cell_length_b	14.276
_cell_length_c	10.38
_cell_angle_alpha	90
_cell_angle_beta	91.184
_cell_angle_gamma	90
loop_
_atom_site_label
_atom_site_type_symbol
_atom_site_fract_x
_atom_site_fract_y
_atom_site_fract_z
_atom_site_charge
Mof_P 	P 	0.3153	0.50915	0.7899	0.689
Mof_P 	P 	0.8856	0.48092	0.6739	0.784
Mof_P 	P 	0.0219	0.80083	0.5019	0.679
Mof_O 	O 	0.1222	0.7282	0.5589	-1.028
Mof_O 	O 	0.2407	0.5921	0.7266	-1.001
Mof_O 	O 	0.9564	0.578	0.6774	-1.05
Mof_O 	O 	0.3191	0.5218	0.9315	-0.411
Mof_O 	O 	0.4489	0.4975	0.731	-0.357
Mof_O 	O 	0.2388	0.4172	0.7509	-0.402
Mof_O 	O 	0.9487	0.8481	0.6074	-0.387
Mof_O 	O 	0.9837	0.4046	0.7143	-0.414
Mof_O 	O 	0.7681	0.4835	0.7559	-0.395
Mof_O 	O 	0.1564	0.5343	0.4684	-1.096
Mof_O 	O 	0.0927	0.8627	0.4094	-0.379
Mof_O 	O 	0.9175	0.7381	0.4257	-0.416
Mof_Ga	Ga	0.11141	0.60674	0.60391	3.826
Mof_Mn	Mn	0.38889	0.50768	0.12358	1.004
Mof_H 	H 	0.95	0.69	0.377	0.177
Mof_H 	H 	0.144	0.409	0.749	0.175
Mof_P 	P 	0.1847	0.00915	0.7101	0.674
Mof_P 	P 	0.6144	0.98092	0.8261	0.787
Mof_P 	P 	0.4781	0.30083	0.9981	0.667
Mof_O 	O 	0.3778	0.2282	0.9411	-1.023
Mof_O 	O 	0.2593	0.0921	0.7734	-0.995
Mof_O 	O 	0.5436	0.078	0.8226	-1.049
Mof_O 	O 	0.1809	0.0218	0.5685	-0.409
Mof_O 	O 	0.0511	0.9975	0.769	-0.348
Mof_O 	O 	0.2612	0.9172	0.7491	-0.394
Mof_O 	O 	0.5513	0.3481	0.8926	-0.385
Mof_O 	O 	0.5163	0.9046	0.7857	-0.413
Mof_O 	O 	0.7319	0.9835	0.7441	-0.393
Mof_O 	O 	0.3436	0.0343	0.0316	-1.079
Mof_O 	O 	0.4073	0.3627	0.0906	-0.373
Mof_O 	O 	0.5825	0.2381	0.0743	-0.409
Mof_Ga	Ga	0.38859	0.10674	0.89609	3.784
Mof_Mn	Mn	0.11111	0.00768	0.37642	1.004
Mof_H 	H 	0.55	0.19	0.123	0.179
Mof_H 	H 	0.356	0.909	0.751	0.177
Mof_P 	P 	0.6847	0.49085	0.2101	0.689
Mof_P 	P 	0.1144	0.51908	0.3261	0.784
Mof_P 	P 	0.9781	0.19917	0.4981	0.679
Mof_O 	O 	0.8778	0.2718	0.4411	-1.028
Mof_O 	O 	0.7593	0.4079	0.2734	-1.001
Mof_O 	O 	0.0436	0.422	0.3226	-1.05
Mof_O 	O 	0.6809	0.4782	0.0685	-0.411
Mof_O 	O 	0.5511	0.5025	0.269	-0.357
Mof_O 	O 	0.7612	0.5828	0.2491	-0.402
Mof_O 	O 	0.0513	0.1519	0.3926	-0.387
Mof_O 	O 	0.0163	0.5954	0.2857	-0.414
Mof_O 	O 	0.2319	0.5165	0.2441	-0.395
Mof_O 	O 	0.8436	0.4657	0.5316	-1.096
Mof_O 	O 	0.9073	0.1373	0.5906	-0.379
Mof_O 	O 	0.0825	0.2619	0.5743	-0.416
Mof_Ga	Ga	0.88859	0.39326	0.39609	3.826
Mof_Mn	Mn	0.61111	0.49232	0.87642	1.004
Mof_H 	H 	0.05	0.31	0.623	0.177
Mof_H 	H 	0.856	0.591	0.251	0.175
Mof_P 	P 	0.8153	0.99085	0.2899	0.674
Mof_P 	P 	0.3856	0.01908	0.1739	0.787
Mof_P 	P 	0.5219	0.69917	0.0019	0.667
Mof_O 	O 	0.6222	0.7718	0.0589	-1.023
Mof_O 	O 	0.7407	0.9079	0.2266	-0.995
Mof_O 	O 	0.4564	0.922	0.1774	-1.049
Mof_O 	O 	0.8191	0.9782	0.4315	-0.409
Mof_O 	O 	0.9489	0.0025	0.231	-0.348
Mof_O 	O 	0.7388	0.0828	0.2509	-0.394
Mof_O 	O 	0.4487	0.6519	0.1074	-0.385
Mof_O 	O 	0.4837	0.0954	0.2143	-0.413
Mof_O 	O 	0.2681	0.0165	0.2559	-0.393
Mof_O 	O 	0.6564	0.9657	0.9684	-1.079
Mof_O 	O 	0.5927	0.6373	0.9094	-0.373
Mof_O 	O 	0.4175	0.7619	0.9257	-0.409
Mof_Ga	Ga	0.61141	0.89326	0.10391	3.784
Mof_Mn	Mn	0.88889	0.99232	0.62358	1.004
Mof_H 	H 	0.45	0.81	0.877	0.179
Mof_H 	H 	0.644	0.091	0.249	0.177
_end
