data_functionalizedCrystal
_audit_creation_method	'EQeq! by Chris Wilmer'
_symmetry_space_group_name_H-M	'P1'
_symmetry_Int_Tables_number	1
_symmetry_cell_setting	triclinic
loop_
_symmetry_equiv_pos_as_xyz
  x,y,z
_cell_length_a	34.9447
_cell_length_b	34.9447
_cell_length_c	23.333
_cell_angle_alpha	90
_cell_angle_beta	90
_cell_angle_gamma	120
loop_
_atom_site_label
_atom_site_type_symbol
_atom_site_fract_x
_atom_site_fract_y
_atom_site_fract_z
_atom_site_charge
Mof_O 	O 	0.55323	0.02771	0.5669	-0.411
Mof_O 	O 	0.5674	0.05623	0.47791	-0.428
Mof_C 	C 	0.57817	0.05398	0.52759	0.372
Mof_C 	C 	0.62523	0.08534	0.54635	-0.145
Mof_C 	C 	0.65592	0.11361	0.50489	0.077
Mof_H 	H 	0.6473	0.1131	0.467	0.002
Mof_C 	C 	0.69897	0.14201	0.52192	-0.19
Mof_H 	H 	0.7191	0.1616	0.4953	0.1
Mof_C 	C 	0.71287	0.1421	0.57713	0.154
Mof_C 	C 	0.68236	0.11405	0.61772	-0.18
Mof_H 	H 	0.6912	0.1146	0.6554	0.097
Mof_C 	C 	0.63861	0.08524	0.60187	0.086
Mof_H 	H 	0.6185	0.066	0.6287	0.015
Mof_C 	C 	0.75981	0.17058	0.59678	-0.126
Mof_C 	C 	0.77954	0.15268	0.63071	-0.013
Mof_H 	H 	0.7627	0.1235	0.6428	0.035
Mof_H 	H 	0.7231	0.232	0.6044	-0.643
Mof_H 	H 	0.7491	0.2958	0.5236	1.017
Mof_O 	O 	0.2199	0.36104	0.90023	-0.41
Mof_O 	O 	0.23407	0.38956	0.81124	-0.427
Mof_C 	C 	0.24484	0.38731	0.86092	0.373
Mof_C 	C 	0.2919	0.41867	0.87968	-0.144
Mof_C 	C 	0.32259	0.44694	0.83822	0.078
Mof_H 	H 	0.31397	0.44643	0.80033	0.003
Mof_C 	C 	0.36564	0.47534	0.85525	-0.189
Mof_H 	H 	0.38577	0.49493	0.82863	0.101
Mof_C 	C 	0.37954	0.47543	0.91046	0.155
Mof_C 	C 	0.34903	0.44738	0.95105	-0.179
Mof_H 	H 	0.35787	0.44793	0.98873	0.097
Mof_C 	C 	0.30528	0.41857	0.9352	0.086
Mof_H 	H 	0.28517	0.39933	0.96203	0.015
Mof_C 	C 	0.42648	0.50391	0.93011	-0.126
Mof_C 	C 	0.44621	0.48601	0.96404	-0.013
Mof_H 	H 	0.42937	0.45683	0.97613	0.035
Mof_H 	H 	0.38977	0.56533	0.93773	-0.643
Mof_H 	H 	0.41577	0.62913	0.85693	1.017
Mof_O 	O 	0.88656	0.69438	0.23357	-0.41
Mof_O 	O 	0.90073	0.7229	0.14458	-0.427
Mof_C 	C 	0.9115	0.72065	0.19426	0.373
Mof_C 	C 	0.95856	0.75201	0.21302	-0.144
Mof_C 	C 	0.98925	0.78028	0.17156	0.077
Mof_H 	H 	0.98063	0.77977	0.13367	0.003
Mof_C 	C 	0.0323	0.80868	0.18859	-0.189
Mof_H 	H 	0.05243	0.82827	0.16197	0.101
Mof_C 	C 	0.0462	0.80877	0.2438	0.155
Mof_C 	C 	0.01569	0.78072	0.28439	-0.179
Mof_H 	H 	0.02453	0.78127	0.32207	0.097
Mof_C 	C 	0.97194	0.75191	0.26854	0.085
Mof_H 	H 	0.95183	0.73267	0.29537	0.015
Mof_C 	C 	0.09314	0.83725	0.26345	-0.126
Mof_C 	C 	0.11287	0.81935	0.29738	-0.013
Mof_H 	H 	0.09603	0.79017	0.30947	0.035
Mof_H 	H 	0.05643	0.89867	0.27107	-0.643
Mof_H 	H 	0.08243	0.96247	0.19027	1.018
Mof_O 	O 	0.97229	0.52552	0.5669	-0.41
Mof_O 	O 	0.94377	0.51117	0.47791	-0.427
Mof_C 	C 	0.94602	0.52419	0.52759	0.373
Mof_C 	C 	0.91466	0.53989	0.54635	-0.144
Mof_C 	C 	0.88639	0.54231	0.50489	0.078
Mof_H 	H 	0.8869	0.5342	0.467	0.003
Mof_C 	C 	0.85799	0.55696	0.52192	-0.189
Mof_H 	H 	0.8384	0.5575	0.4953	0.101
Mof_C 	C 	0.8579	0.57077	0.57713	0.155
Mof_C 	C 	0.88595	0.56831	0.61772	-0.179
Mof_H 	H 	0.8854	0.5766	0.6554	0.097
Mof_C 	C 	0.91476	0.55337	0.60187	0.086
Mof_H 	H 	0.934	0.5525	0.6287	0.015
Mof_C 	C 	0.82942	0.58923	0.59678	-0.126
Mof_C 	C 	0.84732	0.62686	0.63071	-0.013
Mof_H 	H 	0.8765	0.6392	0.6428	0.035
Mof_H 	H 	0.768	0.4911	0.6044	-0.643
Mof_H 	H 	0.7042	0.4533	0.5236	1.017
Mof_O 	O 	0.63896	0.85885	0.90023	-0.41
Mof_O 	O 	0.61044	0.8445	0.81124	-0.427
Mof_C 	C 	0.61269	0.85752	0.86092	0.373
Mof_C 	C 	0.58133	0.87322	0.87968	-0.144
Mof_C 	C 	0.55306	0.87564	0.83822	0.078
Mof_H 	H 	0.55357	0.86753	0.80033	0.003
Mof_C 	C 	0.52466	0.89029	0.85525	-0.189
Mof_H 	H 	0.50507	0.89083	0.82863	0.101
Mof_C 	C 	0.52457	0.9041	0.91046	0.155
Mof_C 	C 	0.55262	0.90164	0.95105	-0.179
Mof_H 	H 	0.55207	0.90993	0.98873	0.097
Mof_C 	C 	0.58143	0.8867	0.9352	0.086
Mof_H 	H 	0.60067	0.88583	0.96203	0.015
Mof_C 	C 	0.49609	0.92256	0.93011	-0.126
Mof_C 	C 	0.51399	0.96019	0.96404	-0.013
Mof_H 	H 	0.54317	0.97253	0.97613	0.035
Mof_H 	H 	0.43467	0.82443	0.93773	-0.643
Mof_H 	H 	0.37087	0.78663	0.85693	1.017
Mof_O 	O 	0.30562	0.19219	0.23357	-0.41
Mof_O 	O 	0.2771	0.17784	0.14458	-0.427
Mof_C 	C 	0.27935	0.19086	0.19426	0.373
Mof_C 	C 	0.24799	0.20656	0.21302	-0.144
Mof_C 	C 	0.21972	0.20898	0.17156	0.078
Mof_H 	H 	0.22023	0.20087	0.13367	0.003
Mof_C 	C 	0.19132	0.22363	0.18859	-0.189
Mof_H 	H 	0.17173	0.22417	0.16197	0.101
Mof_C 	C 	0.19123	0.23744	0.2438	0.155
Mof_C 	C 	0.21928	0.23498	0.28439	-0.179
Mof_H 	H 	0.21873	0.24327	0.32207	0.097
Mof_C 	C 	0.24809	0.22004	0.26854	0.086
Mof_H 	H 	0.26733	0.21917	0.29537	0.015
Mof_C 	C 	0.16275	0.2559	0.26345	-0.126
Mof_C 	C 	0.18065	0.29353	0.29738	-0.013
Mof_H 	H 	0.20983	0.30587	0.30947	0.035
Mof_H 	H 	0.10133	0.15777	0.27107	-0.643
Mof_H 	H 	0.03753	0.11997	0.19027	1.017
Mof_O 	O 	0.47448	0.44677	0.5669	-0.41
Mof_O 	O 	0.48883	0.4326	0.47791	-0.427
Mof_C 	C 	0.47581	0.42183	0.52759	0.373
Mof_C 	C 	0.46011	0.37477	0.54635	-0.144
Mof_C 	C 	0.45769	0.34408	0.50489	0.078
Mof_H 	H 	0.4658	0.3527	0.467	0.003
Mof_C 	C 	0.44304	0.30103	0.52192	-0.189
Mof_H 	H 	0.4425	0.2809	0.4953	0.101
Mof_C 	C 	0.42923	0.28713	0.57713	0.155
Mof_C 	C 	0.43169	0.31764	0.61772	-0.179
Mof_H 	H 	0.4234	0.3088	0.6554	0.097
Mof_C 	C 	0.44663	0.36139	0.60187	0.086
Mof_H 	H 	0.4475	0.3815	0.6287	0.015
Mof_C 	C 	0.41077	0.24019	0.59678	-0.126
Mof_C 	C 	0.37314	0.22046	0.63071	-0.013
Mof_H 	H 	0.3608	0.2373	0.6428	0.035
Mof_H 	H 	0.5089	0.2769	0.6044	-0.643
Mof_H 	H 	0.5467	0.2509	0.5236	1.017
Mof_O 	O 	0.14115	0.7801	0.90023	-0.41
Mof_O 	O 	0.1555	0.76593	0.81124	-0.427
Mof_C 	C 	0.14248	0.75516	0.86092	0.373
Mof_C 	C 	0.12678	0.7081	0.87968	-0.144
Mof_C 	C 	0.12436	0.67741	0.83822	0.078
Mof_H 	H 	0.13247	0.68603	0.80033	0.003
Mof_C 	C 	0.10971	0.63436	0.85525	-0.189
Mof_H 	H 	0.10917	0.61423	0.82863	0.101
Mof_C 	C 	0.0959	0.62046	0.91046	0.155
Mof_C 	C 	0.09836	0.65097	0.95105	-0.179
Mof_H 	H 	0.09007	0.64213	0.98873	0.097
Mof_C 	C 	0.1133	0.69472	0.9352	0.086
Mof_H 	H 	0.11417	0.71483	0.96203	0.015
Mof_C 	C 	0.07744	0.57352	0.93011	-0.126
Mof_C 	C 	0.03981	0.55379	0.96404	-0.013
Mof_H 	H 	0.02747	0.57063	0.97613	0.035
Mof_H 	H 	0.17557	0.61023	0.93773	-0.643
Mof_H 	H 	0.21337	0.58423	0.85693	1.017
Mof_O 	O 	0.80781	0.11344	0.23357	-0.41
Mof_O 	O 	0.82216	0.09927	0.14458	-0.427
Mof_C 	C 	0.80914	0.0885	0.19426	0.373
Mof_C 	C 	0.79344	0.04144	0.21302	-0.144
Mof_C 	C 	0.79102	0.01075	0.17156	0.078
Mof_H 	H 	0.79913	0.01937	0.13367	0.003
Mof_C 	C 	0.77637	0.9677	0.18859	-0.189
Mof_H 	H 	0.77583	0.94757	0.16197	0.101
Mof_C 	C 	0.76256	0.9538	0.2438	0.155
Mof_C 	C 	0.76502	0.98431	0.28439	-0.179
Mof_H 	H 	0.75673	0.97547	0.32207	0.097
Mof_C 	C 	0.77996	0.02806	0.26854	0.086
Mof_H 	H 	0.78083	0.04817	0.29537	0.015
Mof_C 	C 	0.7441	0.90686	0.26345	-0.126
Mof_C 	C 	0.70647	0.88713	0.29738	-0.013
Mof_H 	H 	0.69413	0.90397	0.30947	0.035
Mof_H 	H 	0.84223	0.94357	0.27107	-0.643
Mof_H 	H 	0.88003	0.91757	0.19027	1.017
Mof_O 	O 	0.02771	0.55323	0.4331	-0.41
Mof_O 	O 	0.05623	0.5674	0.52209	-0.427
Mof_C 	C 	0.05398	0.57817	0.47241	0.373
Mof_C 	C 	0.08534	0.62523	0.45365	-0.144
Mof_C 	C 	0.11361	0.65592	0.49511	0.078
Mof_H 	H 	0.1131	0.6473	0.533	0.003
Mof_C 	C 	0.14201	0.69897	0.47808	-0.189
Mof_H 	H 	0.1616	0.7191	0.5047	0.101
Mof_C 	C 	0.1421	0.71287	0.42287	0.155
Mof_C 	C 	0.11405	0.68236	0.38228	-0.179
Mof_H 	H 	0.1146	0.6912	0.3446	0.097
Mof_C 	C 	0.08524	0.63861	0.39813	0.086
Mof_H 	H 	0.066	0.6185	0.3713	0.015
Mof_C 	C 	0.17058	0.75981	0.40322	-0.126
Mof_C 	C 	0.15268	0.77954	0.36929	-0.013
Mof_H 	H 	0.1235	0.7627	0.3572	0.035
Mof_H 	H 	0.232	0.7231	0.3956	-0.643
Mof_H 	H 	0.2958	0.7491	0.4764	1.017
Mof_O 	O 	0.69438	0.88656	0.76643	-0.41
Mof_O 	O 	0.7229	0.90073	0.85542	-0.427
Mof_C 	C 	0.72065	0.9115	0.80574	0.373
Mof_C 	C 	0.75201	0.95856	0.78698	-0.144
Mof_C 	C 	0.78028	0.98925	0.82844	0.077
Mof_H 	H 	0.77977	0.98063	0.86633	0.003
Mof_C 	C 	0.80868	0.0323	0.81141	-0.189
Mof_H 	H 	0.82827	0.05243	0.83803	0.101
Mof_C 	C 	0.80877	0.0462	0.7562	0.155
Mof_C 	C 	0.78072	0.01569	0.71561	-0.179
Mof_H 	H 	0.78127	0.02453	0.67793	0.097
Mof_C 	C 	0.75191	0.97194	0.73146	0.085
Mof_H 	H 	0.73267	0.95183	0.70463	0.015
Mof_C 	C 	0.83725	0.09314	0.73655	-0.126
Mof_C 	C 	0.81935	0.11287	0.70262	-0.013
Mof_H 	H 	0.79017	0.09603	0.69053	0.035
Mof_H 	H 	0.89867	0.05643	0.72893	-0.643
Mof_H 	H 	0.96247	0.08243	0.80973	1.018
Mof_O 	O 	0.36104	0.2199	0.09977	-0.41
Mof_O 	O 	0.38956	0.23407	0.18876	-0.427
Mof_C 	C 	0.38731	0.24484	0.13908	0.373
Mof_C 	C 	0.41867	0.2919	0.12032	-0.144
Mof_C 	C 	0.44694	0.32259	0.16178	0.078
Mof_H 	H 	0.44643	0.31397	0.19967	0.003
Mof_C 	C 	0.47534	0.36564	0.14475	-0.189
Mof_H 	H 	0.49493	0.38577	0.17137	0.101
Mof_C 	C 	0.47543	0.37954	0.08954	0.155
Mof_C 	C 	0.44738	0.34903	0.04895	-0.179
Mof_H 	H 	0.44793	0.35787	0.01127	0.097
Mof_C 	C 	0.41857	0.30528	0.0648	0.086
Mof_H 	H 	0.39933	0.28517	0.03797	0.015
Mof_C 	C 	0.50391	0.42648	0.06989	-0.126
Mof_C 	C 	0.48601	0.44621	0.03596	-0.013
Mof_H 	H 	0.45683	0.42937	0.02387	0.035
Mof_H 	H 	0.56533	0.38977	0.06227	-0.643
Mof_H 	H 	0.62913	0.41577	0.14307	1.017
Mof_O 	O 	0.52552	0.97229	0.4331	-0.41
Mof_O 	O 	0.51117	0.94377	0.52209	-0.427
Mof_C 	C 	0.52419	0.94602	0.47241	0.373
Mof_C 	C 	0.53989	0.91466	0.45365	-0.144
Mof_C 	C 	0.54231	0.88639	0.49511	0.078
Mof_H 	H 	0.5342	0.8869	0.533	0.003
Mof_C 	C 	0.55696	0.85799	0.47808	-0.189
Mof_H 	H 	0.5575	0.8384	0.5047	0.101
Mof_C 	C 	0.57077	0.8579	0.42287	0.155
Mof_C 	C 	0.56831	0.88595	0.38228	-0.179
Mof_H 	H 	0.5766	0.8854	0.3446	0.097
Mof_C 	C 	0.55337	0.91476	0.39813	0.086
Mof_H 	H 	0.5525	0.934	0.3713	0.015
Mof_C 	C 	0.58923	0.82942	0.40322	-0.126
Mof_C 	C 	0.62686	0.84732	0.36929	-0.013
Mof_H 	H 	0.6392	0.8765	0.3572	0.035
Mof_H 	H 	0.4911	0.768	0.3956	-0.643
Mof_H 	H 	0.4533	0.7042	0.4764	1.017
Mof_O 	O 	0.19219	0.30562	0.76643	-0.41
Mof_O 	O 	0.17784	0.2771	0.85542	-0.427
Mof_C 	C 	0.19086	0.27935	0.80574	0.373
Mof_C 	C 	0.20656	0.24799	0.78698	-0.144
Mof_C 	C 	0.20898	0.21972	0.82844	0.078
Mof_H 	H 	0.20087	0.22023	0.86633	0.003
Mof_C 	C 	0.22363	0.19132	0.81141	-0.189
Mof_H 	H 	0.22417	0.17173	0.83803	0.101
Mof_C 	C 	0.23744	0.19123	0.7562	0.155
Mof_C 	C 	0.23498	0.21928	0.71561	-0.179
Mof_H 	H 	0.24327	0.21873	0.67793	0.097
Mof_C 	C 	0.22004	0.24809	0.73146	0.086
Mof_H 	H 	0.21917	0.26733	0.70463	0.015
Mof_C 	C 	0.2559	0.16275	0.73655	-0.126
Mof_C 	C 	0.29353	0.18065	0.70262	-0.013
Mof_H 	H 	0.30587	0.20983	0.69053	0.035
Mof_H 	H 	0.15777	0.10133	0.72893	-0.643
Mof_H 	H 	0.11997	0.03753	0.80973	1.017
Mof_O 	O 	0.85885	0.63896	0.09977	-0.41
Mof_O 	O 	0.8445	0.61044	0.18876	-0.427
Mof_C 	C 	0.85752	0.61269	0.13908	0.373
Mof_C 	C 	0.87322	0.58133	0.12032	-0.144
Mof_C 	C 	0.87564	0.55306	0.16178	0.078
Mof_H 	H 	0.86753	0.55357	0.19967	0.003
Mof_C 	C 	0.89029	0.52466	0.14475	-0.189
Mof_H 	H 	0.89083	0.50507	0.17137	0.101
Mof_C 	C 	0.9041	0.52457	0.08954	0.155
Mof_C 	C 	0.90164	0.55262	0.04895	-0.179
Mof_H 	H 	0.90993	0.55207	0.01127	0.097
Mof_C 	C 	0.8867	0.58143	0.0648	0.086
Mof_H 	H 	0.88583	0.60067	0.03797	0.015
Mof_C 	C 	0.92256	0.49609	0.06989	-0.126
Mof_C 	C 	0.96019	0.51399	0.03596	-0.013
Mof_H 	H 	0.97253	0.54317	0.02387	0.035
Mof_H 	H 	0.82443	0.43467	0.06227	-0.643
Mof_H 	H 	0.78663	0.37087	0.14307	1.017
Mof_O 	O 	0.44677	0.47448	0.4331	-0.41
Mof_O 	O 	0.4326	0.48883	0.52209	-0.427
Mof_C 	C 	0.42183	0.47581	0.47241	0.373
Mof_C 	C 	0.37477	0.46011	0.45365	-0.144
Mof_C 	C 	0.34408	0.45769	0.49511	0.078
Mof_H 	H 	0.3527	0.4658	0.533	0.003
Mof_C 	C 	0.30103	0.44304	0.47808	-0.189
Mof_H 	H 	0.2809	0.4425	0.5047	0.101
Mof_C 	C 	0.28713	0.42923	0.42287	0.155
Mof_C 	C 	0.31764	0.43169	0.38228	-0.179
Mof_H 	H 	0.3088	0.4234	0.3446	0.097
Mof_C 	C 	0.36139	0.44663	0.39813	0.086
Mof_H 	H 	0.3815	0.4475	0.3713	0.015
Mof_C 	C 	0.24019	0.41077	0.40322	-0.126
Mof_C 	C 	0.22046	0.37314	0.36929	-0.013
Mof_H 	H 	0.2373	0.3608	0.3572	0.035
Mof_H 	H 	0.2769	0.5089	0.3956	-0.643
Mof_H 	H 	0.2509	0.5467	0.4764	1.017
Mof_O 	O 	0.11344	0.80781	0.76643	-0.41
Mof_O 	O 	0.09927	0.82216	0.85542	-0.427
Mof_C 	C 	0.0885	0.80914	0.80574	0.373
Mof_C 	C 	0.04144	0.79344	0.78698	-0.144
Mof_C 	C 	0.01075	0.79102	0.82844	0.078
Mof_H 	H 	0.01937	0.79913	0.86633	0.003
Mof_C 	C 	0.9677	0.77637	0.81141	-0.189
Mof_H 	H 	0.94757	0.77583	0.83803	0.101
Mof_C 	C 	0.9538	0.76256	0.7562	0.155
Mof_C 	C 	0.98431	0.76502	0.71561	-0.179
Mof_H 	H 	0.97547	0.75673	0.67793	0.097
Mof_C 	C 	0.02806	0.77996	0.73146	0.086
Mof_H 	H 	0.04817	0.78083	0.70463	0.015
Mof_C 	C 	0.90686	0.7441	0.73655	-0.126
Mof_C 	C 	0.88713	0.70647	0.70262	-0.013
Mof_H 	H 	0.90397	0.69413	0.69053	0.035
Mof_H 	H 	0.94357	0.84223	0.72893	-0.643
Mof_H 	H 	0.91757	0.88003	0.80973	1.017
Mof_O 	O 	0.7801	0.14115	0.09977	-0.41
Mof_O 	O 	0.76593	0.1555	0.18876	-0.427
Mof_C 	C 	0.75516	0.14248	0.13908	0.373
Mof_C 	C 	0.7081	0.12678	0.12032	-0.144
Mof_C 	C 	0.67741	0.12436	0.16178	0.078
Mof_H 	H 	0.68603	0.13247	0.19967	0.003
Mof_C 	C 	0.63436	0.10971	0.14475	-0.189
Mof_H 	H 	0.61423	0.10917	0.17137	0.101
Mof_C 	C 	0.62046	0.0959	0.08954	0.155
Mof_C 	C 	0.65097	0.09836	0.04895	-0.179
Mof_H 	H 	0.64213	0.09007	0.01127	0.097
Mof_C 	C 	0.69472	0.1133	0.0648	0.086
Mof_H 	H 	0.71483	0.11417	0.03797	0.015
Mof_C 	C 	0.57352	0.07744	0.06989	-0.126
Mof_C 	C 	0.55379	0.03981	0.03596	-0.013
Mof_H 	H 	0.57063	0.02747	0.02387	0.035
Mof_H 	H 	0.61023	0.17557	0.06227	-0.643
Mof_H 	H 	0.58423	0.21337	0.14307	1.017
Mof_O 	O 	0.44677	0.97229	0.4331	-0.41
Mof_O 	O 	0.4326	0.94377	0.52209	-0.427
Mof_C 	C 	0.42183	0.94602	0.47241	0.373
Mof_C 	C 	0.37477	0.91466	0.45365	-0.144
Mof_C 	C 	0.34408	0.88639	0.49511	0.078
Mof_H 	H 	0.3527	0.8869	0.533	0.003
Mof_C 	C 	0.30103	0.85799	0.47808	-0.189
Mof_H 	H 	0.2809	0.8384	0.5047	0.101
Mof_C 	C 	0.28713	0.8579	0.42287	0.155
Mof_C 	C 	0.31764	0.88595	0.38228	-0.179
Mof_H 	H 	0.3088	0.8854	0.3446	0.097
Mof_C 	C 	0.36139	0.91476	0.39813	0.086
Mof_H 	H 	0.3815	0.934	0.3713	0.015
Mof_C 	C 	0.24019	0.82942	0.40322	-0.126
Mof_C 	C 	0.22046	0.84732	0.36929	-0.013
Mof_H 	H 	0.2373	0.8765	0.3572	0.035
Mof_H 	H 	0.2769	0.768	0.3956	-0.643
Mof_H 	H 	0.2509	0.7042	0.4764	1.017
Mof_O 	O 	0.11344	0.30562	0.76643	-0.41
Mof_O 	O 	0.09927	0.2771	0.85542	-0.427
Mof_C 	C 	0.0885	0.27935	0.80574	0.373
Mof_C 	C 	0.04144	0.24799	0.78698	-0.144
Mof_C 	C 	0.01075	0.21972	0.82844	0.077
Mof_H 	H 	0.01937	0.22023	0.86633	0.003
Mof_C 	C 	0.9677	0.19132	0.81141	-0.189
Mof_H 	H 	0.94757	0.17173	0.83803	0.101
Mof_C 	C 	0.9538	0.19123	0.7562	0.155
Mof_C 	C 	0.98431	0.21928	0.71561	-0.179
Mof_H 	H 	0.97547	0.21873	0.67793	0.097
Mof_C 	C 	0.02806	0.24809	0.73146	0.085
Mof_H 	H 	0.04817	0.26733	0.70463	0.015
Mof_C 	C 	0.90686	0.16275	0.73655	-0.126
Mof_C 	C 	0.88713	0.18065	0.70262	-0.013
Mof_H 	H 	0.90397	0.20983	0.69053	0.035
Mof_H 	H 	0.94357	0.10133	0.72893	-0.643
Mof_H 	H 	0.91757	0.03753	0.80973	1.018
Mof_O 	O 	0.7801	0.63896	0.09977	-0.41
Mof_O 	O 	0.76593	0.61044	0.18876	-0.427
Mof_C 	C 	0.75516	0.61269	0.13908	0.373
Mof_C 	C 	0.7081	0.58133	0.12032	-0.144
Mof_C 	C 	0.67741	0.55306	0.16178	0.078
Mof_H 	H 	0.68603	0.55357	0.19967	0.003
Mof_C 	C 	0.63436	0.52466	0.14475	-0.189
Mof_H 	H 	0.61423	0.50507	0.17137	0.101
Mof_C 	C 	0.62046	0.52457	0.08954	0.155
Mof_C 	C 	0.65097	0.55262	0.04895	-0.179
Mof_H 	H 	0.64213	0.55207	0.01127	0.097
Mof_C 	C 	0.69472	0.58143	0.0648	0.086
Mof_H 	H 	0.71483	0.60067	0.03797	0.015
Mof_C 	C 	0.57352	0.49609	0.06989	-0.126
Mof_C 	C 	0.55379	0.51399	0.03596	-0.013
Mof_H 	H 	0.57063	0.54317	0.02387	0.035
Mof_H 	H 	0.61023	0.43467	0.06227	-0.643
Mof_H 	H 	0.58423	0.37087	0.14307	1.017
Mof_O 	O 	0.02771	0.47448	0.4331	-0.41
Mof_O 	O 	0.05623	0.48883	0.52209	-0.427
Mof_C 	C 	0.05398	0.47581	0.47241	0.373
Mof_C 	C 	0.08534	0.46011	0.45365	-0.144
Mof_C 	C 	0.11361	0.45769	0.49511	0.078
Mof_H 	H 	0.1131	0.4658	0.533	0.003
Mof_C 	C 	0.14201	0.44304	0.47808	-0.189
Mof_H 	H 	0.1616	0.4425	0.5047	0.101
Mof_C 	C 	0.1421	0.42923	0.42287	0.155
Mof_C 	C 	0.11405	0.43169	0.38228	-0.179
Mof_H 	H 	0.1146	0.4234	0.3446	0.097
Mof_C 	C 	0.08524	0.44663	0.39813	0.086
Mof_H 	H 	0.066	0.4475	0.3713	0.015
Mof_C 	C 	0.17058	0.41077	0.40322	-0.126
Mof_C 	C 	0.15268	0.37314	0.36929	-0.013
Mof_H 	H 	0.1235	0.3608	0.3572	0.035
Mof_H 	H 	0.232	0.5089	0.3956	-0.643
Mof_H 	H 	0.2958	0.5467	0.4764	1.017
Mof_O 	O 	0.69438	0.80781	0.76643	-0.41
Mof_O 	O 	0.7229	0.82216	0.85542	-0.427
Mof_C 	C 	0.72065	0.80914	0.80574	0.373
Mof_C 	C 	0.75201	0.79344	0.78698	-0.144
Mof_C 	C 	0.78028	0.79102	0.82844	0.078
Mof_H 	H 	0.77977	0.79913	0.86633	0.003
Mof_C 	C 	0.80868	0.77637	0.81141	-0.189
Mof_H 	H 	0.82827	0.77583	0.83803	0.101
Mof_C 	C 	0.80877	0.76256	0.7562	0.155
Mof_C 	C 	0.78072	0.76502	0.71561	-0.179
Mof_H 	H 	0.78127	0.75673	0.67793	0.097
Mof_C 	C 	0.75191	0.77996	0.73146	0.086
Mof_H 	H 	0.73267	0.78083	0.70463	0.015
Mof_C 	C 	0.83725	0.7441	0.73655	-0.126
Mof_C 	C 	0.81935	0.70647	0.70262	-0.013
Mof_H 	H 	0.79017	0.69413	0.69053	0.035
Mof_H 	H 	0.89867	0.84223	0.72893	-0.643
Mof_H 	H 	0.96247	0.88003	0.80973	1.017
Mof_O 	O 	0.36104	0.14115	0.09977	-0.41
Mof_O 	O 	0.38956	0.1555	0.18876	-0.427
Mof_C 	C 	0.38731	0.14248	0.13908	0.373
Mof_C 	C 	0.41867	0.12678	0.12032	-0.144
Mof_C 	C 	0.44694	0.12436	0.16178	0.078
Mof_H 	H 	0.44643	0.13247	0.19967	0.003
Mof_C 	C 	0.47534	0.10971	0.14475	-0.189
Mof_H 	H 	0.49493	0.10917	0.17137	0.101
Mof_C 	C 	0.47543	0.0959	0.08954	0.155
Mof_C 	C 	0.44738	0.09836	0.04895	-0.179
Mof_H 	H 	0.44793	0.09007	0.01127	0.097
Mof_C 	C 	0.41857	0.1133	0.0648	0.086
Mof_H 	H 	0.39933	0.11417	0.03797	0.015
Mof_C 	C 	0.50391	0.07744	0.06989	-0.126
Mof_C 	C 	0.48601	0.03981	0.03596	-0.013
Mof_H 	H 	0.45683	0.02747	0.02387	0.035
Mof_H 	H 	0.56533	0.17557	0.06227	-0.643
Mof_H 	H 	0.62913	0.21337	0.14307	1.017
Mof_O 	O 	0.52552	0.55323	0.4331	-0.41
Mof_O 	O 	0.51117	0.5674	0.52209	-0.427
Mof_C 	C 	0.52419	0.57817	0.47241	0.373
Mof_C 	C 	0.53989	0.62523	0.45365	-0.144
Mof_C 	C 	0.54231	0.65592	0.49511	0.078
Mof_H 	H 	0.5342	0.6473	0.533	0.003
Mof_C 	C 	0.55696	0.69897	0.47808	-0.189
Mof_H 	H 	0.5575	0.7191	0.5047	0.101
Mof_C 	C 	0.57077	0.71287	0.42287	0.155
Mof_C 	C 	0.56831	0.68236	0.38228	-0.179
Mof_H 	H 	0.5766	0.6912	0.3446	0.097
Mof_C 	C 	0.55337	0.63861	0.39813	0.086
Mof_H 	H 	0.5525	0.6185	0.3713	0.015
Mof_C 	C 	0.58923	0.75981	0.40322	-0.126
Mof_C 	C 	0.62686	0.77954	0.36929	-0.013
Mof_H 	H 	0.6392	0.7627	0.3572	0.035
Mof_H 	H 	0.4911	0.7231	0.3956	-0.643
Mof_H 	H 	0.4533	0.7491	0.4764	1.017
Mof_O 	O 	0.19219	0.88656	0.76643	-0.41
Mof_O 	O 	0.17784	0.90073	0.85542	-0.427
Mof_C 	C 	0.19086	0.9115	0.80574	0.373
Mof_C 	C 	0.20656	0.95856	0.78698	-0.144
Mof_C 	C 	0.20898	0.98925	0.82844	0.078
Mof_H 	H 	0.20087	0.98063	0.86633	0.003
Mof_C 	C 	0.22363	0.0323	0.81141	-0.189
Mof_H 	H 	0.22417	0.05243	0.83803	0.101
Mof_C 	C 	0.23744	0.0462	0.7562	0.155
Mof_C 	C 	0.23498	0.01569	0.71561	-0.179
Mof_H 	H 	0.24327	0.02453	0.67793	0.097
Mof_C 	C 	0.22004	0.97194	0.73146	0.086
Mof_H 	H 	0.21917	0.95183	0.70463	0.015
Mof_C 	C 	0.2559	0.09314	0.73655	-0.126
Mof_C 	C 	0.29353	0.11287	0.70262	-0.013
Mof_H 	H 	0.30587	0.09603	0.69053	0.035
Mof_H 	H 	0.15777	0.05643	0.72893	-0.643
Mof_H 	H 	0.11997	0.08243	0.80973	1.017
Mof_O 	O 	0.85885	0.2199	0.09977	-0.41
Mof_O 	O 	0.8445	0.23407	0.18876	-0.427
Mof_C 	C 	0.85752	0.24484	0.13908	0.373
Mof_C 	C 	0.87322	0.2919	0.12032	-0.144
Mof_C 	C 	0.87564	0.32259	0.16178	0.078
Mof_H 	H 	0.86753	0.31397	0.19967	0.003
Mof_C 	C 	0.89029	0.36564	0.14475	-0.189
Mof_H 	H 	0.89083	0.38577	0.17137	0.101
Mof_C 	C 	0.9041	0.37954	0.08954	0.155
Mof_C 	C 	0.90164	0.34903	0.04895	-0.179
Mof_H 	H 	0.90993	0.35787	0.01127	0.097
Mof_C 	C 	0.8867	0.30528	0.0648	0.086
Mof_H 	H 	0.88583	0.28517	0.03797	0.015
Mof_C 	C 	0.92256	0.42648	0.06989	-0.126
Mof_C 	C 	0.96019	0.44621	0.03596	-0.013
Mof_H 	H 	0.97253	0.42937	0.02387	0.035
Mof_H 	H 	0.82443	0.38977	0.06227	-0.643
Mof_H 	H 	0.78663	0.41577	0.14307	1.017
Mof_O 	O 	0.97229	0.44677	0.5669	-0.41
Mof_O 	O 	0.94377	0.4326	0.47791	-0.427
Mof_C 	C 	0.94602	0.42183	0.52759	0.373
Mof_C 	C 	0.91466	0.37477	0.54635	-0.144
Mof_C 	C 	0.88639	0.34408	0.50489	0.078
Mof_H 	H 	0.8869	0.3527	0.467	0.003
Mof_C 	C 	0.85799	0.30103	0.52192	-0.189
Mof_H 	H 	0.8384	0.2809	0.4953	0.101
Mof_C 	C 	0.8579	0.28713	0.57713	0.155
Mof_C 	C 	0.88595	0.31764	0.61772	-0.179
Mof_H 	H 	0.8854	0.3088	0.6554	0.097
Mof_C 	C 	0.91476	0.36139	0.60187	0.086
Mof_H 	H 	0.934	0.3815	0.6287	0.015
Mof_C 	C 	0.82942	0.24019	0.59678	-0.126
Mof_C 	C 	0.84732	0.22046	0.63071	-0.013
Mof_H 	H 	0.8765	0.2373	0.6428	0.035
Mof_H 	H 	0.768	0.2769	0.6044	-0.643
Mof_H 	H 	0.7042	0.2509	0.5236	1.017
Mof_O 	O 	0.63896	0.7801	0.90023	-0.41
Mof_O 	O 	0.61044	0.76593	0.81124	-0.427
Mof_C 	C 	0.61269	0.75516	0.86092	0.373
Mof_C 	C 	0.58133	0.7081	0.87968	-0.144
Mof_C 	C 	0.55306	0.67741	0.83822	0.078
Mof_H 	H 	0.55357	0.68603	0.80033	0.003
Mof_C 	C 	0.52466	0.63436	0.85525	-0.189
Mof_H 	H 	0.50507	0.61423	0.82863	0.101
Mof_C 	C 	0.52457	0.62046	0.91046	0.155
Mof_C 	C 	0.55262	0.65097	0.95105	-0.179
Mof_H 	H 	0.55207	0.64213	0.98873	0.097
Mof_C 	C 	0.58143	0.69472	0.9352	0.086
Mof_H 	H 	0.60067	0.71483	0.96203	0.015
Mof_C 	C 	0.49609	0.57352	0.93011	-0.126
Mof_C 	C 	0.51399	0.55379	0.96404	-0.013
Mof_H 	H 	0.54317	0.57063	0.97613	0.035
Mof_H 	H 	0.43467	0.61023	0.93773	-0.643
Mof_H 	H 	0.37087	0.58423	0.85693	1.017
Mof_O 	O 	0.30562	0.11344	0.23357	-0.41
Mof_O 	O 	0.2771	0.09927	0.14458	-0.427
Mof_C 	C 	0.27935	0.0885	0.19426	0.373
Mof_C 	C 	0.24799	0.04144	0.21302	-0.144
Mof_C 	C 	0.21972	0.01075	0.17156	0.077
Mof_H 	H 	0.22023	0.01937	0.13367	0.003
Mof_C 	C 	0.19132	0.9677	0.18859	-0.189
Mof_H 	H 	0.17173	0.94757	0.16197	0.101
Mof_C 	C 	0.19123	0.9538	0.2438	0.155
Mof_C 	C 	0.21928	0.98431	0.28439	-0.179
Mof_H 	H 	0.21873	0.97547	0.32207	0.097
Mof_C 	C 	0.24809	0.02806	0.26854	0.085
Mof_H 	H 	0.26733	0.04817	0.29537	0.015
Mof_C 	C 	0.16275	0.90686	0.26345	-0.126
Mof_C 	C 	0.18065	0.88713	0.29738	-0.013
Mof_H 	H 	0.20983	0.90397	0.30947	0.035
Mof_H 	H 	0.10133	0.94357	0.27107	-0.643
Mof_H 	H 	0.03753	0.91757	0.19027	1.018
Mof_O 	O 	0.47448	0.02771	0.5669	-0.41
Mof_O 	O 	0.48883	0.05623	0.47791	-0.427
Mof_C 	C 	0.47581	0.05398	0.52759	0.373
Mof_C 	C 	0.46011	0.08534	0.54635	-0.144
Mof_C 	C 	0.45769	0.11361	0.50489	0.078
Mof_H 	H 	0.4658	0.1131	0.467	0.003
Mof_C 	C 	0.44304	0.14201	0.52192	-0.189
Mof_H 	H 	0.4425	0.1616	0.4953	0.101
Mof_C 	C 	0.42923	0.1421	0.57713	0.155
Mof_C 	C 	0.43169	0.11405	0.61772	-0.179
Mof_H 	H 	0.4234	0.1146	0.6554	0.097
Mof_C 	C 	0.44663	0.08524	0.60187	0.086
Mof_H 	H 	0.4475	0.066	0.6287	0.015
Mof_C 	C 	0.41077	0.17058	0.59678	-0.126
Mof_C 	C 	0.37314	0.15268	0.63071	-0.013
Mof_H 	H 	0.3608	0.1235	0.6428	0.035
Mof_H 	H 	0.5089	0.232	0.6044	-0.643
Mof_H 	H 	0.5467	0.2958	0.5236	1.017
Mof_O 	O 	0.14115	0.36104	0.90023	-0.41
Mof_O 	O 	0.1555	0.38956	0.81124	-0.427
Mof_C 	C 	0.14248	0.38731	0.86092	0.373
Mof_C 	C 	0.12678	0.41867	0.87968	-0.144
Mof_C 	C 	0.12436	0.44694	0.83822	0.078
Mof_H 	H 	0.13247	0.44643	0.80033	0.003
Mof_C 	C 	0.10971	0.47534	0.85525	-0.189
Mof_H 	H 	0.10917	0.49493	0.82863	0.101
Mof_C 	C 	0.0959	0.47543	0.91046	0.155
Mof_C 	C 	0.09836	0.44738	0.95105	-0.179
Mof_H 	H 	0.09007	0.44793	0.98873	0.097
Mof_C 	C 	0.1133	0.41857	0.9352	0.086
Mof_H 	H 	0.11417	0.39933	0.96203	0.015
Mof_C 	C 	0.07744	0.50391	0.93011	-0.126
Mof_C 	C 	0.03981	0.48601	0.96404	-0.013
Mof_H 	H 	0.02747	0.45683	0.97613	0.035
Mof_H 	H 	0.17557	0.56533	0.93773	-0.643
Mof_H 	H 	0.21337	0.62913	0.85693	1.017
Mof_O 	O 	0.80781	0.69438	0.23357	-0.41
Mof_O 	O 	0.82216	0.7229	0.14458	-0.427
Mof_C 	C 	0.80914	0.72065	0.19426	0.373
Mof_C 	C 	0.79344	0.75201	0.21302	-0.144
Mof_C 	C 	0.79102	0.78028	0.17156	0.078
Mof_H 	H 	0.79913	0.77977	0.13367	0.003
Mof_C 	C 	0.77637	0.80868	0.18859	-0.189
Mof_H 	H 	0.77583	0.82827	0.16197	0.101
Mof_C 	C 	0.76256	0.80877	0.2438	0.155
Mof_C 	C 	0.76502	0.78072	0.28439	-0.179
Mof_H 	H 	0.75673	0.78127	0.32207	0.097
Mof_C 	C 	0.77996	0.75191	0.26854	0.086
Mof_H 	H 	0.78083	0.73267	0.29537	0.015
Mof_C 	C 	0.7441	0.83725	0.26345	-0.126
Mof_C 	C 	0.70647	0.81935	0.29738	-0.013
Mof_H 	H 	0.69413	0.79017	0.30947	0.035
Mof_H 	H 	0.84223	0.89867	0.27107	-0.643
Mof_H 	H 	0.88003	0.96247	0.19027	1.017
Mof_O 	O 	0.55323	0.52552	0.5669	-0.41
Mof_O 	O 	0.5674	0.51117	0.47791	-0.427
Mof_C 	C 	0.57817	0.52419	0.52759	0.373
Mof_C 	C 	0.62523	0.53989	0.54635	-0.144
Mof_C 	C 	0.65592	0.54231	0.50489	0.078
Mof_H 	H 	0.6473	0.5342	0.467	0.003
Mof_C 	C 	0.69897	0.55696	0.52192	-0.189
Mof_H 	H 	0.7191	0.5575	0.4953	0.101
Mof_C 	C 	0.71287	0.57077	0.57713	0.155
Mof_C 	C 	0.68236	0.56831	0.61772	-0.179
Mof_H 	H 	0.6912	0.5766	0.6554	0.097
Mof_C 	C 	0.63861	0.55337	0.60187	0.086
Mof_H 	H 	0.6185	0.5525	0.6287	0.015
Mof_C 	C 	0.75981	0.58923	0.59678	-0.126
Mof_C 	C 	0.77954	0.62686	0.63071	-0.013
Mof_H 	H 	0.7627	0.6392	0.6428	0.035
Mof_H 	H 	0.7231	0.4911	0.6044	-0.643
Mof_H 	H 	0.7491	0.4533	0.5236	1.017
Mof_O 	O 	0.2199	0.85885	0.90023	-0.41
Mof_O 	O 	0.23407	0.8445	0.81124	-0.427
Mof_C 	C 	0.24484	0.85752	0.86092	0.373
Mof_C 	C 	0.2919	0.87322	0.87968	-0.144
Mof_C 	C 	0.32259	0.87564	0.83822	0.078
Mof_H 	H 	0.31397	0.86753	0.80033	0.003
Mof_C 	C 	0.36564	0.89029	0.85525	-0.189
Mof_H 	H 	0.38577	0.89083	0.82863	0.101
Mof_C 	C 	0.37954	0.9041	0.91046	0.155
Mof_C 	C 	0.34903	0.90164	0.95105	-0.179
Mof_H 	H 	0.35787	0.90993	0.98873	0.097
Mof_C 	C 	0.30528	0.8867	0.9352	0.086
Mof_H 	H 	0.28517	0.88583	0.96203	0.015
Mof_C 	C 	0.42648	0.92256	0.93011	-0.126
Mof_C 	C 	0.44621	0.96019	0.96404	-0.013
Mof_H 	H 	0.42937	0.97253	0.97613	0.035
Mof_H 	H 	0.38977	0.82443	0.93773	-0.643
Mof_H 	H 	0.41577	0.78663	0.85693	1.017
Mof_O 	O 	0.88656	0.19219	0.23357	-0.41
Mof_O 	O 	0.90073	0.17784	0.14458	-0.427
Mof_C 	C 	0.9115	0.19086	0.19426	0.373
Mof_C 	C 	0.95856	0.20656	0.21302	-0.144
Mof_C 	C 	0.98925	0.20898	0.17156	0.078
Mof_H 	H 	0.98063	0.20087	0.13367	0.003
Mof_C 	C 	0.0323	0.22363	0.18859	-0.189
Mof_H 	H 	0.05243	0.22417	0.16197	0.101
Mof_C 	C 	0.0462	0.23744	0.2438	0.155
Mof_C 	C 	0.01569	0.23498	0.28439	-0.179
Mof_H 	H 	0.02453	0.24327	0.32207	0.097
Mof_C 	C 	0.97194	0.22004	0.26854	0.086
Mof_H 	H 	0.95183	0.21917	0.29537	0.015
Mof_C 	C 	0.09314	0.2559	0.26345	-0.126
Mof_C 	C 	0.11287	0.29353	0.29738	-0.013
Mof_H 	H 	0.09603	0.30587	0.30947	0.035
Mof_H 	H 	0.05643	0.15777	0.27107	-0.643
Mof_H 	H 	0.08243	0.11997	0.19027	1.017
Mof_Cu	Cu	0.50837	0.01674	0.44765	0.903
Mof_Cu	Cu	0.17504	0.35007	0.78098	0.903
Mof_Cu	Cu	0.8417	0.68341	0.11432	0.903
Mof_Cu	Cu	0.98326	0.49163	0.44765	0.903
Mof_Cu	Cu	0.64993	0.82496	0.78098	0.903
Mof_Cu	Cu	0.31659	0.1583	0.11432	0.903
Mof_Cu	Cu	0.50837	0.49163	0.44765	0.903
Mof_Cu	Cu	0.17504	0.82496	0.78098	0.903
Mof_Cu	Cu	0.8417	0.1583	0.11432	0.903
Mof_Cu	Cu	0.01674	0.50837	0.55235	0.903
Mof_Cu	Cu	0.68341	0.8417	0.88568	0.903
Mof_Cu	Cu	0.35007	0.17504	0.21902	0.903
Mof_Cu	Cu	0.49163	0.98326	0.55235	0.903
Mof_Cu	Cu	0.1583	0.31659	0.88568	0.903
Mof_Cu	Cu	0.82496	0.64993	0.21902	0.903
Mof_Cu	Cu	0.49163	0.50837	0.55235	0.903
Mof_Cu	Cu	0.1583	0.8417	0.88568	0.903
Mof_Cu	Cu	0.82496	0.17504	0.21902	0.903
Mof_O 	O 	0.76643	0.23357	0.54467	-0.621
Mof_C 	C 	0.82336	0.17664	0.6472	-0.01
Mof_C 	C 	0.78514	0.21486	0.5801	0.261
Mof_C 	C 	0.74561	0.25439	0.5799	2.207
Mof_C 	C 	0.72687	0.27313	0.5474	-3.428
Mof_H 	H 	0.7142	0.2858	0.572	1.031
Mof_O 	O 	0.4331	0.5669	0.878	-0.621
Mof_C 	C 	0.49003	0.50997	0.98053	-0.01
Mof_C 	C 	0.45181	0.54819	0.91343	0.261
Mof_C 	C 	0.41228	0.58772	0.91323	2.207
Mof_C 	C 	0.39354	0.60646	0.88073	-3.428
Mof_H 	H 	0.38087	0.61913	0.90533	1.031
Mof_O 	O 	0.09976	0.90024	0.21134	-0.621
Mof_C 	C 	0.15669	0.84331	0.31387	-0.01
Mof_C 	C 	0.11847	0.88153	0.24677	0.261
Mof_C 	C 	0.07894	0.92106	0.24657	2.208
Mof_C 	C 	0.0602	0.9398	0.21407	-3.43
Mof_H 	H 	0.04753	0.95247	0.23867	1.032
Mof_O 	O 	0.76643	0.53286	0.54467	-0.621
Mof_C 	C 	0.82336	0.64672	0.6472	-0.01
Mof_C 	C 	0.78514	0.57028	0.5801	0.261
Mof_C 	C 	0.74561	0.49122	0.5799	2.207
Mof_C 	C 	0.72687	0.45374	0.5474	-3.428
Mof_H 	H 	0.7142	0.4284	0.572	1.031
Mof_O 	O 	0.4331	0.86619	0.878	-0.621
Mof_C 	C 	0.49003	0.98005	0.98053	-0.01
Mof_C 	C 	0.45181	0.90361	0.91343	0.261
Mof_C 	C 	0.41228	0.82455	0.91323	2.207
Mof_C 	C 	0.39354	0.78707	0.88073	-3.428
Mof_H 	H 	0.38087	0.76173	0.90533	1.031
Mof_O 	O 	0.09976	0.19953	0.21134	-0.621
Mof_C 	C 	0.15669	0.31339	0.31387	-0.01
Mof_C 	C 	0.11847	0.23695	0.24677	0.261
Mof_C 	C 	0.07894	0.15789	0.24657	2.207
Mof_C 	C 	0.0602	0.12041	0.21407	-3.429
Mof_H 	H 	0.04753	0.09507	0.23867	1.031
Mof_O 	O 	0.46714	0.23357	0.54467	-0.621
Mof_C 	C 	0.35328	0.17664	0.6472	-0.01
Mof_C 	C 	0.42972	0.21486	0.5801	0.261
Mof_C 	C 	0.50878	0.25439	0.5799	2.207
Mof_C 	C 	0.54626	0.27313	0.5474	-3.428
Mof_H 	H 	0.5716	0.2858	0.572	1.031
Mof_O 	O 	0.13381	0.5669	0.878	-0.621
Mof_C 	C 	0.01995	0.50997	0.98053	-0.01
Mof_C 	C 	0.09639	0.54819	0.91343	0.261
Mof_C 	C 	0.17545	0.58772	0.91323	2.207
Mof_C 	C 	0.21293	0.60646	0.88073	-3.428
Mof_H 	H 	0.23827	0.61913	0.90533	1.031
Mof_O 	O 	0.80047	0.90024	0.21134	-0.621
Mof_C 	C 	0.68661	0.84331	0.31387	-0.01
Mof_C 	C 	0.76305	0.88153	0.24677	0.261
Mof_C 	C 	0.84211	0.92106	0.24657	2.207
Mof_C 	C 	0.87959	0.9398	0.21407	-3.429
Mof_H 	H 	0.90493	0.95247	0.23867	1.031
Mof_O 	O 	0.23357	0.76643	0.45533	-0.621
Mof_C 	C 	0.17664	0.82336	0.3528	-0.01
Mof_C 	C 	0.21486	0.78514	0.4199	0.261
Mof_C 	C 	0.25439	0.74561	0.4201	2.207
Mof_C 	C 	0.27313	0.72687	0.4526	-3.428
Mof_H 	H 	0.2858	0.7142	0.428	1.031
Mof_O 	O 	0.90024	0.09976	0.78866	-0.621
Mof_C 	C 	0.84331	0.15669	0.68613	-0.01
Mof_C 	C 	0.88153	0.11847	0.75323	0.261
Mof_C 	C 	0.92106	0.07894	0.75343	2.208
Mof_C 	C 	0.9398	0.0602	0.78593	-3.43
Mof_H 	H 	0.95247	0.04753	0.76133	1.032
Mof_O 	O 	0.5669	0.4331	0.122	-0.621
Mof_C 	C 	0.50997	0.49003	0.01947	-0.01
Mof_C 	C 	0.54819	0.45181	0.08657	0.261
Mof_C 	C 	0.58772	0.41228	0.08677	2.207
Mof_C 	C 	0.60646	0.39354	0.11927	-3.428
Mof_H 	H 	0.61913	0.38087	0.09467	1.031
Mof_O 	O 	0.53286	0.76643	0.45533	-0.621
Mof_C 	C 	0.64672	0.82336	0.3528	-0.01
Mof_C 	C 	0.57028	0.78514	0.4199	0.261
Mof_C 	C 	0.49122	0.74561	0.4201	2.207
Mof_C 	C 	0.45374	0.72687	0.4526	-3.428
Mof_H 	H 	0.4284	0.7142	0.428	1.031
Mof_O 	O 	0.19953	0.09976	0.78866	-0.621
Mof_C 	C 	0.31339	0.15669	0.68613	-0.01
Mof_C 	C 	0.23695	0.11847	0.75323	0.261
Mof_C 	C 	0.15789	0.07894	0.75343	2.207
Mof_C 	C 	0.12041	0.0602	0.78593	-3.429
Mof_H 	H 	0.09507	0.04753	0.76133	1.031
Mof_O 	O 	0.86619	0.4331	0.122	-0.621
Mof_C 	C 	0.98005	0.49003	0.01947	-0.01
Mof_C 	C 	0.90361	0.45181	0.08657	0.261
Mof_C 	C 	0.82455	0.41228	0.08677	2.207
Mof_C 	C 	0.78707	0.39354	0.11927	-3.428
Mof_H 	H 	0.76173	0.38087	0.09467	1.031
Mof_O 	O 	0.23357	0.46714	0.45533	-0.621
Mof_C 	C 	0.17664	0.35328	0.3528	-0.01
Mof_C 	C 	0.21486	0.42972	0.4199	0.261
Mof_C 	C 	0.25439	0.50878	0.4201	2.207
Mof_C 	C 	0.27313	0.54626	0.4526	-3.428
Mof_H 	H 	0.2858	0.5716	0.428	1.031
Mof_O 	O 	0.90024	0.80047	0.78866	-0.621
Mof_C 	C 	0.84331	0.68661	0.68613	-0.01
Mof_C 	C 	0.88153	0.76305	0.75323	0.261
Mof_C 	C 	0.92106	0.84211	0.75343	2.207
Mof_C 	C 	0.9398	0.87959	0.78593	-3.429
Mof_H 	H 	0.95247	0.90493	0.76133	1.031
Mof_O 	O 	0.5669	0.13381	0.122	-0.621
Mof_C 	C 	0.50997	0.01995	0.01947	-0.01
Mof_C 	C 	0.54819	0.09639	0.08657	0.261
Mof_C 	C 	0.58772	0.17545	0.08677	2.207
Mof_C 	C 	0.60646	0.21293	0.11927	-3.428
Mof_H 	H 	0.61913	0.23827	0.09467	1.031
_end
