data_functionalizedCrystal
_audit_creation_method	'EQeq! by Chris Wilmer'
_symmetry_space_group_name_H-M	'P1'
_symmetry_Int_Tables_number	1
_symmetry_cell_setting	triclinic
loop_
_symmetry_equiv_pos_as_xyz
  x,y,z
_cell_length_a	18.31
_cell_length_b	18.3527
_cell_length_c	20.2954
_cell_angle_alpha	90
_cell_angle_beta	90
_cell_angle_gamma	90
loop_
_atom_site_label
_atom_site_type_symbol
_atom_site_fract_x
_atom_site_fract_y
_atom_site_fract_z
_atom_site_charge
Mof_Ag	Ag	0.15932	0.85647	0.65114	0.586
Mof_Si	Si	0.53967	0.83228	0.62889	0.91
Mof_Si	Si	0.0356	0.66895	0.92963	0.847
Mof_N 	N 	0.2837	0.8529	0.6379	-0.159
Mof_N 	N 	0.6109	0.728	0.4284	-0.151
Mof_N 	N 	0.1226	0.7959	0.7453	-0.161
Mof_N 	N 	0.9044	0.4621	0.8628	-0.163
Mof_C 	C 	0.3262	0.9131	0.6307	-0.044
Mof_H 	H 	0.3036	0.9596	0.6283	0.019
Mof_C 	C 	0.401	0.9087	0.627	0.076
Mof_H 	H 	0.4284	0.9523	0.6214	-0.024
Mof_C 	C 	0.4375	0.8437	0.6311	-0.306
Mof_C 	C 	0.3925	0.7822	0.6368	0.055
Mof_H 	H 	0.4138	0.7351	0.6385	-0.017
Mof_C 	C 	0.3178	0.7893	0.64	-0.026
Mof_H 	H 	0.2892	0.7464	0.644	0.015
Mof_C 	C 	0.5417	0.7292	0.4466	-0.033
Mof_H 	H 	0.507	0.706	0.4189	0.017
Mof_C 	C 	0.5162	0.7627	0.5047	0.061
Mof_H 	H 	0.4655	0.7624	0.5149	-0.014
Mof_C 	C 	0.565	0.7958	0.5464	-0.316
Mof_C 	C 	0.6373	0.7958	0.5248	0.062
Mof_H 	H 	0.6735	0.8195	0.5505	-0.019
Mof_C 	C 	0.6569	0.7626	0.4678	-0.036
Mof_H 	H 	0.7069	0.7642	0.4554	0.022
Mof_C 	C 	0.573	0.7734	0.6975	-0.561
Mof_H 	H 	0.5318	0.7493	0.7203	0.17
Mof_H 	H 	0.607	0.7357	0.681	0.165
Mof_C 	C 	0.6113	0.8253	0.7424	0.067
Mof_H 	H 	0.5767	0.841	0.7771	-0.006
Mof_H 	H 	0.652	0.7993	0.7643	-0.007
Mof_C 	C 	0.6398	0.8883	0.7108	-0.007
Mof_H 	H 	0.689	0.877	0.6935	0.013
Mof_H 	H 	0.6451	0.9276	0.7438	0.018
Mof_C 	C 	0.5919	0.9156	0.6543	-0.519
Mof_H 	H 	0.6221	0.9343	0.6175	0.151
Mof_H 	H 	0.5585	0.9546	0.6693	0.157
Mof_C 	C 	0.0604	0.7578	0.7432	-0.029
Mof_H 	H 	0.0337	0.7569	0.7031	0.013
Mof_C 	C 	0.0332	0.7199	0.7962	0.047
Mof_H 	H 	0.9888	0.6935	0.7918	-0.009
Mof_C 	C 	0.0697	0.7198	0.856	-0.291
Mof_C 	C 	0.1329	0.7612	0.8585	0.046
Mof_H 	H 	0.1602	0.7644	0.8982	-0.019
Mof_C 	C 	0.156	0.7977	0.8026	-0.02
Mof_H 	H 	0.1991	0.8263	0.8059	0.019
Mof_C 	C 	0.8725	0.5268	0.8696	-0.028
Mof_H 	H 	0.8215	0.5304	0.8616	0.013
Mof_C 	C 	0.9094	0.5884	0.8877	0.048
Mof_H 	H 	0.8836	0.6331	0.8915	-0.017
Mof_C 	C 	0.9842	0.5868	0.9005	-0.291
Mof_C 	C 	0.0153	0.5208	0.8928	0.06
Mof_H 	H 	0.0663	0.5157	0.9001	-0.021
Mof_C 	C 	0.9753	0.4602	0.8747	-0.032
Mof_H 	H 	-1.11874e-32	0.4149	0.8706	0.013
Mof_C 	C 	0.9658	0.7289	0.9813	-0.497
Mof_H 	H 	0.96	0.7783	0.9623	0.15
Mof_H 	H 	0.9174	0.7052	0.9848	0.153
Mof_C 	C 	0.0025	0.731	0.0432	0.089
Mof_H 	H 	0.9657	0.737	0.0785	-0.005
Mof_H 	H 	0.0349	0.7742	0.0442	-0.017
Mof_C 	C 	0.0468	0.665	0.0574	-0.069
Mof_H 	H 	0.0142	0.6228	0.0648	0.029
Mof_H 	H 	0.076	0.6728	0.0978	0.038
Mof_C 	C 	0.1006	0.6486	0.9958	-0.502
Mof_H 	H 	0.1172	0.5973	0.9948	0.146
Mof_H 	H 	0.1434	0.6816	0.995	0.146
Mof_Ag	Ag	0.34068	0.14353	0.15114	0.586
Mof_Si	Si	0.96033	0.16772	0.12889	0.903
Mof_Si	Si	0.4644	0.33105	0.42963	0.857
Mof_N 	N 	0.2163	0.1471	0.1379	-0.16
Mof_N 	N 	0.8891	0.272	0.9284	-0.152
Mof_N 	N 	0.3774	0.2041	0.2453	-0.16
Mof_N 	N 	0.5956	0.5379	0.3628	-0.161
Mof_C 	C 	0.1738	0.0869	0.1307	-0.042
Mof_H 	H 	0.1964	0.0404	0.1283	0.02
Mof_C 	C 	0.099	0.0913	0.127	0.074
Mof_H 	H 	0.0716	0.0477	0.1214	-0.022
Mof_C 	C 	0.0625	0.1563	0.1311	-0.302
Mof_C 	C 	0.1075	0.2178	0.1368	0.053
Mof_H 	H 	0.0862	0.2649	0.1385	-0.016
Mof_C 	C 	0.1822	0.2107	0.14	-0.025
Mof_H 	H 	0.2108	0.2536	0.144	0.015
Mof_C 	C 	0.9583	0.2708	0.9466	-0.03
Mof_H 	H 	0.993	0.294	0.9189	0.016
Mof_C 	C 	0.9838	0.2373	0.0047	0.055
Mof_H 	H 	0.0345	0.2376	0.0149	-0.01
Mof_C 	C 	0.935	0.2042	0.0464	-0.312
Mof_C 	C 	0.8627	0.2042	0.0248	0.06
Mof_H 	H 	0.8265	0.1805	0.0505	-0.019
Mof_C 	C 	0.8431	0.2374	0.9678	-0.035
Mof_H 	H 	0.7931	0.2358	0.9554	0.021
Mof_C 	C 	0.927	0.2266	0.1975	-0.559
Mof_H 	H 	0.9682	0.2507	0.2203	0.169
Mof_H 	H 	0.893	0.2643	0.181	0.165
Mof_C 	C 	0.8887	0.1747	0.2424	0.067
Mof_H 	H 	0.9233	0.159	0.2771	-0.006
Mof_H 	H 	0.848	0.2007	0.2643	-0.007
Mof_C 	C 	0.8602	0.1117	0.2108	-0.007
Mof_H 	H 	0.811	0.123	0.1935	0.013
Mof_H 	H 	0.8549	0.0724	0.2438	0.018
Mof_C 	C 	0.9081	0.0844	0.1543	-0.517
Mof_H 	H 	0.8779	0.0657	0.1175	0.15
Mof_H 	H 	0.9415	0.0454	0.1693	0.156
Mof_C 	C 	0.4396	0.2422	0.2432	-0.032
Mof_H 	H 	0.4663	0.2431	0.2031	0.014
Mof_C 	C 	0.4668	0.2801	0.2962	0.054
Mof_H 	H 	0.5112	0.3065	0.2918	-0.013
Mof_C 	C 	0.4303	0.2802	0.356	-0.295
Mof_C 	C 	0.3671	0.2388	0.3585	0.049
Mof_H 	H 	0.3398	0.2356	0.3982	-0.02
Mof_C 	C 	0.344	0.2023	0.3026	-0.022
Mof_H 	H 	0.3009	0.1737	0.3059	0.019
Mof_C 	C 	0.6275	0.4732	0.3696	-0.031
Mof_H 	H 	0.6785	0.4696	0.3616	0.014
Mof_C 	C 	0.5906	0.4116	0.3877	0.052
Mof_H 	H 	0.6164	0.3669	0.3915	-0.019
Mof_C 	C 	0.5158	0.4132	0.4005	-0.299
Mof_C 	C 	0.4847	0.4792	0.3928	0.069
Mof_H 	H 	0.4337	0.4843	0.4001	-0.024
Mof_C 	C 	0.5247	0.5398	0.3747	-0.038
Mof_H 	H 	0.5	0.5851	0.3706	0.015
Mof_C 	C 	0.5342	0.2711	0.4813	-0.508
Mof_H 	H 	0.54	0.2217	0.4623	0.152
Mof_H 	H 	0.5826	0.2948	0.4848	0.155
Mof_C 	C 	0.4975	0.269	0.5432	0.1
Mof_H 	H 	0.5343	0.263	0.5785	-0.009
Mof_H 	H 	0.4651	0.2258	0.5442	-0.019
Mof_C 	C 	0.4532	0.335	0.5574	-0.074
Mof_H 	H 	0.4858	0.3772	0.5648	0.03
Mof_H 	H 	0.424	0.3272	0.5978	0.039
Mof_C 	C 	0.3994	0.3514	0.4958	-0.503
Mof_H 	H 	0.3828	0.4027	0.4948	0.147
Mof_H 	H 	0.3566	0.3184	0.495	0.147
Mof_Ag	Ag	0.84068	0.35647	0.84886	0.586
Mof_Si	Si	0.46033	0.33228	0.87111	0.908
Mof_Si	Si	0.9644	0.16895	0.57037	0.849
Mof_N 	N 	0.7163	0.3529	0.8621	-0.159
Mof_N 	N 	0.3891	0.228	0.0716	-0.152
Mof_N 	N 	0.8774	0.2959	0.7547	-0.16
Mof_N 	N 	0.0956	0.9621	0.6372	-0.164
Mof_C 	C 	0.6738	0.4131	0.8693	-0.044
Mof_H 	H 	0.6964	0.4596	0.8717	0.019
Mof_C 	C 	0.599	0.4087	0.873	0.076
Mof_H 	H 	0.5716	0.4523	0.8786	-0.024
Mof_C 	C 	0.5625	0.3437	0.8689	-0.306
Mof_C 	C 	0.6075	0.2822	0.8632	0.055
Mof_H 	H 	0.5862	0.2351	0.8615	-0.017
Mof_C 	C 	0.6822	0.2893	0.86	-0.026
Mof_H 	H 	0.7108	0.2464	0.856	0.015
Mof_C 	C 	0.4583	0.2292	0.0534	-0.031
Mof_H 	H 	0.493	0.206	0.0811	0.017
Mof_C 	C 	0.4838	0.2627	0.9953	0.059
Mof_H 	H 	0.5345	0.2624	0.9851	-0.013
Mof_C 	C 	0.435	0.2958	0.9536	-0.314
Mof_C 	C 	0.3627	0.2958	0.9752	0.06
Mof_H 	H 	0.3265	0.3195	0.9495	-0.019
Mof_C 	C 	0.3431	0.2626	0.0322	-0.033
Mof_H 	H 	0.2931	0.2642	0.0446	0.021
Mof_C 	C 	0.427	0.2734	0.8025	-0.561
Mof_H 	H 	0.4682	0.2493	0.7797	0.17
Mof_H 	H 	0.393	0.2357	0.819	0.165
Mof_C 	C 	0.3887	0.3253	0.7576	0.067
Mof_H 	H 	0.4233	0.341	0.7229	-0.006
Mof_H 	H 	0.348	0.2993	0.7357	-0.007
Mof_C 	C 	0.3602	0.3883	0.7892	-0.006
Mof_H 	H 	0.311	0.377	0.8065	0.013
Mof_H 	H 	0.3549	0.4276	0.7562	0.018
Mof_C 	C 	0.4081	0.4156	0.8457	-0.519
Mof_H 	H 	0.3779	0.4343	0.8825	0.151
Mof_H 	H 	0.4415	0.4546	0.8307	0.157
Mof_C 	C 	0.9396	0.2578	0.7568	-0.03
Mof_H 	H 	0.9663	0.2569	0.7969	0.013
Mof_C 	C 	0.9668	0.2199	0.7038	0.05
Mof_H 	H 	0.0112	0.1935	0.7082	-0.011
Mof_C 	C 	0.9303	0.2198	0.644	-0.292
Mof_C 	C 	0.8671	0.2612	0.6415	0.047
Mof_H 	H 	0.8398	0.2644	0.6018	-0.019
Mof_C 	C 	0.844	0.2977	0.6974	-0.021
Mof_H 	H 	0.8009	0.3263	0.6941	0.019
Mof_C 	C 	0.1275	0.0268	0.6304	-0.025
Mof_H 	H 	0.1785	0.0304	0.6384	0.012
Mof_C 	C 	0.0906	0.0884	0.6123	0.047
Mof_H 	H 	0.1164	0.1331	0.6085	-0.017
Mof_C 	C 	0.0158	0.0868	0.5995	-0.291
Mof_C 	C 	0.9847	0.0208	0.6072	0.063
Mof_H 	H 	0.9337	0.0157	0.5999	-0.022
Mof_C 	C 	0.0247	0.9602	0.6253	-0.037
Mof_H 	H 	-1.21898e-32	0.9149	0.6294	0.014
Mof_C 	C 	0.0342	0.2289	0.5187	-0.499
Mof_H 	H 	0.04	0.2783	0.5377	0.15
Mof_H 	H 	0.0826	0.2052	0.5152	0.153
Mof_C 	C 	0.9975	0.231	0.4568	0.091
Mof_H 	H 	0.0343	0.237	0.4215	-0.005
Mof_H 	H 	0.9651	0.2742	0.4558	-0.017
Mof_C 	C 	0.9532	0.165	0.4426	-0.07
Mof_H 	H 	0.9858	0.1228	0.4352	0.028
Mof_H 	H 	0.924	0.1728	0.4022	0.038
Mof_C 	C 	0.8994	0.1486	0.5042	-0.502
Mof_H 	H 	0.8828	0.0973	0.5052	0.146
Mof_H 	H 	0.8566	0.1816	0.505	0.146
Mof_Ag	Ag	0.65932	0.64353	0.34886	0.586
Mof_Si	Si	0.03967	0.66772	0.37111	0.905
Mof_Si	Si	0.5356	0.83105	0.07037	0.857
Mof_N 	N 	0.7837	0.6471	0.3621	-0.16
Mof_N 	N 	0.1109	0.772	0.5716	-0.152
Mof_N 	N 	0.6226	0.7041	0.2547	-0.16
Mof_N 	N 	0.4044	0.0379	0.1372	-0.161
Mof_C 	C 	0.8262	0.5869	0.3693	-0.043
Mof_H 	H 	0.8036	0.5404	0.3717	0.019
Mof_C 	C 	0.901	0.5913	0.373	0.075
Mof_H 	H 	0.9284	0.5477	0.3786	-0.024
Mof_C 	C 	0.9375	0.6563	0.3689	-0.304
Mof_C 	C 	0.8925	0.7178	0.3632	0.054
Mof_H 	H 	0.9138	0.7649	0.3615	-0.016
Mof_C 	C 	0.8178	0.7107	0.36	-0.026
Mof_H 	H 	0.7892	0.7536	0.356	0.015
Mof_C 	C 	0.0417	0.7708	0.5534	-0.03
Mof_H 	H 	0.007	0.794	0.5811	0.016
Mof_C 	C 	0.0162	0.7373	0.4953	0.056
Mof_H 	H 	0.9655	0.7376	0.4851	-0.011
Mof_C 	C 	0.065	0.7042	0.4536	-0.313
Mof_C 	C 	0.1373	0.7042	0.4752	0.061
Mof_H 	H 	0.1735	0.6805	0.4495	-0.019
Mof_C 	C 	0.1569	0.7374	0.5322	-0.035
Mof_H 	H 	0.2069	0.7358	0.5446	0.021
Mof_C 	C 	0.073	0.7266	0.3025	-0.56
Mof_H 	H 	0.0318	0.7507	0.2797	0.169
Mof_H 	H 	0.107	0.7643	0.319	0.165
Mof_C 	C 	0.1113	0.6747	0.2576	0.067
Mof_H 	H 	0.0767	0.659	0.2229	-0.006
Mof_H 	H 	0.152	0.7007	0.2357	-0.007
Mof_C 	C 	0.1398	0.6117	0.2892	-0.007
Mof_H 	H 	0.189	0.623	0.3065	0.013
Mof_H 	H 	0.1451	0.5724	0.2562	0.018
Mof_C 	C 	0.0919	0.5844	0.3457	-0.518
Mof_H 	H 	0.1221	0.5657	0.3825	0.151
Mof_H 	H 	0.0585	0.5454	0.3307	0.157
Mof_C 	C 	0.5604	0.7422	0.2568	-0.032
Mof_H 	H 	0.5337	0.7431	0.2969	0.014
Mof_C 	C 	0.5332	0.7801	0.2038	0.054
Mof_H 	H 	0.4888	0.8065	0.2082	-0.013
Mof_C 	C 	0.5697	0.7802	0.144	-0.295
Mof_C 	C 	0.6329	0.7388	0.1415	0.049
Mof_H 	H 	0.6602	0.7356	0.1018	-0.02
Mof_C 	C 	0.656	0.7023	0.1974	-0.022
Mof_H 	H 	0.6991	0.6737	0.1941	0.019
Mof_C 	C 	0.3725	0.9732	0.1304	-0.033
Mof_H 	H 	0.3215	0.9696	0.1384	0.013
Mof_C 	C 	0.4094	0.9116	0.1123	0.052
Mof_H 	H 	0.3836	0.8669	0.1085	-0.019
Mof_C 	C 	0.4842	0.9132	0.0995	-0.298
Mof_C 	C 	0.5153	0.9792	0.1072	0.066
Mof_H 	H 	0.5663	0.9843	0.0999	-0.023
Mof_C 	C 	0.4753	0.0398	0.1253	-0.036
Mof_H 	H 	0.5	0.0851	0.1294	0.014
Mof_C 	C 	0.4658	0.7711	0.0187	-0.509
Mof_H 	H 	0.46	0.7217	0.0377	0.152
Mof_H 	H 	0.4174	0.7948	0.0152	0.155
Mof_C 	C 	0.5025	0.769	0.9568	0.101
Mof_H 	H 	0.4657	0.763	0.9215	-0.009
Mof_H 	H 	0.5349	0.7258	0.9558	-0.019
Mof_C 	C 	0.5468	0.835	0.9426	-0.074
Mof_H 	H 	0.5142	0.8772	0.9352	0.03
Mof_H 	H 	0.576	0.8272	0.9022	0.039
Mof_C 	C 	0.6006	0.8514	0.0042	-0.504
Mof_H 	H 	0.6172	0.9027	0.0052	0.147
Mof_H 	H 	0.6434	0.8184	0.005	0.147
Mof_Ag	Ag	0.33853	0.62509	0.84612	0.576
Mof_Si	Si	0.37575	0.00795	0.86529	0.872
Mof_Si	Si	0.04669	0.50959	0.64992	0.893
Mof_N 	N 	0.3476	0.7523	0.8533	-0.159
Mof_N 	N 	0.5653	0.0966	0.7305	-0.153
Mof_N 	N 	0.2393	0.5843	0.7877	-0.163
Mof_N 	N 	0.1306	0.4183	0.4474	-0.166
Mof_C 	C 	0.3205	0.7927	0.9035	-0.023
Mof_H 	H 	0.2953	0.768	0.9378	0.011
Mof_C 	C 	0.327	0.8663	0.9083	0.037
Mof_H 	H 	0.3052	0.8911	0.9443	-0.012
Mof_C 	C 	0.366	0.9063	0.8601	-0.285
Mof_C 	C 	0.395	0.8633	0.8086	0.043
Mof_H 	H 	0.4222	0.8859	0.7744	-0.005
Mof_C 	C 	0.3844	0.789	0.8076	-0.019
Mof_H 	H 	0.4046	0.7623	0.7719	0.014
Mof_C 	C 	0.4945	0.1007	0.7127	-0.044
Mof_H 	H 	0.4831	0.1234	0.672	0.021
Mof_C 	C 	0.4378	0.074	0.75	0.06
Mof_H 	H 	0.389	0.0791	0.7348	-0.023
Mof_C 	C 	0.4511	0.0399	0.8093	-0.299
Mof_C 	C 	0.5245	0.0358	0.8283	0.05
Mof_H 	H 	0.5377	0.013	0.8686	-0.017
Mof_C 	C 	0.577	0.0649	0.7882	-0.03
Mof_H 	H 	0.6261	0.0622	0.803	0.023
Mof_C 	C 	0.2861	0.0548	0.8502	-0.516
Mof_H 	H 	0.2902	0.091	0.8142	0.15
Mof_H 	H 	0.2474	0.0193	0.8391	0.154
Mof_C 	C 	0.2713	0.0912	0.9155	0.013
Mof_H 	H 	0.2686	0.1444	0.9073	0.008
Mof_H 	H 	0.2221	0.0756	0.9301	0.01
Mof_C 	C 	0.3172	0.0808	0.9659	0.032
Mof_H 	H 	0.29	0.0553	0.0013	0.001
Mof_H 	H 	0.3311	0.1292	0.9834	0.003
Mof_C 	C 	0.3865	0.0386	0.953	-0.525
Mof_H 	H 	0.3908	0.9963	0.9831	0.159
Mof_H 	H 	0.4301	0.07	0.9582	0.156
Mof_C 	C 	0.2033	0.5219	0.7993	-0.032
Mof_H 	H 	0.2168	0.4935	0.8365	0.015
Mof_C 	C 	0.1475	0.4974	0.7593	0.061
Mof_H 	H 	0.1241	0.4526	0.7695	-0.021
Mof_C 	C 	0.1247	0.5366	0.7043	-0.296
Mof_C 	C 	0.1626	0.6026	0.694	0.048
Mof_H 	H 	0.1497	0.6333	0.6581	-0.012
Mof_C 	C 	0.2186	0.6228	0.7361	-0.017
Mof_H 	H 	0.2436	0.6671	0.7273	0.013
Mof_C 	C 	0.0603	0.4195	0.4638	-0.037
Mof_H 	H 	0.0258	0.4003	0.4336	0.017
Mof_C 	C 	0.0351	0.4474	0.5232	0.055
Mof_H 	H 	0.9842	0.4469	0.5323	-0.019
Mof_C 	C 	0.0824	0.4758	0.569	-0.308
Mof_C 	C 	0.1542	0.4766	0.5494	0.06
Mof_H 	H 	0.1902	0.4967	0.5777	-0.012
Mof_C 	C 	0.1746	0.4486	0.4893	-0.027
Mof_H 	H 	0.2247	0.4518	0.4776	0.009
Mof_C 	C 	0.978	0.5848	0.64	-0.503
Mof_H 	H 	0.9989	0.6328	0.6519	0.154
Mof_H 	H 	0.9584	0.5868	0.5946	0.153
Mof_C 	C 	0.9191	0.5599	0.6902	-0.03
Mof_H 	H 	0.9347	0.5727	0.7355	0.025
Mof_H 	H 	0.8724	0.5852	0.681	0.023
Mof_C 	C 	0.9086	0.4801	0.6849	0.076
Mof_H 	H 	0.8851	0.468	0.6424	-0.013
Mof_H 	H 	0.8765	0.4628	0.7209	-0.017
Mof_C 	C 	0.9826	0.4431	0.6895	-0.55
Mof_H 	H 	0.9825	0.3961	0.6656	0.165
Mof_H 	H 	0.9963	0.4342	0.736	0.166
Mof_Ag	Ag	0.16147	0.37491	0.34612	0.576
Mof_Si	Si	0.12425	0.99205	0.36529	0.869
Mof_Si	Si	0.45331	0.49041	0.14992	0.895
Mof_N 	N 	0.1524	0.2477	0.3533	-0.159
Mof_N 	N 	0.9347	0.9034	0.2305	-0.15
Mof_N 	N 	0.2607	0.4157	0.2877	-0.163
Mof_N 	N 	0.3694	0.5817	0.9474	-0.165
Mof_C 	C 	0.1795	0.2073	0.4035	-0.022
Mof_H 	H 	0.2047	0.232	0.4378	0.011
Mof_C 	C 	0.173	0.1337	0.4083	0.036
Mof_H 	H 	0.1948	0.1089	0.4443	-0.01
Mof_C 	C 	0.134	0.0937	0.3601	-0.281
Mof_C 	C 	0.105	0.1367	0.3086	0.042
Mof_H 	H 	0.0778	0.1141	0.2744	-0.004
Mof_C 	C 	0.1156	0.211	0.3076	-0.018
Mof_H 	H 	0.0954	0.2377	0.2719	0.014
Mof_C 	C 	0.0055	0.8993	0.2127	-0.048
Mof_H 	H 	0.0169	0.8766	0.172	0.022
Mof_C 	C 	0.0622	0.926	0.25	0.063
Mof_H 	H 	0.111	0.9209	0.2348	-0.025
Mof_C 	C 	0.0489	0.9601	0.3093	-0.303
Mof_C 	C 	0.9755	0.9642	0.3283	0.056
Mof_H 	H 	0.9623	0.987	0.3686	-0.018
Mof_C 	C 	0.923	0.9351	0.2882	-0.031
Mof_H 	H 	0.8739	0.9378	0.303	0.024
Mof_C 	C 	0.2139	0.9452	0.3502	-0.51
Mof_H 	H 	0.2098	0.909	0.3142	0.148
Mof_H 	H 	0.2526	0.9807	0.3391	0.151
Mof_C 	C 	0.2287	0.9088	0.4155	0.001
Mof_H 	H 	0.2314	0.8556	0.4073	0.012
Mof_H 	H 	0.2779	0.9244	0.4301	0.014
Mof_C 	C 	0.1828	0.9192	0.4659	0.048
Mof_H 	H 	0.21	0.9447	0.5013	-0.005
Mof_H 	H 	0.1689	0.8708	0.4834	-0.001
Mof_C 	C 	0.1135	0.9614	0.453	-0.536
Mof_H 	H 	0.1092	0.0037	0.4831	0.164
Mof_H 	H 	0.0699	0.93	0.4582	0.159
Mof_C 	C 	0.2967	0.4781	0.2993	-0.032
Mof_H 	H 	0.2832	0.5065	0.3365	0.015
Mof_C 	C 	0.3525	0.5026	0.2593	0.061
Mof_H 	H 	0.3759	0.5474	0.2695	-0.021
Mof_C 	C 	0.3753	0.4634	0.2043	-0.297
Mof_C 	C 	0.3374	0.3974	0.194	0.049
Mof_H 	H 	0.3503	0.3667	0.1581	-0.012
Mof_C 	C 	0.2814	0.3772	0.2361	-0.017
Mof_H 	H 	0.2564	0.3329	0.2273	0.013
Mof_C 	C 	0.4397	0.5805	0.9638	-0.038
Mof_H 	H 	0.4742	0.5997	0.9336	0.017
Mof_C 	C 	0.4649	0.5526	0.0232	0.056
Mof_H 	H 	0.5158	0.5531	0.0323	-0.02
Mof_C 	C 	0.4176	0.5242	0.069	-0.31
Mof_C 	C 	0.3458	0.5234	0.0494	0.061
Mof_H 	H 	0.3098	0.5033	0.0777	-0.012
Mof_C 	C 	0.3254	0.5514	0.9893	-0.029
Mof_H 	H 	0.2753	0.5482	0.9776	0.009
Mof_C 	C 	0.522	0.4152	0.14	-0.504
Mof_H 	H 	0.5011	0.3672	0.1519	0.154
Mof_H 	H 	0.5416	0.4132	0.0946	0.154
Mof_C 	C 	0.5809	0.4401	0.1902	-0.03
Mof_H 	H 	0.5653	0.4273	0.2355	0.025
Mof_H 	H 	0.6276	0.4148	0.181	0.023
Mof_C 	C 	0.5914	0.5199	0.1849	0.076
Mof_H 	H 	0.6149	0.532	0.1424	-0.013
Mof_H 	H 	0.6235	0.5372	0.2209	-0.017
Mof_C 	C 	0.5174	0.5569	0.1895	-0.551
Mof_H 	H 	0.5175	0.6039	0.1656	0.165
Mof_H 	H 	0.5037	0.5658	0.236	0.166
Mof_Ag	Ag	0.66147	0.12509	0.65388	0.576
Mof_Si	Si	0.62425	0.50795	0.63471	0.871
Mof_Si	Si	0.95331	0.00959	0.85008	0.894
Mof_N 	N 	0.6524	0.2523	0.6467	-0.159
Mof_N 	N 	0.4347	0.5966	0.7695	-0.153
Mof_N 	N 	0.7607	0.0843	0.7123	-0.161
Mof_N 	N 	0.8694	0.9183	0.0526	-0.163
Mof_C 	C 	0.6795	0.2927	0.5965	-0.023
Mof_H 	H 	0.7047	0.268	0.5622	0.011
Mof_C 	C 	0.673	0.3663	0.5917	0.037
Mof_H 	H 	0.6948	0.3911	0.5557	-0.011
Mof_C 	C 	0.634	0.4063	0.6399	-0.284
Mof_C 	C 	0.605	0.3633	0.6914	0.043
Mof_H 	H 	0.5778	0.3859	0.7256	-0.005
Mof_C 	C 	0.6156	0.289	0.6924	-0.018
Mof_H 	H 	0.5954	0.2623	0.7281	0.014
Mof_C 	C 	0.5055	0.6007	0.7873	-0.044
Mof_H 	H 	0.5169	0.6234	0.828	0.021
Mof_C 	C 	0.5622	0.574	0.75	0.06
Mof_H 	H 	0.611	0.5791	0.7652	-0.023
Mof_C 	C 	0.5489	0.5399	0.6907	-0.299
Mof_C 	C 	0.4755	0.5358	0.6717	0.05
Mof_H 	H 	0.4623	0.513	0.6314	-0.017
Mof_C 	C 	0.423	0.5649	0.7118	-0.029
Mof_H 	H 	0.3739	0.5622	0.697	0.023
Mof_C 	C 	0.7139	0.5548	0.6498	-0.513
Mof_H 	H 	0.7098	0.591	0.6858	0.149
Mof_H 	H 	0.7526	0.5193	0.6609	0.152
Mof_C 	C 	0.7287	0.5912	0.5845	0.006
Mof_H 	H 	0.7314	0.6444	0.5927	0.01
Mof_H 	H 	0.7779	0.5756	0.5699	0.013
Mof_C 	C 	0.6828	0.5808	0.5341	0.041
Mof_H 	H 	0.71	0.5553	0.4987	-0.003
Mof_H 	H 	0.6689	0.6292	0.5166	0.001
Mof_C 	C 	0.6135	0.5386	0.547	-0.528
Mof_H 	H 	0.6092	0.4963	0.5169	0.16
Mof_H 	H 	0.5699	0.57	0.5418	0.157
Mof_C 	C 	0.7967	0.0219	0.7007	-0.041
Mof_H 	H 	0.7832	0.9935	0.6635	0.02
Mof_C 	C 	0.8525	0.9974	0.7407	0.071
Mof_H 	H 	0.8759	0.9526	0.7305	-0.023
Mof_C 	C 	0.8753	0.0366	0.7957	-0.302
Mof_C 	C 	0.8374	0.1026	0.806	0.051
Mof_H 	H 	0.8503	0.1333	0.8419	-0.013
Mof_C 	C 	0.7814	0.1228	0.7639	-0.019
Mof_H 	H 	0.7564	0.1671	0.7727	0.013
Mof_C 	C 	0.9397	0.9195	0.0362	-0.044
Mof_H 	H 	0.9742	0.9003	0.0664	0.02
Mof_C 	C 	0.9649	0.9474	0.9768	0.068
Mof_H 	H 	0.0158	0.9469	0.9677	-0.026
Mof_C 	C 	0.9176	0.9758	0.931	-0.311
Mof_C 	C 	0.8458	0.9766	0.9506	0.065
Mof_H 	H 	0.8098	0.9967	0.9223	-0.013
Mof_C 	C 	0.8254	0.9486	0.0107	-0.032
Mof_H 	H 	0.7753	0.9518	0.0224	0.01
Mof_C 	C 	0.022	0.0848	0.86	-0.504
Mof_H 	H 	0.0011	0.1328	0.8481	0.154
Mof_H 	H 	0.0416	0.0868	0.9054	0.154
Mof_C 	C 	0.0809	0.0599	0.8098	-0.026
Mof_H 	H 	0.0653	0.0727	0.7645	0.025
Mof_H 	H 	0.1276	0.0852	0.819	0.022
Mof_C 	C 	0.0914	0.9801	0.8151	0.072
Mof_H 	H 	0.1149	0.968	0.8576	-0.013
Mof_H 	H 	0.1235	0.9628	0.7791	-0.016
Mof_C 	C 	0.0174	0.9431	0.8105	-0.55
Mof_H 	H 	0.0175	0.8961	0.8344	0.164
Mof_H 	H 	0.0037	0.9342	0.764	0.165
Mof_Ag	Ag	0.83853	0.87491	0.15388	0.577
Mof_Si	Si	0.87575	0.49205	0.13471	0.871
Mof_Si	Si	0.54669	0.99041	0.35008	0.894
Mof_N 	N 	0.8476	0.7477	0.1467	-0.159
Mof_N 	N 	0.0653	0.4034	0.2695	-0.152
Mof_N 	N 	0.7393	0.9157	0.2123	-0.163
Mof_N 	N 	0.6306	0.0817	0.5526	-0.166
Mof_C 	C 	0.8205	0.7073	0.0965	-0.023
Mof_H 	H 	0.7953	0.732	0.0622	0.011
Mof_C 	C 	0.827	0.6337	0.0917	0.037
Mof_H 	H 	0.8052	0.6089	0.0557	-0.011
Mof_C 	C 	0.866	0.5937	0.1399	-0.284
Mof_C 	C 	0.895	0.6367	0.1914	0.043
Mof_H 	H 	0.9222	0.6141	0.2256	-0.005
Mof_C 	C 	0.8844	0.711	0.1924	-0.019
Mof_H 	H 	0.9046	0.7377	0.2281	0.014
Mof_C 	C 	0.9945	0.3993	0.2873	-0.044
Mof_H 	H 	0.9831	0.3766	0.328	0.021
Mof_C 	C 	0.9378	0.426	0.25	0.061
Mof_H 	H 	0.889	0.4209	0.2652	-0.023
Mof_C 	C 	0.9511	0.4601	0.1907	-0.299
Mof_C 	C 	0.0245	0.4642	0.1717	0.051
Mof_H 	H 	0.0377	0.487	0.1314	-0.017
Mof_C 	C 	0.077	0.4351	0.2118	-0.03
Mof_H 	H 	0.1261	0.4378	0.197	0.023
Mof_C 	C 	0.7861	0.4452	0.1498	-0.513
Mof_H 	H 	0.7902	0.409	0.1858	0.149
Mof_H 	H 	0.7474	0.4807	0.1609	0.152
Mof_C 	C 	0.7713	0.4088	0.0845	0.007
Mof_H 	H 	0.7686	0.3556	0.0927	0.01
Mof_H 	H 	0.7221	0.4244	0.0699	0.012
Mof_C 	C 	0.8172	0.4192	0.0341	0.04
Mof_H 	H 	0.79	0.4447	0.9987	-0.003
Mof_H 	H 	0.8311	0.3708	0.0166	0.001
Mof_C 	C 	0.8865	0.4614	0.047	-0.528
Mof_H 	H 	0.8908	0.5037	0.0169	0.16
Mof_H 	H 	0.9301	0.43	0.0418	0.157
Mof_C 	C 	0.7033	0.9781	0.2007	-0.031
Mof_H 	H 	0.7168	0.0065	0.1635	0.015
Mof_C 	C 	0.6475	0.0026	0.2407	0.061
Mof_H 	H 	0.6241	0.0474	0.2305	-0.021
Mof_C 	C 	0.6247	0.9634	0.2957	-0.296
Mof_C 	C 	0.6626	0.8974	0.306	0.049
Mof_H 	H 	0.6497	0.8667	0.3419	-0.012
Mof_C 	C 	0.7186	0.8772	0.2639	-0.017
Mof_H 	H 	0.7436	0.8329	0.2727	0.013
Mof_C 	C 	0.5603	0.0805	0.5362	-0.037
Mof_H 	H 	0.5258	0.0997	0.5664	0.017
Mof_C 	C 	0.5351	0.0526	0.4768	0.055
Mof_H 	H 	0.4842	0.0531	0.4677	-0.019
Mof_C 	C 	0.5824	0.0242	0.431	-0.308
Mof_C 	C 	0.6542	0.0234	0.4506	0.06
Mof_H 	H 	0.6902	0.0033	0.4223	-0.012
Mof_C 	C 	0.6746	0.0514	0.5107	-0.028
Mof_H 	H 	0.7247	0.0482	0.5224	0.009
Mof_C 	C 	0.478	0.9152	0.36	-0.503
Mof_H 	H 	0.4989	0.8672	0.3481	0.154
Mof_H 	H 	0.4584	0.9132	0.4054	0.153
Mof_C 	C 	0.4191	0.9401	0.3098	-0.032
Mof_H 	H 	0.4347	0.9273	0.2645	0.025
Mof_H 	H 	0.3724	0.9148	0.319	0.024
Mof_C 	C 	0.4086	0.0199	0.3151	0.078
Mof_H 	H 	0.3851	0.032	0.3576	-0.013
Mof_H 	H 	0.3765	0.0372	0.2791	-0.017
Mof_C 	C 	0.4826	0.0569	0.3105	-0.551
Mof_H 	H 	0.4825	0.1039	0.3344	0.165
Mof_H 	H 	0.4963	0.0658	0.264	0.166
_end
