# CIF file generated by openbabel 3.1.0, see https://openbabel.org
data_I
_chemical_name_common 'FIRPAZ_clean'
_cell_length_a 15.695
_cell_length_b 15.695
_cell_length_c 18.546
_cell_angle_alpha 90
_cell_angle_beta 90
_cell_angle_gamma 120
_space_group_name_H-M_alt 'P 1'
_space_group_name_Hall 'P 1'
loop_
    _symmetry_equiv_pos_as_xyz
    x,y,z
loop_
    _atom_site_label
    _atom_site_type_symbol
    _atom_site_fract_x
    _atom_site_fract_y
    _atom_site_fract_z
    _atom_site_occupancy
    Ni1      Ni       0.82243    0.00000    0.00000    1.000
    Ni2      Ni       0.17757    0.17757    0.33333    1.000
    Ni3      Ni       0.00000    0.82243    0.66667    1.000
    H1       H        0.93130    0.31210    0.04810    1.000
    H2       H        0.70350    0.60160    0.51477    1.000
    H3       H        0.46020    0.96670    0.56417    1.000
    H4       H        0.99180    0.89460    0.51667    1.000
    H5       H        0.06610    0.56100    0.57123    1.000
    H6       H        0.50650    0.53980    0.89750    1.000
    H7       H        0.96670    0.46020    0.10250    1.000
    H8       H        0.93390    0.49490    0.76210    1.000
    H9       H        0.09720    0.10540    0.48333    1.000
    H10      H        0.61920    0.68790    0.95190    1.000
    H11      H        0.65450    0.80710    0.05250    1.000
    H12      H        0.34550    0.15260    0.28083    1.000
    H13      H        0.49350    0.03330    0.43583    1.000
    H14      H        0.90280    0.00820    0.85000    1.000
    H15      H        0.68790    0.61920    0.71477    1.000
    H16      H        0.96150    0.10850    0.75070    1.000
    H17      H        0.93800    0.64240    0.76030    1.000
    H18      H        0.19290    0.84740    0.71917    1.000
    H19      H        0.14700    0.03850    0.08403    1.000
    H20      H        0.00820    0.90280    0.81667    1.000
    H21      H        0.10540    0.09720    0.18333    1.000
    H22      H        0.06870    0.38080    0.28523    1.000
    H23      H        0.15260    0.34550    0.38583    1.000
    H24      H        0.29560    0.35760    0.23970    1.000
    H25      H        0.31210    0.93130    0.61857    1.000
    H26      H        0.43900    0.50510    0.23790    1.000
    H27      H        0.56100    0.06610    0.09543    1.000
    H28      H        0.53980    0.50650    0.76917    1.000
    H29      H        0.80710    0.65450    0.61417    1.000
    H30      H        0.10850    0.96150    0.91597    1.000
    H31      H        0.35760    0.29560    0.42697    1.000
    H32      H        0.89460    0.99180    0.15000    1.000
    H33      H        0.85300    0.89150    0.24930    1.000
    H34      H        0.38080    0.06870    0.38143    1.000
    H35      H        0.60160    0.70350    0.15190    1.000
    H36      H        0.50510    0.43900    0.42877    1.000
    H37      H        0.29650    0.89810    0.81857    1.000
    H38      H        0.10190    0.39840    0.48523    1.000
    H39      H        0.84740    0.19290    0.94750    1.000
    H40      H        0.06200    0.70440    0.57303    1.000
    H41      H        0.64240    0.93800    0.90637    1.000
    H42      H        0.49490    0.93390    0.90457    1.000
    H43      H        0.03850    0.14700    0.58263    1.000
    H44      H        0.89150    0.85300    0.41737    1.000
    H45      H        0.70440    0.06200    0.09363    1.000
    H46      H        0.89810    0.29650    0.84810    1.000
    H47      H        0.03330    0.49350    0.23083    1.000
    H48      H        0.39840    0.10190    0.18143    1.000
    C1       C        0.03000    0.30770    0.60973    1.000
    C2       C        0.86920    0.17490    0.90670    1.000
    C3       C        0.17490    0.86920    0.75997    1.000
    C4       C        0.71440    0.73720    0.86790    1.000
    C5       C        0.62570    0.96360    0.94557    1.000
    C6       C        0.19000    0.06360    0.12293    1.000
    C7       C        0.72000    0.78760    0.21250    1.000
    C8       C        0.48830    0.48830    0.33333    1.000
    C9       C        0.06760    0.28000    0.54583    1.000
    C10      C        0.00000    0.51170    0.66667    1.000
    C11      C        0.81000    0.87360    0.21040    1.000
    C12      C        0.82510    0.69430    0.57337    1.000
    C13      C        0.02280    0.28560    0.20123    1.000
    C14      C        0.56310    0.58490    0.87330    1.000
    C15      C        0.30770    0.03000    0.05693    1.000
    C16      C        0.09740    0.16470    0.48343    1.000
    C17      C        0.97820    0.41510    0.12670    1.000
    C18      C        0.33790    0.37430    0.27890    1.000
    C19      C        0.96360    0.62570    0.72110    1.000
    C20      C        0.93240    0.21240    0.78750    1.000
    C21      C        0.78760    0.72000    0.45417    1.000
    C22      C        0.37430    0.33790    0.38777    1.000
    C23      C        0.27770    0.97000    0.94307    1.000
    C24      C        0.90260    0.06730    0.84990    1.000
    C25      C        0.30570    0.13080    0.24003    1.000
    C26      C        0.03870    0.57570    0.61043    1.000
    C27      C        0.00000    0.41480    0.66667    1.000
    C28      C        0.41480    0.00000    0.00000    1.000
    C29      C        0.36980    0.04230    0.42763    1.000
    C30      C        0.96130    0.53700    0.72290    1.000
    C31      C        0.76180    0.66170    0.51367    1.000
    C32      C        0.03510    0.21060    0.24263    1.000
    C33      C        0.95770    0.32750    0.09430    1.000
    C34      C        0.97000    0.27770    0.72360    1.000
    C35      C        0.06360    0.19000    0.54373    1.000
    C36      C        0.32750    0.95770    0.57237    1.000
    C37      C        0.12640    0.93640    0.87707    1.000
    C38      C        0.28000    0.06760    0.12083    1.000
    C39      C        0.66170    0.76180    0.15300    1.000
    C40      C        0.72230    0.69230    0.39027    1.000
    C41      C        0.57570    0.03870    0.05623    1.000
    C42      C        0.16470    0.09740    0.18323    1.000
    C43      C        0.41510    0.97820    0.53997    1.000
    C44      C        0.82450    0.78940    0.75737    1.000
    C45      C        0.23820    0.89990    0.81967    1.000
    C46      C        0.04230    0.36980    0.23903    1.000
    C47      C        0.42430    0.46300    0.27710    1.000
    C48      C        0.17550    0.96490    0.57597    1.000
    C49      C        0.87360    0.81000    0.45627    1.000
    C50      C        0.93270    0.83530    0.51657    1.000
    C51      C        0.96490    0.17550    0.09070    1.000
    C52      C        0.63020    0.67250    0.90570    1.000
    C53      C        0.46300    0.42430    0.38957    1.000
    C54      C        0.02180    0.43690    0.20663    1.000
    C55      C        0.33830    0.10010    0.18033    1.000
    C56      C        0.93640    0.12640    0.78960    1.000
    C57      C        0.06730    0.90260    0.81677    1.000
    C58      C        0.69430    0.82510    0.09330    1.000
    C59      C        0.21060    0.03510    0.42403    1.000
    C60      C        0.97720    0.26280    0.13210    1.000
    C61      C        0.43690    0.02180    0.46003    1.000
    C62      C        0.10010    0.33830    0.48633    1.000
    C63      C        0.67250    0.63020    0.76097    1.000
    C64      C        0.51170    0.00000    0.00000    1.000
    C65      C        0.83530    0.93270    0.15010    1.000
    C66      C        0.89990    0.23820    0.84700    1.000
    C67      C        0.69230    0.72230    0.27640    1.000
    C68      C        0.03640    0.66210    0.61223    1.000
    C69      C        0.78940    0.82450    0.90930    1.000
    C70      C        0.53700    0.96130    0.94377    1.000
    C71      C        0.58520    0.58520    0.33333    1.000
    C72      C        0.58490    0.56310    0.79337    1.000
    C73      C        0.26280    0.97720    0.53457    1.000
    C74      C        0.73720    0.71440    0.79877    1.000
    C75      C        0.21240    0.93240    0.87917    1.000
    C76      C        0.13080    0.30570    0.42663    1.000
    C77      C        0.66210    0.03640    0.05443    1.000
    C78      C        0.28560    0.02280    0.46543    1.000
    N1       N        0.90870    0.77850    0.57455    1.000
    N2       N        0.24660    0.00000    0.00000    1.000
    N3       N        0.09130    0.86980    0.75879    1.000
    N4       N        0.22150    0.13020    0.24121    1.000
    N5       N        0.13020    0.22150    0.42545    1.000
    N6       N        0.86980    0.09130    0.90788    1.000
    N7       N        0.00000    0.68880    0.66667    1.000
    N8       N        0.77850    0.90870    0.09212    1.000
    N9       N        0.75340    0.75340    0.33333    1.000
    N10      N        0.36080    0.96550    0.94107    1.000
    N11      N        0.60470    0.63920    0.27440    1.000
    N12      N        0.68880    0.00000    0.00000    1.000
    N13      N        0.39530    0.03450    0.05893    1.000
    N14      N        0.31120    0.31120    0.33333    1.000
    N15      N        0.96550    0.36080    0.72560    1.000
    N16      N        0.63920    0.60470    0.39227    1.000
    N17      N        0.00000    0.24660    0.66667    1.000
    N18      N        0.03450    0.39530    0.60773    1.000
    O1       O        0.84220    0.87270    0.75337    1.000
    O2       O        0.15780    0.03050    0.57997    1.000
    O3       O        0.12520    0.88030    0.60293    1.000
    O4       O        0.12730    0.96950    0.42003    1.000
    O5       O        0.24490    0.11970    0.39707    1.000
    O6       O        0.87480    0.75510    0.73041    1.000
    O7       O        0.96950    0.12730    0.24663    1.000
    O8       O        0.03050    0.15780    0.08670    1.000
    O9       O        0.75510    0.87480    0.93626    1.000
    O10      O        0.87270    0.84220    0.91330    1.000
    O11      O        0.11970    0.24490    0.26959    1.000
    O12      O        0.88030    0.12520    0.06374    1.000
