data_functionalizedCrystal
_audit_creation_method	'EQeq! by Chris Wilmer'
_symmetry_space_group_name_H-M	'P1'
_symmetry_Int_Tables_number	1
_symmetry_cell_setting	triclinic
loop_
_symmetry_equiv_pos_as_xyz
  x,y,z
_cell_length_a	12.4143
_cell_length_b	7.7166
_cell_length_c	18.327
_cell_angle_alpha	90
_cell_angle_beta	90
_cell_angle_gamma	90
loop_
_atom_site_label
_atom_site_type_symbol
_atom_site_fract_x
_atom_site_fract_y
_atom_site_fract_z
_atom_site_charge
Mof_In	In	0.43362	0.71118	0.30351	3.038
Mof_In	In	0.62305	0.28402	0.45164	3.004
Mof_P 	P 	0.3654	0.3706	0.4059	0.648
Mof_H 	H 	0.382	0.22	0.366	-0.104
Mof_P 	P 	0.19191	0.8717	0.35007	0.667
Mof_H 	H 	0.171	0.729	0.384	-0.129
Mof_P 	P 	0.44711	0.7486	0.12234	0.565
Mof_H 	H 	0.541	0.703	0.098	-0.038
Mof_O 	O 	0.3515	0.4962	0.3423	-0.729
Mof_O 	O 	0.2903	0.8647	0.2999	-0.663
Mof_O 	O 	0.4633	0.8141	0.4128	-0.618
Mof_O 	O 	0.518	0.9602	0.2836	-0.577
Mof_O 	O 	0.091	0.9036	0.3058	-0.682
Mof_O 	O 	0.4263	0.6499	0.1928	-0.664
Mof_O 	O 	0.4679	0.4028	0.4487	-0.704
Mof_O 	O 	0.3692	0.6821	0.064	-0.581
Mof_O 	O 	0.2668	0.3678	0.4544	-0.665
Mof_O 	O 	0.2053	0.9979	0.4131	-0.718
Mof_O 	O 	0.5366	0.0356	0.471	-0.582
Mof_O 	O 	0.5924	0.1812	0.3416	-0.596
Mof_O 	O 	0.4486	0.9441	0.1313	-0.228
Mof_C 	C 	0.5109	0.9564	0.4147	0.298
Mof_C 	C 	0.5425	0.0389	0.34	0.281
Mof_In	In	0.56638	0.28882	0.80351	3.02
Mof_In	In	0.37695	0.71598	0.95164	2.83
Mof_P 	P 	0.6346	0.6294	0.9059	0.639
Mof_H 	H 	0.618	0.78	0.866	-0.102
Mof_P 	P 	0.80809	0.1283	0.85007	0.662
Mof_H 	H 	0.829	0.271	0.884	-0.133
Mof_P 	P 	0.55289	0.2514	0.62234	0.568
Mof_H 	H 	0.459	0.297	0.598	-0.073
Mof_O 	O 	0.6485	0.5038	0.8423	-0.728
Mof_O 	O 	0.7097	0.1353	0.7999	-0.664
Mof_O 	O 	0.5367	0.1859	0.9128	-0.633
Mof_O 	O 	0.482	0.0398	0.7836	-0.579
Mof_O 	O 	0.909	0.0964	0.8058	-0.68
Mof_O 	O 	0.5737	0.3501	0.6928	-0.672
Mof_O 	O 	0.5321	0.5972	0.9487	-0.71
Mof_O 	O 	0.6308	0.3179	0.564	-0.674
Mof_O 	O 	0.7332	0.6322	0.9544	-0.673
Mof_O 	O 	0.7947	0.0021	0.9131	-0.711
Mof_O 	O 	0.4634	0.9644	0.971	-0.606
Mof_O 	O 	0.4076	0.8188	0.8416	-0.577
Mof_O 	O 	0.5514	0.0559	0.6313	-0.264
Mof_C 	C 	0.4891	0.0436	0.9147	0.306
Mof_C 	C 	0.4575	0.9611	0.84	0.276
Mof_In	In	0.93362	0.78882	0.30351	3.008
Mof_In	In	0.12305	0.21598	0.45164	2.973
Mof_P 	P 	0.8654	0.1294	0.4059	0.647
Mof_H 	H 	0.882	0.28	0.366	-0.101
Mof_P 	P 	0.69191	0.6283	0.35007	0.668
Mof_H 	H 	0.671	0.771	0.384	-0.131
Mof_P 	P 	0.94711	0.7514	0.12234	0.557
Mof_H 	H 	0.041	0.797	0.098	-0.032
Mof_O 	O 	0.8515	0.0038	0.3423	-0.72
Mof_O 	O 	0.7903	0.6353	0.2999	-0.661
Mof_O 	O 	0.9633	0.6859	0.4128	-0.621
Mof_O 	O 	0.018	0.5398	0.2836	-0.571
Mof_O 	O 	0.591	0.5964	0.3058	-0.692
Mof_O 	O 	0.9263	0.8501	0.1928	-0.664
Mof_O 	O 	0.9679	0.0972	0.4487	-0.693
Mof_O 	O 	0.8692	0.8179	0.064	-0.58
Mof_O 	O 	0.7668	0.1322	0.4544	-0.667
Mof_O 	O 	0.7053	0.5021	0.4131	-0.727
Mof_O 	O 	0.0366	0.4644	0.471	-0.581
Mof_O 	O 	0.0924	0.3188	0.3416	-0.596
Mof_O 	O 	0.9486	0.5559	0.1313	-0.226
Mof_C 	C 	0.0109	0.5436	0.4147	0.305
Mof_C 	C 	0.0425	0.4611	0.34	0.279
Mof_In	In	0.06638	0.21118	0.80351	2.988
Mof_In	In	0.87695	0.78402	0.95164	2.806
Mof_P 	P 	0.1346	0.8706	0.9059	0.638
Mof_H 	H 	0.118	0.72	0.866	-0.1
Mof_P 	P 	0.30809	0.3717	0.85007	0.663
Mof_H 	H 	0.329	0.229	0.884	-0.136
Mof_P 	P 	0.05289	0.2486	0.62234	0.559
Mof_H 	H 	0.959	0.203	0.598	-0.065
Mof_O 	O 	0.1485	0.9962	0.8423	-0.718
Mof_O 	O 	0.2097	0.3647	0.7999	-0.662
Mof_O 	O 	0.0367	0.3141	0.9128	-0.637
Mof_O 	O 	0.982	0.4602	0.7836	-0.57
Mof_O 	O 	0.409	0.4036	0.8058	-0.691
Mof_O 	O 	0.0737	0.1499	0.6928	-0.672
Mof_O 	O 	0.0321	0.9028	0.9487	-0.7
Mof_O 	O 	0.1308	0.1821	0.564	-0.672
Mof_O 	O 	0.2332	0.8678	0.9544	-0.674
Mof_O 	O 	0.2947	0.4979	0.9131	-0.72
Mof_O 	O 	0.9634	0.5356	0.971	-0.604
Mof_O 	O 	0.9076	0.6812	0.8416	-0.577
Mof_O 	O 	0.0514	0.4441	0.6313	-0.262
Mof_C 	C 	0.9891	0.4564	0.9147	0.315
Mof_C 	C 	0.9575	0.5389	0.84	0.272
_end
