# CIF file generated by openbabel 3.1.0, see https://openbabel.org
data_I
_chemical_name_common 'image0'
_cell_length_a 19.7244
_cell_length_b 17.0814
_cell_length_c 9.9554
_cell_angle_alpha 90
_cell_angle_beta 90
_cell_angle_gamma 90
_space_group_name_H-M_alt 'P 1'
_space_group_name_Hall 'P 1'
loop_
    _symmetry_equiv_pos_as_xyz
    x,y,z
loop_
    _atom_site_label
    _atom_site_type_symbol
    _atom_site_fract_x
    _atom_site_fract_y
    _atom_site_fract_z
    _atom_site_occupancy
    In1      In       0.18128    0.84014    0.91388    1.000
    O1       O        0.29948    0.85524    0.92650    1.000
    O2       O        0.22936    0.95496    0.93020    1.000
    O3       O        0.29863    0.21519    0.06950    1.000
    O4       O        0.40554    0.24392    0.10030    1.000
    O5       O        0.19374    0.83450    0.68380    1.000
    O6       O        0.11067    0.90145    0.77400    1.000
    O7       O        0.19710    0.83410    0.15870    1.000
    O8       O        0.11040    0.88810    0.06190    1.000
    H1       H        0.42350    0.90680    0.95170    1.000
    H2       H        0.28210    0.07610    0.00780    1.000
    H3       H        0.47990    0.12590    0.06540    1.000
    H4       H        0.03950    0.96690    0.61400    1.000
    H5       H        0.18330    0.84010    0.41750    1.000
    H6       H        0.04180    0.95980    0.20820    1.000
    C1       C        0.46390    0.01190    0.00960    1.000
    C2       C        0.41240    0.95910    0.97520    1.000
    C3       C        0.34590    0.98280    0.97540    1.000
    C4       C        0.32810    0.05990    0.00830    1.000
    C5       C        0.37960    0.11210    0.04160    1.000
    C6       C        0.44560    0.08920    0.04230    1.000
    C7       C        0.28920    0.92730    0.93910    1.000
    C8       C        0.36030    0.19550    0.07410    1.000
    C9       C        0.02960    0.97360    0.41370    1.000
    C10      C        0.05890    0.94940    0.53200    1.000
    C11      C        0.11610    0.90030    0.53840    1.000
    C12      C        0.14470    0.87340    0.41740    1.000
    C13      C        0.11520    0.89690    0.29940    1.000
    C14      C        0.05990    0.94520    0.29300    1.000
    C15      C        0.14220    0.87660    0.67250    1.000
    C16      C        0.14290    0.87030    0.16640    1.000
    In2      In       0.81872    0.15986    0.91388    1.000
    O9       O        0.70052    0.14476    0.92650    1.000
    O10      O        0.77064    0.04504    0.93020    1.000
    O11      O        0.70137    0.78481    0.06950    1.000
    O12      O        0.59446    0.75608    0.10030    1.000
    O13      O        0.80626    0.16550    0.68380    1.000
    O14      O        0.88933    0.09855    0.77400    1.000
    O15      O        0.80290    0.16590    0.15870    1.000
    O16      O        0.88960    0.11190    0.06190    1.000
    H7       H        0.57650    0.09320    0.95170    1.000
    H8       H        0.71790    0.92390    0.00780    1.000
    H9       H        0.52010    0.87410    0.06540    1.000
    H10      H        0.96050    0.03310    0.61400    1.000
    H11      H        0.81670    0.15990    0.41750    1.000
    H12      H        0.95820    0.04020    0.20820    1.000
    C17      C        0.53610    0.98810    0.00960    1.000
    C18      C        0.58760    0.04090    0.97520    1.000
    C19      C        0.65410    0.01720    0.97540    1.000
    C20      C        0.67190    0.94010    0.00830    1.000
    C21      C        0.62040    0.88790    0.04160    1.000
    C22      C        0.55440    0.91080    0.04230    1.000
    C23      C        0.71080    0.07270    0.93910    1.000
    C24      C        0.63970    0.80450    0.07410    1.000
    C25      C        0.97040    0.02640    0.41370    1.000
    C26      C        0.94110    0.05060    0.53200    1.000
    C27      C        0.88390    0.09970    0.53840    1.000
    C28      C        0.85530    0.12660    0.41740    1.000
    C29      C        0.88480    0.10310    0.29940    1.000
    C30      C        0.94010    0.05480    0.29300    1.000
    C31      C        0.85780    0.12340    0.67250    1.000
    C32      C        0.85710    0.12970    0.16640    1.000
    In3      In       0.31872    0.34014    0.08612    1.000
    O17      O        0.20052    0.35524    0.07350    1.000
    O18      O        0.27064    0.45496    0.06980    1.000
    O19      O        0.20137    0.71519    0.93050    1.000
    O20      O        0.09446    0.74392    0.89970    1.000
    O21      O        0.30626    0.33450    0.31620    1.000
    O22      O        0.38933    0.40145    0.22600    1.000
    O23      O        0.30290    0.33410    0.84130    1.000
    O24      O        0.38960    0.38810    0.93810    1.000
    H13      H        0.07650    0.40680    0.04830    1.000
    H14      H        0.21790    0.57610    0.99220    1.000
    H15      H        0.02010    0.62590    0.93460    1.000
    H16      H        0.46050    0.46690    0.38600    1.000
    H17      H        0.31670    0.34010    0.58250    1.000
    H18      H        0.45820    0.45980    0.79180    1.000
    C33      C        0.03610    0.51190    0.99040    1.000
    C34      C        0.08760    0.45910    0.02480    1.000
    C35      C        0.15410    0.48280    0.02460    1.000
    C36      C        0.17190    0.55990    0.99170    1.000
    C37      C        0.12040    0.61210    0.95840    1.000
    C38      C        0.05440    0.58920    0.95770    1.000
    C39      C        0.21080    0.42730    0.06090    1.000
    C40      C        0.13970    0.69550    0.92590    1.000
    C41      C        0.47040    0.47360    0.58630    1.000
    C42      C        0.44110    0.44940    0.46800    1.000
    C43      C        0.38390    0.40030    0.46160    1.000
    C44      C        0.35530    0.37340    0.58260    1.000
    C45      C        0.38480    0.39690    0.70060    1.000
    C46      C        0.44010    0.44520    0.70700    1.000
    C47      C        0.35780    0.37660    0.32750    1.000
    C48      C        0.35710    0.37030    0.83360    1.000
    In4      In       0.68128    0.65986    0.08612    1.000
    O25      O        0.79948    0.64476    0.07350    1.000
    O26      O        0.72936    0.54504    0.06980    1.000
    O27      O        0.79863    0.28481    0.93050    1.000
    O28      O        0.90554    0.25608    0.89970    1.000
    O29      O        0.69374    0.66550    0.31620    1.000
    O30      O        0.61067    0.59855    0.22600    1.000
    O31      O        0.69710    0.66590    0.84130    1.000
    O32      O        0.61040    0.61190    0.93810    1.000
    H19      H        0.92350    0.59320    0.04830    1.000
    H20      H        0.78210    0.42390    0.99220    1.000
    H21      H        0.97990    0.37410    0.93460    1.000
    H22      H        0.53950    0.53310    0.38600    1.000
    H23      H        0.68330    0.65990    0.58250    1.000
    H24      H        0.54180    0.54020    0.79180    1.000
    C49      C        0.96390    0.48810    0.99040    1.000
    C50      C        0.91240    0.54090    0.02480    1.000
    C51      C        0.84590    0.51720    0.02460    1.000
    C52      C        0.82810    0.44010    0.99170    1.000
    C53      C        0.87960    0.38790    0.95840    1.000
    C54      C        0.94560    0.41080    0.95770    1.000
    C55      C        0.78920    0.57270    0.06090    1.000
    C56      C        0.86030    0.30450    0.92590    1.000
    C57      C        0.52960    0.52640    0.58630    1.000
    C58      C        0.55890    0.55060    0.46800    1.000
    C59      C        0.61610    0.59970    0.46160    1.000
    C60      C        0.64470    0.62660    0.58260    1.000
    C61      C        0.61520    0.60310    0.70060    1.000
    C62      C        0.55990    0.55480    0.70700    1.000
    C63      C        0.64220    0.62340    0.32750    1.000
    C64      C        0.64290    0.62970    0.83360    1.000
