data_functionalizedCrystal
_audit_creation_method	'EQeq! by Chris Wilmer'
_symmetry_space_group_name_H-M	'P1'
_symmetry_Int_Tables_number	1
_symmetry_cell_setting	triclinic
loop_
_symmetry_equiv_pos_as_xyz
  x,y,z
_cell_length_a	6.623
_cell_length_b	16.893
_cell_length_c	12.592
_cell_angle_alpha	90
_cell_angle_beta	90
_cell_angle_gamma	90
loop_
_atom_site_label
_atom_site_type_symbol
_atom_site_fract_x
_atom_site_fract_y
_atom_site_fract_z
_atom_site_charge
Mof_O 	O 	0.1559	0.1669	0.84182	-1.514
Mof_C 	C 	0.8042	0.0361	0.97409	-0.015
Mof_O 	O 	0.6559	0.6669	0.34182	-1.506
Mof_C 	C 	0.3042	0.5361	0.47409	0.07
Mof_O 	O 	0.8441	0.3331	0.84182	-1.562
Mof_C 	C 	0.1958	0.4639	0.97409	0.044
Mof_O 	O 	0.3441	0.8331	0.34182	-1.505
Mof_C 	C 	0.6958	0.9639	0.47409	0.032
Mof_O 	O 	0.8441	0.6669	0.15818	-1.561
Mof_C 	C 	0.1958	0.5361	0.02591	0.045
Mof_O 	O 	0.3441	0.1669	0.65818	-1.505
Mof_C 	C 	0.6958	0.0361	0.52591	0.032
Mof_O 	O 	0.1559	0.8331	0.15818	-1.513
Mof_C 	C 	0.8042	0.9639	0.02591	-0.014
Mof_O 	O 	0.6559	0.3331	0.65818	-1.505
Mof_C 	C 	0.3042	0.4639	0.52591	0.071
Mof_O 	O 	0.8441	0.8331	0.15818	-1.561
Mof_C 	C 	0.1958	0.9639	0.02591	0.045
Mof_O 	O 	0.3441	0.3331	0.65818	-1.504
Mof_C 	C 	0.6958	0.4639	0.52591	0.032
Mof_O 	O 	0.1559	0.6669	0.15818	-1.513
Mof_C 	C 	0.8042	0.5361	0.02591	-0.014
Mof_O 	O 	0.6559	0.1669	0.65818	-1.505
Mof_C 	C 	0.3042	0.0361	0.52591	0.071
Mof_O 	O 	0.1559	0.3331	0.84182	-1.513
Mof_C 	C 	0.8042	0.4639	0.97409	-0.014
Mof_O 	O 	0.6559	0.8331	0.34182	-1.505
Mof_C 	C 	0.3042	0.9639	0.47409	0.071
Mof_O 	O 	0.8441	0.1669	0.84182	-1.561
Mof_C 	C 	0.1958	0.0361	0.97409	0.045
Mof_O 	O 	0.3441	0.6669	0.34182	-1.504
Mof_C 	C 	0.6958	0.5361	0.47409	0.032
Mof_Al	Al	0.25	0.25	0.75	6.966
Mof_Al	Al	0.75	0.25	0.75	6.804
Mof_Al	Al	0.75	0.75	0.25	6.804
Mof_Al	Al	0.25	0.75	0.25	6.966
Mof_O 	O 	1.3899e-32	0.25	0.69297	-2.552
Mof_O 	O 	0.5	0.75	0.19297	-2.605
Mof_O 	O 	1.11478e-32	0.75	0.30703	-2.552
Mof_O 	O 	0.5	0.25	0.80703	-2.605
Mof_C 	C 	2.4741e-32	0.05987	0.95711	-0.291
Mof_C 	C 	6.2953e-33	0.12911	0.88311	1.187
Mof_C 	C 	0.5	0.55987	0.45711	-0.362
Mof_C 	C 	0.5	0.62911	0.38311	1.11
Mof_C 	C 	6.82281e-33	0.44013	0.95711	-0.29
Mof_C 	C 	2.42135e-32	0.37089	0.88311	1.187
Mof_C 	C 	0.5	0.94013	0.45711	-0.362
Mof_C 	C 	0.5	0.87089	0.38311	1.11
Mof_C 	C 	8.14495e-33	0.55987	0.04289	-0.29
Mof_C 	C 	1.42719e-32	0.62911	0.11689	1.187
Mof_C 	C 	0.5	0.05987	0.54289	-0.362
Mof_C 	C 	0.5	0.12911	0.61689	1.11
Mof_C 	C 	8.14495e-33	0.94013	0.04289	-0.291
Mof_C 	C 	-3.64629e-33	0.87089	0.11689	1.187
Mof_C 	C 	0.5	0.44013	0.54289	-0.362
Mof_C 	C 	0.5	0.37089	0.61689	1.11
_end
