# CIF file generated by openbabel 3.1.0, see https://openbabel.org
data_I
_chemical_name_common 'image0'
_cell_length_a 17.525
_cell_length_b 6.7216
_cell_length_c 11.893
_cell_angle_alpha 90
_cell_angle_beta 90
_cell_angle_gamma 90
_space_group_name_H-M_alt 'P 1'
_space_group_name_Hall 'P 1'
loop_
    _symmetry_equiv_pos_as_xyz
    x,y,z
loop_
    _atom_site_label
    _atom_site_type_symbol
    _atom_site_fract_x
    _atom_site_fract_y
    _atom_site_fract_z
    _atom_site_occupancy
    O1       O        0.42665    0.41770    0.88340    1.000
    O2       O        0.08859    0.41790    0.59040    1.000
    C1       C        0.29400    0.42900    0.75990    1.000
    H1       H        0.31720    0.54870    0.77930    1.000
    C2       C        0.22580    0.42890    0.70190    1.000
    H2       H        0.20280    0.54860    0.68210    1.000
    O3       O        0.07335    0.58230    0.38340    1.000
    O4       O        0.41141    0.58210    0.09040    1.000
    C3       C        0.20600    0.57100    0.25990    1.000
    H3       H        0.18280    0.45130    0.27930    1.000
    C4       C        0.27420    0.57110    0.20190    1.000
    H4       H        0.29720    0.45140    0.18210    1.000
    O5       O        0.57335    0.91770    0.11660    1.000
    O6       O        0.91141    0.91790    0.40960    1.000
    C5       C        0.70600    0.92900    0.24010    1.000
    H5       H        0.68280    0.04870    0.22070    1.000
    C6       C        0.77420    0.92890    0.29810    1.000
    H6       H        0.79720    0.04860    0.31790    1.000
    O7       O        0.92665    0.08230    0.61660    1.000
    O8       O        0.58859    0.08210    0.90960    1.000
    C7       C        0.79400    0.07100    0.74010    1.000
    H7       H        0.81720    0.95130    0.72070    1.000
    C8       C        0.72580    0.07110    0.79810    1.000
    H8       H        0.70280    0.95140    0.81790    1.000
    O9       O        0.57335    0.58230    0.11660    1.000
    O10      O        0.91141    0.58210    0.40960    1.000
    C9       C        0.70600    0.57100    0.24010    1.000
    H9       H        0.68280    0.45130    0.22070    1.000
    C10      C        0.77420    0.57110    0.29810    1.000
    H10      H        0.79720    0.45140    0.31790    1.000
    O11      O        0.92665    0.41770    0.61660    1.000
    O12      O        0.58859    0.41790    0.90960    1.000
    C11      C        0.79400    0.42900    0.74010    1.000
    H11      H        0.81720    0.54870    0.72070    1.000
    C12      C        0.72580    0.42890    0.79810    1.000
    H12      H        0.70280    0.54860    0.81790    1.000
    O13      O        0.42665    0.08230    0.88340    1.000
    O14      O        0.08859    0.08210    0.59040    1.000
    C13      C        0.29400    0.07100    0.75990    1.000
    H13      H        0.31720    0.95130    0.77930    1.000
    C14      C        0.22580    0.07110    0.70190    1.000
    H14      H        0.20280    0.95140    0.68210    1.000
    O15      O        0.07335    0.91770    0.38340    1.000
    O16      O        0.41141    0.91790    0.09040    1.000
    C15      C        0.20600    0.92900    0.25990    1.000
    H15      H        0.18280    0.04870    0.27930    1.000
    C16      C        0.27420    0.92890    0.20190    1.000
    H16      H        0.29720    0.04860    0.18210    1.000
    Ga1      Ga       0.50000    0.50000    0.00000    1.000
    Ga2      Ga       0.00000    0.50000    0.50000    1.000
    Ga3      Ga       0.50000    0.00000    0.00000    1.000
    Ga4      Ga       0.00000    0.00000    0.50000    1.000
    O17      O        0.49394    0.25000    0.07320    1.000
    C17      C        0.40000    0.25000    0.85730    1.000
    C18      C        0.32790    0.25000    0.78930    1.000
    C19      C        0.19150    0.25000    0.67310    1.000
    C20      C        0.11650    0.25000    0.61330    1.000
    O18      O        0.00606    0.75000    0.57320    1.000
    C21      C        0.10000    0.75000    0.35730    1.000
    C22      C        0.17210    0.75000    0.28930    1.000
    C23      C        0.30850    0.75000    0.17310    1.000
    C24      C        0.38350    0.75000    0.11330    1.000
    O19      O        0.50606    0.75000    0.92680    1.000
    C25      C        0.60000    0.75000    0.14270    1.000
    C26      C        0.67210    0.75000    0.21070    1.000
    C27      C        0.80850    0.75000    0.32690    1.000
    C28      C        0.88350    0.75000    0.38670    1.000
    O20      O        0.99394    0.25000    0.42680    1.000
    C29      C        0.90000    0.25000    0.64270    1.000
    C30      C        0.82790    0.25000    0.71070    1.000
    C31      C        0.69150    0.25000    0.82690    1.000
    C32      C        0.61650    0.25000    0.88670    1.000
