data_functionalizedCrystal
_audit_creation_method	'EQeq! by Chris Wilmer'
_symmetry_space_group_name_H-M	'P1'
_symmetry_Int_Tables_number	1
_symmetry_cell_setting	triclinic
loop_
_symmetry_equiv_pos_as_xyz
  x,y,z
_cell_length_a	18.087
_cell_length_b	24.867
_cell_length_c	17.611
_cell_angle_alpha	90
_cell_angle_beta	90
_cell_angle_gamma	90
loop_
_atom_site_label
_atom_site_type_symbol
_atom_site_fract_x
_atom_site_fract_y
_atom_site_fract_z
_atom_site_charge
Mof_Zn	Zn	0.03642	0.56437	0.18593	1.178
Mof_Zn	Zn	0.93714	0.31804	0.24036	1.178
Mof_C 	C 	0.0247	0.5171	0.3419	0.357
Mof_C 	C 	0.8353	0.1839	0.2683	0.02
Mof_C 	C 	0.985	0.4384	0.1786	0.112
Mof_C 	C 	0.038	0.441	0.9723	0.043
Mof_H 	H 	0.081	0.4473	0.9426	0.021
Mof_C 	C 	0.9156	0.4177	0.9789	0.058
Mof_H 	H 	0.8704	0.4083	0.9548	-0.025
Mof_C 	C 	0.0939	0.1326	0.3005	0.291
Mof_C 	C 	0.9667	0.3902	0.3675	0.273
Mof_C 	C 	0.0296	0.1683	0.2909	-0.016
Mof_C 	C 	0.9782	0.4223	0.2985	-0.012
Mof_C 	C 	0.0239	0.2228	0.276	-0.045
Mof_C 	C 	0.0041	0.4741	0.2884	-0.057
Mof_C 	C 	0.9131	0.1892	0.2768	0.088
Mof_C 	C 	0.9815	0.4325	0.0944	-0.015
Mof_C 	C 	0.0437	0.4434	0.0497	-0.089
Mof_H 	H 	0.0894	0.4525	0.0729	0.046
Mof_C 	C 	0.9174	0.418	0.0577	-0.103
Mof_H 	H 	0.8747	0.4082	0.086	0.047
Mof_C 	C 	0.7117	0.1775	0.3138	0.1
Mof_H 	H 	0.6812	0.1755	0.3576	-0.01
Mof_C 	C 	0.0802	0.2644	0.2659	0.342
Mof_C 	C 	0.7998	0.1839	0.203	-0.13
Mof_H 	H 	0.8289	0.1848	0.1581	0.067
Mof_C 	C 	0.7214	0.1828	0.1935	0.092
Mof_H 	H 	0.7002	0.1863	0.1444	-0.043
Mof_C 	C 	0.7862	0.1804	0.3239	-0.14
Mof_H 	H 	0.8043	0.18	0.3746	0.064
Mof_N 	N 	0.9651	0.4	0.2282	-0.241
Mof_N 	N 	0.0093	0.4842	0.2118	-0.238
Mof_N 	N 	0.9596	0.1482	0.2924	-0.234
Mof_N 	N 	0.9518	0.2364	0.2662	-0.238
Mof_N 	N 	0.6812	0.1772	0.2501	-0.279
Mof_N 	N 	0.9722	0.4296	0.9355	-0.251
Mof_O 	O 	0.9469	0.3422	0.3596	-0.369
Mof_O 	O 	0.9778	0.4126	0.432	-0.197
Mof_O 	O 	0.045	0.5609	0.3169	-0.383
Mof_O 	O 	0.0176	0.5074	0.4134	-0.418
Mof_H 	H 	0.9726	0.5034	0.4239	0.272
Mof_O 	O 	0.0806	0.0845	0.3085	-0.384
Mof_O 	O 	0.1586	0.1535	0.3009	-0.194
Mof_O 	O 	0.0632	0.3101	0.2462	-0.382
Mof_O 	O 	0.1487	0.251	0.2781	-0.399
Mof_H 	H 	0.1709	0.248	0.2364	0.255
Mof_Zn	Zn	0.46358	0.93563	0.18593	1.177
Mof_Zn	Zn	0.56286	0.18196	0.24036	1.177
Mof_C 	C 	0.4753	0.9829	0.3419	0.356
Mof_C 	C 	0.6647	0.3161	0.2683	0.02
Mof_C 	C 	0.515	0.0616	0.1786	0.111
Mof_C 	C 	0.462	0.059	0.9723	0.039
Mof_H 	H 	0.419	0.0527	0.9426	0.021
Mof_C 	C 	0.5844	0.0823	0.9789	0.057
Mof_H 	H 	0.6296	0.0917	0.9548	-0.026
Mof_C 	C 	0.4061	0.3674	0.3005	0.29
Mof_C 	C 	0.5333	0.1098	0.3675	0.272
Mof_C 	C 	0.4704	0.3317	0.2909	-0.017
Mof_C 	C 	0.5218	0.0777	0.2985	-0.014
Mof_C 	C 	0.4761	0.2772	0.276	-0.046
Mof_C 	C 	0.4959	0.0259	0.2884	-0.057
Mof_C 	C 	0.5869	0.3108	0.2768	0.088
Mof_C 	C 	0.5185	0.0675	0.0944	-0.016
Mof_C 	C 	0.4563	0.0566	0.0497	-0.086
Mof_H 	H 	0.4106	0.0475	0.0729	0.046
Mof_C 	C 	0.5826	0.082	0.0577	-0.103
Mof_H 	H 	0.6253	0.0918	0.086	0.047
Mof_C 	C 	0.7883	0.3225	0.3138	0.1
Mof_H 	H 	0.8188	0.3245	0.3576	-0.01
Mof_C 	C 	0.4198	0.2356	0.2659	0.342
Mof_C 	C 	0.7002	0.3161	0.203	-0.13
Mof_H 	H 	0.6711	0.3152	0.1581	0.067
Mof_C 	C 	0.7786	0.3172	0.1935	0.092
Mof_H 	H 	0.7998	0.3137	0.1444	-0.043
Mof_C 	C 	0.7138	0.3196	0.3239	-0.14
Mof_H 	H 	0.6957	0.32	0.3746	0.064
Mof_N 	N 	0.5349	0.1	0.2282	-0.241
Mof_N 	N 	0.4907	0.0158	0.2118	-0.238
Mof_N 	N 	0.5404	0.3518	0.2924	-0.233
Mof_N 	N 	0.5482	0.2636	0.2662	-0.238
Mof_N 	N 	0.8188	0.3228	0.2501	-0.279
Mof_N 	N 	0.5278	0.0704	0.9355	-0.25
Mof_O 	O 	0.5531	0.1578	0.3596	-0.369
Mof_O 	O 	0.5222	0.0874	0.432	-0.197
Mof_O 	O 	0.455	0.9391	0.3169	-0.383
Mof_O 	O 	0.4824	0.9926	0.4134	-0.418
Mof_H 	H 	0.5274	0.9966	0.4239	0.272
Mof_O 	O 	0.4194	0.4155	0.3085	-0.385
Mof_O 	O 	0.3414	0.3465	0.3009	-0.194
Mof_O 	O 	0.4368	0.1899	0.2462	-0.382
Mof_O 	O 	0.3513	0.249	0.2781	-0.399
Mof_H 	H 	0.3291	0.252	0.2364	0.255
Mof_Zn	Zn	0.96358	0.06437	0.31407	1.177
Mof_Zn	Zn	0.06286	0.81804	0.25964	1.177
Mof_C 	C 	0.9753	0.0171	0.1581	0.353
Mof_C 	C 	0.1647	0.6839	0.2317	0.019
Mof_C 	C 	0.015	0.9384	0.3214	0.109
Mof_C 	C 	0.962	0.941	0.5277	0.04
Mof_H 	H 	0.919	0.9473	0.5574	0.021
Mof_C 	C 	0.0844	0.9177	0.5211	0.057
Mof_H 	H 	0.1296	0.9083	0.5452	-0.026
Mof_C 	C 	0.9061	0.6326	0.1995	0.29
Mof_C 	C 	0.0333	0.8902	0.1325	0.273
Mof_C 	C 	0.9704	0.6683	0.2091	-0.017
Mof_C 	C 	0.0218	0.9223	0.2015	-0.017
Mof_C 	C 	0.9761	0.7228	0.224	-0.045
Mof_C 	C 	0.9959	0.9741	0.2116	-0.052
Mof_C 	C 	0.0869	0.6892	0.2232	0.088
Mof_C 	C 	0.0185	0.9325	0.4056	-0.018
Mof_C 	C 	0.9563	0.9434	0.4503	-0.084
Mof_H 	H 	0.9106	0.9525	0.4271	0.045
Mof_C 	C 	0.0826	0.918	0.4423	-0.102
Mof_H 	H 	0.1253	0.9082	0.414	0.046
Mof_C 	C 	0.2883	0.6775	0.1862	0.1
Mof_H 	H 	0.3188	0.6755	0.1424	-0.01
Mof_C 	C 	0.9198	0.7644	0.2341	0.341
Mof_C 	C 	0.2002	0.6839	0.297	-0.13
Mof_H 	H 	0.1711	0.6848	0.3419	0.067
Mof_C 	C 	0.2786	0.6828	0.3065	0.092
Mof_H 	H 	0.2998	0.6863	0.3556	-0.043
Mof_C 	C 	0.2138	0.6804	0.1761	-0.14
Mof_H 	H 	0.1957	0.68	0.1254	0.064
Mof_N 	N 	0.0349	0.9	0.2718	-0.241
Mof_N 	N 	0.9907	0.9842	0.2882	-0.237
Mof_N 	N 	0.0404	0.6482	0.2076	-0.234
Mof_N 	N 	0.0482	0.7364	0.2338	-0.238
Mof_N 	N 	0.3188	0.6772	0.2499	-0.279
Mof_N 	N 	0.0278	0.9296	0.5645	-0.251
Mof_O 	O 	0.0531	0.8422	0.1404	-0.369
Mof_O 	O 	0.0222	0.9126	0.068	-0.199
Mof_O 	O 	0.955	0.0609	0.1831	-0.383
Mof_O 	O 	0.9824	0.0074	0.0866	-0.419
Mof_H 	H 	0.0274	0.0034	0.0761	0.274
Mof_O 	O 	0.9194	0.5845	0.1915	-0.384
Mof_O 	O 	0.8414	0.6535	0.1991	-0.194
Mof_O 	O 	0.9368	0.8101	0.2538	-0.381
Mof_O 	O 	0.8513	0.751	0.2219	-0.399
Mof_H 	H 	0.8291	0.748	0.2636	0.255
Mof_Zn	Zn	0.53642	0.43563	0.31407	1.177
Mof_Zn	Zn	0.43714	0.68196	0.25964	1.177
Mof_C 	C 	0.5247	0.4829	0.1581	0.356
Mof_C 	C 	0.3353	0.8161	0.2317	0.02
Mof_C 	C 	0.485	0.5616	0.3214	0.111
Mof_C 	C 	0.538	0.559	0.5277	0.039
Mof_H 	H 	0.581	0.5527	0.5574	0.021
Mof_C 	C 	0.4156	0.5823	0.5211	0.058
Mof_H 	H 	0.3704	0.5917	0.5452	-0.026
Mof_C 	C 	0.5939	0.8674	0.1995	0.29
Mof_C 	C 	0.4667	0.6098	0.1325	0.272
Mof_C 	C 	0.5296	0.8317	0.2091	-0.017
Mof_C 	C 	0.4782	0.5777	0.2015	-0.014
Mof_C 	C 	0.5239	0.7772	0.224	-0.046
Mof_C 	C 	0.5041	0.5259	0.2116	-0.057
Mof_C 	C 	0.4131	0.8108	0.2232	0.088
Mof_C 	C 	0.4815	0.5675	0.4056	-0.016
Mof_C 	C 	0.5437	0.5566	0.4503	-0.086
Mof_H 	H 	0.5894	0.5475	0.4271	0.046
Mof_C 	C 	0.4174	0.582	0.4423	-0.103
Mof_H 	H 	0.3747	0.5918	0.414	0.047
Mof_C 	C 	0.2117	0.8225	0.1862	0.1
Mof_H 	H 	0.1812	0.8245	0.1424	-0.01
Mof_C 	C 	0.5802	0.7356	0.2341	0.342
Mof_C 	C 	0.2998	0.8161	0.297	-0.13
Mof_H 	H 	0.3289	0.8152	0.3419	0.067
Mof_C 	C 	0.2214	0.8172	0.3065	0.092
Mof_H 	H 	0.2002	0.8137	0.3556	-0.043
Mof_C 	C 	0.2862	0.8196	0.1761	-0.14
Mof_H 	H 	0.3043	0.82	0.1254	0.064
Mof_N 	N 	0.4651	0.6	0.2718	-0.241
Mof_N 	N 	0.5093	0.5158	0.2882	-0.238
Mof_N 	N 	0.4596	0.8518	0.2076	-0.233
Mof_N 	N 	0.4518	0.7636	0.2338	-0.238
Mof_N 	N 	0.1812	0.8228	0.2499	-0.279
Mof_N 	N 	0.4722	0.5704	0.5645	-0.25
Mof_O 	O 	0.4469	0.6578	0.1404	-0.369
Mof_O 	O 	0.4778	0.5874	0.068	-0.198
Mof_O 	O 	0.545	0.4391	0.1831	-0.383
Mof_O 	O 	0.5176	0.4926	0.0866	-0.418
Mof_H 	H 	0.4726	0.4966	0.0761	0.272
Mof_O 	O 	0.5806	0.9155	0.1915	-0.384
Mof_O 	O 	0.6586	0.8465	0.1991	-0.194
Mof_O 	O 	0.5632	0.6899	0.2538	-0.382
Mof_O 	O 	0.6487	0.749	0.2219	-0.4
Mof_H 	H 	0.6709	0.752	0.2636	0.256
Mof_Zn	Zn	0.96358	0.43563	0.81407	1.177
Mof_Zn	Zn	0.06286	0.68196	0.75964	1.177
Mof_C 	C 	0.9753	0.4829	0.6581	0.356
Mof_C 	C 	0.1647	0.8161	0.7317	0.019
Mof_C 	C 	0.015	0.5616	0.8214	0.111
Mof_C 	C 	0.962	0.559	0.0277	0.042
Mof_H 	H 	0.919	0.5527	0.0574	0.02
Mof_C 	C 	0.0844	0.5823	0.0211	0.057
Mof_H 	H 	0.1296	0.5917	0.0452	-0.026
Mof_C 	C 	0.9061	0.8674	0.6995	0.29
Mof_C 	C 	0.0333	0.6098	0.6325	0.272
Mof_C 	C 	0.9704	0.8317	0.7091	-0.017
Mof_C 	C 	0.0218	0.5777	0.7015	-0.013
Mof_C 	C 	0.9761	0.7772	0.724	-0.046
Mof_C 	C 	0.9959	0.5259	0.7116	-0.057
Mof_C 	C 	0.0869	0.8108	0.7232	0.088
Mof_C 	C 	0.0185	0.5675	0.9056	-0.015
Mof_C 	C 	0.9563	0.5566	0.9503	-0.089
Mof_H 	H 	0.9106	0.5475	0.9271	0.046
Mof_C 	C 	0.0826	0.582	0.9423	-0.103
Mof_H 	H 	0.1253	0.5918	0.914	0.047
Mof_C 	C 	0.2883	0.8225	0.6862	0.1
Mof_H 	H 	0.3188	0.8245	0.6424	-0.01
Mof_C 	C 	0.9198	0.7356	0.7341	0.342
Mof_C 	C 	0.2002	0.8161	0.797	-0.13
Mof_H 	H 	0.1711	0.8152	0.8419	0.067
Mof_C 	C 	0.2786	0.8172	0.8065	0.092
Mof_H 	H 	0.2998	0.8137	0.8556	-0.043
Mof_C 	C 	0.2138	0.8196	0.6761	-0.14
Mof_H 	H 	0.1957	0.82	0.6254	0.064
Mof_N 	N 	0.0349	0.6	0.7718	-0.241
Mof_N 	N 	0.9907	0.5158	0.7882	-0.238
Mof_N 	N 	0.0404	0.8518	0.7076	-0.234
Mof_N 	N 	0.0482	0.7636	0.7338	-0.238
Mof_N 	N 	0.3188	0.8228	0.7499	-0.279
Mof_N 	N 	0.0278	0.5704	0.0645	-0.251
Mof_O 	O 	0.0531	0.6578	0.6404	-0.369
Mof_O 	O 	0.0222	0.5874	0.568	-0.197
Mof_O 	O 	0.955	0.4391	0.6831	-0.383
Mof_O 	O 	0.9824	0.4926	0.5866	-0.418
Mof_H 	H 	0.0274	0.4966	0.5761	0.272
Mof_O 	O 	0.9194	0.9155	0.6915	-0.384
Mof_O 	O 	0.8414	0.8465	0.6991	-0.194
Mof_O 	O 	0.9368	0.6899	0.7538	-0.382
Mof_O 	O 	0.8513	0.749	0.7219	-0.399
Mof_H 	H 	0.8291	0.752	0.7636	0.255
Mof_Zn	Zn	0.53642	0.06437	0.81407	1.177
Mof_Zn	Zn	0.43714	0.81804	0.75964	1.177
Mof_C 	C 	0.5247	0.0171	0.6581	0.356
Mof_C 	C 	0.3353	0.6839	0.7317	0.02
Mof_C 	C 	0.485	0.9384	0.8214	0.111
Mof_C 	C 	0.538	0.941	0.0277	0.039
Mof_H 	H 	0.581	0.9473	0.0574	0.021
Mof_C 	C 	0.4156	0.9177	0.0211	0.057
Mof_H 	H 	0.3704	0.9083	0.0452	-0.026
Mof_C 	C 	0.5939	0.6326	0.6995	0.29
Mof_C 	C 	0.4667	0.8902	0.6325	0.272
Mof_C 	C 	0.5296	0.6683	0.7091	-0.017
Mof_C 	C 	0.4782	0.9223	0.7015	-0.014
Mof_C 	C 	0.5239	0.7228	0.724	-0.046
Mof_C 	C 	0.5041	0.9741	0.7116	-0.057
Mof_C 	C 	0.4131	0.6892	0.7232	0.088
Mof_C 	C 	0.4815	0.9325	0.9056	-0.016
Mof_C 	C 	0.5437	0.9434	0.9503	-0.086
Mof_H 	H 	0.5894	0.9525	0.9271	0.046
Mof_C 	C 	0.4174	0.918	0.9423	-0.103
Mof_H 	H 	0.3747	0.9082	0.914	0.047
Mof_C 	C 	0.2117	0.6775	0.6862	0.1
Mof_H 	H 	0.1812	0.6755	0.6424	-0.01
Mof_C 	C 	0.5802	0.7644	0.7341	0.342
Mof_C 	C 	0.2998	0.6839	0.797	-0.13
Mof_H 	H 	0.3289	0.6848	0.8419	0.067
Mof_C 	C 	0.2214	0.6828	0.8065	0.092
Mof_H 	H 	0.2002	0.6863	0.8556	-0.043
Mof_C 	C 	0.2862	0.6804	0.6761	-0.14
Mof_H 	H 	0.3043	0.68	0.6254	0.064
Mof_N 	N 	0.4651	0.9	0.7718	-0.241
Mof_N 	N 	0.5093	0.9842	0.7882	-0.238
Mof_N 	N 	0.4596	0.6482	0.7076	-0.233
Mof_N 	N 	0.4518	0.7364	0.7338	-0.238
Mof_N 	N 	0.1812	0.6772	0.7499	-0.279
Mof_N 	N 	0.4722	0.9296	0.0645	-0.25
Mof_O 	O 	0.4469	0.8422	0.6404	-0.369
Mof_O 	O 	0.4778	0.9126	0.568	-0.197
Mof_O 	O 	0.545	0.0609	0.6831	-0.383
Mof_O 	O 	0.5176	0.0074	0.5866	-0.418
Mof_H 	H 	0.4726	0.0034	0.5761	0.272
Mof_O 	O 	0.5806	0.5845	0.6915	-0.385
Mof_O 	O 	0.6586	0.6535	0.6991	-0.194
Mof_O 	O 	0.5632	0.8101	0.7538	-0.382
Mof_O 	O 	0.6487	0.751	0.7219	-0.399
Mof_H 	H 	0.6709	0.748	0.7636	0.255
Mof_Zn	Zn	0.03642	0.93563	0.68593	1.177
Mof_Zn	Zn	0.93714	0.18196	0.74036	1.177
Mof_C 	C 	0.0247	0.9829	0.8419	0.353
Mof_C 	C 	0.8353	0.3161	0.7683	0.019
Mof_C 	C 	0.985	0.0616	0.6786	0.109
Mof_C 	C 	0.038	0.059	0.4723	0.04
Mof_H 	H 	0.081	0.0527	0.4426	0.021
Mof_C 	C 	0.9156	0.0823	0.4789	0.057
Mof_H 	H 	0.8704	0.0917	0.4548	-0.026
Mof_C 	C 	0.0939	0.3674	0.8005	0.29
Mof_C 	C 	0.9667	0.1098	0.8675	0.273
Mof_C 	C 	0.0296	0.3317	0.7909	-0.017
Mof_C 	C 	0.9782	0.0777	0.7985	-0.017
Mof_C 	C 	0.0239	0.2772	0.776	-0.045
Mof_C 	C 	0.0041	0.0259	0.7884	-0.052
Mof_C 	C 	0.9131	0.3108	0.7768	0.088
Mof_C 	C 	0.9815	0.0675	0.5944	-0.018
Mof_C 	C 	0.0437	0.0566	0.5497	-0.084
Mof_H 	H 	0.0894	0.0475	0.5729	0.045
Mof_C 	C 	0.9174	0.082	0.5577	-0.102
Mof_H 	H 	0.8747	0.0918	0.586	0.046
Mof_C 	C 	0.7117	0.3225	0.8138	0.1
Mof_H 	H 	0.6812	0.3245	0.8576	-0.01
Mof_C 	C 	0.0802	0.2356	0.7659	0.341
Mof_C 	C 	0.7998	0.3161	0.703	-0.13
Mof_H 	H 	0.8289	0.3152	0.6581	0.067
Mof_C 	C 	0.7214	0.3172	0.6935	0.092
Mof_H 	H 	0.7002	0.3137	0.6444	-0.043
Mof_C 	C 	0.7862	0.3196	0.8239	-0.14
Mof_H 	H 	0.8043	0.32	0.8746	0.064
Mof_N 	N 	0.9651	0.1	0.7282	-0.241
Mof_N 	N 	0.0093	0.0158	0.7118	-0.237
Mof_N 	N 	0.9596	0.3518	0.7924	-0.234
Mof_N 	N 	0.9518	0.2636	0.7662	-0.238
Mof_N 	N 	0.6812	0.3228	0.7501	-0.279
Mof_N 	N 	0.9722	0.0704	0.4355	-0.251
Mof_O 	O 	0.9469	0.1578	0.8596	-0.369
Mof_O 	O 	0.9778	0.0874	0.932	-0.199
Mof_O 	O 	0.045	0.9391	0.8169	-0.383
Mof_O 	O 	0.0176	0.9926	0.9134	-0.419
Mof_H 	H 	0.9726	0.9966	0.9239	0.274
Mof_O 	O 	0.0806	0.4155	0.8085	-0.384
Mof_O 	O 	0.1586	0.3465	0.8009	-0.194
Mof_O 	O 	0.0632	0.1899	0.7462	-0.381
Mof_O 	O 	0.1487	0.249	0.7781	-0.399
Mof_H 	H 	0.1709	0.252	0.7364	0.255
Mof_Zn	Zn	0.46358	0.56437	0.68593	1.177
Mof_Zn	Zn	0.56286	0.31804	0.74036	1.177
Mof_C 	C 	0.4753	0.5171	0.8419	0.356
Mof_C 	C 	0.6647	0.1839	0.7683	0.02
Mof_C 	C 	0.515	0.4384	0.6786	0.111
Mof_C 	C 	0.462	0.441	0.4723	0.039
Mof_H 	H 	0.419	0.4473	0.4426	0.021
Mof_C 	C 	0.5844	0.4177	0.4789	0.058
Mof_H 	H 	0.6296	0.4083	0.4548	-0.026
Mof_C 	C 	0.4061	0.1326	0.8005	0.29
Mof_C 	C 	0.5333	0.3902	0.8675	0.272
Mof_C 	C 	0.4704	0.1683	0.7909	-0.017
Mof_C 	C 	0.5218	0.4223	0.7985	-0.014
Mof_C 	C 	0.4761	0.2228	0.776	-0.046
Mof_C 	C 	0.4959	0.4741	0.7884	-0.057
Mof_C 	C 	0.5869	0.1892	0.7768	0.088
Mof_C 	C 	0.5185	0.4325	0.5944	-0.016
Mof_C 	C 	0.4563	0.4434	0.5497	-0.086
Mof_H 	H 	0.4106	0.4525	0.5729	0.046
Mof_C 	C 	0.5826	0.418	0.5577	-0.103
Mof_H 	H 	0.6253	0.4082	0.586	0.047
Mof_C 	C 	0.7883	0.1775	0.8138	0.1
Mof_H 	H 	0.8188	0.1755	0.8576	-0.01
Mof_C 	C 	0.4198	0.2644	0.7659	0.342
Mof_C 	C 	0.7002	0.1839	0.703	-0.13
Mof_H 	H 	0.6711	0.1848	0.6581	0.067
Mof_C 	C 	0.7786	0.1828	0.6935	0.092
Mof_H 	H 	0.7998	0.1863	0.6444	-0.043
Mof_C 	C 	0.7138	0.1804	0.8239	-0.14
Mof_H 	H 	0.6957	0.18	0.8746	0.064
Mof_N 	N 	0.5349	0.4	0.7282	-0.241
Mof_N 	N 	0.4907	0.4842	0.7118	-0.238
Mof_N 	N 	0.5404	0.1482	0.7924	-0.233
Mof_N 	N 	0.5482	0.2364	0.7662	-0.238
Mof_N 	N 	0.8188	0.1772	0.7501	-0.279
Mof_N 	N 	0.5278	0.4296	0.4355	-0.25
Mof_O 	O 	0.5531	0.3422	0.8596	-0.369
Mof_O 	O 	0.5222	0.4126	0.932	-0.198
Mof_O 	O 	0.455	0.5609	0.8169	-0.383
Mof_O 	O 	0.4824	0.5074	0.9134	-0.418
Mof_H 	H 	0.5274	0.5034	0.9239	0.272
Mof_O 	O 	0.4194	0.0845	0.8085	-0.384
Mof_O 	O 	0.3414	0.1535	0.8009	-0.194
Mof_O 	O 	0.4368	0.3101	0.7462	-0.382
Mof_O 	O 	0.3513	0.251	0.7781	-0.4
Mof_H 	H 	0.3291	0.248	0.7364	0.256
_end
