data_functionalizedCrystal
_audit_creation_method	'EQeq! by Chris Wilmer'
_symmetry_space_group_name_H-M	'P1'
_symmetry_Int_Tables_number	1
_symmetry_cell_setting	triclinic
loop_
_symmetry_equiv_pos_as_xyz
  x,y,z
_cell_length_a	11.3571
_cell_length_b	11.4964
_cell_length_c	12.9352
_cell_angle_alpha	88.867
_cell_angle_beta	64.614
_cell_angle_gamma	69.305
loop_
_atom_site_label
_atom_site_type_symbol
_atom_site_fract_x
_atom_site_fract_y
_atom_site_fract_z
_atom_site_charge
Mof_Cu	Cu	0.86319	0.05879	0.00615	0.789
Mof_Cu	Cu	0.17028	0.87794	0.59423	0.826
Mof_Cu	Cu	0.64266	0.81923	0.29311	0.819
Mof_Cu	Cu	0.13681	0.94121	0.99385	0.79
Mof_Cu	Cu	0.82972	0.12206	0.40577	0.827
Mof_Cu	Cu	0.35734	0.18077	0.70689	0.819
Mof_H 	H 	0.8671	0.8881	0.7051	0.087
Mof_H 	H 	0.612	0.198	0.2254	0.078
Mof_H 	H 	0.9176	0.821	0.3052	0.011
Mof_H 	H 	0.7627	0.8578	0.4018	-0.023
Mof_H 	H 	0.2218	0.702	0.3253	0.206
Mof_H 	H 	0.1422	0.8124	0.2771	0.203
Mof_H 	H 	0.2188	0.8372	0.3453	0.189
Mof_H 	H 	0.7235	0.583	0.1577	0.018
Mof_H 	H 	0.6013	0.598	0.2811	0.018
Mof_H 	H 	0.8801	0.3585	0.2821	0.053
Mof_H 	H 	0.0113	0.5725	0.4109	0.078
Mof_H 	H 	0.8902	0.4091	0.9585	0.198
Mof_H 	H 	0.9851	0.3499	0.0202	0.184
Mof_H 	H 	0.9689	0.2627	0.9397	0.159
Mof_H 	H 	0.612	0.9526	0.698	0.172
Mof_H 	H 	0.6299	0.8506	0.6078	0.186
Mof_H 	H 	0.6621	0.8102	0.7123	0.197
Mof_H 	H 	0.4523	0.3414	0.4069	0.214
Mof_H 	H 	0.5013	0.4445	0.432	0.208
Mof_H 	H 	0.4036	0.4743	0.3706	0.215
Mof_H 	H 	0.0163	0.3777	0.366	0.001
Mof_H 	H 	0.1329	0.1119	0.2949	0.087
Mof_H 	H 	0.388	0.802	0.7746	0.078
Mof_H 	H 	0.0824	0.179	0.6948	0.011
Mof_H 	H 	0.2373	0.1422	0.5982	-0.023
Mof_H 	H 	0.7782	0.298	0.6747	0.206
Mof_H 	H 	0.8578	0.1876	0.7229	0.203
Mof_H 	H 	0.7812	0.1628	0.6547	0.189
Mof_H 	H 	0.2765	0.417	0.8423	0.018
Mof_H 	H 	0.3987	0.402	0.7189	0.018
Mof_H 	H 	0.1199	0.6415	0.7179	0.053
Mof_H 	H 	0.9887	0.4275	0.5891	0.078
Mof_H 	H 	0.1098	0.5909	0.0415	0.198
Mof_H 	H 	0.0149	0.6501	0.9798	0.184
Mof_H 	H 	0.0311	0.7373	0.0603	0.159
Mof_H 	H 	0.388	0.0474	0.302	0.172
Mof_H 	H 	0.3701	0.1494	0.3922	0.186
Mof_H 	H 	0.3379	0.1898	0.2877	0.197
Mof_H 	H 	0.5477	0.6586	0.5931	0.214
Mof_H 	H 	0.4987	0.5555	0.568	0.208
Mof_H 	H 	0.5964	0.5257	0.6294	0.215
Mof_H 	H 	0.9837	0.6223	0.634	0.001
Mof_C 	C 	0.03416	0.82102	0.45036	0.222
Mof_C 	C 	0.98777	0.98815	0.85227	-0.286
Mof_C 	C 	0.79742	0.33014	0.0958	0.207
Mof_C 	C 	0.6979	0.91674	0.17761	-0.259
Mof_C 	C 	0.90366	0.82207	0.46723	-0.19
Mof_C 	C 	0.6067	0.36428	0.26323	0.231
Mof_C 	C 	0.81952	0.8527	0.58481	0.222
Mof_C 	C 	0.85936	0.80019	0.3774	-0.099
Mof_C 	C 	0.69927	0.41862	0.19656	-0.166
Mof_C 	C 	0.86888	0.66896	0.35466	0.087
Mof_C 	C 	0.166	0.7904	0.33965	-0.697
Mof_C 	C 	0.79223	0.54434	0.28082	0.093
Mof_C 	C 	0.6972	0.54479	0.22744	-0.126
Mof_C 	C 	0.8776	0.43714	0.3013	-0.168
Mof_C 	C 	0.9559	0.56442	0.3777	-0.165
Mof_C 	C 	0.9214	0.3387	0.9945	-0.635
Mof_C 	C 	0.6668	0.8679	0.6574	-0.645
Mof_C 	C 	0.4796	0.4102	0.3785	-0.708
Mof_C 	C 	0.9587	0.449	0.3507	0.048
Mof_C 	C 	0.3563	0.84809	0.48951	-0.248
Mof_C 	C 	0.96584	0.17898	0.54964	0.222
Mof_C 	C 	0.01223	0.01185	0.14773	-0.286
Mof_C 	C 	0.20258	0.66986	0.9042	0.207
Mof_C 	C 	0.3021	0.08326	0.82239	-0.259
Mof_C 	C 	0.09634	0.17793	0.53277	-0.19
Mof_C 	C 	0.3933	0.63572	0.73677	0.231
Mof_C 	C 	0.18048	0.1473	0.41519	0.222
Mof_C 	C 	0.14064	0.19981	0.6226	-0.099
Mof_C 	C 	0.30073	0.58138	0.80344	-0.166
Mof_C 	C 	0.13112	0.33104	0.64534	0.087
Mof_C 	C 	0.834	0.2096	0.66035	-0.697
Mof_C 	C 	0.20777	0.45566	0.71918	0.093
Mof_C 	C 	0.3028	0.45521	0.77256	-0.126
Mof_C 	C 	0.1224	0.56286	0.6987	-0.168
Mof_C 	C 	0.0441	0.43558	0.6223	-0.165
Mof_C 	C 	0.0786	0.6613	0.0055	-0.635
Mof_C 	C 	0.3332	0.1321	0.3426	-0.645
Mof_C 	C 	0.5204	0.5898	0.6215	-0.708
Mof_C 	C 	0.0413	0.551	0.6493	0.048
Mof_C 	C 	0.6437	0.15191	0.51049	-0.248
Mof_N 	N 	0.76677	0.22866	0.1006	-0.253
Mof_N 	N 	0.78782	0.65779	0.30773	-0.256
Mof_N 	N 	0.89772	0.86786	0.63194	-0.208
Mof_N 	N 	0.03115	0.84788	0.55187	-0.245
Mof_N 	N 	0.73707	0.97692	0.11123	-0.201
Mof_N 	N 	0.65227	0.25085	0.20193	-0.212
Mof_N 	N 	0.05615	0.94303	0.75739	-0.21
Mof_N 	N 	0.4671	0.83539	0.42002	-0.22
Mof_N 	N 	0.23323	0.77134	0.8994	-0.253
Mof_N 	N 	0.21218	0.34221	0.69227	-0.256
Mof_N 	N 	0.10228	0.13214	0.36806	-0.208
Mof_N 	N 	0.96885	0.15212	0.44813	-0.245
Mof_N 	N 	0.26293	0.02308	0.88877	-0.201
Mof_N 	N 	0.34773	0.74915	0.79807	-0.212
Mof_N 	N 	0.94385	0.05697	0.24261	-0.21
Mof_N 	N 	0.5329	0.16461	0.57998	-0.22
_end
