# CIF file generated by openbabel 3.1.0, see https://openbabel.org
data_I
_chemical_name_common 'image0'
_cell_length_a 11.3346
_cell_length_b 15.368
_cell_length_c 11.167
_cell_angle_alpha 90
_cell_angle_beta 90.949
_cell_angle_gamma 90
_space_group_name_H-M_alt 'P 1'
_space_group_name_Hall 'P 1'
loop_
    _symmetry_equiv_pos_as_xyz
    x,y,z
loop_
    _atom_site_label
    _atom_site_type_symbol
    _atom_site_fract_x
    _atom_site_fract_y
    _atom_site_fract_z
    _atom_site_occupancy
    K1       K        0.28584    0.07458    0.01047    1.000
    O1       O        0.47200    0.85193    0.39970    1.000
    O2       O        0.62000    0.93693    0.34550    1.000
    O3       O        0.64770    0.85650    0.77340    1.000
    O4       O        0.58870    0.93739    0.62080    1.000
    C1       C        0.72210    0.75140    0.37970    1.000
    H1       H        0.70340    0.75240    0.29830    1.000
    C2       C        0.66730    0.81000    0.45540    1.000
    C3       C        0.69560    0.80910    0.57740    1.000
    C4       C        0.57770    0.87060    0.39930    1.000
    C5       C        0.64110    0.87130    0.66450    1.000
    K2       K        0.78584    0.57458    0.01047    1.000
    O5       O        0.97200    0.35193    0.39970    1.000
    O6       O        0.12000    0.43693    0.34550    1.000
    O7       O        0.14770    0.35650    0.77340    1.000
    O8       O        0.08870    0.43739    0.62080    1.000
    C6       C        0.22210    0.25140    0.37970    1.000
    H2       H        0.20340    0.25240    0.29830    1.000
    C7       C        0.16730    0.31000    0.45540    1.000
    C8       C        0.19560    0.30910    0.57740    1.000
    C9       C        0.07770    0.37060    0.39930    1.000
    C10      C        0.14110    0.37130    0.66450    1.000
    K3       K        0.71416    0.07458    0.48953    1.000
    O9       O        0.52800    0.85193    0.10030    1.000
    O10      O        0.38000    0.93693    0.15450    1.000
    O11      O        0.35230    0.85650    0.72660    1.000
    O12      O        0.41130    0.93739    0.87920    1.000
    C11      C        0.27790    0.75140    0.12030    1.000
    H3       H        0.29660    0.75240    0.20170    1.000
    C12      C        0.33270    0.81000    0.04460    1.000
    C13      C        0.30440    0.80910    0.92260    1.000
    C14      C        0.42230    0.87060    0.10070    1.000
    C15      C        0.35890    0.87130    0.83550    1.000
    K4       K        0.21416    0.57458    0.48953    1.000
    O13      O        0.02800    0.35193    0.10030    1.000
    O14      O        0.88000    0.43693    0.15450    1.000
    O15      O        0.85230    0.35650    0.72660    1.000
    O16      O        0.91130    0.43739    0.87920    1.000
    C16      C        0.77790    0.25140    0.12030    1.000
    H4       H        0.79660    0.25240    0.20170    1.000
    C17      C        0.83270    0.31000    0.04460    1.000
    C18      C        0.80440    0.30910    0.92260    1.000
    C19      C        0.92230    0.37060    0.10070    1.000
    C20      C        0.85890    0.37130    0.83550    1.000
    K5       K        0.71416    0.92542    0.98953    1.000
    O17      O        0.52800    0.14807    0.60030    1.000
    O18      O        0.38000    0.06307    0.65450    1.000
    O19      O        0.35230    0.14350    0.22660    1.000
    O20      O        0.41130    0.06261    0.37920    1.000
    C21      C        0.27790    0.24860    0.62030    1.000
    H5       H        0.29660    0.24760    0.70170    1.000
    C22      C        0.33270    0.19000    0.54460    1.000
    C23      C        0.30440    0.19090    0.42260    1.000
    C24      C        0.42230    0.12940    0.60070    1.000
    C25      C        0.35890    0.12870    0.33550    1.000
    K6       K        0.21416    0.42542    0.98953    1.000
    O21      O        0.02800    0.64807    0.60030    1.000
    O22      O        0.88000    0.56307    0.65450    1.000
    O23      O        0.85230    0.64350    0.22660    1.000
    O24      O        0.91130    0.56261    0.37920    1.000
    C26      C        0.77790    0.74860    0.62030    1.000
    H6       H        0.79660    0.74760    0.70170    1.000
    C27      C        0.83270    0.69000    0.54460    1.000
    C28      C        0.80440    0.69090    0.42260    1.000
    C29      C        0.92230    0.62940    0.60070    1.000
    C30      C        0.85890    0.62870    0.33550    1.000
    K7       K        0.28584    0.92542    0.51047    1.000
    O25      O        0.47200    0.14807    0.89970    1.000
    O26      O        0.62000    0.06307    0.84550    1.000
    O27      O        0.64770    0.14350    0.27340    1.000
    O28      O        0.58870    0.06261    0.12080    1.000
    C31      C        0.72210    0.24860    0.87970    1.000
    H7       H        0.70340    0.24760    0.79830    1.000
    C32      C        0.66730    0.19000    0.95540    1.000
    C33      C        0.69560    0.19090    0.07740    1.000
    C34      C        0.57770    0.12940    0.89930    1.000
    C35      C        0.64110    0.12870    0.16450    1.000
    K8       K        0.78584    0.42542    0.51047    1.000
    O29      O        0.97200    0.64807    0.89970    1.000
    O30      O        0.12000    0.56307    0.84550    1.000
    O31      O        0.14770    0.64350    0.27340    1.000
    O32      O        0.08870    0.56261    0.12080    1.000
    C36      C        0.22210    0.74860    0.87970    1.000
    H8       H        0.20340    0.74760    0.79830    1.000
    C37      C        0.16730    0.69000    0.95540    1.000
    C38      C        0.19560    0.69090    0.07740    1.000
    C39      C        0.07770    0.62940    0.89930    1.000
    C40      C        0.14110    0.62870    0.16450    1.000
    Co1      Co       0.50000    0.00282    0.25000    1.000
    Co2      Co       0.00000    0.50282    0.25000    1.000
    Co3      Co       0.50000    0.99718    0.75000    1.000
    Co4      Co       0.00000    0.49718    0.75000    1.000
