# CIF file generated by openbabel 3.1.0, see https://openbabel.org
data_I
_chemical_name_common 'image0'
_cell_length_a 18.408
_cell_length_b 9.3923
_cell_length_c 10.07
_cell_angle_alpha 90
_cell_angle_beta 90
_cell_angle_gamma 90
_space_group_name_H-M_alt 'P 1'
_space_group_name_Hall 'P 1'
loop_
    _symmetry_equiv_pos_as_xyz
    x,y,z
loop_
    _atom_site_label
    _atom_site_type_symbol
    _atom_site_fract_x
    _atom_site_fract_y
    _atom_site_fract_z
    _atom_site_occupancy
    O1       O        0.62000    0.00170    0.42770    1.000
    O2       O        0.53490    0.76540    0.51550    1.000
    O3       O        0.54510    0.65820    0.70850    1.000
    Ru1      Ru       0.48527    0.05914    0.59396    1.000
    O4       O        0.50490    0.88020    0.70380    1.000
    O5       O        0.70370    0.11940    0.53970    1.000
    O6       O        0.59030    0.11870    0.61570    1.000
    O7       O        0.70850    0.11410    0.82990    1.000
    H1       H        0.69870    0.16200    0.89930    1.000
    H2       H        0.67000    0.07490    0.80090    1.000
    C1       C        0.52790    0.76770    0.64410    1.000
    C2       C        0.63840    0.08130    0.52890    1.000
    K1       K        0.43060    0.50360    0.55210    1.000
    O8       O        0.88000    0.49830    0.42770    1.000
    O9       O        0.96510    0.73460    0.51550    1.000
    O10      O        0.95490    0.84180    0.70850    1.000
    Ru2      Ru       0.01473    0.44086    0.59396    1.000
    O11      O        0.99510    0.61980    0.70380    1.000
    O12      O        0.79630    0.38060    0.53970    1.000
    O13      O        0.90970    0.38130    0.61570    1.000
    O14      O        0.79150    0.38590    0.82990    1.000
    H3       H        0.80130    0.33800    0.89930    1.000
    H4       H        0.83000    0.42510    0.80090    1.000
    C3       C        0.97210    0.73230    0.64410    1.000
    C4       C        0.86160    0.41870    0.52890    1.000
    K2       K        0.06940    0.99640    0.55210    1.000
    O15      O        0.38000    0.50170    0.07230    1.000
    O16      O        0.46510    0.26540    0.98450    1.000
    O17      O        0.45490    0.15820    0.79150    1.000
    Ru3      Ru       0.51473    0.55914    0.90604    1.000
    O18      O        0.49510    0.38020    0.79620    1.000
    O19      O        0.29630    0.61940    0.96030    1.000
    O20      O        0.40970    0.61870    0.88430    1.000
    O21      O        0.29150    0.61410    0.67010    1.000
    H5       H        0.30130    0.66200    0.60070    1.000
    H6       H        0.33000    0.57490    0.69910    1.000
    C5       C        0.47210    0.26770    0.85590    1.000
    C6       C        0.36160    0.58130    0.97110    1.000
    K3       K        0.56940    0.00360    0.94790    1.000
    O22      O        0.12000    0.99830    0.07230    1.000
    O23      O        0.03490    0.23460    0.98450    1.000
    O24      O        0.04510    0.34180    0.79150    1.000
    Ru4      Ru       0.98527    0.94086    0.90604    1.000
    O25      O        0.00490    0.11980    0.79620    1.000
    O26      O        0.20370    0.88060    0.96030    1.000
    O27      O        0.09030    0.88130    0.88430    1.000
    O28      O        0.20850    0.88590    0.67010    1.000
    H7       H        0.19870    0.83800    0.60070    1.000
    H8       H        0.17000    0.92510    0.69910    1.000
    C7       C        0.02790    0.23230    0.85590    1.000
    C8       C        0.13840    0.91870    0.97110    1.000
    K4       K        0.93060    0.49640    0.94790    1.000
    O29      O        0.38000    0.99830    0.57230    1.000
    O30      O        0.46510    0.23460    0.48450    1.000
    O31      O        0.45490    0.34180    0.29150    1.000
    Ru5      Ru       0.51473    0.94086    0.40604    1.000
    O32      O        0.49510    0.11980    0.29620    1.000
    O33      O        0.29630    0.88060    0.46030    1.000
    O34      O        0.40970    0.88130    0.38430    1.000
    O35      O        0.29150    0.88590    0.17010    1.000
    H9       H        0.30130    0.83800    0.10070    1.000
    H10      H        0.33000    0.92510    0.19910    1.000
    C9       C        0.47210    0.23230    0.35590    1.000
    C10      C        0.36160    0.91870    0.47110    1.000
    K5       K        0.56940    0.49640    0.44790    1.000
    O36      O        0.12000    0.50170    0.57230    1.000
    O37      O        0.03490    0.26540    0.48450    1.000
    O38      O        0.04510    0.15820    0.29150    1.000
    Ru6      Ru       0.98527    0.55914    0.40604    1.000
    O39      O        0.00490    0.38020    0.29620    1.000
    O40      O        0.20370    0.61940    0.46030    1.000
    O41      O        0.09030    0.61870    0.38430    1.000
    O42      O        0.20850    0.61410    0.17010    1.000
    H11      H        0.19870    0.66200    0.10070    1.000
    H12      H        0.17000    0.57490    0.19910    1.000
    C11      C        0.02790    0.26770    0.35590    1.000
    C12      C        0.13840    0.58130    0.47110    1.000
    K6       K        0.93060    0.00360    0.44790    1.000
    O43      O        0.62000    0.49830    0.92770    1.000
    O44      O        0.53490    0.73460    0.01550    1.000
    O45      O        0.54510    0.84180    0.20850    1.000
    Ru7      Ru       0.48527    0.44086    0.09396    1.000
    O46      O        0.50490    0.61980    0.20380    1.000
    O47      O        0.70370    0.38060    0.03970    1.000
    O48      O        0.59030    0.38130    0.11570    1.000
    O49      O        0.70850    0.38590    0.32990    1.000
    H13      H        0.69870    0.33800    0.39930    1.000
    H14      H        0.67000    0.42510    0.30090    1.000
    C13      C        0.52790    0.73230    0.14410    1.000
    C14      C        0.63840    0.41870    0.02890    1.000
    K7       K        0.43060    0.99640    0.05210    1.000
    O50      O        0.88000    0.00170    0.92770    1.000
    O51      O        0.96510    0.76540    0.01550    1.000
    O52      O        0.95490    0.65820    0.20850    1.000
    Ru8      Ru       0.01473    0.05914    0.09396    1.000
    O53      O        0.99510    0.88020    0.20380    1.000
    O54      O        0.79630    0.11940    0.03970    1.000
    O55      O        0.90970    0.11870    0.11570    1.000
    O56      O        0.79150    0.11410    0.32990    1.000
    H15      H        0.80130    0.16200    0.39930    1.000
    H16      H        0.83000    0.07490    0.30090    1.000
    C15      C        0.97210    0.76770    0.14410    1.000
    C16      C        0.86160    0.08130    0.02890    1.000
    K8       K        0.06940    0.50360    0.05210    1.000
    Co1      Co       0.75000    0.25000    0.68458    1.000
    Co2      Co       0.25000    0.75000    0.81542    1.000
    Co3      Co       0.25000    0.75000    0.31542    1.000
    Co4      Co       0.75000    0.25000    0.18458    1.000
