data_functionalizedCrystal
_audit_creation_method	'EQeq! by Chris Wilmer'
_symmetry_space_group_name_H-M	'P1'
_symmetry_Int_Tables_number	1
_symmetry_cell_setting	triclinic
loop_
_symmetry_equiv_pos_as_xyz
  x,y,z
_cell_length_a	35.0198
_cell_length_b	35.0198
_cell_length_c	22.902
_cell_angle_alpha	90
_cell_angle_beta	90
_cell_angle_gamma	120
loop_
_atom_site_label
_atom_site_type_symbol
_atom_site_fract_x
_atom_site_fract_y
_atom_site_fract_z
_atom_site_charge
Mof_O 	O 	0.23427	0.38956	0.31066	-0.417
Mof_O 	O 	0.19195	0.30535	0.26562	-0.414
Mof_C 	C 	0.24464	0.38728	0.36194	0.381
Mof_C 	C 	0.2915	0.41874	0.38054	-0.148
Mof_C 	C 	0.32227	0.44694	0.33955	0.084
Mof_C 	C 	0.30532	0.41916	0.43533	0.09
Mof_H 	H 	0.3137	0.4464	0.301	0.016
Mof_C 	C 	0.36518	0.47555	0.35592	-0.17
Mof_C 	C 	0.34801	0.4478	0.45299	-0.171
Mof_H 	H 	0.2854	0.3994	0.4624	0.014
Mof_H 	H 	0.385	0.4948	0.3285	0.102
Mof_C 	C 	0.37908	0.4761	0.41186	0.12
Mof_H 	H 	0.3561	0.4484	0.4918	0.09
Mof_C 	C 	0.42629	0.50451	0.42996	-0.067
Mof_C 	C 	0.44611	0.48631	0.46453	-0.048
Mof_H 	H 	0.4293	0.4569	0.4755	0.046
Mof_H 	H 	0.4344	0.6104	0.4347	0.099
Mof_O 	O 	0.90094	0.72289	0.64399	-0.417
Mof_O 	O 	0.85862	0.63868	0.59895	-0.413
Mof_C 	C 	0.91131	0.72061	0.69527	0.382
Mof_C 	C 	0.95817	0.75207	0.71387	-0.146
Mof_C 	C 	0.98894	0.78027	0.67288	0.085
Mof_C 	C 	0.97199	0.75249	0.76866	0.09
Mof_H 	H 	0.98037	0.77973	0.63433	0.017
Mof_C 	C 	0.03185	0.80888	0.68925	-0.168
Mof_C 	C 	0.01468	0.78113	0.78632	-0.169
Mof_H 	H 	0.95207	0.73273	0.79573	0.016
Mof_H 	H 	0.05167	0.82813	0.66183	0.103
Mof_C 	C 	0.04575	0.80943	0.74519	0.12
Mof_H 	H 	0.02277	0.78173	0.82513	0.091
Mof_C 	C 	0.09296	0.83784	0.76329	-0.065
Mof_C 	C 	0.11278	0.81964	0.79786	-0.047
Mof_H 	H 	0.09597	0.79023	0.80883	0.047
Mof_H 	H 	0.10107	0.94373	0.76803	0.1
Mof_O 	O 	0.5676	0.05623	0.97733	-0.417
Mof_O 	O 	0.52528	0.97202	0.93229	-0.413
Mof_C 	C 	0.57797	0.05395	0.02861	0.383
Mof_C 	C 	0.62483	0.08541	0.04721	-0.147
Mof_C 	C 	0.6556	0.11361	0.00622	0.086
Mof_C 	C 	0.63865	0.08583	0.102	0.091
Mof_H 	H 	0.64703	0.11307	0.96767	0.017
Mof_C 	C 	0.69851	0.14222	0.02259	-0.169
Mof_C 	C 	0.68134	0.11447	0.11966	-0.17
Mof_H 	H 	0.61873	0.06607	0.12907	0.015
Mof_H 	H 	0.71833	0.16147	0.99517	0.103
Mof_C 	C 	0.71241	0.14277	0.07853	0.121
Mof_H 	H 	0.68943	0.11507	0.15847	0.091
Mof_C 	C 	0.75962	0.17118	0.09663	-0.065
Mof_C 	C 	0.77944	0.15298	0.1312	-0.047
Mof_H 	H 	0.76263	0.12357	0.14217	0.047
Mof_H 	H 	0.76773	0.27707	0.10137	0.1
Mof_O 	O 	0.61044	0.84471	0.31066	-0.416
Mof_O 	O 	0.69465	0.8866	0.26562	-0.413
Mof_C 	C 	0.61272	0.85736	0.36194	0.382
Mof_C 	C 	0.58126	0.87276	0.38054	-0.147
Mof_C 	C 	0.55306	0.87533	0.33955	0.085
Mof_C 	C 	0.58084	0.88616	0.43533	0.091
Mof_H 	H 	0.5536	0.8673	0.301	0.017
Mof_C 	C 	0.52445	0.88963	0.35592	-0.169
Mof_C 	C 	0.5522	0.90021	0.45299	-0.17
Mof_H 	H 	0.6006	0.886	0.4624	0.015
Mof_H 	H 	0.5052	0.8902	0.3285	0.103
Mof_C 	C 	0.5239	0.90298	0.41186	0.121
Mof_H 	H 	0.5516	0.9077	0.4918	0.091
Mof_C 	C 	0.49549	0.92178	0.42996	-0.065
Mof_C 	C 	0.51369	0.9598	0.46453	-0.047
Mof_H 	H 	0.5431	0.9724	0.4755	0.047
Mof_H 	H 	0.3896	0.824	0.4347	0.1
Mof_O 	O 	0.27711	0.17804	0.64399	-0.416
Mof_O 	O 	0.36132	0.21993	0.59895	-0.413
Mof_C 	C 	0.27939	0.19069	0.69527	0.382
Mof_C 	C 	0.24793	0.20609	0.71387	-0.147
Mof_C 	C 	0.21973	0.20866	0.67288	0.085
Mof_C 	C 	0.24751	0.21949	0.76866	0.091
Mof_H 	H 	0.22027	0.20063	0.63433	0.017
Mof_C 	C 	0.19112	0.22296	0.68925	-0.169
Mof_C 	C 	0.21887	0.23354	0.78632	-0.17
Mof_H 	H 	0.26727	0.21933	0.79573	0.015
Mof_H 	H 	0.17187	0.22353	0.66183	0.103
Mof_C 	C 	0.19057	0.23631	0.74519	0.121
Mof_H 	H 	0.21827	0.24103	0.82513	0.091
Mof_C 	C 	0.16216	0.25511	0.76329	-0.065
Mof_C 	C 	0.18036	0.29313	0.79786	-0.047
Mof_H 	H 	0.20977	0.30573	0.80883	0.047
Mof_H 	H 	0.05627	0.15733	0.76803	0.1
Mof_O 	O 	0.94377	0.51138	0.97733	-0.417
Mof_O 	O 	0.02798	0.55327	0.93229	-0.413
Mof_C 	C 	0.94605	0.52403	0.02861	0.382
Mof_C 	C 	0.91459	0.53943	0.04721	-0.147
Mof_C 	C 	0.88639	0.542	0.00622	0.086
Mof_C 	C 	0.91417	0.55283	0.102	0.091
Mof_H 	H 	0.88693	0.53397	0.96767	0.017
Mof_C 	C 	0.85778	0.5563	0.02259	-0.169
Mof_C 	C 	0.88553	0.56688	0.11966	-0.17
Mof_H 	H 	0.93393	0.55267	0.12907	0.015
Mof_H 	H 	0.83853	0.55687	0.99517	0.103
Mof_C 	C 	0.85723	0.56965	0.07853	0.121
Mof_H 	H 	0.88493	0.57437	0.15847	0.091
Mof_C 	C 	0.82882	0.58845	0.09663	-0.065
Mof_C 	C 	0.84702	0.62647	0.1312	-0.047
Mof_H 	H 	0.87643	0.63907	0.14217	0.047
Mof_H 	H 	0.72293	0.49067	0.10137	0.1
Mof_O 	O 	0.15529	0.76573	0.31066	-0.416
Mof_O 	O 	0.1134	0.80805	0.26562	-0.413
Mof_C 	C 	0.14264	0.75536	0.36194	0.382
Mof_C 	C 	0.12724	0.7085	0.38054	-0.147
Mof_C 	C 	0.12467	0.67773	0.33955	0.085
Mof_C 	C 	0.11384	0.69468	0.43533	0.091
Mof_H 	H 	0.1327	0.6863	0.301	0.017
Mof_C 	C 	0.11037	0.63482	0.35592	-0.169
Mof_C 	C 	0.09979	0.65199	0.45299	-0.17
Mof_H 	H 	0.114	0.7146	0.4624	0.015
Mof_H 	H 	0.1098	0.615	0.3285	0.103
Mof_C 	C 	0.09702	0.62092	0.41186	0.121
Mof_H 	H 	0.0923	0.6439	0.4918	0.091
Mof_C 	C 	0.07822	0.57371	0.42996	-0.065
Mof_C 	C 	0.0402	0.55389	0.46453	-0.047
Mof_H 	H 	0.0276	0.5707	0.4755	0.047
Mof_H 	H 	0.176	0.5656	0.4347	0.1
Mof_O 	O 	0.82196	0.09906	0.64399	-0.416
Mof_O 	O 	0.78007	0.14138	0.59895	-0.413
Mof_C 	C 	0.80931	0.08869	0.69527	0.382
Mof_C 	C 	0.79391	0.04183	0.71387	-0.146
Mof_C 	C 	0.79134	0.01106	0.67288	0.085
Mof_C 	C 	0.78051	0.02801	0.76866	0.09
Mof_H 	H 	0.79937	0.01963	0.63433	0.017
Mof_C 	C 	0.77704	0.96815	0.68925	-0.168
Mof_C 	C 	0.76646	0.98532	0.78632	-0.169
Mof_H 	H 	0.78067	0.04793	0.79573	0.016
Mof_H 	H 	0.77647	0.94833	0.66183	0.103
Mof_C 	C 	0.76369	0.95425	0.74519	0.12
Mof_H 	H 	0.75897	0.97723	0.82513	0.091
Mof_C 	C 	0.74489	0.90704	0.76329	-0.065
Mof_C 	C 	0.70687	0.88722	0.79786	-0.047
Mof_H 	H 	0.69427	0.90403	0.80883	0.047
Mof_H 	H 	0.84267	0.89893	0.76803	0.1
Mof_O 	O 	0.48862	0.4324	0.97733	-0.416
Mof_O 	O 	0.44673	0.47472	0.93229	-0.413
Mof_C 	C 	0.47597	0.42203	0.02861	0.382
Mof_C 	C 	0.46057	0.37517	0.04721	-0.147
Mof_C 	C 	0.458	0.3444	0.00622	0.086
Mof_C 	C 	0.44717	0.36135	0.102	0.091
Mof_H 	H 	0.46603	0.35297	0.96767	0.017
Mof_C 	C 	0.4437	0.30149	0.02259	-0.169
Mof_C 	C 	0.43312	0.31866	0.11966	-0.17
Mof_H 	H 	0.44733	0.38127	0.12907	0.015
Mof_H 	H 	0.44313	0.28167	0.99517	0.103
Mof_C 	C 	0.43035	0.28759	0.07853	0.121
Mof_H 	H 	0.42563	0.31057	0.15847	0.091
Mof_C 	C 	0.41155	0.24038	0.09663	-0.065
Mof_C 	C 	0.37353	0.22056	0.1312	-0.047
Mof_H 	H 	0.36093	0.23737	0.14217	0.047
Mof_H 	H 	0.50933	0.23227	0.10137	0.1
Mof_O 	O 	0.38956	0.23427	0.68934	-0.416
Mof_O 	O 	0.30535	0.19195	0.73438	-0.413
Mof_C 	C 	0.38728	0.24464	0.63806	0.382
Mof_C 	C 	0.41874	0.2915	0.61946	-0.147
Mof_C 	C 	0.44694	0.32227	0.66045	0.085
Mof_C 	C 	0.41916	0.30532	0.56467	0.091
Mof_H 	H 	0.4464	0.3137	0.699	0.017
Mof_C 	C 	0.47555	0.36518	0.64408	-0.169
Mof_C 	C 	0.4478	0.34801	0.54701	-0.17
Mof_H 	H 	0.3994	0.2854	0.5376	0.015
Mof_H 	H 	0.4948	0.385	0.6715	0.103
Mof_C 	C 	0.4761	0.37908	0.58814	0.121
Mof_H 	H 	0.4484	0.3561	0.5082	0.091
Mof_C 	C 	0.50451	0.42629	0.57004	-0.066
Mof_C 	C 	0.48631	0.44611	0.53547	-0.047
Mof_H 	H 	0.4569	0.4293	0.5245	0.047
Mof_H 	H 	0.6104	0.4344	0.5653	0.1
Mof_O 	O 	0.05623	0.5676	0.02267	-0.417
Mof_O 	O 	0.97202	0.52528	0.06771	-0.413
Mof_C 	C 	0.05395	0.57797	0.97139	0.383
Mof_C 	C 	0.08541	0.62483	0.95279	-0.147
Mof_C 	C 	0.11361	0.6556	0.99378	0.086
Mof_C 	C 	0.08583	0.63865	0.898	0.091
Mof_H 	H 	0.11307	0.64703	0.03233	0.017
Mof_C 	C 	0.14222	0.69851	0.97741	-0.169
Mof_C 	C 	0.11447	0.68134	0.88034	-0.17
Mof_H 	H 	0.06607	0.61873	0.87093	0.015
Mof_H 	H 	0.16147	0.71833	0.00483	0.103
Mof_C 	C 	0.14277	0.71241	0.92147	0.121
Mof_H 	H 	0.11507	0.68943	0.84153	0.091
Mof_C 	C 	0.17118	0.75962	0.90337	-0.065
Mof_C 	C 	0.15298	0.77944	0.8688	-0.047
Mof_H 	H 	0.12357	0.76263	0.85783	0.047
Mof_H 	H 	0.27707	0.76773	0.89863	0.1
Mof_O 	O 	0.72289	0.90094	0.35601	-0.416
Mof_O 	O 	0.63868	0.85862	0.40105	-0.413
Mof_C 	C 	0.72061	0.91131	0.30473	0.382
Mof_C 	C 	0.75207	0.95817	0.28613	-0.146
Mof_C 	C 	0.78027	0.98894	0.32712	0.085
Mof_C 	C 	0.75249	0.97199	0.23134	0.09
Mof_H 	H 	0.77973	0.98037	0.36567	0.017
Mof_C 	C 	0.80888	0.03185	0.31075	-0.168
Mof_C 	C 	0.78113	0.01468	0.21368	-0.169
Mof_H 	H 	0.73273	0.95207	0.20427	0.016
Mof_H 	H 	0.82813	0.05167	0.33817	0.103
Mof_C 	C 	0.80943	0.04575	0.25481	0.12
Mof_H 	H 	0.78173	0.02277	0.17487	0.091
Mof_C 	C 	0.83784	0.09296	0.23671	-0.065
Mof_C 	C 	0.81964	0.11278	0.20214	-0.047
Mof_H 	H 	0.79023	0.09597	0.19117	0.047
Mof_H 	H 	0.94373	0.10107	0.23197	0.1
Mof_O 	O 	0.84471	0.61044	0.68934	-0.416
Mof_O 	O 	0.8866	0.69465	0.73438	-0.413
Mof_C 	C 	0.85736	0.61272	0.63806	0.382
Mof_C 	C 	0.87276	0.58126	0.61946	-0.147
Mof_C 	C 	0.87533	0.55306	0.66045	0.085
Mof_C 	C 	0.88616	0.58084	0.56467	0.091
Mof_H 	H 	0.8673	0.5536	0.699	0.017
Mof_C 	C 	0.88963	0.52445	0.64408	-0.169
Mof_C 	C 	0.90021	0.5522	0.54701	-0.17
Mof_H 	H 	0.886	0.6006	0.5376	0.015
Mof_H 	H 	0.8902	0.5052	0.6715	0.103
Mof_C 	C 	0.90298	0.5239	0.58814	0.121
Mof_H 	H 	0.9077	0.5516	0.5082	0.091
Mof_C 	C 	0.92178	0.49549	0.57004	-0.065
Mof_C 	C 	0.9598	0.51369	0.53547	-0.047
Mof_H 	H 	0.9724	0.5431	0.5245	0.047
Mof_H 	H 	0.824	0.3896	0.5653	0.1
Mof_O 	O 	0.51138	0.94377	0.02267	-0.417
Mof_O 	O 	0.55327	0.02798	0.06771	-0.413
Mof_C 	C 	0.52403	0.94605	0.97139	0.382
Mof_C 	C 	0.53943	0.91459	0.95279	-0.147
Mof_C 	C 	0.542	0.88639	0.99378	0.086
Mof_C 	C 	0.55283	0.91417	0.898	0.091
Mof_H 	H 	0.53397	0.88693	0.03233	0.017
Mof_C 	C 	0.5563	0.85778	0.97741	-0.169
Mof_C 	C 	0.56688	0.88553	0.88034	-0.17
Mof_H 	H 	0.55267	0.93393	0.87093	0.015
Mof_H 	H 	0.55687	0.83853	0.00483	0.103
Mof_C 	C 	0.56965	0.85723	0.92147	0.121
Mof_H 	H 	0.57437	0.88493	0.84153	0.091
Mof_C 	C 	0.58845	0.82882	0.90337	-0.065
Mof_C 	C 	0.62647	0.84702	0.8688	-0.047
Mof_H 	H 	0.63907	0.87643	0.85783	0.047
Mof_H 	H 	0.49067	0.72293	0.89863	0.1
Mof_O 	O 	0.17804	0.27711	0.35601	-0.416
Mof_O 	O 	0.21993	0.36132	0.40105	-0.413
Mof_C 	C 	0.19069	0.27939	0.30473	0.382
Mof_C 	C 	0.20609	0.24793	0.28613	-0.147
Mof_C 	C 	0.20866	0.21973	0.32712	0.085
Mof_C 	C 	0.21949	0.24751	0.23134	0.091
Mof_H 	H 	0.20063	0.22027	0.36567	0.017
Mof_C 	C 	0.22296	0.19112	0.31075	-0.169
Mof_C 	C 	0.23354	0.21887	0.21368	-0.17
Mof_H 	H 	0.21933	0.26727	0.20427	0.015
Mof_H 	H 	0.22353	0.17187	0.33817	0.103
Mof_C 	C 	0.23631	0.19057	0.25481	0.121
Mof_H 	H 	0.24103	0.21827	0.17487	0.091
Mof_C 	C 	0.25511	0.16216	0.23671	-0.065
Mof_C 	C 	0.29313	0.18036	0.20214	-0.047
Mof_H 	H 	0.30573	0.20977	0.19117	0.047
Mof_H 	H 	0.15733	0.05627	0.23197	0.1
Mof_O 	O 	0.76573	0.15529	0.68934	-0.416
Mof_O 	O 	0.80805	0.1134	0.73438	-0.413
Mof_C 	C 	0.75536	0.14264	0.63806	0.382
Mof_C 	C 	0.7085	0.12724	0.61946	-0.147
Mof_C 	C 	0.67773	0.12467	0.66045	0.085
Mof_C 	C 	0.69468	0.11384	0.56467	0.091
Mof_H 	H 	0.6863	0.1327	0.699	0.017
Mof_C 	C 	0.63482	0.11037	0.64408	-0.169
Mof_C 	C 	0.65199	0.09979	0.54701	-0.17
Mof_H 	H 	0.7146	0.114	0.5376	0.015
Mof_H 	H 	0.615	0.1098	0.6715	0.103
Mof_C 	C 	0.62092	0.09702	0.58814	0.121
Mof_H 	H 	0.6439	0.0923	0.5082	0.091
Mof_C 	C 	0.57371	0.07822	0.57004	-0.065
Mof_C 	C 	0.55389	0.0402	0.53547	-0.047
Mof_H 	H 	0.5707	0.0276	0.5245	0.047
Mof_H 	H 	0.5656	0.176	0.5653	0.1
Mof_O 	O 	0.4324	0.48862	0.02267	-0.416
Mof_O 	O 	0.47472	0.44673	0.06771	-0.413
Mof_C 	C 	0.42203	0.47597	0.97139	0.382
Mof_C 	C 	0.37517	0.46057	0.95279	-0.147
Mof_C 	C 	0.3444	0.458	0.99378	0.086
Mof_C 	C 	0.36135	0.44717	0.898	0.091
Mof_H 	H 	0.35297	0.46603	0.03233	0.017
Mof_C 	C 	0.30149	0.4437	0.97741	-0.169
Mof_C 	C 	0.31866	0.43312	0.88034	-0.17
Mof_H 	H 	0.38127	0.44733	0.87093	0.015
Mof_H 	H 	0.28167	0.44313	0.00483	0.103
Mof_C 	C 	0.28759	0.43035	0.92147	0.121
Mof_H 	H 	0.31057	0.42563	0.84153	0.091
Mof_C 	C 	0.24038	0.41155	0.90337	-0.065
Mof_C 	C 	0.22056	0.37353	0.8688	-0.047
Mof_H 	H 	0.23737	0.36093	0.85783	0.047
Mof_H 	H 	0.23227	0.50933	0.89863	0.1
Mof_O 	O 	0.09906	0.82196	0.35601	-0.416
Mof_O 	O 	0.14138	0.78007	0.40105	-0.413
Mof_C 	C 	0.08869	0.80931	0.30473	0.382
Mof_C 	C 	0.04183	0.79391	0.28613	-0.146
Mof_C 	C 	0.01106	0.79134	0.32712	0.085
Mof_C 	C 	0.02801	0.78051	0.23134	0.09
Mof_H 	H 	0.01963	0.79937	0.36567	0.017
Mof_C 	C 	0.96815	0.77704	0.31075	-0.168
Mof_C 	C 	0.98532	0.76646	0.21368	-0.169
Mof_H 	H 	0.04793	0.78067	0.20427	0.016
Mof_H 	H 	0.94833	0.77647	0.33817	0.103
Mof_C 	C 	0.95425	0.76369	0.25481	0.12
Mof_H 	H 	0.97723	0.75897	0.17487	0.091
Mof_C 	C 	0.90704	0.74489	0.23671	-0.065
Mof_C 	C 	0.88722	0.70687	0.20214	-0.047
Mof_H 	H 	0.90403	0.69427	0.19117	0.047
Mof_H 	H 	0.89893	0.84267	0.23197	0.1
Mof_O 	O 	0.76573	0.61044	0.68934	-0.416
Mof_O 	O 	0.80805	0.69465	0.73438	-0.413
Mof_C 	C 	0.75536	0.61272	0.63806	0.382
Mof_C 	C 	0.7085	0.58126	0.61946	-0.147
Mof_C 	C 	0.67773	0.55306	0.66045	0.085
Mof_C 	C 	0.69468	0.58084	0.56467	0.091
Mof_H 	H 	0.6863	0.5536	0.699	0.017
Mof_C 	C 	0.63482	0.52445	0.64408	-0.169
Mof_C 	C 	0.65199	0.5522	0.54701	-0.17
Mof_H 	H 	0.7146	0.6006	0.5376	0.015
Mof_H 	H 	0.615	0.5052	0.6715	0.103
Mof_C 	C 	0.62092	0.5239	0.58814	0.121
Mof_H 	H 	0.6439	0.5516	0.5082	0.091
Mof_C 	C 	0.57371	0.49549	0.57004	-0.066
Mof_C 	C 	0.55389	0.51369	0.53547	-0.047
Mof_H 	H 	0.5707	0.5431	0.5245	0.047
Mof_H 	H 	0.5656	0.3896	0.5653	0.1
Mof_O 	O 	0.4324	0.94377	0.02267	-0.417
Mof_O 	O 	0.47472	0.02798	0.06771	-0.413
Mof_C 	C 	0.42203	0.94605	0.97139	0.383
Mof_C 	C 	0.37517	0.91459	0.95279	-0.147
Mof_C 	C 	0.3444	0.88639	0.99378	0.086
Mof_C 	C 	0.36135	0.91417	0.898	0.091
Mof_H 	H 	0.35297	0.88693	0.03233	0.017
Mof_C 	C 	0.30149	0.85778	0.97741	-0.169
Mof_C 	C 	0.31866	0.88553	0.88034	-0.17
Mof_H 	H 	0.38127	0.93393	0.87093	0.015
Mof_H 	H 	0.28167	0.83853	0.00483	0.103
Mof_C 	C 	0.28759	0.85723	0.92147	0.121
Mof_H 	H 	0.31057	0.88493	0.84153	0.091
Mof_C 	C 	0.24038	0.82882	0.90337	-0.065
Mof_C 	C 	0.22056	0.84702	0.8688	-0.047
Mof_H 	H 	0.23737	0.87643	0.85783	0.047
Mof_H 	H 	0.23227	0.72293	0.89863	0.1
Mof_O 	O 	0.09906	0.27711	0.35601	-0.416
Mof_O 	O 	0.14138	0.36132	0.40105	-0.413
Mof_C 	C 	0.08869	0.27939	0.30473	0.382
Mof_C 	C 	0.04183	0.24793	0.28613	-0.146
Mof_C 	C 	0.01106	0.21973	0.32712	0.085
Mof_C 	C 	0.02801	0.24751	0.23134	0.09
Mof_H 	H 	0.01963	0.22027	0.36567	0.017
Mof_C 	C 	0.96815	0.19112	0.31075	-0.168
Mof_C 	C 	0.98532	0.21887	0.21368	-0.169
Mof_H 	H 	0.04793	0.26727	0.20427	0.016
Mof_H 	H 	0.94833	0.17187	0.33817	0.103
Mof_C 	C 	0.95425	0.19057	0.25481	0.12
Mof_H 	H 	0.97723	0.21827	0.17487	0.091
Mof_C 	C 	0.90704	0.16216	0.23671	-0.065
Mof_C 	C 	0.88722	0.18036	0.20214	-0.047
Mof_H 	H 	0.90403	0.20977	0.19117	0.047
Mof_H 	H 	0.89893	0.05627	0.23197	0.1
Mof_O 	O 	0.38956	0.15529	0.68934	-0.416
Mof_O 	O 	0.30535	0.1134	0.73438	-0.413
Mof_C 	C 	0.38728	0.14264	0.63806	0.382
Mof_C 	C 	0.41874	0.12724	0.61946	-0.147
Mof_C 	C 	0.44694	0.12467	0.66045	0.085
Mof_C 	C 	0.41916	0.11384	0.56467	0.091
Mof_H 	H 	0.4464	0.1327	0.699	0.017
Mof_C 	C 	0.47555	0.11037	0.64408	-0.169
Mof_C 	C 	0.4478	0.09979	0.54701	-0.17
Mof_H 	H 	0.3994	0.114	0.5376	0.015
Mof_H 	H 	0.4948	0.1098	0.6715	0.103
Mof_C 	C 	0.4761	0.09702	0.58814	0.121
Mof_H 	H 	0.4484	0.0923	0.5082	0.091
Mof_C 	C 	0.50451	0.07822	0.57004	-0.065
Mof_C 	C 	0.48631	0.0402	0.53547	-0.047
Mof_H 	H 	0.4569	0.0276	0.5245	0.047
Mof_H 	H 	0.6104	0.176	0.5653	0.1
Mof_O 	O 	0.05623	0.48862	0.02267	-0.417
Mof_O 	O 	0.97202	0.44673	0.06771	-0.413
Mof_C 	C 	0.05395	0.47597	0.97139	0.382
Mof_C 	C 	0.08541	0.46057	0.95279	-0.147
Mof_C 	C 	0.11361	0.458	0.99378	0.086
Mof_C 	C 	0.08583	0.44717	0.898	0.091
Mof_H 	H 	0.11307	0.46603	0.03233	0.017
Mof_C 	C 	0.14222	0.4437	0.97741	-0.169
Mof_C 	C 	0.11447	0.43312	0.88034	-0.17
Mof_H 	H 	0.06607	0.44733	0.87093	0.015
Mof_H 	H 	0.16147	0.44313	0.00483	0.103
Mof_C 	C 	0.14277	0.43035	0.92147	0.121
Mof_H 	H 	0.11507	0.42563	0.84153	0.091
Mof_C 	C 	0.17118	0.41155	0.90337	-0.065
Mof_C 	C 	0.15298	0.37353	0.8688	-0.047
Mof_H 	H 	0.12357	0.36093	0.85783	0.047
Mof_H 	H 	0.27707	0.50933	0.89863	0.1
Mof_O 	O 	0.72289	0.82196	0.35601	-0.416
Mof_O 	O 	0.63868	0.78007	0.40105	-0.413
Mof_C 	C 	0.72061	0.80931	0.30473	0.382
Mof_C 	C 	0.75207	0.79391	0.28613	-0.147
Mof_C 	C 	0.78027	0.79134	0.32712	0.085
Mof_C 	C 	0.75249	0.78051	0.23134	0.091
Mof_H 	H 	0.77973	0.79937	0.36567	0.017
Mof_C 	C 	0.80888	0.77704	0.31075	-0.169
Mof_C 	C 	0.78113	0.76646	0.21368	-0.17
Mof_H 	H 	0.73273	0.78067	0.20427	0.015
Mof_H 	H 	0.82813	0.77647	0.33817	0.103
Mof_C 	C 	0.80943	0.76369	0.25481	0.121
Mof_H 	H 	0.78173	0.75897	0.17487	0.091
Mof_C 	C 	0.83784	0.74489	0.23671	-0.065
Mof_C 	C 	0.81964	0.70687	0.20214	-0.047
Mof_H 	H 	0.79023	0.69427	0.19117	0.047
Mof_H 	H 	0.94373	0.84267	0.23197	0.1
Mof_O 	O 	0.84471	0.23427	0.68934	-0.416
Mof_O 	O 	0.8866	0.19195	0.73438	-0.413
Mof_C 	C 	0.85736	0.24464	0.63806	0.382
Mof_C 	C 	0.87276	0.2915	0.61946	-0.147
Mof_C 	C 	0.87533	0.32227	0.66045	0.085
Mof_C 	C 	0.88616	0.30532	0.56467	0.091
Mof_H 	H 	0.8673	0.3137	0.699	0.017
Mof_C 	C 	0.88963	0.36518	0.64408	-0.169
Mof_C 	C 	0.90021	0.34801	0.54701	-0.17
Mof_H 	H 	0.886	0.2854	0.5376	0.015
Mof_H 	H 	0.8902	0.385	0.6715	0.103
Mof_C 	C 	0.90298	0.37908	0.58814	0.121
Mof_H 	H 	0.9077	0.3561	0.5082	0.091
Mof_C 	C 	0.92178	0.42629	0.57004	-0.065
Mof_C 	C 	0.9598	0.44611	0.53547	-0.047
Mof_H 	H 	0.9724	0.4293	0.5245	0.047
Mof_H 	H 	0.824	0.4344	0.5653	0.1
Mof_O 	O 	0.51138	0.5676	0.02267	-0.416
Mof_O 	O 	0.55327	0.52528	0.06771	-0.413
Mof_C 	C 	0.52403	0.57797	0.97139	0.382
Mof_C 	C 	0.53943	0.62483	0.95279	-0.147
Mof_C 	C 	0.542	0.6556	0.99378	0.086
Mof_C 	C 	0.55283	0.63865	0.898	0.091
Mof_H 	H 	0.53397	0.64703	0.03233	0.017
Mof_C 	C 	0.5563	0.69851	0.97741	-0.169
Mof_C 	C 	0.56688	0.68134	0.88034	-0.17
Mof_H 	H 	0.55267	0.61873	0.87093	0.015
Mof_H 	H 	0.55687	0.71833	0.00483	0.103
Mof_C 	C 	0.56965	0.71241	0.92147	0.121
Mof_H 	H 	0.57437	0.68943	0.84153	0.091
Mof_C 	C 	0.58845	0.75962	0.90337	-0.065
Mof_C 	C 	0.62647	0.77944	0.8688	-0.047
Mof_H 	H 	0.63907	0.76263	0.85783	0.047
Mof_H 	H 	0.49067	0.76773	0.89863	0.1
Mof_O 	O 	0.17804	0.90094	0.35601	-0.416
Mof_O 	O 	0.21993	0.85862	0.40105	-0.413
Mof_C 	C 	0.19069	0.91131	0.30473	0.382
Mof_C 	C 	0.20609	0.95817	0.28613	-0.146
Mof_C 	C 	0.20866	0.98894	0.32712	0.085
Mof_C 	C 	0.21949	0.97199	0.23134	0.09
Mof_H 	H 	0.20063	0.98037	0.36567	0.017
Mof_C 	C 	0.22296	0.03185	0.31075	-0.168
Mof_C 	C 	0.23354	0.01468	0.21368	-0.169
Mof_H 	H 	0.21933	0.95207	0.20427	0.016
Mof_H 	H 	0.22353	0.05167	0.33817	0.103
Mof_C 	C 	0.23631	0.04575	0.25481	0.12
Mof_H 	H 	0.24103	0.02277	0.17487	0.091
Mof_C 	C 	0.25511	0.09296	0.23671	-0.065
Mof_C 	C 	0.29313	0.11278	0.20214	-0.047
Mof_H 	H 	0.30573	0.09597	0.19117	0.047
Mof_H 	H 	0.15733	0.10107	0.23197	0.1
Mof_O 	O 	0.61044	0.76573	0.31066	-0.416
Mof_O 	O 	0.69465	0.80805	0.26562	-0.413
Mof_C 	C 	0.61272	0.75536	0.36194	0.382
Mof_C 	C 	0.58126	0.7085	0.38054	-0.147
Mof_C 	C 	0.55306	0.67773	0.33955	0.085
Mof_C 	C 	0.58084	0.69468	0.43533	0.091
Mof_H 	H 	0.5536	0.6863	0.301	0.017
Mof_C 	C 	0.52445	0.63482	0.35592	-0.169
Mof_C 	C 	0.5522	0.65199	0.45299	-0.17
Mof_H 	H 	0.6006	0.7146	0.4624	0.015
Mof_H 	H 	0.5052	0.615	0.3285	0.103
Mof_C 	C 	0.5239	0.62092	0.41186	0.121
Mof_H 	H 	0.5516	0.6439	0.4918	0.091
Mof_C 	C 	0.49549	0.57371	0.42996	-0.066
Mof_C 	C 	0.51369	0.55389	0.46453	-0.047
Mof_H 	H 	0.5431	0.5707	0.4755	0.047
Mof_H 	H 	0.3896	0.5656	0.4347	0.1
Mof_O 	O 	0.27711	0.09906	0.64399	-0.416
Mof_O 	O 	0.36132	0.14138	0.59895	-0.413
Mof_C 	C 	0.27939	0.08869	0.69527	0.382
Mof_C 	C 	0.24793	0.04183	0.71387	-0.146
Mof_C 	C 	0.21973	0.01106	0.67288	0.085
Mof_C 	C 	0.24751	0.02801	0.76866	0.09
Mof_H 	H 	0.22027	0.01963	0.63433	0.017
Mof_C 	C 	0.19112	0.96815	0.68925	-0.168
Mof_C 	C 	0.21887	0.98532	0.78632	-0.169
Mof_H 	H 	0.26727	0.04793	0.79573	0.016
Mof_H 	H 	0.17187	0.94833	0.66183	0.103
Mof_C 	C 	0.19057	0.95425	0.74519	0.12
Mof_H 	H 	0.21827	0.97723	0.82513	0.091
Mof_C 	C 	0.16216	0.90704	0.76329	-0.065
Mof_C 	C 	0.18036	0.88722	0.79786	-0.047
Mof_H 	H 	0.20977	0.90403	0.80883	0.047
Mof_H 	H 	0.05627	0.89893	0.76803	0.1
Mof_O 	O 	0.94377	0.4324	0.97733	-0.417
Mof_O 	O 	0.02798	0.47472	0.93229	-0.413
Mof_C 	C 	0.94605	0.42203	0.02861	0.383
Mof_C 	C 	0.91459	0.37517	0.04721	-0.147
Mof_C 	C 	0.88639	0.3444	0.00622	0.086
Mof_C 	C 	0.91417	0.36135	0.102	0.091
Mof_H 	H 	0.88693	0.35297	0.96767	0.017
Mof_C 	C 	0.85778	0.30149	0.02259	-0.169
Mof_C 	C 	0.88553	0.31866	0.11966	-0.17
Mof_H 	H 	0.93393	0.38127	0.12907	0.015
Mof_H 	H 	0.83853	0.28167	0.99517	0.103
Mof_C 	C 	0.85723	0.28759	0.07853	0.121
Mof_H 	H 	0.88493	0.31057	0.15847	0.091
Mof_C 	C 	0.82882	0.24038	0.09663	-0.065
Mof_C 	C 	0.84702	0.22056	0.1312	-0.047
Mof_H 	H 	0.87643	0.23737	0.14217	0.047
Mof_H 	H 	0.72293	0.23227	0.10137	0.1
Mof_O 	O 	0.15529	0.38956	0.31066	-0.416
Mof_O 	O 	0.1134	0.30535	0.26562	-0.413
Mof_C 	C 	0.14264	0.38728	0.36194	0.382
Mof_C 	C 	0.12724	0.41874	0.38054	-0.147
Mof_C 	C 	0.12467	0.44694	0.33955	0.085
Mof_C 	C 	0.11384	0.41916	0.43533	0.091
Mof_H 	H 	0.1327	0.4464	0.301	0.017
Mof_C 	C 	0.11037	0.47555	0.35592	-0.169
Mof_C 	C 	0.09979	0.4478	0.45299	-0.17
Mof_H 	H 	0.114	0.3994	0.4624	0.015
Mof_H 	H 	0.1098	0.4948	0.3285	0.103
Mof_C 	C 	0.09702	0.4761	0.41186	0.121
Mof_H 	H 	0.0923	0.4484	0.4918	0.091
Mof_C 	C 	0.07822	0.50451	0.42996	-0.065
Mof_C 	C 	0.0402	0.48631	0.46453	-0.047
Mof_H 	H 	0.0276	0.4569	0.4755	0.047
Mof_H 	H 	0.176	0.6104	0.4347	0.1
Mof_O 	O 	0.82196	0.72289	0.64399	-0.416
Mof_O 	O 	0.78007	0.63868	0.59895	-0.413
Mof_C 	C 	0.80931	0.72061	0.69527	0.382
Mof_C 	C 	0.79391	0.75207	0.71387	-0.147
Mof_C 	C 	0.79134	0.78027	0.67288	0.085
Mof_C 	C 	0.78051	0.75249	0.76866	0.091
Mof_H 	H 	0.79937	0.77973	0.63433	0.017
Mof_C 	C 	0.77704	0.80888	0.68925	-0.169
Mof_C 	C 	0.76646	0.78113	0.78632	-0.17
Mof_H 	H 	0.78067	0.73273	0.79573	0.015
Mof_H 	H 	0.77647	0.82813	0.66183	0.103
Mof_C 	C 	0.76369	0.80943	0.74519	0.121
Mof_H 	H 	0.75897	0.78173	0.82513	0.091
Mof_C 	C 	0.74489	0.83784	0.76329	-0.065
Mof_C 	C 	0.70687	0.81964	0.79786	-0.047
Mof_H 	H 	0.69427	0.79023	0.80883	0.047
Mof_H 	H 	0.84267	0.94373	0.76803	0.1
Mof_O 	O 	0.48862	0.05623	0.97733	-0.417
Mof_O 	O 	0.44673	0.97202	0.93229	-0.413
Mof_C 	C 	0.47597	0.05395	0.02861	0.382
Mof_C 	C 	0.46057	0.08541	0.04721	-0.147
Mof_C 	C 	0.458	0.11361	0.00622	0.086
Mof_C 	C 	0.44717	0.08583	0.102	0.091
Mof_H 	H 	0.46603	0.11307	0.96767	0.017
Mof_C 	C 	0.4437	0.14222	0.02259	-0.169
Mof_C 	C 	0.43312	0.11447	0.11966	-0.17
Mof_H 	H 	0.44733	0.06607	0.12907	0.015
Mof_H 	H 	0.44313	0.16147	0.99517	0.103
Mof_C 	C 	0.43035	0.14277	0.07853	0.121
Mof_H 	H 	0.42563	0.11507	0.15847	0.091
Mof_C 	C 	0.41155	0.17118	0.09663	-0.065
Mof_C 	C 	0.37353	0.15298	0.1312	-0.047
Mof_H 	H 	0.36093	0.12357	0.14217	0.047
Mof_H 	H 	0.50933	0.27707	0.10137	0.1
Mof_O 	O 	0.23427	0.84471	0.31066	-0.416
Mof_O 	O 	0.19195	0.8866	0.26562	-0.413
Mof_C 	C 	0.24464	0.85736	0.36194	0.382
Mof_C 	C 	0.2915	0.87276	0.38054	-0.147
Mof_C 	C 	0.32227	0.87533	0.33955	0.085
Mof_C 	C 	0.30532	0.88616	0.43533	0.091
Mof_H 	H 	0.3137	0.8673	0.301	0.017
Mof_C 	C 	0.36518	0.88963	0.35592	-0.169
Mof_C 	C 	0.34801	0.90021	0.45299	-0.17
Mof_H 	H 	0.2854	0.886	0.4624	0.015
Mof_H 	H 	0.385	0.8902	0.3285	0.103
Mof_C 	C 	0.37908	0.90298	0.41186	0.121
Mof_H 	H 	0.3561	0.9077	0.4918	0.091
Mof_C 	C 	0.42629	0.92178	0.42996	-0.065
Mof_C 	C 	0.44611	0.9598	0.46453	-0.047
Mof_H 	H 	0.4293	0.9724	0.4755	0.047
Mof_H 	H 	0.4344	0.824	0.4347	0.1
Mof_O 	O 	0.90094	0.17804	0.64399	-0.416
Mof_O 	O 	0.85862	0.21993	0.59895	-0.413
Mof_C 	C 	0.91131	0.19069	0.69527	0.382
Mof_C 	C 	0.95817	0.20609	0.71387	-0.146
Mof_C 	C 	0.98894	0.20866	0.67288	0.085
Mof_C 	C 	0.97199	0.21949	0.76866	0.09
Mof_H 	H 	0.98037	0.20063	0.63433	0.017
Mof_C 	C 	0.03185	0.22296	0.68925	-0.168
Mof_C 	C 	0.01468	0.23354	0.78632	-0.169
Mof_H 	H 	0.95207	0.21933	0.79573	0.016
Mof_H 	H 	0.05167	0.22353	0.66183	0.103
Mof_C 	C 	0.04575	0.23631	0.74519	0.12
Mof_H 	H 	0.02277	0.24103	0.82513	0.091
Mof_C 	C 	0.09296	0.25511	0.76329	-0.065
Mof_C 	C 	0.11278	0.29313	0.79786	-0.047
Mof_H 	H 	0.09597	0.30573	0.80883	0.047
Mof_H 	H 	0.10107	0.15733	0.76803	0.1
Mof_O 	O 	0.5676	0.51138	0.97733	-0.416
Mof_O 	O 	0.52528	0.55327	0.93229	-0.413
Mof_C 	C 	0.57797	0.52403	0.02861	0.382
Mof_C 	C 	0.62483	0.53943	0.04721	-0.147
Mof_C 	C 	0.6556	0.542	0.00622	0.086
Mof_C 	C 	0.63865	0.55283	0.102	0.091
Mof_H 	H 	0.64703	0.53397	0.96767	0.017
Mof_C 	C 	0.69851	0.5563	0.02259	-0.169
Mof_C 	C 	0.68134	0.56688	0.11966	-0.17
Mof_H 	H 	0.61873	0.55267	0.12907	0.015
Mof_H 	H 	0.71833	0.55687	0.99517	0.103
Mof_C 	C 	0.71241	0.56965	0.07853	0.121
Mof_H 	H 	0.68943	0.57437	0.15847	0.091
Mof_C 	C 	0.75962	0.58845	0.09663	-0.065
Mof_C 	C 	0.77944	0.62647	0.1312	-0.047
Mof_H 	H 	0.76263	0.63907	0.14217	0.047
Mof_H 	H 	0.76773	0.49067	0.10137	0.1
Mof_Cu	Cu	0.17503	0.35007	0.28006	0.905
Mof_Cu	Cu	0.8417	0.6834	0.61339	0.905
Mof_Cu	Cu	0.50837	0.01674	0.94673	0.905
Mof_Cu	Cu	0.64993	0.82497	0.28006	0.905
Mof_Cu	Cu	0.3166	0.1583	0.61339	0.905
Mof_Cu	Cu	0.98326	0.49163	0.94673	0.905
Mof_Cu	Cu	0.17503	0.82497	0.28006	0.905
Mof_Cu	Cu	0.8417	0.1583	0.61339	0.905
Mof_Cu	Cu	0.50837	0.49163	0.94673	0.905
Mof_Cu	Cu	0.35007	0.17503	0.71994	0.905
Mof_Cu	Cu	0.01674	0.50837	0.05327	0.905
Mof_Cu	Cu	0.6834	0.8417	0.38661	0.905
Mof_Cu	Cu	0.82497	0.64993	0.71994	0.905
Mof_Cu	Cu	0.49163	0.98326	0.05327	0.905
Mof_Cu	Cu	0.1583	0.3166	0.38661	0.905
Mof_Cu	Cu	0.82497	0.17503	0.71994	0.905
Mof_Cu	Cu	0.49163	0.50837	0.05327	0.905
Mof_Cu	Cu	0.1583	0.8417	0.38661	0.905
Mof_C 	C 	0.45151	0.54849	0.4135	0.116
Mof_C 	C 	0.48984	0.51016	0.4833	0.008
Mof_O 	O 	0.43254	0.56746	0.37893	-0.17
Mof_C 	C 	0.41266	0.58734	0.4106	-0.211
Mof_H 	H 	0.4005	0.5995	0.3839	0.102
Mof_C 	C 	0.11818	0.88182	0.74683	0.116
Mof_C 	C 	0.15651	0.84349	0.81663	0.008
Mof_O 	O 	0.09921	0.90079	0.71226	-0.17
Mof_C 	C 	0.07933	0.92067	0.74393	-0.212
Mof_H 	H 	0.06717	0.93283	0.71723	0.102
Mof_C 	C 	0.78484	0.21516	0.08017	0.116
Mof_C 	C 	0.82317	0.17683	0.14997	0.008
Mof_O 	O 	0.76587	0.23413	0.0456	-0.17
Mof_C 	C 	0.74599	0.25401	0.07727	-0.211
Mof_H 	H 	0.73383	0.26617	0.05057	0.102
Mof_C 	C 	0.45151	0.90302	0.4135	0.116
Mof_C 	C 	0.48984	0.97968	0.4833	0.008
Mof_O 	O 	0.43254	0.86508	0.37893	-0.17
Mof_C 	C 	0.41266	0.82532	0.4106	-0.211
Mof_H 	H 	0.4005	0.801	0.3839	0.102
Mof_C 	C 	0.11818	0.23635	0.74683	0.116
Mof_C 	C 	0.15651	0.31301	0.81663	0.008
Mof_O 	O 	0.09921	0.19841	0.71226	-0.17
Mof_C 	C 	0.07933	0.15865	0.74393	-0.211
Mof_H 	H 	0.06717	0.13433	0.71723	0.102
Mof_C 	C 	0.78484	0.56969	0.08017	0.116
Mof_C 	C 	0.82317	0.64635	0.14997	0.008
Mof_O 	O 	0.76587	0.53175	0.0456	-0.17
Mof_C 	C 	0.74599	0.49199	0.07727	-0.211
Mof_H 	H 	0.73383	0.46767	0.05057	0.102
Mof_C 	C 	0.09698	0.54849	0.4135	0.116
Mof_C 	C 	0.02032	0.51016	0.4833	0.008
Mof_O 	O 	0.13492	0.56746	0.37893	-0.17
Mof_C 	C 	0.17468	0.58734	0.4106	-0.211
Mof_H 	H 	0.199	0.5995	0.3839	0.102
Mof_C 	C 	0.76365	0.88182	0.74683	0.116
Mof_C 	C 	0.68699	0.84349	0.81663	0.008
Mof_O 	O 	0.80159	0.90079	0.71226	-0.17
Mof_C 	C 	0.84135	0.92067	0.74393	-0.211
Mof_H 	H 	0.86567	0.93283	0.71723	0.102
Mof_C 	C 	0.43031	0.21516	0.08017	0.116
Mof_C 	C 	0.35365	0.17683	0.14997	0.008
Mof_O 	O 	0.46825	0.23413	0.0456	-0.17
Mof_C 	C 	0.50801	0.25401	0.07727	-0.211
Mof_H 	H 	0.53233	0.26617	0.05057	0.102
Mof_C 	C 	0.54849	0.45151	0.5865	0.116
Mof_C 	C 	0.51016	0.48984	0.5167	0.008
Mof_O 	O 	0.56746	0.43254	0.62107	-0.17
Mof_C 	C 	0.58734	0.41266	0.5894	-0.211
Mof_H 	H 	0.5995	0.4005	0.6161	0.102
Mof_C 	C 	0.21516	0.78484	0.91983	0.116
Mof_C 	C 	0.17683	0.82317	0.85003	0.008
Mof_O 	O 	0.23413	0.76587	0.9544	-0.17
Mof_C 	C 	0.25401	0.74599	0.92273	-0.211
Mof_H 	H 	0.26617	0.73383	0.94943	0.102
Mof_C 	C 	0.88182	0.11818	0.25317	0.116
Mof_C 	C 	0.84349	0.15651	0.18337	0.008
Mof_O 	O 	0.90079	0.09921	0.28774	-0.17
Mof_C 	C 	0.92067	0.07933	0.25607	-0.212
Mof_H 	H 	0.93283	0.06717	0.28277	0.102
Mof_C 	C 	0.90302	0.45151	0.5865	0.116
Mof_C 	C 	0.97968	0.48984	0.5167	0.008
Mof_O 	O 	0.86508	0.43254	0.62107	-0.17
Mof_C 	C 	0.82532	0.41266	0.5894	-0.211
Mof_H 	H 	0.801	0.4005	0.6161	0.102
Mof_C 	C 	0.56969	0.78484	0.91983	0.116
Mof_C 	C 	0.64635	0.82317	0.85003	0.008
Mof_O 	O 	0.53175	0.76587	0.9544	-0.17
Mof_C 	C 	0.49199	0.74599	0.92273	-0.211
Mof_H 	H 	0.46767	0.73383	0.94943	0.102
Mof_C 	C 	0.23635	0.11818	0.25317	0.116
Mof_C 	C 	0.31301	0.15651	0.18337	0.008
Mof_O 	O 	0.19841	0.09921	0.28774	-0.17
Mof_C 	C 	0.15865	0.07933	0.25607	-0.211
Mof_H 	H 	0.13433	0.06717	0.28277	0.102
Mof_C 	C 	0.54849	0.09698	0.5865	0.116
Mof_C 	C 	0.51016	0.02032	0.5167	0.008
Mof_O 	O 	0.56746	0.13492	0.62107	-0.17
Mof_C 	C 	0.58734	0.17468	0.5894	-0.211
Mof_H 	H 	0.5995	0.199	0.6161	0.102
Mof_C 	C 	0.21516	0.43031	0.91983	0.116
Mof_C 	C 	0.17683	0.35365	0.85003	0.008
Mof_O 	O 	0.23413	0.46825	0.9544	-0.17
Mof_C 	C 	0.25401	0.50801	0.92273	-0.211
Mof_H 	H 	0.26617	0.53233	0.94943	0.102
Mof_C 	C 	0.88182	0.76365	0.25317	0.116
Mof_C 	C 	0.84349	0.68699	0.18337	0.008
Mof_O 	O 	0.90079	0.80159	0.28774	-0.17
Mof_C 	C 	0.92067	0.84135	0.25607	-0.211
Mof_H 	H 	0.93283	0.86567	0.28277	0.102
_end
