# CIF file generated by openbabel 3.1.0, see https://openbabel.org
data_I
_chemical_name_common 'cg900349c_si_002_clean'
_cell_length_a 14.1008
_cell_length_b 14.1006
_cell_length_c 14.1006
_cell_angle_alpha 109.471
_cell_angle_beta 109.471
_cell_angle_gamma 109.471
_space_group_name_H-M_alt 'P 1'
_space_group_name_Hall 'P 1'
loop_
    _symmetry_equiv_pos_as_xyz
    x,y,z
loop_
    _atom_site_label
    _atom_site_type_symbol
    _atom_site_fract_x
    _atom_site_fract_y
    _atom_site_fract_z
    _atom_site_occupancy
    Zn1      Zn       0.99142    0.85379    0.39531    1.000
    Zn2      Zn       0.13763    0.54152    0.14621    1.000
    Zn3      Zn       0.45848    0.59611    0.60469    1.000
    Zn4      Zn       0.85379    0.39531    0.99142    1.000
    Zn5      Zn       0.40389    0.86237    0.00858    1.000
    Zn6      Zn       0.59611    0.60469    0.45848    1.000
    Zn7      Zn       0.14621    0.13763    0.54152    1.000
    Zn8      Zn       0.86237    0.00858    0.40389    1.000
    Zn9      Zn       0.54152    0.14621    0.13763    1.000
    Zn10     Zn       0.60469    0.45848    0.59611    1.000
    Zn11     Zn       0.39531    0.99142    0.85379    1.000
    Zn12     Zn       0.00858    0.40389    0.86237    1.000
    H1       H        0.20170    0.56440    0.47530    1.000
    H2       H        0.08910    0.72640    0.52470    1.000
    H3       H        0.79830    0.27360    0.36270    1.000
    H4       H        0.65560    0.41990    0.80890    1.000
    H5       H        0.63730    0.91090    0.43560    1.000
    H6       H        0.52470    0.08910    0.72640    1.000
    H7       H        0.15330    0.76430    0.34440    1.000
    H8       H        0.42370    0.87260    0.23510    1.000
    H9       H        0.43560    0.63730    0.91090    1.000
    H10      H        0.34440    0.15330    0.76430    1.000
    H11      H        0.63750    0.18860    0.76490    1.000
    H12      H        0.72640    0.52470    0.08910    1.000
    H13      H        0.18860    0.76490    0.63750    1.000
    H14      H        0.36250    0.12740    0.55110    1.000
    H15      H        0.19110    0.61100    0.84670    1.000
    H16      H        0.81140    0.44890    0.57630    1.000
    H17      H        0.23570    0.38900    0.58010    1.000
    H18      H        0.76490    0.63750    0.18860    1.000
    H19      H        0.80890    0.65560    0.41990    1.000
    H20      H        0.36270    0.79830    0.27360    1.000
    H21      H        0.58010    0.23570    0.38900    1.000
    H22      H        0.91090    0.43560    0.63730    1.000
    H23      H        0.84670    0.19110    0.61100    1.000
    H24      H        0.87260    0.23510    0.42370    1.000
    H25      H        0.27360    0.36270    0.79830    1.000
    H26      H        0.56440    0.47530    0.20170    1.000
    H27      H        0.41990    0.80890    0.65560    1.000
    H28      H        0.76430    0.34440    0.15330    1.000
    H29      H        0.61100    0.84670    0.19110    1.000
    H30      H        0.55110    0.36250    0.12740    1.000
    H31      H        0.44890    0.57630    0.81140    1.000
    H32      H        0.47530    0.20170    0.56440    1.000
    H33      H        0.38900    0.58010    0.23570    1.000
    H34      H        0.57630    0.81140    0.44890    1.000
    H35      H        0.12740    0.55110    0.36250    1.000
    H36      H        0.23510    0.42370    0.87260    1.000
    C1       C        0.07700    0.70820    0.28700    1.000
    C2       C        0.79000    0.71300    0.42120    1.000
    C3       C        0.70560    0.81390    0.43090    1.000
    C4       C        0.18610    0.89170    0.61700    1.000
    C5       C        0.57880    0.29180    0.36880    1.000
    C6       C        0.43090    0.70560    0.81390    1.000
    C7       C        0.29440    0.72530    0.10830    1.000
    C8       C        0.72530    0.10830    0.29440    1.000
    C9       C        0.36880    0.57880    0.29180    1.000
    C10      C        0.21000    0.63120    0.92300    1.000
    C11      C        0.38300    0.27470    0.56910    1.000
    C12      C        0.61700    0.18610    0.89170    1.000
    C13      C        0.42120    0.79000    0.71300    1.000
    C14      C        0.10830    0.29440    0.72530    1.000
    C15      C        0.28700    0.07700    0.70820    1.000
    C16      C        0.70820    0.28700    0.07700    1.000
    C17      C        0.81390    0.43090    0.70560    1.000
    C18      C        0.27470    0.56910    0.38300    1.000
    C19      C        0.92300    0.21000    0.63120    1.000
    C20      C        0.89170    0.61700    0.18610    1.000
    C21      C        0.63120    0.92300    0.21000    1.000
    C22      C        0.29180    0.36880    0.57880    1.000
    C23      C        0.56910    0.38300    0.27470    1.000
    C24      C        0.71300    0.42120    0.79000    1.000
    S1       S        0.00000    0.35308    0.00000    1.000
    S2       S        0.35308    0.00000    0.00000    1.000
    S3       S        0.64692    0.64692    0.64692    1.000
    S4       S        0.00000    0.00000    0.35308    1.000
    N1       N        0.71610    0.43490    0.70060    1.000
    N2       N        0.26570    0.56510    0.28120    1.000
    N3       N        0.59020    0.38890    0.43730    1.000
    N4       N        0.84710    0.79870    0.40980    1.000
    N5       N        0.20130    0.04840    0.61110    1.000
    N6       N        0.56510    0.28120    0.26570    1.000
    N7       N        0.04840    0.61110    0.20130    1.000
    N8       N        0.95160    0.15290    0.56270    1.000
    N9       N        0.41010    0.19140    0.56050    1.000
    N10      N        0.62300    0.07210    0.20670    1.000
    N11      N        0.73430    0.01550    0.29940    1.000
    N12      N        0.86540    0.41630    0.79330    1.000
    N13      N        0.58370    0.44910    0.37700    1.000
    N14      N        0.98450    0.71880    0.28390    1.000
    N15      N        0.44910    0.37700    0.58370    1.000
    N16      N        0.13460    0.92790    0.55090    1.000
    N17      N        0.80860    0.21870    0.36910    1.000
    N18      N        0.38890    0.43730    0.59020    1.000
    N19      N        0.28120    0.26570    0.56510    1.000
    N20      N        0.29940    0.73430    0.01550    1.000
    N21      N        0.78130    0.58990    0.15040    1.000
    N22      N        0.43950    0.63090    0.84960    1.000
    N23      N        0.37700    0.58370    0.44910    1.000
    N24      N        0.07210    0.20670    0.62300    1.000
    N25      N        0.84960    0.43950    0.63090    1.000
    N26      N        0.56050    0.41010    0.19140    1.000
    N27      N        0.70060    0.71610    0.43490    1.000
    N28      N        0.58990    0.15040    0.78130    1.000
    N29      N        0.41630    0.79330    0.86540    1.000
    N30      N        0.28390    0.98450    0.71880    1.000
    N31      N        0.61110    0.20130    0.04840    1.000
    N32      N        0.15040    0.78130    0.58990    1.000
    N33      N        0.20670    0.62300    0.07210    1.000
    N34      N        0.79870    0.40980    0.84710    1.000
    N35      N        0.21870    0.36910    0.80860    1.000
    N36      N        0.01550    0.29940    0.73430    1.000
    N37      N        0.56270    0.95160    0.15290    1.000
    N38      N        0.43490    0.70060    0.71610    1.000
    N39      N        0.19140    0.56050    0.41010    1.000
    N40      N        0.71880    0.28390    0.98450    1.000
    N41      N        0.43730    0.59020    0.38890    1.000
    N42      N        0.63090    0.84960    0.43950    1.000
    N43      N        0.15290    0.56270    0.95160    1.000
    N44      N        0.36910    0.80860    0.21870    1.000
    N45      N        0.79330    0.86540    0.41630    1.000
    N46      N        0.55090    0.13460    0.92790    1.000
    N47      N        0.92790    0.55090    0.13460    1.000
    N48      N        0.40980    0.84710    0.79870    1.000
