data_functionalizedCrystal
_audit_creation_method	'EQeq! by Chris Wilmer'
_symmetry_space_group_name_H-M	'P1'
_symmetry_Int_Tables_number	1
_symmetry_cell_setting	triclinic
loop_
_symmetry_equiv_pos_as_xyz
  x,y,z
_cell_length_a	8.995
_cell_length_b	23.485
_cell_length_c	23.485
_cell_angle_alpha	90
_cell_angle_beta	90
_cell_angle_gamma	90
loop_
_atom_site_label
_atom_site_type_symbol
_atom_site_fract_x
_atom_site_fract_y
_atom_site_fract_z
_atom_site_charge
Mof_Cu	Cu	0.5	0.17664	0.17664	0.853
Mof_Cu	Cu	0.5	0.82336	0.82336	0.853
Mof_Cu	Cu	6.62382e-33	0.32336	0.67664	0.839
Mof_Cu	Cu	1.3342e-32	0.67664	0.32336	0.839
Mof_C 	C 	0.2328	0.1641	0.10659	0.021
Mof_C 	C 	0.1434	0.1542	0.06011	-0.035
Mof_C 	C 	0.2138	0.1469	0.00708	-0.08
Mof_C 	C 	0.3733	0.14745	0.00526	0.14
Mof_C 	C 	0.4468	0.15351	0.05599	-0.034
Mof_C 	C 	0.3842	0.13598	0.90768	0.105
Mof_C 	C 	0.1061	0.2092	0.6439	0.001
Mof_C 	C 	0.19	0.1607	0.6492	-0.02
Mof_C 	C 	0.2689	0.14945	0.69983	-0.095
Mof_C 	C 	0.2601	0.18609	0.74158	0.134
Mof_C 	C 	0.1769	0.2377	0.73397	-0.02
Mof_C 	C 	0.427	0.13298	0.80209	0.083
Mof_C 	C 	0.2328	0.8359	0.89341	0.021
Mof_C 	C 	0.1434	0.8458	0.93989	-0.035
Mof_C 	C 	0.2138	0.8531	0.99292	-0.08
Mof_C 	C 	0.3733	0.85255	0.99474	0.14
Mof_C 	C 	0.4468	0.84649	0.94401	-0.034
Mof_C 	C 	0.3842	0.86402	0.09232	0.105
Mof_C 	C 	0.1061	0.7908	0.3561	0.001
Mof_C 	C 	0.19	0.8393	0.3508	-0.02
Mof_C 	C 	0.2689	0.85055	0.30017	-0.095
Mof_C 	C 	0.2601	0.81391	0.25842	0.134
Mof_C 	C 	0.1769	0.7623	0.26603	-0.02
Mof_C 	C 	0.427	0.86702	0.19791	0.083
Mof_C 	C 	0.7328	0.39341	0.6641	0.028
Mof_C 	C 	0.6434	0.43989	0.6542	-0.032
Mof_C 	C 	0.7138	0.49292	0.6469	-0.07
Mof_C 	C 	0.8733	0.49474	0.64745	0.131
Mof_C 	C 	0.9468	0.44401	0.65351	0.008
Mof_C 	C 	0.8842	0.59232	0.63598	0.141
Mof_C 	C 	0.6061	0.8561	0.7092	0.005
Mof_C 	C 	0.69	0.8508	0.6607	-0.016
Mof_C 	C 	0.7689	0.80017	0.64945	-0.092
Mof_C 	C 	0.7601	0.75842	0.68609	0.139
Mof_C 	C 	0.6769	0.76603	0.7377	-0.015
Mof_C 	C 	0.927	0.69791	0.63298	0.123
Mof_C 	C 	0.7328	0.60659	0.3359	0.028
Mof_C 	C 	0.6434	0.56011	0.3458	-0.032
Mof_C 	C 	0.7138	0.50708	0.3531	-0.07
Mof_C 	C 	0.8733	0.50526	0.35255	0.131
Mof_C 	C 	0.9468	0.55599	0.34649	0.008
Mof_C 	C 	0.8842	0.40768	0.36402	0.141
Mof_C 	C 	0.6061	0.1439	0.2908	0.005
Mof_C 	C 	0.69	0.1492	0.3393	-0.016
Mof_C 	C 	0.7689	0.19983	0.35055	-0.092
Mof_C 	C 	0.7601	0.24158	0.31391	0.139
Mof_C 	C 	0.6769	0.23397	0.2623	-0.015
Mof_C 	C 	0.927	0.30209	0.36702	0.123
Mof_C 	C 	0.2672	0.3359	0.60659	0.017
Mof_C 	C 	0.3566	0.3458	0.56011	-0.009
Mof_C 	C 	0.2862	0.3531	0.50708	-0.044
Mof_C 	C 	0.1267	0.35255	0.50526	0.142
Mof_C 	C 	0.0532	0.34649	0.55599	-0.07
Mof_C 	C 	0.1158	0.36402	0.40768	0.114
Mof_C 	C 	0.3939	0.2908	0.1439	0.004
Mof_C 	C 	0.31	0.3393	0.1492	-0.019
Mof_C 	C 	0.2311	0.35055	0.19983	-0.095
Mof_C 	C 	0.2399	0.31391	0.24158	0.135
Mof_C 	C 	0.3231	0.2623	0.23397	-0.018
Mof_C 	C 	0.073	0.36702	0.30209	0.09
Mof_C 	C 	0.2672	0.6641	0.39341	0.017
Mof_C 	C 	0.3566	0.6542	0.43989	-0.009
Mof_C 	C 	0.2862	0.6469	0.49292	-0.044
Mof_C 	C 	0.1267	0.64745	0.49474	0.142
Mof_C 	C 	0.0532	0.65351	0.44401	-0.07
Mof_C 	C 	0.1158	0.63598	0.59232	0.114
Mof_C 	C 	0.3939	0.7092	0.8561	0.004
Mof_C 	C 	0.31	0.6607	0.8508	-0.019
Mof_C 	C 	0.2311	0.64945	0.80017	-0.095
Mof_C 	C 	0.2399	0.68609	0.75842	0.135
Mof_C 	C 	0.3231	0.7377	0.76603	-0.018
Mof_C 	C 	0.073	0.63298	0.69791	0.09
Mof_C 	C 	0.7672	0.10659	0.1641	0.027
Mof_C 	C 	0.8566	0.06011	0.1542	-0.027
Mof_C 	C 	0.7862	0.00708	0.1469	-0.075
Mof_C 	C 	0.6267	0.00526	0.14745	0.142
Mof_C 	C 	0.5532	0.05599	0.15351	-0.033
Mof_C 	C 	0.6158	0.90768	0.13598	0.107
Mof_C 	C 	0.8939	0.6439	0.2092	0.009
Mof_C 	C 	0.81	0.6492	0.1607	-0.016
Mof_C 	C 	0.7311	0.69983	0.14945	-0.091
Mof_C 	C 	0.7399	0.74158	0.18609	0.137
Mof_C 	C 	0.8231	0.73397	0.2377	-0.012
Mof_C 	C 	0.573	0.80209	0.13298	0.084
Mof_C 	C 	0.7672	0.89341	0.8359	0.027
Mof_C 	C 	0.8566	0.93989	0.8458	-0.027
Mof_C 	C 	0.7862	0.99292	0.8531	-0.075
Mof_C 	C 	0.6267	0.99474	0.85255	0.142
Mof_C 	C 	0.5532	0.94401	0.84649	-0.033
Mof_C 	C 	0.6158	0.09232	0.86402	0.107
Mof_C 	C 	0.8939	0.3561	0.7908	0.009
Mof_C 	C 	0.81	0.3508	0.8393	-0.016
Mof_C 	C 	0.7311	0.30017	0.85055	-0.091
Mof_C 	C 	0.7399	0.25842	0.81391	0.137
Mof_C 	C 	0.8231	0.26603	0.7623	-0.012
Mof_C 	C 	0.573	0.19791	0.86702	0.084
Mof_C 	C 	0.5	0.14119	0.85881	-0.058
Mof_C 	C 	0.5	0.85881	0.14119	-0.058
Mof_C 	C 	6.27679e-33	0.64119	0.64119	-0.114
Mof_C 	C 	3.51249e-33	0.35881	0.35881	-0.114
Mof_N 	N 	0.3789	0.16157	0.10624	-0.211
Mof_N 	N 	0.1061	0.24804	0.6877	-0.212
Mof_N 	N 	0.3789	0.83843	0.89376	-0.211
Mof_N 	N 	0.1061	0.75196	0.3123	-0.212
Mof_N 	N 	0.8789	0.39376	0.66157	-0.21
Mof_N 	N 	0.6061	0.8123	0.74804	-0.208
Mof_N 	N 	0.8789	0.60624	0.33843	-0.21
Mof_N 	N 	0.6061	0.1877	0.25196	-0.208
Mof_N 	N 	0.1211	0.33843	0.60624	-0.209
Mof_N 	N 	0.3939	0.25196	0.1877	-0.209
Mof_N 	N 	0.1211	0.66157	0.39376	-0.209
Mof_N 	N 	0.3939	0.74804	0.8123	-0.209
Mof_N 	N 	0.6211	0.10624	0.16157	-0.211
Mof_N 	N 	0.8939	0.6877	0.24804	-0.201
Mof_N 	N 	0.6211	0.89376	0.83843	-0.211
Mof_N 	N 	0.8939	0.3123	0.75196	-0.201
Mof_O 	O 	0.456	0.14083	0.9587	-0.234
Mof_O 	O 	0.3289	0.18273	0.79356	-0.219
Mof_O 	O 	0.456	0.85917	0.0413	-0.234
Mof_O 	O 	0.3289	0.81727	0.20644	-0.219
Mof_O 	O 	0.956	0.5413	0.64083	-0.222
Mof_O 	O 	0.8289	0.70644	0.68273	-0.215
Mof_O 	O 	0.956	0.4587	0.35917	-0.222
Mof_O 	O 	0.8289	0.29356	0.31727	-0.215
Mof_O 	O 	0.044	0.35917	0.4587	-0.25
Mof_O 	O 	0.1711	0.31727	0.29356	-0.223
Mof_O 	O 	0.044	0.64083	0.5413	-0.25
Mof_O 	O 	0.1711	0.68273	0.70644	-0.223
Mof_O 	O 	0.544	0.9587	0.14083	-0.236
Mof_O 	O 	0.6711	0.79356	0.18273	-0.214
Mof_O 	O 	0.544	0.0413	0.85917	-0.236
Mof_O 	O 	0.6711	0.20644	0.81727	-0.214
Mof_H 	H 	0.18092	0.17546	0.1494	-0.007
Mof_H 	H 	0.01755	0.15219	0.06546	0.02
Mof_H 	H 	0.14429	0.14075	0.96696	0.044
Mof_H 	H 	0.57342	0.15183	0.05719	0.029
Mof_H 	H 	0.26168	0.12923	0.89725	0.011
Mof_H 	H 	0.03795	0.21674	0.60368	-0.002
Mof_H 	H 	0.19636	0.12907	0.61246	0.025
Mof_H 	H 	0.33852	0.10907	0.70372	0.05
Mof_H 	H 	0.17264	0.27069	0.76954	0.016
Mof_H 	H 	0.45343	0.09365	0.77551	0.02
Mof_H 	H 	0.18092	0.82454	0.8506	-0.007
Mof_H 	H 	0.01755	0.84781	0.93454	0.02
Mof_H 	H 	0.14429	0.85925	0.03304	0.044
Mof_H 	H 	0.57342	0.84817	0.94281	0.029
Mof_H 	H 	0.26168	0.87077	0.10275	0.011
Mof_H 	H 	0.03795	0.78326	0.39632	-0.002
Mof_H 	H 	0.19636	0.87093	0.38754	0.025
Mof_H 	H 	0.33852	0.89093	0.29628	0.05
Mof_H 	H 	0.17264	0.72931	0.23046	0.016
Mof_H 	H 	0.45343	0.90635	0.22449	0.02
Mof_H 	H 	0.68092	0.3506	0.67546	0.001
Mof_H 	H 	0.51755	0.43454	0.65219	0.033
Mof_H 	H 	0.64429	0.53304	0.64075	0.051
Mof_H 	H 	0.07342	0.44281	0.65183	0
Mof_H 	H 	0.76168	0.60275	0.62923	0.011
Mof_H 	H 	0.53795	0.89632	0.71674	0.004
Mof_H 	H 	0.69636	0.88754	0.62907	0.031
Mof_H 	H 	0.83852	0.79628	0.60907	0.056
Mof_H 	H 	0.67264	0.73046	0.77069	0.025
Mof_H 	H 	0.95343	0.72449	0.59365	0.024
Mof_H 	H 	0.68092	0.6494	0.32454	0.001
Mof_H 	H 	0.51755	0.56546	0.34781	0.033
Mof_H 	H 	0.64429	0.46696	0.35925	0.051
Mof_H 	H 	0.07342	0.55719	0.34817	0
Mof_H 	H 	0.76168	0.39725	0.37077	0.011
Mof_H 	H 	0.53795	0.10368	0.28326	0.004
Mof_H 	H 	0.69636	0.11246	0.37093	0.031
Mof_H 	H 	0.83852	0.20372	0.39093	0.056
Mof_H 	H 	0.67264	0.26954	0.22931	0.025
Mof_H 	H 	0.95343	0.27551	0.40635	0.024
Mof_H 	H 	0.92658	0.34817	0.55719	0.056
Mof_H 	H 	0.23832	0.37077	0.39725	0.018
Mof_H 	H 	0.46205	0.28326	0.10368	0.006
Mof_H 	H 	0.30364	0.37093	0.11246	0.025
Mof_H 	H 	0.16148	0.39093	0.20372	0.046
Mof_H 	H 	0.32736	0.22931	0.26954	0.02
Mof_H 	H 	0.04657	0.40635	0.27551	0.008
Mof_H 	H 	0.92658	0.65183	0.44281	0.056
Mof_H 	H 	0.23832	0.62923	0.60275	0.018
Mof_H 	H 	0.46205	0.71674	0.89632	0.006
Mof_H 	H 	0.30364	0.62907	0.88754	0.025
Mof_H 	H 	0.16148	0.60907	0.79628	0.046
Mof_H 	H 	0.32736	0.77069	0.73046	0.02
Mof_H 	H 	0.04657	0.59365	0.72449	0.008
Mof_H 	H 	0.81908	0.1494	0.17546	0.005
Mof_H 	H 	0.98245	0.06546	0.15219	0.042
Mof_H 	H 	0.85571	0.96696	0.14075	0.056
Mof_H 	H 	0.42658	0.05719	0.15183	0.024
Mof_H 	H 	0.73832	0.89725	0.12923	0.019
Mof_H 	H 	0.96205	0.60368	0.21674	0.013
Mof_H 	H 	0.80364	0.61246	0.12907	0.032
Mof_H 	H 	0.66148	0.70372	0.10907	0.052
Mof_H 	H 	0.82736	0.76954	0.27069	0.03
Mof_H 	H 	0.54657	0.77551	0.09365	0.021
Mof_H 	H 	0.81908	0.8506	0.82454	0.005
Mof_H 	H 	0.98245	0.93454	0.84781	0.042
Mof_H 	H 	0.85571	0.03304	0.85925	0.056
Mof_H 	H 	0.42658	0.94281	0.84817	0.024
Mof_H 	H 	0.73832	0.10275	0.87077	0.019
Mof_H 	H 	0.96205	0.39632	0.78326	0.013
Mof_H 	H 	0.80364	0.38754	0.87093	0.032
Mof_H 	H 	0.66148	0.29628	0.89093	0.052
Mof_H 	H 	0.82736	0.23046	0.72931	0.03
Mof_H 	H 	0.54657	0.22449	0.90635	0.021
_end
