data_functionalizedCrystal
_audit_creation_method	'EQeq! by Chris Wilmer'
_symmetry_space_group_name_H-M	'P1'
_symmetry_Int_Tables_number	1
_symmetry_cell_setting	triclinic
loop_
_symmetry_equiv_pos_as_xyz
  x,y,z
_cell_length_a	13.405
_cell_length_b	14.705
_cell_length_c	13.388
_cell_angle_alpha	90
_cell_angle_beta	99.357
_cell_angle_gamma	90
loop_
_atom_site_label
_atom_site_type_symbol
_atom_site_fract_x
_atom_site_fract_y
_atom_site_fract_z
_atom_site_charge
Mof_O 	O 	0.9407	0.4391	0.5735	-0.581
Mof_O 	O 	0.0629	0.342	0.6181	-0.501
Mof_O 	O 	0.0102	0.1303	0.8951	-0.514
Mof_O 	O 	0.8643	0.0524	0.8716	-0.488
Mof_N 	N 	0.415	0.2635	0.5554	-0.152
Mof_C 	C 	0.973	0.3662	0.6135	0.486
Mof_C 	C 	0.9023	0.3043	0.6572	-0.18
Mof_C 	C 	0.9416	0.2416	0.7317	0.094
Mof_H 	H 	0.0124	0.2391	0.755	0.019
Mof_C 	C 	0.8771	0.1828	0.7716	-0.165
Mof_C 	C 	0.7738	0.186	0.7363	0.044
Mof_H 	H 	0.7301	0.145	0.7628	0.048
Mof_C 	C 	0.7336	0.2487	0.6624	-0.082
Mof_C 	C 	0.7989	0.3084	0.6238	0.059
Mof_H 	H 	0.7723	0.3521	0.5743	0.01
Mof_C 	C 	0.6229	0.2532	0.6249	0.112
Mof_C 	C 	0.5537	0.2397	0.6897	-0.154
Mof_H 	H 	0.576	0.2263	0.7591	0.109
Mof_C 	C 	0.4509	0.2461	0.6517	0.099
Mof_H 	H 	0.4041	0.2375	0.6971	0.02
Mof_C 	C 	0.4821	0.2756	0.4938	0.09
Mof_H 	H 	0.4577	0.2877	0.4244	0.028
Mof_C 	C 	0.5851	0.2717	0.525	-0.157
Mof_H 	H 	0.6299	0.2816	0.4779	0.098
Mof_C 	C 	0.9207	0.1156	0.8525	0.484
Mof_O 	O 	0.2788	0.4206	0.6533	-0.176
Mof_O 	O 	0.3087	0.501	0.523	-0.451
Mof_O 	O 	0.6972	0.5071	0.5136	0.119
Mof_O 	O 	0.7886	0.5531	0.6563	-0.269
Mof_C 	C 	0.3365	0.4681	0.6096	-0.005
Mof_C 	C 	0.4418	0.4855	0.6635	0.961
Mof_C 	C 	0.5214	0.4988	0.6103	-0.081
Mof_C 	C 	0.6182	0.5153	0.6622	-0.581
Mof_C 	C 	0.6354	0.5184	0.7674	-0.725
Mof_H 	H 	0.7022	0.5298	0.8032	0.273
Mof_C 	C 	0.5558	0.505	0.8206	1.439
Mof_C 	C 	0.459	0.4886	0.7687	-1.745
Mof_H 	H 	0.404	0.4794	0.8055	1.654
Mof_C 	C 	0.5733	0.5118	0.9346	-0.04
Mof_C 	C 	0.6612	0.5462	0.9892	-0.335
Mof_H 	H 	0.7132	0.5678	0.9536	0.121
Mof_N 	N 	0.6092	0.5222	0.1499	-1.536
Mof_C 	C 	0.6775	0.5508	0.0957	0.631
Mof_H 	H 	0.7408	0.5747	0.1294	-0.172
Mof_C 	C 	0.5236	0.4887	0.0976	1.206
Mof_H 	H 	0.4737	0.4678	0.1362	-0.882
Mof_C 	C 	0.5002	0.4812	0.9919	-0.476
Mof_H 	H 	0.4368	0.4564	0.9598	0.141
Mof_C 	C 	0.7064	0.527	0.6067	0.125
Mof_Dy	Dy	0.13893	0.43676	0.50902	2.021
Mof_O 	O 	0.2572	0.3966	0.662	-0.136
Mof_O 	O 	0.4331	0.5528	0.6581	-0.421
Mof_O 	O 	0.1932	0.0706	0.8488	-0.068
Mof_O 	O 	0.371	0.9906	0.8236	0.647
Mof_O 	O 	0.0593	0.9391	0.9265	-0.58
Mof_O 	O 	0.9371	0.842	0.8819	-0.508
Mof_O 	O 	0.9898	0.6303	0.6049	-0.536
Mof_O 	O 	0.1357	0.5524	0.6284	-0.503
Mof_N 	N 	0.585	0.7635	0.9446	-0.162
Mof_C 	C 	0.027	0.8662	0.8865	0.497
Mof_C 	C 	0.0977	0.8043	0.8428	-0.195
Mof_C 	C 	0.0584	0.7416	0.7683	0.12
Mof_H 	H 	0.9876	0.7391	0.745	0.005
Mof_C 	C 	0.1229	0.6828	0.7284	-0.183
Mof_C 	C 	0.2262	0.686	0.7637	0.059
Mof_H 	H 	0.2699	0.645	0.7372	0.041
Mof_C 	C 	0.2664	0.7487	0.8376	-0.098
Mof_C 	C 	0.2011	0.8084	0.8762	0.072
Mof_H 	H 	0.2277	0.8521	0.9257	0.003
Mof_C 	C 	0.3771	0.7532	0.8751	0.131
Mof_C 	C 	0.4463	0.7397	0.8103	-0.169
Mof_H 	H 	0.424	0.7263	0.7409	0.113
Mof_C 	C 	0.5491	0.7461	0.8483	0.106
Mof_H 	H 	0.5959	0.7375	0.8029	0.016
Mof_C 	C 	0.5179	0.7756	0.0062	0.122
Mof_H 	H 	0.5423	0.7877	0.0756	0.02
Mof_C 	C 	0.4149	0.7717	0.975	-0.194
Mof_H 	H 	0.3701	0.7816	0.0221	0.115
Mof_C 	C 	0.0793	0.6156	0.6475	0.503
Mof_O 	O 	0.7212	0.9206	0.8467	-0.183
Mof_O 	O 	0.6913	0.001	0.977	-0.446
Mof_O 	O 	0.3028	0.0071	0.9864	0.128
Mof_O 	O 	0.2114	0.0531	0.8437	-0.257
Mof_C 	C 	0.6635	0.9681	0.8904	-0.015
Mof_C 	C 	0.5582	0.9855	0.8365	0.962
Mof_C 	C 	0.4786	0.9988	0.8897	-0.085
Mof_C 	C 	0.3818	0.0153	0.8378	-0.625
Mof_C 	C 	0.3646	0.0184	0.7326	-0.739
Mof_H 	H 	0.2978	0.0298	0.6968	0.279
Mof_C 	C 	0.4442	0.005	0.6794	1.479
Mof_C 	C 	0.541	0.9886	0.7313	-1.782
Mof_H 	H 	0.596	0.9794	0.6945	1.681
Mof_C 	C 	0.4267	0.0118	0.5654	-0.044
Mof_C 	C 	0.3388	0.0462	0.5108	-0.332
Mof_H 	H 	0.2868	0.0678	0.5464	0.12
Mof_N 	N 	0.3908	0.0222	0.3501	-1.561
Mof_C 	C 	0.3225	0.0508	0.4043	0.635
Mof_H 	H 	0.2592	0.0747	0.3706	-0.176
Mof_C 	C 	0.4764	0.9887	0.4024	1.24
Mof_H 	H 	0.5263	0.9678	0.3638	-0.907
Mof_C 	C 	0.4998	0.9812	0.5081	-0.488
Mof_H 	H 	0.5632	0.9564	0.5402	0.14
Mof_C 	C 	0.2936	0.027	0.8933	0.134
Mof_Dy	Dy	0.86107	0.93676	0.99098	1.976
Mof_O 	O 	0.7428	0.8966	0.838	-0.127
Mof_O 	O 	0.5669	0.0528	0.8419	-0.409
Mof_O 	O 	0.8068	0.5706	0.6512	-0.063
Mof_O 	O 	0.629	0.4906	0.6764	0.606
Mof_O 	O 	0.0593	0.5609	0.4265	-0.582
Mof_O 	O 	0.9371	0.658	0.3819	-0.502
Mof_O 	O 	0.9898	0.8697	0.1049	-0.515
Mof_O 	O 	0.1357	0.9476	0.1284	-0.488
Mof_N 	N 	0.585	0.7365	0.4446	-0.152
Mof_C 	C 	0.027	0.6338	0.3865	0.486
Mof_C 	C 	0.0977	0.6957	0.3428	-0.18
Mof_C 	C 	0.0584	0.7584	0.2683	0.094
Mof_H 	H 	0.9876	0.7609	0.245	0.019
Mof_C 	C 	0.1229	0.8172	0.2284	-0.165
Mof_C 	C 	0.2262	0.814	0.2637	0.044
Mof_H 	H 	0.2699	0.855	0.2372	0.048
Mof_C 	C 	0.2664	0.7513	0.3376	-0.082
Mof_C 	C 	0.2011	0.6916	0.3762	0.059
Mof_H 	H 	0.2277	0.6479	0.4257	0.01
Mof_C 	C 	0.3771	0.7468	0.3751	0.112
Mof_C 	C 	0.4463	0.7603	0.3103	-0.154
Mof_H 	H 	0.424	0.7737	0.2409	0.109
Mof_C 	C 	0.5491	0.7539	0.3483	0.099
Mof_H 	H 	0.5959	0.7625	0.3029	0.02
Mof_C 	C 	0.5179	0.7244	0.5062	0.09
Mof_H 	H 	0.5423	0.7123	0.5756	0.028
Mof_C 	C 	0.4149	0.7283	0.475	-0.157
Mof_H 	H 	0.3701	0.7184	0.5221	0.098
Mof_C 	C 	0.0793	0.8844	0.1475	0.484
Mof_O 	O 	0.7212	0.5794	0.3467	-0.176
Mof_O 	O 	0.6913	0.499	0.477	-0.451
Mof_O 	O 	0.3028	0.4929	0.4864	0.119
Mof_O 	O 	0.2114	0.4469	0.3437	-0.269
Mof_C 	C 	0.6635	0.5319	0.3904	-0.005
Mof_C 	C 	0.5582	0.5145	0.3365	0.961
Mof_C 	C 	0.4786	0.5012	0.3897	-0.081
Mof_C 	C 	0.3818	0.4847	0.3378	-0.581
Mof_C 	C 	0.3646	0.4816	0.2326	-0.725
Mof_H 	H 	0.2978	0.4702	0.1968	0.273
Mof_C 	C 	0.4442	0.495	0.1794	1.439
Mof_C 	C 	0.541	0.5114	0.2313	-1.745
Mof_H 	H 	0.596	0.5206	0.1945	1.654
Mof_C 	C 	0.4267	0.4882	0.0654	-0.04
Mof_C 	C 	0.3388	0.4538	0.0108	-0.335
Mof_H 	H 	0.2868	0.4322	0.0464	0.121
Mof_N 	N 	0.3908	0.4778	0.8501	-1.536
Mof_C 	C 	0.3225	0.4492	0.9043	0.631
Mof_H 	H 	0.2592	0.4253	0.8706	-0.172
Mof_C 	C 	0.4764	0.5113	0.9024	1.206
Mof_H 	H 	0.5263	0.5322	0.8638	-0.882
Mof_C 	C 	0.4998	0.5188	0.0081	-0.476
Mof_H 	H 	0.5632	0.5436	0.0402	0.141
Mof_C 	C 	0.2936	0.473	0.3933	0.125
Mof_Dy	Dy	0.86107	0.56325	0.49098	2.021
Mof_O 	O 	0.7428	0.6034	0.338	-0.136
Mof_O 	O 	0.5669	0.4472	0.3419	-0.421
Mof_O 	O 	0.8068	0.9294	0.1512	-0.068
Mof_O 	O 	0.629	0.0094	0.1764	0.647
Mof_O 	O 	0.9407	0.0609	0.0735	-0.58
Mof_O 	O 	0.0629	0.158	0.1181	-0.508
Mof_O 	O 	0.0102	0.3697	0.3951	-0.536
Mof_O 	O 	0.8643	0.4476	0.3716	-0.502
Mof_N 	N 	0.415	0.2365	0.0554	-0.162
Mof_C 	C 	0.973	0.1338	0.1135	0.497
Mof_C 	C 	0.9023	0.1957	0.1572	-0.195
Mof_C 	C 	0.9416	0.2584	0.2317	0.12
Mof_H 	H 	0.0124	0.2609	0.255	0.005
Mof_C 	C 	0.8771	0.3172	0.2716	-0.183
Mof_C 	C 	0.7738	0.314	0.2363	0.059
Mof_H 	H 	0.7301	0.355	0.2628	0.041
Mof_C 	C 	0.7336	0.2513	0.1624	-0.098
Mof_C 	C 	0.7989	0.1916	0.1238	0.072
Mof_H 	H 	0.7723	0.1479	0.0743	0.003
Mof_C 	C 	0.6229	0.2468	0.1249	0.131
Mof_C 	C 	0.5537	0.2603	0.1897	-0.169
Mof_H 	H 	0.576	0.2737	0.2591	0.113
Mof_C 	C 	0.4509	0.2539	0.1517	0.106
Mof_H 	H 	0.4041	0.2625	0.1971	0.016
Mof_C 	C 	0.4821	0.2244	0.9938	0.122
Mof_H 	H 	0.4577	0.2123	0.9244	0.02
Mof_C 	C 	0.5851	0.2283	0.025	-0.194
Mof_H 	H 	0.6299	0.2184	0.9779	0.115
Mof_C 	C 	0.9207	0.3844	0.3525	0.503
Mof_O 	O 	0.2788	0.0794	0.1533	-0.183
Mof_O 	O 	0.3087	0.999	0.023	-0.446
Mof_O 	O 	0.6972	0.9929	0.0136	0.128
Mof_O 	O 	0.7886	0.9469	0.1563	-0.257
Mof_C 	C 	0.3365	0.0319	0.1096	-0.015
Mof_C 	C 	0.4418	0.0145	0.1635	0.962
Mof_C 	C 	0.5214	0.0012	0.1103	-0.085
Mof_C 	C 	0.6182	0.9847	0.1622	-0.625
Mof_C 	C 	0.6354	0.9816	0.2674	-0.739
Mof_H 	H 	0.7022	0.9702	0.3032	0.279
Mof_C 	C 	0.5558	0.995	0.3206	1.479
Mof_C 	C 	0.459	0.0114	0.2687	-1.782
Mof_H 	H 	0.404	0.0206	0.3055	1.681
Mof_C 	C 	0.5733	0.9882	0.4346	-0.044
Mof_C 	C 	0.6612	0.9538	0.4892	-0.332
Mof_H 	H 	0.7132	0.9322	0.4536	0.12
Mof_N 	N 	0.6092	0.9778	0.6499	-1.561
Mof_C 	C 	0.6775	0.9492	0.5957	0.635
Mof_H 	H 	0.7408	0.9253	0.6294	-0.176
Mof_C 	C 	0.5236	0.0113	0.5976	1.24
Mof_H 	H 	0.4737	0.0322	0.6362	-0.907
Mof_C 	C 	0.5002	0.0188	0.4919	-0.488
Mof_H 	H 	0.4368	0.0436	0.4598	0.14
Mof_C 	C 	0.7064	0.973	0.1067	0.134
Mof_Dy	Dy	0.13893	0.06324	0.00902	1.976
Mof_O 	O 	0.2572	0.1034	0.162	-0.127
Mof_O 	O 	0.4331	0.9472	0.1581	-0.409
Mof_O 	O 	0.1932	0.4294	0.3488	-0.063
Mof_O 	O 	0.371	0.5094	0.3236	0.606
_end
