data_functionalizedCrystal
_audit_creation_method	'EQeq! by Chris Wilmer'
_symmetry_space_group_name_H-M	'P1'
_symmetry_Int_Tables_number	1
_symmetry_cell_setting	triclinic
loop_
_symmetry_equiv_pos_as_xyz
  x,y,z
_cell_length_a	35.7945
_cell_length_b	35.7945
_cell_length_c	35.7945
_cell_angle_alpha	60
_cell_angle_beta	60
_cell_angle_gamma	60
loop_
_atom_site_label
_atom_site_type_symbol
_atom_site_fract_x
_atom_site_fract_y
_atom_site_fract_z
_atom_site_charge
Mof_Mn	Mn	0.46362	0.06367	0.93633	1.019
Mof_Mn	Mn	0.06367	0.46362	0.53638	1.019
Mof_Mn	Mn	0.93633	0.53638	0.46362	1.019
Mof_Mn	Mn	0.53638	0.93633	0.06367	1.019
Mof_Mn	Mn	0.46362	0.93633	0.53638	1.019
Mof_Mn	Mn	0.06367	0.53638	0.93633	1.019
Mof_Mn	Mn	0.93633	0.46362	0.06367	1.019
Mof_Mn	Mn	0.53638	0.06367	0.46362	1.019
Mof_Mn	Mn	0.46362	0.53638	0.06367	1.019
Mof_Mn	Mn	0.06367	0.93633	0.46362	1.019
Mof_Mn	Mn	0.93633	0.06367	0.53638	1.019
Mof_Mn	Mn	0.53638	0.46362	0.93633	1.019
Mof_Mn	Mn	0.43633	0.03638	0.56367	1.019
Mof_Mn	Mn	0.03638	0.43633	0.96362	1.019
Mof_Mn	Mn	0.96362	0.56367	0.03638	1.019
Mof_Mn	Mn	0.56367	0.96362	0.43633	1.019
Mof_Mn	Mn	0.56367	0.03638	0.96362	1.019
Mof_Mn	Mn	0.96362	0.43633	0.56367	1.019
Mof_Mn	Mn	0.03638	0.56367	0.43633	1.019
Mof_Mn	Mn	0.43633	0.96362	0.03638	1.019
Mof_Mn	Mn	0.96362	0.03638	0.43633	1.019
Mof_Mn	Mn	0.56367	0.43633	0.03638	1.019
Mof_Mn	Mn	0.43633	0.56367	0.96362	1.019
Mof_Mn	Mn	0.03638	0.96362	0.56367	1.019
Mof_H 	H 	0.451	0.9082	0.9626	0.023
Mof_H 	H 	0.4525	0.9797	0.8103	0.039
Mof_H 	H 	0.4505	0.0193	0.8483	0.025
Mof_H 	H 	0.3804	0.872	0.9602	0.196
Mof_H 	H 	0.4058	0.8606	0.9928	0.195
Mof_H 	H 	0.4047	0.8199	0.9867	0.193
Mof_H 	H 	0.5249	0.8231	0.9097	0.177
Mof_H 	H 	0.5015	0.7871	0.9535	0.174
Mof_H 	H 	0.5024	0.8284	0.959	0.182
Mof_H 	H 	0.9082	0.451	0.6782	0.024
Mof_H 	H 	0.9797	0.4525	0.7575	0.04
Mof_H 	H 	0.0193	0.4505	0.6819	0.026
Mof_H 	H 	0.872	0.3804	0.7874	0.197
Mof_H 	H 	0.8606	0.4058	0.7408	0.196
Mof_H 	H 	0.8199	0.4047	0.7887	0.193
Mof_H 	H 	0.8231	0.5249	0.7423	0.177
Mof_H 	H 	0.7871	0.5015	0.7579	0.174
Mof_H 	H 	0.8284	0.5024	0.7102	0.183
Mof_H 	H 	0.9626	0.6782	0.451	0.024
Mof_H 	H 	0.8103	0.7575	0.4525	0.04
Mof_H 	H 	0.8483	0.6819	0.4505	0.026
Mof_H 	H 	0.9602	0.7874	0.3804	0.197
Mof_H 	H 	0.9928	0.7408	0.4058	0.196
Mof_H 	H 	0.9867	0.7887	0.4047	0.193
Mof_H 	H 	0.9097	0.7423	0.5249	0.177
Mof_H 	H 	0.9535	0.7579	0.5015	0.174
Mof_H 	H 	0.959	0.7102	0.5024	0.183
Mof_H 	H 	0.6782	0.9626	0.9082	0.024
Mof_H 	H 	0.7575	0.8103	0.9797	0.04
Mof_H 	H 	0.6819	0.8483	0.0193	0.027
Mof_H 	H 	0.7874	0.9602	0.872	0.197
Mof_H 	H 	0.7408	0.9928	0.8606	0.195
Mof_H 	H 	0.7887	0.9867	0.8199	0.193
Mof_H 	H 	0.7423	0.9097	0.8231	0.177
Mof_H 	H 	0.7579	0.9535	0.7871	0.174
Mof_H 	H 	0.7102	0.959	0.8284	0.182
Mof_H 	H 	0.451	0.9626	0.6782	0.024
Mof_H 	H 	0.4525	0.8103	0.7575	0.04
Mof_H 	H 	0.4505	0.8483	0.6819	0.026
Mof_H 	H 	0.3804	0.9602	0.7874	0.197
Mof_H 	H 	0.4058	0.9928	0.7408	0.196
Mof_H 	H 	0.4047	0.9867	0.7887	0.193
Mof_H 	H 	0.5249	0.9097	0.7423	0.177
Mof_H 	H 	0.5015	0.9535	0.7579	0.174
Mof_H 	H 	0.5024	0.959	0.7102	0.183
Mof_H 	H 	0.9082	0.6782	0.9626	0.024
Mof_H 	H 	0.9797	0.7575	0.8103	0.04
Mof_H 	H 	0.0193	0.6819	0.8483	0.027
Mof_H 	H 	0.872	0.7874	0.9602	0.197
Mof_H 	H 	0.8606	0.7408	0.9928	0.195
Mof_H 	H 	0.8199	0.7887	0.9867	0.193
Mof_H 	H 	0.8231	0.7423	0.9097	0.177
Mof_H 	H 	0.7871	0.7579	0.9535	0.174
Mof_H 	H 	0.8284	0.7102	0.959	0.182
Mof_H 	H 	0.9626	0.451	0.9082	0.024
Mof_H 	H 	0.8103	0.4525	0.9797	0.04
Mof_H 	H 	0.8483	0.4505	0.0193	0.026
Mof_H 	H 	0.9602	0.3804	0.872	0.197
Mof_H 	H 	0.9928	0.4058	0.8606	0.195
Mof_H 	H 	0.9867	0.4047	0.8199	0.193
Mof_H 	H 	0.9097	0.5249	0.8231	0.177
Mof_H 	H 	0.9535	0.5015	0.7871	0.174
Mof_H 	H 	0.959	0.5024	0.8284	0.182
Mof_H 	H 	0.6782	0.9082	0.451	0.024
Mof_H 	H 	0.7575	0.9797	0.4525	0.04
Mof_H 	H 	0.6819	0.0193	0.4505	0.026
Mof_H 	H 	0.7874	0.872	0.3804	0.197
Mof_H 	H 	0.7408	0.8606	0.4058	0.196
Mof_H 	H 	0.7887	0.8199	0.4047	0.193
Mof_H 	H 	0.7423	0.8231	0.5249	0.177
Mof_H 	H 	0.7579	0.7871	0.5015	0.174
Mof_H 	H 	0.7102	0.8284	0.5024	0.183
Mof_H 	H 	0.451	0.6782	0.9082	0.024
Mof_H 	H 	0.4525	0.7575	0.9797	0.04
Mof_H 	H 	0.4505	0.6819	0.0193	0.026
Mof_H 	H 	0.3804	0.7874	0.872	0.197
Mof_H 	H 	0.4058	0.7408	0.8606	0.196
Mof_H 	H 	0.4047	0.7887	0.8199	0.193
Mof_H 	H 	0.5249	0.7423	0.8231	0.177
Mof_H 	H 	0.5015	0.7579	0.7871	0.174
Mof_H 	H 	0.5024	0.7102	0.8284	0.183
Mof_H 	H 	0.9082	0.9626	0.451	0.024
Mof_H 	H 	0.9797	0.8103	0.4525	0.04
Mof_H 	H 	0.0193	0.8483	0.4505	0.026
Mof_H 	H 	0.872	0.9602	0.3804	0.197
Mof_H 	H 	0.8606	0.9928	0.4058	0.195
Mof_H 	H 	0.8199	0.9867	0.4047	0.193
Mof_H 	H 	0.8231	0.9097	0.5249	0.177
Mof_H 	H 	0.7871	0.9535	0.5015	0.174
Mof_H 	H 	0.8284	0.959	0.5024	0.182
Mof_H 	H 	0.9626	0.9082	0.6782	0.024
Mof_H 	H 	0.8103	0.9797	0.7575	0.04
Mof_H 	H 	0.8483	0.0193	0.6819	0.027
Mof_H 	H 	0.9602	0.872	0.7874	0.197
Mof_H 	H 	0.9928	0.8606	0.7408	0.195
Mof_H 	H 	0.9867	0.8199	0.7887	0.193
Mof_H 	H 	0.9097	0.8231	0.7423	0.177
Mof_H 	H 	0.9535	0.7871	0.7579	0.174
Mof_H 	H 	0.959	0.8284	0.7102	0.182
Mof_H 	H 	0.6782	0.451	0.9626	0.024
Mof_H 	H 	0.7575	0.4525	0.8103	0.04
Mof_H 	H 	0.6819	0.4505	0.8483	0.026
Mof_H 	H 	0.7874	0.3804	0.9602	0.197
Mof_H 	H 	0.7408	0.4058	0.9928	0.196
Mof_H 	H 	0.7887	0.4047	0.9867	0.193
Mof_H 	H 	0.7423	0.5249	0.9097	0.177
Mof_H 	H 	0.7579	0.5015	0.9535	0.174
Mof_H 	H 	0.7102	0.5024	0.959	0.183
Mof_H 	H 	0.5918	0.049	0.5374	0.024
Mof_H 	H 	0.5203	0.0475	0.6897	0.04
Mof_H 	H 	0.4807	0.0495	0.6517	0.026
Mof_H 	H 	0.628	0.1196	0.5398	0.197
Mof_H 	H 	0.6394	0.0942	0.5072	0.195
Mof_H 	H 	0.6801	0.0953	0.5133	0.193
Mof_H 	H 	0.6769	0.9751	0.5903	0.176
Mof_H 	H 	0.7129	0.9985	0.5465	0.173
Mof_H 	H 	0.6716	0.9976	0.541	0.182
Mof_H 	H 	0.049	0.5918	0.8218	0.024
Mof_H 	H 	0.0475	0.5203	0.7425	0.04
Mof_H 	H 	0.0495	0.4807	0.8181	0.026
Mof_H 	H 	0.1196	0.628	0.7126	0.197
Mof_H 	H 	0.0942	0.6394	0.7592	0.195
Mof_H 	H 	0.0953	0.6801	0.7113	0.193
Mof_H 	H 	0.9751	0.6769	0.7577	0.176
Mof_H 	H 	0.9985	0.7129	0.7421	0.172
Mof_H 	H 	0.9976	0.6716	0.7898	0.181
Mof_H 	H 	0.8218	0.5374	0.049	0.024
Mof_H 	H 	0.7425	0.6897	0.0475	0.04
Mof_H 	H 	0.8181	0.6517	0.0495	0.026
Mof_H 	H 	0.7126	0.5398	0.1196	0.197
Mof_H 	H 	0.7592	0.5072	0.0942	0.195
Mof_H 	H 	0.7113	0.5133	0.0953	0.193
Mof_H 	H 	0.7577	0.5903	0.9751	0.176
Mof_H 	H 	0.7421	0.5465	0.9985	0.172
Mof_H 	H 	0.7898	0.541	0.9976	0.181
Mof_H 	H 	0.5374	0.8218	0.5918	0.024
Mof_H 	H 	0.6897	0.7425	0.5203	0.04
Mof_H 	H 	0.6517	0.8181	0.4807	0.026
Mof_H 	H 	0.5398	0.7126	0.628	0.197
Mof_H 	H 	0.5072	0.7592	0.6394	0.196
Mof_H 	H 	0.5133	0.7113	0.6801	0.193
Mof_H 	H 	0.5903	0.7577	0.6769	0.177
Mof_H 	H 	0.5465	0.7421	0.7129	0.174
Mof_H 	H 	0.541	0.7898	0.6716	0.183
Mof_H 	H 	0.5374	0.049	0.8218	0.024
Mof_H 	H 	0.6897	0.0475	0.7425	0.04
Mof_H 	H 	0.6517	0.0495	0.8181	0.026
Mof_H 	H 	0.5398	0.1196	0.7126	0.197
Mof_H 	H 	0.5072	0.0942	0.7592	0.195
Mof_H 	H 	0.5133	0.0953	0.7113	0.193
Mof_H 	H 	0.5903	0.9751	0.7577	0.176
Mof_H 	H 	0.5465	0.9985	0.7421	0.172
Mof_H 	H 	0.541	0.9976	0.7898	0.181
Mof_H 	H 	0.8218	0.5918	0.5374	0.024
Mof_H 	H 	0.7425	0.5203	0.6897	0.04
Mof_H 	H 	0.8181	0.4807	0.6517	0.026
Mof_H 	H 	0.7126	0.628	0.5398	0.197
Mof_H 	H 	0.7592	0.6394	0.5072	0.196
Mof_H 	H 	0.7113	0.6801	0.5133	0.193
Mof_H 	H 	0.7577	0.6769	0.5903	0.177
Mof_H 	H 	0.7421	0.7129	0.5465	0.174
Mof_H 	H 	0.7898	0.6716	0.541	0.183
Mof_H 	H 	0.049	0.5374	0.5918	0.024
Mof_H 	H 	0.0475	0.6897	0.5203	0.04
Mof_H 	H 	0.0495	0.6517	0.4807	0.026
Mof_H 	H 	0.1196	0.5398	0.628	0.197
Mof_H 	H 	0.0942	0.5072	0.6394	0.195
Mof_H 	H 	0.0953	0.5133	0.6801	0.193
Mof_H 	H 	0.9751	0.5903	0.6769	0.176
Mof_H 	H 	0.9985	0.5465	0.7129	0.173
Mof_H 	H 	0.9976	0.541	0.6716	0.182
Mof_H 	H 	0.5918	0.8218	0.049	0.024
Mof_H 	H 	0.5203	0.7425	0.0475	0.04
Mof_H 	H 	0.4807	0.8181	0.0495	0.026
Mof_H 	H 	0.628	0.7126	0.1196	0.197
Mof_H 	H 	0.6394	0.7592	0.0942	0.195
Mof_H 	H 	0.6801	0.7113	0.0953	0.193
Mof_H 	H 	0.6769	0.7577	0.9751	0.176
Mof_H 	H 	0.7129	0.7421	0.9985	0.172
Mof_H 	H 	0.6716	0.7898	0.9976	0.181
Mof_H 	H 	0.8218	0.049	0.5918	0.024
Mof_H 	H 	0.7425	0.0475	0.5203	0.04
Mof_H 	H 	0.8181	0.0495	0.4807	0.026
Mof_H 	H 	0.7126	0.1196	0.628	0.197
Mof_H 	H 	0.7592	0.0942	0.6394	0.195
Mof_H 	H 	0.7113	0.0953	0.6801	0.193
Mof_H 	H 	0.7577	0.9751	0.6769	0.176
Mof_H 	H 	0.7421	0.9985	0.7129	0.172
Mof_H 	H 	0.7898	0.9976	0.6716	0.181
Mof_H 	H 	0.5374	0.5918	0.049	0.024
Mof_H 	H 	0.6897	0.5203	0.0475	0.04
Mof_H 	H 	0.6517	0.4807	0.0495	0.026
Mof_H 	H 	0.5398	0.628	0.1196	0.197
Mof_H 	H 	0.5072	0.6394	0.0942	0.195
Mof_H 	H 	0.5133	0.6801	0.0953	0.193
Mof_H 	H 	0.5903	0.6769	0.9751	0.176
Mof_H 	H 	0.5465	0.7129	0.9985	0.173
Mof_H 	H 	0.541	0.6716	0.9976	0.182
Mof_H 	H 	0.5918	0.5374	0.8218	0.024
Mof_H 	H 	0.5203	0.6897	0.7425	0.04
Mof_H 	H 	0.4807	0.6517	0.8181	0.026
Mof_H 	H 	0.628	0.5398	0.7126	0.197
Mof_H 	H 	0.6394	0.5072	0.7592	0.196
Mof_H 	H 	0.6801	0.5133	0.7113	0.193
Mof_H 	H 	0.6769	0.5903	0.7577	0.177
Mof_H 	H 	0.7129	0.5465	0.7421	0.174
Mof_H 	H 	0.6716	0.541	0.7898	0.183
Mof_H 	H 	0.049	0.8218	0.5374	0.024
Mof_H 	H 	0.0475	0.7425	0.6897	0.04
Mof_H 	H 	0.0495	0.8181	0.6517	0.026
Mof_H 	H 	0.1196	0.7126	0.5398	0.197
Mof_H 	H 	0.0942	0.7592	0.5072	0.195
Mof_H 	H 	0.0953	0.7113	0.5133	0.193
Mof_H 	H 	0.9751	0.7577	0.5903	0.176
Mof_H 	H 	0.9985	0.7421	0.5465	0.172
Mof_H 	H 	0.9976	0.7898	0.541	0.181
Mof_H 	H 	0.549	0.0918	0.0374	0.024
Mof_H 	H 	0.5475	0.0203	0.1897	0.04
Mof_H 	H 	0.5495	0.9807	0.1517	0.026
Mof_H 	H 	0.6196	0.128	0.0398	0.197
Mof_H 	H 	0.5942	0.1394	0.0072	0.195
Mof_H 	H 	0.5953	0.1801	0.0133	0.193
Mof_H 	H 	0.4751	0.1769	0.0903	0.177
Mof_H 	H 	0.4985	0.2129	0.0465	0.174
Mof_H 	H 	0.4976	0.1716	0.041	0.182
Mof_H 	H 	0.0918	0.549	0.3218	0.024
Mof_H 	H 	0.0203	0.5475	0.2425	0.04
Mof_H 	H 	0.9807	0.5495	0.3181	0.026
Mof_H 	H 	0.128	0.6196	0.2126	0.197
Mof_H 	H 	0.1394	0.5942	0.2592	0.196
Mof_H 	H 	0.1801	0.5953	0.2113	0.193
Mof_H 	H 	0.1769	0.4751	0.2577	0.177
Mof_H 	H 	0.2129	0.4985	0.2421	0.174
Mof_H 	H 	0.1716	0.4976	0.2898	0.183
Mof_H 	H 	0.0374	0.3218	0.549	0.024
Mof_H 	H 	0.1897	0.2425	0.5475	0.04
Mof_H 	H 	0.1517	0.3181	0.5495	0.026
Mof_H 	H 	0.0398	0.2126	0.6196	0.197
Mof_H 	H 	0.0072	0.2592	0.5942	0.196
Mof_H 	H 	0.0133	0.2113	0.5953	0.193
Mof_H 	H 	0.0903	0.2577	0.4751	0.177
Mof_H 	H 	0.0465	0.2421	0.4985	0.174
Mof_H 	H 	0.041	0.2898	0.4976	0.183
Mof_H 	H 	0.3218	0.0374	0.0918	0.024
Mof_H 	H 	0.2425	0.1897	0.0203	0.04
Mof_H 	H 	0.3181	0.1517	0.9807	0.027
Mof_H 	H 	0.2126	0.0398	0.128	0.197
Mof_H 	H 	0.2592	0.0072	0.1394	0.195
Mof_H 	H 	0.2113	0.0133	0.1801	0.193
Mof_H 	H 	0.2577	0.0903	0.1769	0.177
Mof_H 	H 	0.2421	0.0465	0.2129	0.174
Mof_H 	H 	0.2898	0.041	0.1716	0.182
Mof_H 	H 	0.549	0.0374	0.3218	0.024
Mof_H 	H 	0.5475	0.1897	0.2425	0.04
Mof_H 	H 	0.5495	0.1517	0.3181	0.026
Mof_H 	H 	0.6196	0.0398	0.2126	0.197
Mof_H 	H 	0.5942	0.0072	0.2592	0.196
Mof_H 	H 	0.5953	0.0133	0.2113	0.193
Mof_H 	H 	0.4751	0.0903	0.2577	0.177
Mof_H 	H 	0.4985	0.0465	0.2421	0.174
Mof_H 	H 	0.4976	0.041	0.2898	0.183
Mof_H 	H 	0.0918	0.3218	0.0374	0.024
Mof_H 	H 	0.0203	0.2425	0.1897	0.04
Mof_H 	H 	0.9807	0.3181	0.1517	0.027
Mof_H 	H 	0.128	0.2126	0.0398	0.197
Mof_H 	H 	0.1394	0.2592	0.0072	0.195
Mof_H 	H 	0.1801	0.2113	0.0133	0.193
Mof_H 	H 	0.1769	0.2577	0.0903	0.177
Mof_H 	H 	0.2129	0.2421	0.0465	0.174
Mof_H 	H 	0.1716	0.2898	0.041	0.182
Mof_H 	H 	0.0374	0.549	0.0918	0.024
Mof_H 	H 	0.1897	0.5475	0.0203	0.04
Mof_H 	H 	0.1517	0.5495	0.9807	0.026
Mof_H 	H 	0.0398	0.6196	0.128	0.197
Mof_H 	H 	0.0072	0.5942	0.1394	0.195
Mof_H 	H 	0.0133	0.5953	0.1801	0.193
Mof_H 	H 	0.0903	0.4751	0.1769	0.177
Mof_H 	H 	0.0465	0.4985	0.2129	0.174
Mof_H 	H 	0.041	0.4976	0.1716	0.182
Mof_H 	H 	0.3218	0.0918	0.549	0.024
Mof_H 	H 	0.2425	0.0203	0.5475	0.04
Mof_H 	H 	0.3181	0.9807	0.5495	0.026
Mof_H 	H 	0.2126	0.128	0.6196	0.197
Mof_H 	H 	0.2592	0.1394	0.5942	0.196
Mof_H 	H 	0.2113	0.1801	0.5953	0.193
Mof_H 	H 	0.2577	0.1769	0.4751	0.177
Mof_H 	H 	0.2421	0.2129	0.4985	0.174
Mof_H 	H 	0.2898	0.1716	0.4976	0.183
Mof_H 	H 	0.549	0.3218	0.0918	0.024
Mof_H 	H 	0.5475	0.2425	0.0203	0.04
Mof_H 	H 	0.5495	0.3181	0.9807	0.026
Mof_H 	H 	0.6196	0.2126	0.128	0.197
Mof_H 	H 	0.5942	0.2592	0.1394	0.196
Mof_H 	H 	0.5953	0.2113	0.1801	0.193
Mof_H 	H 	0.4751	0.2577	0.1769	0.177
Mof_H 	H 	0.4985	0.2421	0.2129	0.174
Mof_H 	H 	0.4976	0.2898	0.1716	0.183
Mof_H 	H 	0.0918	0.0374	0.549	0.024
Mof_H 	H 	0.0203	0.1897	0.5475	0.04
Mof_H 	H 	0.9807	0.1517	0.5495	0.026
Mof_H 	H 	0.128	0.0398	0.6196	0.197
Mof_H 	H 	0.1394	0.0072	0.5942	0.195
Mof_H 	H 	0.1801	0.0133	0.5953	0.193
Mof_H 	H 	0.1769	0.0903	0.4751	0.177
Mof_H 	H 	0.2129	0.0465	0.4985	0.174
Mof_H 	H 	0.1716	0.041	0.4976	0.182
Mof_H 	H 	0.0374	0.0918	0.3218	0.024
Mof_H 	H 	0.1897	0.0203	0.2425	0.04
Mof_H 	H 	0.1517	0.9807	0.3181	0.027
Mof_H 	H 	0.0398	0.128	0.2126	0.197
Mof_H 	H 	0.0072	0.1394	0.2592	0.195
Mof_H 	H 	0.0133	0.1801	0.2113	0.193
Mof_H 	H 	0.0903	0.1769	0.2577	0.177
Mof_H 	H 	0.0465	0.2129	0.2421	0.174
Mof_H 	H 	0.041	0.1716	0.2898	0.182
Mof_H 	H 	0.3218	0.549	0.0374	0.024
Mof_H 	H 	0.2425	0.5475	0.1897	0.04
Mof_H 	H 	0.3181	0.5495	0.1517	0.026
Mof_H 	H 	0.2126	0.6196	0.0398	0.197
Mof_H 	H 	0.2592	0.5942	0.0072	0.196
Mof_H 	H 	0.2113	0.5953	0.0133	0.193
Mof_H 	H 	0.2577	0.4751	0.0903	0.177
Mof_H 	H 	0.2421	0.4985	0.0465	0.174
Mof_H 	H 	0.2898	0.4976	0.041	0.183
Mof_H 	H 	0.4082	0.951	0.4626	0.024
Mof_H 	H 	0.4797	0.9525	0.3103	0.04
Mof_H 	H 	0.5193	0.9505	0.3483	0.026
Mof_H 	H 	0.372	0.8804	0.4602	0.197
Mof_H 	H 	0.3606	0.9058	0.4928	0.195
Mof_H 	H 	0.3199	0.9047	0.4867	0.193
Mof_H 	H 	0.3231	0.0249	0.4097	0.176
Mof_H 	H 	0.2871	0.0015	0.4535	0.173
Mof_H 	H 	0.3284	0.0024	0.459	0.182
Mof_H 	H 	0.951	0.4082	0.1782	0.024
Mof_H 	H 	0.9525	0.4797	0.2575	0.04
Mof_H 	H 	0.9505	0.5193	0.1819	0.026
Mof_H 	H 	0.8804	0.372	0.2874	0.197
Mof_H 	H 	0.9058	0.3606	0.2408	0.195
Mof_H 	H 	0.9047	0.3199	0.2887	0.193
Mof_H 	H 	0.0249	0.3231	0.2423	0.176
Mof_H 	H 	0.0015	0.2871	0.2579	0.172
Mof_H 	H 	0.0024	0.3284	0.2102	0.181
Mof_H 	H 	0.1782	0.4626	0.951	0.024
Mof_H 	H 	0.2575	0.3103	0.9525	0.04
Mof_H 	H 	0.1819	0.3483	0.9505	0.026
Mof_H 	H 	0.2874	0.4602	0.8804	0.197
Mof_H 	H 	0.2408	0.4928	0.9058	0.195
Mof_H 	H 	0.2887	0.4867	0.9047	0.193
Mof_H 	H 	0.2423	0.4097	0.0249	0.176
Mof_H 	H 	0.2579	0.4535	0.0015	0.172
Mof_H 	H 	0.2102	0.459	0.0024	0.181
Mof_H 	H 	0.4626	0.1782	0.4082	0.024
Mof_H 	H 	0.3103	0.2575	0.4797	0.04
Mof_H 	H 	0.3483	0.1819	0.5193	0.026
Mof_H 	H 	0.4602	0.2874	0.372	0.197
Mof_H 	H 	0.4928	0.2408	0.3606	0.196
Mof_H 	H 	0.4867	0.2887	0.3199	0.193
Mof_H 	H 	0.4097	0.2423	0.3231	0.177
Mof_H 	H 	0.4535	0.2579	0.2871	0.174
Mof_H 	H 	0.459	0.2102	0.3284	0.183
Mof_H 	H 	0.4626	0.951	0.1782	0.024
Mof_H 	H 	0.3103	0.9525	0.2575	0.04
Mof_H 	H 	0.3483	0.9505	0.1819	0.026
Mof_H 	H 	0.4602	0.8804	0.2874	0.197
Mof_H 	H 	0.4928	0.9058	0.2408	0.195
Mof_H 	H 	0.4867	0.9047	0.2887	0.193
Mof_H 	H 	0.4097	0.0249	0.2423	0.176
Mof_H 	H 	0.4535	0.0015	0.2579	0.172
Mof_H 	H 	0.459	0.0024	0.2102	0.181
Mof_H 	H 	0.1782	0.4082	0.4626	0.024
Mof_H 	H 	0.2575	0.4797	0.3103	0.04
Mof_H 	H 	0.1819	0.5193	0.3483	0.026
Mof_H 	H 	0.2874	0.372	0.4602	0.197
Mof_H 	H 	0.2408	0.3606	0.4928	0.196
Mof_H 	H 	0.2887	0.3199	0.4867	0.193
Mof_H 	H 	0.2423	0.3231	0.4097	0.177
Mof_H 	H 	0.2579	0.2871	0.4535	0.174
Mof_H 	H 	0.2102	0.3284	0.459	0.183
Mof_H 	H 	0.951	0.4626	0.4082	0.024
Mof_H 	H 	0.9525	0.3103	0.4797	0.04
Mof_H 	H 	0.9505	0.3483	0.5193	0.026
Mof_H 	H 	0.8804	0.4602	0.372	0.197
Mof_H 	H 	0.9058	0.4928	0.3606	0.195
Mof_H 	H 	0.9047	0.4867	0.3199	0.193
Mof_H 	H 	0.0249	0.4097	0.3231	0.176
Mof_H 	H 	0.0015	0.4535	0.2871	0.173
Mof_H 	H 	0.0024	0.459	0.3284	0.182
Mof_H 	H 	0.4082	0.1782	0.951	0.024
Mof_H 	H 	0.4797	0.2575	0.9525	0.04
Mof_H 	H 	0.5193	0.1819	0.9505	0.026
Mof_H 	H 	0.372	0.2874	0.8804	0.197
Mof_H 	H 	0.3606	0.2408	0.9058	0.195
Mof_H 	H 	0.3199	0.2887	0.9047	0.193
Mof_H 	H 	0.3231	0.2423	0.0249	0.176
Mof_H 	H 	0.2871	0.2579	0.0015	0.172
Mof_H 	H 	0.3284	0.2102	0.0024	0.181
Mof_H 	H 	0.1782	0.951	0.4082	0.024
Mof_H 	H 	0.2575	0.9525	0.4797	0.04
Mof_H 	H 	0.1819	0.9505	0.5193	0.026
Mof_H 	H 	0.2874	0.8804	0.372	0.197
Mof_H 	H 	0.2408	0.9058	0.3606	0.195
Mof_H 	H 	0.2887	0.9047	0.3199	0.193
Mof_H 	H 	0.2423	0.0249	0.3231	0.176
Mof_H 	H 	0.2579	0.0015	0.2871	0.172
Mof_H 	H 	0.2102	0.0024	0.3284	0.181
Mof_H 	H 	0.4626	0.4082	0.951	0.024
Mof_H 	H 	0.3103	0.4797	0.9525	0.04
Mof_H 	H 	0.3483	0.5193	0.9505	0.026
Mof_H 	H 	0.4602	0.372	0.8804	0.197
Mof_H 	H 	0.4928	0.3606	0.9058	0.195
Mof_H 	H 	0.4867	0.3199	0.9047	0.193
Mof_H 	H 	0.4097	0.3231	0.0249	0.176
Mof_H 	H 	0.4535	0.2871	0.0015	0.173
Mof_H 	H 	0.459	0.3284	0.0024	0.182
Mof_H 	H 	0.4082	0.4626	0.1782	0.024
Mof_H 	H 	0.4797	0.3103	0.2575	0.04
Mof_H 	H 	0.5193	0.3483	0.1819	0.026
Mof_H 	H 	0.372	0.4602	0.2874	0.197
Mof_H 	H 	0.3606	0.4928	0.2408	0.196
Mof_H 	H 	0.3199	0.4867	0.2887	0.193
Mof_H 	H 	0.3231	0.4097	0.2423	0.177
Mof_H 	H 	0.2871	0.4535	0.2579	0.174
Mof_H 	H 	0.3284	0.459	0.2102	0.183
Mof_H 	H 	0.951	0.1782	0.4626	0.024
Mof_H 	H 	0.9525	0.2575	0.3103	0.04
Mof_H 	H 	0.9505	0.1819	0.3483	0.026
Mof_H 	H 	0.8804	0.2874	0.4602	0.197
Mof_H 	H 	0.9058	0.2408	0.4928	0.195
Mof_H 	H 	0.9047	0.2887	0.4867	0.193
Mof_H 	H 	0.0249	0.2423	0.4097	0.176
Mof_H 	H 	0.0015	0.2579	0.4535	0.172
Mof_H 	H 	0.0024	0.2102	0.459	0.181
Mof_C 	C 	0.44988	0.99172	0.9334	0.326
Mof_C 	C 	0.45021	0.96791	0.90893	-0.102
Mof_C 	C 	0.45082	0.92294	0.93204	0.02
Mof_C 	C 	0.45114	0.8999	0.9104	-0.094
Mof_C 	C 	0.45145	0.92095	0.86463	0.022
Mof_C 	C 	0.45172	0.96518	0.84122	-0.099
Mof_C 	C 	0.45078	0.9885	0.86416	0.015
Mof_C 	C 	0.45175	0.85077	0.93023	0.26
Mof_C 	C 	0.45257	0.84635	0.88943	-0.118
Mof_C 	C 	0.45247	0.88643	0.85197	0.048
Mof_C 	C 	0.40652	0.8508	0.97124	-0.593
Mof_C 	C 	0.49985	0.81927	0.93897	-0.557
Mof_C 	C 	0.99172	0.44988	0.625	0.327
Mof_C 	C 	0.96791	0.45021	0.67295	-0.102
Mof_C 	C 	0.92294	0.45082	0.6942	0.02
Mof_C 	C 	0.8999	0.45114	0.73856	-0.094
Mof_C 	C 	0.92095	0.45145	0.76297	0.022
Mof_C 	C 	0.96518	0.45172	0.74188	-0.099
Mof_C 	C 	0.9885	0.45078	0.69656	0.016
Mof_C 	C 	0.85077	0.45175	0.76725	0.26
Mof_C 	C 	0.84635	0.45257	0.81165	-0.118
Mof_C 	C 	0.88643	0.45247	0.80913	0.048
Mof_C 	C 	0.8508	0.40652	0.77144	-0.593
Mof_C 	C 	0.81927	0.49985	0.74191	-0.557
Mof_C 	C 	0.9334	0.625	0.44988	0.327
Mof_C 	C 	0.90893	0.67295	0.45021	-0.102
Mof_C 	C 	0.93204	0.6942	0.45082	0.02
Mof_C 	C 	0.9104	0.73856	0.45114	-0.094
Mof_C 	C 	0.86463	0.76297	0.45145	0.022
Mof_C 	C 	0.84122	0.74188	0.45172	-0.099
Mof_C 	C 	0.86416	0.69656	0.45078	0.016
Mof_C 	C 	0.93023	0.76725	0.45175	0.26
Mof_C 	C 	0.88943	0.81165	0.45257	-0.118
Mof_C 	C 	0.85197	0.80913	0.45247	0.048
Mof_C 	C 	0.97124	0.77144	0.40652	-0.593
Mof_C 	C 	0.93897	0.74191	0.49985	-0.557
Mof_C 	C 	0.625	0.9334	0.99172	0.326
Mof_C 	C 	0.67295	0.90893	0.96791	-0.101
Mof_C 	C 	0.6942	0.93204	0.92294	0.019
Mof_C 	C 	0.73856	0.9104	0.8999	-0.094
Mof_C 	C 	0.76297	0.86463	0.92095	0.022
Mof_C 	C 	0.74188	0.84122	0.96518	-0.098
Mof_C 	C 	0.69656	0.86416	0.9885	0.015
Mof_C 	C 	0.76725	0.93023	0.85077	0.26
Mof_C 	C 	0.81165	0.88943	0.84635	-0.118
Mof_C 	C 	0.80913	0.85197	0.88643	0.048
Mof_C 	C 	0.77144	0.97124	0.8508	-0.592
Mof_C 	C 	0.74191	0.93897	0.81927	-0.557
Mof_C 	C 	0.44988	0.9334	0.625	0.327
Mof_C 	C 	0.45021	0.90893	0.67295	-0.102
Mof_C 	C 	0.45082	0.93204	0.6942	0.02
Mof_C 	C 	0.45114	0.9104	0.73856	-0.094
Mof_C 	C 	0.45145	0.86463	0.76297	0.022
Mof_C 	C 	0.45172	0.84122	0.74188	-0.099
Mof_C 	C 	0.45078	0.86416	0.69656	0.016
Mof_C 	C 	0.45175	0.93023	0.76725	0.26
Mof_C 	C 	0.45257	0.88943	0.81165	-0.118
Mof_C 	C 	0.45247	0.85197	0.80913	0.048
Mof_C 	C 	0.40652	0.97124	0.77144	-0.593
Mof_C 	C 	0.49985	0.93897	0.74191	-0.557
Mof_C 	C 	0.99172	0.625	0.9334	0.326
Mof_C 	C 	0.96791	0.67295	0.90893	-0.101
Mof_C 	C 	0.92294	0.6942	0.93204	0.019
Mof_C 	C 	0.8999	0.73856	0.9104	-0.094
Mof_C 	C 	0.92095	0.76297	0.86463	0.022
Mof_C 	C 	0.96518	0.74188	0.84122	-0.098
Mof_C 	C 	0.9885	0.69656	0.86416	0.015
Mof_C 	C 	0.85077	0.76725	0.93023	0.26
Mof_C 	C 	0.84635	0.81165	0.88943	-0.118
Mof_C 	C 	0.88643	0.80913	0.85197	0.048
Mof_C 	C 	0.8508	0.77144	0.97124	-0.592
Mof_C 	C 	0.81927	0.74191	0.93897	-0.557
Mof_C 	C 	0.9334	0.44988	0.99172	0.326
Mof_C 	C 	0.90893	0.45021	0.96791	-0.102
Mof_C 	C 	0.93204	0.45082	0.92294	0.02
Mof_C 	C 	0.9104	0.45114	0.8999	-0.094
Mof_C 	C 	0.86463	0.45145	0.92095	0.022
Mof_C 	C 	0.84122	0.45172	0.96518	-0.099
Mof_C 	C 	0.86416	0.45078	0.9885	0.015
Mof_C 	C 	0.93023	0.45175	0.85077	0.26
Mof_C 	C 	0.88943	0.45257	0.84635	-0.118
Mof_C 	C 	0.85197	0.45247	0.88643	0.048
Mof_C 	C 	0.97124	0.40652	0.8508	-0.593
Mof_C 	C 	0.93897	0.49985	0.81927	-0.557
Mof_C 	C 	0.625	0.99172	0.44988	0.327
Mof_C 	C 	0.67295	0.96791	0.45021	-0.102
Mof_C 	C 	0.6942	0.92294	0.45082	0.02
Mof_C 	C 	0.73856	0.8999	0.45114	-0.094
Mof_C 	C 	0.76297	0.92095	0.45145	0.022
Mof_C 	C 	0.74188	0.96518	0.45172	-0.099
Mof_C 	C 	0.69656	0.9885	0.45078	0.016
Mof_C 	C 	0.76725	0.85077	0.45175	0.26
Mof_C 	C 	0.81165	0.84635	0.45257	-0.118
Mof_C 	C 	0.80913	0.88643	0.45247	0.048
Mof_C 	C 	0.77144	0.8508	0.40652	-0.593
Mof_C 	C 	0.74191	0.81927	0.49985	-0.557
Mof_C 	C 	0.44988	0.625	0.99172	0.327
Mof_C 	C 	0.45021	0.67295	0.96791	-0.102
Mof_C 	C 	0.45082	0.6942	0.92294	0.02
Mof_C 	C 	0.45114	0.73856	0.8999	-0.094
Mof_C 	C 	0.45145	0.76297	0.92095	0.022
Mof_C 	C 	0.45172	0.74188	0.96518	-0.099
Mof_C 	C 	0.45078	0.69656	0.9885	0.016
Mof_C 	C 	0.45175	0.76725	0.85077	0.26
Mof_C 	C 	0.45257	0.81165	0.84635	-0.118
Mof_C 	C 	0.45247	0.80913	0.88643	0.048
Mof_C 	C 	0.40652	0.77144	0.8508	-0.593
Mof_C 	C 	0.49985	0.74191	0.81927	-0.557
Mof_C 	C 	0.99172	0.9334	0.44988	0.326
Mof_C 	C 	0.96791	0.90893	0.45021	-0.102
Mof_C 	C 	0.92294	0.93204	0.45082	0.02
Mof_C 	C 	0.8999	0.9104	0.45114	-0.094
Mof_C 	C 	0.92095	0.86463	0.45145	0.022
Mof_C 	C 	0.96518	0.84122	0.45172	-0.099
Mof_C 	C 	0.9885	0.86416	0.45078	0.015
Mof_C 	C 	0.85077	0.93023	0.45175	0.26
Mof_C 	C 	0.84635	0.88943	0.45257	-0.118
Mof_C 	C 	0.88643	0.85197	0.45247	0.048
Mof_C 	C 	0.8508	0.97124	0.40652	-0.593
Mof_C 	C 	0.81927	0.93897	0.49985	-0.557
Mof_C 	C 	0.9334	0.99172	0.625	0.326
Mof_C 	C 	0.90893	0.96791	0.67295	-0.101
Mof_C 	C 	0.93204	0.92294	0.6942	0.019
Mof_C 	C 	0.9104	0.8999	0.73856	-0.094
Mof_C 	C 	0.86463	0.92095	0.76297	0.022
Mof_C 	C 	0.84122	0.96518	0.74188	-0.098
Mof_C 	C 	0.86416	0.9885	0.69656	0.015
Mof_C 	C 	0.93023	0.85077	0.76725	0.26
Mof_C 	C 	0.88943	0.84635	0.81165	-0.118
Mof_C 	C 	0.85197	0.88643	0.80913	0.048
Mof_C 	C 	0.97124	0.8508	0.77144	-0.592
Mof_C 	C 	0.93897	0.81927	0.74191	-0.557
Mof_C 	C 	0.625	0.44988	0.9334	0.327
Mof_C 	C 	0.67295	0.45021	0.90893	-0.102
Mof_C 	C 	0.6942	0.45082	0.93204	0.02
Mof_C 	C 	0.73856	0.45114	0.9104	-0.094
Mof_C 	C 	0.76297	0.45145	0.86463	0.022
Mof_C 	C 	0.74188	0.45172	0.84122	-0.099
Mof_C 	C 	0.69656	0.45078	0.86416	0.016
Mof_C 	C 	0.76725	0.45175	0.93023	0.26
Mof_C 	C 	0.81165	0.45257	0.88943	-0.118
Mof_C 	C 	0.80913	0.45247	0.85197	0.048
Mof_C 	C 	0.77144	0.40652	0.97124	-0.593
Mof_C 	C 	0.74191	0.49985	0.93897	-0.557
Mof_C 	C 	0.50828	0.05012	0.5666	0.327
Mof_C 	C 	0.53209	0.04979	0.59107	-0.102
Mof_C 	C 	0.57706	0.04918	0.56796	0.02
Mof_C 	C 	0.6001	0.04886	0.5896	-0.094
Mof_C 	C 	0.57905	0.04855	0.63537	0.022
Mof_C 	C 	0.53482	0.04828	0.65878	-0.099
Mof_C 	C 	0.5115	0.04922	0.63584	0.016
Mof_C 	C 	0.64923	0.04825	0.56977	0.26
Mof_C 	C 	0.65365	0.04743	0.61057	-0.118
Mof_C 	C 	0.61357	0.04753	0.64803	0.047
Mof_C 	C 	0.6492	0.09348	0.52876	-0.592
Mof_C 	C 	0.68073	0.00015	0.56103	-0.554
Mof_C 	C 	0.05012	0.50828	0.875	0.327
Mof_C 	C 	0.04979	0.53209	0.82705	-0.102
Mof_C 	C 	0.04918	0.57706	0.8058	0.02
Mof_C 	C 	0.04886	0.6001	0.76144	-0.094
Mof_C 	C 	0.04855	0.57905	0.73703	0.022
Mof_C 	C 	0.04828	0.53482	0.75812	-0.099
Mof_C 	C 	0.04922	0.5115	0.80344	0.016
Mof_C 	C 	0.04825	0.64923	0.73275	0.259
Mof_C 	C 	0.04743	0.65365	0.68835	-0.118
Mof_C 	C 	0.04753	0.61357	0.69087	0.047
Mof_C 	C 	0.09348	0.6492	0.72856	-0.592
Mof_C 	C 	0.00015	0.68073	0.75809	-0.552
Mof_C 	C 	0.875	0.5666	0.05012	0.327
Mof_C 	C 	0.82705	0.59107	0.04979	-0.102
Mof_C 	C 	0.8058	0.56796	0.04918	0.02
Mof_C 	C 	0.76144	0.5896	0.04886	-0.094
Mof_C 	C 	0.73703	0.63537	0.04855	0.022
Mof_C 	C 	0.75812	0.65878	0.04828	-0.099
Mof_C 	C 	0.80344	0.63584	0.04922	0.016
Mof_C 	C 	0.73275	0.56977	0.04825	0.259
Mof_C 	C 	0.68835	0.61057	0.04743	-0.118
Mof_C 	C 	0.69087	0.64803	0.04753	0.047
Mof_C 	C 	0.72856	0.52876	0.09348	-0.592
Mof_C 	C 	0.75809	0.56103	0.00015	-0.554
Mof_C 	C 	0.5666	0.875	0.50828	0.327
Mof_C 	C 	0.59107	0.82705	0.53209	-0.102
Mof_C 	C 	0.56796	0.8058	0.57706	0.02
Mof_C 	C 	0.5896	0.76144	0.6001	-0.094
Mof_C 	C 	0.63537	0.73703	0.57905	0.022
Mof_C 	C 	0.65878	0.75812	0.53482	-0.099
Mof_C 	C 	0.63584	0.80344	0.5115	0.016
Mof_C 	C 	0.56977	0.73275	0.64923	0.26
Mof_C 	C 	0.61057	0.68835	0.65365	-0.118
Mof_C 	C 	0.64803	0.69087	0.61357	0.048
Mof_C 	C 	0.52876	0.72856	0.6492	-0.593
Mof_C 	C 	0.56103	0.75809	0.68073	-0.557
Mof_C 	C 	0.5666	0.05012	0.875	0.327
Mof_C 	C 	0.59107	0.04979	0.82705	-0.102
Mof_C 	C 	0.56796	0.04918	0.8058	0.02
Mof_C 	C 	0.5896	0.04886	0.76144	-0.094
Mof_C 	C 	0.63537	0.04855	0.73703	0.022
Mof_C 	C 	0.65878	0.04828	0.75812	-0.099
Mof_C 	C 	0.63584	0.04922	0.80344	0.016
Mof_C 	C 	0.56977	0.04825	0.73275	0.259
Mof_C 	C 	0.61057	0.04743	0.68835	-0.118
Mof_C 	C 	0.64803	0.04753	0.69087	0.047
Mof_C 	C 	0.52876	0.09348	0.72856	-0.592
Mof_C 	C 	0.56103	0.00015	0.75809	-0.554
Mof_C 	C 	0.875	0.50828	0.5666	0.327
Mof_C 	C 	0.82705	0.53209	0.59107	-0.102
Mof_C 	C 	0.8058	0.57706	0.56796	0.02
Mof_C 	C 	0.76144	0.6001	0.5896	-0.094
Mof_C 	C 	0.73703	0.57905	0.63537	0.022
Mof_C 	C 	0.75812	0.53482	0.65878	-0.099
Mof_C 	C 	0.80344	0.5115	0.63584	0.016
Mof_C 	C 	0.73275	0.64923	0.56977	0.26
Mof_C 	C 	0.68835	0.65365	0.61057	-0.118
Mof_C 	C 	0.69087	0.61357	0.64803	0.048
Mof_C 	C 	0.72856	0.6492	0.52876	-0.593
Mof_C 	C 	0.75809	0.68073	0.56103	-0.557
Mof_C 	C 	0.05012	0.5666	0.50828	0.327
Mof_C 	C 	0.04979	0.59107	0.53209	-0.102
Mof_C 	C 	0.04918	0.56796	0.57706	0.02
Mof_C 	C 	0.04886	0.5896	0.6001	-0.094
Mof_C 	C 	0.04855	0.63537	0.57905	0.022
Mof_C 	C 	0.04828	0.65878	0.53482	-0.099
Mof_C 	C 	0.04922	0.63584	0.5115	0.016
Mof_C 	C 	0.04825	0.56977	0.64923	0.26
Mof_C 	C 	0.04743	0.61057	0.65365	-0.118
Mof_C 	C 	0.04753	0.64803	0.61357	0.047
Mof_C 	C 	0.09348	0.52876	0.6492	-0.592
Mof_C 	C 	0.00015	0.56103	0.68073	-0.554
Mof_C 	C 	0.50828	0.875	0.05012	0.327
Mof_C 	C 	0.53209	0.82705	0.04979	-0.102
Mof_C 	C 	0.57706	0.8058	0.04918	0.02
Mof_C 	C 	0.6001	0.76144	0.04886	-0.094
Mof_C 	C 	0.57905	0.73703	0.04855	0.022
Mof_C 	C 	0.53482	0.75812	0.04828	-0.099
Mof_C 	C 	0.5115	0.80344	0.04922	0.016
Mof_C 	C 	0.64923	0.73275	0.04825	0.259
Mof_C 	C 	0.65365	0.68835	0.04743	-0.118
Mof_C 	C 	0.61357	0.69087	0.04753	0.047
Mof_C 	C 	0.6492	0.72856	0.09348	-0.592
Mof_C 	C 	0.68073	0.75809	0.00015	-0.552
Mof_C 	C 	0.875	0.05012	0.50828	0.327
Mof_C 	C 	0.82705	0.04979	0.53209	-0.102
Mof_C 	C 	0.8058	0.04918	0.57706	0.02
Mof_C 	C 	0.76144	0.04886	0.6001	-0.094
Mof_C 	C 	0.73703	0.04855	0.57905	0.022
Mof_C 	C 	0.75812	0.04828	0.53482	-0.099
Mof_C 	C 	0.80344	0.04922	0.5115	0.016
Mof_C 	C 	0.73275	0.04825	0.64923	0.259
Mof_C 	C 	0.68835	0.04743	0.65365	-0.118
Mof_C 	C 	0.69087	0.04753	0.61357	0.047
Mof_C 	C 	0.72856	0.09348	0.6492	-0.592
Mof_C 	C 	0.75809	0.00015	0.68073	-0.552
Mof_C 	C 	0.5666	0.50828	0.05012	0.327
Mof_C 	C 	0.59107	0.53209	0.04979	-0.102
Mof_C 	C 	0.56796	0.57706	0.04918	0.02
Mof_C 	C 	0.5896	0.6001	0.04886	-0.094
Mof_C 	C 	0.63537	0.57905	0.04855	0.022
Mof_C 	C 	0.65878	0.53482	0.04828	-0.099
Mof_C 	C 	0.63584	0.5115	0.04922	0.016
Mof_C 	C 	0.56977	0.64923	0.04825	0.26
Mof_C 	C 	0.61057	0.65365	0.04743	-0.118
Mof_C 	C 	0.64803	0.61357	0.04753	0.047
Mof_C 	C 	0.52876	0.6492	0.09348	-0.592
Mof_C 	C 	0.56103	0.68073	0.00015	-0.554
Mof_C 	C 	0.50828	0.5666	0.875	0.327
Mof_C 	C 	0.53209	0.59107	0.82705	-0.102
Mof_C 	C 	0.57706	0.56796	0.8058	0.02
Mof_C 	C 	0.6001	0.5896	0.76144	-0.094
Mof_C 	C 	0.57905	0.63537	0.73703	0.022
Mof_C 	C 	0.53482	0.65878	0.75812	-0.099
Mof_C 	C 	0.5115	0.63584	0.80344	0.016
Mof_C 	C 	0.64923	0.56977	0.73275	0.26
Mof_C 	C 	0.65365	0.61057	0.68835	-0.118
Mof_C 	C 	0.61357	0.64803	0.69087	0.048
Mof_C 	C 	0.6492	0.52876	0.72856	-0.593
Mof_C 	C 	0.68073	0.56103	0.75809	-0.557
Mof_C 	C 	0.05012	0.875	0.5666	0.327
Mof_C 	C 	0.04979	0.82705	0.59107	-0.102
Mof_C 	C 	0.04918	0.8058	0.56796	0.02
Mof_C 	C 	0.04886	0.76144	0.5896	-0.094
Mof_C 	C 	0.04855	0.73703	0.63537	0.022
Mof_C 	C 	0.04828	0.75812	0.65878	-0.099
Mof_C 	C 	0.04922	0.80344	0.63584	0.016
Mof_C 	C 	0.04825	0.73275	0.56977	0.259
Mof_C 	C 	0.04743	0.68835	0.61057	-0.118
Mof_C 	C 	0.04753	0.69087	0.64803	0.047
Mof_C 	C 	0.09348	0.72856	0.52876	-0.592
Mof_C 	C 	0.00015	0.75809	0.56103	-0.554
Mof_C 	C 	0.55012	0.00828	0.0666	0.326
Mof_C 	C 	0.54979	0.03209	0.09107	-0.102
Mof_C 	C 	0.54918	0.07706	0.06796	0.02
Mof_C 	C 	0.54886	0.1001	0.0896	-0.094
Mof_C 	C 	0.54855	0.07905	0.13537	0.022
Mof_C 	C 	0.54828	0.03482	0.15878	-0.099
Mof_C 	C 	0.54922	0.0115	0.13584	0.015
Mof_C 	C 	0.54825	0.14923	0.06977	0.26
Mof_C 	C 	0.54743	0.15365	0.11057	-0.118
Mof_C 	C 	0.54753	0.11357	0.14803	0.048
Mof_C 	C 	0.59348	0.1492	0.02876	-0.593
Mof_C 	C 	0.50015	0.18073	0.06103	-0.557
Mof_C 	C 	0.00828	0.55012	0.375	0.327
Mof_C 	C 	0.03209	0.54979	0.32705	-0.102
Mof_C 	C 	0.07706	0.54918	0.3058	0.02
Mof_C 	C 	0.1001	0.54886	0.26144	-0.094
Mof_C 	C 	0.07905	0.54855	0.23703	0.022
Mof_C 	C 	0.03482	0.54828	0.25812	-0.099
Mof_C 	C 	0.0115	0.54922	0.30344	0.016
Mof_C 	C 	0.14923	0.54825	0.23275	0.26
Mof_C 	C 	0.15365	0.54743	0.18835	-0.118
Mof_C 	C 	0.11357	0.54753	0.19087	0.048
Mof_C 	C 	0.1492	0.59348	0.22856	-0.593
Mof_C 	C 	0.18073	0.50015	0.25809	-0.557
Mof_C 	C 	0.0666	0.375	0.55012	0.327
Mof_C 	C 	0.09107	0.32705	0.54979	-0.102
Mof_C 	C 	0.06796	0.3058	0.54918	0.02
Mof_C 	C 	0.0896	0.26144	0.54886	-0.094
Mof_C 	C 	0.13537	0.23703	0.54855	0.022
Mof_C 	C 	0.15878	0.25812	0.54828	-0.099
Mof_C 	C 	0.13584	0.30344	0.54922	0.016
Mof_C 	C 	0.06977	0.23275	0.54825	0.26
Mof_C 	C 	0.11057	0.18835	0.54743	-0.118
Mof_C 	C 	0.14803	0.19087	0.54753	0.048
Mof_C 	C 	0.02876	0.22856	0.59348	-0.593
Mof_C 	C 	0.06103	0.25809	0.50015	-0.557
Mof_C 	C 	0.375	0.0666	0.00828	0.326
Mof_C 	C 	0.32705	0.09107	0.03209	-0.101
Mof_C 	C 	0.3058	0.06796	0.07706	0.019
Mof_C 	C 	0.26144	0.0896	0.1001	-0.094
Mof_C 	C 	0.23703	0.13537	0.07905	0.022
Mof_C 	C 	0.25812	0.15878	0.03482	-0.098
Mof_C 	C 	0.30344	0.13584	0.0115	0.015
Mof_C 	C 	0.23275	0.06977	0.14923	0.26
Mof_C 	C 	0.18835	0.11057	0.15365	-0.118
Mof_C 	C 	0.19087	0.14803	0.11357	0.048
Mof_C 	C 	0.22856	0.02876	0.1492	-0.592
Mof_C 	C 	0.25809	0.06103	0.18073	-0.557
Mof_C 	C 	0.55012	0.0666	0.375	0.327
Mof_C 	C 	0.54979	0.09107	0.32705	-0.102
Mof_C 	C 	0.54918	0.06796	0.3058	0.02
Mof_C 	C 	0.54886	0.0896	0.26144	-0.094
Mof_C 	C 	0.54855	0.13537	0.23703	0.022
Mof_C 	C 	0.54828	0.15878	0.25812	-0.099
Mof_C 	C 	0.54922	0.13584	0.30344	0.016
Mof_C 	C 	0.54825	0.06977	0.23275	0.26
Mof_C 	C 	0.54743	0.11057	0.18835	-0.118
Mof_C 	C 	0.54753	0.14803	0.19087	0.048
Mof_C 	C 	0.59348	0.02876	0.22856	-0.593
Mof_C 	C 	0.50015	0.06103	0.25809	-0.557
Mof_C 	C 	0.00828	0.375	0.0666	0.326
Mof_C 	C 	0.03209	0.32705	0.09107	-0.101
Mof_C 	C 	0.07706	0.3058	0.06796	0.019
Mof_C 	C 	0.1001	0.26144	0.0896	-0.094
Mof_C 	C 	0.07905	0.23703	0.13537	0.022
Mof_C 	C 	0.03482	0.25812	0.15878	-0.098
Mof_C 	C 	0.0115	0.30344	0.13584	0.015
Mof_C 	C 	0.14923	0.23275	0.06977	0.26
Mof_C 	C 	0.15365	0.18835	0.11057	-0.118
Mof_C 	C 	0.11357	0.19087	0.14803	0.048
Mof_C 	C 	0.1492	0.22856	0.02876	-0.592
Mof_C 	C 	0.18073	0.25809	0.06103	-0.557
Mof_C 	C 	0.0666	0.55012	0.00828	0.326
Mof_C 	C 	0.09107	0.54979	0.03209	-0.102
Mof_C 	C 	0.06796	0.54918	0.07706	0.02
Mof_C 	C 	0.0896	0.54886	0.1001	-0.094
Mof_C 	C 	0.13537	0.54855	0.07905	0.022
Mof_C 	C 	0.15878	0.54828	0.03482	-0.099
Mof_C 	C 	0.13584	0.54922	0.0115	0.015
Mof_C 	C 	0.06977	0.54825	0.14923	0.26
Mof_C 	C 	0.11057	0.54743	0.15365	-0.118
Mof_C 	C 	0.14803	0.54753	0.11357	0.048
Mof_C 	C 	0.02876	0.59348	0.1492	-0.593
Mof_C 	C 	0.06103	0.50015	0.18073	-0.557
Mof_C 	C 	0.375	0.00828	0.55012	0.327
Mof_C 	C 	0.32705	0.03209	0.54979	-0.102
Mof_C 	C 	0.3058	0.07706	0.54918	0.02
Mof_C 	C 	0.26144	0.1001	0.54886	-0.094
Mof_C 	C 	0.23703	0.07905	0.54855	0.022
Mof_C 	C 	0.25812	0.03482	0.54828	-0.099
Mof_C 	C 	0.30344	0.0115	0.54922	0.016
Mof_C 	C 	0.23275	0.14923	0.54825	0.26
Mof_C 	C 	0.18835	0.15365	0.54743	-0.118
Mof_C 	C 	0.19087	0.11357	0.54753	0.048
Mof_C 	C 	0.22856	0.1492	0.59348	-0.593
Mof_C 	C 	0.25809	0.18073	0.50015	-0.557
Mof_C 	C 	0.55012	0.375	0.00828	0.327
Mof_C 	C 	0.54979	0.32705	0.03209	-0.102
Mof_C 	C 	0.54918	0.3058	0.07706	0.02
Mof_C 	C 	0.54886	0.26144	0.1001	-0.094
Mof_C 	C 	0.54855	0.23703	0.07905	0.022
Mof_C 	C 	0.54828	0.25812	0.03482	-0.099
Mof_C 	C 	0.54922	0.30344	0.0115	0.016
Mof_C 	C 	0.54825	0.23275	0.14923	0.26
Mof_C 	C 	0.54743	0.18835	0.15365	-0.118
Mof_C 	C 	0.54753	0.19087	0.11357	0.048
Mof_C 	C 	0.59348	0.22856	0.1492	-0.593
Mof_C 	C 	0.50015	0.25809	0.18073	-0.557
Mof_C 	C 	0.00828	0.0666	0.55012	0.326
Mof_C 	C 	0.03209	0.09107	0.54979	-0.102
Mof_C 	C 	0.07706	0.06796	0.54918	0.02
Mof_C 	C 	0.1001	0.0896	0.54886	-0.094
Mof_C 	C 	0.07905	0.13537	0.54855	0.022
Mof_C 	C 	0.03482	0.15878	0.54828	-0.099
Mof_C 	C 	0.0115	0.13584	0.54922	0.015
Mof_C 	C 	0.14923	0.06977	0.54825	0.26
Mof_C 	C 	0.15365	0.11057	0.54743	-0.118
Mof_C 	C 	0.11357	0.14803	0.54753	0.048
Mof_C 	C 	0.1492	0.02876	0.59348	-0.593
Mof_C 	C 	0.18073	0.06103	0.50015	-0.557
Mof_C 	C 	0.0666	0.00828	0.375	0.326
Mof_C 	C 	0.09107	0.03209	0.32705	-0.101
Mof_C 	C 	0.06796	0.07706	0.3058	0.019
Mof_C 	C 	0.0896	0.1001	0.26144	-0.094
Mof_C 	C 	0.13537	0.07905	0.23703	0.022
Mof_C 	C 	0.15878	0.03482	0.25812	-0.098
Mof_C 	C 	0.13584	0.0115	0.30344	0.015
Mof_C 	C 	0.06977	0.14923	0.23275	0.26
Mof_C 	C 	0.11057	0.15365	0.18835	-0.118
Mof_C 	C 	0.14803	0.11357	0.19087	0.048
Mof_C 	C 	0.02876	0.1492	0.22856	-0.592
Mof_C 	C 	0.06103	0.18073	0.25809	-0.557
Mof_C 	C 	0.375	0.55012	0.0666	0.327
Mof_C 	C 	0.32705	0.54979	0.09107	-0.102
Mof_C 	C 	0.3058	0.54918	0.06796	0.02
Mof_C 	C 	0.26144	0.54886	0.0896	-0.094
Mof_C 	C 	0.23703	0.54855	0.13537	0.022
Mof_C 	C 	0.25812	0.54828	0.15878	-0.099
Mof_C 	C 	0.30344	0.54922	0.13584	0.016
Mof_C 	C 	0.23275	0.54825	0.06977	0.26
Mof_C 	C 	0.18835	0.54743	0.11057	-0.118
Mof_C 	C 	0.19087	0.54753	0.14803	0.048
Mof_C 	C 	0.22856	0.59348	0.02876	-0.593
Mof_C 	C 	0.25809	0.50015	0.06103	-0.557
Mof_C 	C 	0.49172	0.94988	0.4334	0.327
Mof_C 	C 	0.46791	0.95021	0.40893	-0.102
Mof_C 	C 	0.42294	0.95082	0.43204	0.02
Mof_C 	C 	0.3999	0.95114	0.4104	-0.094
Mof_C 	C 	0.42095	0.95145	0.36463	0.022
Mof_C 	C 	0.46518	0.95172	0.34122	-0.099
Mof_C 	C 	0.4885	0.95078	0.36416	0.016
Mof_C 	C 	0.35077	0.95175	0.43023	0.26
Mof_C 	C 	0.34635	0.95257	0.38943	-0.118
Mof_C 	C 	0.38643	0.95247	0.35197	0.047
Mof_C 	C 	0.3508	0.90652	0.47124	-0.592
Mof_C 	C 	0.31927	0.99985	0.43897	-0.554
Mof_C 	C 	0.94988	0.49172	0.125	0.327
Mof_C 	C 	0.95021	0.46791	0.17295	-0.102
Mof_C 	C 	0.95082	0.42294	0.1942	0.02
Mof_C 	C 	0.95114	0.3999	0.23856	-0.094
Mof_C 	C 	0.95145	0.42095	0.26297	0.022
Mof_C 	C 	0.95172	0.46518	0.24188	-0.099
Mof_C 	C 	0.95078	0.4885	0.19656	0.016
Mof_C 	C 	0.95175	0.35077	0.26725	0.259
Mof_C 	C 	0.95257	0.34635	0.31165	-0.118
Mof_C 	C 	0.95247	0.38643	0.30913	0.047
Mof_C 	C 	0.90652	0.3508	0.27144	-0.592
Mof_C 	C 	0.99985	0.31927	0.24191	-0.552
Mof_C 	C 	0.125	0.4334	0.94988	0.327
Mof_C 	C 	0.17295	0.40893	0.95021	-0.102
Mof_C 	C 	0.1942	0.43204	0.95082	0.02
Mof_C 	C 	0.23856	0.4104	0.95114	-0.094
Mof_C 	C 	0.26297	0.36463	0.95145	0.022
Mof_C 	C 	0.24188	0.34122	0.95172	-0.099
Mof_C 	C 	0.19656	0.36416	0.95078	0.016
Mof_C 	C 	0.26725	0.43023	0.95175	0.259
Mof_C 	C 	0.31165	0.38943	0.95257	-0.118
Mof_C 	C 	0.30913	0.35197	0.95247	0.047
Mof_C 	C 	0.27144	0.47124	0.90652	-0.592
Mof_C 	C 	0.24191	0.43897	0.99985	-0.554
Mof_C 	C 	0.4334	0.125	0.49172	0.327
Mof_C 	C 	0.40893	0.17295	0.46791	-0.102
Mof_C 	C 	0.43204	0.1942	0.42294	0.02
Mof_C 	C 	0.4104	0.23856	0.3999	-0.094
Mof_C 	C 	0.36463	0.26297	0.42095	0.022
Mof_C 	C 	0.34122	0.24188	0.46518	-0.099
Mof_C 	C 	0.36416	0.19656	0.4885	0.016
Mof_C 	C 	0.43023	0.26725	0.35077	0.26
Mof_C 	C 	0.38943	0.31165	0.34635	-0.118
Mof_C 	C 	0.35197	0.30913	0.38643	0.048
Mof_C 	C 	0.47124	0.27144	0.3508	-0.593
Mof_C 	C 	0.43897	0.24191	0.31927	-0.557
Mof_C 	C 	0.4334	0.94988	0.125	0.327
Mof_C 	C 	0.40893	0.95021	0.17295	-0.102
Mof_C 	C 	0.43204	0.95082	0.1942	0.02
Mof_C 	C 	0.4104	0.95114	0.23856	-0.094
Mof_C 	C 	0.36463	0.95145	0.26297	0.022
Mof_C 	C 	0.34122	0.95172	0.24188	-0.099
Mof_C 	C 	0.36416	0.95078	0.19656	0.016
Mof_C 	C 	0.43023	0.95175	0.26725	0.259
Mof_C 	C 	0.38943	0.95257	0.31165	-0.118
Mof_C 	C 	0.35197	0.95247	0.30913	0.047
Mof_C 	C 	0.47124	0.90652	0.27144	-0.592
Mof_C 	C 	0.43897	0.99985	0.24191	-0.554
Mof_C 	C 	0.125	0.49172	0.4334	0.327
Mof_C 	C 	0.17295	0.46791	0.40893	-0.102
Mof_C 	C 	0.1942	0.42294	0.43204	0.02
Mof_C 	C 	0.23856	0.3999	0.4104	-0.094
Mof_C 	C 	0.26297	0.42095	0.36463	0.022
Mof_C 	C 	0.24188	0.46518	0.34122	-0.099
Mof_C 	C 	0.19656	0.4885	0.36416	0.016
Mof_C 	C 	0.26725	0.35077	0.43023	0.26
Mof_C 	C 	0.31165	0.34635	0.38943	-0.118
Mof_C 	C 	0.30913	0.38643	0.35197	0.048
Mof_C 	C 	0.27144	0.3508	0.47124	-0.593
Mof_C 	C 	0.24191	0.31927	0.43897	-0.557
Mof_C 	C 	0.94988	0.4334	0.49172	0.327
Mof_C 	C 	0.95021	0.40893	0.46791	-0.102
Mof_C 	C 	0.95082	0.43204	0.42294	0.02
Mof_C 	C 	0.95114	0.4104	0.3999	-0.094
Mof_C 	C 	0.95145	0.36463	0.42095	0.022
Mof_C 	C 	0.95172	0.34122	0.46518	-0.099
Mof_C 	C 	0.95078	0.36416	0.4885	0.016
Mof_C 	C 	0.95175	0.43023	0.35077	0.26
Mof_C 	C 	0.95257	0.38943	0.34635	-0.118
Mof_C 	C 	0.95247	0.35197	0.38643	0.047
Mof_C 	C 	0.90652	0.47124	0.3508	-0.592
Mof_C 	C 	0.99985	0.43897	0.31927	-0.554
Mof_C 	C 	0.49172	0.125	0.94988	0.327
Mof_C 	C 	0.46791	0.17295	0.95021	-0.102
Mof_C 	C 	0.42294	0.1942	0.95082	0.02
Mof_C 	C 	0.3999	0.23856	0.95114	-0.094
Mof_C 	C 	0.42095	0.26297	0.95145	0.022
Mof_C 	C 	0.46518	0.24188	0.95172	-0.099
Mof_C 	C 	0.4885	0.19656	0.95078	0.016
Mof_C 	C 	0.35077	0.26725	0.95175	0.259
Mof_C 	C 	0.34635	0.31165	0.95257	-0.118
Mof_C 	C 	0.38643	0.30913	0.95247	0.047
Mof_C 	C 	0.3508	0.27144	0.90652	-0.592
Mof_C 	C 	0.31927	0.24191	0.99985	-0.552
Mof_C 	C 	0.125	0.94988	0.49172	0.327
Mof_C 	C 	0.17295	0.95021	0.46791	-0.102
Mof_C 	C 	0.1942	0.95082	0.42294	0.02
Mof_C 	C 	0.23856	0.95114	0.3999	-0.094
Mof_C 	C 	0.26297	0.95145	0.42095	0.022
Mof_C 	C 	0.24188	0.95172	0.46518	-0.099
Mof_C 	C 	0.19656	0.95078	0.4885	0.016
Mof_C 	C 	0.26725	0.95175	0.35077	0.259
Mof_C 	C 	0.31165	0.95257	0.34635	-0.118
Mof_C 	C 	0.30913	0.95247	0.38643	0.047
Mof_C 	C 	0.27144	0.90652	0.3508	-0.592
Mof_C 	C 	0.24191	0.99985	0.31927	-0.552
Mof_C 	C 	0.4334	0.49172	0.94988	0.327
Mof_C 	C 	0.40893	0.46791	0.95021	-0.102
Mof_C 	C 	0.43204	0.42294	0.95082	0.02
Mof_C 	C 	0.4104	0.3999	0.95114	-0.094
Mof_C 	C 	0.36463	0.42095	0.95145	0.022
Mof_C 	C 	0.34122	0.46518	0.95172	-0.099
Mof_C 	C 	0.36416	0.4885	0.95078	0.016
Mof_C 	C 	0.43023	0.35077	0.95175	0.26
Mof_C 	C 	0.38943	0.34635	0.95257	-0.118
Mof_C 	C 	0.35197	0.38643	0.95247	0.047
Mof_C 	C 	0.47124	0.3508	0.90652	-0.592
Mof_C 	C 	0.43897	0.31927	0.99985	-0.554
Mof_C 	C 	0.49172	0.4334	0.125	0.327
Mof_C 	C 	0.46791	0.40893	0.17295	-0.102
Mof_C 	C 	0.42294	0.43204	0.1942	0.02
Mof_C 	C 	0.3999	0.4104	0.23856	-0.094
Mof_C 	C 	0.42095	0.36463	0.26297	0.022
Mof_C 	C 	0.46518	0.34122	0.24188	-0.099
Mof_C 	C 	0.4885	0.36416	0.19656	0.016
Mof_C 	C 	0.35077	0.43023	0.26725	0.26
Mof_C 	C 	0.34635	0.38943	0.31165	-0.118
Mof_C 	C 	0.38643	0.35197	0.30913	0.048
Mof_C 	C 	0.3508	0.47124	0.27144	-0.593
Mof_C 	C 	0.31927	0.43897	0.24191	-0.557
Mof_C 	C 	0.94988	0.125	0.4334	0.327
Mof_C 	C 	0.95021	0.17295	0.40893	-0.102
Mof_C 	C 	0.95082	0.1942	0.43204	0.02
Mof_C 	C 	0.95114	0.23856	0.4104	-0.094
Mof_C 	C 	0.95145	0.26297	0.36463	0.022
Mof_C 	C 	0.95172	0.24188	0.34122	-0.099
Mof_C 	C 	0.95078	0.19656	0.36416	0.016
Mof_C 	C 	0.95175	0.26725	0.43023	0.259
Mof_C 	C 	0.95257	0.31165	0.38943	-0.118
Mof_C 	C 	0.95247	0.30913	0.35197	0.047
Mof_C 	C 	0.90652	0.27144	0.47124	-0.592
Mof_C 	C 	0.99985	0.24191	0.43897	-0.554
Mof_Cl	Cl	0.48921	0.01079	0.01079	-0.399
Mof_Cl	Cl	0.01079	0.48921	0.48921	-0.399
Mof_Cl	Cl	0.48921	0.01079	0.48921	-0.399
Mof_Cl	Cl	0.01079	0.48921	0.01079	-0.399
Mof_Cl	Cl	0.48921	0.48921	0.01079	-0.399
Mof_Cl	Cl	0.01079	0.01079	0.48921	-0.399
Mof_Cl	Cl	0.51079	0.98921	0.98921	-0.399
Mof_Cl	Cl	0.98921	0.51079	0.51079	-0.399
Mof_Cl	Cl	0.51079	0.98921	0.51079	-0.399
Mof_Cl	Cl	0.98921	0.51079	0.98921	-0.399
Mof_Cl	Cl	0.51079	0.51079	0.98921	-0.399
Mof_Cl	Cl	0.98921	0.98921	0.51079	-0.399
Mof_O 	O 	0.45422	0.02946	0.91142	-0.397
Mof_O 	O 	0.42661	0.97757	0.98147	-0.364
Mof_O 	O 	0.02946	0.45422	0.6049	-0.397
Mof_O 	O 	0.97757	0.42661	0.61435	-0.364
Mof_O 	O 	0.91142	0.6049	0.45422	-0.397
Mof_O 	O 	0.98147	0.61435	0.42661	-0.364
Mof_O 	O 	0.6049	0.91142	0.02946	-0.397
Mof_O 	O 	0.61435	0.98147	0.97757	-0.364
Mof_O 	O 	0.45422	0.91142	0.6049	-0.397
Mof_O 	O 	0.42661	0.98147	0.61435	-0.364
Mof_O 	O 	0.02946	0.6049	0.91142	-0.397
Mof_O 	O 	0.97757	0.61435	0.98147	-0.364
Mof_O 	O 	0.91142	0.45422	0.02946	-0.397
Mof_O 	O 	0.98147	0.42661	0.97757	-0.364
Mof_O 	O 	0.6049	0.02946	0.45422	-0.397
Mof_O 	O 	0.61435	0.97757	0.42661	-0.364
Mof_O 	O 	0.45422	0.6049	0.02946	-0.397
Mof_O 	O 	0.42661	0.61435	0.97757	-0.364
Mof_O 	O 	0.02946	0.91142	0.45422	-0.397
Mof_O 	O 	0.97757	0.98147	0.42661	-0.364
Mof_O 	O 	0.91142	0.02946	0.6049	-0.397
Mof_O 	O 	0.98147	0.97757	0.61435	-0.364
Mof_O 	O 	0.6049	0.45422	0.91142	-0.397
Mof_O 	O 	0.61435	0.42661	0.98147	-0.364
Mof_O 	O 	0.47054	0.04578	0.58858	-0.397
Mof_O 	O 	0.52243	0.07339	0.51853	-0.364
Mof_O 	O 	0.04578	0.47054	0.8951	-0.397
Mof_O 	O 	0.07339	0.52243	0.88565	-0.364
Mof_O 	O 	0.8951	0.58858	0.04578	-0.397
Mof_O 	O 	0.88565	0.51853	0.07339	-0.364
Mof_O 	O 	0.58858	0.8951	0.47054	-0.398
Mof_O 	O 	0.51853	0.88565	0.52243	-0.364
Mof_O 	O 	0.58858	0.04578	0.8951	-0.397
Mof_O 	O 	0.51853	0.07339	0.88565	-0.364
Mof_O 	O 	0.8951	0.47054	0.58858	-0.398
Mof_O 	O 	0.88565	0.52243	0.51853	-0.364
Mof_O 	O 	0.04578	0.58858	0.47054	-0.397
Mof_O 	O 	0.07339	0.51853	0.52243	-0.364
Mof_O 	O 	0.47054	0.8951	0.04578	-0.397
Mof_O 	O 	0.52243	0.88565	0.07339	-0.364
Mof_O 	O 	0.8951	0.04578	0.47054	-0.397
Mof_O 	O 	0.88565	0.07339	0.52243	-0.364
Mof_O 	O 	0.58858	0.47054	0.04578	-0.397
Mof_O 	O 	0.51853	0.52243	0.07339	-0.364
Mof_O 	O 	0.47054	0.58858	0.8951	-0.398
Mof_O 	O 	0.52243	0.51853	0.88565	-0.364
Mof_O 	O 	0.04578	0.8951	0.58858	-0.397
Mof_O 	O 	0.07339	0.88565	0.51853	-0.364
Mof_O 	O 	0.54578	0.97054	0.08858	-0.397
Mof_O 	O 	0.57339	0.02243	0.01853	-0.364
Mof_O 	O 	0.97054	0.54578	0.3951	-0.397
Mof_O 	O 	0.02243	0.57339	0.38565	-0.364
Mof_O 	O 	0.08858	0.3951	0.54578	-0.397
Mof_O 	O 	0.01853	0.38565	0.57339	-0.364
Mof_O 	O 	0.3951	0.08858	0.97054	-0.397
Mof_O 	O 	0.38565	0.01853	0.02243	-0.364
Mof_O 	O 	0.54578	0.08858	0.3951	-0.397
Mof_O 	O 	0.57339	0.01853	0.38565	-0.364
Mof_O 	O 	0.97054	0.3951	0.08858	-0.397
Mof_O 	O 	0.02243	0.38565	0.01853	-0.364
Mof_O 	O 	0.08858	0.54578	0.97054	-0.397
Mof_O 	O 	0.01853	0.57339	0.02243	-0.364
Mof_O 	O 	0.3951	0.97054	0.54578	-0.397
Mof_O 	O 	0.38565	0.02243	0.57339	-0.364
Mof_O 	O 	0.54578	0.3951	0.97054	-0.397
Mof_O 	O 	0.57339	0.38565	0.02243	-0.364
Mof_O 	O 	0.97054	0.08858	0.54578	-0.397
Mof_O 	O 	0.02243	0.01853	0.57339	-0.364
Mof_O 	O 	0.08858	0.97054	0.3951	-0.397
Mof_O 	O 	0.01853	0.02243	0.38565	-0.364
Mof_O 	O 	0.3951	0.54578	0.08858	-0.397
Mof_O 	O 	0.38565	0.57339	0.01853	-0.364
Mof_O 	O 	0.52946	0.95422	0.41142	-0.397
Mof_O 	O 	0.47757	0.92661	0.48147	-0.364
Mof_O 	O 	0.95422	0.52946	0.1049	-0.397
Mof_O 	O 	0.92661	0.47757	0.11435	-0.364
Mof_O 	O 	0.1049	0.41142	0.95422	-0.397
Mof_O 	O 	0.11435	0.48147	0.92661	-0.364
Mof_O 	O 	0.41142	0.1049	0.52946	-0.398
Mof_O 	O 	0.48147	0.11435	0.47757	-0.364
Mof_O 	O 	0.41142	0.95422	0.1049	-0.397
Mof_O 	O 	0.48147	0.92661	0.11435	-0.364
Mof_O 	O 	0.1049	0.52946	0.41142	-0.398
Mof_O 	O 	0.11435	0.47757	0.48147	-0.364
Mof_O 	O 	0.95422	0.41142	0.52946	-0.397
Mof_O 	O 	0.92661	0.48147	0.47757	-0.364
Mof_O 	O 	0.52946	0.1049	0.95422	-0.397
Mof_O 	O 	0.47757	0.11435	0.92661	-0.364
Mof_O 	O 	0.1049	0.95422	0.52946	-0.397
Mof_O 	O 	0.11435	0.92661	0.47757	-0.364
Mof_O 	O 	0.41142	0.52946	0.95422	-0.397
Mof_O 	O 	0.48147	0.47757	0.92661	-0.364
Mof_O 	O 	0.52946	0.41142	0.1049	-0.398
Mof_O 	O 	0.47757	0.48147	0.11435	-0.364
Mof_O 	O 	0.95422	0.1049	0.41142	-0.397
Mof_O 	O 	0.92661	0.11435	0.48147	-0.364
Mof_Mn	Mn	0.75	0.75	0.75	0.311
Mof_Mn	Mn	0.25	0.25	0.25	0.311
_end
