# CIF file generated by openbabel 3.1.0, see https://openbabel.org
data_I
_chemical_name_common 'NIMXIS_clean'
_cell_length_a 12.9376
_cell_length_b 12.9376
_cell_length_c 14.1621
_cell_angle_alpha 85.0581
_cell_angle_beta 85.0581
_cell_angle_gamma 89.5963
_space_group_name_H-M_alt 'P 1'
_space_group_name_Hall 'P 1'
loop_
    _symmetry_equiv_pos_as_xyz
    x,y,z
loop_
    _atom_site_label
    _atom_site_type_symbol
    _atom_site_fract_x
    _atom_site_fract_y
    _atom_site_fract_z
    _atom_site_occupancy
    Zn1      Zn       0.01724    0.18736    0.33517    1.000
    Zn2      Zn       0.16584    0.16584    0.50514    1.000
    Zn3      Zn       0.98276    0.81264    0.66483    1.000
    Zn4      Zn       0.18736    0.01724    0.33517    1.000
    Zn5      Zn       0.83416    0.83416    0.49486    1.000
    Zn6      Zn       0.00000    0.00000    0.50000    1.000
    Zn7      Zn       0.81264    0.98276    0.66483    1.000
    C8       C        0.54290    0.06790    0.32060    1.000
    C9       C        0.06790    0.54290    0.32060    1.000
    C10      C        0.89740    0.29780    0.60840    1.000
    C11      C        0.64220    0.13960    0.46690    1.000
    C12      C        0.91590    0.04750    0.95980    1.000
    C13      C        0.63110    0.90010    0.59690    1.000
    C14      C        0.09990    0.36890    0.40310    1.000
    C15      C        0.53560    0.14200    0.47080    1.000
    C16      C        0.89620    0.51540    0.60220    1.000
    C17      C        0.14200    0.53560    0.47080    1.000
    C18      C        0.81820    0.10180    0.39240    1.000
    C19      C        0.93070    0.35170    0.68200    1.000
    C20      C        0.70220    0.10260    0.39160    1.000
    C21      C        0.85800    0.46440    0.52920    1.000
    C22      C        0.06980    0.06980    0.17100    1.000
    C23      C        0.13960    0.64220    0.46690    1.000
    C24      C        0.06930    0.64830    0.31800    1.000
    C25      C        0.18180    0.89820    0.60760    1.000
    C26      C        0.35780    0.86040    0.53310    1.000
    C27      C        0.10260    0.70220    0.39160    1.000
    C28      C        0.46440    0.85800    0.52920    1.000
    C29      C        0.86040    0.35780    0.53310    1.000
    C30      C        0.93210    0.45710    0.67940    1.000
    C31      C        0.03740    0.03740    0.08040    1.000
    C32      C        0.10380    0.48460    0.39780    1.000
    C33      C        0.51540    0.89620    0.60220    1.000
    C34      C        0.64830    0.06930    0.31800    1.000
    C35      C        0.35170    0.93070    0.68200    1.000
    C36      C        0.95250    0.08410    0.04020    1.000
    C37      C        0.90010    0.63110    0.59690    1.000
    C38      C        0.93020    0.93020    0.82900    1.000
    C39      C        0.89820    0.18180    0.60760    1.000
    C40      C        0.36890    0.09990    0.40310    1.000
    C41      C        0.45710    0.93210    0.67940    1.000
    C42      C        0.48460    0.10380    0.39780    1.000
    C43      C        0.10180    0.81820    0.39240    1.000
    C44      C        0.96260    0.96260    0.91960    1.000
    C45      C        0.04750    0.91590    0.95980    1.000
    C46      C        0.08410    0.95250    0.04020    1.000
    C47      C        0.29780    0.89740    0.60840    1.000
    N48      N        0.70680    0.03500    0.23440    1.000
    N49      N        0.29320    0.96500    0.76560    1.000
    N50      N        0.96500    0.29320    0.76560    1.000
    N51      N        0.03500    0.70680    0.23440    1.000
    O52      O        0.85913    0.02093    0.42380    1.000
    O53      O        0.13603    0.81351    0.63420    1.000
    O54      O        0.97960    0.85460    0.79370    1.000
    O55      O        0.09276    0.09276    0.41630    1.000
    O56      O        0.18649    0.86397    0.36580    1.000
    O57      O        0.85297    0.68101    0.53480    1.000
    O58      O        0.31899    0.14703    0.46520    1.000
    O59      O        0.81351    0.13603    0.63420    1.000
    O60      O        0.20190    0.96290    0.77430    1.000
    O61      O        0.97907    0.14087    0.57620    1.000
    O62      O        0.02040    0.14540    0.20630    1.000
    O63      O        0.95294    0.66792    0.65880    1.000
    O64      O        0.66000    0.00960    0.17100    1.000
    O65      O        0.68101    0.85297    0.53480    1.000
    O66      O        0.33208    0.04706    0.34120    1.000
    O67      O        0.66792    0.95294    0.65880    1.000
    O68      O        0.04706    0.33208    0.34120    1.000
    O69      O        0.85460    0.97960    0.79370    1.000
    O70      O        0.00960    0.66000    0.17100    1.000
    O71      O        0.14087    0.97907    0.57620    1.000
    O72      O        0.14540    0.02040    0.20630    1.000
    O73      O        0.34000    0.99040    0.82900    1.000
    O74      O        0.96290    0.20190    0.77430    1.000
    O75      O        0.86397    0.18649    0.36580    1.000
    O76      O        0.79810    0.03710    0.22570    1.000
    O77      O        0.02093    0.85913    0.42380    1.000
    O78      O        0.90724    0.90724    0.58370    1.000
    O79      O        0.14703    0.31899    0.46520    1.000
    O80      O        0.03710    0.79810    0.22570    1.000
    O81      O        0.99040    0.34000    0.82900    1.000
    H82      H        0.50341    0.03740    0.25964    1.000
    H83      H        0.03740    0.50341    0.25964    1.000
    H84      H        0.68394    0.16878    0.52714    1.000
    H85      H        0.84722    0.08712    0.92644    1.000
    H86      H        0.48908    0.17503    0.53336    1.000
    H87      H        0.17503    0.48908    0.53336    1.000
    H88      H        0.82502    0.51118    0.46675    1.000
    H89      H        0.16878    0.68394    0.52714    1.000
    H90      H        0.31606    0.83122    0.47286    1.000
    H91      H        0.51092    0.82497    0.46664    1.000
    H92      H        0.83049    0.31915    0.47140    1.000
    H93      H        0.96242    0.49747    0.73993    1.000
    H94      H        0.91288    0.15278    0.07356    1.000
    H95      H        0.49659    0.96260    0.74036    1.000
    H96      H        0.08752    0.84719    0.92684    1.000
    H97      H        0.15281    0.91248    0.07316    1.000
