data_functionalizedCrystal
_audit_creation_method	'EQeq! by Chris Wilmer'
_symmetry_space_group_name_H-M	'P1'
_symmetry_Int_Tables_number	1
_symmetry_cell_setting	triclinic
loop_
_symmetry_equiv_pos_as_xyz
  x,y,z
_cell_length_a	17.726
_cell_length_b	17.726
_cell_length_c	38.491
_cell_angle_alpha	90
_cell_angle_beta	90
_cell_angle_gamma	90
loop_
_atom_site_label
_atom_site_type_symbol
_atom_site_fract_x
_atom_site_fract_y
_atom_site_fract_z
_atom_site_charge
Mof_C 	C 	0.2594	0.6525	0.012	0.343
Mof_C 	C 	0.2759	0.7108	0.03835	-0.012
Mof_C 	C 	0.4007	0.5299	0.13182	0.379
Mof_C 	C 	0.4609	0.5491	0.10622	-0.005
Mof_Co	Co	0.31579	0.56676	0.07005	1.154
Mof_F 	F 	0.3476	0.6867	0.1387	-0.321
Mof_F 	F 	0.2997	0.7968	0.1431	-0.322
Mof_F 	F 	0.4098	0.7815	0.1271	-0.304
Mof_F 	F 	0.5607	0.6288	0.0072	-0.348
Mof_F 	F 	0.4576	0.5717	0.9995	-0.318
Mof_F 	F 	0.4564	0.6785	0.0184	-0.274
Mof_N 	N 	0.3009	0.6862	0.06969	-0.143
Mof_N 	N 	0.4367	0.5725	0.07441	-0.128
Mof_O 	O 	0.28	0.58603	0.01933	-0.344
Mof_O 	O 	0.2249	0.6673	0.98413	-0.373
Mof_O 	O 	0.33419	0.5362	0.12097	-0.373
Mof_O 	O 	0.4154	0.5084	0.16203	-0.379
Mof_C 	C 	0.7594	0.1525	0.512	0.344
Mof_C 	C 	0.7759	0.2108	0.53835	-0.005
Mof_C 	C 	0.9007	0.0299	0.63182	0.329
Mof_C 	C 	0.9609	0.0491	0.60622	0.173
Mof_Co	Co	0.81579	0.06676	0.57005	1.158
Mof_F 	F 	0.8476	0.1867	0.6387	-0.314
Mof_F 	F 	0.7997	0.2968	0.6431	-0.311
Mof_F 	F 	0.9098	0.2815	0.6271	-0.277
Mof_F 	F 	0.0607	0.1288	0.5072	-0.313
Mof_F 	F 	0.9576	0.0717	0.4995	-0.225
Mof_F 	F 	0.9564	0.1785	0.5184	-0.188
Mof_N 	N 	0.8009	0.1862	0.56969	-0.14
Mof_N 	N 	0.9367	0.0725	0.57441	-0.089
Mof_O 	O 	0.78	0.08603	0.51933	-0.334
Mof_O 	O 	0.7249	0.1673	0.48413	-0.357
Mof_O 	O 	0.83419	0.0362	0.62097	-0.352
Mof_O 	O 	0.9154	0.0084	0.66203	-0.312
Mof_C 	C 	0.2406	0.3475	0.512	0.342
Mof_C 	C 	0.2241	0.2892	0.53835	-0.009
Mof_C 	C 	0.0993	0.4701	0.63182	0.42
Mof_C 	C 	0.0391	0.4509	0.60622	-0.178
Mof_Co	Co	0.18421	0.43324	0.57005	1.155
Mof_F 	F 	0.1524	0.3133	0.6387	-0.328
Mof_F 	F 	0.2003	0.2032	0.6431	-0.319
Mof_F 	F 	0.0902	0.2185	0.6271	-0.324
Mof_F 	F 	0.9393	0.3712	0.5072	-0.307
Mof_F 	F 	0.0424	0.4283	0.4995	-0.347
Mof_F 	F 	0.0436	0.3215	0.5184	-0.306
Mof_N 	N 	0.1991	0.3138	0.56969	-0.14
Mof_N 	N 	0.0633	0.4275	0.57441	-0.1
Mof_O 	O 	0.22	0.41397	0.51933	-0.34
Mof_O 	O 	0.2751	0.3327	0.48413	-0.362
Mof_O 	O 	0.16581	0.4638	0.62097	-0.384
Mof_O 	O 	0.0846	0.4916	0.66203	-0.42
Mof_C 	C 	0.7406	0.8475	0.012	0.345
Mof_C 	C 	0.7241	0.7892	0.03835	-0.001
Mof_C 	C 	0.5993	0.9701	0.13182	0.376
Mof_C 	C 	0.5391	0.9509	0.10622	-0.005
Mof_Co	Co	0.68421	0.93324	0.07005	1.159
Mof_F 	F 	0.6524	0.8133	0.1387	-0.322
Mof_F 	F 	0.7003	0.7032	0.1431	-0.307
Mof_F 	F 	0.5902	0.7185	0.1271	-0.303
Mof_F 	F 	0.4393	0.8712	0.0072	-0.348
Mof_F 	F 	0.5424	0.9283	0.9995	-0.318
Mof_F 	F 	0.5436	0.8215	0.0184	-0.275
Mof_N 	N 	0.6991	0.8138	0.06969	-0.139
Mof_N 	N 	0.5633	0.9275	0.07441	-0.128
Mof_O 	O 	0.72	0.91397	0.01933	-0.331
Mof_O 	O 	0.7751	0.8327	0.98413	-0.347
Mof_O 	O 	0.66581	0.9638	0.12097	-0.365
Mof_O 	O 	0.5846	0.9916	0.16203	-0.377
Mof_C 	C 	0.5975	0.0094	0.262	0.343
Mof_C 	C 	0.5392	0.0259	0.28835	-0.006
Mof_C 	C 	0.7201	0.1507	0.38182	0.379
Mof_C 	C 	0.7009	0.2109	0.35622	-0.002
Mof_Co	Co	0.68324	0.06579	0.32005	1.158
Mof_F 	F 	0.5633	0.0976	0.3887	-0.322
Mof_F 	F 	0.4532	0.0497	0.3931	-0.315
Mof_F 	F 	0.4685	0.1598	0.3771	-0.303
Mof_F 	F 	0.6212	0.3107	0.2572	-0.348
Mof_F 	F 	0.6783	0.2076	0.2495	-0.318
Mof_F 	F 	0.5715	0.2064	0.2684	-0.275
Mof_N 	N 	0.5638	0.0509	0.31969	-0.141
Mof_N 	N 	0.6775	0.1867	0.32441	-0.127
Mof_O 	O 	0.66397	0.03	0.26933	-0.335
Mof_O 	O 	0.5827	0.9749	0.23413	-0.358
Mof_O 	O 	0.7138	0.08419	0.37097	-0.366
Mof_O 	O 	0.7416	0.1654	0.41203	-0.372
Mof_C 	C 	0.0975	0.5094	0.762	0.387
Mof_C 	C 	0.0392	0.5259	0.78835	-0.18
Mof_C 	C 	0.2201	0.6507	0.88182	0.376
Mof_C 	C 	0.2009	0.7109	0.85622	-0.009
Mof_Co	Co	0.18324	0.56579	0.82005	1.155
Mof_F 	F 	0.0633	0.5976	0.8887	-0.287
Mof_F 	F 	0.9532	0.5497	0.8931	-0.225
Mof_F 	F 	0.9685	0.6598	0.8771	-0.178
Mof_F 	F 	0.1212	0.8107	0.7572	-0.352
Mof_F 	F 	0.1783	0.7076	0.7495	-0.324
Mof_F 	F 	0.0715	0.7064	0.7684	-0.308
Mof_N 	N 	0.0638	0.5509	0.81969	-0.114
Mof_N 	N 	0.1775	0.6867	0.82441	-0.127
Mof_O 	O 	0.16397	0.53	0.76933	-0.353
Mof_O 	O 	0.0827	0.4749	0.73413	-0.403
Mof_O 	O 	0.2138	0.58419	0.87097	-0.374
Mof_O 	O 	0.2416	0.6654	0.91203	-0.384
Mof_C 	C 	0.9025	0.9906	0.762	0.296
Mof_C 	C 	0.9608	0.9741	0.78835	0.172
Mof_C 	C 	0.7799	0.8493	0.88182	0.376
Mof_C 	C 	0.7991	0.7891	0.85622	-0.003
Mof_Co	Co	0.81676	0.93421	0.82005	1.159
Mof_F 	F 	0.9367	0.9024	0.8887	-0.292
Mof_F 	F 	0.0468	0.9503	0.8931	-0.347
Mof_F 	F 	0.0315	0.8402	0.8771	-0.367
Mof_F 	F 	0.8788	0.6893	0.7572	-0.342
Mof_F 	F 	0.8217	0.7924	0.7495	-0.311
Mof_F 	F 	0.9285	0.7936	0.7684	-0.237
Mof_N 	N 	0.9362	0.9491	0.81969	-0.102
Mof_N 	N 	0.8225	0.8133	0.82441	-0.126
Mof_O 	O 	0.83603	0.97	0.76933	-0.319
Mof_O 	O 	0.9173	0.0251	0.73413	-0.292
Mof_O 	O 	0.7862	0.91581	0.87097	-0.362
Mof_O 	O 	0.7584	0.8346	0.91203	-0.374
Mof_C 	C 	0.4025	0.4906	0.262	0.344
Mof_C 	C 	0.4608	0.4741	0.28835	-0.007
Mof_C 	C 	0.2799	0.3493	0.38182	0.375
Mof_C 	C 	0.2991	0.2891	0.35622	-0.009
Mof_Co	Co	0.31676	0.43421	0.32005	1.155
Mof_F 	F 	0.4367	0.4024	0.3887	-0.322
Mof_F 	F 	0.5468	0.4503	0.3931	-0.315
Mof_F 	F 	0.5315	0.3402	0.3771	-0.303
Mof_F 	F 	0.3788	0.1893	0.2572	-0.348
Mof_F 	F 	0.3217	0.2924	0.2495	-0.318
Mof_F 	F 	0.4285	0.2936	0.2684	-0.274
Mof_N 	N 	0.4362	0.4491	0.31969	-0.141
Mof_N 	N 	0.3225	0.3133	0.32441	-0.128
Mof_O 	O 	0.33603	0.47	0.26933	-0.339
Mof_O 	O 	0.4173	0.5251	0.23413	-0.36
Mof_O 	O 	0.2862	0.41581	0.37097	-0.371
Mof_O 	O 	0.2584	0.3346	0.41203	-0.385
Mof_C 	C 	0.7594	0.3475	0.512	0.344
Mof_C 	C 	0.7759	0.2892	0.53835	-0.005
Mof_C 	C 	0.9007	0.4701	0.63182	0.328
Mof_C 	C 	0.9609	0.4509	0.60622	0.176
Mof_Co	Co	0.81579	0.43324	0.57005	1.158
Mof_F 	F 	0.8476	0.3133	0.6387	-0.314
Mof_F 	F 	0.7997	0.2032	0.6431	-0.311
Mof_F 	F 	0.9098	0.2185	0.6271	-0.277
Mof_F 	F 	0.0607	0.3712	0.5072	-0.312
Mof_F 	F 	0.9576	0.4283	0.4995	-0.224
Mof_F 	F 	0.9564	0.3215	0.5184	-0.187
Mof_N 	N 	0.8009	0.3138	0.56969	-0.14
Mof_N 	N 	0.9367	0.4275	0.57441	-0.089
Mof_O 	O 	0.78	0.41397	0.51933	-0.334
Mof_O 	O 	0.7249	0.3327	0.48413	-0.357
Mof_O 	O 	0.83419	0.4638	0.62097	-0.352
Mof_O 	O 	0.9154	0.4916	0.66203	-0.311
Mof_C 	C 	0.2594	0.8475	0.012	0.342
Mof_C 	C 	0.2759	0.7892	0.03835	-0.013
Mof_C 	C 	0.4007	0.9701	0.13182	0.378
Mof_C 	C 	0.4609	0.9509	0.10622	-0.006
Mof_Co	Co	0.31579	0.93324	0.07005	1.154
Mof_F 	F 	0.3476	0.8133	0.1387	-0.321
Mof_F 	F 	0.2997	0.7032	0.1431	-0.322
Mof_F 	F 	0.4098	0.7185	0.1271	-0.304
Mof_F 	F 	0.5607	0.8712	0.0072	-0.348
Mof_F 	F 	0.4576	0.9283	0.9995	-0.318
Mof_F 	F 	0.4564	0.8215	0.0184	-0.274
Mof_N 	N 	0.3009	0.8138	0.06969	-0.143
Mof_N 	N 	0.4367	0.9275	0.07441	-0.128
Mof_O 	O 	0.28	0.91397	0.01933	-0.344
Mof_O 	O 	0.2249	0.8327	0.98413	-0.373
Mof_O 	O 	0.33419	0.9638	0.12097	-0.372
Mof_O 	O 	0.4154	0.9916	0.16203	-0.379
Mof_C 	C 	0.7406	0.6525	0.012	0.345
Mof_C 	C 	0.7241	0.7108	0.03835	-0.001
Mof_C 	C 	0.5993	0.5299	0.13182	0.376
Mof_C 	C 	0.5391	0.5491	0.10622	-0.005
Mof_Co	Co	0.68421	0.56676	0.07005	1.159
Mof_F 	F 	0.6524	0.6867	0.1387	-0.322
Mof_F 	F 	0.7003	0.7968	0.1431	-0.307
Mof_F 	F 	0.5902	0.7815	0.1271	-0.303
Mof_F 	F 	0.4393	0.6288	0.0072	-0.348
Mof_F 	F 	0.5424	0.5717	0.9995	-0.318
Mof_F 	F 	0.5436	0.6785	0.0184	-0.275
Mof_N 	N 	0.6991	0.6862	0.06969	-0.139
Mof_N 	N 	0.5633	0.5725	0.07441	-0.128
Mof_O 	O 	0.72	0.58603	0.01933	-0.331
Mof_O 	O 	0.7751	0.6673	0.98413	-0.347
Mof_O 	O 	0.66581	0.5362	0.12097	-0.365
Mof_O 	O 	0.5846	0.5084	0.16203	-0.377
Mof_C 	C 	0.2406	0.1525	0.512	0.342
Mof_C 	C 	0.2241	0.2108	0.53835	-0.009
Mof_C 	C 	0.0993	0.0299	0.63182	0.42
Mof_C 	C 	0.0391	0.0491	0.60622	-0.176
Mof_Co	Co	0.18421	0.06676	0.57005	1.156
Mof_F 	F 	0.1524	0.1867	0.6387	-0.328
Mof_F 	F 	0.2003	0.2968	0.6431	-0.319
Mof_F 	F 	0.0902	0.2815	0.6271	-0.324
Mof_F 	F 	0.9393	0.1288	0.5072	-0.308
Mof_F 	F 	0.0424	0.0717	0.4995	-0.347
Mof_F 	F 	0.0436	0.1785	0.5184	-0.306
Mof_N 	N 	0.1991	0.1862	0.56969	-0.14
Mof_N 	N 	0.0633	0.0725	0.57441	-0.101
Mof_O 	O 	0.22	0.08603	0.51933	-0.34
Mof_O 	O 	0.2751	0.1673	0.48413	-0.362
Mof_O 	O 	0.16581	0.0362	0.62097	-0.384
Mof_O 	O 	0.0846	0.0084	0.66203	-0.419
Mof_C 	C 	0.0975	0.9906	0.762	0.386
Mof_C 	C 	0.0392	0.9741	0.78835	-0.177
Mof_C 	C 	0.2201	0.8493	0.88182	0.376
Mof_C 	C 	0.2009	0.7891	0.85622	-0.008
Mof_Co	Co	0.18324	0.93421	0.82005	1.155
Mof_F 	F 	0.0633	0.9024	0.8887	-0.288
Mof_F 	F 	0.9532	0.9503	0.8931	-0.226
Mof_F 	F 	0.9685	0.8402	0.8771	-0.179
Mof_F 	F 	0.1212	0.6893	0.7572	-0.352
Mof_F 	F 	0.1783	0.7924	0.7495	-0.324
Mof_F 	F 	0.0715	0.7936	0.7684	-0.308
Mof_N 	N 	0.0638	0.9491	0.81969	-0.114
Mof_N 	N 	0.1775	0.8133	0.82441	-0.127
Mof_O 	O 	0.16397	0.97	0.76933	-0.353
Mof_O 	O 	0.0827	0.0251	0.73413	-0.402
Mof_O 	O 	0.2138	0.91581	0.87097	-0.374
Mof_O 	O 	0.2416	0.8346	0.91203	-0.383
Mof_C 	C 	0.5975	0.4906	0.262	0.343
Mof_C 	C 	0.5392	0.4741	0.28835	-0.006
Mof_C 	C 	0.7201	0.3493	0.38182	0.379
Mof_C 	C 	0.7009	0.2891	0.35622	-0.002
Mof_Co	Co	0.68324	0.43421	0.32005	1.158
Mof_F 	F 	0.5633	0.4024	0.3887	-0.322
Mof_F 	F 	0.4532	0.4503	0.3931	-0.315
Mof_F 	F 	0.4685	0.3402	0.3771	-0.303
Mof_F 	F 	0.6212	0.1893	0.2572	-0.348
Mof_F 	F 	0.6783	0.2924	0.2495	-0.318
Mof_F 	F 	0.5715	0.2936	0.2684	-0.275
Mof_N 	N 	0.5638	0.4491	0.31969	-0.141
Mof_N 	N 	0.6775	0.3133	0.32441	-0.127
Mof_O 	O 	0.66397	0.47	0.26933	-0.335
Mof_O 	O 	0.5827	0.5251	0.23413	-0.358
Mof_O 	O 	0.7138	0.41581	0.37097	-0.366
Mof_O 	O 	0.7416	0.3346	0.41203	-0.372
Mof_C 	C 	0.4025	0.0094	0.262	0.344
Mof_C 	C 	0.4608	0.0259	0.28835	-0.007
Mof_C 	C 	0.2799	0.1507	0.38182	0.375
Mof_C 	C 	0.2991	0.2109	0.35622	-0.009
Mof_Co	Co	0.31676	0.06579	0.32005	1.155
Mof_F 	F 	0.4367	0.0976	0.3887	-0.322
Mof_F 	F 	0.5468	0.0497	0.3931	-0.315
Mof_F 	F 	0.5315	0.1598	0.3771	-0.303
Mof_F 	F 	0.3788	0.3107	0.2572	-0.348
Mof_F 	F 	0.3217	0.2076	0.2495	-0.318
Mof_F 	F 	0.4285	0.2064	0.2684	-0.274
Mof_N 	N 	0.4362	0.0509	0.31969	-0.141
Mof_N 	N 	0.3225	0.1867	0.32441	-0.128
Mof_O 	O 	0.33603	0.03	0.26933	-0.339
Mof_O 	O 	0.4173	0.9749	0.23413	-0.36
Mof_O 	O 	0.2862	0.08419	0.37097	-0.371
Mof_O 	O 	0.2584	0.1654	0.41203	-0.385
Mof_C 	C 	0.9025	0.5094	0.762	0.296
Mof_C 	C 	0.9608	0.5259	0.78835	0.174
Mof_C 	C 	0.7799	0.6507	0.88182	0.376
Mof_C 	C 	0.7991	0.7109	0.85622	-0.003
Mof_Co	Co	0.81676	0.56579	0.82005	1.159
Mof_F 	F 	0.9367	0.5976	0.8887	-0.291
Mof_F 	F 	0.0468	0.5497	0.8931	-0.348
Mof_F 	F 	0.0315	0.6598	0.8771	-0.367
Mof_F 	F 	0.8788	0.8107	0.7572	-0.342
Mof_F 	F 	0.8217	0.7076	0.7495	-0.311
Mof_F 	F 	0.9285	0.7064	0.7684	-0.237
Mof_N 	N 	0.9362	0.5509	0.81969	-0.102
Mof_N 	N 	0.8225	0.6867	0.82441	-0.126
Mof_O 	O 	0.83603	0.53	0.76933	-0.319
Mof_O 	O 	0.9173	0.4749	0.73413	-0.291
Mof_O 	O 	0.7862	0.58419	0.87097	-0.362
Mof_O 	O 	0.7584	0.6654	0.91203	-0.374
Mof_C 	C 	0.3146	0.75	0.08741	-0.068
Mof_C 	C 	0.3423	0.75	0.1241	1.167
Mof_C 	C 	0.1854	0.25	0.58741	-0.071
Mof_C 	C 	0.1577	0.25	0.6241	1.178
Mof_C 	C 	0.5	0.0646	0.33741	-0.063
Mof_C 	C 	0.5	0.0923	0.3741	1.165
Mof_C 	C 	6.81786e-33	0.5646	0.83741	-0.154
Mof_C 	C 	4.05122e-32	0.5923	0.8741	0.994
Mof_C 	C 	6.81786e-33	0.9354	0.83741	-0.152
Mof_C 	C 	7.11658e-33	0.9077	0.8741	0.995
Mof_C 	C 	0.5	0.4354	0.33741	-0.064
Mof_C 	C 	0.5	0.4077	0.3741	1.165
Mof_C 	C 	0.8146	0.25	0.58741	-0.052
Mof_C 	C 	0.8423	0.25	0.6241	1.149
Mof_C 	C 	0.6854	0.75	0.08741	-0.058
Mof_C 	C 	0.6577	0.75	0.1241	1.163
Mof_C 	C 	0.5	0.5859	0.0567	-0.052
Mof_C 	C 	0.5	0.6155	0.0204	1.213
Mof_Co	Co	0.5	0.51855	0.19757	1.193
Mof_C 	C 	4.53243e-33	0.0859	0.5567	-0.141
Mof_C 	C 	4.23689e-33	0.1155	0.5204	1.036
Mof_Co	Co	2.23772e-32	0.01855	0.69757	1.135
Mof_C 	C 	2.12303e-32	0.4141	0.5567	-0.143
Mof_C 	C 	2.09347e-32	0.3845	0.5204	1.034
Mof_Co	Co	2.23772e-32	0.48145	0.69757	1.133
Mof_C 	C 	0.5	0.9141	0.0567	-0.052
Mof_C 	C 	0.5	0.8845	0.0204	1.213
Mof_Co	Co	0.5	0.98145	0.19757	1.193
Mof_C 	C 	0.6641	0.25	0.3067	-0.05
Mof_C 	C 	0.6345	0.25	0.2704	1.213
Mof_Co	Co	0.73145	0.25	0.44757	1.195
Mof_C 	C 	0.8359	0.75	0.8067	-0.038
Mof_C 	C 	0.8655	0.75	0.7704	1.196
Mof_Co	Co	0.76855	0.75	0.94757	1.196
Mof_C 	C 	0.1641	0.75	0.8067	-0.063
Mof_C 	C 	0.1345	0.75	0.7704	1.229
Mof_Co	Co	0.23145	0.75	0.94757	1.188
Mof_C 	C 	0.3359	0.25	0.3067	-0.054
Mof_C 	C 	0.3655	0.25	0.2704	1.213
Mof_Co	Co	0.26855	0.25	0.44757	1.189
Mof_C 	C 	0.2406	0.6525	0.488	0.342
Mof_C 	C 	0.2241	0.7108	0.46165	-0.009
Mof_C 	C 	0.0993	0.5299	0.36818	0.42
Mof_C 	C 	0.0391	0.5491	0.39378	-0.178
Mof_Co	Co	0.18421	0.56676	0.42995	1.155
Mof_F 	F 	0.1524	0.6867	0.3613	-0.328
Mof_F 	F 	0.2003	0.7968	0.3569	-0.319
Mof_F 	F 	0.0902	0.7815	0.3729	-0.324
Mof_F 	F 	0.9393	0.6288	0.4928	-0.307
Mof_F 	F 	0.0424	0.5717	0.5005	-0.347
Mof_F 	F 	0.0436	0.6785	0.4816	-0.306
Mof_N 	N 	0.1991	0.6862	0.43031	-0.14
Mof_N 	N 	0.0633	0.5725	0.42559	-0.1
Mof_O 	O 	0.22	0.58603	0.48067	-0.34
Mof_O 	O 	0.2751	0.6673	0.51587	-0.362
Mof_O 	O 	0.16581	0.5362	0.37903	-0.384
Mof_O 	O 	0.0846	0.5084	0.33797	-0.42
Mof_C 	C 	0.7406	0.1525	0.988	0.345
Mof_C 	C 	0.7241	0.2108	0.96165	-0.001
Mof_C 	C 	0.5993	0.0299	0.86818	0.376
Mof_C 	C 	0.5391	0.0491	0.89378	-0.005
Mof_Co	Co	0.68421	0.06676	0.92995	1.159
Mof_F 	F 	0.6524	0.1867	0.8613	-0.322
Mof_F 	F 	0.7003	0.2968	0.8569	-0.307
Mof_F 	F 	0.5902	0.2815	0.8729	-0.303
Mof_F 	F 	0.4393	0.1288	0.9928	-0.348
Mof_F 	F 	0.5424	0.0717	0.0005	-0.318
Mof_F 	F 	0.5436	0.1785	0.9816	-0.275
Mof_N 	N 	0.6991	0.1862	0.93031	-0.139
Mof_N 	N 	0.5633	0.0725	0.92559	-0.128
Mof_O 	O 	0.72	0.08603	0.98067	-0.331
Mof_O 	O 	0.7751	0.1673	0.01587	-0.347
Mof_O 	O 	0.66581	0.0362	0.87903	-0.365
Mof_O 	O 	0.5846	0.0084	0.83797	-0.377
Mof_C 	C 	0.2594	0.3475	0.988	0.342
Mof_C 	C 	0.2759	0.2892	0.96165	-0.013
Mof_C 	C 	0.4007	0.4701	0.86818	0.378
Mof_C 	C 	0.4609	0.4509	0.89378	-0.006
Mof_Co	Co	0.31579	0.43324	0.92995	1.154
Mof_F 	F 	0.3476	0.3133	0.8613	-0.321
Mof_F 	F 	0.2997	0.2032	0.8569	-0.322
Mof_F 	F 	0.4098	0.2185	0.8729	-0.304
Mof_F 	F 	0.5607	0.3712	0.9928	-0.348
Mof_F 	F 	0.4576	0.4283	0.0005	-0.318
Mof_F 	F 	0.4564	0.3215	0.9816	-0.274
Mof_N 	N 	0.3009	0.3138	0.93031	-0.143
Mof_N 	N 	0.4367	0.4275	0.92559	-0.128
Mof_O 	O 	0.28	0.41397	0.98067	-0.344
Mof_O 	O 	0.2249	0.3327	0.01587	-0.373
Mof_O 	O 	0.33419	0.4638	0.87903	-0.373
Mof_O 	O 	0.4154	0.4916	0.83797	-0.379
Mof_C 	C 	0.7594	0.8475	0.488	0.344
Mof_C 	C 	0.7759	0.7892	0.46165	-0.005
Mof_C 	C 	0.9007	0.9701	0.36818	0.329
Mof_C 	C 	0.9609	0.9509	0.39378	0.173
Mof_Co	Co	0.81579	0.93324	0.42995	1.158
Mof_F 	F 	0.8476	0.8133	0.3613	-0.314
Mof_F 	F 	0.7997	0.7032	0.3569	-0.311
Mof_F 	F 	0.9098	0.7185	0.3729	-0.277
Mof_F 	F 	0.0607	0.8712	0.4928	-0.313
Mof_F 	F 	0.9576	0.9283	0.5005	-0.225
Mof_F 	F 	0.9564	0.8215	0.4816	-0.188
Mof_N 	N 	0.8009	0.8138	0.43031	-0.14
Mof_N 	N 	0.9367	0.9275	0.42559	-0.089
Mof_O 	O 	0.78	0.91397	0.48067	-0.334
Mof_O 	O 	0.7249	0.8327	0.51587	-0.357
Mof_O 	O 	0.83419	0.9638	0.37903	-0.352
Mof_O 	O 	0.9154	0.9916	0.33797	-0.312
Mof_C 	C 	0.9025	0.0094	0.238	0.296
Mof_C 	C 	0.9608	0.0259	0.21165	0.172
Mof_C 	C 	0.7799	0.1507	0.11818	0.376
Mof_C 	C 	0.7991	0.2109	0.14378	-0.003
Mof_Co	Co	0.81676	0.06579	0.17995	1.159
Mof_F 	F 	0.9367	0.0976	0.1113	-0.292
Mof_F 	F 	0.0468	0.0497	0.1069	-0.347
Mof_F 	F 	0.0315	0.1598	0.1229	-0.367
Mof_F 	F 	0.8788	0.3107	0.2428	-0.342
Mof_F 	F 	0.8217	0.2076	0.2505	-0.311
Mof_F 	F 	0.9285	0.2064	0.2316	-0.237
Mof_N 	N 	0.9362	0.0509	0.18031	-0.102
Mof_N 	N 	0.8225	0.1867	0.17559	-0.126
Mof_O 	O 	0.83603	0.03	0.23067	-0.319
Mof_O 	O 	0.9173	0.9749	0.26587	-0.292
Mof_O 	O 	0.7862	0.08419	0.12903	-0.362
Mof_O 	O 	0.7584	0.1654	0.08797	-0.374
Mof_C 	C 	0.4025	0.5094	0.738	0.344
Mof_C 	C 	0.4608	0.5259	0.71165	-0.007
Mof_C 	C 	0.2799	0.6507	0.61818	0.375
Mof_C 	C 	0.2991	0.7109	0.64378	-0.009
Mof_Co	Co	0.31676	0.56579	0.67995	1.155
Mof_F 	F 	0.4367	0.5976	0.6113	-0.322
Mof_F 	F 	0.5468	0.5497	0.6069	-0.315
Mof_F 	F 	0.5315	0.6598	0.6229	-0.303
Mof_F 	F 	0.3788	0.8107	0.7428	-0.348
Mof_F 	F 	0.3217	0.7076	0.7505	-0.318
Mof_F 	F 	0.4285	0.7064	0.7316	-0.274
Mof_N 	N 	0.4362	0.5509	0.68031	-0.141
Mof_N 	N 	0.3225	0.6867	0.67559	-0.128
Mof_O 	O 	0.33603	0.53	0.73067	-0.339
Mof_O 	O 	0.4173	0.4749	0.76587	-0.36
Mof_O 	O 	0.2862	0.58419	0.62903	-0.371
Mof_O 	O 	0.2584	0.6654	0.58797	-0.385
Mof_C 	C 	0.5975	0.9906	0.738	0.343
Mof_C 	C 	0.5392	0.9741	0.71165	-0.006
Mof_C 	C 	0.7201	0.8493	0.61818	0.379
Mof_C 	C 	0.7009	0.7891	0.64378	-0.002
Mof_Co	Co	0.68324	0.93421	0.67995	1.158
Mof_F 	F 	0.5633	0.9024	0.6113	-0.322
Mof_F 	F 	0.4532	0.9503	0.6069	-0.315
Mof_F 	F 	0.4685	0.8402	0.6229	-0.303
Mof_F 	F 	0.6212	0.6893	0.7428	-0.348
Mof_F 	F 	0.6783	0.7924	0.7505	-0.318
Mof_F 	F 	0.5715	0.7936	0.7316	-0.275
Mof_N 	N 	0.5638	0.9491	0.68031	-0.141
Mof_N 	N 	0.6775	0.8133	0.67559	-0.127
Mof_O 	O 	0.66397	0.97	0.73067	-0.335
Mof_O 	O 	0.5827	0.0251	0.76587	-0.358
Mof_O 	O 	0.7138	0.91581	0.62903	-0.366
Mof_O 	O 	0.7416	0.8346	0.58797	-0.372
Mof_C 	C 	0.0975	0.4906	0.238	0.387
Mof_C 	C 	0.0392	0.4741	0.21165	-0.18
Mof_C 	C 	0.2201	0.3493	0.11818	0.376
Mof_C 	C 	0.2009	0.2891	0.14378	-0.009
Mof_Co	Co	0.18324	0.43421	0.17995	1.155
Mof_F 	F 	0.0633	0.4024	0.1113	-0.287
Mof_F 	F 	0.9532	0.4503	0.1069	-0.225
Mof_F 	F 	0.9685	0.3402	0.1229	-0.178
Mof_F 	F 	0.1212	0.1893	0.2428	-0.352
Mof_F 	F 	0.1783	0.2924	0.2505	-0.324
Mof_F 	F 	0.0715	0.2936	0.2316	-0.308
Mof_N 	N 	0.0638	0.4491	0.18031	-0.114
Mof_N 	N 	0.1775	0.3133	0.17559	-0.127
Mof_O 	O 	0.16397	0.47	0.23067	-0.353
Mof_O 	O 	0.0827	0.5251	0.26587	-0.403
Mof_O 	O 	0.2138	0.41581	0.12903	-0.374
Mof_O 	O 	0.2416	0.3346	0.08797	-0.384
Mof_C 	C 	0.7406	0.3475	0.988	0.345
Mof_C 	C 	0.7241	0.2892	0.96165	-0.001
Mof_C 	C 	0.5993	0.4701	0.86818	0.376
Mof_C 	C 	0.5391	0.4509	0.89378	-0.005
Mof_Co	Co	0.68421	0.43324	0.92995	1.159
Mof_F 	F 	0.6524	0.3133	0.8613	-0.322
Mof_F 	F 	0.7003	0.2032	0.8569	-0.307
Mof_F 	F 	0.5902	0.2185	0.8729	-0.303
Mof_F 	F 	0.4393	0.3712	0.9928	-0.348
Mof_F 	F 	0.5424	0.4283	0.0005	-0.318
Mof_F 	F 	0.5436	0.3215	0.9816	-0.275
Mof_N 	N 	0.6991	0.3138	0.93031	-0.139
Mof_N 	N 	0.5633	0.4275	0.92559	-0.128
Mof_O 	O 	0.72	0.41397	0.98067	-0.331
Mof_O 	O 	0.7751	0.3327	0.01587	-0.347
Mof_O 	O 	0.66581	0.4638	0.87903	-0.365
Mof_O 	O 	0.5846	0.4916	0.83797	-0.377
Mof_C 	C 	0.2406	0.8475	0.488	0.342
Mof_C 	C 	0.2241	0.7892	0.46165	-0.009
Mof_C 	C 	0.0993	0.9701	0.36818	0.42
Mof_C 	C 	0.0391	0.9509	0.39378	-0.176
Mof_Co	Co	0.18421	0.93324	0.42995	1.156
Mof_F 	F 	0.1524	0.8133	0.3613	-0.328
Mof_F 	F 	0.2003	0.7032	0.3569	-0.319
Mof_F 	F 	0.0902	0.7185	0.3729	-0.324
Mof_F 	F 	0.9393	0.8712	0.4928	-0.308
Mof_F 	F 	0.0424	0.9283	0.5005	-0.347
Mof_F 	F 	0.0436	0.8215	0.4816	-0.306
Mof_N 	N 	0.1991	0.8138	0.43031	-0.14
Mof_N 	N 	0.0633	0.9275	0.42559	-0.101
Mof_O 	O 	0.22	0.91397	0.48067	-0.34
Mof_O 	O 	0.2751	0.8327	0.51587	-0.362
Mof_O 	O 	0.16581	0.9638	0.37903	-0.384
Mof_O 	O 	0.0846	0.9916	0.33797	-0.419
Mof_C 	C 	0.7594	0.6525	0.488	0.344
Mof_C 	C 	0.7759	0.7108	0.46165	-0.005
Mof_C 	C 	0.9007	0.5299	0.36818	0.328
Mof_C 	C 	0.9609	0.5491	0.39378	0.176
Mof_Co	Co	0.81579	0.56676	0.42995	1.158
Mof_F 	F 	0.8476	0.6867	0.3613	-0.314
Mof_F 	F 	0.7997	0.7968	0.3569	-0.311
Mof_F 	F 	0.9098	0.7815	0.3729	-0.277
Mof_F 	F 	0.0607	0.6288	0.4928	-0.312
Mof_F 	F 	0.9576	0.5717	0.5005	-0.224
Mof_F 	F 	0.9564	0.6785	0.4816	-0.187
Mof_N 	N 	0.8009	0.6862	0.43031	-0.14
Mof_N 	N 	0.9367	0.5725	0.42559	-0.089
Mof_O 	O 	0.78	0.58603	0.48067	-0.334
Mof_O 	O 	0.7249	0.6673	0.51587	-0.357
Mof_O 	O 	0.83419	0.5362	0.37903	-0.352
Mof_O 	O 	0.9154	0.5084	0.33797	-0.311
Mof_C 	C 	0.2594	0.1525	0.988	0.342
Mof_C 	C 	0.2759	0.2108	0.96165	-0.013
Mof_C 	C 	0.4007	0.0299	0.86818	0.378
Mof_C 	C 	0.4609	0.0491	0.89378	-0.006
Mof_Co	Co	0.31579	0.06676	0.92995	1.154
Mof_F 	F 	0.3476	0.1867	0.8613	-0.321
Mof_F 	F 	0.2997	0.2968	0.8569	-0.322
Mof_F 	F 	0.4098	0.2815	0.8729	-0.304
Mof_F 	F 	0.5607	0.1288	0.9928	-0.348
Mof_F 	F 	0.4576	0.0717	0.0005	-0.318
Mof_F 	F 	0.4564	0.1785	0.9816	-0.274
Mof_N 	N 	0.3009	0.1862	0.93031	-0.143
Mof_N 	N 	0.4367	0.0725	0.92559	-0.128
Mof_O 	O 	0.28	0.08603	0.98067	-0.344
Mof_O 	O 	0.2249	0.1673	0.01587	-0.373
Mof_O 	O 	0.33419	0.0362	0.87903	-0.372
Mof_O 	O 	0.4154	0.0084	0.83797	-0.379
Mof_C 	C 	0.4025	0.9906	0.738	0.344
Mof_C 	C 	0.4608	0.9741	0.71165	-0.007
Mof_C 	C 	0.2799	0.8493	0.61818	0.375
Mof_C 	C 	0.2991	0.7891	0.64378	-0.009
Mof_Co	Co	0.31676	0.93421	0.67995	1.155
Mof_F 	F 	0.4367	0.9024	0.6113	-0.322
Mof_F 	F 	0.5468	0.9503	0.6069	-0.315
Mof_F 	F 	0.5315	0.8402	0.6229	-0.303
Mof_F 	F 	0.3788	0.6893	0.7428	-0.348
Mof_F 	F 	0.3217	0.7924	0.7505	-0.318
Mof_F 	F 	0.4285	0.7936	0.7316	-0.274
Mof_N 	N 	0.4362	0.9491	0.68031	-0.141
Mof_N 	N 	0.3225	0.8133	0.67559	-0.128
Mof_O 	O 	0.33603	0.97	0.73067	-0.339
Mof_O 	O 	0.4173	0.0251	0.76587	-0.36
Mof_O 	O 	0.2862	0.91581	0.62903	-0.371
Mof_O 	O 	0.2584	0.8346	0.58797	-0.385
Mof_C 	C 	0.9025	0.4906	0.238	0.296
Mof_C 	C 	0.9608	0.4741	0.21165	0.174
Mof_C 	C 	0.7799	0.3493	0.11818	0.376
Mof_C 	C 	0.7991	0.2891	0.14378	-0.003
Mof_Co	Co	0.81676	0.43421	0.17995	1.159
Mof_F 	F 	0.9367	0.4024	0.1113	-0.291
Mof_F 	F 	0.0468	0.4503	0.1069	-0.348
Mof_F 	F 	0.0315	0.3402	0.1229	-0.367
Mof_F 	F 	0.8788	0.1893	0.2428	-0.342
Mof_F 	F 	0.8217	0.2924	0.2505	-0.311
Mof_F 	F 	0.9285	0.2936	0.2316	-0.237
Mof_N 	N 	0.9362	0.4491	0.18031	-0.102
Mof_N 	N 	0.8225	0.3133	0.17559	-0.126
Mof_O 	O 	0.83603	0.47	0.23067	-0.319
Mof_O 	O 	0.9173	0.5251	0.26587	-0.291
Mof_O 	O 	0.7862	0.41581	0.12903	-0.362
Mof_O 	O 	0.7584	0.3346	0.08797	-0.374
Mof_C 	C 	0.0975	0.0094	0.238	0.386
Mof_C 	C 	0.0392	0.0259	0.21165	-0.177
Mof_C 	C 	0.2201	0.1507	0.11818	0.376
Mof_C 	C 	0.2009	0.2109	0.14378	-0.008
Mof_Co	Co	0.18324	0.06579	0.17995	1.155
Mof_F 	F 	0.0633	0.0976	0.1113	-0.288
Mof_F 	F 	0.9532	0.0497	0.1069	-0.226
Mof_F 	F 	0.9685	0.1598	0.1229	-0.179
Mof_F 	F 	0.1212	0.3107	0.2428	-0.352
Mof_F 	F 	0.1783	0.2076	0.2505	-0.324
Mof_F 	F 	0.0715	0.2064	0.2316	-0.308
Mof_N 	N 	0.0638	0.0509	0.18031	-0.114
Mof_N 	N 	0.1775	0.1867	0.17559	-0.127
Mof_O 	O 	0.16397	0.03	0.23067	-0.353
Mof_O 	O 	0.0827	0.9749	0.26587	-0.402
Mof_O 	O 	0.2138	0.08419	0.12903	-0.374
Mof_O 	O 	0.2416	0.1654	0.08797	-0.383
Mof_C 	C 	0.5975	0.5094	0.738	0.343
Mof_C 	C 	0.5392	0.5259	0.71165	-0.006
Mof_C 	C 	0.7201	0.6507	0.61818	0.379
Mof_C 	C 	0.7009	0.7109	0.64378	-0.002
Mof_Co	Co	0.68324	0.56579	0.67995	1.158
Mof_F 	F 	0.5633	0.5976	0.6113	-0.322
Mof_F 	F 	0.4532	0.5497	0.6069	-0.315
Mof_F 	F 	0.4685	0.6598	0.6229	-0.303
Mof_F 	F 	0.6212	0.8107	0.7428	-0.348
Mof_F 	F 	0.6783	0.7076	0.7505	-0.318
Mof_F 	F 	0.5715	0.7064	0.7316	-0.275
Mof_N 	N 	0.5638	0.5509	0.68031	-0.141
Mof_N 	N 	0.6775	0.6867	0.67559	-0.127
Mof_O 	O 	0.66397	0.53	0.73067	-0.335
Mof_O 	O 	0.5827	0.4749	0.76587	-0.358
Mof_O 	O 	0.7138	0.58419	0.62903	-0.366
Mof_O 	O 	0.7416	0.6654	0.58797	-0.372
Mof_C 	C 	0.1854	0.75	0.41259	-0.071
Mof_C 	C 	0.1577	0.75	0.3759	1.178
Mof_C 	C 	0.3146	0.25	0.91259	-0.068
Mof_C 	C 	0.3423	0.25	0.8759	1.167
Mof_C 	C 	5.4982e-33	0.0646	0.16259	-0.152
Mof_C 	C 	3.11226e-33	0.0923	0.1259	0.995
Mof_C 	C 	0.5	0.5646	0.66259	-0.064
Mof_C 	C 	0.5	0.5923	0.6259	1.165
Mof_C 	C 	0.5	0.9354	0.66259	-0.063
Mof_C 	C 	0.5	0.9077	0.6259	1.165
Mof_C 	C 	1.32374e-33	0.4354	0.16259	-0.154
Mof_C 	C 	-1.0622e-33	0.4077	0.1259	0.994
Mof_C 	C 	0.6854	0.25	0.91259	-0.058
Mof_C 	C 	0.6577	0.25	0.8759	1.163
Mof_C 	C 	0.8146	0.75	0.41259	-0.052
Mof_C 	C 	0.8423	0.75	0.3759	1.149
Mof_C 	C 	2.0307e-32	0.5859	0.4433	-0.143
Mof_C 	C 	3.90471e-33	0.6155	0.4796	1.034
Mof_Co	Co	1.91601e-32	0.51855	0.30243	1.133
Mof_C 	C 	0.5	0.0859	0.9433	-0.052
Mof_C 	C 	0.5	0.1155	0.9796	1.213
Mof_Co	Co	0.5	0.01855	0.80243	1.193
Mof_C 	C 	0.5	0.4141	0.9433	-0.052
Mof_C 	C 	0.5	0.3845	0.9796	1.213
Mof_Co	Co	0.5	0.48145	0.80243	1.193
Mof_C 	C 	-4.73973e-33	0.9141	0.4433	-0.141
Mof_C 	C 	2.06025e-32	0.8845	0.4796	1.036
Mof_Co	Co	1.08112e-32	0.98145	0.30243	1.135
Mof_C 	C 	0.8359	0.25	0.1933	-0.038
Mof_C 	C 	0.8655	0.25	0.2296	1.196
Mof_Co	Co	0.76855	0.25	0.05243	1.196
Mof_C 	C 	0.6641	0.75	0.6933	-0.05
Mof_C 	C 	0.6345	0.75	0.7296	1.213
Mof_Co	Co	0.73145	0.75	0.55243	1.195
Mof_C 	C 	0.3359	0.75	0.6933	-0.054
Mof_C 	C 	0.3655	0.75	0.7296	1.213
Mof_Co	Co	0.26855	0.75	0.55243	1.189
Mof_C 	C 	0.1641	0.25	0.1933	-0.063
Mof_C 	C 	0.1345	0.25	0.2296	1.229
Mof_Co	Co	0.23145	0.25	0.05243	1.188
_end
