data_functionalizedCrystal
_audit_creation_method	'EQeq! by Chris Wilmer'
_symmetry_space_group_name_H-M	'P1'
_symmetry_Int_Tables_number	1
_symmetry_cell_setting	triclinic
loop_
_symmetry_equiv_pos_as_xyz
  x,y,z
_cell_length_a	35.159
_cell_length_b	14.6274
_cell_length_c	31.1596
_cell_angle_alpha	90
_cell_angle_beta	101.486
_cell_angle_gamma	90
loop_
_atom_site_label
_atom_site_type_symbol
_atom_site_fract_x
_atom_site_fract_y
_atom_site_fract_z
_atom_site_charge
Mof_I 	I 	0.26808	0.24564	0.20883	-0.381
Mof_I 	I 	0.37941	0.25813	0.44031	-0.381
Mof_I 	I 	0.3745	0.16405	0.30409	-0.407
Mof_I 	I 	0.60846	0.24157	0.60254	-0.381
Mof_I 	I 	0.47597	0.33836	0.3685	-0.32
Mof_I 	I 	0.64848	0.09748	0.49184	-0.372
Mof_Zn	Zn	0.41674	0.37164	0.40347	1.162
Mof_Zn	Zn	0.62586	0.09916	0.56384	1.164
Mof_Zn	Zn	0.32974	0.15187	0.22913	1.163
Mof_N 	N 	0.5786	0.0124	0.5585	-0.274
Mof_N 	N 	0.3785	0.4413	0.3544	-0.273
Mof_N 	N 	0.1677	0.469	0.1084	-0.272
Mof_N 	N 	0.3181	0.0133	0.2203	-0.27
Mof_N 	N 	0.3619	0.8283	0.6815	-0.278
Mof_N 	N 	0.2792	0.5522	0.2264	-0.141
Mof_N 	N 	0.2666	0.6926	0.1877	-0.14
Mof_N 	N 	0.4292	0.481	0.4468	-0.268
Mof_N 	N 	0.3197	0.6792	0.2474	-0.137
Mof_N 	N 	0.475	0.7723	0.5255	-0.148
Mof_N 	N 	0.46	0.8535	0.5859	-0.134
Mof_C 	C 	0.1842	0.4312	0.147	0.067
Mof_H 	H 	0.1751	0.3736	0.1547	-0.002
Mof_N 	N 	0.4244	0.7213	0.5593	-0.136
Mof_C 	C 	0.3466	0.4048	0.3314	0.076
Mof_H 	H 	0.3393	0.3451	0.3386	-0.013
Mof_C 	C 	0.5147	0.9002	0.5555	0.053
Mof_C 	C 	0.3334	0.5387	0.2873	0.061
Mof_C 	C 	0.481	0.8383	0.5555	0.094
Mof_C 	C 	0.2266	0.5586	0.1647	0.048
Mof_C 	C 	0.4616	0.5311	0.4509	0.069
Mof_H 	H 	0.4807	0.5131	0.4348	-0.009
Mof_C 	C 	0.214	0.4741	0.1756	-0.122
Mof_H 	H 	0.2256	0.4456	0.2024	0.09
Mof_C 	C 	0.4311	0.7934	0.5856	0.106
Mof_C 	C 	0.2592	0.6039	0.1944	0.091
Mof_C 	C 	0.1799	0.5503	0.0983	0.075
Mof_H 	H 	0.1681	0.5766	0.071	-0.002
Mof_C 	C 	0.4073	0.8057	0.6188	0.066
Mof_C 	C 	0.441	0.6329	0.5009	0.048
Mof_C 	C 	0.2088	0.5988	0.1251	-0.116
Mof_H 	H 	0.2164	0.6576	0.1169	0.085
Mof_C 	C 	0.5321	0.9087	0.5203	-0.126
Mof_H 	H 	0.5222	0.8757	0.4942	0.08
Mof_C 	C 	0.3234	0.4511	0.2971	-0.132
Mof_H 	H 	0.3008	0.4229	0.2806	0.082
Mof_C 	C 	0.3098	0.5934	0.2516	0.103
Mof_C 	C 	0.3048	0.826	0.2152	0.053
Mof_C 	C 	0.3504	0.7761	0.6464	0.079
Mof_H 	H 	0.3259	0.747	0.643	-0.012
Mof_C 	C 	0.3671	0.5764	0.3118	-0.124
Mof_H 	H 	0.375	0.6366	0.3061	0.093
Mof_C 	C 	0.3433	0.9544	0.2435	0.062
Mof_H 	H 	0.3659	0.978	0.2621	-0.012
Mof_C 	C 	0.3886	0.5243	0.3443	0.082
Mof_H 	H 	0.412	0.5493	0.3605	-0.011
Mof_C 	C 	0.5636	0.9647	0.5224	0.077
Mof_H 	H 	0.5753	0.9698	0.4975	-0.004
Mof_C 	C 	0.4687	0.607	0.4771	-0.114
Mof_H 	H 	0.492	0.6411	0.479	0.071
Mof_C 	C 	0.4073	0.5814	0.4967	-0.113
Mof_H 	H 	0.3878	0.598	0.5124	0.078
Mof_C 	C 	0.2862	0.9796	0.1938	0.065
Mof_H 	H 	0.2683	0.0207	0.1769	-0.008
Mof_C 	C 	0.2966	0.7262	0.216	0.109
Mof_C 	C 	0.4196	0.8596	0.6551	-0.12
Mof_H 	H 	0.4438	0.8906	0.6589	0.085
Mof_C 	C 	0.4468	0.7138	0.5297	0.092
Mof_C 	C 	0.3379	0.8619	0.2417	-0.114
Mof_H 	H 	0.3566	0.8224	0.2584	0.081
Mof_C 	C 	0.4023	0.5069	0.4698	0.065
Mof_H 	H 	0.3792	0.4721	0.4672	-0.011
Mof_C 	C 	0.2789	0.8871	0.1905	-0.114
Mof_H 	H 	0.2563	0.8649	0.1714	0.077
Mof_C 	C 	0.3967	0.8686	0.6857	0.073
Mof_H 	H 	0.4059	0.9049	0.7109	-0.016
Mof_C 	C 	0.3718	0.7618	0.6149	-0.121
Mof_H 	H 	0.3625	0.7226	0.5908	0.087
Mof_C 	C 	0.5622	0.0022	0.5931	0.078
Mof_H 	H 	0.573	0.0347	0.619	-0.016
Mof_C 	C 	0.5307	0.9478	0.5936	-0.124
Mof_H 	H 	0.52	0.9425	0.6192	0.087
Mof_I 	I 	0.4736	0.3489	0.3796	-0.021
Mof_I 	I 	0.76808	0.74564	0.20883	-0.38
Mof_I 	I 	0.87941	0.75813	0.44031	-0.38
Mof_I 	I 	0.8745	0.66405	0.30409	-0.406
Mof_I 	I 	0.10846	0.74157	0.60254	-0.38
Mof_I 	I 	0.97597	0.83836	0.3685	-0.319
Mof_I 	I 	0.14848	0.59748	0.49184	-0.371
Mof_Zn	Zn	0.91674	0.87164	0.40347	1.163
Mof_Zn	Zn	0.12586	0.59916	0.56384	1.165
Mof_Zn	Zn	0.82974	0.65187	0.22913	1.164
Mof_N 	N 	0.0786	0.5124	0.5585	-0.273
Mof_N 	N 	0.8785	0.9413	0.3544	-0.272
Mof_N 	N 	0.6677	0.969	0.1084	-0.271
Mof_N 	N 	0.8181	0.5133	0.2203	-0.269
Mof_N 	N 	0.8619	0.3283	0.6815	-0.277
Mof_N 	N 	0.7792	0.0522	0.2264	-0.14
Mof_N 	N 	0.7666	0.1926	0.1877	-0.139
Mof_N 	N 	0.9292	0.981	0.4468	-0.268
Mof_N 	N 	0.8197	0.1792	0.2474	-0.137
Mof_N 	N 	0.975	0.2723	0.5255	-0.148
Mof_N 	N 	0.96	0.3535	0.5859	-0.134
Mof_C 	C 	0.6842	0.9312	0.147	0.067
Mof_H 	H 	0.6751	0.8736	0.1547	-0.002
Mof_N 	N 	0.9244	0.2213	0.5593	-0.136
Mof_C 	C 	0.8466	0.9048	0.3314	0.076
Mof_H 	H 	0.8393	0.8451	0.3386	-0.013
Mof_C 	C 	0.0147	0.4002	0.5555	0.053
Mof_C 	C 	0.8334	0.0387	0.2873	0.061
Mof_C 	C 	0.981	0.3383	0.5555	0.094
Mof_C 	C 	0.7266	0.0586	0.1647	0.048
Mof_C 	C 	0.9616	0.0311	0.4509	0.069
Mof_H 	H 	0.9807	0.0131	0.4348	-0.009
Mof_C 	C 	0.714	0.9741	0.1756	-0.123
Mof_H 	H 	0.7256	0.9456	0.2024	0.09
Mof_C 	C 	0.9311	0.2934	0.5856	0.106
Mof_C 	C 	0.7592	0.1039	0.1944	0.09
Mof_C 	C 	0.6799	0.0503	0.0983	0.076
Mof_H 	H 	0.6681	0.0766	0.071	-0.003
Mof_C 	C 	0.9073	0.3057	0.6188	0.066
Mof_C 	C 	0.941	0.1329	0.5009	0.048
Mof_C 	C 	0.7088	0.0988	0.1251	-0.116
Mof_H 	H 	0.7164	0.1576	0.1169	0.085
Mof_C 	C 	0.0321	0.4087	0.5203	-0.126
Mof_H 	H 	0.0222	0.3757	0.4942	0.08
Mof_C 	C 	0.8234	0.9511	0.2971	-0.133
Mof_H 	H 	0.8008	0.9229	0.2806	0.083
Mof_C 	C 	0.8098	0.0934	0.2516	0.103
Mof_C 	C 	0.8048	0.326	0.2152	0.053
Mof_C 	C 	0.8504	0.2761	0.6464	0.079
Mof_H 	H 	0.8259	0.247	0.643	-0.012
Mof_C 	C 	0.8671	0.0764	0.3118	-0.124
Mof_H 	H 	0.875	0.1366	0.3061	0.093
Mof_C 	C 	0.8433	0.4544	0.2435	0.062
Mof_H 	H 	0.8659	0.478	0.2621	-0.012
Mof_C 	C 	0.8886	0.0243	0.3443	0.082
Mof_H 	H 	0.912	0.0493	0.3605	-0.011
Mof_C 	C 	0.0636	0.4647	0.5224	0.077
Mof_H 	H 	0.0753	0.4698	0.4975	-0.004
Mof_C 	C 	0.9687	0.107	0.4771	-0.114
Mof_H 	H 	0.992	0.1411	0.479	0.071
Mof_C 	C 	0.9073	0.0814	0.4967	-0.113
Mof_H 	H 	0.8878	0.098	0.5124	0.078
Mof_C 	C 	0.7862	0.4796	0.1938	0.066
Mof_H 	H 	0.7683	0.5207	0.1769	-0.008
Mof_C 	C 	0.7966	0.2262	0.216	0.109
Mof_C 	C 	0.9196	0.3596	0.6551	-0.12
Mof_H 	H 	0.9438	0.3906	0.6589	0.085
Mof_C 	C 	0.9468	0.2138	0.5297	0.092
Mof_C 	C 	0.8379	0.3619	0.2417	-0.115
Mof_H 	H 	0.8566	0.3224	0.2584	0.082
Mof_C 	C 	0.9023	0.0069	0.4698	0.065
Mof_H 	H 	0.8792	0.9721	0.4672	-0.011
Mof_C 	C 	0.7789	0.3871	0.1905	-0.114
Mof_H 	H 	0.7563	0.3649	0.1714	0.078
Mof_C 	C 	0.8967	0.3686	0.6857	0.073
Mof_H 	H 	0.9059	0.4049	0.7109	-0.016
Mof_C 	C 	0.8718	0.2618	0.6149	-0.121
Mof_H 	H 	0.8625	0.2226	0.5908	0.087
Mof_C 	C 	0.0622	0.5022	0.5931	0.078
Mof_H 	H 	0.073	0.5347	0.619	-0.016
Mof_C 	C 	0.0307	0.4478	0.5936	-0.124
Mof_H 	H 	0.02	0.4425	0.6192	0.087
Mof_I 	I 	0.9736	0.8489	0.3796	-0.021
Mof_I 	I 	0.26808	0.75436	0.70883	-0.38
Mof_I 	I 	0.37941	0.74187	0.94031	-0.38
Mof_I 	I 	0.3745	0.83595	0.80409	-0.406
Mof_I 	I 	0.60846	0.75843	0.10254	-0.38
Mof_I 	I 	0.47597	0.66164	0.8685	-0.319
Mof_I 	I 	0.64848	0.90252	0.99184	-0.371
Mof_Zn	Zn	0.41674	0.62836	0.90347	1.163
Mof_Zn	Zn	0.62586	0.90084	0.06384	1.164
Mof_Zn	Zn	0.32974	0.84813	0.72913	1.164
Mof_N 	N 	0.5786	0.9876	0.0585	-0.273
Mof_N 	N 	0.3785	0.5587	0.8544	-0.272
Mof_N 	N 	0.1677	0.531	0.6084	-0.271
Mof_N 	N 	0.3181	0.9867	0.7203	-0.269
Mof_N 	N 	0.3619	0.1717	0.1815	-0.277
Mof_N 	N 	0.2792	0.4478	0.7264	-0.14
Mof_N 	N 	0.2666	0.3074	0.6877	-0.139
Mof_N 	N 	0.4292	0.519	0.9468	-0.268
Mof_N 	N 	0.3197	0.3208	0.7474	-0.137
Mof_N 	N 	0.475	0.2277	0.0255	-0.148
Mof_N 	N 	0.46	0.1465	0.0859	-0.134
Mof_C 	C 	0.1842	0.5688	0.647	0.067
Mof_H 	H 	0.1751	0.6264	0.6547	-0.002
Mof_N 	N 	0.4244	0.2787	0.0593	-0.136
Mof_C 	C 	0.3466	0.5952	0.8314	0.076
Mof_H 	H 	0.3393	0.6549	0.8386	-0.013
Mof_C 	C 	0.5147	0.0998	0.0555	0.053
Mof_C 	C 	0.3334	0.4613	0.7873	0.061
Mof_C 	C 	0.481	0.1617	0.0555	0.094
Mof_C 	C 	0.2266	0.4414	0.6647	0.048
Mof_C 	C 	0.4616	0.4689	0.9509	0.069
Mof_H 	H 	0.4807	0.4869	0.9348	-0.009
Mof_C 	C 	0.214	0.5259	0.6756	-0.122
Mof_H 	H 	0.2256	0.5544	0.7024	0.09
Mof_C 	C 	0.4311	0.2066	0.0856	0.106
Mof_C 	C 	0.2592	0.3961	0.6944	0.091
Mof_C 	C 	0.1799	0.4497	0.5983	0.075
Mof_H 	H 	0.1681	0.4234	0.571	-0.002
Mof_C 	C 	0.4073	0.1943	0.1188	0.066
Mof_C 	C 	0.441	0.3671	0.0009	0.048
Mof_C 	C 	0.2088	0.4012	0.6251	-0.116
Mof_H 	H 	0.2164	0.3424	0.6169	0.085
Mof_C 	C 	0.5321	0.0913	0.0203	-0.126
Mof_H 	H 	0.5222	0.1243	0.9942	0.079
Mof_C 	C 	0.3234	0.5489	0.7971	-0.132
Mof_H 	H 	0.3008	0.5771	0.7806	0.082
Mof_C 	C 	0.3098	0.4066	0.7516	0.103
Mof_C 	C 	0.3048	0.174	0.7152	0.053
Mof_C 	C 	0.3504	0.2239	0.1464	0.079
Mof_H 	H 	0.3259	0.253	0.143	-0.012
Mof_C 	C 	0.3671	0.4236	0.8118	-0.124
Mof_H 	H 	0.375	0.3634	0.8061	0.093
Mof_C 	C 	0.3433	0.0456	0.7435	0.062
Mof_H 	H 	0.3659	0.022	0.7621	-0.012
Mof_C 	C 	0.3886	0.4757	0.8443	0.082
Mof_H 	H 	0.412	0.4507	0.8605	-0.011
Mof_C 	C 	0.5636	0.0353	0.0224	0.077
Mof_H 	H 	0.5753	0.0302	0.9975	-0.005
Mof_C 	C 	0.4687	0.393	0.9771	-0.114
Mof_H 	H 	0.492	0.3589	0.979	0.071
Mof_C 	C 	0.4073	0.4186	0.9967	-0.114
Mof_H 	H 	0.3878	0.402	0.0124	0.078
Mof_C 	C 	0.2862	0.0204	0.6938	0.065
Mof_H 	H 	0.2683	0.9793	0.6769	-0.008
Mof_C 	C 	0.2966	0.2738	0.716	0.109
Mof_C 	C 	0.4196	0.1404	0.1551	-0.12
Mof_H 	H 	0.4438	0.1094	0.1589	0.085
Mof_C 	C 	0.4468	0.2862	0.0297	0.092
Mof_C 	C 	0.3379	0.1381	0.7417	-0.114
Mof_H 	H 	0.3566	0.1776	0.7584	0.081
Mof_C 	C 	0.4023	0.4931	0.9698	0.065
Mof_H 	H 	0.3792	0.5279	0.9672	-0.011
Mof_C 	C 	0.2789	0.1129	0.6905	-0.114
Mof_H 	H 	0.2563	0.1351	0.6714	0.077
Mof_C 	C 	0.3967	0.1314	0.1857	0.073
Mof_H 	H 	0.4059	0.0951	0.2109	-0.016
Mof_C 	C 	0.3718	0.2382	0.1149	-0.121
Mof_H 	H 	0.3625	0.2774	0.0908	0.087
Mof_C 	C 	0.5622	0.9978	0.0931	0.078
Mof_H 	H 	0.573	0.9653	0.119	-0.016
Mof_C 	C 	0.5307	0.0522	0.0936	-0.124
Mof_H 	H 	0.52	0.0575	0.1192	0.086
Mof_I 	I 	0.4736	0.6511	0.8796	-0.021
Mof_I 	I 	0.76808	0.25436	0.70883	-0.38
Mof_I 	I 	0.87941	0.24187	0.94031	-0.38
Mof_I 	I 	0.8745	0.33595	0.80409	-0.406
Mof_I 	I 	0.10846	0.25843	0.10254	-0.38
Mof_I 	I 	0.97597	0.16164	0.8685	-0.319
Mof_I 	I 	0.14848	0.40252	0.99184	-0.371
Mof_Zn	Zn	0.91674	0.12836	0.90347	1.163
Mof_Zn	Zn	0.12586	0.40084	0.06384	1.165
Mof_Zn	Zn	0.82974	0.34813	0.72913	1.164
Mof_N 	N 	0.0786	0.4876	0.0585	-0.273
Mof_N 	N 	0.8785	0.0587	0.8544	-0.272
Mof_N 	N 	0.6677	0.031	0.6084	-0.271
Mof_N 	N 	0.8181	0.4867	0.7203	-0.269
Mof_N 	N 	0.8619	0.6717	0.1815	-0.277
Mof_N 	N 	0.7792	0.9478	0.7264	-0.14
Mof_N 	N 	0.7666	0.8074	0.6877	-0.139
Mof_N 	N 	0.9292	0.019	0.9468	-0.269
Mof_N 	N 	0.8197	0.8208	0.7474	-0.137
Mof_N 	N 	0.975	0.7277	0.0255	-0.148
Mof_N 	N 	0.96	0.6465	0.0859	-0.134
Mof_C 	C 	0.6842	0.0688	0.647	0.067
Mof_H 	H 	0.6751	0.1264	0.6547	-0.002
Mof_N 	N 	0.9244	0.7787	0.0593	-0.136
Mof_C 	C 	0.8466	0.0952	0.8314	0.076
Mof_H 	H 	0.8393	0.1549	0.8386	-0.013
Mof_C 	C 	0.0147	0.5998	0.0555	0.053
Mof_C 	C 	0.8334	0.9613	0.7873	0.061
Mof_C 	C 	0.981	0.6617	0.0555	0.094
Mof_C 	C 	0.7266	0.9414	0.6647	0.048
Mof_C 	C 	0.9616	0.9689	0.9509	0.069
Mof_H 	H 	0.9807	0.9869	0.9348	-0.009
Mof_C 	C 	0.714	0.0259	0.6756	-0.122
Mof_H 	H 	0.7256	0.0544	0.7024	0.09
Mof_C 	C 	0.9311	0.7066	0.0856	0.106
Mof_C 	C 	0.7592	0.8961	0.6944	0.091
Mof_C 	C 	0.6799	0.9497	0.5983	0.075
Mof_H 	H 	0.6681	0.9234	0.571	-0.002
Mof_C 	C 	0.9073	0.6943	0.1188	0.066
Mof_C 	C 	0.941	0.8671	0.0009	0.047
Mof_C 	C 	0.7088	0.9012	0.6251	-0.116
Mof_H 	H 	0.7164	0.8424	0.6169	0.085
Mof_C 	C 	0.0321	0.5913	0.0203	-0.126
Mof_H 	H 	0.0222	0.6243	0.9942	0.08
Mof_C 	C 	0.8234	0.0489	0.7971	-0.133
Mof_H 	H 	0.8008	0.0771	0.7806	0.083
Mof_C 	C 	0.8098	0.9066	0.7516	0.103
Mof_C 	C 	0.8048	0.674	0.7152	0.053
Mof_C 	C 	0.8504	0.7239	0.1464	0.079
Mof_H 	H 	0.8259	0.753	0.143	-0.012
Mof_C 	C 	0.8671	0.9236	0.8118	-0.124
Mof_H 	H 	0.875	0.8634	0.8061	0.093
Mof_C 	C 	0.8433	0.5456	0.7435	0.062
Mof_H 	H 	0.8659	0.522	0.7621	-0.012
Mof_C 	C 	0.8886	0.9757	0.8443	0.082
Mof_H 	H 	0.912	0.9507	0.8605	-0.011
Mof_C 	C 	0.0636	0.5353	0.0224	0.077
Mof_H 	H 	0.0753	0.5302	0.9975	-0.004
Mof_C 	C 	0.9687	0.893	0.9771	-0.113
Mof_H 	H 	0.992	0.8589	0.979	0.071
Mof_C 	C 	0.9073	0.9186	0.9967	-0.113
Mof_H 	H 	0.8878	0.902	0.0124	0.078
Mof_C 	C 	0.7862	0.5204	0.6938	0.066
Mof_H 	H 	0.7683	0.4793	0.6769	-0.008
Mof_C 	C 	0.7966	0.7738	0.716	0.109
Mof_C 	C 	0.9196	0.6404	0.1551	-0.12
Mof_H 	H 	0.9438	0.6094	0.1589	0.085
Mof_C 	C 	0.9468	0.7862	0.0297	0.092
Mof_C 	C 	0.8379	0.6381	0.7417	-0.115
Mof_H 	H 	0.8566	0.6776	0.7584	0.082
Mof_C 	C 	0.9023	0.9931	0.9698	0.065
Mof_H 	H 	0.8792	0.0279	0.9672	-0.011
Mof_C 	C 	0.7789	0.6129	0.6905	-0.114
Mof_H 	H 	0.7563	0.6351	0.6714	0.078
Mof_C 	C 	0.8967	0.6314	0.1857	0.073
Mof_H 	H 	0.9059	0.5951	0.2109	-0.016
Mof_C 	C 	0.8718	0.7382	0.1149	-0.121
Mof_H 	H 	0.8625	0.7774	0.0908	0.087
Mof_C 	C 	0.0622	0.4978	0.0931	0.078
Mof_H 	H 	0.073	0.4653	0.119	-0.016
Mof_C 	C 	0.0307	0.5522	0.0936	-0.124
Mof_H 	H 	0.02	0.5575	0.1192	0.087
Mof_I 	I 	0.9736	0.1511	0.8796	-0.021
Mof_I 	I 	0.73192	0.24564	0.29117	-0.38
Mof_I 	I 	0.62059	0.25813	0.05969	-0.38
Mof_I 	I 	0.6255	0.16405	0.19591	-0.406
Mof_I 	I 	0.39154	0.24157	0.89746	-0.38
Mof_I 	I 	0.52403	0.33836	0.1315	-0.319
Mof_I 	I 	0.35152	0.09748	0.00816	-0.371
Mof_Zn	Zn	0.58326	0.37164	0.09653	1.163
Mof_Zn	Zn	0.37414	0.09916	0.93616	1.164
Mof_Zn	Zn	0.67026	0.15187	0.27087	1.164
Mof_N 	N 	0.4214	0.0124	0.9415	-0.273
Mof_N 	N 	0.6215	0.4413	0.1456	-0.272
Mof_N 	N 	0.8323	0.469	0.3916	-0.271
Mof_N 	N 	0.6819	0.0133	0.2797	-0.269
Mof_N 	N 	0.6381	0.8283	0.8185	-0.277
Mof_N 	N 	0.7208	0.5522	0.2736	-0.14
Mof_N 	N 	0.7334	0.6926	0.3123	-0.139
Mof_N 	N 	0.5708	0.481	0.0532	-0.268
Mof_N 	N 	0.6803	0.6792	0.2526	-0.137
Mof_N 	N 	0.525	0.7723	0.9745	-0.148
Mof_N 	N 	0.54	0.8535	0.9141	-0.134
Mof_C 	C 	0.8158	0.4312	0.353	0.067
Mof_H 	H 	0.8249	0.3736	0.3453	-0.002
Mof_N 	N 	0.5756	0.7213	0.9407	-0.136
Mof_C 	C 	0.6534	0.4048	0.1686	0.076
Mof_H 	H 	0.6607	0.3451	0.1614	-0.013
Mof_C 	C 	0.4853	0.9002	0.9445	0.053
Mof_C 	C 	0.6666	0.5387	0.2127	0.061
Mof_C 	C 	0.519	0.8383	0.9445	0.094
Mof_C 	C 	0.7734	0.5586	0.3353	0.048
Mof_C 	C 	0.5384	0.5311	0.0491	0.069
Mof_H 	H 	0.5193	0.5131	0.0652	-0.009
Mof_C 	C 	0.786	0.4741	0.3244	-0.122
Mof_H 	H 	0.7744	0.4456	0.2976	0.09
Mof_C 	C 	0.5689	0.7934	0.9144	0.106
Mof_C 	C 	0.7408	0.6039	0.3056	0.091
Mof_C 	C 	0.8201	0.5503	0.4017	0.075
Mof_H 	H 	0.8319	0.5766	0.429	-0.002
Mof_C 	C 	0.5927	0.8057	0.8812	0.066
Mof_C 	C 	0.559	0.6329	0.9991	0.048
Mof_C 	C 	0.7912	0.5988	0.3749	-0.116
Mof_H 	H 	0.7836	0.6576	0.3831	0.085
Mof_C 	C 	0.4679	0.9087	0.9797	-0.126
Mof_H 	H 	0.4778	0.8757	0.0058	0.079
Mof_C 	C 	0.6766	0.4511	0.2029	-0.132
Mof_H 	H 	0.6992	0.4229	0.2194	0.082
Mof_C 	C 	0.6902	0.5934	0.2484	0.103
Mof_C 	C 	0.6952	0.826	0.2848	0.053
Mof_C 	C 	0.6496	0.7761	0.8536	0.079
Mof_H 	H 	0.6741	0.747	0.857	-0.012
Mof_C 	C 	0.6329	0.5764	0.1882	-0.124
Mof_H 	H 	0.625	0.6366	0.1939	0.093
Mof_C 	C 	0.6567	0.9544	0.2565	0.062
Mof_H 	H 	0.6341	0.978	0.2379	-0.012
Mof_C 	C 	0.6114	0.5243	0.1557	0.082
Mof_H 	H 	0.588	0.5493	0.1395	-0.011
Mof_C 	C 	0.4364	0.9647	0.9776	0.077
Mof_H 	H 	0.4247	0.9698	0.0025	-0.005
Mof_C 	C 	0.5313	0.607	0.0229	-0.114
Mof_H 	H 	0.508	0.6411	0.021	0.071
Mof_C 	C 	0.5927	0.5814	0.0033	-0.114
Mof_H 	H 	0.6122	0.598	0.9876	0.078
Mof_C 	C 	0.7138	0.9796	0.3062	0.065
Mof_H 	H 	0.7317	0.0207	0.3231	-0.008
Mof_C 	C 	0.7034	0.7262	0.284	0.109
Mof_C 	C 	0.5804	0.8596	0.8449	-0.12
Mof_H 	H 	0.5562	0.8906	0.8411	0.085
Mof_C 	C 	0.5532	0.7138	0.9703	0.092
Mof_C 	C 	0.6621	0.8619	0.2583	-0.114
Mof_H 	H 	0.6434	0.8224	0.2416	0.081
Mof_C 	C 	0.5977	0.5069	0.0302	0.065
Mof_H 	H 	0.6208	0.4721	0.0328	-0.011
Mof_C 	C 	0.7211	0.8871	0.3095	-0.114
Mof_H 	H 	0.7437	0.8649	0.3286	0.077
Mof_C 	C 	0.6033	0.8686	0.8143	0.073
Mof_H 	H 	0.5941	0.9049	0.7891	-0.016
Mof_C 	C 	0.6282	0.7618	0.8851	-0.121
Mof_H 	H 	0.6375	0.7226	0.9092	0.087
Mof_C 	C 	0.4378	0.0022	0.9069	0.078
Mof_H 	H 	0.427	0.0347	0.881	-0.016
Mof_C 	C 	0.4693	0.9478	0.9064	-0.124
Mof_H 	H 	0.48	0.9425	0.8808	0.086
Mof_I 	I 	0.5264	0.3489	0.1204	-0.021
Mof_I 	I 	0.23192	0.74564	0.29117	-0.38
Mof_I 	I 	0.12059	0.75813	0.05969	-0.38
Mof_I 	I 	0.1255	0.66405	0.19591	-0.406
Mof_I 	I 	0.89154	0.74157	0.89746	-0.38
Mof_I 	I 	0.02403	0.83836	0.1315	-0.319
Mof_I 	I 	0.85152	0.59748	0.00816	-0.371
Mof_Zn	Zn	0.08326	0.87164	0.09653	1.163
Mof_Zn	Zn	0.87414	0.59916	0.93616	1.165
Mof_Zn	Zn	0.17026	0.65187	0.27087	1.164
Mof_N 	N 	0.9214	0.5124	0.9415	-0.273
Mof_N 	N 	0.1215	0.9413	0.1456	-0.272
Mof_N 	N 	0.3323	0.969	0.3916	-0.271
Mof_N 	N 	0.1819	0.5133	0.2797	-0.269
Mof_N 	N 	0.1381	0.3283	0.8185	-0.277
Mof_N 	N 	0.2208	0.0522	0.2736	-0.14
Mof_N 	N 	0.2334	0.1926	0.3123	-0.139
Mof_N 	N 	0.0708	0.981	0.0532	-0.269
Mof_N 	N 	0.1803	0.1792	0.2526	-0.137
Mof_N 	N 	0.025	0.2723	0.9745	-0.148
Mof_N 	N 	0.04	0.3535	0.9141	-0.134
Mof_C 	C 	0.3158	0.9312	0.353	0.067
Mof_H 	H 	0.3249	0.8736	0.3453	-0.002
Mof_N 	N 	0.0756	0.2213	0.9407	-0.136
Mof_C 	C 	0.1534	0.9048	0.1686	0.076
Mof_H 	H 	0.1607	0.8451	0.1614	-0.013
Mof_C 	C 	0.9853	0.4002	0.9445	0.053
Mof_C 	C 	0.1666	0.0387	0.2127	0.061
Mof_C 	C 	0.019	0.3383	0.9445	0.094
Mof_C 	C 	0.2734	0.0586	0.3353	0.048
Mof_C 	C 	0.0384	0.0311	0.0491	0.069
Mof_H 	H 	0.0193	0.0131	0.0652	-0.009
Mof_C 	C 	0.286	0.9741	0.3244	-0.122
Mof_H 	H 	0.2744	0.9456	0.2976	0.09
Mof_C 	C 	0.0689	0.2934	0.9144	0.106
Mof_C 	C 	0.2408	0.1039	0.3056	0.091
Mof_C 	C 	0.3201	0.0503	0.4017	0.075
Mof_H 	H 	0.3319	0.0766	0.429	-0.002
Mof_C 	C 	0.0927	0.3057	0.8812	0.066
Mof_C 	C 	0.059	0.1329	0.9991	0.047
Mof_C 	C 	0.2912	0.0988	0.3749	-0.116
Mof_H 	H 	0.2836	0.1576	0.3831	0.085
Mof_C 	C 	0.9679	0.4087	0.9797	-0.126
Mof_H 	H 	0.9778	0.3757	0.0058	0.08
Mof_C 	C 	0.1766	0.9511	0.2029	-0.133
Mof_H 	H 	0.1992	0.9229	0.2194	0.083
Mof_C 	C 	0.1902	0.0934	0.2484	0.103
Mof_C 	C 	0.1952	0.326	0.2848	0.053
Mof_C 	C 	0.1496	0.2761	0.8536	0.079
Mof_H 	H 	0.1741	0.247	0.857	-0.012
Mof_C 	C 	0.1329	0.0764	0.1882	-0.124
Mof_H 	H 	0.125	0.1366	0.1939	0.093
Mof_C 	C 	0.1567	0.4544	0.2565	0.062
Mof_H 	H 	0.1341	0.478	0.2379	-0.012
Mof_C 	C 	0.1114	0.0243	0.1557	0.082
Mof_H 	H 	0.088	0.0493	0.1395	-0.011
Mof_C 	C 	0.9364	0.4647	0.9776	0.077
Mof_H 	H 	0.9247	0.4698	0.0025	-0.004
Mof_C 	C 	0.0313	0.107	0.0229	-0.113
Mof_H 	H 	0.008	0.1411	0.021	0.071
Mof_C 	C 	0.0927	0.0814	0.0033	-0.113
Mof_H 	H 	0.1122	0.098	0.9876	0.078
Mof_C 	C 	0.2138	0.4796	0.3062	0.066
Mof_H 	H 	0.2317	0.5207	0.3231	-0.008
Mof_C 	C 	0.2034	0.2262	0.284	0.109
Mof_C 	C 	0.0804	0.3596	0.8449	-0.12
Mof_H 	H 	0.0562	0.3906	0.8411	0.085
Mof_C 	C 	0.0532	0.2138	0.9703	0.092
Mof_C 	C 	0.1621	0.3619	0.2583	-0.115
Mof_H 	H 	0.1434	0.3224	0.2416	0.082
Mof_C 	C 	0.0977	0.0069	0.0302	0.065
Mof_H 	H 	0.1208	0.9721	0.0328	-0.011
Mof_C 	C 	0.2211	0.3871	0.3095	-0.114
Mof_H 	H 	0.2437	0.3649	0.3286	0.078
Mof_C 	C 	0.1033	0.3686	0.8143	0.073
Mof_H 	H 	0.0941	0.4049	0.7891	-0.016
Mof_C 	C 	0.1282	0.2618	0.8851	-0.121
Mof_H 	H 	0.1375	0.2226	0.9092	0.087
Mof_C 	C 	0.9378	0.5022	0.9069	0.078
Mof_H 	H 	0.927	0.5347	0.881	-0.016
Mof_C 	C 	0.9693	0.4478	0.9064	-0.124
Mof_H 	H 	0.98	0.4425	0.8808	0.087
Mof_I 	I 	0.0264	0.8489	0.1204	-0.021
Mof_I 	I 	0.73192	0.75436	0.79117	-0.38
Mof_I 	I 	0.62059	0.74187	0.55969	-0.38
Mof_I 	I 	0.6255	0.83595	0.69591	-0.406
Mof_I 	I 	0.39154	0.75843	0.39746	-0.38
Mof_I 	I 	0.52403	0.66164	0.6315	-0.319
Mof_I 	I 	0.35152	0.90252	0.50816	-0.371
Mof_Zn	Zn	0.58326	0.62836	0.59653	1.163
Mof_Zn	Zn	0.37414	0.90084	0.43616	1.165
Mof_Zn	Zn	0.67026	0.84813	0.77087	1.164
Mof_N 	N 	0.4214	0.9876	0.4415	-0.273
Mof_N 	N 	0.6215	0.5587	0.6456	-0.272
Mof_N 	N 	0.8323	0.531	0.8916	-0.271
Mof_N 	N 	0.6819	0.9867	0.7797	-0.269
Mof_N 	N 	0.6381	0.1717	0.3185	-0.277
Mof_N 	N 	0.7208	0.4478	0.7736	-0.14
Mof_N 	N 	0.7334	0.3074	0.8123	-0.139
Mof_N 	N 	0.5708	0.519	0.5532	-0.268
Mof_N 	N 	0.6803	0.3208	0.7526	-0.137
Mof_N 	N 	0.525	0.2277	0.4745	-0.148
Mof_N 	N 	0.54	0.1465	0.4141	-0.134
Mof_C 	C 	0.8158	0.5688	0.853	0.067
Mof_H 	H 	0.8249	0.6264	0.8453	-0.002
Mof_N 	N 	0.5756	0.2787	0.4407	-0.136
Mof_C 	C 	0.6534	0.5952	0.6686	0.076
Mof_H 	H 	0.6607	0.6549	0.6614	-0.013
Mof_C 	C 	0.4853	0.0998	0.4445	0.053
Mof_C 	C 	0.6666	0.4613	0.7127	0.061
Mof_C 	C 	0.519	0.1617	0.4445	0.094
Mof_C 	C 	0.7734	0.4414	0.8353	0.048
Mof_C 	C 	0.5384	0.4689	0.5491	0.069
Mof_H 	H 	0.5193	0.4869	0.5652	-0.009
Mof_C 	C 	0.786	0.5259	0.8244	-0.122
Mof_H 	H 	0.7744	0.5544	0.7976	0.09
Mof_C 	C 	0.5689	0.2066	0.4144	0.106
Mof_C 	C 	0.7408	0.3961	0.8056	0.091
Mof_C 	C 	0.8201	0.4497	0.9017	0.075
Mof_H 	H 	0.8319	0.4234	0.929	-0.002
Mof_C 	C 	0.5927	0.1943	0.3812	0.066
Mof_C 	C 	0.559	0.3671	0.4991	0.048
Mof_C 	C 	0.7912	0.4012	0.8749	-0.116
Mof_H 	H 	0.7836	0.3424	0.8831	0.085
Mof_C 	C 	0.4679	0.0913	0.4797	-0.126
Mof_H 	H 	0.4778	0.1243	0.5058	0.08
Mof_C 	C 	0.6766	0.5489	0.7029	-0.132
Mof_H 	H 	0.6992	0.5771	0.7194	0.082
Mof_C 	C 	0.6902	0.4066	0.7484	0.103
Mof_C 	C 	0.6952	0.174	0.7848	0.053
Mof_C 	C 	0.6496	0.2239	0.3536	0.079
Mof_H 	H 	0.6741	0.253	0.357	-0.012
Mof_C 	C 	0.6329	0.4236	0.6882	-0.124
Mof_H 	H 	0.625	0.3634	0.6939	0.093
Mof_C 	C 	0.6567	0.0456	0.7565	0.062
Mof_H 	H 	0.6341	0.022	0.7379	-0.012
Mof_C 	C 	0.6114	0.4757	0.6557	0.082
Mof_H 	H 	0.588	0.4507	0.6395	-0.011
Mof_C 	C 	0.4364	0.0353	0.4776	0.077
Mof_H 	H 	0.4247	0.0302	0.5025	-0.004
Mof_C 	C 	0.5313	0.393	0.5229	-0.114
Mof_H 	H 	0.508	0.3589	0.521	0.071
Mof_C 	C 	0.5927	0.4186	0.5033	-0.113
Mof_H 	H 	0.6122	0.402	0.4876	0.078
Mof_C 	C 	0.7138	0.0204	0.8062	0.065
Mof_H 	H 	0.7317	0.9793	0.8231	-0.008
Mof_C 	C 	0.7034	0.2738	0.784	0.109
Mof_C 	C 	0.5804	0.1404	0.3449	-0.12
Mof_H 	H 	0.5562	0.1094	0.3411	0.085
Mof_C 	C 	0.5532	0.2862	0.4703	0.092
Mof_C 	C 	0.6621	0.1381	0.7583	-0.114
Mof_H 	H 	0.6434	0.1776	0.7416	0.081
Mof_C 	C 	0.5977	0.4931	0.5302	0.065
Mof_H 	H 	0.6208	0.5279	0.5328	-0.011
Mof_C 	C 	0.7211	0.1129	0.8095	-0.114
Mof_H 	H 	0.7437	0.1351	0.8286	0.077
Mof_C 	C 	0.6033	0.1314	0.3143	0.073
Mof_H 	H 	0.5941	0.0951	0.2891	-0.016
Mof_C 	C 	0.6282	0.2382	0.3851	-0.121
Mof_H 	H 	0.6375	0.2774	0.4092	0.087
Mof_C 	C 	0.4378	0.9978	0.4069	0.078
Mof_H 	H 	0.427	0.9653	0.381	-0.016
Mof_C 	C 	0.4693	0.0522	0.4064	-0.124
Mof_H 	H 	0.48	0.0575	0.3808	0.087
Mof_I 	I 	0.5264	0.6511	0.6204	-0.021
Mof_I 	I 	0.23192	0.25436	0.79117	-0.38
Mof_I 	I 	0.12059	0.24187	0.55969	-0.38
Mof_I 	I 	0.1255	0.33595	0.69591	-0.406
Mof_I 	I 	0.89154	0.25843	0.39746	-0.38
Mof_I 	I 	0.02403	0.16164	0.6315	-0.319
Mof_I 	I 	0.85152	0.40252	0.50816	-0.371
Mof_Zn	Zn	0.08326	0.12836	0.59653	1.163
Mof_Zn	Zn	0.87414	0.40084	0.43616	1.165
Mof_Zn	Zn	0.17026	0.34813	0.77087	1.164
Mof_N 	N 	0.9214	0.4876	0.4415	-0.273
Mof_N 	N 	0.1215	0.0587	0.6456	-0.272
Mof_N 	N 	0.3323	0.031	0.8916	-0.271
Mof_N 	N 	0.1819	0.4867	0.7797	-0.269
Mof_N 	N 	0.1381	0.6717	0.3185	-0.277
Mof_N 	N 	0.2208	0.9478	0.7736	-0.14
Mof_N 	N 	0.2334	0.8074	0.8123	-0.139
Mof_N 	N 	0.0708	0.019	0.5532	-0.268
Mof_N 	N 	0.1803	0.8208	0.7526	-0.137
Mof_N 	N 	0.025	0.7277	0.4745	-0.148
Mof_N 	N 	0.04	0.6465	0.4141	-0.134
Mof_C 	C 	0.3158	0.0688	0.853	0.067
Mof_H 	H 	0.3249	0.1264	0.8453	-0.002
Mof_N 	N 	0.0756	0.7787	0.4407	-0.136
Mof_C 	C 	0.1534	0.0952	0.6686	0.076
Mof_H 	H 	0.1607	0.1549	0.6614	-0.013
Mof_C 	C 	0.9853	0.5998	0.4445	0.053
Mof_C 	C 	0.1666	0.9613	0.7127	0.061
Mof_C 	C 	0.019	0.6617	0.4445	0.094
Mof_C 	C 	0.2734	0.9414	0.8353	0.048
Mof_C 	C 	0.0384	0.9689	0.5491	0.069
Mof_H 	H 	0.0193	0.9869	0.5652	-0.009
Mof_C 	C 	0.286	0.0259	0.8244	-0.123
Mof_H 	H 	0.2744	0.0544	0.7976	0.09
Mof_C 	C 	0.0689	0.7066	0.4144	0.106
Mof_C 	C 	0.2408	0.8961	0.8056	0.09
Mof_C 	C 	0.3201	0.9497	0.9017	0.076
Mof_H 	H 	0.3319	0.9234	0.929	-0.003
Mof_C 	C 	0.0927	0.6943	0.3812	0.066
Mof_C 	C 	0.059	0.8671	0.4991	0.048
Mof_C 	C 	0.2912	0.9012	0.8749	-0.116
Mof_H 	H 	0.2836	0.8424	0.8831	0.085
Mof_C 	C 	0.9679	0.5913	0.4797	-0.126
Mof_H 	H 	0.9778	0.6243	0.5058	0.08
Mof_C 	C 	0.1766	0.0489	0.7029	-0.133
Mof_H 	H 	0.1992	0.0771	0.7194	0.083
Mof_C 	C 	0.1902	0.9066	0.7484	0.103
Mof_C 	C 	0.1952	0.674	0.7848	0.053
Mof_C 	C 	0.1496	0.7239	0.3536	0.079
Mof_H 	H 	0.1741	0.753	0.357	-0.012
Mof_C 	C 	0.1329	0.9236	0.6882	-0.124
Mof_H 	H 	0.125	0.8634	0.6939	0.093
Mof_C 	C 	0.1567	0.5456	0.7565	0.062
Mof_H 	H 	0.1341	0.522	0.7379	-0.012
Mof_C 	C 	0.1114	0.9757	0.6557	0.082
Mof_H 	H 	0.088	0.9507	0.6395	-0.011
Mof_C 	C 	0.9364	0.5353	0.4776	0.077
Mof_H 	H 	0.9247	0.5302	0.5025	-0.004
Mof_C 	C 	0.0313	0.893	0.5229	-0.114
Mof_H 	H 	0.008	0.8589	0.521	0.071
Mof_C 	C 	0.0927	0.9186	0.5033	-0.113
Mof_H 	H 	0.1122	0.902	0.4876	0.078
Mof_C 	C 	0.2138	0.5204	0.8062	0.066
Mof_H 	H 	0.2317	0.4793	0.8231	-0.008
Mof_C 	C 	0.2034	0.7738	0.784	0.109
Mof_C 	C 	0.0804	0.6404	0.3449	-0.12
Mof_H 	H 	0.0562	0.6094	0.3411	0.085
Mof_C 	C 	0.0532	0.7862	0.4703	0.092
Mof_C 	C 	0.1621	0.6381	0.7583	-0.115
Mof_H 	H 	0.1434	0.6776	0.7416	0.082
Mof_C 	C 	0.0977	0.9931	0.5302	0.065
Mof_H 	H 	0.1208	0.0279	0.5328	-0.011
Mof_C 	C 	0.2211	0.6129	0.8095	-0.114
Mof_H 	H 	0.2437	0.6351	0.8286	0.078
Mof_C 	C 	0.1033	0.6314	0.3143	0.073
Mof_H 	H 	0.0941	0.5951	0.2891	-0.016
Mof_C 	C 	0.1282	0.7382	0.3851	-0.121
Mof_H 	H 	0.1375	0.7774	0.4092	0.087
Mof_C 	C 	0.9378	0.4978	0.4069	0.078
Mof_H 	H 	0.927	0.4653	0.381	-0.016
Mof_C 	C 	0.9693	0.5522	0.4064	-0.124
Mof_H 	H 	0.98	0.5575	0.3808	0.087
Mof_I 	I 	0.0264	0.1511	0.6204	-0.021
_end
