# CIF file generated by openbabel 3.1.0, see https://openbabel.org
data_I
_chemical_name_common 'ECUDIR_charged'
_cell_length_a 9.5221
_cell_length_b 12.9065
_cell_length_c 12.9065
_cell_angle_alpha 92.0207
_cell_angle_beta 90
_cell_angle_gamma 90
_space_group_name_H-M_alt 'P 1'
_space_group_name_Hall 'P 1'
loop_
    _symmetry_equiv_pos_as_xyz
    x,y,z
loop_
    _atom_site_label
    _atom_site_type_symbol
    _atom_site_fract_x
    _atom_site_fract_y
    _atom_site_fract_z
    _atom_site_occupancy
    U1       U        0.12136    0.40094    0.81926    1.000
    U2       U        0.62136    0.59906    0.18074    1.000
    U3       U        0.62136    0.18074    0.59906    1.000
    U4       U        0.12136    0.81926    0.40094    1.000
    U5       U        0.29507    0.29304    0.29304    1.000
    U6       U        0.79507    0.70696    0.70696    1.000
    P1       P        0.24880    0.57158    0.27032    1.000
    P2       P        0.31600    0.46355    0.06979    1.000
    P3       P        0.74880    0.42842    0.72968    1.000
    P4       P        0.81600    0.53645    0.93021    1.000
    P5       P        0.74880    0.72968    0.42842    1.000
    P6       P        0.81600    0.93021    0.53645    1.000
    P7       P        0.24880    0.27032    0.57158    1.000
    P8       P        0.31600    0.06979    0.46355    1.000
    H1       H        0.15000    0.71300    0.12700    1.000
    H2       H        0.30000    0.68400    0.07400    1.000
    H3       H        0.15000    0.65600    0.01800    1.000
    H4       H        0.03110    0.50660    0.07300    1.000
    H5       H        0.65000    0.28700    0.87300    1.000
    H6       H        0.80000    0.31600    0.92600    1.000
    H7       H        0.65000    0.34400    0.98200    1.000
    H8       H        0.53110    0.49340    0.92700    1.000
    H9       H        0.65000    0.87300    0.28700    1.000
    H10      H        0.80000    0.92600    0.31600    1.000
    H11      H        0.65000    0.98200    0.34400    1.000
    H12      H        0.53110    0.92700    0.49340    1.000
    H13      H        0.15000    0.12700    0.71300    1.000
    H14      H        0.30000    0.07400    0.68400    1.000
    H15      H        0.15000    0.01800    0.65600    1.000
    H16      H        0.03110    0.07300    0.50660    1.000
    C1       C        0.19820    0.55850    0.13450    1.000
    C2       C        0.19980    0.66210    0.08350    1.000
    C3       C        0.69820    0.44150    0.86550    1.000
    C4       C        0.69980    0.33790    0.91650    1.000
    C5       C        0.69820    0.86550    0.44150    1.000
    C6       C        0.69980    0.91650    0.33790    1.000
    C7       C        0.19820    0.13450    0.55850    1.000
    C8       C        0.19980    0.08350    0.66210    1.000
    O1       O        0.16600    0.52060    0.76560    1.000
    O2       O        0.25710    0.44390    0.96310    1.000
    O3       O        0.15740    0.65550    0.32130    1.000
    O4       O        0.22870    0.46790    0.31930    1.000
    O5       O        0.07910    0.27920    0.87020    1.000
    O6       O        0.36820    0.34020    0.80420    1.000
    O7       O        0.46070    0.51540    0.06440    1.000
    O8       O        0.32020    0.36570    0.13370    1.000
    O9       O        0.40160    0.60360    0.26900    1.000
    O10      O        0.05760    0.51490    0.13330    1.000
    O11      O        0.66600    0.47940    0.23440    1.000
    O12      O        0.75710    0.55610    0.03690    1.000
    O13      O        0.65740    0.34450    0.67870    1.000
    O14      O        0.72870    0.53210    0.68070    1.000
    O15      O        0.57910    0.72080    0.12980    1.000
    O16      O        0.86820    0.65980    0.19580    1.000
    O17      O        0.96070    0.48460    0.93560    1.000
    O18      O        0.82020    0.63430    0.86630    1.000
    O19      O        0.90160    0.39640    0.73100    1.000
    O20      O        0.55760    0.48510    0.86670    1.000
    O21      O        0.66600    0.23440    0.47940    1.000
    O22      O        0.75710    0.03690    0.55610    1.000
    O23      O        0.65740    0.67870    0.34450    1.000
    O24      O        0.72870    0.68070    0.53210    1.000
    O25      O        0.57910    0.12980    0.72080    1.000
    O26      O        0.86820    0.19580    0.65980    1.000
    O27      O        0.96070    0.93560    0.48460    1.000
    O28      O        0.82020    0.86630    0.63430    1.000
    O29      O        0.90160    0.73100    0.39640    1.000
    O30      O        0.55760    0.86670    0.48510    1.000
    O31      O        0.16600    0.76560    0.52060    1.000
    O32      O        0.25710    0.96310    0.44390    1.000
    O33      O        0.15740    0.32130    0.65550    1.000
    O34      O        0.22870    0.31930    0.46790    1.000
    O35      O        0.07910    0.87020    0.27920    1.000
    O36      O        0.36820    0.80420    0.34020    1.000
    O37      O        0.46070    0.06440    0.51540    1.000
    O38      O        0.32020    0.13370    0.36570    1.000
    O39      O        0.40160    0.26900    0.60360    1.000
    O40      O        0.05760    0.13330    0.51490    1.000
    O41      O        0.12300    0.25930    0.25930    1.000
    O42      O        0.38500    0.16230    0.16230    1.000
    O43      O        0.47090    0.32510    0.32510    1.000
    O44      O        0.62300    0.74070    0.74070    1.000
    O45      O        0.88500    0.83770    0.83770    1.000
    O46      O        0.97090    0.67490    0.67490    1.000
