data_functionalizedCrystal
_audit_creation_method	'EQeq! by Chris Wilmer'
_symmetry_space_group_name_H-M	'P1'
_symmetry_Int_Tables_number	1
_symmetry_cell_setting	triclinic
loop_
_symmetry_equiv_pos_as_xyz
  x,y,z
_cell_length_a	14.2458
_cell_length_b	25.8856
_cell_length_c	27.836
_cell_angle_alpha	90
_cell_angle_beta	97.447
_cell_angle_gamma	90
loop_
_atom_site_label
_atom_site_type_symbol
_atom_site_fract_x
_atom_site_fract_y
_atom_site_fract_z
_atom_site_charge
Mof_Gd	Gd	0.52287	0.58429	0.78107	1.266
Mof_Ag	Ag	0.0745	0.51991	0.92629	0.471
Mof_Ag	Ag	0.91733	0.615	0.46665	0.519
Mof_Ag	Ag	0.01542	0.26006	0.81604	0.493
Mof_N 	N 	0.7096	0.5861	0.7853	-0.12
Mof_N 	N 	0.6135	0.5139	0.8288	-0.225
Mof_N 	N 	0.7176	0.4499	0.8245	-0.134
Mof_N 	N 	0.0156	0.4498	0.893	-0.19
Mof_N 	N 	0.5893	0.5762	0.7023	-0.227
Mof_N 	N 	0.6812	0.6161	0.6545	-0.135
Mof_N 	N 	0.9041	0.6018	0.5474	-0.177
Mof_N 	N 	0.6075	0.6626	0.8196	-0.223
Mof_N 	N 	0.7117	0.6818	0.8847	-0.132
Mof_N 	N 	0.9272	0.8064	0.9278	-0.175
Mof_N 	N 	0.3352	0.5841	0.7744	-0.118
Mof_N 	N 	0.4376	0.5007	0.7556	-0.222
Mof_N 	N 	0.3495	0.4415	0.7865	-0.135
Mof_N 	N 	0.0867	0.323	0.7802	-0.186
Mof_N 	N 	0.436	0.6492	0.725	-0.222
Mof_N 	N 	0.3355	0.6486	0.6558	-0.133
Mof_N 	N 	0.0497	0.7143	0.6321	-0.186
Mof_N 	N 	0.4506	0.6015	0.8571	-0.224
Mof_N 	N 	0.3558	0.6574	0.8887	-0.133
Mof_N 	N 	0.1185	0.5982	0.9452	-0.191
Mof_N 	N 	0.0569	0.5638	0.4634	-0.245
Mof_C 	C 	0.7449	0.5331	0.7814	-0.158
Mof_H 	H 	0.8137	0.5317	0.7926	0.066
Mof_H 	H 	0.7343	0.5214	0.7472	0.064
Mof_C 	C 	0.6928	0.4987	0.8121	0.12
Mof_C 	C 	0.5865	0.4717	0.8541	0.055
Mof_C 	C 	0.5069	0.4652	0.8793	-0.089
Mof_H 	H 	0.4632	0.4924	0.8821	0.046
Mof_C 	C 	0.4964	0.4166	0.9001	-0.026
Mof_H 	H 	0.4441	0.4107	0.9173	0.029
Mof_C 	C 	0.5602	0.377	0.8961	-0.028
Mof_H 	H 	0.5498	0.3447	0.9108	0.035
Mof_C 	C 	0.6376	0.3821	0.8719	-0.079
Mof_H 	H 	0.6804	0.3544	0.8692	0.057
Mof_C 	C 	0.6496	0.4313	0.8512	0.047
Mof_C 	C 	0.794	0.4196	0.8069	-0.079
Mof_H 	H 	0.8133	0.4371	0.7781	0.045
Mof_H 	H 	0.7687	0.3852	0.7964	0.048
Mof_C 	C 	0.881	0.4122	0.844	0.011
Mof_C 	C 	0.9096	0.3653	0.8604	-0.051
Mof_H 	H 	0.8736	0.3356	0.8496	0.022
Mof_C 	C 	0.9919	0.3598	0.8933	-0.083
Mof_H 	H 	0.0114	0.3266	0.9054	0.031
Mof_C 	C 	0.0444	0.4028	0.9077	0.037
Mof_H 	H 	0.1022	0.3989	0.9286	-0.012
Mof_C 	C 	0.9361	0.4544	0.8617	-0.002
Mof_H 	H 	0.9164	0.488	0.851	0.005
Mof_C 	C 	0.7348	0.6173	0.7443	-0.159
Mof_H 	H 	0.801	0.6102	0.7391	0.066
Mof_H 	H 	0.7289	0.6545	0.7514	0.062
Mof_C 	C 	0.668	0.6028	0.6997	0.123
Mof_C 	C 	0.5482	0.5713	0.6546	0.059
Mof_C 	C 	0.4646	0.5467	0.6345	-0.097
Mof_H 	H 	0.4266	0.5282	0.6543	0.048
Mof_C 	C 	0.4392	0.5503	0.5849	-0.021
Mof_H 	H 	0.3818	0.5349	0.5706	0.018
Mof_C 	C 	0.4961	0.5761	0.5557	-0.039
Mof_H 	H 	0.4769	0.5771	0.5218	0.028
Mof_C 	C 	0.5788	0.6002	0.574	-0.077
Mof_H 	H 	0.6167	0.6183	0.5538	0.047
Mof_C 	C 	0.604	0.5963	0.6243	0.043
Mof_C 	C 	0.7542	0.6507	0.6393	-0.066
Mof_H 	H 	0.7838	0.6704	0.6678	0.029
Mof_H 	H 	0.7236	0.6758	0.6153	0.042
Mof_C 	C 	0.8301	0.6218	0.6173	-0.004
Mof_C 	C 	0.895	0.5903	0.6449	-0.038
Mof_H 	H 	0.8911	0.5855	0.6785	0.029
Mof_C 	C 	0.9647	0.5661	0.6238	-0.087
Mof_H 	H 	0.01	0.5449	0.6425	0.044
Mof_C 	C 	0.9678	0.5731	0.5749	0.043
Mof_H 	H 	0.017	0.557	0.5604	-0.003
Mof_C 	C 	0.8378	0.6259	0.5684	0.003
Mof_H 	H 	0.7934	0.6469	0.5489	0.004
Mof_C 	C 	0.7524	0.6095	0.8318	-0.161
Mof_H 	H 	0.7597	0.5829	0.8576	0.061
Mof_H 	H 	0.8159	0.6234	0.8283	0.066
Mof_C 	C 	0.6905	0.6513	0.8449	0.121
Mof_C 	C 	0.5709	0.7033	0.8436	0.057
Mof_C 	C 	0.4873	0.7315	0.8327	-0.092
Mof_H 	H 	0.445	0.7252	0.804	0.048
Mof_C 	C 	0.4689	0.7691	0.8656	-0.02
Mof_H 	H 	0.4135	0.7897	0.8588	0.027
Mof_C 	C 	0.5293	0.7776	0.9083	-0.035
Mof_H 	H 	0.5115	0.8022	0.9308	0.031
Mof_C 	C 	0.615	0.7515	0.9194	-0.078
Mof_H 	H 	0.6568	0.758	0.9483	0.048
Mof_C 	C 	0.6347	0.7154	0.8855	0.047
Mof_C 	C 	0.7948	0.6793	0.9207	-0.068
Mof_H 	H 	0.8241	0.6447	0.9196	0.036
Mof_H 	H 	0.7755	0.684	0.9533	0.044
Mof_C 	C 	0.8677	0.7203	0.9124	0.005
Mof_C 	C 	0.9381	0.7112	0.8826	-0.042
Mof_H 	H 	0.9428	0.6788	0.8669	0.029
Mof_C 	C 	0.0018	0.7518	0.8766	-0.077
Mof_H 	H 	0.0504	0.7468	0.8567	0.04
Mof_C 	C 	0.9946	0.7966	0.8983	0.037
Mof_H 	H 	0.0382	0.8232	0.8933	-0.002
Mof_C 	C 	0.867	0.7685	0.9345	0.006
Mof_H 	H 	0.8208	0.7748	0.9556	0.007
Mof_C 	C 	0.3021	0.5342	0.7921	-0.159
Mof_H 	H 	0.2356	0.528	0.7781	0.067
Mof_H 	H 	0.305	0.5351	0.8279	0.06
Mof_C 	C 	0.3641	0.4915	0.7775	0.126
Mof_C 	C 	0.4752	0.4512	0.7477	0.048
Mof_C 	C 	0.5543	0.4371	0.7251	-0.089
Mof_H 	H 	0.5907	0.4619	0.7105	0.047
Mof_C 	C 	0.5758	0.3852	0.7255	-0.022
Mof_H 	H 	0.6274	0.374	0.7097	0.027
Mof_C 	C 	0.5252	0.3487	0.7479	-0.033
Mof_H 	H 	0.545	0.3137	0.7483	0.037
Mof_C 	C 	0.445	0.3622	0.7701	-0.077
Mof_H 	H 	0.4091	0.3374	0.7851	0.057
Mof_C 	C 	0.4225	0.4147	0.7685	0.05
Mof_C 	C 	0.2816	0.4191	0.8163	-0.072
Mof_H 	H 	0.2583	0.4469	0.8362	0.036
Mof_H 	H 	0.3151	0.3935	0.8387	0.047
Mof_C 	C 	0.1976	0.3931	0.7872	0.006
Mof_C 	C 	0.1538	0.4119	0.7447	-0.038
Mof_H 	H 	0.1775	0.4422	0.7312	0.036
Mof_C 	C 	0.073	0.3867	0.7201	-0.094
Mof_H 	H 	0.0417	0.3993	0.6902	0.045
Mof_C 	C 	0.0429	0.3437	0.7414	0.061
Mof_H 	H 	0.986	0.3279	0.727	-0.018
Mof_C 	C 	0.1656	0.3471	0.8023	0.001
Mof_H 	H 	0.2003	0.331	0.8297	0.008
Mof_C 	C 	0.297	0.5917	0.7224	-0.168
Mof_H 	H 	0.2983	0.5585	0.7048	0.065
Mof_H 	H 	0.2306	0.6037	0.7197	0.07
Mof_C 	C 	0.355	0.6299	0.7013	0.12
Mof_C 	C 	0.4699	0.6826	0.6911	0.052
Mof_C 	C 	0.5514	0.7128	0.696	-0.092
Mof_H 	H 	0.5917	0.7153	0.7259	0.048
Mof_C 	C 	0.571	0.7389	0.6549	-0.022
Mof_H 	H 	0.6264	0.7597	0.6567	0.025
Mof_C 	C 	0.5116	0.7356	0.6112	-0.034
Mof_H 	H 	0.5293	0.7531	0.5838	0.032
Mof_C 	C 	0.4264	0.7074	0.6061	-0.081
Mof_H 	H 	0.3847	0.7059	0.5766	0.055
Mof_C 	C 	0.4084	0.6819	0.6479	0.05
Mof_C 	C 	0.2615	0.6288	0.6185	-0.077
Mof_H 	H 	0.2389	0.5952	0.6295	0.043
Mof_H 	H 	0.2901	0.6224	0.5884	0.049
Mof_C 	C 	0.1769	0.6645	0.6067	0.01
Mof_C 	C 	0.1412	0.672	0.5586	-0.045
Mof_H 	H 	0.1716	0.6574	0.5333	0.031
Mof_C 	C 	0.0598	0.7014	0.5483	-0.085
Mof_H 	H 	0.0343	0.7079	0.5156	0.042
Mof_C 	C 	0.0173	0.7205	0.5845	0.045
Mof_H 	H 	0.9606	0.7397	0.5764	-0.012
Mof_C 	C 	0.1303	0.6859	0.642	0.002
Mof_H 	H 	0.1556	0.6807	0.6749	0.012
Mof_C 	C 	0.305	0.6272	0.8036	-0.158
Mof_H 	H 	0.2389	0.6219	0.81	0.064
Mof_H 	H 	0.3083	0.6603	0.786	0.062
Mof_C 	C 	0.3701	0.6287	0.8504	0.12
Mof_C 	C 	0.4913	0.6135	0.9041	0.055
Mof_C 	C 	0.5751	0.5971	0.9307	-0.092
Mof_H 	H 	0.6143	0.5721	0.9182	0.047
Mof_C 	C 	0.5996	0.6184	0.9763	-0.025
Mof_H 	H 	0.6572	0.6083	0.995	0.023
Mof_C 	C 	0.541	0.6545	0.9952	-0.029
Mof_H 	H 	0.5602	0.6686	0.0265	0.029
Mof_C 	C 	0.4576	0.6702	0.9702	-0.082
Mof_H 	H 	0.4177	0.6942	0.9835	0.057
Mof_C 	C 	0.4335	0.6495	0.9243	0.05
Mof_C 	C 	0.278	0.693	0.894	-0.075
Mof_H 	H 	0.2424	0.7001	0.8617	0.041
Mof_H 	H 	0.3041	0.7261	0.9076	0.049
Mof_C 	C 	0.2117	0.6707	0.9268	0.01
Mof_C 	C 	0.1868	0.6964	0.966	-0.041
Mof_H 	H 	0.2095	0.7304	0.9733	0.037
Mof_C 	C 	0.1274	0.6721	0.9954	-0.082
Mof_H 	H 	0.1102	0.6889	0.0233	0.053
Mof_C 	C 	0.0947	0.6234	0.983	0.051
Mof_H 	H 	0.0532	0.6072	0.0025	-0.014
Mof_C 	C 	0.1758	0.622	0.9175	0.004
Mof_H 	H 	0.1923	0.6042	0.89	0.007
Mof_C 	C 	0.1265	0.5422	0.4666	0.229
Mof_C 	C 	0.2154	0.5145	0.4693	-0.62
Mof_H 	H 	0.2181	0.4883	0.4948	0.182
Mof_H 	H 	0.268	0.5388	0.4768	0.191
Mof_H 	H 	0.2202	0.4978	0.4381	0.2
Mof_Gd	Gd	0.47713	0.08429	0.71893	1.267
Mof_Ag	Ag	0.9255	0.01991	0.57371	0.473
Mof_Ag	Ag	0.08267	0.115	0.03335	0.519
Mof_Ag	Ag	0.98458	0.76006	0.68396	0.494
Mof_N 	N 	0.2904	0.0861	0.7147	-0.119
Mof_N 	N 	0.3865	0.0139	0.6712	-0.225
Mof_N 	N 	0.2824	0.9499	0.6755	-0.133
Mof_N 	N 	0.9844	0.9498	0.607	-0.19
Mof_N 	N 	0.4107	0.0762	0.7977	-0.226
Mof_N 	N 	0.3188	0.1161	0.8455	-0.134
Mof_N 	N 	0.0959	0.1018	0.9526	-0.177
Mof_N 	N 	0.3925	0.1626	0.6804	-0.223
Mof_N 	N 	0.2883	0.1818	0.6153	-0.132
Mof_N 	N 	0.0728	0.3064	0.5722	-0.176
Mof_N 	N 	0.6648	0.0841	0.7256	-0.118
Mof_N 	N 	0.5624	0.0007	0.7444	-0.222
Mof_N 	N 	0.6505	0.9415	0.7135	-0.135
Mof_N 	N 	0.9133	0.823	0.7198	-0.186
Mof_N 	N 	0.564	0.1492	0.775	-0.222
Mof_N 	N 	0.6645	0.1486	0.8442	-0.133
Mof_N 	N 	0.9503	0.2143	0.8679	-0.186
Mof_N 	N 	0.5494	0.1015	0.6429	-0.224
Mof_N 	N 	0.6442	0.1574	0.6113	-0.133
Mof_N 	N 	0.8815	0.0982	0.5548	-0.191
Mof_N 	N 	0.9431	0.0638	0.0366	-0.244
Mof_C 	C 	0.2551	0.0331	0.7186	-0.159
Mof_H 	H 	0.1863	0.0317	0.7074	0.066
Mof_H 	H 	0.2657	0.0214	0.7528	0.064
Mof_C 	C 	0.3072	0.9987	0.6879	0.121
Mof_C 	C 	0.4135	0.9717	0.6459	0.055
Mof_C 	C 	0.4931	0.9652	0.6207	-0.089
Mof_H 	H 	0.5368	0.9924	0.6179	0.046
Mof_C 	C 	0.5036	0.9166	0.5999	-0.026
Mof_H 	H 	0.5559	0.9107	0.5827	0.029
Mof_C 	C 	0.4398	0.877	0.6039	-0.028
Mof_H 	H 	0.4502	0.8447	0.5892	0.035
Mof_C 	C 	0.3624	0.8821	0.6281	-0.079
Mof_H 	H 	0.3196	0.8544	0.6308	0.057
Mof_C 	C 	0.3504	0.9313	0.6488	0.047
Mof_C 	C 	0.206	0.9196	0.6931	-0.079
Mof_H 	H 	0.1867	0.9371	0.7219	0.045
Mof_H 	H 	0.2313	0.8852	0.7036	0.048
Mof_C 	C 	0.119	0.9122	0.656	0.012
Mof_C 	C 	0.0904	0.8653	0.6396	-0.053
Mof_H 	H 	0.1264	0.8356	0.6504	0.023
Mof_C 	C 	0.0081	0.8598	0.6067	-0.08
Mof_H 	H 	0.9886	0.8266	0.5946	0.029
Mof_C 	C 	0.9556	0.9028	0.5923	0.035
Mof_H 	H 	0.8978	0.8989	0.5714	-0.012
Mof_C 	C 	0.0639	0.9544	0.6383	-0.002
Mof_H 	H 	0.0836	0.988	0.649	0.005
Mof_C 	C 	0.2652	0.1173	0.7557	-0.159
Mof_H 	H 	0.199	0.1102	0.7609	0.066
Mof_H 	H 	0.2711	0.1545	0.7486	0.062
Mof_C 	C 	0.332	0.1028	0.8003	0.123
Mof_C 	C 	0.4518	0.0713	0.8454	0.059
Mof_C 	C 	0.5354	0.0467	0.8655	-0.097
Mof_H 	H 	0.5734	0.0282	0.8457	0.048
Mof_C 	C 	0.5608	0.0503	0.9151	-0.021
Mof_H 	H 	0.6182	0.0349	0.9294	0.018
Mof_C 	C 	0.5039	0.0761	0.9443	-0.039
Mof_H 	H 	0.5231	0.0771	0.9782	0.028
Mof_C 	C 	0.4212	0.1002	0.926	-0.077
Mof_H 	H 	0.3833	0.1183	0.9462	0.047
Mof_C 	C 	0.396	0.0963	0.8757	0.043
Mof_C 	C 	0.2458	0.1507	0.8607	-0.066
Mof_H 	H 	0.2162	0.1704	0.8322	0.029
Mof_H 	H 	0.2764	0.1758	0.8847	0.042
Mof_C 	C 	0.1699	0.1218	0.8827	-0.005
Mof_C 	C 	0.105	0.0903	0.8551	-0.038
Mof_H 	H 	0.1089	0.0855	0.8215	0.029
Mof_C 	C 	0.0353	0.0661	0.8762	-0.088
Mof_H 	H 	0.99	0.0449	0.8575	0.044
Mof_C 	C 	0.0322	0.0731	0.9251	0.043
Mof_H 	H 	0.983	0.057	0.9396	-0.003
Mof_C 	C 	0.1622	0.1259	0.9316	0.004
Mof_H 	H 	0.2066	0.1469	0.9511	0.004
Mof_C 	C 	0.2476	0.1095	0.6682	-0.161
Mof_H 	H 	0.2403	0.0829	0.6424	0.061
Mof_H 	H 	0.1841	0.1234	0.6717	0.066
Mof_C 	C 	0.3095	0.1513	0.6551	0.121
Mof_C 	C 	0.4291	0.2033	0.6564	0.057
Mof_C 	C 	0.5127	0.2315	0.6673	-0.092
Mof_H 	H 	0.555	0.2252	0.696	0.048
Mof_C 	C 	0.5311	0.2691	0.6344	-0.02
Mof_H 	H 	0.5865	0.2897	0.6412	0.027
Mof_C 	C 	0.4707	0.2776	0.5917	-0.035
Mof_H 	H 	0.4885	0.3022	0.5692	0.031
Mof_C 	C 	0.385	0.2515	0.5806	-0.078
Mof_H 	H 	0.3432	0.258	0.5517	0.048
Mof_C 	C 	0.3653	0.2154	0.6145	0.047
Mof_C 	C 	0.2052	0.1793	0.5793	-0.068
Mof_H 	H 	0.1759	0.1447	0.5804	0.036
Mof_H 	H 	0.2245	0.184	0.5467	0.044
Mof_C 	C 	0.1323	0.2203	0.5876	0.005
Mof_C 	C 	0.0619	0.2112	0.6174	-0.041
Mof_H 	H 	0.0572	0.1788	0.6331	0.029
Mof_C 	C 	0.9982	0.2518	0.6234	-0.079
Mof_H 	H 	0.9496	0.2468	0.6433	0.041
Mof_C 	C 	0.0054	0.2966	0.6017	0.039
Mof_H 	H 	0.9618	0.3232	0.6067	-0.003
Mof_C 	C 	0.133	0.2685	0.5655	0.007
Mof_H 	H 	0.1792	0.2748	0.5444	0.007
Mof_C 	C 	0.6979	0.0342	0.7079	-0.159
Mof_H 	H 	0.7644	0.028	0.7219	0.067
Mof_H 	H 	0.695	0.0351	0.6721	0.06
Mof_C 	C 	0.6359	0.9915	0.7225	0.125
Mof_C 	C 	0.5248	0.9512	0.7523	0.048
Mof_C 	C 	0.4457	0.9371	0.7749	-0.089
Mof_H 	H 	0.4093	0.9619	0.7895	0.047
Mof_C 	C 	0.4242	0.8852	0.7745	-0.022
Mof_H 	H 	0.3726	0.874	0.7903	0.027
Mof_C 	C 	0.4748	0.8487	0.7521	-0.033
Mof_H 	H 	0.455	0.8137	0.7517	0.037
Mof_C 	C 	0.555	0.8622	0.7299	-0.077
Mof_H 	H 	0.5909	0.8374	0.7149	0.057
Mof_C 	C 	0.5775	0.9147	0.7315	0.05
Mof_C 	C 	0.7184	0.9191	0.6837	-0.072
Mof_H 	H 	0.7417	0.9469	0.6638	0.036
Mof_H 	H 	0.6849	0.8935	0.6613	0.047
Mof_C 	C 	0.8024	0.8931	0.7128	0.007
Mof_C 	C 	0.8462	0.9119	0.7553	-0.038
Mof_H 	H 	0.8225	0.9422	0.7688	0.037
Mof_C 	C 	0.927	0.8867	0.7799	-0.093
Mof_H 	H 	0.9583	0.8993	0.8098	0.045
Mof_C 	C 	0.9571	0.8437	0.7586	0.059
Mof_H 	H 	0.014	0.8279	0.773	-0.017
Mof_C 	C 	0.8344	0.8471	0.6977	0.001
Mof_H 	H 	0.7997	0.831	0.6703	0.008
Mof_C 	C 	0.703	0.0917	0.7776	-0.168
Mof_H 	H 	0.7017	0.0585	0.7952	0.065
Mof_H 	H 	0.7694	0.1037	0.7803	0.07
Mof_C 	C 	0.645	0.1299	0.7987	0.12
Mof_C 	C 	0.5301	0.1826	0.8089	0.052
Mof_C 	C 	0.4486	0.2128	0.804	-0.092
Mof_H 	H 	0.4083	0.2153	0.7741	0.048
Mof_C 	C 	0.429	0.2389	0.8451	-0.022
Mof_H 	H 	0.3736	0.2597	0.8433	0.025
Mof_C 	C 	0.4884	0.2356	0.8888	-0.034
Mof_H 	H 	0.4707	0.2531	0.9162	0.032
Mof_C 	C 	0.5736	0.2074	0.8939	-0.081
Mof_H 	H 	0.6153	0.2059	0.9234	0.055
Mof_C 	C 	0.5916	0.1819	0.8521	0.05
Mof_C 	C 	0.7385	0.1288	0.8815	-0.077
Mof_H 	H 	0.7611	0.0952	0.8705	0.043
Mof_H 	H 	0.7099	0.1224	0.9116	0.049
Mof_C 	C 	0.8231	0.1645	0.8933	0.01
Mof_C 	C 	0.8588	0.172	0.9414	-0.045
Mof_H 	H 	0.8284	0.1574	0.9667	0.031
Mof_C 	C 	0.9402	0.2014	0.9517	-0.084
Mof_H 	H 	0.9657	0.2079	0.9844	0.041
Mof_C 	C 	0.9827	0.2205	0.9155	0.045
Mof_H 	H 	0.0394	0.2397	0.9236	-0.012
Mof_C 	C 	0.8697	0.1859	0.858	0.002
Mof_H 	H 	0.8444	0.1807	0.8251	0.012
Mof_C 	C 	0.695	0.1272	0.6964	-0.158
Mof_H 	H 	0.7611	0.1219	0.69	0.064
Mof_H 	H 	0.6917	0.1603	0.714	0.062
Mof_C 	C 	0.6299	0.1287	0.6496	0.12
Mof_C 	C 	0.5087	0.1135	0.5959	0.055
Mof_C 	C 	0.4249	0.0971	0.5693	-0.092
Mof_H 	H 	0.3857	0.0721	0.5818	0.047
Mof_C 	C 	0.4004	0.1184	0.5237	-0.024
Mof_H 	H 	0.3428	0.1083	0.505	0.023
Mof_C 	C 	0.459	0.1545	0.5048	-0.029
Mof_H 	H 	0.4398	0.1686	0.4735	0.029
Mof_C 	C 	0.5424	0.1702	0.5298	-0.081
Mof_H 	H 	0.5823	0.1942	0.5165	0.056
Mof_C 	C 	0.5665	0.1495	0.5757	0.05
Mof_C 	C 	0.722	0.193	0.606	-0.075
Mof_H 	H 	0.7576	0.2001	0.6383	0.041
Mof_H 	H 	0.6959	0.2261	0.5924	0.049
Mof_C 	C 	0.7883	0.1707	0.5732	0.01
Mof_C 	C 	0.8132	0.1964	0.534	-0.041
Mof_H 	H 	0.7905	0.2304	0.5267	0.037
Mof_C 	C 	0.8726	0.1721	0.5046	-0.083
Mof_H 	H 	0.8898	0.1889	0.4767	0.054
Mof_C 	C 	0.9053	0.1234	0.517	0.051
Mof_H 	H 	0.9468	0.1072	0.4975	-0.014
Mof_C 	C 	0.8242	0.122	0.5825	0.004
Mof_H 	H 	0.8077	0.1042	0.61	0.007
Mof_C 	C 	0.8735	0.0422	0.0334	0.227
Mof_C 	C 	0.7846	0.0145	0.0307	-0.614
Mof_H 	H 	0.7819	0.9883	0.0052	0.179
Mof_H 	H 	0.732	0.0388	0.0232	0.19
Mof_H 	H 	0.7798	0.9978	0.0619	0.197
Mof_Gd	Gd	0.47713	0.41571	0.21893	1.267
Mof_Ag	Ag	0.9255	0.48009	0.07371	0.472
Mof_Ag	Ag	0.08267	0.385	0.53335	0.52
Mof_Ag	Ag	0.98458	0.73994	0.18396	0.494
Mof_N 	N 	0.2904	0.4139	0.2147	-0.119
Mof_N 	N 	0.3865	0.4861	0.1712	-0.224
Mof_N 	N 	0.2824	0.5501	0.1755	-0.133
Mof_N 	N 	0.9844	0.5502	0.107	-0.189
Mof_N 	N 	0.4107	0.4238	0.2977	-0.226
Mof_N 	N 	0.3188	0.3839	0.3455	-0.134
Mof_N 	N 	0.0959	0.3982	0.4526	-0.177
Mof_N 	N 	0.3925	0.3374	0.1804	-0.223
Mof_N 	N 	0.2883	0.3182	0.1153	-0.132
Mof_N 	N 	0.0728	0.1936	0.0722	-0.175
Mof_N 	N 	0.6648	0.4159	0.2256	-0.118
Mof_N 	N 	0.5624	0.4993	0.2444	-0.222
Mof_N 	N 	0.6505	0.5585	0.2135	-0.135
Mof_N 	N 	0.9133	0.677	0.2198	-0.186
Mof_N 	N 	0.564	0.3508	0.275	-0.222
Mof_N 	N 	0.6645	0.3514	0.3442	-0.133
Mof_N 	N 	0.9503	0.2857	0.3679	-0.186
Mof_N 	N 	0.5494	0.3985	0.1429	-0.224
Mof_N 	N 	0.6442	0.3426	0.1113	-0.133
Mof_N 	N 	0.8815	0.4018	0.0548	-0.191
Mof_N 	N 	0.9431	0.4362	0.5366	-0.245
Mof_C 	C 	0.2551	0.4669	0.2186	-0.158
Mof_H 	H 	0.1863	0.4683	0.2074	0.066
Mof_H 	H 	0.2657	0.4786	0.2528	0.064
Mof_C 	C 	0.3072	0.5013	0.1879	0.12
Mof_C 	C 	0.4135	0.5283	0.1459	0.055
Mof_C 	C 	0.4931	0.5348	0.1207	-0.089
Mof_H 	H 	0.5368	0.5076	0.1179	0.046
Mof_C 	C 	0.5036	0.5834	0.0999	-0.026
Mof_H 	H 	0.5559	0.5893	0.0827	0.029
Mof_C 	C 	0.4398	0.623	0.1039	-0.028
Mof_H 	H 	0.4502	0.6553	0.0892	0.035
Mof_C 	C 	0.3624	0.6179	0.1281	-0.079
Mof_H 	H 	0.3196	0.6456	0.1308	0.057
Mof_C 	C 	0.3504	0.5687	0.1488	0.047
Mof_C 	C 	0.206	0.5804	0.1931	-0.079
Mof_H 	H 	0.1867	0.5629	0.2219	0.045
Mof_H 	H 	0.2313	0.6148	0.2036	0.048
Mof_C 	C 	0.119	0.5878	0.156	0.011
Mof_C 	C 	0.0904	0.6347	0.1396	-0.051
Mof_H 	H 	0.1264	0.6644	0.1504	0.022
Mof_C 	C 	0.0081	0.6402	0.1067	-0.083
Mof_H 	H 	0.9886	0.6734	0.0946	0.031
Mof_C 	C 	0.9556	0.5972	0.0923	0.037
Mof_H 	H 	0.8978	0.6011	0.0714	-0.012
Mof_C 	C 	0.0639	0.5456	0.1383	-0.002
Mof_H 	H 	0.0836	0.512	0.149	0.005
Mof_C 	C 	0.2652	0.3827	0.2557	-0.159
Mof_H 	H 	0.199	0.3898	0.2609	0.066
Mof_H 	H 	0.2711	0.3455	0.2486	0.062
Mof_C 	C 	0.332	0.3972	0.3003	0.123
Mof_C 	C 	0.4518	0.4287	0.3454	0.059
Mof_C 	C 	0.5354	0.4533	0.3655	-0.097
Mof_H 	H 	0.5734	0.4718	0.3457	0.048
Mof_C 	C 	0.5608	0.4497	0.4151	-0.021
Mof_H 	H 	0.6182	0.4651	0.4294	0.018
Mof_C 	C 	0.5039	0.4239	0.4443	-0.039
Mof_H 	H 	0.5231	0.4229	0.4782	0.028
Mof_C 	C 	0.4212	0.3998	0.426	-0.077
Mof_H 	H 	0.3833	0.3817	0.4462	0.047
Mof_C 	C 	0.396	0.4037	0.3757	0.043
Mof_C 	C 	0.2458	0.3493	0.3607	-0.066
Mof_H 	H 	0.2162	0.3296	0.3322	0.029
Mof_H 	H 	0.2764	0.3242	0.3847	0.042
Mof_C 	C 	0.1699	0.3782	0.3827	-0.004
Mof_C 	C 	0.105	0.4097	0.3551	-0.038
Mof_H 	H 	0.1089	0.4145	0.3215	0.029
Mof_C 	C 	0.0353	0.4339	0.3762	-0.087
Mof_H 	H 	0.99	0.4551	0.3575	0.044
Mof_C 	C 	0.0322	0.4269	0.4251	0.043
Mof_H 	H 	0.983	0.443	0.4396	-0.003
Mof_C 	C 	0.1622	0.3741	0.4316	0.003
Mof_H 	H 	0.2066	0.3531	0.4511	0.004
Mof_C 	C 	0.2476	0.3905	0.1682	-0.161
Mof_H 	H 	0.2403	0.4171	0.1424	0.061
Mof_H 	H 	0.1841	0.3766	0.1717	0.066
Mof_C 	C 	0.3095	0.3487	0.1551	0.121
Mof_C 	C 	0.4291	0.2967	0.1564	0.057
Mof_C 	C 	0.5127	0.2685	0.1673	-0.092
Mof_H 	H 	0.555	0.2748	0.196	0.048
Mof_C 	C 	0.5311	0.2309	0.1344	-0.02
Mof_H 	H 	0.5865	0.2103	0.1412	0.027
Mof_C 	C 	0.4707	0.2224	0.0917	-0.035
Mof_H 	H 	0.4885	0.1978	0.0692	0.031
Mof_C 	C 	0.385	0.2485	0.0806	-0.078
Mof_H 	H 	0.3432	0.242	0.0517	0.048
Mof_C 	C 	0.3653	0.2846	0.1145	0.047
Mof_C 	C 	0.2052	0.3207	0.0793	-0.068
Mof_H 	H 	0.1759	0.3553	0.0804	0.036
Mof_H 	H 	0.2245	0.316	0.0467	0.044
Mof_C 	C 	0.1323	0.2797	0.0876	0.005
Mof_C 	C 	0.0619	0.2888	0.1174	-0.042
Mof_H 	H 	0.0572	0.3212	0.1331	0.029
Mof_C 	C 	0.9982	0.2482	0.1234	-0.077
Mof_H 	H 	0.9496	0.2532	0.1433	0.04
Mof_C 	C 	0.0054	0.2034	0.1017	0.037
Mof_H 	H 	0.9618	0.1768	0.1067	-0.002
Mof_C 	C 	0.133	0.2315	0.0655	0.006
Mof_H 	H 	0.1792	0.2252	0.0444	0.007
Mof_C 	C 	0.6979	0.4658	0.2079	-0.159
Mof_H 	H 	0.7644	0.472	0.2219	0.067
Mof_H 	H 	0.695	0.4649	0.1721	0.06
Mof_C 	C 	0.6359	0.5085	0.2225	0.126
Mof_C 	C 	0.5248	0.5488	0.2523	0.048
Mof_C 	C 	0.4457	0.5629	0.2749	-0.089
Mof_H 	H 	0.4093	0.5381	0.2895	0.047
Mof_C 	C 	0.4242	0.6148	0.2745	-0.022
Mof_H 	H 	0.3726	0.626	0.2903	0.027
Mof_C 	C 	0.4748	0.6513	0.2521	-0.033
Mof_H 	H 	0.455	0.6863	0.2517	0.037
Mof_C 	C 	0.555	0.6378	0.2299	-0.077
Mof_H 	H 	0.5909	0.6626	0.2149	0.057
Mof_C 	C 	0.5775	0.5853	0.2315	0.05
Mof_C 	C 	0.7184	0.5809	0.1837	-0.072
Mof_H 	H 	0.7417	0.5531	0.1638	0.036
Mof_H 	H 	0.6849	0.6065	0.1613	0.047
Mof_C 	C 	0.8024	0.6069	0.2128	0.006
Mof_C 	C 	0.8462	0.5881	0.2553	-0.038
Mof_H 	H 	0.8225	0.5578	0.2688	0.036
Mof_C 	C 	0.927	0.6133	0.2799	-0.094
Mof_H 	H 	0.9583	0.6007	0.3098	0.045
Mof_C 	C 	0.9571	0.6563	0.2586	0.061
Mof_H 	H 	0.014	0.6721	0.273	-0.018
Mof_C 	C 	0.8344	0.6529	0.1977	0.001
Mof_H 	H 	0.7997	0.669	0.1703	0.008
Mof_C 	C 	0.703	0.4083	0.2776	-0.168
Mof_H 	H 	0.7017	0.4415	0.2952	0.065
Mof_H 	H 	0.7694	0.3963	0.2803	0.07
Mof_C 	C 	0.645	0.3701	0.2987	0.12
Mof_C 	C 	0.5301	0.3174	0.3089	0.052
Mof_C 	C 	0.4486	0.2872	0.304	-0.092
Mof_H 	H 	0.4083	0.2847	0.2741	0.048
Mof_C 	C 	0.429	0.2611	0.3451	-0.022
Mof_H 	H 	0.3736	0.2403	0.3433	0.025
Mof_C 	C 	0.4884	0.2644	0.3888	-0.034
Mof_H 	H 	0.4707	0.2469	0.4162	0.032
Mof_C 	C 	0.5736	0.2926	0.3939	-0.081
Mof_H 	H 	0.6153	0.2941	0.4234	0.055
Mof_C 	C 	0.5916	0.3181	0.3521	0.05
Mof_C 	C 	0.7385	0.3712	0.3815	-0.077
Mof_H 	H 	0.7611	0.4048	0.3705	0.043
Mof_H 	H 	0.7099	0.3776	0.4116	0.049
Mof_C 	C 	0.8231	0.3355	0.3933	0.01
Mof_C 	C 	0.8588	0.328	0.4414	-0.045
Mof_H 	H 	0.8284	0.3426	0.4667	0.031
Mof_C 	C 	0.9402	0.2986	0.4517	-0.085
Mof_H 	H 	0.9657	0.2921	0.4844	0.042
Mof_C 	C 	0.9827	0.2795	0.4155	0.045
Mof_H 	H 	0.0394	0.2603	0.4236	-0.012
Mof_C 	C 	0.8697	0.3141	0.358	0.002
Mof_H 	H 	0.8444	0.3193	0.3251	0.012
Mof_C 	C 	0.695	0.3728	0.1964	-0.158
Mof_H 	H 	0.7611	0.3781	0.19	0.064
Mof_H 	H 	0.6917	0.3397	0.214	0.062
Mof_C 	C 	0.6299	0.3713	0.1496	0.12
Mof_C 	C 	0.5087	0.3865	0.0959	0.055
Mof_C 	C 	0.4249	0.4029	0.0693	-0.092
Mof_H 	H 	0.3857	0.4279	0.0818	0.047
Mof_C 	C 	0.4004	0.3816	0.0237	-0.025
Mof_H 	H 	0.3428	0.3917	0.005	0.023
Mof_C 	C 	0.459	0.3455	0.0048	-0.029
Mof_H 	H 	0.4398	0.3314	0.9735	0.029
Mof_C 	C 	0.5424	0.3298	0.0298	-0.082
Mof_H 	H 	0.5823	0.3058	0.0165	0.057
Mof_C 	C 	0.5665	0.3505	0.0757	0.05
Mof_C 	C 	0.722	0.307	0.106	-0.075
Mof_H 	H 	0.7576	0.2999	0.1383	0.041
Mof_H 	H 	0.6959	0.2739	0.0924	0.049
Mof_C 	C 	0.7883	0.3293	0.0732	0.01
Mof_C 	C 	0.8132	0.3036	0.034	-0.041
Mof_H 	H 	0.7905	0.2696	0.0267	0.037
Mof_C 	C 	0.8726	0.3279	0.0046	-0.082
Mof_H 	H 	0.8898	0.3111	0.9767	0.053
Mof_C 	C 	0.9053	0.3766	0.017	0.051
Mof_H 	H 	0.9468	0.3928	0.9975	-0.014
Mof_C 	C 	0.8242	0.378	0.0825	0.004
Mof_H 	H 	0.8077	0.3958	0.11	0.007
Mof_C 	C 	0.8735	0.4578	0.5334	0.229
Mof_C 	C 	0.7846	0.4855	0.5307	-0.62
Mof_H 	H 	0.7819	0.5117	0.5052	0.182
Mof_H 	H 	0.732	0.4612	0.5232	0.191
Mof_H 	H 	0.7798	0.5022	0.5619	0.2
Mof_Gd	Gd	0.52287	0.91571	0.28107	1.267
Mof_Ag	Ag	0.0745	0.98009	0.42629	0.473
Mof_Ag	Ag	0.91733	0.885	0.96665	0.519
Mof_Ag	Ag	0.01542	0.23994	0.31604	0.494
Mof_N 	N 	0.7096	0.9139	0.2853	-0.119
Mof_N 	N 	0.6135	0.9861	0.3288	-0.225
Mof_N 	N 	0.7176	0.0501	0.3245	-0.133
Mof_N 	N 	0.0156	0.0502	0.393	-0.19
Mof_N 	N 	0.5893	0.9238	0.2023	-0.226
Mof_N 	N 	0.6812	0.8839	0.1545	-0.134
Mof_N 	N 	0.9041	0.8982	0.0474	-0.177
Mof_N 	N 	0.6075	0.8374	0.3196	-0.223
Mof_N 	N 	0.7117	0.8182	0.3847	-0.132
Mof_N 	N 	0.9272	0.6936	0.4278	-0.176
Mof_N 	N 	0.3352	0.9159	0.2744	-0.118
Mof_N 	N 	0.4376	0.9993	0.2556	-0.222
Mof_N 	N 	0.3495	0.0585	0.2865	-0.135
Mof_N 	N 	0.0867	0.177	0.2802	-0.186
Mof_N 	N 	0.436	0.8508	0.225	-0.222
Mof_N 	N 	0.3355	0.8514	0.1558	-0.133
Mof_N 	N 	0.0497	0.7857	0.1321	-0.186
Mof_N 	N 	0.4506	0.8985	0.3571	-0.224
Mof_N 	N 	0.3558	0.8426	0.3887	-0.133
Mof_N 	N 	0.1185	0.9018	0.4452	-0.191
Mof_N 	N 	0.0569	0.9362	0.9634	-0.244
Mof_C 	C 	0.7449	0.9669	0.2814	-0.159
Mof_H 	H 	0.8137	0.9683	0.2926	0.066
Mof_H 	H 	0.7343	0.9786	0.2472	0.064
Mof_C 	C 	0.6928	0.0013	0.3121	0.121
Mof_C 	C 	0.5865	0.0283	0.3541	0.055
Mof_C 	C 	0.5069	0.0348	0.3793	-0.089
Mof_H 	H 	0.4632	0.0076	0.3821	0.046
Mof_C 	C 	0.4964	0.0834	0.4001	-0.026
Mof_H 	H 	0.4441	0.0893	0.4173	0.029
Mof_C 	C 	0.5602	0.123	0.3961	-0.028
Mof_H 	H 	0.5498	0.1553	0.4108	0.035
Mof_C 	C 	0.6376	0.1179	0.3719	-0.079
Mof_H 	H 	0.6804	0.1456	0.3692	0.057
Mof_C 	C 	0.6496	0.0687	0.3512	0.047
Mof_C 	C 	0.794	0.0804	0.3069	-0.079
Mof_H 	H 	0.8133	0.0629	0.2781	0.045
Mof_H 	H 	0.7687	0.1148	0.2964	0.048
Mof_C 	C 	0.881	0.0878	0.344	0.012
Mof_C 	C 	0.9096	0.1347	0.3604	-0.053
Mof_H 	H 	0.8736	0.1644	0.3496	0.023
Mof_C 	C 	0.9919	0.1402	0.3933	-0.08
Mof_H 	H 	0.0114	0.1734	0.4054	0.029
Mof_C 	C 	0.0444	0.0972	0.4077	0.035
Mof_H 	H 	0.1022	0.1011	0.4286	-0.012
Mof_C 	C 	0.9361	0.0456	0.3617	-0.002
Mof_H 	H 	0.9164	0.012	0.351	0.005
Mof_C 	C 	0.7348	0.8827	0.2443	-0.159
Mof_H 	H 	0.801	0.8898	0.2391	0.066
Mof_H 	H 	0.7289	0.8455	0.2514	0.062
Mof_C 	C 	0.668	0.8972	0.1997	0.123
Mof_C 	C 	0.5482	0.9287	0.1546	0.059
Mof_C 	C 	0.4646	0.9533	0.1345	-0.097
Mof_H 	H 	0.4266	0.9718	0.1543	0.048
Mof_C 	C 	0.4392	0.9497	0.0849	-0.021
Mof_H 	H 	0.3818	0.9651	0.0706	0.018
Mof_C 	C 	0.4961	0.9239	0.0557	-0.039
Mof_H 	H 	0.4769	0.9229	0.0218	0.028
Mof_C 	C 	0.5788	0.8998	0.074	-0.077
Mof_H 	H 	0.6167	0.8817	0.0538	0.047
Mof_C 	C 	0.604	0.9037	0.1243	0.043
Mof_C 	C 	0.7542	0.8493	0.1393	-0.066
Mof_H 	H 	0.7838	0.8296	0.1678	0.029
Mof_H 	H 	0.7236	0.8242	0.1153	0.042
Mof_C 	C 	0.8301	0.8782	0.1173	-0.005
Mof_C 	C 	0.895	0.9097	0.1449	-0.038
Mof_H 	H 	0.8911	0.9145	0.1785	0.029
Mof_C 	C 	0.9647	0.9339	0.1238	-0.088
Mof_H 	H 	0.01	0.9551	0.1425	0.044
Mof_C 	C 	0.9678	0.9269	0.0749	0.043
Mof_H 	H 	0.017	0.943	0.0604	-0.003
Mof_C 	C 	0.8378	0.8741	0.0684	0.004
Mof_H 	H 	0.7934	0.8531	0.0489	0.004
Mof_C 	C 	0.7524	0.8905	0.3318	-0.161
Mof_H 	H 	0.7597	0.9171	0.3576	0.061
Mof_H 	H 	0.8159	0.8766	0.3283	0.066
Mof_C 	C 	0.6905	0.8487	0.3449	0.121
Mof_C 	C 	0.5709	0.7967	0.3436	0.057
Mof_C 	C 	0.4873	0.7685	0.3327	-0.092
Mof_H 	H 	0.445	0.7748	0.304	0.048
Mof_C 	C 	0.4689	0.7309	0.3656	-0.02
Mof_H 	H 	0.4135	0.7103	0.3588	0.027
Mof_C 	C 	0.5293	0.7224	0.4083	-0.035
Mof_H 	H 	0.5115	0.6978	0.4308	0.031
Mof_C 	C 	0.615	0.7485	0.4194	-0.078
Mof_H 	H 	0.6568	0.742	0.4483	0.048
Mof_C 	C 	0.6347	0.7846	0.3855	0.047
Mof_C 	C 	0.7948	0.8207	0.4207	-0.068
Mof_H 	H 	0.8241	0.8553	0.4196	0.036
Mof_H 	H 	0.7755	0.816	0.4533	0.044
Mof_C 	C 	0.8677	0.7797	0.4124	0.005
Mof_C 	C 	0.9381	0.7888	0.3826	-0.041
Mof_H 	H 	0.9428	0.8212	0.3669	0.029
Mof_C 	C 	0.0018	0.7482	0.3766	-0.079
Mof_H 	H 	0.0504	0.7532	0.3567	0.041
Mof_C 	C 	0.9946	0.7034	0.3983	0.039
Mof_H 	H 	0.0382	0.6768	0.3933	-0.003
Mof_C 	C 	0.867	0.7315	0.4345	0.007
Mof_H 	H 	0.8208	0.7252	0.4556	0.007
Mof_C 	C 	0.3021	0.9658	0.2921	-0.159
Mof_H 	H 	0.2356	0.972	0.2781	0.067
Mof_H 	H 	0.305	0.9649	0.3279	0.06
Mof_C 	C 	0.3641	0.0085	0.2775	0.125
Mof_C 	C 	0.4752	0.0488	0.2477	0.048
Mof_C 	C 	0.5543	0.0629	0.2251	-0.089
Mof_H 	H 	0.5907	0.0381	0.2105	0.047
Mof_C 	C 	0.5758	0.1148	0.2255	-0.022
Mof_H 	H 	0.6274	0.126	0.2097	0.027
Mof_C 	C 	0.5252	0.1513	0.2479	-0.033
Mof_H 	H 	0.545	0.1863	0.2483	0.037
Mof_C 	C 	0.445	0.1378	0.2701	-0.077
Mof_H 	H 	0.4091	0.1626	0.2851	0.057
Mof_C 	C 	0.4225	0.0853	0.2685	0.05
Mof_C 	C 	0.2816	0.0809	0.3163	-0.072
Mof_H 	H 	0.2583	0.0531	0.3362	0.036
Mof_H 	H 	0.3151	0.1065	0.3387	0.047
Mof_C 	C 	0.1976	0.1069	0.2872	0.007
Mof_C 	C 	0.1538	0.0881	0.2447	-0.038
Mof_H 	H 	0.1775	0.0578	0.2312	0.037
Mof_C 	C 	0.073	0.1133	0.2201	-0.093
Mof_H 	H 	0.0417	0.1007	0.1902	0.045
Mof_C 	C 	0.0429	0.1563	0.2414	0.059
Mof_H 	H 	0.986	0.1721	0.227	-0.017
Mof_C 	C 	0.1656	0.1529	0.3023	0.001
Mof_H 	H 	0.2003	0.169	0.3297	0.008
Mof_C 	C 	0.297	0.9083	0.2224	-0.168
Mof_H 	H 	0.2983	0.9415	0.2048	0.065
Mof_H 	H 	0.2306	0.8963	0.2197	0.07
Mof_C 	C 	0.355	0.8701	0.2013	0.12
Mof_C 	C 	0.4699	0.8174	0.1911	0.052
Mof_C 	C 	0.5514	0.7872	0.196	-0.092
Mof_H 	H 	0.5917	0.7847	0.2259	0.048
Mof_C 	C 	0.571	0.7611	0.1549	-0.022
Mof_H 	H 	0.6264	0.7403	0.1567	0.025
Mof_C 	C 	0.5116	0.7644	0.1112	-0.034
Mof_H 	H 	0.5293	0.7469	0.0838	0.032
Mof_C 	C 	0.4264	0.7926	0.1061	-0.081
Mof_H 	H 	0.3847	0.7941	0.0766	0.055
Mof_C 	C 	0.4084	0.8181	0.1479	0.05
Mof_C 	C 	0.2615	0.8712	0.1185	-0.077
Mof_H 	H 	0.2389	0.9048	0.1295	0.043
Mof_H 	H 	0.2901	0.8776	0.0884	0.049
Mof_C 	C 	0.1769	0.8355	0.1067	0.01
Mof_C 	C 	0.1412	0.828	0.0586	-0.045
Mof_H 	H 	0.1716	0.8426	0.0333	0.031
Mof_C 	C 	0.0598	0.7986	0.0483	-0.084
Mof_H 	H 	0.0343	0.7921	0.0156	0.041
Mof_C 	C 	0.0173	0.7795	0.0845	0.045
Mof_H 	H 	0.9606	0.7603	0.0764	-0.012
Mof_C 	C 	0.1303	0.8141	0.142	0.002
Mof_H 	H 	0.1556	0.8193	0.1749	0.012
Mof_C 	C 	0.305	0.8728	0.3036	-0.158
Mof_H 	H 	0.2389	0.8781	0.31	0.064
Mof_H 	H 	0.3083	0.8397	0.286	0.062
Mof_C 	C 	0.3701	0.8713	0.3504	0.12
Mof_C 	C 	0.4913	0.8865	0.4041	0.055
Mof_C 	C 	0.5751	0.9029	0.4307	-0.092
Mof_H 	H 	0.6143	0.9279	0.4182	0.047
Mof_C 	C 	0.5996	0.8816	0.4763	-0.024
Mof_H 	H 	0.6572	0.8917	0.495	0.023
Mof_C 	C 	0.541	0.8455	0.4952	-0.029
Mof_H 	H 	0.5602	0.8314	0.5265	0.029
Mof_C 	C 	0.4576	0.8298	0.4702	-0.081
Mof_H 	H 	0.4177	0.8058	0.4835	0.056
Mof_C 	C 	0.4335	0.8505	0.4243	0.05
Mof_C 	C 	0.278	0.807	0.394	-0.075
Mof_H 	H 	0.2424	0.7999	0.3617	0.041
Mof_H 	H 	0.3041	0.7739	0.4076	0.049
Mof_C 	C 	0.2117	0.8293	0.4268	0.01
Mof_C 	C 	0.1868	0.8036	0.466	-0.041
Mof_H 	H 	0.2095	0.7696	0.4733	0.037
Mof_C 	C 	0.1274	0.8279	0.4954	-0.083
Mof_H 	H 	0.1102	0.8111	0.5233	0.054
Mof_C 	C 	0.0947	0.8766	0.483	0.051
Mof_H 	H 	0.0532	0.8928	0.5025	-0.014
Mof_C 	C 	0.1758	0.878	0.4175	0.004
Mof_H 	H 	0.1923	0.8958	0.39	0.007
Mof_C 	C 	0.1265	0.9578	0.9666	0.227
Mof_C 	C 	0.2154	0.9855	0.9693	-0.614
Mof_H 	H 	0.2181	0.0117	0.9948	0.179
Mof_H 	H 	0.268	0.9612	0.9768	0.19
Mof_H 	H 	0.2202	0.0022	0.9381	0.197
_end
