data_functionalizedCrystal
_audit_creation_method	'EQeq! by Chris Wilmer'
_symmetry_space_group_name_H-M	'P1'
_symmetry_Int_Tables_number	1
_symmetry_cell_setting	triclinic
loop_
_symmetry_equiv_pos_as_xyz
  x,y,z
_cell_length_a	26.019
_cell_length_b	12.3698
_cell_length_c	19.5603
_cell_angle_alpha	90
_cell_angle_beta	121.672
_cell_angle_gamma	90
loop_
_atom_site_label
_atom_site_type_symbol
_atom_site_fract_x
_atom_site_fract_y
_atom_site_fract_z
_atom_site_charge
Mof_Eu	Eu	0.50318	0.97455	0.37554	2.192
Mof_S 	S 	0.50132	0.5979	0.3305	-0.14
Mof_S 	S 	0.4966	0.3456	0.3251	-0.11
Mof_S 	S 	0.34259	0.2505	0.4575	-0.177
Mof_S 	S 	0.21398	0.3552	0.3626	-0.179
Mof_O 	O 	0.4392	0.0771	0.3985	-0.637
Mof_O 	O 	0.4506	0.1364	0.5121	-0.662
Mof_O 	O 	0.0791	0.3545	0.1372	-0.474
Mof_O 	O 	0.097	0.4374	0.2479	-0.491
Mof_O 	O 	0.5154	0.822	0.3149	-0.643
Mof_O 	O 	0.4884	0.1244	0.2976	-0.668
Mof_C 	C 	0.4222	0.1285	0.4382	0.628
Mof_C 	C 	0.3622	0.1825	0.3931	-0.405
Mof_C 	C 	0.2747	0.2829	0.3725	0.273
Mof_C 	C 	0.2664	0.2444	0.3036	-0.364
Mof_C 	C 	0.1751	0.3288	0.2559	-0.342
Mof_C 	C 	0.1135	0.3754	0.2113	0.423
Mof_C 	C 	0.5002	0.4738	0.2214	-0.155
Mof_C 	C 	0.499	0.4727	0.2906	-0.053
Mof_C 	C 	0.3236	0.1412	0.2499	-0.368
Mof_H 	H 	0.3655	0.1413	0.2668	0.168
Mof_H 	H 	0.3012	0.1838	0.202	0.115
Mof_H 	H 	0.3086	0.0683	0.2392	0.151
Mof_C 	C 	0.1829	0.2293	0.1514	-0.381
Mof_H 	H 	0.1396	0.2348	0.1206	0.154
Mof_H 	H 	0.1945	0.1551	0.1538	0.123
Mof_H 	H 	0.1994	0.2718	0.1264	0.127
Mof_C 	C 	0.4999	0.6105	0.1217	-0.593
Mof_H 	H 	0.5039	0.6874	0.1198	0.224
Mof_H 	H 	0.4628	0.5875	0.0749	0.188
Mof_H 	H 	0.5333	0.5754	0.1231	0.192
Mof_C 	C 	0.5012	0.3408	0.1205	-0.569
Mof_H 	H 	0.5402	0.3584	0.1294	0.186
Mof_H 	H 	0.4708	0.3823	0.0762	0.169
Mof_H 	H 	0.4935	0.2651	0.1085	0.181
Mof_C 	C 	0.3163	0.189	0.316	0.366
Mof_C 	C 	0.2067	0.2708	0.2359	0.33
Mof_C 	C 	0.499	0.5808	0.197	0.431
Mof_C 	C 	0.4999	0.3669	0.1964	0.375
Mof_S 	S 	0.32404	0.1546	0.2873	-0.204
Mof_S 	S 	0.19398	0.2559	0.1909	-0.176
Mof_C 	C 	0.2711	0.2691	0.3413	-0.392
Mof_C 	C 	0.2628	0.2272	0.2746	0.26
Mof_C 	C 	0.3527	0.2798	0.4968	-0.404
Mof_H 	H 	0.3902	0.2443	0.5332	0.162
Mof_H 	H 	0.3233	0.2613	0.5104	0.13
Mof_H 	H 	0.3587	0.3567	0.5009	0.127
Mof_C 	C 	0.2145	0.3918	0.3904	-0.353
Mof_H 	H 	0.1817	0.4422	0.3636	0.142
Mof_H 	H 	0.2513	0.4303	0.4249	0.109
Mof_H 	H 	0.2066	0.3427	0.4219	0.124
Mof_C 	C 	0.3306	0.2444	0.4128	0.333
Mof_C 	C 	0.2205	0.329	0.3288	0.323
Mof_Eu	Eu	0.00318	0.47455	0.37554	2.188
Mof_S 	S 	0.00132	0.0979	0.3305	-0.149
Mof_S 	S 	0.9966	0.8456	0.3251	-0.107
Mof_S 	S 	0.84259	0.7505	0.4575	-0.176
Mof_S 	S 	0.71398	0.8552	0.3626	-0.177
Mof_O 	O 	0.9392	0.5771	0.3985	-0.635
Mof_O 	O 	0.9506	0.6364	0.5121	-0.661
Mof_O 	O 	0.5791	0.8545	0.1372	-0.473
Mof_O 	O 	0.597	0.9374	0.2479	-0.489
Mof_O 	O 	0.0154	0.322	0.3149	-0.642
Mof_O 	O 	0.9884	0.6244	0.2976	-0.663
Mof_C 	C 	0.9222	0.6285	0.4382	0.629
Mof_C 	C 	0.8622	0.6825	0.3931	-0.403
Mof_C 	C 	0.7747	0.7829	0.3725	0.274
Mof_C 	C 	0.7664	0.7444	0.3036	-0.364
Mof_C 	C 	0.6751	0.8288	0.2559	-0.341
Mof_C 	C 	0.6135	0.8754	0.2113	0.423
Mof_C 	C 	0.0002	0.9738	0.2214	-0.16
Mof_C 	C 	0.999	0.9727	0.2906	-0.048
Mof_C 	C 	0.8236	0.6412	0.2499	-0.367
Mof_H 	H 	0.8655	0.6413	0.2668	0.167
Mof_H 	H 	0.8012	0.6838	0.202	0.114
Mof_H 	H 	0.8086	0.5683	0.2392	0.149
Mof_C 	C 	0.6829	0.7293	0.1514	-0.379
Mof_H 	H 	0.6396	0.7348	0.1206	0.152
Mof_H 	H 	0.6945	0.6551	0.1538	0.121
Mof_H 	H 	0.6994	0.7718	0.1264	0.125
Mof_C 	C 	0.9999	0.1105	0.1217	-0.594
Mof_H 	H 	0.0039	0.1874	0.1198	0.223
Mof_H 	H 	0.9628	0.0875	0.0749	0.189
Mof_H 	H 	0.0333	0.0754	0.1231	0.192
Mof_C 	C 	0.0012	0.8408	0.1205	-0.598
Mof_H 	H 	0.0402	0.8584	0.1294	0.194
Mof_H 	H 	0.9708	0.8823	0.0762	0.178
Mof_H 	H 	0.9935	0.7651	0.1085	0.19
Mof_C 	C 	0.8163	0.689	0.316	0.364
Mof_C 	C 	0.7067	0.7708	0.2359	0.327
Mof_C 	C 	0.999	0.0808	0.197	0.435
Mof_C 	C 	0.9999	0.8669	0.1964	0.384
Mof_S 	S 	0.82404	0.6546	0.2873	-0.203
Mof_S 	S 	0.69398	0.7559	0.1909	-0.175
Mof_C 	C 	0.7711	0.7691	0.3413	-0.392
Mof_C 	C 	0.7628	0.7272	0.2746	0.261
Mof_C 	C 	0.8527	0.7798	0.4968	-0.404
Mof_H 	H 	0.8902	0.7443	0.5332	0.162
Mof_H 	H 	0.8233	0.7613	0.5104	0.13
Mof_H 	H 	0.8587	0.8567	0.5009	0.127
Mof_C 	C 	0.7145	0.8918	0.3904	-0.353
Mof_H 	H 	0.6817	0.9422	0.3636	0.142
Mof_H 	H 	0.7513	0.9303	0.4249	0.109
Mof_H 	H 	0.7066	0.8427	0.4219	0.124
Mof_C 	C 	0.8306	0.7444	0.4128	0.332
Mof_C 	C 	0.7205	0.829	0.3288	0.323
Mof_Eu	Eu	0.49682	0.97455	0.12446	2.189
Mof_S 	S 	0.49868	0.5979	0.1695	-0.139
Mof_S 	S 	0.5034	0.3456	0.1749	-0.109
Mof_S 	S 	0.65741	0.2505	0.0425	-0.173
Mof_S 	S 	0.78602	0.3552	0.1374	-0.177
Mof_O 	O 	0.5608	0.0771	0.1015	-0.635
Mof_O 	O 	0.5494	0.1364	0.9879	-0.663
Mof_O 	O 	0.9209	0.3545	0.3628	-0.472
Mof_O 	O 	0.903	0.4374	0.2521	-0.488
Mof_O 	O 	0.4846	0.822	0.1851	-0.641
Mof_O 	O 	0.5116	0.1244	0.2024	-0.667
Mof_C 	C 	0.5778	0.1285	0.0618	0.631
Mof_C 	C 	0.6378	0.1825	0.1069	-0.402
Mof_C 	C 	0.7253	0.2829	0.1275	0.275
Mof_C 	C 	0.7336	0.2444	0.1964	-0.363
Mof_C 	C 	0.8249	0.3288	0.2441	-0.341
Mof_C 	C 	0.8865	0.3754	0.2887	0.423
Mof_C 	C 	0.4998	0.4738	0.2786	-0.155
Mof_C 	C 	0.501	0.4727	0.2094	-0.053
Mof_C 	C 	0.6764	0.1412	0.2501	-0.368
Mof_H 	H 	0.6345	0.1413	0.2332	0.168
Mof_H 	H 	0.6988	0.1838	0.298	0.114
Mof_H 	H 	0.6914	0.0683	0.2608	0.151
Mof_C 	C 	0.8171	0.2293	0.3486	-0.379
Mof_H 	H 	0.8604	0.2348	0.3794	0.152
Mof_H 	H 	0.8055	0.1551	0.3462	0.122
Mof_H 	H 	0.8006	0.2718	0.3736	0.125
Mof_C 	C 	0.5001	0.6105	0.3783	-0.594
Mof_H 	H 	0.4961	0.6874	0.3802	0.224
Mof_H 	H 	0.5372	0.5875	0.4251	0.188
Mof_H 	H 	0.4667	0.5754	0.3769	0.192
Mof_C 	C 	0.4988	0.3408	0.3795	-0.568
Mof_H 	H 	0.4598	0.3584	0.3706	0.186
Mof_H 	H 	0.5292	0.3823	0.4238	0.169
Mof_H 	H 	0.5065	0.2651	0.3915	0.181
Mof_C 	C 	0.6837	0.189	0.184	0.366
Mof_C 	C 	0.7933	0.2708	0.2641	0.328
Mof_C 	C 	0.501	0.5808	0.303	0.431
Mof_C 	C 	0.5001	0.3669	0.3036	0.375
Mof_S 	S 	0.67596	0.1546	0.2127	-0.203
Mof_S 	S 	0.80602	0.2559	0.3091	-0.175
Mof_C 	C 	0.7289	0.2691	0.1587	-0.391
Mof_C 	C 	0.7372	0.2272	0.2254	0.26
Mof_C 	C 	0.6473	0.2798	0.0032	-0.399
Mof_H 	H 	0.6098	0.2443	0.9668	0.16
Mof_H 	H 	0.6767	0.2613	0.9896	0.128
Mof_H 	H 	0.6413	0.3567	0.9991	0.125
Mof_C 	C 	0.7855	0.3918	0.1096	-0.352
Mof_H 	H 	0.8183	0.4422	0.1364	0.141
Mof_H 	H 	0.7487	0.4303	0.0751	0.108
Mof_H 	H 	0.7934	0.3427	0.0781	0.123
Mof_C 	C 	0.6694	0.2444	0.0872	0.328
Mof_C 	C 	0.7795	0.329	0.1712	0.322
Mof_Eu	Eu	0.99682	0.47455	0.12446	2.202
Mof_S 	S 	0.99868	0.0979	0.1695	-0.132
Mof_S 	S 	0.0034	0.8456	0.1749	-0.104
Mof_S 	S 	0.15741	0.7505	0.0425	-0.177
Mof_S 	S 	0.28602	0.8552	0.1374	-0.177
Mof_O 	O 	0.0608	0.5771	0.1015	-0.639
Mof_O 	O 	0.0494	0.6364	0.9879	-0.663
Mof_O 	O 	0.4209	0.8545	0.3628	-0.473
Mof_O 	O 	0.403	0.9374	0.2521	-0.489
Mof_O 	O 	0.9846	0.322	0.1851	-0.64
Mof_O 	O 	0.0116	0.6244	0.2024	-0.669
Mof_C 	C 	0.0778	0.6285	0.0618	0.631
Mof_C 	C 	0.1378	0.6825	0.1069	-0.404
Mof_C 	C 	0.2253	0.7829	0.1275	0.275
Mof_C 	C 	0.2336	0.7444	0.1964	-0.364
Mof_C 	C 	0.3249	0.8288	0.2441	-0.341
Mof_C 	C 	0.3865	0.8754	0.2887	0.423
Mof_C 	C 	0.9998	0.9738	0.2786	-0.151
Mof_C 	C 	0.001	0.9727	0.2094	-0.059
Mof_C 	C 	0.1764	0.6412	0.2501	-0.367
Mof_H 	H 	0.1345	0.6413	0.2332	0.167
Mof_H 	H 	0.1988	0.6838	0.298	0.114
Mof_H 	H 	0.1914	0.5683	0.2608	0.15
Mof_C 	C 	0.3171	0.7293	0.3486	-0.379
Mof_H 	H 	0.3604	0.7348	0.3794	0.153
Mof_H 	H 	0.3055	0.6551	0.3462	0.121
Mof_H 	H 	0.3006	0.7718	0.3736	0.126
Mof_C 	C 	0.0001	0.1105	0.3783	-0.609
Mof_H 	H 	0.9961	0.1874	0.3802	0.233
Mof_H 	H 	0.0372	0.0875	0.4251	0.192
Mof_H 	H 	0.9667	0.0754	0.3769	0.199
Mof_C 	C 	0.9988	0.8408	0.3795	-0.52
Mof_H 	H 	0.9598	0.8584	0.3706	0.173
Mof_H 	H 	0.0292	0.8823	0.4238	0.153
Mof_H 	H 	0.0065	0.7651	0.3915	0.165
Mof_C 	C 	0.1837	0.689	0.184	0.365
Mof_C 	C 	0.2933	0.7708	0.2641	0.328
Mof_C 	C 	0.001	0.0808	0.303	0.443
Mof_C 	C 	0.0001	0.8669	0.3036	0.357
Mof_S 	S 	0.17596	0.6546	0.2127	-0.203
Mof_S 	S 	0.30602	0.7559	0.3091	-0.175
Mof_C 	C 	0.2289	0.7691	0.1587	-0.393
Mof_C 	C 	0.2372	0.7272	0.2254	0.262
Mof_C 	C 	0.1473	0.7798	0.0032	-0.406
Mof_H 	H 	0.1098	0.7443	0.9668	0.162
Mof_H 	H 	0.1767	0.7613	0.9896	0.13
Mof_H 	H 	0.1413	0.8567	0.9991	0.127
Mof_C 	C 	0.2855	0.8918	0.1096	-0.353
Mof_H 	H 	0.3183	0.9422	0.1364	0.141
Mof_H 	H 	0.2487	0.9303	0.0751	0.108
Mof_H 	H 	0.2934	0.8427	0.0781	0.124
Mof_C 	C 	0.1694	0.7444	0.0872	0.333
Mof_C 	C 	0.2795	0.829	0.1712	0.322
Mof_Eu	Eu	0.49682	0.02545	0.62446	2.193
Mof_S 	S 	0.49868	0.4021	0.6695	-0.139
Mof_S 	S 	0.5034	0.6544	0.6749	-0.109
Mof_S 	S 	0.65741	0.7495	0.5425	-0.176
Mof_S 	S 	0.78602	0.6448	0.6374	-0.178
Mof_O 	O 	0.5608	0.9229	0.6015	-0.636
Mof_O 	O 	0.5494	0.8636	0.4879	-0.661
Mof_O 	O 	0.9209	0.6455	0.8628	-0.47
Mof_O 	O 	0.903	0.5626	0.7521	-0.486
Mof_O 	O 	0.4846	0.178	0.6851	-0.642
Mof_O 	O 	0.5116	0.8756	0.7024	-0.667
Mof_C 	C 	0.5778	0.8715	0.5618	0.629
Mof_C 	C 	0.6378	0.8175	0.6069	-0.404
Mof_C 	C 	0.7253	0.7171	0.6275	0.274
Mof_C 	C 	0.7336	0.7556	0.6964	-0.364
Mof_C 	C 	0.8249	0.6712	0.7441	-0.341
Mof_C 	C 	0.8865	0.6246	0.7887	0.423
Mof_C 	C 	0.4998	0.5262	0.7786	-0.155
Mof_C 	C 	0.501	0.5273	0.7094	-0.053
Mof_C 	C 	0.6764	0.8588	0.7501	-0.368
Mof_H 	H 	0.6345	0.8587	0.7332	0.168
Mof_H 	H 	0.6988	0.8162	0.798	0.115
Mof_H 	H 	0.6914	0.9317	0.7608	0.151
Mof_C 	C 	0.8171	0.7707	0.8486	-0.38
Mof_H 	H 	0.8604	0.7652	0.8794	0.154
Mof_H 	H 	0.8055	0.8449	0.8462	0.123
Mof_H 	H 	0.8006	0.7282	0.8736	0.126
Mof_C 	C 	0.5001	0.3895	0.8783	-0.593
Mof_H 	H 	0.4961	0.3126	0.8802	0.224
Mof_H 	H 	0.5372	0.4125	0.9251	0.188
Mof_H 	H 	0.4667	0.4246	0.8769	0.192
Mof_C 	C 	0.4988	0.6592	0.8795	-0.569
Mof_H 	H 	0.4598	0.6416	0.8706	0.186
Mof_H 	H 	0.5292	0.6177	0.9238	0.169
Mof_H 	H 	0.5065	0.7349	0.8915	0.181
Mof_C 	C 	0.6837	0.811	0.684	0.366
Mof_C 	C 	0.7933	0.7292	0.7641	0.329
Mof_C 	C 	0.501	0.4192	0.803	0.431
Mof_C 	C 	0.5001	0.6331	0.8036	0.375
Mof_S 	S 	0.67596	0.8454	0.7127	-0.204
Mof_S 	S 	0.80602	0.7441	0.8091	-0.176
Mof_C 	C 	0.7289	0.7309	0.6587	-0.392
Mof_C 	C 	0.7372	0.7728	0.7254	0.26
Mof_C 	C 	0.6473	0.7202	0.5032	-0.404
Mof_H 	H 	0.6098	0.7557	0.4668	0.162
Mof_H 	H 	0.6767	0.7387	0.4896	0.13
Mof_H 	H 	0.6413	0.6433	0.4991	0.127
Mof_C 	C 	0.7855	0.6082	0.6096	-0.353
Mof_H 	H 	0.8183	0.5578	0.6364	0.142
Mof_H 	H 	0.7487	0.5697	0.5751	0.108
Mof_H 	H 	0.7934	0.6573	0.5781	0.124
Mof_C 	C 	0.6694	0.7556	0.5872	0.333
Mof_C 	C 	0.7795	0.671	0.6712	0.323
Mof_Eu	Eu	0.99682	0.52545	0.62446	2.211
Mof_S 	S 	0.99868	0.9021	0.6695	-0.123
Mof_S 	S 	0.0034	0.1544	0.6749	-0.102
Mof_S 	S 	0.15741	0.2495	0.5425	-0.176
Mof_S 	S 	0.28602	0.1448	0.6374	-0.177
Mof_O 	O 	0.0608	0.4229	0.6015	-0.641
Mof_O 	O 	0.0494	0.3636	0.4879	-0.662
Mof_O 	O 	0.4209	0.1455	0.8628	-0.473
Mof_O 	O 	0.403	0.0626	0.7521	-0.489
Mof_O 	O 	0.9846	0.678	0.6851	-0.638
Mof_O 	O 	0.0116	0.3756	0.7024	-0.672
Mof_C 	C 	0.0778	0.3715	0.5618	0.629
Mof_C 	C 	0.1378	0.3175	0.6069	-0.404
Mof_C 	C 	0.2253	0.2171	0.6275	0.275
Mof_C 	C 	0.2336	0.2556	0.6964	-0.364
Mof_C 	C 	0.3249	0.1712	0.7441	-0.341
Mof_C 	C 	0.3865	0.1246	0.7887	0.423
Mof_C 	C 	0.9998	0.0262	0.7786	-0.147
Mof_C 	C 	0.001	0.0273	0.7094	-0.067
Mof_C 	C 	0.1764	0.3588	0.7501	-0.366
Mof_H 	H 	0.1345	0.3587	0.7332	0.166
Mof_H 	H 	0.1988	0.3162	0.798	0.113
Mof_H 	H 	0.1914	0.4317	0.7608	0.149
Mof_C 	C 	0.3171	0.2707	0.8486	-0.379
Mof_H 	H 	0.3604	0.2652	0.8794	0.152
Mof_H 	H 	0.3055	0.3449	0.8462	0.121
Mof_H 	H 	0.3006	0.2282	0.8736	0.125
Mof_C 	C 	0.0001	0.8895	0.8783	-0.619
Mof_H 	H 	0.9961	0.8126	0.8802	0.239
Mof_H 	H 	0.0372	0.9125	0.9251	0.196
Mof_H 	H 	0.9667	0.9246	0.8769	0.205
Mof_C 	C 	0.9988	0.1592	0.8795	-0.469
Mof_H 	H 	0.9598	0.1416	0.8706	0.158
Mof_H 	H 	0.0292	0.1177	0.9238	0.134
Mof_H 	H 	0.0065	0.2349	0.8915	0.147
Mof_C 	C 	0.1837	0.311	0.684	0.364
Mof_C 	C 	0.2933	0.2292	0.7641	0.327
Mof_C 	C 	0.001	0.9192	0.803	0.449
Mof_C 	C 	0.0001	0.1331	0.8036	0.339
Mof_S 	S 	0.17596	0.3454	0.7127	-0.202
Mof_S 	S 	0.30602	0.2441	0.8091	-0.175
Mof_C 	C 	0.2289	0.2309	0.6587	-0.392
Mof_C 	C 	0.2372	0.2728	0.7254	0.262
Mof_C 	C 	0.1473	0.2202	0.5032	-0.405
Mof_H 	H 	0.1098	0.2557	0.4668	0.162
Mof_H 	H 	0.1767	0.2387	0.4896	0.13
Mof_H 	H 	0.1413	0.1433	0.4991	0.127
Mof_C 	C 	0.2855	0.1082	0.6096	-0.353
Mof_H 	H 	0.3183	0.0578	0.6364	0.142
Mof_H 	H 	0.2487	0.0697	0.5751	0.109
Mof_H 	H 	0.2934	0.1573	0.5781	0.124
Mof_C 	C 	0.1694	0.2556	0.5872	0.332
Mof_C 	C 	0.2795	0.171	0.6712	0.323
Mof_Eu	Eu	0.50318	0.02545	0.87554	2.19
Mof_S 	S 	0.50132	0.4021	0.8305	-0.139
Mof_S 	S 	0.4966	0.6544	0.8251	-0.109
Mof_S 	S 	0.34259	0.7495	0.9575	-0.173
Mof_S 	S 	0.21398	0.6448	0.8626	-0.177
Mof_O 	O 	0.4392	0.9229	0.8985	-0.635
Mof_O 	O 	0.4506	0.8636	0.0121	-0.663
Mof_O 	O 	0.0791	0.6455	0.6372	-0.475
Mof_O 	O 	0.097	0.5626	0.7479	-0.491
Mof_O 	O 	0.5154	0.178	0.8149	-0.641
Mof_O 	O 	0.4884	0.8756	0.7976	-0.667
Mof_C 	C 	0.4222	0.8715	0.9382	0.631
Mof_C 	C 	0.3622	0.8175	0.8931	-0.402
Mof_C 	C 	0.2747	0.7171	0.8725	0.275
Mof_C 	C 	0.2664	0.7556	0.8036	-0.363
Mof_C 	C 	0.1751	0.6712	0.7559	-0.341
Mof_C 	C 	0.1135	0.6246	0.7113	0.423
Mof_C 	C 	0.5002	0.5262	0.7214	-0.155
Mof_C 	C 	0.499	0.5273	0.7906	-0.053
Mof_C 	C 	0.3236	0.8588	0.7499	-0.368
Mof_H 	H 	0.3655	0.8587	0.7668	0.168
Mof_H 	H 	0.3012	0.8162	0.702	0.114
Mof_H 	H 	0.3086	0.9317	0.7392	0.151
Mof_C 	C 	0.1829	0.7707	0.6514	-0.38
Mof_H 	H 	0.1396	0.7652	0.6206	0.153
Mof_H 	H 	0.1945	0.8449	0.6538	0.122
Mof_H 	H 	0.1994	0.7282	0.6264	0.126
Mof_C 	C 	0.4999	0.3895	0.6217	-0.594
Mof_H 	H 	0.5039	0.3126	0.6198	0.224
Mof_H 	H 	0.4628	0.4125	0.5749	0.188
Mof_H 	H 	0.5333	0.4246	0.6231	0.192
Mof_C 	C 	0.5012	0.6592	0.6205	-0.568
Mof_H 	H 	0.5402	0.6416	0.6294	0.186
Mof_H 	H 	0.4708	0.6177	0.5762	0.169
Mof_H 	H 	0.4935	0.7349	0.6085	0.181
Mof_C 	C 	0.3163	0.811	0.816	0.366
Mof_C 	C 	0.2067	0.7292	0.7359	0.328
Mof_C 	C 	0.499	0.4192	0.697	0.431
Mof_C 	C 	0.4999	0.6331	0.6964	0.375
Mof_S 	S 	0.32404	0.8454	0.7873	-0.203
Mof_S 	S 	0.19398	0.7441	0.6909	-0.175
Mof_C 	C 	0.2711	0.7309	0.8413	-0.391
Mof_C 	C 	0.2628	0.7728	0.7746	0.26
Mof_C 	C 	0.3527	0.7202	0.9968	-0.399
Mof_H 	H 	0.3902	0.7557	0.0332	0.16
Mof_H 	H 	0.3233	0.7387	0.0104	0.128
Mof_H 	H 	0.3587	0.6433	0.0009	0.125
Mof_C 	C 	0.2145	0.6082	0.8904	-0.352
Mof_H 	H 	0.1817	0.5578	0.8636	0.141
Mof_H 	H 	0.2513	0.5697	0.9249	0.108
Mof_H 	H 	0.2066	0.6573	0.9219	0.123
Mof_C 	C 	0.3306	0.7556	0.9128	0.328
Mof_C 	C 	0.2205	0.671	0.8288	0.322
Mof_Eu	Eu	0.00318	0.52545	0.87554	2.178
Mof_S 	S 	0.00132	0.9021	0.8305	-0.158
Mof_S 	S 	0.9966	0.1544	0.8251	-0.109
Mof_S 	S 	0.84259	0.2495	0.9575	-0.177
Mof_S 	S 	0.71398	0.1448	0.8626	-0.177
Mof_O 	O 	0.9392	0.4229	0.8985	-0.632
Mof_O 	O 	0.9506	0.3636	0.0121	-0.662
Mof_O 	O 	0.5791	0.1455	0.6372	-0.473
Mof_O 	O 	0.597	0.0626	0.7479	-0.489
Mof_O 	O 	0.0154	0.678	0.8149	-0.641
Mof_O 	O 	0.9884	0.3756	0.7976	-0.657
Mof_C 	C 	0.9222	0.3715	0.9382	0.631
Mof_C 	C 	0.8622	0.3175	0.8931	-0.403
Mof_C 	C 	0.7747	0.2171	0.8725	0.275
Mof_C 	C 	0.7664	0.2556	0.8036	-0.364
Mof_C 	C 	0.6751	0.1712	0.7559	-0.341
Mof_C 	C 	0.6135	0.1246	0.7113	0.423
Mof_C 	C 	0.0002	0.0262	0.7214	-0.167
Mof_C 	C 	0.999	0.0273	0.7906	-0.04
Mof_C 	C 	0.8236	0.3588	0.7499	-0.367
Mof_H 	H 	0.8655	0.3587	0.7668	0.168
Mof_H 	H 	0.8012	0.3162	0.702	0.114
Mof_H 	H 	0.8086	0.4317	0.7392	0.15
Mof_C 	C 	0.6829	0.2707	0.6514	-0.38
Mof_H 	H 	0.6396	0.2652	0.6206	0.153
Mof_H 	H 	0.6945	0.3449	0.6538	0.121
Mof_H 	H 	0.6994	0.2282	0.6264	0.126
Mof_C 	C 	0.9999	0.8895	0.6217	-0.589
Mof_H 	H 	0.0039	0.8126	0.6198	0.219
Mof_H 	H 	0.9628	0.9125	0.5749	0.187
Mof_H 	H 	0.0333	0.9246	0.6231	0.187
Mof_C 	C 	0.0012	0.1592	0.6205	-0.656
Mof_H 	H 	0.0402	0.1416	0.6294	0.211
Mof_H 	H 	0.9708	0.1177	0.5762	0.198
Mof_H 	H 	0.9935	0.2349	0.6085	0.21
Mof_C 	C 	0.8163	0.311	0.816	0.366
Mof_C 	C 	0.7067	0.2292	0.7359	0.328
Mof_C 	C 	0.999	0.9192	0.697	0.433
Mof_C 	C 	0.9999	0.1331	0.6964	0.408
Mof_S 	S 	0.82404	0.3454	0.7873	-0.203
Mof_S 	S 	0.69398	0.2441	0.6909	-0.175
Mof_C 	C 	0.7711	0.2309	0.8413	-0.393
Mof_C 	C 	0.7628	0.2728	0.7746	0.261
Mof_C 	C 	0.8527	0.2202	0.9968	-0.405
Mof_H 	H 	0.8902	0.2557	0.0332	0.162
Mof_H 	H 	0.8233	0.2387	0.0104	0.13
Mof_H 	H 	0.8587	0.1433	0.0009	0.128
Mof_C 	C 	0.7145	0.1082	0.8904	-0.353
Mof_H 	H 	0.6817	0.0578	0.8636	0.141
Mof_H 	H 	0.7513	0.0697	0.9249	0.108
Mof_H 	H 	0.7066	0.1573	0.9219	0.124
Mof_C 	C 	0.8306	0.2556	0.9128	0.334
Mof_C 	C 	0.7205	0.171	0.8288	0.322
Mof_C 	C 	0.5	0.7761	0.25	0.668
Mof_C 	C 	0.5	0.6575	0.25	-0.447
Mof_C 	C 	0.5	0.1692	0.25	0.62
Mof_C 	C 	0.5	0.2897	0.25	-0.397
Mof_C 	C 	1.07466e-33	0.2761	0.25	0.668
Mof_C 	C 	1.07466e-33	0.1575	0.25	-0.452
Mof_C 	C 	1.07466e-33	0.6692	0.25	0.616
Mof_C 	C 	1.07466e-33	0.7897	0.25	-0.396
Mof_C 	C 	0.5	0.2239	0.75	0.668
Mof_C 	C 	0.5	0.3425	0.75	-0.447
Mof_C 	C 	0.5	0.8308	0.75	0.62
Mof_C 	C 	0.5	0.7103	0.75	-0.397
Mof_C 	C 	4.24372e-17	0.7239	0.75	0.665
Mof_C 	C 	3.22399e-33	0.8425	0.75	-0.455
Mof_C 	C 	3.22399e-33	0.3308	0.75	0.613
Mof_C 	C 	3.22399e-33	0.2103	0.75	-0.4
_end
