data_functionalizedCrystal
_audit_creation_method	'EQeq! by Chris Wilmer'
_symmetry_space_group_name_H-M	'P1'
_symmetry_Int_Tables_number	1
_symmetry_cell_setting	triclinic
loop_
_symmetry_equiv_pos_as_xyz
  x,y,z
_cell_length_a	10.925
_cell_length_b	10.925
_cell_length_c	20.461
_cell_angle_alpha	90
_cell_angle_beta	90
_cell_angle_gamma	90
loop_
_atom_site_label
_atom_site_type_symbol
_atom_site_fract_x
_atom_site_fract_y
_atom_site_fract_z
_atom_site_charge
Mof_Gd	Gd	0.15357	0.41139	0.18504	1.788
Mof_O 	O 	0.0996	0.247	0.1146	-0.461
Mof_O 	O 	0.3197	0.5403	0.2178	-0.683
Mof_O 	O 	0.1088	0.4439	0.30014	-0.665
Mof_O 	O 	0.1459	0.498	0.07759	-0.39
Mof_C 	C 	0.066	0.4997	0.03696	0.046
Mof_Gd	Gd	0.65357	0.91139	0.68504	1.939
Mof_O 	O 	0.5996	0.747	0.6146	-0.446
Mof_O 	O 	0.8197	0.0403	0.7178	-0.685
Mof_O 	O 	0.6088	0.9439	0.80014	-0.616
Mof_O 	O 	0.6459	0.998	0.57759	-0.421
Mof_C 	C 	0.566	0.9997	0.53696	0.283
Mof_Gd	Gd	0.84643	0.58861	0.18504	1.888
Mof_O 	O 	0.9004	0.753	0.1146	-0.42
Mof_O 	O 	0.6803	0.4597	0.2178	-0.695
Mof_O 	O 	0.8912	0.5561	0.30014	-0.626
Mof_O 	O 	0.8541	0.502	0.07759	-0.413
Mof_C 	C 	0.934	0.5003	0.03696	0.152
Mof_Gd	Gd	0.34643	0.08861	0.68504	1.743
Mof_O 	O 	0.4004	0.253	0.6146	-0.432
Mof_O 	O 	0.1803	0.9597	0.7178	-0.621
Mof_O 	O 	0.3912	0.0561	0.80014	-0.675
Mof_O 	O 	0.3541	0.002	0.57759	-0.367
Mof_C 	C 	0.434	0.0003	0.53696	-0.083
Mof_Gd	Gd	0.41139	0.84643	0.81496	1.89
Mof_O 	O 	0.247	0.9004	0.8854	-0.428
Mof_O 	O 	0.5403	0.6803	0.7822	-0.696
Mof_O 	O 	0.4439	0.8912	0.69986	-0.626
Mof_O 	O 	0.498	0.8541	0.92241	-0.412
Mof_C 	C 	0.4997	0.934	0.96304	0.153
Mof_Gd	Gd	0.91139	0.34643	0.31496	1.936
Mof_O 	O 	0.747	0.4004	0.3854	-0.442
Mof_O 	O 	0.0403	0.1803	0.2822	-0.714
Mof_O 	O 	0.9439	0.3912	0.19986	-0.617
Mof_O 	O 	0.998	0.3541	0.42241	-0.428
Mof_C 	C 	0.9997	0.434	0.46304	0.282
Mof_Gd	Gd	0.58861	0.15357	0.81496	1.79
Mof_O 	O 	0.753	0.0996	0.8854	-0.45
Mof_O 	O 	0.4597	0.3197	0.7822	-0.681
Mof_O 	O 	0.5561	0.1088	0.69986	-0.661
Mof_O 	O 	0.502	0.1459	0.92241	-0.392
Mof_C 	C 	0.5003	0.066	0.96304	0.045
Mof_Gd	Gd	0.08861	0.65357	0.31496	1.759
Mof_O 	O 	0.253	0.5996	0.3854	-0.438
Mof_O 	O 	0.9597	0.8197	0.2822	-0.602
Mof_O 	O 	0.0561	0.6088	0.19986	-0.67
Mof_O 	O 	0.002	0.6459	0.42241	-0.358
Mof_C 	C 	0.0003	0.566	0.46304	-0.081
Mof_Gd	Gd	0.84643	0.41139	0.81496	1.89
Mof_O 	O 	0.9004	0.247	0.8854	-0.428
Mof_O 	O 	0.6803	0.5403	0.7822	-0.696
Mof_O 	O 	0.8912	0.4439	0.69986	-0.626
Mof_O 	O 	0.8541	0.498	0.92241	-0.412
Mof_C 	C 	0.934	0.4997	0.96304	0.153
Mof_Gd	Gd	0.34643	0.91139	0.31496	1.936
Mof_O 	O 	0.4004	0.747	0.3854	-0.442
Mof_O 	O 	0.1803	0.0403	0.2822	-0.714
Mof_O 	O 	0.3912	0.9439	0.19986	-0.617
Mof_O 	O 	0.3541	0.998	0.42241	-0.428
Mof_C 	C 	0.434	0.9997	0.46304	0.282
Mof_Gd	Gd	0.15357	0.58861	0.81496	1.79
Mof_O 	O 	0.0996	0.753	0.8854	-0.45
Mof_O 	O 	0.3197	0.4597	0.7822	-0.681
Mof_O 	O 	0.1088	0.5561	0.69986	-0.661
Mof_O 	O 	0.1459	0.502	0.92241	-0.392
Mof_C 	C 	0.066	0.5003	0.96304	0.045
Mof_Gd	Gd	0.65357	0.08861	0.31496	1.759
Mof_O 	O 	0.5996	0.253	0.3854	-0.438
Mof_O 	O 	0.8197	0.9597	0.2822	-0.602
Mof_O 	O 	0.6088	0.0561	0.19986	-0.67
Mof_O 	O 	0.6459	0.002	0.42241	-0.358
Mof_C 	C 	0.566	0.0003	0.46304	-0.081
Mof_Gd	Gd	0.58861	0.84643	0.18504	1.888
Mof_O 	O 	0.753	0.9004	0.1146	-0.42
Mof_O 	O 	0.4597	0.6803	0.2178	-0.695
Mof_O 	O 	0.5561	0.8912	0.30014	-0.626
Mof_O 	O 	0.502	0.8541	0.07759	-0.413
Mof_C 	C 	0.5003	0.934	0.03696	0.152
Mof_Gd	Gd	0.08861	0.34643	0.68504	1.743
Mof_O 	O 	0.253	0.4004	0.6146	-0.432
Mof_O 	O 	0.9597	0.1803	0.7178	-0.621
Mof_O 	O 	0.0561	0.3912	0.80014	-0.675
Mof_O 	O 	0.002	0.3541	0.57759	-0.367
Mof_C 	C 	0.0003	0.434	0.53696	-0.083
Mof_Gd	Gd	0.41139	0.15357	0.18504	1.789
Mof_O 	O 	0.247	0.0996	0.1146	-0.46
Mof_O 	O 	0.5403	0.3197	0.2178	-0.682
Mof_O 	O 	0.4439	0.1088	0.30014	-0.664
Mof_O 	O 	0.498	0.1459	0.07759	-0.39
Mof_C 	C 	0.4997	0.066	0.03696	0.046
Mof_Gd	Gd	0.91139	0.65357	0.68504	1.939
Mof_O 	O 	0.747	0.5996	0.6146	-0.446
Mof_O 	O 	0.0403	0.8197	0.7178	-0.685
Mof_O 	O 	0.9439	0.6088	0.80014	-0.616
Mof_O 	O 	0.998	0.6459	0.57759	-0.421
Mof_C 	C 	0.9997	0.566	0.53696	0.283
Mof_Gd	Gd	0.5	0.5	0.15522	1.501
Mof_Gd	Gd	1.49377e-32	1.03367e-32	0.65522	1.232
Mof_Gd	Gd	0.5	0.5	0.84478	1.501
Mof_Gd	Gd	7.58942e-33	5.16834e-33	0.34478	1.236
Mof_O 	O 	0.2746	0.7254	0.2604	-0.671
Mof_C 	C 	0.3453	0.6547	0.2282	0.681
Mof_O 	O 	0.7746	0.2254	0.7604	-0.669
Mof_C 	C 	0.8453	0.1547	0.7282	0.677
Mof_O 	O 	0.7254	0.2746	0.2604	-0.671
Mof_C 	C 	0.6547	0.3453	0.2282	0.681
Mof_O 	O 	0.2254	0.7746	0.7604	-0.669
Mof_C 	C 	0.1547	0.8453	0.7282	0.677
Mof_O 	O 	0.7254	0.7254	0.7396	-0.683
Mof_C 	C 	0.6547	0.6547	0.7718	0.69
Mof_O 	O 	0.2254	0.2254	0.2396	-0.674
Mof_C 	C 	0.1547	0.1547	0.2718	0.69
Mof_O 	O 	0.2746	0.2746	0.7396	-0.659
Mof_C 	C 	0.3453	0.3453	0.7718	0.672
Mof_O 	O 	0.7746	0.7746	0.2396	-0.666
Mof_C 	C 	0.8453	0.8453	0.2718	0.666
Mof_O 	O 	0.3455	0.3455	0.135	-0.598
Mof_C 	C 	0.1467	0.1467	0.0871	0.421
Mof_H 	H 	0.1111	0.1111	0.0504	-0.132
Mof_O 	O 	0.8455	0.8455	0.635	-0.551
Mof_C 	C 	0.6467	0.6467	0.5871	0.43
Mof_H 	H 	0.6111	0.6111	0.5504	-0.101
Mof_O 	O 	0.6545	0.6545	0.135	-0.613
Mof_C 	C 	0.8533	0.8533	0.0871	0.421
Mof_H 	H 	0.8889	0.8889	0.0504	-0.074
Mof_O 	O 	0.1545	0.1545	0.635	-0.591
Mof_C 	C 	0.3533	0.3533	0.5871	0.411
Mof_H 	H 	0.3889	0.3889	0.5504	-0.101
Mof_O 	O 	0.3455	0.6545	0.865	-0.606
Mof_C 	C 	0.1467	0.8533	0.9129	0.421
Mof_H 	H 	0.1111	0.8889	0.9496	-0.1
Mof_O 	O 	0.8455	0.1545	0.365	-0.569
Mof_C 	C 	0.6467	0.3533	0.4129	0.422
Mof_H 	H 	0.6111	0.3889	0.4496	-0.101
Mof_O 	O 	0.6545	0.3455	0.865	-0.606
Mof_C 	C 	0.8533	0.1467	0.9129	0.421
Mof_H 	H 	0.8889	0.1111	0.9496	-0.1
Mof_O 	O 	0.1545	0.8455	0.365	-0.569
Mof_C 	C 	0.3533	0.6467	0.4129	0.422
Mof_H 	H 	0.3889	0.6111	0.4496	-0.101
_end
