# CIF file generated by openbabel 3.1.0, see https://openbabel.org
data_I
_chemical_name_common 'image0'
_cell_length_a 9.5121
_cell_length_b 9.8819
_cell_length_c 12.1172
_cell_angle_alpha 70.533
_cell_angle_beta 73.473
_cell_angle_gamma 82.328
_space_group_name_H-M_alt 'P 1'
_space_group_name_Hall 'P 1'
loop_
    _symmetry_equiv_pos_as_xyz
    x,y,z
loop_
    _atom_site_label
    _atom_site_type_symbol
    _atom_site_fract_x
    _atom_site_fract_y
    _atom_site_fract_z
    _atom_site_occupancy
    Mn1      Mn       0.14671    0.30605    0.64121    1.000
    Al1      Al       0.23050    0.97474    0.43051    1.000
    Al2      Al       0.48360    0.52428    0.68064    1.000
    Al3      Al       0.93339    0.67164    0.85039    1.000
    P1       P        0.18823    0.42239    0.86757    1.000
    P2       P        0.03241    0.97995    0.68437    1.000
    P3       P        0.24560    0.30683    0.34084    1.000
    P4       P        0.53375    0.28318    0.56789    1.000
    O1       O        0.08550    0.55640    0.85260    1.000
    O2       O        0.29450    0.14820    0.36530    1.000
    O3       O        0.62290    0.14190    0.59980    1.000
    O4       O        0.34580    0.47630    0.81340    1.000
    O5       O        0.99680    0.84490    0.79500    1.000
    O6       O        0.15800    0.32050    0.81100    1.000
    O7       O        0.88850    0.04430    0.65040    1.000
    O8       O        0.13150    0.92930    0.58070    1.000
    O9       O        0.17610    0.35030    0.00310    1.000
    O10      O        0.37440    0.26270    0.59330    1.000
    O11      O        0.17170    0.35060    0.23670    1.000
    O12      O        0.56520    0.37360    0.63950    1.000
    O13      O        0.59930    0.36190    0.43130    1.000
    O14      O        0.14260    0.33580    0.45070    1.000
    O15      O        0.38660    0.39130    0.29310    1.000
    O16      O        0.10140    0.08510    0.71480    1.000
    Mn2      Mn       0.85329    0.69395    0.35879    1.000
    Al4      Al       0.76950    0.02526    0.56949    1.000
    Al5      Al       0.51640    0.47572    0.31936    1.000
    Al6      Al       0.06661    0.32836    0.14961    1.000
    P5       P        0.81177    0.57761    0.13243    1.000
    P6       P        0.96759    0.02005    0.31563    1.000
    P7       P        0.75440    0.69317    0.65916    1.000
    P8       P        0.46625    0.71682    0.43211    1.000
    O17      O        0.91450    0.44360    0.14740    1.000
    O18      O        0.70550    0.85180    0.63470    1.000
    O19      O        0.37710    0.85810    0.40020    1.000
    O20      O        0.65420    0.52370    0.18660    1.000
    O21      O        0.00320    0.15510    0.20500    1.000
    O22      O        0.84200    0.67950    0.18900    1.000
    O23      O        0.11150    0.95570    0.34960    1.000
    O24      O        0.86850    0.07070    0.41930    1.000
    O25      O        0.82390    0.64970    0.99690    1.000
    O26      O        0.62560    0.73730    0.40670    1.000
    O27      O        0.82830    0.64940    0.76330    1.000
    O28      O        0.43480    0.62640    0.36050    1.000
    O29      O        0.40070    0.63810    0.56870    1.000
    O30      O        0.85740    0.66420    0.54930    1.000
    O31      O        0.61340    0.60870    0.70690    1.000
    O32      O        0.89860    0.91490    0.28520    1.000
