data_functionalizedCrystal
_audit_creation_method	'EQeq! by Chris Wilmer'
_symmetry_space_group_name_H-M	'P1'
_symmetry_Int_Tables_number	1
_symmetry_cell_setting	triclinic
loop_
_symmetry_equiv_pos_as_xyz
  x,y,z
_cell_length_a	10.66
_cell_length_b	12.4897
_cell_length_c	12.4897
_cell_angle_alpha	92.1281
_cell_angle_beta	92.8574
_cell_angle_gamma	92.8574
loop_
_atom_site_label
_atom_site_type_symbol
_atom_site_fract_x
_atom_site_fract_y
_atom_site_fract_z
_atom_site_charge
Mof_Cd	Cd	0.75	0.14052	0.85948	0.469
Mof_Cd	Cd	0.5	0	-0	0.416
Mof_Cd	Cd	0.25	0.85948	0.14052	0.468
Mof_Cd	Cd	-0	0	-0	0.409
Mof_H 	H 	0.997	0.1696	0.4364	0.045
Mof_H 	H 	0.0118	0.0982	0.7454	0.025
Mof_H 	H 	0.5082	0.7046	0.6778	0.035
Mof_H 	H 	0.4882	0.2546	0.9018	0.055
Mof_H 	H 	0.6705	0.4229	0.1131	0.052
Mof_H 	H 	0.1406	0.8821	0.6961	0.071
Mof_H 	H 	0.3036	0.8144	0.3876	0.039
Mof_H 	H 	0.45	0.7728	0.8402	0.07
Mof_H 	H 	0.0117	0.5621	0.0851	0.034
Mof_H 	H 	0.0082	0.6778	0.7046	0.021
Mof_H 	H 	0.55	0.2272	0.1598	0.058
Mof_H 	H 	0.95	0.8402	0.7728	0.078
Mof_H 	H 	0.6406	0.6961	0.8821	0.076
Mof_H 	H 	0.9883	0.4379	0.9149	0.077
Mof_H 	H 	0.5118	0.7454	0.0982	0.042
Mof_H 	H 	0.8594	0.1179	0.3039	0.058
Mof_H 	H 	0.8813	0.4079	0.0935	0.051
Mof_H 	H 	0.3295	0.5771	0.8869	0.071
Mof_H 	H 	0.497	0.4364	0.1696	0.053
Mof_H 	H 	0.6187	0.9065	0.5921	0.059
Mof_H 	H 	0.503	0.5636	0.8304	0.05
Mof_H 	H 	0.6964	0.1856	0.6124	0.034
Mof_H 	H 	0.3828	0.7226	0.5248	0.062
Mof_H 	H 	0.3813	0.0935	0.4079	0.04
Mof_H 	H 	0.9918	0.3222	0.2954	0.058
Mof_H 	H 	0.6172	0.2774	0.4752	0.062
Mof_H 	H 	0.8828	0.5248	0.7226	0.071
Mof_H 	H 	0.3594	0.3039	0.1179	0.05
Mof_H 	H 	0.003	0.8304	0.5636	0.056
Mof_H 	H 	0.1964	0.6124	0.1856	0.038
Mof_H 	H 	0.7881	0.8903	0.2561	0.079
Mof_H 	H 	0.4883	0.9149	0.4379	0.063
Mof_H 	H 	0.8036	0.3876	0.8144	0.036
Mof_H 	H 	0.1705	0.1131	0.4229	0.059
Mof_H 	H 	0.1187	0.5921	0.9065	0.05
Mof_H 	H 	0.2119	0.1097	0.7439	0.076
Mof_H 	H 	0.8295	0.8869	0.5771	0.064
Mof_H 	H 	0.4918	0.2954	0.3222	0.038
Mof_H 	H 	0.5117	0.0851	0.5621	0.05
Mof_H 	H 	0.2881	0.2561	0.8903	0.085
Mof_H 	H 	0.7119	0.7439	0.1097	0.069
Mof_H 	H 	0.05	0.1598	0.2272	0.046
Mof_H 	H 	0.1172	0.4752	0.2774	0.051
Mof_H 	H 	0.9882	0.9018	0.2546	0.069
Mof_C 	C 	0.7517	0.1951	0.4057	0.034
Mof_C 	C 	0.4256	0.0906	0.568	-0.048
Mof_C 	C 	0.5744	0.9094	0.432	-0.032
Mof_C 	C 	0.2143	0.8457	0.6927	-0.061
Mof_C 	C 	0.3318	0.5047	0.1759	-0.001
Mof_C 	C 	0.5387	0.921	0.234	0.299
Mof_C 	C 	0.7778	0.8911	0.5153	-0.06
Mof_C 	C 	0.9583	0.1604	0.5008	-0.04
Mof_C 	C 	0.1522	0.5247	0.9029	0.004
Mof_C 	C 	0.7528	0.123	0.1074	0.305
Mof_C 	C 	0.831	0.8855	0.4151	0.031
Mof_C 	C 	0.2462	0.1062	0.677	-0.077
Mof_C 	C 	0.4583	0.5008	0.1604	-0.071
Mof_C 	C 	0.7472	0.8926	0.877	0.299
Mof_C 	C 	0.2538	0.323	0.8938	-0.072
Mof_C 	C 	0.8589	0.5901	0.7513	-0.104
Mof_C 	C 	0.7134	0.1664	0.2138	-0.045
Mof_C 	C 	0.7143	0.6927	0.8457	-0.074
Mof_C 	C 	0.9613	0.766	0.079	0.304
Mof_C 	C 	0.1244	0.3301	0.9077	-0.017
Mof_C 	C 	0.669	0.5849	0.1145	0.018
Mof_C 	C 	0.0417	0.8396	0.4992	-0.073
Mof_C 	C 	0.0319	0.8786	0.315	-0.014
Mof_C 	C 	0.7857	0.1543	0.3073	-0.063
Mof_C 	C 	0.6522	0.9029	0.5247	-0.018
Mof_C 	C 	0.2222	0.1089	0.4847	-0.085
Mof_C 	C 	0.6012	0.2194	0.2212	-0.042
Mof_C 	C 	0.4337	0.7399	0.6817	-0.006
Mof_C 	C 	0.2517	0.4057	0.1951	0.014
Mof_C 	C 	0.1411	0.4099	0.2487	-0.057
Mof_C 	C 	0.9337	0.6817	0.7399	0.024
Mof_C 	C 	0.2778	0.5153	0.8911	-0.08
Mof_C 	C 	0.4681	0.685	0.1214	-0.002
Mof_C 	C 	0.3589	0.7513	0.5901	-0.083
Mof_C 	C 	0.3478	0.0971	0.4753	-0.02
Mof_C 	C 	0.7197	0.3941	0.8297	0.024
Mof_C 	C 	0.5663	0.2601	0.3183	-0.016
Mof_C 	C 	0.2803	0.6059	0.1703	0.004
Mof_C 	C 	0.1682	0.8241	0.4953	0.004
Mof_C 	C 	0.9681	0.1214	0.685	0.036
Mof_C 	C 	0.3756	0.0923	0.6699	-0.04
Mof_C 	C 	0.5307	0.5906	0.1312	-0.003
Mof_C 	C 	0.2197	0.8297	0.3941	0.016
Mof_C 	C 	0.2857	0.3073	0.1543	-0.046
Mof_C 	C 	0.169	0.1145	0.5849	0.041
Mof_C 	C 	0.7803	0.1703	0.6059	0.016
Mof_C 	C 	0.4613	0.079	0.766	0.288
Mof_C 	C 	0.2472	0.877	0.8926	0.304
Mof_C 	C 	0.8988	0.7788	0.7806	-0.065
Mof_C 	C 	0.6244	0.9077	0.3301	-0.033
Mof_C 	C 	0.2866	0.8336	0.7862	-0.022
Mof_C 	C 	0.7483	0.5943	0.8049	0.055
Mof_C 	C 	0.8318	0.1759	0.5047	-0.02
Mof_C 	C 	0.2528	0.1074	0.123	0.312
Mof_C 	C 	0.8756	0.6699	0.0923	-0.059
Mof_C 	C 	0.9256	0.568	0.0906	-0.014
Mof_C 	C 	0.2483	0.8049	0.5943	0.04
Mof_C 	C 	0.4693	0.4094	0.8688	-0.005
Mof_C 	C 	0.5417	0.4992	0.8396	-0.049
Mof_C 	C 	0.0307	0.1312	0.5906	-0.04
Mof_C 	C 	0.0663	0.3183	0.2601	-0.055
Mof_C 	C 	0.3988	0.7806	0.7788	-0.046
Mof_C 	C 	0.6682	0.4953	0.8241	-0.011
Mof_C 	C 	0.7222	0.4847	0.1089	-0.06
Mof_C 	C 	0.7866	0.7862	0.8336	-0.01
Mof_C 	C 	0.9693	0.8688	0.4094	0.025
Mof_C 	C 	0.2134	0.2138	0.1664	-0.061
Mof_C 	C 	0.1012	0.2212	0.2194	-0.016
Mof_C 	C 	0.6411	0.2487	0.4099	-0.084
Mof_C 	C 	0.0744	0.432	0.9094	-0.06
Mof_C 	C 	0.7538	0.8938	0.323	-0.056
Mof_C 	C 	0.5319	0.315	0.8786	0.016
Mof_C 	C 	0.0387	0.234	0.921	0.285
Mof_C 	C 	0.331	0.4151	0.8855	0.05
Mof_C 	C 	0.7462	0.677	0.1062	-0.057
Mof_C 	C 	0.8478	0.4753	0.0971	-0.047
Mof_N 	N 	0.153	0.8559	0.3077	-0.112
Mof_N 	N 	0.347	0.6923	0.1441	-0.123
Mof_N 	N 	0.847	0.1441	0.6923	-0.131
Mof_N 	N 	0.653	0.3077	0.8559	-0.118
Mof_O 	O 	0.8261	0.9724	0.8722	-0.245
Mof_O 	O 	0.5893	0.9313	0.1451	-0.256
Mof_O 	O 	0.8603	0.0881	0.1051	-0.286
Mof_O 	O 	0.4227	0.9189	0.2465	-0.269
Mof_O 	O 	0.0773	0.7535	0.0811	-0.297
Mof_O 	O 	0.9107	0.8549	0.0687	-0.266
Mof_O 	O 	0.9227	0.2465	0.9189	-0.262
Mof_O 	O 	0.3603	0.1051	0.0881	-0.293
Mof_O 	O 	0.4107	0.0687	0.8549	-0.265
Mof_O 	O 	0.6397	0.8949	0.9119	-0.233
Mof_O 	O 	0.5773	0.0811	0.7535	-0.289
Mof_O 	O 	0.1739	0.0276	0.1278	-0.32
Mof_O 	O 	0.1397	0.9119	0.8949	-0.234
Mof_O 	O 	0.3261	0.8722	0.9724	-0.247
Mof_O 	O 	0.6739	0.1278	0.0276	-0.317
Mof_O 	O 	0.0893	0.1451	0.9313	-0.253
_end
