# CIF file generated by openbabel 3.1.0, see https://openbabel.org
data_I
_chemical_name_common 'image0'
_cell_length_a 13.9876
_cell_length_b 13.9876
_cell_length_c 16.3093
_cell_angle_alpha 90
_cell_angle_beta 90
_cell_angle_gamma 120
_space_group_name_H-M_alt 'P 1'
_space_group_name_Hall 'P 1'
loop_
    _symmetry_equiv_pos_as_xyz
    x,y,z
loop_
    _atom_site_label
    _atom_site_type_symbol
    _atom_site_fract_x
    _atom_site_fract_y
    _atom_site_fract_z
    _atom_site_occupancy
    Cu1      Cu       0.37349    0.44462    0.55991    1.000
    N1       N        0.07440    0.42170    0.48630    1.000
    N2       N        0.12690    0.51690    0.53070    1.000
    N3       N        0.22090    0.52970    0.55650    1.000
    N4       N        0.23390    0.44790    0.53010    1.000
    N5       N        0.19990    0.64540    0.70990    1.000
    N6       N        0.10240    0.62790    0.68340    1.000
    C1       C        0.14270    0.38120    0.48730    1.000
    C2       C        0.11930    0.27330    0.44800    1.000
    H1       H        0.18770    0.27730    0.43340    1.000
    H2       H        0.07530    0.26040    0.39970    1.000
    H3       H        0.08000    0.21390    0.48610    1.000
    Cu2      Cu       0.55538    0.92887    0.55991    1.000
    N7       N        0.57830    0.65270    0.48630    1.000
    N8       N        0.48310    0.61000    0.53070    1.000
    N9       N        0.47030    0.69120    0.55650    1.000
    N10      N        0.55210    0.78600    0.53010    1.000
    N11      N        0.35460    0.55450    0.70990    1.000
    N12      N        0.37210    0.47450    0.68340    1.000
    C3       C        0.61880    0.76150    0.48730    1.000
    C4       C        0.72670    0.84600    0.44800    1.000
    H4       H        0.72270    0.91040    0.43340    1.000
    H5       H        0.73960    0.81490    0.39970    1.000
    H6       H        0.78610    0.86610    0.48610    1.000
    Cu3      Cu       0.07113    0.62651    0.55991    1.000
    N13      N        0.34730    0.92560    0.48630    1.000
    N14      N        0.39000    0.87310    0.53070    1.000
    N15      N        0.30880    0.77910    0.55650    1.000
    N16      N        0.21400    0.76610    0.53010    1.000
    N17      N        0.44550    0.80010    0.70990    1.000
    N18      N        0.52550    0.89760    0.68340    1.000
    C5       C        0.23850    0.85730    0.48730    1.000
    C6       C        0.15400    0.88070    0.44800    1.000
    H7       H        0.08960    0.81230    0.43340    1.000
    H8       H        0.18510    0.92470    0.39970    1.000
    H9       H        0.13390    0.92000    0.48610    1.000
    Cu4      Cu       0.62651    0.55538    0.05991    1.000
    N19      N        0.92560    0.57830    0.98630    1.000
    N20      N        0.87310    0.48310    0.03070    1.000
    N21      N        0.77910    0.47030    0.05650    1.000
    N22      N        0.76610    0.55210    0.03010    1.000
    N23      N        0.80010    0.35460    0.20990    1.000
    N24      N        0.89760    0.37210    0.18340    1.000
    C7       C        0.85730    0.61880    0.98730    1.000
    C8       C        0.88070    0.72670    0.94800    1.000
    H10      H        0.81230    0.72270    0.93340    1.000
    H11      H        0.92470    0.73960    0.89970    1.000
    H12      H        0.92000    0.78610    0.98610    1.000
    Cu5      Cu       0.44462    0.07113    0.05991    1.000
    N25      N        0.42170    0.34730    0.98630    1.000
    N26      N        0.51690    0.39000    0.03070    1.000
    N27      N        0.52970    0.30880    0.05650    1.000
    N28      N        0.44790    0.21400    0.03010    1.000
    N29      N        0.64540    0.44550    0.20990    1.000
    N30      N        0.62790    0.52550    0.18340    1.000
    C9       C        0.38120    0.23850    0.98730    1.000
    C10      C        0.27330    0.15400    0.94800    1.000
    H13      H        0.27730    0.08960    0.93340    1.000
    H14      H        0.26040    0.18510    0.89970    1.000
    H15      H        0.21390    0.13390    0.98610    1.000
    Cu6      Cu       0.92887    0.37349    0.05991    1.000
    N31      N        0.65270    0.07440    0.98630    1.000
    N32      N        0.61000    0.12690    0.03070    1.000
    N33      N        0.69120    0.22090    0.05650    1.000
    N34      N        0.78600    0.23390    0.03010    1.000
    N35      N        0.55450    0.19990    0.20990    1.000
    N36      N        0.47450    0.10240    0.18340    1.000
    C11      C        0.76150    0.14270    0.98730    1.000
    C12      C        0.84600    0.11930    0.94800    1.000
    H16      H        0.91040    0.18770    0.93340    1.000
    H17      H        0.81490    0.07530    0.89970    1.000
    H18      H        0.86610    0.08000    0.98610    1.000
    Cu7      Cu       0.62651    0.55538    0.44009    1.000
    N37      N        0.92560    0.57830    0.51370    1.000
    N38      N        0.87310    0.48310    0.46930    1.000
    N39      N        0.77910    0.47030    0.44350    1.000
    N40      N        0.76610    0.55210    0.46990    1.000
    N41      N        0.80010    0.35460    0.29010    1.000
    N42      N        0.89760    0.37210    0.31660    1.000
    C13      C        0.85730    0.61880    0.51270    1.000
    C14      C        0.88070    0.72670    0.55200    1.000
    H19      H        0.81230    0.72270    0.56660    1.000
    H20      H        0.92470    0.73960    0.60030    1.000
    H21      H        0.92000    0.78610    0.51390    1.000
    Cu8      Cu       0.44462    0.07113    0.44009    1.000
    N43      N        0.42170    0.34730    0.51370    1.000
    N44      N        0.51690    0.39000    0.46930    1.000
    N45      N        0.52970    0.30880    0.44350    1.000
    N46      N        0.44790    0.21400    0.46990    1.000
    N47      N        0.64540    0.44550    0.29010    1.000
    N48      N        0.62790    0.52550    0.31660    1.000
    C15      C        0.38120    0.23850    0.51270    1.000
    C16      C        0.27330    0.15400    0.55200    1.000
    H22      H        0.27730    0.08960    0.56660    1.000
    H23      H        0.26040    0.18510    0.60030    1.000
    H24      H        0.21390    0.13390    0.51390    1.000
    Cu9      Cu       0.92887    0.37349    0.44009    1.000
    N49      N        0.65270    0.07440    0.51370    1.000
    N50      N        0.61000    0.12690    0.46930    1.000
    N51      N        0.69120    0.22090    0.44350    1.000
    N52      N        0.78600    0.23390    0.46990    1.000
    N53      N        0.55450    0.19990    0.29010    1.000
    N54      N        0.47450    0.10240    0.31660    1.000
    C17      C        0.76150    0.14270    0.51270    1.000
    C18      C        0.84600    0.11930    0.55200    1.000
    H25      H        0.91040    0.18770    0.56660    1.000
    H26      H        0.81490    0.07530    0.60030    1.000
    H27      H        0.86610    0.08000    0.51390    1.000
    Cu10     Cu       0.37349    0.44462    0.94009    1.000
    N55      N        0.07440    0.42170    0.01370    1.000
    N56      N        0.12690    0.51690    0.96930    1.000
    N57      N        0.22090    0.52970    0.94350    1.000
    N58      N        0.23390    0.44790    0.96990    1.000
    N59      N        0.19990    0.64540    0.79010    1.000
    N60      N        0.10240    0.62790    0.81660    1.000
    C19      C        0.14270    0.38120    0.01270    1.000
    C20      C        0.11930    0.27330    0.05200    1.000
    H28      H        0.18770    0.27730    0.06660    1.000
    H29      H        0.07530    0.26040    0.10030    1.000
    H30      H        0.08000    0.21390    0.01390    1.000
    Cu11     Cu       0.55538    0.92887    0.94009    1.000
    N61      N        0.57830    0.65270    0.01370    1.000
    N62      N        0.48310    0.61000    0.96930    1.000
    N63      N        0.47030    0.69120    0.94350    1.000
    N64      N        0.55210    0.78600    0.96990    1.000
    N65      N        0.35460    0.55450    0.79010    1.000
    N66      N        0.37210    0.47450    0.81660    1.000
    C21      C        0.61880    0.76150    0.01270    1.000
    C22      C        0.72670    0.84600    0.05200    1.000
    H31      H        0.72270    0.91040    0.06660    1.000
    H32      H        0.73960    0.81490    0.10030    1.000
    H33      H        0.78610    0.86610    0.01390    1.000
    Cu12     Cu       0.07113    0.62651    0.94009    1.000
    N67      N        0.34730    0.92560    0.01370    1.000
    N68      N        0.39000    0.87310    0.96930    1.000
    N69      N        0.30880    0.77910    0.94350    1.000
    N70      N        0.21400    0.76610    0.96990    1.000
    N71      N        0.44550    0.80010    0.79010    1.000
    N72      N        0.52550    0.89760    0.81660    1.000
    C23      C        0.23850    0.85730    0.01270    1.000
    C24      C        0.15400    0.88070    0.05200    1.000
    H34      H        0.08960    0.81230    0.06660    1.000
    H35      H        0.18510    0.92470    0.10030    1.000
    H36      H        0.13390    0.92000    0.01390    1.000
    Cu13     Cu       0.33333    0.66667    0.63032    1.000
    Cu14     Cu       0.66667    0.33333    0.13032    1.000
    Cu15     Cu       0.66667    0.33333    0.36968    1.000
    Cu16     Cu       0.33333    0.66667    0.86968    1.000
    C25      C        0.04590    0.61800    0.75000    1.000
    C26      C        0.92870    0.60000    0.75000    1.000
    C27      C        0.38200    0.42790    0.75000    1.000
    C28      C        0.40000    0.32870    0.75000    1.000
    C29      C        0.57210    0.95410    0.75000    1.000
    C30      C        0.67130    0.07130    0.75000    1.000
    C31      C        0.95410    0.38200    0.25000    1.000
    C32      C        0.07130    0.40000    0.25000    1.000
    C33      C        0.61800    0.57210    0.25000    1.000
    C34      C        0.60000    0.67130    0.25000    1.000
    C35      C        0.42790    0.04590    0.25000    1.000
    C36      C        0.32870    0.92870    0.25000    1.000
