data_functionalizedCrystal
_audit_creation_method	'EQeq! by Chris Wilmer'
_symmetry_space_group_name_H-M	'P1'
_symmetry_Int_Tables_number	1
_symmetry_cell_setting	triclinic
loop_
_symmetry_equiv_pos_as_xyz
  x,y,z
_cell_length_a	7.903
_cell_length_b	10.5379
_cell_length_c	32.858
_cell_angle_alpha	90
_cell_angle_beta	90
_cell_angle_gamma	99.607
loop_
_atom_site_label
_atom_site_type_symbol
_atom_site_fract_x
_atom_site_fract_y
_atom_site_fract_z
_atom_site_charge
Mof_Co	Co	0.05326	0.48049	0.25018	1.118
Mof_Co	Co	0.44674	0.51951	0.75018	1.149
Mof_Co	Co	0.94674	0.51951	0.74982	1.163
Mof_Co	Co	0.55326	0.48049	0.24982	1.15
Mof_Co	Co	0.5	0.5	0.5	1.148
Mof_Co	Co	-0	0.5	-0	1.115
Mof_Co	Co	-5.31362e-18	0.5	0.5	1.13
Mof_Co	Co	0.5	0.5	-0	1.14
Mof_H 	H 	0.9138	0.0699	0.2384	0.094
Mof_H 	H 	0.7435	0.87	0.2389	0.041
Mof_H 	H 	0.6389	0.9164	0.5105	0.056
Mof_H 	H 	0.8037	0.1188	0.51	0.052
Mof_H 	H 	0.8285	0.5453	0.2059	0.386
Mof_H 	H 	0.7737	0.4106	0.2087	0.378
Mof_H 	H 	0.2315	0.4376	0.4569	0.367
Mof_H 	H 	0.2808	0.5728	0.457	0.371
Mof_H 	H 	0.5862	0.9301	0.7384	0.054
Mof_H 	H 	0.7565	0.13	0.7389	0.055
Mof_H 	H 	0.8611	0.0836	0.0105	0.033
Mof_H 	H 	0.6963	0.8812	0.01	0.024
Mof_H 	H 	0.6715	0.4547	0.7059	0.382
Mof_H 	H 	0.7263	0.5894	0.7087	0.379
Mof_H 	H 	0.2685	0.5624	0.9569	0.369
Mof_H 	H 	0.2192	0.4272	0.957	0.371
Mof_H 	H 	0.0862	0.9301	0.7616	0.031
Mof_H 	H 	0.2565	0.13	0.7611	0.059
Mof_H 	H 	0.3611	0.0836	0.4895	0.048
Mof_H 	H 	0.1963	0.8812	0.49	0.046
Mof_H 	H 	0.1715	0.4547	0.7941	0.377
Mof_H 	H 	0.2263	0.5894	0.7913	0.374
Mof_H 	H 	0.7685	0.5624	0.5431	0.375
Mof_H 	H 	0.7192	0.4272	0.543	0.377
Mof_H 	H 	0.4138	0.0699	0.2616	0.043
Mof_H 	H 	0.2435	0.87	0.2611	0.052
Mof_H 	H 	0.1389	0.9164	0.9895	0.08
Mof_H 	H 	0.3037	0.1188	0.99	0.074
Mof_H 	H 	0.3285	0.5453	0.2941	0.374
Mof_H 	H 	0.2737	0.4106	0.2913	0.366
Mof_H 	H 	0.7315	0.4376	0.0431	0.377
Mof_H 	H 	0.7808	0.5728	0.043	0.381
Mof_C 	C 	0.9076	0.1028	0.29894	0.053
Mof_C 	C 	0.8704	0.0343	0.26291	-0.085
Mof_C 	C 	0.7694	0.9138	0.26333	0.029
Mof_C 	C 	0.7058	0.857	0.29971	-0.084
Mof_C 	C 	0.7467	0.9233	0.33628	0.023
Mof_C 	C 	0.7014	0.8586	0.37567	0.127
Mof_C 	C 	0.7187	0.9363	0.41366	0.001
Mof_C 	C 	0.6515	0.8815	0.45018	-0.056
Mof_C 	C 	0.6838	0.9517	0.48603	-0.023
Mof_C 	C 	0.7821	0.0737	0.4857	-0.006
Mof_C 	C 	0.8486	0.1291	0.44957	-0.077
Mof_C 	C 	0.8143	0.0614	0.41313	0.007
Mof_C 	C 	0.8707	0.125	0.37384	0.149
Mof_C 	C 	0.8444	0.048	0.33577	-0.038
Mof_C 	C 	0.0196	0.2339	0.296	0.183
Mof_C 	C 	0.5907	0.727	0.29742	0.357
Mof_C 	C 	0.5412	0.7503	0.45319	0.345
Mof_C 	C 	0.9642	0.2582	0.45291	0.419
Mof_C 	C 	0.5924	0.8972	0.79894	-0.058
Mof_C 	C 	0.6296	0.9657	0.76291	-0.021
Mof_C 	C 	0.7306	0.0862	0.76333	-0.013
Mof_C 	C 	0.7942	0.143	0.79971	-0.071
Mof_C 	C 	0.7533	0.0767	0.83628	0.007
Mof_C 	C 	0.7986	0.1414	0.87567	0.129
Mof_C 	C 	0.7813	0.0637	0.91366	0.01
Mof_C 	C 	0.8485	0.1185	0.95018	-0.077
Mof_C 	C 	0.8162	0.0483	0.98603	0.024
Mof_C 	C 	0.7179	0.9263	0.9857	0.018
Mof_C 	C 	0.6514	0.8709	0.94957	-0.067
Mof_C 	C 	0.6857	0.9386	0.91313	-0.001
Mof_C 	C 	0.6293	0.875	0.87384	0.136
Mof_C 	C 	0.6556	0.952	0.83577	-0.004
Mof_C 	C 	0.4804	0.7661	0.796	0.349
Mof_C 	C 	0.9093	0.273	0.79742	0.389
Mof_C 	C 	0.9588	0.2497	0.95319	0.404
Mof_C 	C 	0.5358	0.7418	0.95291	0.352
Mof_C 	C 	0.0924	0.8972	0.70106	-0.113
Mof_C 	C 	0.1296	0.9657	0.73709	0.011
Mof_C 	C 	0.2306	0.0862	0.73667	-0.046
Mof_C 	C 	0.2942	0.143	0.70029	-0.052
Mof_C 	C 	0.2533	0.0767	0.66372	-0.014
Mof_C 	C 	0.2986	0.1414	0.62433	0.133
Mof_C 	C 	0.2813	0.0637	0.58634	-0.002
Mof_C 	C 	0.3485	0.1185	0.54982	-0.064
Mof_C 	C 	0.3162	0.0483	0.51397	-0.018
Mof_C 	C 	0.2179	0.9263	0.5143	-0.036
Mof_C 	C 	0.1514	0.8709	0.55043	-0.05
Mof_C 	C 	0.1857	0.9386	0.58687	-0.011
Mof_C 	C 	0.1293	0.875	0.62616	0.127
Mof_C 	C 	0.1556	0.952	0.66423	0.013
Mof_C 	C 	0.9804	0.7661	0.704	0.426
Mof_C 	C 	0.4093	0.273	0.70258	0.343
Mof_C 	C 	0.4588	0.2497	0.54681	0.344
Mof_C 	C 	0.0358	0.7418	0.54709	0.287
Mof_C 	C 	0.4076	0.1028	0.20106	-0.071
Mof_C 	C 	0.3704	0.0343	0.23709	-0.01
Mof_C 	C 	0.2694	0.9138	0.23667	-0.048
Mof_C 	C 	0.2058	0.857	0.20029	-0.039
Mof_C 	C 	0.2467	0.9233	0.16372	-0.026
Mof_C 	C 	0.2014	0.8586	0.12433	0.139
Mof_C 	C 	0.2187	0.9363	0.08634	-0.024
Mof_C 	C 	0.1515	0.8815	0.04982	-0.032
Mof_C 	C 	0.1838	0.9517	0.01397	-0.077
Mof_C 	C 	0.2821	0.0737	0.0143	-0.053
Mof_C 	C 	0.3486	0.1291	0.05043	-0.062
Mof_C 	C 	0.3143	0.0614	0.08687	0.002
Mof_C 	C 	0.3707	0.125	0.12616	0.126
Mof_C 	C 	0.3444	0.048	0.16423	0.005
Mof_C 	C 	0.5196	0.2339	0.204	0.349
Mof_C 	C 	0.0907	0.727	0.20258	0.256
Mof_C 	C 	0.0412	0.7503	0.04681	0.262
Mof_C 	C 	0.4642	0.2582	0.04709	0.341
Mof_O 	O 	0.66	0.7416	0.37771	-0.189
Mof_O 	O 	0.9288	0.2391	0.37254	-0.176
Mof_O 	O 	0.944	0.3224	0.28196	-0.344
Mof_O 	O 	0.1738	0.2464	0.30451	-0.292
Mof_O 	O 	0.6626	0.6379	0.28255	-0.43
Mof_O 	O 	0.4372	0.7152	0.30666	-0.321
Mof_O 	O 	0.3908	0.7346	0.44059	-0.32
Mof_O 	O 	0.6111	0.6661	0.47179	-0.426
Mof_O 	O 	0.1199	0.2658	0.44847	-0.373
Mof_O 	O 	0.8905	0.3518	0.46405	-0.433
Mof_O 	O 	0.8037	0.4808	0.22158	-0.962
Mof_O 	O 	0.2524	0.5054	0.47135	-0.97
Mof_O 	O 	0.84	0.2584	0.87771	-0.185
Mof_O 	O 	0.5712	0.7609	0.87254	-0.194
Mof_O 	O 	0.556	0.6776	0.78196	-0.433
Mof_O 	O 	0.3262	0.7536	0.80451	-0.322
Mof_O 	O 	0.8374	0.3621	0.78255	-0.437
Mof_O 	O 	0.0628	0.2848	0.80666	-0.345
Mof_O 	O 	0.1092	0.2654	0.94059	-0.352
Mof_O 	O 	0.8889	0.3339	0.97179	-0.414
Mof_O 	O 	0.3801	0.7342	0.94847	-0.311
Mof_O 	O 	0.6095	0.6482	0.96405	-0.418
Mof_O 	O 	0.6963	0.5192	0.72158	-0.974
Mof_O 	O 	0.2476	0.4946	0.97135	-0.954
Mof_O 	O 	0.34	0.2584	0.62229	-0.199
Mof_O 	O 	0.0712	0.7609	0.62746	-0.207
Mof_O 	O 	0.056	0.6776	0.71804	-0.478
Mof_O 	O 	0.8262	0.7536	0.69549	-0.328
Mof_O 	O 	0.3374	0.3621	0.71745	-0.436
Mof_O 	O 	0.5628	0.2848	0.69334	-0.306
Mof_O 	O 	0.6092	0.2654	0.55941	-0.306
Mof_O 	O 	0.3889	0.3339	0.52821	-0.435
Mof_O 	O 	0.8801	0.7342	0.55153	-0.264
Mof_O 	O 	0.1095	0.6482	0.53595	-0.43
Mof_O 	O 	0.1963	0.5192	0.77842	-0.979
Mof_O 	O 	0.7476	0.4946	0.52865	-0.957
Mof_O 	O 	0.16	0.7416	0.12229	-0.214
Mof_O 	O 	0.4288	0.2391	0.12746	-0.196
Mof_O 	O 	0.444	0.3224	0.21804	-0.442
Mof_O 	O 	0.6738	0.2464	0.19549	-0.309
Mof_O 	O 	0.1626	0.6379	0.21745	-0.426
Mof_O 	O 	0.9372	0.7152	0.19334	-0.237
Mof_O 	O 	0.8908	0.7346	0.05941	-0.252
Mof_O 	O 	0.1111	0.6661	0.02821	-0.432
Mof_O 	O 	0.6199	0.2658	0.05153	-0.309
Mof_O 	O 	0.3905	0.3518	0.03595	-0.446
Mof_O 	O 	0.3037	0.4808	0.27842	-0.975
Mof_O 	O 	0.7524	0.5054	0.02865	-0.967
_end
