# CIF file generated by openbabel 3.1.0, see https://openbabel.org
data_I
_chemical_name_common 'image0'
_cell_length_a 18.923
_cell_length_b 16.5046
_cell_length_c 7.8437
_cell_angle_alpha 90
_cell_angle_beta 91.868
_cell_angle_gamma 90
_space_group_name_H-M_alt 'P 1'
_space_group_name_Hall 'P 1'
loop_
    _symmetry_equiv_pos_as_xyz
    x,y,z
loop_
    _atom_site_label
    _atom_site_type_symbol
    _atom_site_fract_x
    _atom_site_fract_y
    _atom_site_fract_z
    _atom_site_occupancy
    O1       O        0.06290    0.80140    0.86300    1.000
    O2       O        0.06600    0.02370    0.35300    1.000
    O3       O        0.08370    0.64720    0.88000    1.000
    C1       C        0.11900    0.87530    0.23600    1.000
    P1       P        0.06720    0.72360    0.98860    1.000
    O4       O        0.99840    0.70840    0.06300    1.000
    O5       O        0.17170    0.96800    0.50400    1.000
    P2       P        0.10450    0.94600    0.40630    1.000
    N1       N        0.12450    0.78980    0.29800    1.000
    C2       C        0.25340    0.80400    0.35000    1.000
    C3       C        0.13650    0.73670    0.15400    1.000
    C4       C        0.18230    0.78900    0.43200    1.000
    C5       C        0.18720    0.70500    0.51000    1.000
    O6       O        0.05700    0.89730    0.53800    1.000
    O7       O        0.56290    0.30140    0.86300    1.000
    O8       O        0.56600    0.52370    0.35300    1.000
    O9       O        0.58370    0.14720    0.88000    1.000
    C6       C        0.61900    0.37530    0.23600    1.000
    P3       P        0.56720    0.22360    0.98860    1.000
    O10      O        0.49840    0.20840    0.06300    1.000
    O11      O        0.67170    0.46800    0.50400    1.000
    P4       P        0.60450    0.44600    0.40630    1.000
    N2       N        0.62450    0.28980    0.29800    1.000
    C7       C        0.75340    0.30400    0.35000    1.000
    C8       C        0.63650    0.23670    0.15400    1.000
    C9       C        0.68230    0.28900    0.43200    1.000
    C10      C        0.68720    0.20500    0.51000    1.000
    O12      O        0.55700    0.39730    0.53800    1.000
    O13      O        0.93710    0.80140    0.63700    1.000
    O14      O        0.93400    0.02370    0.14700    1.000
    O15      O        0.91630    0.64720    0.62000    1.000
    C11      C        0.88100    0.87530    0.26400    1.000
    P5       P        0.93280    0.72360    0.51140    1.000
    O16      O        0.00160    0.70840    0.43700    1.000
    O17      O        0.82830    0.96800    0.99600    1.000
    P6       P        0.89550    0.94600    0.09370    1.000
    N3       N        0.87550    0.78980    0.20200    1.000
    C12      C        0.74660    0.80400    0.15000    1.000
    C13      C        0.86350    0.73670    0.34600    1.000
    C14      C        0.81770    0.78900    0.06800    1.000
    C15      C        0.81280    0.70500    0.99000    1.000
    O18      O        0.94300    0.89730    0.96200    1.000
    O19      O        0.43710    0.30140    0.63700    1.000
    O20      O        0.43400    0.52370    0.14700    1.000
    O21      O        0.41630    0.14720    0.62000    1.000
    C16      C        0.38100    0.37530    0.26400    1.000
    P7       P        0.43280    0.22360    0.51140    1.000
    O22      O        0.50160    0.20840    0.43700    1.000
    O23      O        0.32830    0.46800    0.99600    1.000
    P8       P        0.39550    0.44600    0.09370    1.000
    N4       N        0.37550    0.28980    0.20200    1.000
    C17      C        0.24660    0.30400    0.15000    1.000
    C18      C        0.36350    0.23670    0.34600    1.000
    C19      C        0.31770    0.28900    0.06800    1.000
    C20      C        0.31280    0.20500    0.99000    1.000
    O24      O        0.44300    0.39730    0.96200    1.000
    O25      O        0.93710    0.19860    0.13700    1.000
    O26      O        0.93400    0.97630    0.64700    1.000
    O27      O        0.91630    0.35280    0.12000    1.000
    C21      C        0.88100    0.12470    0.76400    1.000
    P9       P        0.93280    0.27640    0.01140    1.000
    O28      O        0.00160    0.29160    0.93700    1.000
    O29      O        0.82830    0.03200    0.49600    1.000
    P10      P        0.89550    0.05400    0.59370    1.000
    N5       N        0.87550    0.21020    0.70200    1.000
    C22      C        0.74660    0.19600    0.65000    1.000
    C23      C        0.86350    0.26330    0.84600    1.000
    C24      C        0.81770    0.21100    0.56800    1.000
    C25      C        0.81280    0.29500    0.49000    1.000
    O30      O        0.94300    0.10270    0.46200    1.000
    O31      O        0.43710    0.69860    0.13700    1.000
    O32      O        0.43400    0.47630    0.64700    1.000
    O33      O        0.41630    0.85280    0.12000    1.000
    C26      C        0.38100    0.62470    0.76400    1.000
    P11      P        0.43280    0.77640    0.01140    1.000
    O34      O        0.50160    0.79160    0.93700    1.000
    O35      O        0.32830    0.53200    0.49600    1.000
    P12      P        0.39550    0.55400    0.59370    1.000
    N6       N        0.37550    0.71020    0.70200    1.000
    C27      C        0.24660    0.69600    0.65000    1.000
    C28      C        0.36350    0.76330    0.84600    1.000
    C29      C        0.31770    0.71100    0.56800    1.000
    C30      C        0.31280    0.79500    0.49000    1.000
    O36      O        0.44300    0.60270    0.46200    1.000
    O37      O        0.06290    0.19860    0.36300    1.000
    O38      O        0.06600    0.97630    0.85300    1.000
    O39      O        0.08370    0.35280    0.38000    1.000
    C31      C        0.11900    0.12470    0.73600    1.000
    P13      P        0.06720    0.27640    0.48860    1.000
    O40      O        0.99840    0.29160    0.56300    1.000
    O41      O        0.17170    0.03200    0.00400    1.000
    P14      P        0.10450    0.05400    0.90630    1.000
    N7       N        0.12450    0.21020    0.79800    1.000
    C32      C        0.25340    0.19600    0.85000    1.000
    C33      C        0.13650    0.26330    0.65400    1.000
    C34      C        0.18230    0.21100    0.93200    1.000
    C35      C        0.18720    0.29500    0.01000    1.000
    O42      O        0.05700    0.10270    0.03800    1.000
    O43      O        0.56290    0.69860    0.36300    1.000
    O44      O        0.56600    0.47630    0.85300    1.000
    O45      O        0.58370    0.85280    0.38000    1.000
    C36      C        0.61900    0.62470    0.73600    1.000
    P15      P        0.56720    0.77640    0.48860    1.000
    O46      O        0.49840    0.79160    0.56300    1.000
    O47      O        0.67170    0.53200    0.00400    1.000
    P16      P        0.60450    0.55400    0.90630    1.000
    N8       N        0.62450    0.71020    0.79800    1.000
    C37      C        0.75340    0.69600    0.85000    1.000
    C38      C        0.63650    0.76330    0.65400    1.000
    C39      C        0.68230    0.71100    0.93200    1.000
    C40      C        0.68720    0.79500    0.01000    1.000
    O48      O        0.55700    0.60270    0.03800    1.000
    Zr1      Zr       0.00000    0.89140    0.75000    1.000
    Zr2      Zr       0.50000    0.39140    0.75000    1.000
    Zr3      Zr       0.00000    0.10860    0.25000    1.000
    Zr4      Zr       0.50000    0.60860    0.25000    1.000
