data_functionalizedCrystal
_audit_creation_method	'EQeq! by Chris Wilmer'
_symmetry_space_group_name_H-M	'P1'
_symmetry_Int_Tables_number	1
_symmetry_cell_setting	triclinic
loop_
_symmetry_equiv_pos_as_xyz
  x,y,z
_cell_length_a	6.6737
_cell_length_b	18.8769
_cell_length_c	13.5525
_cell_angle_alpha	90
_cell_angle_beta	95.266
_cell_angle_gamma	90
loop_
_atom_site_label
_atom_site_type_symbol
_atom_site_fract_x
_atom_site_fract_y
_atom_site_fract_z
_atom_site_charge
Mof_Ag	Ag	0.27094	0.00853	0.94594	0.503
Mof_N 	N 	0.5222	0.069	0.8911	-0.188
Mof_N 	N 	0.5087	0.1413	0.9078	-0.128
Mof_N 	N 	0.7081	0.1223	0.7895	-0.201
Mof_N 	N 	0.0916	0.4041	0.5242	-0.167
Mof_N 	N 	0.9217	0.4146	0.572	-0.172
Mof_N 	N 	0.0052	0.303	0.5877	-0.211
Mof_C 	C 	0.6405	0.0595	0.8201	0.105
Mof_H 	H 	0.6731	0.0157	0.7946	-0.04
Mof_C 	C 	0.6203	0.1707	0.8452	0.102
Mof_H 	H 	0.6376	0.2194	0.8395	-0.028
Mof_C 	C 	0.138	0.3371	0.5351	0.097
Mof_H 	H 	0.2481	0.3157	0.51	-0.026
Mof_C 	C 	0.8715	0.3536	0.6091	0.115
Mof_H 	H 	0.7607	0.3461	0.6447	-0.04
Mof_C 	C 	0.8431	0.1333	0.7092	0.392
Mof_C 	C 	0.8557	0.2132	0.6891	-0.519
Mof_H 	H 	0.7227	0.2317	0.6688	0.175
Mof_H 	H 	0.9079	0.2377	0.7489	0.177
Mof_C 	C 	0.9945	0.2254	0.6073	0.403
Mof_C 	C 	0.9121	0.1882	0.5129	-0.526
Mof_H 	H 	3.83222e-33	0.1965	0.461	0.167
Mof_H 	H 	0.7798	0.2067	0.4911	0.177
Mof_C 	C 	0.8981	0.1083	0.5333	0.428
Mof_H 	H 	0.8453	0.084	0.4725	-0.127
Mof_C 	C 	0.7562	0.0954	0.6148	-0.534
Mof_H 	H 	0.6232	0.1137	0.5939	0.177
Mof_H 	H 	0.7449	0.045	0.6271	0.178
Mof_C 	C 	0.0539	0.1051	0.7437	-0.532
Mof_H 	H 	0.1071	0.1296	0.8034	0.172
Mof_H 	H 	0.0472	0.0549	0.7583	0.158
Mof_C 	C 	0.1904	0.1176	0.6604	0.427
Mof_H 	H 	0.3248	0.099	0.6812	-0.119
Mof_C 	C 	0.2072	0.1974	0.6401	-0.542
Mof_H 	H 	0.2959	0.2055	0.5884	0.175
Mof_H 	H 	0.262	0.2218	0.6996	0.179
Mof_C 	C 	0.1082	0.0797	0.5666	-0.577
Mof_H 	H 	0.101	0.0292	0.5789	0.186
Mof_H 	H 	0.197	0.0873	0.5148	0.181
Mof_Ag	Ag	0.72906	0.50853	0.55406	0.518
Mof_N 	N 	0.4778	0.569	0.6089	-0.19
Mof_N 	N 	0.4913	0.6413	0.5922	-0.127
Mof_N 	N 	0.2919	0.6223	0.7105	-0.195
Mof_N 	N 	0.9084	0.9041	0.9758	-0.154
Mof_N 	N 	0.0783	0.9146	0.928	-0.176
Mof_N 	N 	0.9948	0.803	0.9123	-0.178
Mof_C 	C 	0.3595	0.5595	0.6799	0.101
Mof_H 	H 	0.3269	0.5157	0.7054	-0.042
Mof_C 	C 	0.3797	0.6707	0.6548	0.099
Mof_H 	H 	0.3624	0.7194	0.6605	-0.025
Mof_C 	C 	0.862	0.8371	0.9649	0.1
Mof_H 	H 	0.7519	0.8157	0.99	-0.021
Mof_C 	C 	0.1285	0.8536	0.8909	0.084
Mof_H 	H 	0.2393	0.8461	0.8553	-0.029
Mof_C 	C 	0.1569	0.6333	0.7908	0.336
Mof_C 	C 	0.1443	0.7132	0.8109	-0.465
Mof_H 	H 	0.2773	0.7317	0.8312	0.16
Mof_H 	H 	0.0921	0.7377	0.7511	0.155
Mof_C 	C 	0.0055	0.7254	0.8927	0.332
Mof_C 	C 	0.0879	0.6882	0.9871	-0.482
Mof_H 	H 	1.04484e-18	0.6965	0.039	0.155
Mof_H 	H 	0.2202	0.7067	0.0089	0.163
Mof_C 	C 	0.1019	0.6083	0.9667	0.356
Mof_H 	H 	0.1547	0.584	0.0275	-0.11
Mof_C 	C 	0.2438	0.5954	0.8852	-0.479
Mof_H 	H 	0.3768	0.6137	0.9061	0.163
Mof_H 	H 	0.2551	0.545	0.8729	0.157
Mof_C 	C 	0.9461	0.6051	0.7563	-0.454
Mof_H 	H 	0.8929	0.6296	0.6966	0.156
Mof_H 	H 	0.9528	0.5549	0.7417	0.142
Mof_C 	C 	0.8096	0.6176	0.8396	0.364
Mof_H 	H 	0.6752	0.599	0.8188	-0.099
Mof_C 	C 	0.7928	0.6974	0.8599	-0.461
Mof_H 	H 	0.7041	0.7055	0.9116	0.155
Mof_H 	H 	0.738	0.7218	0.8004	0.16
Mof_C 	C 	0.8918	0.5797	0.9334	-0.492
Mof_H 	H 	0.899	0.5292	0.9211	0.167
Mof_H 	H 	0.803	0.5873	0.9852	0.161
Mof_Ag	Ag	0.72906	0.99147	0.05406	0.514
Mof_N 	N 	0.4778	0.931	0.1089	-0.19
Mof_N 	N 	0.4913	0.8587	0.0922	-0.128
Mof_N 	N 	0.2919	0.8777	0.2105	-0.196
Mof_N 	N 	0.9084	0.5959	0.4758	-0.157
Mof_N 	N 	0.0783	0.5854	0.428	-0.177
Mof_N 	N 	0.9948	0.697	0.4123	-0.18
Mof_C 	C 	0.3595	0.9405	0.1799	0.101
Mof_H 	H 	0.3269	0.9843	0.2054	-0.042
Mof_C 	C 	0.3797	0.8293	0.1548	0.099
Mof_H 	H 	0.3624	0.7806	0.1605	-0.026
Mof_C 	C 	0.862	0.6629	0.4649	0.1
Mof_H 	H 	0.7519	0.6843	0.49	-0.022
Mof_C 	C 	0.1285	0.6464	0.3909	0.086
Mof_H 	H 	0.2393	0.6539	0.3553	-0.03
Mof_C 	C 	0.1569	0.8667	0.2908	0.339
Mof_C 	C 	0.1443	0.7868	0.3109	-0.468
Mof_H 	H 	0.2773	0.7683	0.3312	0.161
Mof_H 	H 	0.0921	0.7623	0.2511	0.157
Mof_C 	C 	0.0055	0.7746	0.3927	0.337
Mof_C 	C 	0.0879	0.8118	0.4871	-0.487
Mof_H 	H 	4.48062e-33	0.8035	0.539	0.157
Mof_H 	H 	0.2202	0.7933	0.5089	0.165
Mof_C 	C 	0.1019	0.8917	0.4667	0.361
Mof_H 	H 	0.1547	0.916	0.5275	-0.111
Mof_C 	C 	0.2438	0.9046	0.3852	-0.483
Mof_H 	H 	0.3768	0.8863	0.4061	0.164
Mof_H 	H 	0.2551	0.955	0.3729	0.158
Mof_C 	C 	0.9461	0.8949	0.2563	-0.458
Mof_H 	H 	0.8929	0.8704	0.1966	0.156
Mof_H 	H 	0.9528	0.9451	0.2417	0.142
Mof_C 	C 	0.8096	0.8824	0.3396	0.367
Mof_H 	H 	0.6752	0.901	0.3188	-0.1
Mof_C 	C 	0.7928	0.8026	0.3599	-0.465
Mof_H 	H 	0.7041	0.7945	0.4116	0.156
Mof_H 	H 	0.738	0.7782	0.3004	0.161
Mof_C 	C 	0.8918	0.9203	0.4334	-0.497
Mof_H 	H 	0.899	0.9708	0.4211	0.169
Mof_H 	H 	0.803	0.9127	0.4852	0.162
Mof_Ag	Ag	0.27094	0.49147	0.44594	0.505
Mof_N 	N 	0.5222	0.431	0.3911	-0.189
Mof_N 	N 	0.5087	0.3587	0.4078	-0.129
Mof_N 	N 	0.7081	0.3777	0.2895	-0.201
Mof_N 	N 	0.0916	0.0959	0.0242	-0.164
Mof_N 	N 	0.9217	0.0854	0.072	-0.171
Mof_N 	N 	0.0052	0.197	0.0877	-0.209
Mof_C 	C 	0.6405	0.4405	0.3201	0.105
Mof_H 	H 	0.6731	0.4843	0.2946	-0.04
Mof_C 	C 	0.6203	0.3293	0.3452	0.102
Mof_H 	H 	0.6376	0.2806	0.3395	-0.028
Mof_C 	C 	0.138	0.1629	0.0351	0.098
Mof_H 	H 	0.2481	0.1843	0.01	-0.025
Mof_C 	C 	0.8715	0.1464	0.1091	0.113
Mof_H 	H 	0.7607	0.1539	0.1447	-0.039
Mof_C 	C 	0.8431	0.3667	0.2092	0.388
Mof_C 	C 	0.8557	0.2868	0.1891	-0.514
Mof_H 	H 	0.7227	0.2683	0.1688	0.174
Mof_H 	H 	0.9079	0.2623	0.2489	0.176
Mof_C 	C 	0.9945	0.2746	0.1073	0.396
Mof_C 	C 	0.9121	0.3118	0.0129	-0.516
Mof_H 	H 	7.98864e-33	0.3035	0.961	0.162
Mof_H 	H 	0.7798	0.2933	0.9911	0.174
Mof_C 	C 	0.8981	0.3917	0.0333	0.42
Mof_H 	H 	0.8453	0.416	0.9725	-0.125
Mof_C 	C 	0.7562	0.4046	0.1148	-0.528
Mof_H 	H 	0.6232	0.3863	0.0939	0.176
Mof_H 	H 	0.7449	0.455	0.1271	0.176
Mof_C 	C 	0.0539	0.3949	0.2437	-0.526
Mof_H 	H 	0.1071	0.3704	0.3034	0.171
Mof_H 	H 	0.0472	0.4451	0.2583	0.157
Mof_C 	C 	0.1904	0.3824	0.1604	0.422
Mof_H 	H 	0.3248	0.401	0.1812	-0.117
Mof_C 	C 	0.2072	0.3026	0.1401	-0.536
Mof_H 	H 	0.2959	0.2945	0.0884	0.174
Mof_H 	H 	0.262	0.2782	0.1996	0.178
Mof_C 	C 	0.1082	0.4203	0.0666	-0.57
Mof_H 	H 	0.101	0.4708	0.0789	0.184
Mof_H 	H 	0.197	0.4127	0.0148	0.179
_end
