data_functionalizedCrystal
_audit_creation_method	'EQeq! by Chris Wilmer'
_symmetry_space_group_name_H-M	'P1'
_symmetry_Int_Tables_number	1
_symmetry_cell_setting	triclinic
loop_
_symmetry_equiv_pos_as_xyz
  x,y,z
_cell_length_a	30.317
_cell_length_b	21.295
_cell_length_c	13.384
_cell_angle_alpha	90
_cell_angle_beta	114.19
_cell_angle_gamma	90
loop_
_atom_site_label
_atom_site_type_symbol
_atom_site_fract_x
_atom_site_fract_y
_atom_site_fract_z
_atom_site_charge
Mof_Mo	Mo	0.22533	0.21006	0.37697	2.339
Mof_Mo	Mo	0.08569	0.15243	0.09841	1.513
Mof_Mo	Mo	0.33133	0.29776	0.46393	1.587
Mof_Mo	Mo	0.1253	0.29944	0.26348	1.649
Mof_Mo	Mo	0.2289	0.3695	0.32448	2.378
Mof_Na	Na	0.1779	0.0344	0.2583	2.523
Mof_Na	Na	0.2337	0.9649	0.501	2.313
Mof_Na	Na	0.1419	0.3711	0.0084	1.891
Mof_Na	Na	0.3934	0.2321	0.2659	1.4
Mof_O 	O 	0.9808	0.2909	0.9347	-0.527
Mof_O 	O 	0.28425	0.2093	0.3832	-0.812
Mof_O 	O 	0.2014	0.141	0.3147	-1.038
Mof_O 	O 	0.1063	0.2143	0.2	-0.751
Mof_O 	O 	0.105	0.3336	0.1369	-0.812
Mof_O 	O 	0.19723	0.2717	0.2676	-0.921
Mof_O 	O 	0.25893	0.30779	0.4704	-0.986
Mof_O 	O 	0.09878	0.0868	0.1762	-0.822
Mof_O 	O 	0.2069	0.394	0.1906	-1.012
Mof_O 	O 	0.16506	0.2421	0.407	-0.86
Mof_O 	O 	0.03399	0.1014	0.967	-0.518
Mof_O 	O 	0.16919	0.3654	0.3436	-0.848
Mof_O 	O 	0.2518	0.435	0.4003	-1.036
Mof_O 	O 	0.28721	0.3323	0.3246	-0.923
Mof_O 	O 	0.37316	0.2594	0.4303	-0.773
Mof_O 	O 	0.9627	0.0546	0.8904	-0.413
Mof_O 	O 	0.04206	0.224	0.9854	-0.515
Mof_O 	O 	0.1545	0.0188	0.3988	-0.87
Mof_O 	O 	0.2568	0.0044	0.3705	-0.943
Mof_O 	O 	0.1997	0.0637	0.1107	-0.977
Mof_O 	O 	0.3147	0.9217	0.597	-0.851
Mof_O 	O 	0.0874	0.3045	0.884	-0.77
Mof_N 	N 	0.01221	0.1596	0.1204	-0.111
Mof_C 	C 	0.0047	0.2477	0.9932	0.433
Mof_C 	C 	0.9908	0.2219	0.0791	-0.309
Mof_H 	H 	0.0008	0.2511	0.1399	0.056
Mof_H 	H 	0.9558	0.2184	0.0495	0.069
Mof_C 	C 	0.9816	0.1055	0.0588	-0.305
Mof_H 	H 	0.9872	0.0701	0.1082	0.109
Mof_H 	H 	0.9478	0.1171	0.0327	0.049
Mof_C 	C 	0.992	0.0859	0.9635	0.423
Mof_C 	C 	0.0227	0.154	0.2393	-0.044
Mof_H 	H 	0.0432	0.1887	0.2785	-0.008
Mof_H 	H 	0.0404	0.1154	0.2676	0.02
Mof_Mo	Mo	0.72533	0.71006	0.37697	2.338
Mof_Mo	Mo	0.58569	0.65243	0.09841	1.514
Mof_Mo	Mo	0.83133	0.79776	0.46393	1.587
Mof_Mo	Mo	0.6253	0.79944	0.26348	1.65
Mof_Mo	Mo	0.7289	0.8695	0.32448	2.378
Mof_Na	Na	0.6779	0.5344	0.2583	2.524
Mof_Na	Na	0.7337	0.4649	0.501	2.313
Mof_Na	Na	0.6419	0.8711	0.0084	1.897
Mof_Na	Na	0.8934	0.7321	0.2659	1.4
Mof_O 	O 	0.4808	0.7909	0.9347	-0.526
Mof_O 	O 	0.78425	0.7093	0.3832	-0.812
Mof_O 	O 	0.7014	0.641	0.3147	-1.039
Mof_O 	O 	0.6063	0.7143	0.2	-0.752
Mof_O 	O 	0.605	0.8336	0.1369	-0.812
Mof_O 	O 	0.69723	0.7717	0.2676	-0.921
Mof_O 	O 	0.75893	0.80779	0.4704	-0.986
Mof_O 	O 	0.59878	0.5868	0.1762	-0.822
Mof_O 	O 	0.7069	0.894	0.1906	-1.012
Mof_O 	O 	0.66506	0.7421	0.407	-0.86
Mof_O 	O 	0.53399	0.6014	0.967	-0.519
Mof_O 	O 	0.66919	0.8654	0.3436	-0.848
Mof_O 	O 	0.7518	0.935	0.4003	-1.036
Mof_O 	O 	0.78721	0.8323	0.3246	-0.922
Mof_O 	O 	0.87316	0.7594	0.4303	-0.773
Mof_O 	O 	0.4627	0.5546	0.8904	-0.413
Mof_O 	O 	0.54206	0.724	0.9854	-0.516
Mof_O 	O 	0.6545	0.5188	0.3988	-0.87
Mof_O 	O 	0.7568	0.5044	0.3705	-0.943
Mof_O 	O 	0.6997	0.5637	0.1107	-0.977
Mof_O 	O 	0.8147	0.4217	0.597	-0.851
Mof_O 	O 	0.5874	0.8045	0.884	-0.771
Mof_N 	N 	0.51221	0.6596	0.1204	-0.111
Mof_C 	C 	0.5047	0.7477	0.9932	0.432
Mof_C 	C 	0.4908	0.7219	0.0791	-0.306
Mof_H 	H 	0.5008	0.7511	0.1399	0.056
Mof_H 	H 	0.4558	0.7184	0.0495	0.068
Mof_C 	C 	0.4816	0.6055	0.0588	-0.303
Mof_H 	H 	0.4872	0.5701	0.1082	0.109
Mof_H 	H 	0.4478	0.6171	0.0327	0.049
Mof_C 	C 	0.492	0.5859	0.9635	0.423
Mof_C 	C 	0.5227	0.654	0.2393	-0.043
Mof_H 	H 	0.5432	0.6887	0.2785	-0.008
Mof_H 	H 	0.5404	0.6154	0.2676	0.02
Mof_Mo	Mo	0.77467	0.21006	0.12303	2.337
Mof_Mo	Mo	0.91431	0.15243	0.40159	1.512
Mof_Mo	Mo	0.66867	0.29776	0.03607	1.587
Mof_Mo	Mo	0.8747	0.29944	0.23652	1.649
Mof_Mo	Mo	0.7711	0.3695	0.17552	2.378
Mof_Na	Na	0.8221	0.0344	0.2417	2.523
Mof_Na	Na	0.7663	0.9649	0.999	2.313
Mof_Na	Na	0.8581	0.3711	0.4916	1.89
Mof_Na	Na	0.6066	0.2321	0.2341	1.4
Mof_O 	O 	0.0192	0.2909	0.5653	-0.526
Mof_O 	O 	0.71575	0.2093	0.1168	-0.812
Mof_O 	O 	0.7986	0.141	0.1853	-1.038
Mof_O 	O 	0.8937	0.2143	0.3	-0.751
Mof_O 	O 	0.895	0.3336	0.3631	-0.812
Mof_O 	O 	0.80277	0.2717	0.2324	-0.92
Mof_O 	O 	0.74107	0.30779	0.0296	-0.986
Mof_O 	O 	0.90122	0.0868	0.3238	-0.822
Mof_O 	O 	0.7931	0.394	0.3094	-1.012
Mof_O 	O 	0.83494	0.2421	0.093	-0.861
Mof_O 	O 	0.96601	0.1014	0.533	-0.519
Mof_O 	O 	0.83081	0.3654	0.1564	-0.848
Mof_O 	O 	0.7482	0.435	0.0997	-1.036
Mof_O 	O 	0.71279	0.3323	0.1754	-0.923
Mof_O 	O 	0.62684	0.2594	0.0697	-0.773
Mof_O 	O 	0.0373	0.0546	0.6096	-0.413
Mof_O 	O 	0.95794	0.224	0.5146	-0.516
Mof_O 	O 	0.8455	0.0188	0.1012	-0.87
Mof_O 	O 	0.7432	0.0044	0.1295	-0.943
Mof_O 	O 	0.8003	0.0637	0.3893	-0.977
Mof_O 	O 	0.6853	0.9217	0.903	-0.852
Mof_O 	O 	0.9126	0.3045	0.616	-0.77
Mof_N 	N 	0.98779	0.1596	0.3796	-0.111
Mof_C 	C 	0.9953	0.2477	0.5068	0.431
Mof_C 	C 	0.0092	0.2219	0.4209	-0.306
Mof_H 	H 	0.9992	0.2511	0.3601	0.055
Mof_H 	H 	0.0442	0.2184	0.4505	0.068
Mof_C 	C 	0.0184	0.1055	0.4412	-0.304
Mof_H 	H 	0.0128	0.0701	0.3918	0.109
Mof_H 	H 	0.0522	0.1171	0.4673	0.049
Mof_C 	C 	0.008	0.0859	0.5365	0.422
Mof_C 	C 	0.9773	0.154	0.2607	-0.044
Mof_H 	H 	0.9568	0.1887	0.2215	-0.008
Mof_H 	H 	0.9596	0.1154	0.2324	0.02
Mof_Mo	Mo	0.27467	0.71006	0.12303	2.339
Mof_Mo	Mo	0.41431	0.65243	0.40159	1.513
Mof_Mo	Mo	0.16867	0.79776	0.03607	1.589
Mof_Mo	Mo	0.3747	0.79944	0.23652	1.65
Mof_Mo	Mo	0.2711	0.8695	0.17552	2.378
Mof_Na	Na	0.3221	0.5344	0.2417	2.524
Mof_Na	Na	0.2663	0.4649	0.999	2.316
Mof_Na	Na	0.3581	0.8711	0.4916	1.891
Mof_Na	Na	0.1066	0.7321	0.2341	1.4
Mof_O 	O 	0.5192	0.7909	0.5653	-0.526
Mof_O 	O 	0.21575	0.7093	0.1168	-0.812
Mof_O 	O 	0.2986	0.641	0.1853	-1.039
Mof_O 	O 	0.3937	0.7143	0.3	-0.751
Mof_O 	O 	0.395	0.8336	0.3631	-0.812
Mof_O 	O 	0.30277	0.7717	0.2324	-0.921
Mof_O 	O 	0.24107	0.80779	0.0296	-0.985
Mof_O 	O 	0.40122	0.5868	0.3238	-0.822
Mof_O 	O 	0.2931	0.894	0.3094	-1.011
Mof_O 	O 	0.33494	0.7421	0.093	-0.86
Mof_O 	O 	0.46601	0.6014	0.533	-0.519
Mof_O 	O 	0.33081	0.8654	0.1564	-0.847
Mof_O 	O 	0.2482	0.935	0.0997	-1.035
Mof_O 	O 	0.21279	0.8323	0.1754	-0.923
Mof_O 	O 	0.12684	0.7594	0.0697	-0.773
Mof_O 	O 	0.5373	0.5546	0.6096	-0.413
Mof_O 	O 	0.45794	0.724	0.5146	-0.516
Mof_O 	O 	0.3455	0.5188	0.1012	-0.87
Mof_O 	O 	0.2432	0.5044	0.1295	-0.943
Mof_O 	O 	0.3003	0.5637	0.3893	-0.977
Mof_O 	O 	0.1853	0.4217	0.903	-0.851
Mof_O 	O 	0.4126	0.8045	0.616	-0.77
Mof_N 	N 	0.48779	0.6596	0.3796	-0.111
Mof_C 	C 	0.4953	0.7477	0.5068	0.433
Mof_C 	C 	0.5092	0.7219	0.4209	-0.307
Mof_H 	H 	0.4992	0.7511	0.3601	0.056
Mof_H 	H 	0.5442	0.7184	0.4505	0.068
Mof_C 	C 	0.5184	0.6055	0.4412	-0.304
Mof_H 	H 	0.5128	0.5701	0.3918	0.109
Mof_H 	H 	0.5522	0.6171	0.4673	0.049
Mof_C 	C 	0.508	0.5859	0.5365	0.423
Mof_C 	C 	0.4773	0.654	0.2607	-0.044
Mof_H 	H 	0.4568	0.6887	0.2215	-0.008
Mof_H 	H 	0.4596	0.6154	0.2324	0.02
Mof_Mo	Mo	0.77467	0.78994	0.62303	2.338
Mof_Mo	Mo	0.91431	0.84757	0.90159	1.512
Mof_Mo	Mo	0.66867	0.70224	0.53607	1.587
Mof_Mo	Mo	0.8747	0.70056	0.73652	1.649
Mof_Mo	Mo	0.7711	0.6305	0.67552	2.378
Mof_Na	Na	0.8221	0.9656	0.7417	2.523
Mof_Na	Na	0.7663	0.0351	0.499	2.313
Mof_Na	Na	0.8581	0.6289	0.9916	1.891
Mof_Na	Na	0.6066	0.7679	0.7341	1.4
Mof_O 	O 	0.0192	0.7091	0.0653	-0.527
Mof_O 	O 	0.71575	0.7907	0.6168	-0.812
Mof_O 	O 	0.7986	0.859	0.6853	-1.038
Mof_O 	O 	0.8937	0.7857	0.8	-0.751
Mof_O 	O 	0.895	0.6664	0.8631	-0.812
Mof_O 	O 	0.80277	0.7283	0.7324	-0.921
Mof_O 	O 	0.74107	0.69221	0.5296	-0.986
Mof_O 	O 	0.90122	0.9132	0.8238	-0.822
Mof_O 	O 	0.7931	0.606	0.8094	-1.012
Mof_O 	O 	0.83494	0.7579	0.593	-0.86
Mof_O 	O 	0.96601	0.8986	0.033	-0.518
Mof_O 	O 	0.83081	0.6346	0.6564	-0.848
Mof_O 	O 	0.7482	0.565	0.5997	-1.036
Mof_O 	O 	0.71279	0.6677	0.6754	-0.923
Mof_O 	O 	0.62684	0.7406	0.5697	-0.773
Mof_O 	O 	0.0373	0.9454	0.1096	-0.413
Mof_O 	O 	0.95794	0.776	0.0146	-0.515
Mof_O 	O 	0.8455	0.9812	0.6012	-0.87
Mof_O 	O 	0.7432	0.9956	0.6295	-0.943
Mof_O 	O 	0.8003	0.9363	0.8893	-0.977
Mof_O 	O 	0.6853	0.0783	0.403	-0.851
Mof_O 	O 	0.9126	0.6955	0.116	-0.77
Mof_N 	N 	0.98779	0.8404	0.8796	-0.111
Mof_C 	C 	0.9953	0.7523	0.0068	0.433
Mof_C 	C 	0.0092	0.7781	0.9209	-0.309
Mof_H 	H 	0.9992	0.7489	0.8601	0.056
Mof_H 	H 	0.0442	0.7816	0.9505	0.069
Mof_C 	C 	0.0184	0.8945	0.9412	-0.305
Mof_H 	H 	0.0128	0.9299	0.8918	0.109
Mof_H 	H 	0.0522	0.8829	0.9673	0.049
Mof_C 	C 	0.008	0.9141	0.0365	0.423
Mof_C 	C 	0.9773	0.846	0.7607	-0.044
Mof_H 	H 	0.9568	0.8113	0.7215	-0.008
Mof_H 	H 	0.9596	0.8846	0.7324	0.02
Mof_Mo	Mo	0.27467	0.28994	0.62303	2.338
Mof_Mo	Mo	0.41431	0.34757	0.90159	1.514
Mof_Mo	Mo	0.16867	0.20224	0.53607	1.587
Mof_Mo	Mo	0.3747	0.20056	0.73652	1.65
Mof_Mo	Mo	0.2711	0.1305	0.67552	2.378
Mof_Na	Na	0.3221	0.4656	0.7417	2.524
Mof_Na	Na	0.2663	0.5351	0.499	2.313
Mof_Na	Na	0.3581	0.1289	0.9916	1.897
Mof_Na	Na	0.1066	0.2679	0.7341	1.4
Mof_O 	O 	0.5192	0.2091	0.0653	-0.526
Mof_O 	O 	0.21575	0.2907	0.6168	-0.812
Mof_O 	O 	0.2986	0.359	0.6853	-1.039
Mof_O 	O 	0.3937	0.2857	0.8	-0.752
Mof_O 	O 	0.395	0.1664	0.8631	-0.812
Mof_O 	O 	0.30277	0.2283	0.7324	-0.921
Mof_O 	O 	0.24107	0.19221	0.5296	-0.986
Mof_O 	O 	0.40122	0.4132	0.8238	-0.822
Mof_O 	O 	0.2931	0.106	0.8094	-1.012
Mof_O 	O 	0.33494	0.2579	0.593	-0.86
Mof_O 	O 	0.46601	0.3986	0.033	-0.519
Mof_O 	O 	0.33081	0.1346	0.6564	-0.848
Mof_O 	O 	0.2482	0.065	0.5997	-1.036
Mof_O 	O 	0.21279	0.1677	0.6754	-0.922
Mof_O 	O 	0.12684	0.2406	0.5697	-0.773
Mof_O 	O 	0.5373	0.4454	0.1096	-0.413
Mof_O 	O 	0.45794	0.276	0.0146	-0.516
Mof_O 	O 	0.3455	0.4812	0.6012	-0.87
Mof_O 	O 	0.2432	0.4956	0.6295	-0.943
Mof_O 	O 	0.3003	0.4363	0.8893	-0.977
Mof_O 	O 	0.1853	0.5783	0.403	-0.851
Mof_O 	O 	0.4126	0.1955	0.116	-0.771
Mof_N 	N 	0.48779	0.3404	0.8796	-0.111
Mof_C 	C 	0.4953	0.2523	0.0068	0.432
Mof_C 	C 	0.5092	0.2781	0.9209	-0.306
Mof_H 	H 	0.4992	0.2489	0.8601	0.056
Mof_H 	H 	0.5442	0.2816	0.9505	0.068
Mof_C 	C 	0.5184	0.3945	0.9412	-0.303
Mof_H 	H 	0.5128	0.4299	0.8918	0.109
Mof_H 	H 	0.5522	0.3829	0.9673	0.049
Mof_C 	C 	0.508	0.4141	0.0365	0.423
Mof_C 	C 	0.4773	0.346	0.7607	-0.043
Mof_H 	H 	0.4568	0.3113	0.7215	-0.008
Mof_H 	H 	0.4596	0.3846	0.7324	0.02
Mof_Mo	Mo	0.22533	0.78994	0.87697	2.337
Mof_Mo	Mo	0.08569	0.84757	0.59841	1.512
Mof_Mo	Mo	0.33133	0.70224	0.96393	1.587
Mof_Mo	Mo	0.1253	0.70056	0.76348	1.649
Mof_Mo	Mo	0.2289	0.6305	0.82448	2.378
Mof_Na	Na	0.1779	0.9656	0.7583	2.523
Mof_Na	Na	0.2337	0.0351	0.001	2.313
Mof_Na	Na	0.1419	0.6289	0.5084	1.89
Mof_Na	Na	0.3934	0.7679	0.7659	1.4
Mof_O 	O 	0.9808	0.7091	0.4347	-0.526
Mof_O 	O 	0.28425	0.7907	0.8832	-0.812
Mof_O 	O 	0.2014	0.859	0.8147	-1.038
Mof_O 	O 	0.1063	0.7857	0.7	-0.751
Mof_O 	O 	0.105	0.6664	0.6369	-0.812
Mof_O 	O 	0.19723	0.7283	0.7676	-0.92
Mof_O 	O 	0.25893	0.69221	0.9704	-0.986
Mof_O 	O 	0.09878	0.9132	0.6762	-0.822
Mof_O 	O 	0.2069	0.606	0.6906	-1.012
Mof_O 	O 	0.16506	0.7579	0.907	-0.861
Mof_O 	O 	0.03399	0.8986	0.467	-0.519
Mof_O 	O 	0.16919	0.6346	0.8436	-0.848
Mof_O 	O 	0.2518	0.565	0.9003	-1.036
Mof_O 	O 	0.28721	0.6677	0.8246	-0.923
Mof_O 	O 	0.37316	0.7406	0.9303	-0.773
Mof_O 	O 	0.9627	0.9454	0.3904	-0.413
Mof_O 	O 	0.04206	0.776	0.4854	-0.516
Mof_O 	O 	0.1545	0.9812	0.8988	-0.87
Mof_O 	O 	0.2568	0.9956	0.8705	-0.943
Mof_O 	O 	0.1997	0.9363	0.6107	-0.977
Mof_O 	O 	0.3147	0.0783	0.097	-0.852
Mof_O 	O 	0.0874	0.6955	0.384	-0.77
Mof_N 	N 	0.01221	0.8404	0.6204	-0.111
Mof_C 	C 	0.0047	0.7523	0.4932	0.431
Mof_C 	C 	0.9908	0.7781	0.5791	-0.306
Mof_H 	H 	0.0008	0.7489	0.6399	0.055
Mof_H 	H 	0.9558	0.7816	0.5495	0.068
Mof_C 	C 	0.9816	0.8945	0.5588	-0.304
Mof_H 	H 	0.9872	0.9299	0.6082	0.109
Mof_H 	H 	0.9478	0.8829	0.5327	0.049
Mof_C 	C 	0.992	0.9141	0.4635	0.422
Mof_C 	C 	0.0227	0.846	0.7393	-0.044
Mof_H 	H 	0.0432	0.8113	0.7785	-0.008
Mof_H 	H 	0.0404	0.8846	0.7676	0.02
Mof_Mo	Mo	0.72533	0.28994	0.87697	2.339
Mof_Mo	Mo	0.58569	0.34757	0.59841	1.513
Mof_Mo	Mo	0.83133	0.20224	0.96393	1.589
Mof_Mo	Mo	0.6253	0.20056	0.76348	1.65
Mof_Mo	Mo	0.7289	0.1305	0.82448	2.378
Mof_Na	Na	0.6779	0.4656	0.7583	2.524
Mof_Na	Na	0.7337	0.5351	0.001	2.316
Mof_Na	Na	0.6419	0.1289	0.5084	1.891
Mof_Na	Na	0.8934	0.2679	0.7659	1.4
Mof_O 	O 	0.4808	0.2091	0.4347	-0.526
Mof_O 	O 	0.78425	0.2907	0.8832	-0.812
Mof_O 	O 	0.7014	0.359	0.8147	-1.039
Mof_O 	O 	0.6063	0.2857	0.7	-0.751
Mof_O 	O 	0.605	0.1664	0.6369	-0.812
Mof_O 	O 	0.69723	0.2283	0.7676	-0.921
Mof_O 	O 	0.75893	0.19221	0.9704	-0.985
Mof_O 	O 	0.59878	0.4132	0.6762	-0.822
Mof_O 	O 	0.7069	0.106	0.6906	-1.011
Mof_O 	O 	0.66506	0.2579	0.907	-0.86
Mof_O 	O 	0.53399	0.3986	0.467	-0.519
Mof_O 	O 	0.66919	0.1346	0.8436	-0.847
Mof_O 	O 	0.7518	0.065	0.9003	-1.035
Mof_O 	O 	0.78721	0.1677	0.8246	-0.923
Mof_O 	O 	0.87316	0.2406	0.9303	-0.773
Mof_O 	O 	0.4627	0.4454	0.3904	-0.413
Mof_O 	O 	0.54206	0.276	0.4854	-0.516
Mof_O 	O 	0.6545	0.4812	0.8988	-0.87
Mof_O 	O 	0.7568	0.4956	0.8705	-0.943
Mof_O 	O 	0.6997	0.4363	0.6107	-0.977
Mof_O 	O 	0.8147	0.5783	0.097	-0.851
Mof_O 	O 	0.5874	0.1955	0.384	-0.77
Mof_N 	N 	0.51221	0.3404	0.6204	-0.111
Mof_C 	C 	0.5047	0.2523	0.4932	0.433
Mof_C 	C 	0.4908	0.2781	0.5791	-0.307
Mof_H 	H 	0.5008	0.2489	0.6399	0.056
Mof_H 	H 	0.4558	0.2816	0.5495	0.068
Mof_C 	C 	0.4816	0.3945	0.5588	-0.304
Mof_H 	H 	0.4872	0.4299	0.6082	0.109
Mof_H 	H 	0.4478	0.3829	0.5327	0.049
Mof_C 	C 	0.492	0.4141	0.4635	0.423
Mof_C 	C 	0.5227	0.346	0.7393	-0.044
Mof_H 	H 	0.5432	0.3113	0.7785	-0.008
Mof_H 	H 	0.5404	0.3846	0.7676	0.02
_end
