data_functionalizedCrystal
_audit_creation_method	'EQeq! by Chris Wilmer'
_symmetry_space_group_name_H-M	'P1'
_symmetry_Int_Tables_number	1
_symmetry_cell_setting	triclinic
loop_
_symmetry_equiv_pos_as_xyz
  x,y,z
_cell_length_a	13.781
_cell_length_b	25.0369
_cell_length_c	25.0369
_cell_angle_alpha	73.2333
_cell_angle_beta	74.0252
_cell_angle_gamma	74.0251
loop_
_atom_site_label
_atom_site_type_symbol
_atom_site_fract_x
_atom_site_fract_y
_atom_site_fract_z
_atom_site_charge
Mof_Cu	Cu	0.55862	0.12118	0.91814	0.902
Mof_Cu	Cu	0.44138	0.08186	0.87882	0.902
Mof_Cu	Cu	0.90206	0.62118	0.41814	0.903
Mof_Cu	Cu	0.09794	0.58186	0.37882	0.903
Mof_H 	H 	0.6007	0.1035	0.7003	0.054
Mof_H 	H 	0.0868	0.4077	0.3965	0.032
Mof_H 	H 	0.8405	0.217	0.6676	0.047
Mof_H 	H 	0.7643	0.1788	0.7606	0.057
Mof_H 	H 	0.9692	0.2471	0.4175	0.084
Mof_H 	H 	0.7038	0.1334	0.6134	0.046
Mof_H 	H 	0.7781	0.3671	0.5119	0.07
Mof_H 	H 	0.0732	0.3099	0.4259	0.07
Mof_H 	H 	0.6628	0.1649	0.4103	0.047
Mof_H 	H 	0.819	0.2152	0.3974	0.06
Mof_H 	H 	0.8352	0.2747	0.5759	0.081
Mof_H 	H 	0.8531	0.1262	0.5426	0.09
Mof_H 	H 	0.8062	0.4601	0.4919	0.028
Mof_H 	H 	0.0779	0.0997	0.5227	0.066
Mof_H 	H 	0.2183	0.0347	0.5279	0.039
Mof_H 	H 	0.3993	0.2997	0.8965	0.054
Mof_H 	H 	0.9132	0.6035	0.5923	0.032
Mof_H 	H 	0.1595	0.3324	0.783	0.047
Mof_H 	H 	0.2357	0.2394	0.8212	0.057
Mof_H 	H 	0.0308	0.5825	0.7529	0.084
Mof_H 	H 	0.2962	0.3866	0.8666	0.046
Mof_H 	H 	0.2219	0.4881	0.6329	0.07
Mof_H 	H 	0.9268	0.5741	0.6901	0.07
Mof_H 	H 	0.3372	0.5897	0.8351	0.047
Mof_H 	H 	0.181	0.6026	0.7848	0.06
Mof_H 	H 	0.1648	0.4241	0.7253	0.081
Mof_H 	H 	0.1469	0.4574	0.8738	0.09
Mof_H 	H 	0.1938	0.5081	0.5399	0.028
Mof_H 	H 	0.9221	0.4773	0.9003	0.066
Mof_H 	H 	0.7817	0.4721	0.9653	0.039
Mof_H 	H 	0.0955	0.6035	0.2003	0.053
Mof_H 	H 	0.609	0.9077	0.8965	0.032
Mof_H 	H 	0.7749	0.717	0.1676	0.046
Mof_H 	H 	0.7963	0.6788	0.2606	0.057
Mof_H 	H 	0.8662	0.7471	0.9175	0.086
Mof_H 	H 	0.0494	0.6334	0.1134	0.045
Mof_H 	H 	0.8429	0.8671	0.0119	0.064
Mof_H 	H 	0.691	0.8099	0.9259	0.069
Mof_H 	H 	0.262	0.6649	0.9103	0.047
Mof_H 	H 	0.0684	0.7152	0.8974	0.061
Mof_H 	H 	0.8142	0.7747	0.0759	0.083
Mof_H 	H 	0.9781	0.6262	0.0426	0.092
Mof_H 	H 	0.7418	0.9601	0.9919	0.029
Mof_H 	H 	0.7997	0.5997	0.0227	0.067
Mof_H 	H 	0.7191	0.5347	0.0279	0.03
Mof_H 	H 	0.9045	0.7997	0.3965	0.053
Mof_H 	H 	0.391	0.1035	0.0923	0.032
Mof_H 	H 	0.2251	0.8324	0.283	0.046
Mof_H 	H 	0.2037	0.7394	0.3212	0.057
Mof_H 	H 	0.1338	0.0825	0.2529	0.086
Mof_H 	H 	0.9506	0.8866	0.3666	0.045
Mof_H 	H 	0.1571	0.9881	0.1329	0.064
Mof_H 	H 	0.309	0.0741	0.1901	0.069
Mof_H 	H 	0.738	0.0897	0.3351	0.047
Mof_H 	H 	0.9316	0.1026	0.2848	0.061
Mof_H 	H 	0.1858	0.9241	0.2253	0.083
Mof_H 	H 	0.0219	0.9574	0.3738	0.092
Mof_H 	H 	0.2582	0.0081	0.0399	0.029
Mof_H 	H 	0.2003	0.9773	0.4003	0.067
Mof_H 	H 	0.2809	0.9721	0.4653	0.03
Mof_C 	C 	0.9721	0.5003	0.4211	0.419
Mof_C 	C 	0.6509	0.1237	0.6957	-0.027
Mof_C 	C 	0.671	0.1406	0.7398	-0.038
Mof_C 	C 	0.9501	0.4423	0.4393	-0.131
Mof_C 	C 	0.027	0.3982	0.4214	0.045
Mof_C 	C 	0.802	0.1898	0.674	-0.046
Mof_C 	C 	0.7486	0.1711	0.7301	-0.028
Mof_C 	C 	0.9389	0.2334	0.4554	-0.149
Mof_C 	C 	0.7179	0.1419	0.6439	-0.044
Mof_C 	C 	0.96803	0.13667	0.43787	-0.064
Mof_C 	C 	0.842	0.3754	0.4922	-0.111
Mof_C 	C 	0.0216	0.3393	0.4383	-0.11
Mof_C 	C 	0.731	0.1549	0.3913	-0.041
Mof_C 	C 	0.841	0.1944	0.5704	0.09
Mof_C 	C 	0.9192	0.2669	0.4963	0.063
Mof_C 	C 	0.9214	0.1432	0.3956	0.029
Mof_C 	C 	0.0684	0.0962	0.4512	0.036
Mof_C 	C 	0.612	0.1267	0.8043	0.309
Mof_C 	C 	0.8285	0.1775	0.3953	-0.075
Mof_C 	C 	0.86064	0.24956	0.55176	-0.141
Mof_C 	C 	0.8017	0.17	0.6266	-0.02
Mof_C 	C 	0.8668	0.1626	0.5306	-0.16
Mof_C 	C 	0.9257	0.3319	0.4769	0.039
Mof_C 	C 	0.8561	0.4312	0.4774	0.047
Mof_C 	C 	0.91312	0.18098	0.47198	0.1
Mof_C 	C 	0.1071	0.0807	0.4933	-0.088
Mof_C 	C 	0.1849	0.04	0.4986	-0.026
Mof_C 	C 	0.0279	0.5789	0.4997	0.419
Mof_C 	C 	0.3491	0.3043	0.8763	-0.027
Mof_C 	C 	0.329	0.2602	0.8594	-0.038
Mof_C 	C 	0.0499	0.5607	0.5577	-0.131
Mof_C 	C 	0.973	0.5786	0.6018	0.045
Mof_C 	C 	0.198	0.326	0.8102	-0.046
Mof_C 	C 	0.2514	0.2699	0.8289	-0.028
Mof_C 	C 	0.0611	0.5446	0.7666	-0.149
Mof_C 	C 	0.2821	0.3561	0.8581	-0.044
Mof_C 	C 	0.03197	0.56213	0.86333	-0.064
Mof_C 	C 	0.158	0.5078	0.6246	-0.111
Mof_C 	C 	0.9784	0.5617	0.6607	-0.11
Mof_C 	C 	0.269	0.6087	0.8451	-0.041
Mof_C 	C 	0.159	0.4296	0.8056	0.09
Mof_C 	C 	0.0808	0.5037	0.7331	0.063
Mof_C 	C 	0.0786	0.6044	0.8568	0.029
Mof_C 	C 	0.9316	0.5488	0.9038	0.036
Mof_C 	C 	0.388	0.1957	0.8733	0.309
Mof_C 	C 	0.1715	0.6047	0.8225	-0.075
Mof_C 	C 	0.13936	0.44824	0.75044	-0.141
Mof_C 	C 	0.1983	0.3734	0.83	-0.02
Mof_C 	C 	0.1332	0.4694	0.8374	-0.16
Mof_C 	C 	0.0743	0.5231	0.6681	0.039
Mof_C 	C 	0.1439	0.5226	0.5688	0.047
Mof_C 	C 	0.08688	0.52802	0.81902	0.1
Mof_C 	C 	0.8929	0.5067	0.9193	-0.088
Mof_C 	C 	0.8151	0.5014	0.96	-0.026
Mof_C 	C 	0.6065	0.0003	0.9211	0.421
Mof_C 	C 	0.0297	0.6237	0.1957	-0.028
Mof_C 	C 	0.9486	0.6406	0.2398	-0.037
Mof_C 	C 	0.6683	0.9423	0.9393	-0.132
Mof_C 	C 	0.6534	0.8982	0.9214	0.044
Mof_C 	C 	0.8342	0.6898	0.174	-0.044
Mof_C 	C 	0.8502	0.6711	0.2301	-0.03
Mof_C 	C 	0.8723	0.7334	0.9554	-0.156
Mof_C 	C 	0.9963	0.6419	0.1439	-0.042
Mof_C 	C 	0.95743	0.63667	0.93787	-0.068
Mof_C 	C 	0.7904	0.8754	0.9922	-0.101
Mof_C 	C 	0.7008	0.8393	0.9383	-0.108
Mof_C 	C 	0.2228	0.6549	0.8913	-0.041
Mof_C 	C 	0.8942	0.6944	0.0704	0.097
Mof_C 	C 	0.8176	0.7669	0.9963	0.072
Mof_C 	C 	0.0398	0.6432	0.8956	0.031
Mof_C 	C 	0.8842	0.5962	0.9512	0.042
Mof_C 	C 	0.957	0.6267	0.3043	0.308
Mof_C 	C 	0.0987	0.6775	0.8953	-0.076
Mof_C 	C 	0.83804	0.74956	0.05176	-0.151
Mof_C 	C 	0.9017	0.67	0.1266	-0.025
Mof_C 	C 	0.94	0.6626	0.0306	-0.17
Mof_C 	C 	0.7655	0.8319	0.9769	0.034
Mof_C 	C 	0.7353	0.9312	0.9774	0.043
Mof_C 	C 	0.93392	0.68098	0.97198	0.108
Mof_C 	C 	0.8189	0.5807	0.9933	-0.098
Mof_C 	C 	0.7765	0.54	0.9986	-0.007
Mof_C 	C 	0.3935	0.0789	0.9997	0.421
Mof_C 	C 	0.9703	0.8043	0.3763	-0.028
Mof_C 	C 	0.0514	0.7602	0.3594	-0.037
Mof_C 	C 	0.3317	0.0607	0.0577	-0.132
Mof_C 	C 	0.3466	0.0786	0.1018	0.044
Mof_C 	C 	0.1658	0.826	0.3102	-0.044
Mof_C 	C 	0.1498	0.7699	0.3289	-0.03
Mof_C 	C 	0.1277	0.0446	0.2666	-0.156
Mof_C 	C 	0.0037	0.8561	0.3581	-0.042
Mof_C 	C 	0.04257	0.06213	0.36333	-0.068
Mof_C 	C 	0.2096	0.0078	0.1246	-0.101
Mof_C 	C 	0.2992	0.0617	0.1607	-0.108
Mof_C 	C 	0.7772	0.1087	0.3451	-0.041
Mof_C 	C 	0.1058	0.9296	0.3056	0.097
Mof_C 	C 	0.1824	0.0037	0.2331	0.072
Mof_C 	C 	0.9602	0.1044	0.3568	0.031
Mof_C 	C 	0.1158	0.0488	0.4038	0.042
Mof_C 	C 	0.043	0.6957	0.3733	0.308
Mof_C 	C 	0.9013	0.1047	0.3225	-0.076
Mof_C 	C 	0.16196	0.94824	0.25044	-0.151
Mof_C 	C 	0.0983	0.8734	0.33	-0.025
Mof_C 	C 	0.06	0.9694	0.3374	-0.17
Mof_C 	C 	0.2345	0.0231	0.1681	0.034
Mof_C 	C 	0.2647	0.0226	0.0688	0.043
Mof_C 	C 	0.06608	0.02802	0.31902	0.108
Mof_C 	C 	0.1811	0.0067	0.4193	-0.098
Mof_C 	C 	0.2235	0.0014	0.46	-0.007
Mof_O 	O 	0.05663	0.50624	0.3977	-0.436
Mof_O 	O 	0.53332	0.10138	0.80798	-0.389
Mof_O 	O 	0.64284	0.13499	0.84073	-0.406
Mof_O 	O 	0.89518	0.54027	0.43157	-0.42
Mof_O 	O 	0.94337	0.6023	0.49376	-0.436
Mof_O 	O 	0.46668	0.19202	0.89862	-0.389
Mof_O 	O 	0.35716	0.15927	0.86501	-0.406
Mof_O 	O 	0.10482	0.56843	0.45973	-0.42
Mof_O 	O 	0.53943	0.00624	0.8977	-0.435
Mof_O 	O 	0.05732	0.60138	0.30798	-0.389
Mof_O 	O 	0.88144	0.63499	0.34073	-0.407
Mof_O 	O 	0.63298	0.04027	0.93157	-0.419
Mof_O 	O 	0.46057	0.1023	0.99376	-0.435
Mof_O 	O 	0.94268	0.69202	0.39862	-0.389
Mof_O 	O 	0.11856	0.65927	0.36501	-0.407
Mof_O 	O 	0.36702	0.06843	0.95973	-0.419
_end
