data_functionalizedCrystal
_audit_creation_method	'EQeq! by Chris Wilmer'
_symmetry_space_group_name_H-M	'P1'
_symmetry_Int_Tables_number	1
_symmetry_cell_setting	triclinic
loop_
_symmetry_equiv_pos_as_xyz
  x,y,z
_cell_length_a	16.9434
_cell_length_b	35.6426
_cell_length_c	40.319
_cell_angle_alpha	90
_cell_angle_beta	90
_cell_angle_gamma	90
loop_
_atom_site_label
_atom_site_type_symbol
_atom_site_fract_x
_atom_site_fract_y
_atom_site_fract_z
_atom_site_charge
Mof_Fe	Fe	0.25	0.25791	-0	0.702
Mof_Fe	Fe	0.25	0.24209	0.5	0.705
Mof_Fe	Fe	0.86531	0.75	0.75	1.399
Mof_Fe	Fe	0.63469	0.75	0.25	1.399
Mof_B 	B 	0.8887	0.7496	0.63861	-14.732
Mof_B 	B 	0.6113	0.7504	0.13861	-14.734
Mof_B 	B 	0.6113	0.7496	0.36139	-14.732
Mof_B 	B 	0.8887	0.7504	0.86139	-14.731
Mof_H 	H 	0.1695	0.3287	0.9705	-0.01
Mof_H 	H 	0.2632	0.3989	0.8816	0.086
Mof_H 	H 	0.375	0.3525	0.5691	0.095
Mof_H 	H 	0.3616	0.526	0.2987	0.042
Mof_H 	H 	0.8954	0.7767	0.6295	4.117
Mof_H 	H 	0.7381	0.6305	0.7837	0.106
Mof_H 	H 	0.1887	0.2994	0.609	0.106
Mof_H 	H 	0.0876	0.9713	0.2054	0.06
Mof_H 	H 	0.0357	0.0344	0.1905	0.069
Mof_H 	H 	0.125	0.3525	0.4309	0.095
Mof_H 	H 	0.4643	0.4656	0.6905	0.069
Mof_H 	H 	0.8434	0.7411	0.6229	4.109
Mof_H 	H 	0.1065	0.1224	0.1129	-0.019
Mof_H 	H 	0.6566	0.5831	0.7698	0.039
Mof_H 	H 	0.7777	0.7693	0.2122	-0.079
Mof_H 	H 	0.5763	0.8767	0.7769	0.069
Mof_H 	H 	0.3438	0.6227	0.2324	0.071
Mof_H 	H 	0.8247	0.8193	0.7137	-0.03
Mof_H 	H 	0.1287	0.2193	0.4463	-0.066
Mof_H 	H 	0.0771	0.9163	0.7803	0.035
Mof_H 	H 	0.2319	0.3554	0.3569	0.113
Mof_H 	H 	0.4229	0.9163	0.2197	0.035
Mof_H 	H 	0.4546	0.0828	0.7346	0.073
Mof_H 	H 	0.6753	0.6807	0.2137	-0.031
Mof_H 	H 	0.4124	0.9713	0.7946	0.059
Mof_H 	H 	0.99	0.869	0.7878	0.11
Mof_H 	H 	0.4485	0.3799	0.8116	0.03
Mof_H 	H 	0.0454	0.4172	0.2346	0.073
Mof_H 	H 	0.3643	0.1844	0.9781	-0.011
Mof_H 	H 	0.9091	0.526	0.2086	0.042
Mof_H 	H 	0.4521	0.4248	0.645	0.022
Mof_H 	H 	0.8434	0.7589	0.8771	4.107
Mof_H 	H 	0.7619	0.6305	0.2163	0.105
Mof_H 	H 	0.7381	0.8695	0.7163	0.105
Mof_H 	H 	0.3321	0.5343	0.7816	0.061
Mof_H 	H 	0.6305	0.8172	0.795	0.089
Mof_H 	H 	0.2747	0.0827	0.7692	0.075
Mof_H 	H 	0.99	0.631	0.7122	0.11
Mof_H 	H 	0.3113	0.2006	0.109	0.105
Mof_H 	H 	0.9353	0.7627	0.8741	4.186
Mof_H 	H 	0.3935	0.1224	0.8871	-0.019
Mof_H 	H 	0.375	0.1475	0.9309	0.094
Mof_H 	H 	0.2578	0.0647	0.6583	0.025
Mof_H 	H 	0.2578	0.4353	0.8417	0.025
Mof_H 	H 	0.7223	0.7307	0.7122	-0.08
Mof_H 	H 	0.3951	0.682	0.2118	0.089
Mof_H 	H 	0.8695	0.6828	0.295	0.089
Mof_H 	H 	0.8247	0.6807	0.7863	-0.031
Mof_H 	H 	0.2681	0.3554	0.6431	0.113
Mof_H 	H 	0.1843	0.3742	0.9307	0.09
Mof_H 	H 	0.1695	0.1713	0.5295	-0.011
Mof_H 	H 	0.1049	0.682	0.7882	0.089
Mof_H 	H 	0.2357	0.473	0.2041	0.068
Mof_H 	H 	0.2643	0.473	0.7959	0.068
Mof_H 	H 	0.3935	0.3776	0.6129	-0.019
Mof_H 	H 	0.233	0.3767	0.313	0.022
Mof_H 	H 	0.51	0.631	0.2878	0.11
Mof_H 	H 	0.0771	0.5837	0.7197	0.035
Mof_H 	H 	0.1287	0.2807	0.0537	-0.067
Mof_H 	H 	0.0479	0.0752	0.145	0.022
Mof_H 	H 	0.9237	0.8767	0.2231	0.068
Mof_H 	H 	0.267	0.1233	0.813	0.022
Mof_H 	H 	0.3616	0.974	0.2013	0.041
Mof_H 	H 	0.1384	0.526	0.7013	0.041
Mof_H 	H 	0.2632	0.1011	0.6184	0.085
Mof_H 	H 	0.0479	0.4248	0.355	0.022
Mof_H 	H 	0.2666	0.5791	0.2213	0.037
Mof_H 	H 	0.2422	0.0647	0.3417	0.025
Mof_H 	H 	0.4946	0.481	0.7872	0.06
Mof_H 	H 	0.2666	0.9209	0.2787	0.037
Mof_H 	H 	0.5647	0.7627	0.1259	4.186
Mof_H 	H 	0.5909	0.526	0.7914	0.042
Mof_H 	H 	0.7223	0.7693	0.7878	-0.08
Mof_H 	H 	0.1384	0.974	0.7987	0.041
Mof_H 	H 	0.2384	0.4805	0.7046	0.064
Mof_H 	H 	0.3113	0.2994	0.391	0.105
Mof_H 	H 	0.5137	0.9273	0.7924	0.041
Mof_H 	H 	0.1049	0.818	0.7118	0.089
Mof_H 	H 	0.267	0.3767	0.687	0.022
Mof_H 	H 	0.1149	0.3576	0.1407	-0.027
Mof_H 	H 	0.6046	0.7233	0.1295	4.117
Mof_H 	H 	0.1149	0.1424	0.3593	-0.027
Mof_H 	H 	0.5763	0.6233	0.7231	0.068
Mof_H 	H 	0.1562	0.8773	0.7324	0.07
Mof_H 	H 	0.2368	0.1011	0.3816	0.085
Mof_H 	H 	0.0081	0.7702	0.7158	0.026
Mof_H 	H 	0.3851	0.3576	0.8593	-0.027
Mof_H 	H 	0.4643	0.0344	0.8095	0.068
Mof_H 	H 	0.3713	0.2807	0.9463	-0.066
Mof_H 	H 	0.2253	0.4173	0.2692	0.075
Mof_H 	H 	0.8434	0.9169	0.2698	0.038
Mof_H 	H 	0.6753	0.8193	0.2863	-0.031
Mof_H 	H 	0.233	0.1233	0.187	0.022
Mof_H 	H 	0.3951	0.818	0.2882	0.089
Mof_H 	H 	0.4229	0.5837	0.2803	0.035
Mof_H 	H 	0.8434	0.5831	0.2302	0.038
Mof_H 	H 	0.1065	0.3776	0.3871	-0.019
Mof_H 	H 	0.0081	0.7298	0.7842	0.026
Mof_H 	H 	0.1108	0.3237	0.0982	-0.091
Mof_H 	H 	0.9863	0.9273	0.2076	0.041
Mof_H 	H 	0.901	0.8197	0.7869	-0.028
Mof_H 	H 	0.9237	0.6233	0.2769	0.068
Mof_H 	H 	0.3321	0.9657	0.7184	0.061
Mof_H 	H 	0.1357	0.3156	0.4781	-0.011
Mof_H 	H 	0.1562	0.6227	0.7676	0.07
Mof_H 	H 	0.4546	0.4172	0.7654	0.073
Mof_H 	H 	0.0454	0.0828	0.2654	0.073
Mof_H 	H 	0.1887	0.2006	0.891	0.105
Mof_H 	H 	0.9091	0.974	0.2914	0.042
Mof_H 	H 	0.1843	0.1258	0.5693	0.09
Mof_H 	H 	0.8954	0.7233	0.8705	4.116
Mof_H 	H 	0.1679	0.9657	0.2816	0.061
Mof_H 	H 	0.3157	0.3742	0.0693	0.09
Mof_H 	H 	0.2747	0.4173	0.7308	0.075
Mof_H 	H 	0.9353	0.7373	0.6259	4.186
Mof_H 	H 	0.4919	0.7702	0.2842	0.026
Mof_H 	H 	0.8695	0.8172	0.205	0.089
Mof_H 	H 	0.3851	0.1424	0.6407	-0.027
Mof_H 	H 	0.3438	0.8773	0.2676	0.07
Mof_H 	H 	0.4485	0.1201	0.6884	0.03
Mof_H 	H 	0.4124	0.5287	0.7054	0.059
Mof_H 	H 	0.9863	0.5727	0.2924	0.041
Mof_H 	H 	0.2616	0.4805	0.2954	0.064
Mof_H 	H 	0.1108	0.1763	0.4018	-0.091
Mof_H 	H 	0.0515	0.3799	0.1884	0.03
Mof_H 	H 	0.322	0.2375	0.0618	-0.015
Mof_H 	H 	0.1679	0.5343	0.2184	0.061
Mof_H 	H 	0.3157	0.1258	0.4307	0.09
Mof_H 	H 	0.178	0.2375	0.9382	-0.015
Mof_H 	H 	0.3713	0.2193	0.5537	-0.067
Mof_H 	H 	0.2616	0.0195	0.2046	0.064
Mof_H 	H 	0.599	0.8197	0.2131	-0.028
Mof_H 	H 	0.2643	0.027	0.7041	0.068
Mof_H 	H 	0.7777	0.7307	0.2878	-0.08
Mof_H 	H 	0.599	0.6803	0.2869	-0.028
Mof_H 	H 	0.3305	0.3287	0.0295	-0.011
Mof_H 	H 	0.0515	0.1201	0.3116	0.03
Mof_H 	H 	0.2334	0.9209	0.7213	0.037
Mof_H 	H 	0.6566	0.7411	0.3771	4.108
Mof_H 	H 	0.5647	0.7373	0.3741	4.186
Mof_H 	H 	0.3892	0.1763	0.5982	-0.091
Mof_H 	H 	0.0876	0.5287	0.2946	0.059
Mof_H 	H 	0.2357	0.027	0.2959	0.068
Mof_H 	H 	0.4919	0.7298	0.2158	0.026
Mof_H 	H 	0.2384	0.0195	0.7954	0.064
Mof_H 	H 	0.6046	0.7767	0.3705	4.116
Mof_H 	H 	0.0357	0.4656	0.3095	0.068
Mof_H 	H 	0.4521	0.0752	0.855	0.023
Mof_H 	H 	0.6566	0.9169	0.7302	0.038
Mof_H 	H 	0.125	0.1475	0.0691	0.094
Mof_H 	H 	0.5137	0.5727	0.7076	0.041
Mof_H 	H 	0.0054	0.481	0.2128	0.06
Mof_H 	H 	0.322	0.2625	0.4382	-0.015
Mof_H 	H 	0.4946	0.019	0.7128	0.06
Mof_H 	H 	0.2334	0.5791	0.7787	0.037
Mof_H 	H 	0.51	0.869	0.2122	0.11
Mof_H 	H 	0.7619	0.8695	0.2837	0.105
Mof_H 	H 	0.1357	0.1844	0.0219	-0.012
Mof_H 	H 	0.2681	0.1446	0.8569	0.113
Mof_H 	H 	0.178	0.2625	0.5618	-0.015
Mof_H 	H 	0.3305	0.1713	0.4705	-0.011
Mof_H 	H 	0.6305	0.6828	0.705	0.089
Mof_H 	H 	0.3892	0.3237	0.9018	-0.091
Mof_H 	H 	0.2422	0.4353	0.1583	0.025
Mof_H 	H 	0.2253	0.0827	0.2308	0.075
Mof_H 	H 	0.0054	0.019	0.2872	0.06
Mof_H 	H 	0.2368	0.3989	0.1184	0.085
Mof_H 	H 	0.901	0.6803	0.7131	-0.028
Mof_H 	H 	0.6566	0.7589	0.1229	4.108
Mof_H 	H 	0.5909	0.974	0.7086	0.042
Mof_H 	H 	0.2319	0.1446	0.1431	0.113
Mof_H 	H 	0.3643	0.3156	0.5219	-0.011
Mof_C 	C 	0.2346	0.55963	0.76333	-0.042
Mof_C 	C 	0.0043	0.79045	0.73022	0.131
Mof_C 	C 	0.6684	0.68192	0.7217	-0.216
Mof_C 	C 	0.3676	0.02537	0.75539	-0.092
Mof_C 	C 	0.3037	0.3564	0.6256	-0.235
Mof_C 	C 	0.4357	0.68081	0.22728	-0.192
Mof_C 	C 	0.8316	0.68192	0.2783	-0.216
Mof_C 	C 	0.004	0.99994	0.27148	-0.082
Mof_C 	C 	0.8843	0.58684	0.24516	-0.034
Mof_C 	C 	0.302	0.04568	0.70098	-0.114
Mof_C 	C 	0.2788	0.3551	0.0671	-0.2
Mof_C 	C 	0.3509	0.09775	0.66894	-0.029
Mof_C 	C 	0.3454	0.325	0.9156	-0.251
Mof_C 	C 	0.1546	0.175	0.4156	-0.251
Mof_C 	C 	0.7246	0.71013	0.72639	0.136
Mof_C 	C 	0.2788	0.1449	0.4329	-0.2
Mof_C 	C 	0.615	0.61933	0.73904	-0.127
Mof_C 	C 	0.3355	0.33447	0.5676	-0.24
Mof_C 	C 	0.3291	0.1876	0.96065	0.056
Mof_C 	C 	0.3842	0.88081	0.25226	-0.135
Mof_C 	C 	0.1645	0.16553	0.0676	-0.24
Mof_C 	C 	0.0773	0.05141	0.18972	-0.117
Mof_C 	C 	0.2133	0.14765	0.4116	0.139
Mof_C 	C 	0.0643	0.68081	0.77272	-0.191
Mof_C 	C 	0.1963	0.3564	0.3744	-0.235
Mof_C 	C 	0.1709	0.3124	0.46065	0.056
Mof_C 	C 	0.0523	0.97225	0.22308	-0.084
Mof_C 	C 	0.3682	0.05214	0.78507	0.076
Mof_C 	C 	0.9424	0.68061	0.7283	0.156
Mof_C 	C 	0.0896	0.39837	0.19157	-0.014
Mof_C 	C 	0.1457	0.37523	0.371	0.11
Mof_C 	C 	0.7669	0.6504	0.23102	-0.222
Mof_C 	C 	0.8843	0.91316	0.25484	-0.034
Mof_C 	C 	0.2175	0.28052	0.5633	0.047
Mof_C 	C 	0.0875	0.245	0.5135	0.083
Mof_C 	C 	0.7331	0.8496	0.73102	-0.222
Mof_C 	C 	0.4357	0.81919	0.27272	-0.192
Mof_C 	C 	0.2239	0.3026	0.59156	-0.333
Mof_C 	C 	0.3059	0.10488	0.81274	0.006
Mof_C 	C 	0.496	0.50006	0.77148	-0.083
Mof_C 	C 	0.996	0.84968	0.77249	-0.218
Mof_C 	C 	0.2025	0.06864	0.32613	-0.014
Mof_C 	C 	0.0562	0.85009	0.75049	0.142
Mof_C 	C 	0.2143	0.1718	0.5429	0.091
Mof_C 	C 	0.2654	0.55963	0.23667	-0.042
Mof_C 	C 	0.1318	0.44786	0.28507	0.076
Mof_C 	C 	0.3543	0.37523	0.629	0.11
Mof_C 	C 	0.1664	0.2991	0.0575	-0.018
Mof_C 	C 	0.2064	0.96746	0.26523	-0.089
Mof_C 	C 	0.2975	0.43136	0.82613	-0.014
Mof_C 	C 	0.0849	0.42123	0.21905	-0.112
Mof_C 	C 	0.2957	0.50269	0.74281	0.059
Mof_C 	C 	0.6743	0.65073	0.74546	0.135
Mof_C 	C 	0.1778	0.52812	0.71731	-0.043
Mof_C 	C 	0.2383	0.99956	0.78054	-0.091
Mof_C 	C 	0.2829	0.3296	0.59373	0.102
Mof_C 	C 	0.2857	0.3282	0.0429	0.091
Mof_C 	C 	0.1379	0.05013	0.27624	0.074
Mof_C 	C 	0.2043	0.50269	0.25719	0.059
Mof_C 	C 	0.3223	0.94221	0.23883	0.012
Mof_C 	C 	0.143	0.39781	0.3379	-0.047
Mof_C 	C 	0.7146	0.68089	0.2298	0.135
Mof_C 	C 	0.5576	0.81939	0.2283	0.156
Mof_C 	C 	0.2936	0.53254	0.76523	-0.089
Mof_C 	C 	0.3336	0.2009	0.5575	-0.018
Mof_C 	C 	0.348	0.12323	0.64137	0.022
Mof_C 	C 	0.1777	0.55779	0.73883	0.012
Mof_C 	C 	0.2654	0.94037	0.26333	-0.041
Mof_C 	C 	0.2976	0.37863	0.8824	-0.177
Mof_C 	C 	0.2825	0.28052	0.4367	0.047
Mof_C 	C 	0.1941	0.39512	0.31274	0.006
Mof_C 	C 	0.2346	0.94037	0.73667	-0.042
Mof_C 	C 	0.5576	0.68061	0.2717	0.156
Mof_C 	C 	0.198	0.04568	0.29902	-0.114
Mof_C 	C 	0.4162	0.07641	0.83755	-0.007
Mof_C 	C 	0.1894	0.41953	0.28655	-0.118
Mof_C 	C 	0.4957	0.70955	0.23022	0.132
Mof_C 	C 	0.9918	0.94474	0.2246	-0.049
Mof_C 	C 	0.383	0.58759	0.26488	-0.026
Mof_C 	C 	0.5082	0.55526	0.7246	-0.048
Mof_C 	C 	0.3291	0.3124	0.53935	0.056
Mof_C 	C 	0.1645	0.33447	0.4324	-0.24
Mof_C 	C 	0.0773	0.44859	0.31028	-0.117
Mof_C 	C 	0.0849	0.07877	0.28095	-0.112
Mof_C 	C 	0.1318	0.05214	0.21493	0.076
Mof_C 	C 	0.504	0.65032	0.27249	-0.219
Mof_C 	C 	0.6684	0.81808	0.7783	-0.216
Mof_C 	C 	0.5545	0.97278	0.72582	-0.047
Mof_C 	C 	0.504	0.84968	0.22751	-0.219
Mof_C 	C 	0.6157	0.91316	0.74516	-0.033
Mof_C 	C 	0.9455	0.97278	0.27418	-0.048
Mof_C 	C 	0.1546	0.325	0.0844	-0.251
Mof_C 	C 	0.4387	1e-05	0.75384	0.056
Mof_C 	C 	0.4477	0.52775	0.72308	-0.085
Mof_C 	C 	0.1777	0.94221	0.76117	0.012
Mof_C 	C 	0.996	0.65032	0.72751	-0.218
Mof_C 	C 	0.3621	0.05013	0.72376	0.074
Mof_C 	C 	0.2025	0.43136	0.17387	-0.014
Mof_C 	C 	0.1379	0.44987	0.22376	0.074
Mof_C 	C 	0.152	0.12323	0.35863	0.021
Mof_C 	C 	0.1491	0.09775	0.33106	-0.029
Mof_C 	C 	0.2761	0.3026	0.40844	-0.333
Mof_C 	C 	0.2171	0.1704	0.09373	0.102
Mof_C 	C 	0.152	0.37677	0.14137	0.021
Mof_C 	C 	0.3336	0.2991	0.9425	-0.018
Mof_C 	C 	0.4957	0.79045	0.26978	0.132
Mof_C 	C 	0.4104	0.10163	0.69157	-0.014
Mof_C 	C 	0.7854	0.81911	0.7298	0.135
Mof_C 	C 	0.1324	0.47463	0.25539	-0.092
Mof_C 	C 	0.3676	0.47463	0.74461	-0.092
Mof_C 	C 	0.8316	0.81808	0.2217	-0.216
Mof_C 	C 	0.0643	0.81919	0.72728	-0.191
Mof_C 	C 	0.2936	0.96746	0.73477	-0.089
Mof_C 	C 	0.496	0.99994	0.72852	-0.083
Mof_C 	C 	0.4151	0.07877	0.71905	-0.112
Mof_C 	C 	0.7669	0.8496	0.26898	-0.222
Mof_C 	C 	0.4104	0.39837	0.80843	-0.014
Mof_C 	C 	0.2212	0.3551	0.9329	-0.2
Mof_C 	C 	0.4125	0.255	0.0135	0.081
Mof_C 	C 	0.5587	0.94396	0.74871	0.018
Mof_C 	C 	0.7331	0.6504	0.76898	-0.222
Mof_C 	C 	0.2867	0.14765	0.5884	0.139
Mof_C 	C 	0.1491	0.40225	0.16894	-0.029
Mof_C 	C 	0.615	0.88067	0.76096	-0.127
Mof_C 	C 	0.2143	0.3282	0.9571	0.092
Mof_C 	C 	0.6331	0.7513	0.1783	5.153
Mof_C 	C 	0.302	0.45432	0.79902	-0.114
Mof_C 	C 	0.4125	0.245	0.4865	0.083
Mof_C 	C 	0.0896	0.10163	0.30843	-0.014
Mof_C 	C 	0.1664	0.2009	0.4425	-0.018
Mof_C 	C 	0.9413	0.55604	0.24871	0.018
Mof_C 	C 	0.3222	0.97188	0.21731	-0.043
Mof_C 	C 	0.9918	0.55526	0.2754	-0.048
Mof_C 	C 	0.0838	0.42359	0.33755	-0.007
Mof_C 	C 	0.1778	0.97188	0.78269	-0.043
Mof_C 	C 	0.4227	0.44859	0.68972	-0.117
Mof_C 	C 	0.4438	0.64991	0.25049	0.143
Mof_C 	C 	0.4227	0.05141	0.81028	-0.117
Mof_C 	C 	0.8257	0.65073	0.25454	0.134
Mof_C 	C 	0.3106	0.08047	0.78655	-0.117
Mof_C 	C 	0.3682	0.44786	0.71493	0.077
Mof_C 	C 	0.3543	0.12477	0.871	0.109
Mof_C 	C 	0.0043	0.70955	0.76978	0.131
Mof_C 	C 	0.4162	0.42359	0.66245	-0.007
Mof_C 	C 	0.2825	0.21948	0.0633	0.047
Mof_C 	C 	0.1894	0.08047	0.21345	-0.118
Mof_C 	C 	0.4151	0.42123	0.78095	-0.112
Mof_C 	C 	0.1457	0.12477	0.129	0.11
Mof_C 	C 	0.2383	0.50044	0.71946	-0.091
Mof_C 	C 	0.2829	0.1704	0.90627	0.102
Mof_C 	C 	0.0523	0.52775	0.27692	-0.084
Mof_C 	C 	0.885	0.61933	0.26096	-0.126
Mof_C 	C 	0.2171	0.3296	0.40627	0.102
Mof_C 	C 	0.0562	0.64991	0.74951	0.142
Mof_C 	C 	0.0838	0.07641	0.16245	-0.007
Mof_C 	C 	0.4438	0.85009	0.24951	0.143
Mof_C 	C 	0.3355	0.16553	0.9324	-0.24
Mof_C 	C 	0.1158	0.88081	0.74774	-0.134
Mof_C 	C 	0.2239	0.1974	0.90844	-0.333
Mof_C 	C 	0.5587	0.55604	0.75129	0.018
Mof_C 	C 	0.2975	0.06864	0.67387	-0.014
Mof_C 	C 	0.9413	0.94396	0.25129	0.019
Mof_C 	C 	0.7754	0.71013	0.27361	0.136
Mof_C 	C 	0.6157	0.58684	0.75484	-0.033
Mof_C 	C 	0.3621	0.44987	0.77624	0.074
Mof_C 	C 	0.3509	0.40225	0.83106	-0.029
Mof_C 	C 	0.9424	0.81939	0.7717	0.156
Mof_C 	C 	0.5082	0.94474	0.7754	-0.048
Mof_C 	C 	0.7754	0.78987	0.22639	0.136
Mof_C 	C 	0.0613	1e-05	0.24616	0.056
Mof_C 	C 	0.9455	0.52722	0.22582	-0.048
Mof_C 	C 	0.3454	0.175	0.5844	-0.251
Mof_C 	C 	0.1941	0.10488	0.18726	0.006
Mof_C 	C 	0.1324	0.02537	0.24461	-0.092
Mof_C 	C 	0.3842	0.61919	0.24774	-0.135
Mof_C 	C 	0.004	0.50006	0.22852	-0.082
Mof_C 	C 	0.2133	0.35235	0.0884	0.139
Mof_C 	C 	0.143	0.10219	0.1621	-0.047
Mof_C 	C 	0.3059	0.39512	0.68726	0.006
Mof_C 	C 	0.3223	0.55779	0.26117	0.012
Mof_C 	C 	0.6743	0.84927	0.75454	0.135
Mof_C 	C 	0.348	0.37677	0.85863	0.022
Mof_C 	C 	0.0875	0.255	0.9865	0.084
Mof_C 	C 	0.1158	0.61919	0.75226	-0.135
Mof_C 	C 	0.2212	0.1449	0.5671	-0.2
Mof_C 	C 	0.5545	0.52722	0.77418	-0.047
Mof_C 	C 	0.357	0.10219	0.8379	-0.047
Mof_C 	C 	0.8669	0.7487	0.6783	5.153
Mof_C 	C 	0.383	0.91241	0.23512	-0.026
Mof_C 	C 	0.885	0.88067	0.23904	-0.126
Mof_C 	C 	0.2857	0.1718	0.4571	0.091
Mof_C 	C 	0.117	0.58759	0.73512	-0.026
Mof_C 	C 	0.2175	0.21948	0.9367	0.047
Mof_C 	C 	0.2617	0.50044	0.28054	-0.091
Mof_C 	C 	0.7146	0.81911	0.2702	0.135
Mof_C 	C 	0.1709	0.1876	0.03935	0.056
Mof_C 	C 	0.2064	0.53254	0.23477	-0.089
Mof_C 	C 	0.8669	0.7513	0.8217	5.152
Mof_C 	C 	0.3037	0.1436	0.8744	-0.235
Mof_C 	C 	0.2761	0.1974	0.09156	-0.333
Mof_C 	C 	0.3106	0.41953	0.71345	-0.118
Mof_C 	C 	0.7854	0.68089	0.7702	0.135
Mof_C 	C 	0.4477	0.97225	0.77692	-0.085
Mof_C 	C 	0.3222	0.52812	0.28269	-0.043
Mof_C 	C 	0.4387	0.49999	0.74616	0.056
Mof_C 	C 	0.198	0.45432	0.20098	-0.114
Mof_C 	C 	0.117	0.91241	0.76488	-0.026
Mof_C 	C 	0.2043	0.99731	0.24281	0.059
Mof_C 	C 	0.2976	0.12137	0.6176	-0.177
Mof_C 	C 	0.357	0.39781	0.6621	-0.047
Mof_C 	C 	0.0613	0.49999	0.25384	0.056
Mof_C 	C 	0.2867	0.35235	0.9116	0.139
Mof_C 	C 	0.2957	0.99731	0.75719	0.059
Mof_C 	C 	0.7246	0.78987	0.77361	0.136
Mof_C 	C 	0.2617	0.99956	0.21946	-0.091
Mof_C 	C 	0.6331	0.7487	0.3217	5.153
Mof_C 	C 	0.8257	0.84927	0.24546	0.134
Mof_C 	C 	0.2024	0.37863	0.1176	-0.177
Mof_C 	C 	0.2024	0.12137	0.3824	-0.177
Mof_C 	C 	0.1963	0.1436	0.1256	-0.235
Mof_N 	N 	0.3559	0.2425	0.4907	-0.255
Mof_N 	N 	0.1441	0.2575	0.9907	-0.254
Mof_N 	N 	0.269	0.30053	0.96284	-0.181
Mof_N 	N 	0.7182	0.71016	0.25046	-0.266
Mof_N 	N 	0.7182	0.78984	0.24954	-0.266
Mof_N 	N 	0.1441	0.2425	0.5093	-0.255
Mof_N 	N 	0.2701	0.28539	0.53718	-0.196
Mof_N 	N 	0.2299	0.28539	0.46282	-0.196
Mof_N 	N 	0.7818	0.71016	0.74954	-0.266
Mof_N 	N 	0.7818	0.78984	0.75046	-0.266
Mof_N 	N 	0.5535	0.79017	0.24926	-0.233
Mof_N 	N 	0.9465	0.79017	0.75074	-0.233
Mof_N 	N 	0.2701	0.21461	0.96282	-0.195
Mof_N 	N 	0.3559	0.2575	0.0093	-0.255
Mof_N 	N 	0.8713	0.752	0.7022	-2.249
Mof_N 	N 	0.2299	0.21461	0.03718	-0.196
Mof_N 	N 	0.269	0.19947	0.53716	-0.182
Mof_N 	N 	0.9465	0.70983	0.74926	-0.233
Mof_N 	N 	0.6287	0.752	0.2978	-2.249
Mof_N 	N 	0.5535	0.70983	0.25074	-0.233
Mof_N 	N 	0.231	0.19947	0.46284	-0.182
Mof_N 	N 	0.231	0.30053	0.03716	-0.182
Mof_N 	N 	0.8713	0.748	0.7978	-2.249
Mof_N 	N 	0.6287	0.748	0.2022	-2.249
Mof_Fe	Fe	0.75	0.74209	-0	0.701
Mof_Fe	Fe	0.36531	0.25	0.75	1.398
Mof_Fe	Fe	0.75	0.75791	0.5	0.704
Mof_Fe	Fe	0.13469	0.25	0.25	1.398
Mof_B 	B 	0.1113	0.2504	0.36139	-14.733
Mof_B 	B 	0.3887	0.2504	0.63861	-14.733
Mof_B 	B 	0.3887	0.2496	0.86139	-14.732
Mof_B 	B 	0.1113	0.2496	0.13861	-14.734
Mof_H 	H 	0.733	0.8767	0.187	0.022
Mof_H 	H 	0.7368	0.8989	0.3816	0.085
Mof_H 	H 	0.822	0.7375	0.4382	-0.015
Mof_H 	H 	0.099	0.3197	0.2869	-0.028
Mof_H 	H 	0.5479	0.5752	0.355	0.022
Mof_H 	H 	0.822	0.7625	0.0618	-0.015
Mof_H 	H 	0.6843	0.8742	0.5693	0.09
Mof_H 	H 	0.5876	0.4713	0.2946	0.059
Mof_H 	H 	0.1566	0.2589	0.3771	4.108
Mof_H 	H 	0.8935	0.6224	0.6129	-0.019
Mof_H 	H 	0.7666	0.0791	0.2787	0.037
Mof_H 	H 	0.9946	0.981	0.7128	0.06
Mof_H 	H 	0.767	0.6233	0.687	0.022
Mof_H 	H 	0.8305	0.6713	0.0295	-0.011
Mof_H 	H 	0.1046	0.2233	0.3705	4.116
Mof_H 	H 	0.3695	0.3172	0.295	0.089
Mof_H 	H 	0.1753	0.3193	0.2137	-0.031
Mof_H 	H 	0.7384	0.5195	0.7046	0.064
Mof_H 	H 	0.8951	0.318	0.2118	0.089
Mof_H 	H 	0.2619	0.3695	0.2163	0.105
Mof_H 	H 	0.6695	0.8287	0.5295	-0.011
Mof_H 	H 	0.6149	0.8576	0.3593	-0.027
Mof_H 	H 	0.6049	0.182	0.7118	0.089
Mof_H 	H 	0.5771	0.4163	0.7197	0.035
Mof_H 	H 	0.8892	0.6763	0.9018	-0.091
Mof_H 	H 	0.2619	0.1305	0.2837	0.105
Mof_H 	H 	0.0763	0.1233	0.7769	0.068
Mof_H 	H 	0.6065	0.6224	0.3871	-0.019
Mof_H 	H 	0.7578	0.9353	0.6583	0.025
Mof_H 	H 	0.8438	0.3773	0.2324	0.07
Mof_H 	H 	0.7384	0.9805	0.7954	0.064
Mof_H 	H 	0.8616	0.474	0.2987	0.041
Mof_H 	H 	0.6679	0.0343	0.2816	0.061
Mof_H 	H 	0.5081	0.2298	0.7158	0.026
Mof_H 	H 	0.4353	0.2373	0.8741	4.186
Mof_H 	H 	0.875	0.8525	0.9309	0.094
Mof_H 	H 	0.3434	0.4169	0.2302	0.038
Mof_H 	H 	0.0647	0.2627	0.3741	4.186
Mof_H 	H 	0.6357	0.6844	0.4781	-0.011
Mof_H 	H 	0.7253	0.5827	0.2692	0.075
Mof_H 	H 	0.5357	0.9656	0.1905	0.068
Mof_H 	H 	0.4237	0.3767	0.2769	0.068
Mof_H 	H 	0.8321	0.0343	0.7184	0.061
Mof_H 	H 	0.0909	0.474	0.7914	0.042
Mof_H 	H 	0.7368	0.6011	0.1184	0.085
Mof_H 	H 	0.8113	0.7994	0.109	0.105
Mof_H 	H 	0.9229	0.0837	0.2197	0.035
Mof_H 	H 	0.9124	0.0287	0.7946	0.059
Mof_H 	H 	0.099	0.1803	0.2131	-0.028
Mof_H 	H 	0.9546	0.5828	0.7654	0.073
Mof_H 	H 	0.8713	0.7193	0.9463	-0.066
Mof_H 	H 	0.5515	0.8799	0.3116	0.03
Mof_H 	H 	0.4863	0.4273	0.2924	0.041
Mof_H 	H 	0.5454	0.5828	0.2346	0.073
Mof_H 	H 	0.7681	0.8554	0.8569	0.113
Mof_H 	H 	0.6384	0.026	0.7987	0.041
Mof_H 	H 	0.8935	0.8776	0.8871	-0.019
Mof_H 	H 	0.9521	0.5752	0.645	0.022
Mof_H 	H 	0.3247	0.3193	0.7863	-0.031
Mof_H 	H 	0.7747	0.9173	0.7692	0.075
Mof_H 	H 	0.0647	0.2373	0.1259	4.186
Mof_H 	H 	0.7319	0.8554	0.1431	0.113
Mof_H 	H 	0.8321	0.4657	0.7816	0.061
Mof_H 	H 	0.5454	0.9172	0.2654	0.073
Mof_H 	H 	0.5054	0.981	0.2872	0.06
Mof_H 	H 	0.7747	0.5827	0.7308	0.075
Mof_H 	H 	0.6108	0.8237	0.4018	-0.091
Mof_H 	H 	0.7632	0.8989	0.6184	0.085
Mof_H 	H 	0.8157	0.6258	0.0693	0.09
Mof_H 	H 	0.4091	0.026	0.2914	0.042
Mof_H 	H 	0.4863	0.0727	0.2076	0.041
Mof_H 	H 	0.9946	0.519	0.7872	0.06
Mof_H 	H 	0.7681	0.6446	0.6431	0.113
Mof_H 	H 	0.7253	0.9173	0.2308	0.075
Mof_H 	H 	0.5054	0.519	0.2128	0.06
Mof_H 	H 	0.6108	0.6763	0.0982	-0.091
Mof_H 	H 	0.0137	0.4273	0.7076	0.041
Mof_H 	H 	0.625	0.8525	0.0691	0.094
Mof_H 	H 	0.4237	0.1233	0.2231	0.068
Mof_H 	H 	0.9546	0.9172	0.7346	0.073
Mof_H 	H 	0.6149	0.6424	0.1407	-0.027
Mof_H 	H 	0.8851	0.8576	0.6407	-0.027
Mof_H 	H 	0.8157	0.8742	0.4307	0.09
Mof_H 	H 	0.8113	0.7006	0.391	0.105
Mof_H 	H 	0.3954	0.2767	0.8705	4.116
Mof_H 	H 	0.8713	0.7807	0.5537	-0.067
Mof_H 	H 	0.1566	0.0831	0.7302	0.038
Mof_H 	H 	0.8643	0.8156	0.9781	-0.011
Mof_H 	H 	0.2777	0.2307	0.2122	-0.08
Mof_H 	H 	0.733	0.6233	0.313	0.022
Mof_H 	H 	0.7422	0.9353	0.3417	0.025
Mof_H 	H 	0.5357	0.5344	0.3095	0.068
Mof_H 	H 	0.6887	0.7006	0.609	0.105
Mof_H 	H 	0.8892	0.8237	0.5982	-0.091
Mof_H 	H 	0.8438	0.1227	0.2676	0.07
Mof_H 	H 	0.7643	0.527	0.7959	0.068
Mof_H 	H 	0.1566	0.2411	0.1229	4.108
Mof_H 	H 	0.5771	0.0837	0.7803	0.035
Mof_H 	H 	0.7334	0.0791	0.7213	0.037
Mof_H 	H 	0.1566	0.4169	0.7698	0.038
Mof_H 	H 	0.625	0.6475	0.4309	0.094
Mof_H 	H 	0.6287	0.7193	0.0537	-0.067
Mof_H 	H 	0.6562	0.1227	0.7324	0.07
Mof_H 	H 	0.9643	0.9656	0.8095	0.068
Mof_H 	H 	0.9229	0.4163	0.2803	0.035
Mof_H 	H 	0.8951	0.182	0.2882	0.089
Mof_H 	H 	0.7616	0.9805	0.2046	0.064
Mof_H 	H 	0.5081	0.2702	0.7842	0.026
Mof_H 	H 	0.678	0.7625	0.9382	-0.015
Mof_H 	H 	0.1046	0.2767	0.1295	4.117
Mof_H 	H 	0.49	0.131	0.7878	0.11
Mof_H 	H 	0.6887	0.7994	0.891	0.105
Mof_H 	H 	0.767	0.8767	0.813	0.022
Mof_H 	H 	0.4091	0.474	0.2086	0.042
Mof_H 	H 	0.1305	0.1828	0.795	0.089
Mof_H 	H 	0.401	0.1803	0.7869	-0.028
Mof_H 	H 	0.9124	0.4713	0.7054	0.059
Mof_H 	H 	0.7334	0.4209	0.7787	0.037
Mof_H 	H 	0.49	0.369	0.7122	0.11
Mof_H 	H 	0.3695	0.1828	0.205	0.089
Mof_H 	H 	0.3247	0.1807	0.7137	-0.031
Mof_H 	H 	0.9485	0.8799	0.6884	0.03
Mof_H 	H 	0.7319	0.6446	0.3569	0.113
Mof_H 	H 	0.6049	0.318	0.7882	0.089
Mof_H 	H 	0.8616	0.026	0.2013	0.041
Mof_H 	H 	0.9919	0.2702	0.2158	0.026
Mof_H 	H 	0.6562	0.3773	0.7676	0.07
Mof_H 	H 	0.9521	0.9248	0.855	0.023
Mof_H 	H 	0.01	0.131	0.2122	0.11
Mof_H 	H 	0.6679	0.4657	0.2184	0.061
Mof_H 	H 	0.1305	0.3172	0.705	0.089
Mof_H 	H 	0.678	0.7375	0.5618	-0.015
Mof_H 	H 	0.875	0.6475	0.5691	0.094
Mof_H 	H 	0.7643	0.973	0.7041	0.068
Mof_H 	H 	0.0909	0.026	0.7086	0.042
Mof_H 	H 	0.9643	0.5344	0.6905	0.068
Mof_H 	H 	0.7578	0.5647	0.8417	0.025
Mof_H 	H 	0.8851	0.6424	0.8593	-0.027
Mof_H 	H 	0.7357	0.527	0.2041	0.068
Mof_H 	H 	0.2381	0.1305	0.7163	0.105
Mof_H 	H 	0.5515	0.6201	0.1884	0.029
Mof_H 	H 	0.6287	0.7807	0.4463	-0.067
Mof_H 	H 	0.9485	0.6201	0.8116	0.03
Mof_H 	H 	0.7422	0.5647	0.1583	0.025
Mof_H 	H 	0.6384	0.474	0.7013	0.041
Mof_H 	H 	0.8643	0.6844	0.5219	-0.011
Mof_H 	H 	0.6357	0.8156	0.0219	-0.012
Mof_H 	H 	0.3434	0.2589	0.6229	4.108
Mof_H 	H 	0.5479	0.9248	0.145	0.022
Mof_H 	H 	0.401	0.3197	0.7131	-0.028
Mof_H 	H 	0.6843	0.6258	0.9307	0.09
Mof_H 	H 	0.0763	0.3767	0.7231	0.068
Mof_H 	H 	0.1753	0.1807	0.2863	-0.031
Mof_H 	H 	0.3434	0.0831	0.2698	0.038
Mof_H 	H 	0.0137	0.0727	0.7924	0.041
Mof_H 	H 	0.7666	0.4209	0.2213	0.037
Mof_H 	H 	0.8305	0.8287	0.4705	-0.011
Mof_H 	H 	0.6695	0.6713	0.9705	-0.011
Mof_H 	H 	0.5876	0.0287	0.2054	0.059
Mof_H 	H 	0.3434	0.2411	0.8771	4.107
Mof_H 	H 	0.2381	0.3695	0.7837	0.105
Mof_H 	H 	0.2777	0.2693	0.2878	-0.08
Mof_H 	H 	0.9919	0.2298	0.2842	0.026
Mof_H 	H 	0.7357	0.973	0.2959	0.068
Mof_H 	H 	0.7616	0.5195	0.2954	0.064
Mof_H 	H 	0.2223	0.2307	0.7878	-0.08
Mof_H 	H 	0.3954	0.2233	0.6295	4.116
Mof_H 	H 	0.4353	0.2627	0.6259	4.186
Mof_H 	H 	0.7632	0.6011	0.8816	0.085
Mof_H 	H 	0.6065	0.8776	0.1129	-0.02
Mof_H 	H 	0.2223	0.2693	0.7122	-0.08
Mof_H 	H 	0.01	0.369	0.2878	0.11
Mof_C 	C 	0.802	0.54568	0.79902	-0.114
Mof_C 	C 	0.3669	0.2487	0.8217	5.152
Mof_C 	C 	0.5562	0.14991	0.75049	0.143
Mof_C 	C 	0.8676	0.52537	0.74461	-0.092
Mof_C 	C 	0.6158	0.38081	0.75226	-0.135
Mof_C 	C 	0.9151	0.92123	0.71905	-0.112
Mof_C 	C 	0.7617	0.49956	0.28054	-0.091
Mof_C 	C 	0.0545	0.47278	0.77418	-0.048
Mof_C 	C 	0.8543	0.62477	0.629	0.11
Mof_C 	C 	0.8676	0.97463	0.75539	-0.092
Mof_C 	C 	0.7143	0.8282	0.5429	0.091
Mof_C 	C 	0.6778	0.02812	0.78269	-0.043
Mof_C 	C 	0.5838	0.92359	0.16245	-0.007
Mof_C 	C 	0.6894	0.91953	0.21345	-0.118
Mof_C 	C 	0.8509	0.90225	0.66894	-0.029
Mof_C 	C 	0.5643	0.31919	0.77272	-0.192
Mof_C 	C 	0.7867	0.64765	0.9116	0.139
Mof_C 	C 	0.9357	0.18081	0.27272	-0.191
Mof_C 	C 	0.2754	0.21013	0.22639	0.136
Mof_C 	C 	0.1331	0.2513	0.3217	5.153
Mof_C 	C 	0.7171	0.6704	0.40627	0.102
Mof_C 	C 	0.8291	0.8124	0.96065	0.056
Mof_C 	C 	0.6379	0.94987	0.27624	0.074
Mof_C 	C 	0.1684	0.18192	0.7783	-0.216
Mof_C 	C 	0.9104	0.60163	0.80843	-0.014
Mof_C 	C 	0.7825	0.78052	0.0633	0.047
Mof_C 	C 	0.643	0.89781	0.1621	-0.047
Mof_C 	C 	0.7936	0.03254	0.73477	-0.089
Mof_C 	C 	0.8336	0.7009	0.9425	-0.018
Mof_C 	C 	0.5849	0.92123	0.28095	-0.112
Mof_C 	C 	0.7239	0.6974	0.59156	-0.333
Mof_C 	C 	0.9357	0.31919	0.22728	-0.191
Mof_C 	C 	0.5523	0.47225	0.27692	-0.085
Mof_C 	C 	0.7175	0.71948	0.5633	0.047
Mof_C 	C 	0.8037	0.6436	0.6256	-0.235
Mof_C 	C 	0.7761	0.8026	0.09156	-0.333
Mof_C 	C 	0.5773	0.55141	0.31028	-0.117
Mof_C 	C 	0.004	0.34968	0.27249	-0.218
Mof_C 	C 	0.7212	0.8551	0.5671	-0.2
Mof_C 	C 	0.9227	0.94859	0.81028	-0.117
Mof_C 	C 	0.7346	0.44037	0.76333	-0.041
Mof_C 	C 	0.5613	0.99999	0.24616	0.056
Mof_C 	C 	0.1157	0.08684	0.74516	-0.034
Mof_C 	C 	0.996	6e-05	0.72852	-0.082
Mof_C 	C 	0.9477	0.47225	0.72308	-0.084
Mof_C 	C 	0.883	0.41241	0.26488	-0.026
Mof_C 	C 	0.5043	0.20955	0.73022	0.132
Mof_C 	C 	0.698	0.95432	0.29902	-0.114
Mof_C 	C 	0.7024	0.87863	0.3824	-0.177
Mof_C 	C 	0.5875	0.745	0.9865	0.084
Mof_C 	C 	0.6941	0.89512	0.18726	0.006
Mof_C 	C 	0.6645	0.83447	0.0676	-0.24
Mof_C 	C 	0.8222	0.47188	0.28269	-0.043
Mof_C 	C 	0.0587	0.05604	0.74871	0.019
Mof_C 	C 	0.2246	0.21013	0.77361	0.136
Mof_C 	C 	0.3843	0.08684	0.25484	-0.033
Mof_C 	C 	0.2146	0.18089	0.2702	0.135
Mof_C 	C 	0.8106	0.58047	0.71345	-0.118
Mof_C 	C 	0.6457	0.87523	0.129	0.11
Mof_C 	C 	0.3316	0.31808	0.2783	-0.216
Mof_C 	C 	0.8682	0.55214	0.71493	0.076
Mof_C 	C 	0.4918	0.05526	0.2246	-0.048
Mof_C 	C 	0.7143	0.6718	0.9571	0.092
Mof_C 	C 	0.5875	0.755	0.5135	0.083
Mof_C 	C 	0.2246	0.28987	0.72639	0.136
Mof_C 	C 	0.9227	0.55141	0.68972	-0.117
Mof_C 	C 	0.2854	0.31911	0.7702	0.135
Mof_C 	C 	0.1331	0.2487	0.1783	5.153
Mof_C 	C 	0.8842	0.11919	0.25226	-0.134
Mof_C 	C 	0.6963	0.6436	0.3744	-0.235
Mof_C 	C 	0.4455	0.02722	0.27418	-0.047
Mof_C 	C 	0.7829	0.6704	0.59373	0.102
Mof_C 	C 	0.4424	0.18061	0.7717	0.156
Mof_C 	C 	0.2331	0.3496	0.76898	-0.222
Mof_C 	C 	0.4918	0.44474	0.2754	-0.048
Mof_C 	C 	0.6941	0.60488	0.31274	0.006
Mof_C 	C 	0.7617	0.00044	0.21946	-0.091
Mof_C 	C 	0.6709	0.6876	0.46065	0.056
Mof_C 	C 	0.1157	0.41316	0.75484	-0.033
Mof_C 	C 	0.7064	0.46746	0.23477	-0.089
Mof_C 	C 	0.504	0.49994	0.22852	-0.083
Mof_C 	C 	0.7024	0.62137	0.1176	-0.177
Mof_C 	C 	0.385	0.38067	0.26096	-0.127
Mof_C 	C 	0.7025	0.93136	0.32613	-0.014
Mof_C 	C 	0.6379	0.55013	0.22376	0.074
Mof_C 	C 	0.7825	0.71948	0.4367	0.047
Mof_C 	C 	0.1684	0.31808	0.7217	-0.216
Mof_C 	C 	0.9438	0.14991	0.24951	0.142
Mof_C 	C 	0.9162	0.92359	0.83755	-0.007
Mof_C 	C 	0.857	0.89781	0.8379	-0.047
Mof_C 	C 	0.8336	0.7991	0.5575	-0.018
Mof_C 	C 	0.698	0.54568	0.20098	-0.114
Mof_C 	C 	0.6491	0.59775	0.16894	-0.03
Mof_C 	C 	0.4424	0.31939	0.7283	0.156
Mof_C 	C 	0.7867	0.85235	0.5884	0.139
Mof_C 	C 	0.6324	0.97463	0.24461	-0.092
Mof_C 	C 	0.6457	0.62477	0.371	0.11
Mof_C 	C 	0.7133	0.64765	0.0884	0.139
Mof_C 	C 	0.0576	0.31939	0.2717	0.156
Mof_C 	C 	0.9477	0.02775	0.77692	-0.084
Mof_C 	C 	0.9162	0.57641	0.66245	-0.007
Mof_C 	C 	0.0082	0.44474	0.7246	-0.049
Mof_C 	C 	0.7175	0.78052	0.9367	0.047
Mof_C 	C 	0.496	0.34968	0.72751	-0.219
Mof_C 	C 	0.7043	0.49731	0.25719	0.059
Mof_C 	C 	0.5613	0.50001	0.25384	0.056
Mof_C 	C 	0.9957	0.20955	0.26978	0.131
Mof_C 	C 	0.7212	0.6449	0.9329	-0.2
Mof_C 	C 	0.7957	0.49731	0.74281	0.059
Mof_C 	C 	0.5849	0.57877	0.21905	-0.112
Mof_C 	C 	0.2146	0.31911	0.2298	0.135
Mof_C 	C 	0.8106	0.91953	0.78655	-0.117
Mof_C 	C 	0.8621	0.94987	0.72376	0.074
Mof_C 	C 	0.6709	0.8124	0.03935	0.056
Mof_C 	C 	0.5896	0.60163	0.19157	-0.014
Mof_C 	C 	0.5562	0.35009	0.74951	0.143
Mof_C 	C 	0.6778	0.47188	0.71731	-0.043
Mof_C 	C 	0.996	0.49994	0.77148	-0.082
Mof_C 	C 	0.9438	0.35009	0.25049	0.142
Mof_C 	C 	0.8222	0.02812	0.21731	-0.043
Mof_C 	C 	0.7383	0.00044	0.78054	-0.091
Mof_C 	C 	0.9125	0.745	0.0135	0.081
Mof_C 	C 	0.2754	0.28987	0.27361	0.136
Mof_C 	C 	0.6546	0.825	0.4156	-0.251
Mof_C 	C 	0.2331	0.1504	0.73102	-0.222
Mof_C 	C 	0.2669	0.1504	0.26898	-0.222
Mof_C 	C 	0.7383	0.49956	0.71946	-0.091
Mof_C 	C 	0.2669	0.3496	0.23102	-0.222
Mof_C 	C 	0.7761	0.6974	0.40844	-0.333
Mof_C 	C 	0.6318	0.55214	0.28507	0.077
Mof_C 	C 	0.6318	0.94786	0.21493	0.077
Mof_C 	C 	0.8454	0.825	0.5844	-0.251
Mof_C 	C 	0.5643	0.18081	0.72728	-0.192
Mof_C 	C 	0.8454	0.675	0.9156	-0.251
Mof_C 	C 	0.6664	0.7991	0.4425	-0.018
Mof_C 	C 	0.7346	0.05963	0.73667	-0.042
Mof_C 	C 	0.5773	0.94859	0.18972	-0.118
Mof_C 	C 	0.7976	0.62137	0.8824	-0.177
Mof_C 	C 	0.7936	0.46746	0.76523	-0.089
Mof_C 	C 	0.7654	0.05963	0.26333	-0.042
Mof_C 	C 	0.3257	0.34927	0.25454	0.135
Mof_C 	C 	0.6894	0.58047	0.28655	-0.118
Mof_C 	C 	0.7043	0.00269	0.24281	0.059
Mof_C 	C 	0.7857	0.8282	0.4571	0.091
Mof_C 	C 	0.7829	0.8296	0.90627	0.102
Mof_C 	C 	0.883	0.08759	0.23512	-0.026
Mof_C 	C 	0.0545	0.02722	0.72582	-0.048
Mof_C 	C 	0.848	0.87677	0.64137	0.021
Mof_C 	C 	0.115	0.11933	0.76096	-0.126
Mof_C 	C 	0.8059	0.89512	0.81274	0.006
Mof_C 	C 	0.8509	0.59775	0.83106	-0.029
Mof_C 	C 	0.7171	0.8296	0.09373	0.102
Mof_C 	C 	0.3257	0.15073	0.24546	0.135
Mof_C 	C 	0.8355	0.66553	0.5676	-0.24
Mof_C 	C 	0.7239	0.8026	0.90844	-0.333
Mof_C 	C 	0.385	0.11933	0.23904	-0.127
Mof_C 	C 	0.652	0.62323	0.14137	0.021
Mof_C 	C 	0.6158	0.11919	0.74774	-0.135
Mof_C 	C 	0.4413	0.05604	0.25129	0.018
Mof_C 	C 	0.6645	0.66553	0.4324	-0.24
Mof_C 	C 	0.3669	0.2513	0.6783	5.153
Mof_C 	C 	0.9387	0.50001	0.74616	0.056
Mof_C 	C 	0.9957	0.29045	0.23022	0.131
Mof_C 	C 	0.3843	0.41316	0.24516	-0.033
Mof_C 	C 	0.6777	0.05779	0.76117	0.012
Mof_C 	C 	0.8291	0.6876	0.53935	0.056
Mof_C 	C 	0.004	0.15032	0.22751	-0.218
Mof_C 	C 	0.802	0.95432	0.70098	-0.114
Mof_C 	C 	0.8621	0.55013	0.77624	0.074
Mof_C 	C 	0.5896	0.89837	0.30843	-0.014
Mof_C 	C 	0.8059	0.60488	0.68726	0.006
Mof_C 	C 	0.9125	0.755	0.4865	0.083
Mof_C 	C 	0.8223	0.44221	0.26117	0.012
Mof_C 	C 	0.8543	0.87523	0.871	0.109
Mof_C 	C 	0.652	0.87677	0.35863	0.022
Mof_C 	C 	0.7064	0.03254	0.26523	-0.089
Mof_C 	C 	0.496	0.15032	0.77249	-0.219
Mof_C 	C 	0.9104	0.89837	0.69157	-0.014
Mof_C 	C 	0.0587	0.44396	0.75129	0.018
Mof_C 	C 	0.6491	0.90225	0.33106	-0.029
Mof_C 	C 	0.848	0.62323	0.85863	0.021
Mof_C 	C 	0.8682	0.94786	0.78507	0.076
Mof_C 	C 	0.1743	0.15073	0.75454	0.134
Mof_C 	C 	0.7788	0.6449	0.0671	-0.2
Mof_C 	C 	0.0082	0.05526	0.7754	-0.049
Mof_C 	C 	0.4413	0.44396	0.24871	0.018
Mof_C 	C 	0.857	0.60219	0.6621	-0.047
Mof_C 	C 	0.0576	0.18061	0.2283	0.156
Mof_C 	C 	0.6546	0.675	0.0844	-0.251
Mof_C 	C 	0.7133	0.85235	0.4116	0.139
Mof_C 	C 	0.504	6e-05	0.27148	-0.083
Mof_C 	C 	0.9151	0.57877	0.78095	-0.112
Mof_C 	C 	0.6777	0.44221	0.73883	0.012
Mof_C 	C 	0.7957	0.00269	0.75719	0.059
Mof_C 	C 	0.7975	0.93136	0.67387	-0.014
Mof_C 	C 	0.5523	0.02775	0.22308	-0.085
Mof_C 	C 	0.7025	0.56864	0.17387	-0.014
Mof_C 	C 	0.8223	0.05779	0.23883	0.012
Mof_C 	C 	0.9387	0.99999	0.75384	0.056
Mof_C 	C 	0.5043	0.29045	0.76978	0.132
Mof_C 	C 	0.115	0.38067	0.73904	-0.126
Mof_C 	C 	0.6664	0.7009	0.0575	-0.018
Mof_C 	C 	0.6324	0.52537	0.25539	-0.092
Mof_C 	C 	0.643	0.60219	0.3379	-0.047
Mof_C 	C 	0.3316	0.18192	0.2217	-0.216
Mof_C 	C 	0.7975	0.56864	0.82613	-0.014
Mof_C 	C 	0.617	0.08759	0.76488	-0.026
Mof_C 	C 	0.7788	0.8551	0.4329	-0.2
Mof_C 	C 	0.8355	0.83447	0.9324	-0.24
Mof_C 	C 	0.6963	0.8564	0.1256	-0.235
Mof_C 	C 	0.8037	0.8564	0.8744	-0.235
Mof_C 	C 	0.617	0.41241	0.73512	-0.026
Mof_C 	C 	0.8842	0.38081	0.24774	-0.134
Mof_C 	C 	0.7857	0.6718	0.0429	0.091
Mof_C 	C 	0.1743	0.34927	0.74546	0.134
Mof_C 	C 	0.2854	0.18089	0.7298	0.135
Mof_C 	C 	0.4455	0.47278	0.22582	-0.047
Mof_C 	C 	0.7976	0.87863	0.6176	-0.177
Mof_C 	C 	0.7654	0.44037	0.23667	-0.042
Mof_C 	C 	0.5838	0.57641	0.33755	-0.007
Mof_N 	N 	0.1287	0.248	0.2978	-2.249
Mof_N 	N 	0.8559	0.7575	0.4907	-0.255
Mof_N 	N 	0.6441	0.7575	0.5093	-0.255
Mof_N 	N 	0.2818	0.28984	0.74954	-0.266
Mof_N 	N 	0.4465	0.20983	0.75074	-0.233
Mof_N 	N 	0.7701	0.71461	0.53718	-0.196
Mof_N 	N 	0.1287	0.252	0.2022	-2.249
Mof_N 	N 	0.769	0.80053	0.53716	-0.182
Mof_N 	N 	0.2182	0.28984	0.25046	-0.266
Mof_N 	N 	0.4465	0.29017	0.74926	-0.233
Mof_N 	N 	0.8559	0.7425	0.0093	-0.255
Mof_N 	N 	0.731	0.69947	0.03716	-0.182
Mof_N 	N 	0.0535	0.29017	0.25074	-0.233
Mof_N 	N 	0.3713	0.248	0.7022	-2.249
Mof_N 	N 	0.731	0.80053	0.46284	-0.182
Mof_N 	N 	0.0535	0.20983	0.24926	-0.233
Mof_N 	N 	0.7299	0.78539	0.03718	-0.196
Mof_N 	N 	0.2818	0.21016	0.75046	-0.266
Mof_N 	N 	0.6441	0.7425	0.9907	-0.254
Mof_N 	N 	0.7299	0.71461	0.46282	-0.196
Mof_N 	N 	0.769	0.69947	0.96284	-0.181
Mof_N 	N 	0.7701	0.78539	0.96282	-0.195
Mof_N 	N 	0.3713	0.252	0.7978	-2.249
Mof_N 	N 	0.2182	0.21016	0.24954	-0.266
_end
