data_functionalizedCrystal
_audit_creation_method	'EQeq! by Chris Wilmer'
_symmetry_space_group_name_H-M	'P1'
_symmetry_Int_Tables_number	1
_symmetry_cell_setting	triclinic
loop_
_symmetry_equiv_pos_as_xyz
  x,y,z
_cell_length_a	17.246
_cell_length_b	17.246
_cell_length_c	14.135
_cell_angle_alpha	90
_cell_angle_beta	90
_cell_angle_gamma	120
loop_
_atom_site_label
_atom_site_type_symbol
_atom_site_fract_x
_atom_site_fract_y
_atom_site_fract_z
_atom_site_charge
Mof_O 	O 	0.6427	0.4247	0.1827	-0.375
Mof_N 	N 	0.4944	0.6036	0.0895	-0.155
Mof_N 	N 	0.442	0.6673	0.9895	-0.19
Mof_C 	C 	0.5407	0.508	0.1698	-0.138
Mof_H 	H 	0.5719	0.5088	0.1157	0.093
Mof_C 	C 	0.4955	0.5534	0.1715	0.157
Mof_C 	C 	0.4237	0.6122	0.0619	0.099
Mof_H 	H 	0.3679	0.5824	0.091	-0.009
Mof_C 	C 	0.5653	0.6576	0.0289	0.053
Mof_C 	C 	0.6515	0.6754	0.0245	-0.082
Mof_H 	H 	0.6735	0.6498	0.0668	0.063
Mof_C 	C 	0.7052	0.7335	0.9538	-0.039
Mof_H 	H 	0.7645	0.7473	0.9479	0.043
Mof_C 	C 	0.67	0.7714	0.8911	-0.003
Mof_H 	H 	0.707	0.8106	0.8447	0.029
Mof_C 	C 	0.5851	0.753	0.896	-0.113
Mof_H 	H 	0.5627	0.7777	0.8531	0.081
Mof_C 	C 	0.5309	0.6954	0.9678	0.072
Mof_O 	O 	0.5753	0.218	0.1827	-0.376
Mof_N 	N 	0.3964	0.8908	0.0895	-0.156
Mof_N 	N 	0.3327	0.7747	0.9895	-0.19
Mof_C 	C 	0.492	0.0327	0.1698	-0.138
Mof_H 	H 	0.4912	0.0631	0.1157	0.092
Mof_C 	C 	0.4466	0.9421	0.1715	0.155
Mof_C 	C 	0.3878	0.8115	0.0619	0.099
Mof_H 	H 	0.4176	0.7855	0.091	-0.009
Mof_C 	C 	0.3424	0.9077	0.0289	0.054
Mof_C 	C 	0.3246	0.9761	0.0245	-0.087
Mof_H 	H 	0.3502	0.0237	0.0668	0.064
Mof_C 	C 	0.2665	0.9717	0.9538	-0.034
Mof_H 	H 	0.2527	0.0172	0.9479	0.042
Mof_C 	C 	0.2286	0.8986	0.8911	-0.006
Mof_H 	H 	0.1894	0.8964	0.8447	0.03
Mof_C 	C 	0.247	0.8321	0.896	-0.111
Mof_H 	H 	0.2223	0.785	0.8531	0.08
Mof_C 	C 	0.3046	0.8355	0.9678	0.072
Mof_O 	O 	0.782	0.3573	0.1827	-0.376
Mof_N 	N 	0.1092	0.5056	0.0895	-0.156
Mof_N 	N 	0.2253	0.558	0.9895	-0.19
Mof_C 	C 	0.9673	0.4593	0.1698	-0.138
Mof_H 	H 	0.9369	0.4281	0.1157	0.092
Mof_C 	C 	0.0579	0.5045	0.1715	0.155
Mof_C 	C 	0.1885	0.5763	0.0619	0.099
Mof_H 	H 	0.2145	0.6321	0.091	-0.009
Mof_C 	C 	0.0923	0.4347	0.0289	0.054
Mof_C 	C 	0.0239	0.3485	0.0245	-0.086
Mof_H 	H 	0.9763	0.3265	0.0668	0.064
Mof_C 	C 	0.0283	0.2948	0.9538	-0.035
Mof_H 	H 	0.9828	0.2355	0.9479	0.042
Mof_C 	C 	0.1014	0.33	0.8911	-0.005
Mof_H 	H 	0.1036	0.293	0.8447	0.03
Mof_C 	C 	0.1679	0.4149	0.896	-0.111
Mof_H 	H 	0.215	0.4373	0.8531	0.08
Mof_C 	C 	0.1645	0.4691	0.9678	0.071
Mof_O 	O 	0.5753	0.3573	0.3173	-0.376
Mof_N 	N 	0.3964	0.5056	0.4105	-0.156
Mof_N 	N 	0.3327	0.558	0.5105	-0.191
Mof_C 	C 	0.492	0.4593	0.3302	-0.139
Mof_H 	H 	0.4912	0.4281	0.3843	0.092
Mof_C 	C 	0.4466	0.5045	0.3285	0.156
Mof_C 	C 	0.3878	0.5763	0.4381	0.099
Mof_H 	H 	0.4176	0.6321	0.409	-0.009
Mof_C 	C 	0.3424	0.4347	0.4711	0.053
Mof_C 	C 	0.3246	0.3485	0.4755	-0.082
Mof_H 	H 	0.3502	0.3265	0.4332	0.063
Mof_C 	C 	0.2665	0.2948	0.5462	-0.039
Mof_H 	H 	0.2527	0.2355	0.5521	0.044
Mof_C 	C 	0.2286	0.33	0.6089	-0.003
Mof_H 	H 	0.1894	0.293	0.6553	0.029
Mof_C 	C 	0.247	0.4149	0.604	-0.113
Mof_H 	H 	0.2223	0.4373	0.6469	0.081
Mof_C 	C 	0.3046	0.4691	0.5322	0.072
Mof_O 	O 	0.782	0.4247	0.3173	-0.376
Mof_N 	N 	0.1092	0.6036	0.4105	-0.156
Mof_N 	N 	0.2253	0.6673	0.5105	-0.191
Mof_C 	C 	0.9673	0.508	0.3302	-0.138
Mof_H 	H 	0.9369	0.5088	0.3843	0.092
Mof_C 	C 	0.0579	0.5534	0.3285	0.155
Mof_C 	C 	0.1885	0.6122	0.4381	0.099
Mof_H 	H 	0.2145	0.5824	0.409	-0.009
Mof_C 	C 	0.0923	0.6576	0.4711	0.053
Mof_C 	C 	0.0239	0.6754	0.4755	-0.083
Mof_H 	H 	0.9763	0.6498	0.4332	0.063
Mof_C 	C 	0.0283	0.7335	0.5462	-0.039
Mof_H 	H 	0.9828	0.7473	0.5521	0.043
Mof_C 	C 	0.1014	0.7714	0.6089	-0.003
Mof_H 	H 	0.1036	0.8106	0.6553	0.029
Mof_C 	C 	0.1679	0.753	0.604	-0.113
Mof_H 	H 	0.215	0.7777	0.6469	0.081
Mof_C 	C 	0.1645	0.6954	0.5322	0.072
Mof_O 	O 	0.6427	0.218	0.3173	-0.376
Mof_N 	N 	0.4944	0.8908	0.4105	-0.156
Mof_N 	N 	0.442	0.7747	0.5105	-0.191
Mof_C 	C 	0.5407	0.0327	0.3302	-0.138
Mof_H 	H 	0.5719	0.0631	0.3843	0.092
Mof_C 	C 	0.4955	0.9421	0.3285	0.155
Mof_C 	C 	0.4237	0.8115	0.4381	0.099
Mof_H 	H 	0.3679	0.7855	0.409	-0.009
Mof_C 	C 	0.5653	0.9077	0.4711	0.053
Mof_C 	C 	0.6515	0.9761	0.4755	-0.083
Mof_H 	H 	0.6735	0.0237	0.4332	0.063
Mof_C 	C 	0.7052	0.9717	0.5462	-0.039
Mof_H 	H 	0.7645	0.0172	0.5521	0.043
Mof_C 	C 	0.67	0.8986	0.6089	-0.003
Mof_H 	H 	0.707	0.8964	0.6553	0.029
Mof_C 	C 	0.5851	0.8321	0.604	-0.113
Mof_H 	H 	0.5627	0.785	0.6469	0.081
Mof_C 	C 	0.5309	0.8355	0.5322	0.072
Mof_O 	O 	0.3573	0.5753	0.8173	-0.376
Mof_N 	N 	0.5056	0.3964	0.9105	-0.156
Mof_N 	N 	0.558	0.3327	0.0105	-0.191
Mof_C 	C 	0.4593	0.492	0.8302	-0.139
Mof_H 	H 	0.4281	0.4912	0.8843	0.092
Mof_C 	C 	0.5045	0.4466	0.8285	0.156
Mof_C 	C 	0.5763	0.3878	0.9381	0.099
Mof_H 	H 	0.6321	0.4176	0.909	-0.009
Mof_C 	C 	0.4347	0.3424	0.9711	0.053
Mof_C 	C 	0.3485	0.3246	0.9755	-0.082
Mof_H 	H 	0.3265	0.3502	0.9332	0.063
Mof_C 	C 	0.2948	0.2665	0.0462	-0.039
Mof_H 	H 	0.2355	0.2527	0.0521	0.043
Mof_C 	C 	0.33	0.2286	0.1089	-0.003
Mof_H 	H 	0.293	0.1894	0.1553	0.029
Mof_C 	C 	0.4149	0.247	0.104	-0.113
Mof_H 	H 	0.4373	0.2223	0.1469	0.081
Mof_C 	C 	0.4691	0.3046	0.0322	0.072
Mof_O 	O 	0.4247	0.782	0.8173	-0.376
Mof_N 	N 	0.6036	0.1092	0.9105	-0.156
Mof_N 	N 	0.6673	0.2253	0.0105	-0.19
Mof_C 	C 	0.508	0.9673	0.8302	-0.138
Mof_H 	H 	0.5088	0.9369	0.8843	0.092
Mof_C 	C 	0.5534	0.0579	0.8285	0.155
Mof_C 	C 	0.6122	0.1885	0.9381	0.099
Mof_H 	H 	0.5824	0.2145	0.909	-0.009
Mof_C 	C 	0.6576	0.0923	0.9711	0.054
Mof_C 	C 	0.6754	0.0239	0.9755	-0.087
Mof_H 	H 	0.6498	0.9763	0.9332	0.064
Mof_C 	C 	0.7335	0.0283	0.0462	-0.034
Mof_H 	H 	0.7473	0.9828	0.0521	0.042
Mof_C 	C 	0.7714	0.1014	0.1089	-0.006
Mof_H 	H 	0.8106	0.1036	0.1553	0.03
Mof_C 	C 	0.753	0.1679	0.104	-0.111
Mof_H 	H 	0.7777	0.215	0.1469	0.08
Mof_C 	C 	0.6954	0.1645	0.0322	0.072
Mof_O 	O 	0.218	0.6427	0.8173	-0.376
Mof_N 	N 	0.8908	0.4944	0.9105	-0.156
Mof_N 	N 	0.7747	0.442	0.0105	-0.19
Mof_C 	C 	0.0327	0.5407	0.8302	-0.138
Mof_H 	H 	0.0631	0.5719	0.8843	0.092
Mof_C 	C 	0.9421	0.4955	0.8285	0.155
Mof_C 	C 	0.8115	0.4237	0.9381	0.099
Mof_H 	H 	0.7855	0.3679	0.909	-0.009
Mof_C 	C 	0.9077	0.5653	0.9711	0.054
Mof_C 	C 	0.9761	0.6515	0.9755	-0.086
Mof_H 	H 	0.0237	0.6735	0.9332	0.064
Mof_C 	C 	0.9717	0.7052	0.0462	-0.035
Mof_H 	H 	0.0172	0.7645	0.0521	0.042
Mof_C 	C 	0.8986	0.67	0.1089	-0.005
Mof_H 	H 	0.8964	0.707	0.1553	0.03
Mof_C 	C 	0.8321	0.5851	0.104	-0.111
Mof_H 	H 	0.785	0.5627	0.1469	0.08
Mof_C 	C 	0.8355	0.5309	0.0322	0.071
Mof_O 	O 	0.4247	0.6427	0.6827	-0.376
Mof_N 	N 	0.6036	0.4944	0.5895	-0.156
Mof_N 	N 	0.6673	0.442	0.4895	-0.191
Mof_C 	C 	0.508	0.5407	0.6698	-0.139
Mof_H 	H 	0.5088	0.5719	0.6157	0.092
Mof_C 	C 	0.5534	0.4955	0.6715	0.156
Mof_C 	C 	0.6122	0.4237	0.5619	0.099
Mof_H 	H 	0.5824	0.3679	0.591	-0.009
Mof_C 	C 	0.6576	0.5653	0.5289	0.053
Mof_C 	C 	0.6754	0.6515	0.5245	-0.082
Mof_H 	H 	0.6498	0.6735	0.5668	0.063
Mof_C 	C 	0.7335	0.7052	0.4538	-0.039
Mof_H 	H 	0.7473	0.7645	0.4479	0.044
Mof_C 	C 	0.7714	0.67	0.3911	-0.003
Mof_H 	H 	0.8106	0.707	0.3447	0.029
Mof_C 	C 	0.753	0.5851	0.396	-0.113
Mof_H 	H 	0.7777	0.5627	0.3531	0.081
Mof_C 	C 	0.6954	0.5309	0.4678	0.072
Mof_O 	O 	0.218	0.5753	0.6827	-0.376
Mof_N 	N 	0.8908	0.3964	0.5895	-0.156
Mof_N 	N 	0.7747	0.3327	0.4895	-0.191
Mof_C 	C 	0.0327	0.492	0.6698	-0.138
Mof_H 	H 	0.0631	0.4912	0.6157	0.092
Mof_C 	C 	0.9421	0.4466	0.6715	0.155
Mof_C 	C 	0.8115	0.3878	0.5619	0.099
Mof_H 	H 	0.7855	0.4176	0.591	-0.009
Mof_C 	C 	0.9077	0.3424	0.5289	0.053
Mof_C 	C 	0.9761	0.3246	0.5245	-0.083
Mof_H 	H 	0.0237	0.3502	0.5668	0.063
Mof_C 	C 	0.9717	0.2665	0.4538	-0.039
Mof_H 	H 	0.0172	0.2527	0.4479	0.043
Mof_C 	C 	0.8986	0.2286	0.3911	-0.003
Mof_H 	H 	0.8964	0.1894	0.3447	0.029
Mof_C 	C 	0.8321	0.247	0.396	-0.113
Mof_H 	H 	0.785	0.2223	0.3531	0.081
Mof_C 	C 	0.8355	0.3046	0.4678	0.072
Mof_O 	O 	0.3573	0.782	0.6827	-0.376
Mof_N 	N 	0.5056	0.1092	0.5895	-0.156
Mof_N 	N 	0.558	0.2253	0.4895	-0.191
Mof_C 	C 	0.4593	0.9673	0.6698	-0.138
Mof_H 	H 	0.4281	0.9369	0.6157	0.092
Mof_C 	C 	0.5045	0.0579	0.6715	0.155
Mof_C 	C 	0.5763	0.1885	0.5619	0.099
Mof_H 	H 	0.6321	0.2145	0.591	-0.009
Mof_C 	C 	0.4347	0.0923	0.5289	0.053
Mof_C 	C 	0.3485	0.0239	0.5245	-0.083
Mof_H 	H 	0.3265	0.9763	0.5668	0.063
Mof_C 	C 	0.2948	0.0283	0.4538	-0.039
Mof_H 	H 	0.2355	0.9828	0.4479	0.043
Mof_C 	C 	0.33	0.1014	0.3911	-0.003
Mof_H 	H 	0.293	0.1036	0.3447	0.029
Mof_C 	C 	0.4149	0.1679	0.396	-0.113
Mof_H 	H 	0.4373	0.215	0.3531	0.081
Mof_C 	C 	0.4691	0.1645	0.4678	0.072
Mof_Mn	Mn	0.66667	0.33333	0.104	0.886
Mof_Mn	Mn	0.66667	0.33333	0.396	0.886
Mof_Mn	Mn	0.33333	0.66667	0.896	0.886
Mof_Mn	Mn	0.33333	0.66667	0.604	0.886
Mof_C 	C 	0.5903	0.4097	0.25	0.351
Mof_C 	C 	0.5403	0.4597	0.25	-0.004
Mof_C 	C 	0.4464	0.5536	0.25	-0.207
Mof_H 	H 	0.4153	0.5847	0.25	0.108
Mof_C 	C 	0.5903	0.1806	0.25	0.351
Mof_C 	C 	0.5403	0.0806	0.25	-0.004
Mof_C 	C 	0.4464	0.8928	0.25	-0.207
Mof_H 	H 	0.4153	0.8306	0.25	0.108
Mof_C 	C 	0.8194	0.4097	0.25	0.351
Mof_C 	C 	0.9194	0.4597	0.25	-0.004
Mof_C 	C 	0.1072	0.5536	0.25	-0.207
Mof_H 	H 	0.1694	0.5847	0.25	0.108
Mof_C 	C 	0.4097	0.5903	0.75	0.351
Mof_C 	C 	0.4597	0.5403	0.75	-0.004
Mof_C 	C 	0.5536	0.4464	0.75	-0.207
Mof_H 	H 	0.5847	0.4153	0.75	0.108
Mof_C 	C 	0.4097	0.8194	0.75	0.351
Mof_C 	C 	0.4597	0.9194	0.75	-0.004
Mof_C 	C 	0.5536	0.1072	0.75	-0.207
Mof_H 	H 	0.5847	0.1694	0.75	0.108
Mof_C 	C 	0.1806	0.5903	0.75	0.351
Mof_C 	C 	0.0806	0.5403	0.75	-0.004
Mof_C 	C 	0.8928	0.4464	0.75	-0.207
Mof_H 	H 	0.8306	0.4153	0.75	0.108
_end
