# CIF file generated by openbabel 3.1.0, see https://openbabel.org
data_I
_chemical_name_common 'image0'
_cell_length_a 8.6503
_cell_length_b 10.1871
_cell_length_c 16.921
_cell_angle_alpha 90
_cell_angle_beta 94.688
_cell_angle_gamma 90
_space_group_name_H-M_alt 'P 1'
_space_group_name_Hall 'P 1'
loop_
    _symmetry_equiv_pos_as_xyz
    x,y,z
loop_
    _atom_site_label
    _atom_site_type_symbol
    _atom_site_fract_x
    _atom_site_fract_y
    _atom_site_fract_z
    _atom_site_occupancy
    Ga1      Ga       0.23211    0.82679    0.79826    1.000
    Ga2      Ga       0.08362    0.85117    0.59704    1.000
    Ga3      Ga       0.57616    0.65885    0.76886    1.000
    P1       P        0.87628    0.85223    0.74123    1.000
    P2       P        0.22196    0.12408    0.83632    1.000
    P3       P        0.40509    0.64238    0.92795    1.000
    O1       O        0.26980    0.98380    0.85930    1.000
    O2       O        0.26730    0.72140    0.89210    1.000
    O3       O        0.01020    0.83350    0.80530    1.000
    O4       O        0.20460    0.66510    0.73780    1.000
    F1       F        0.20380    0.91870    0.69640    1.000
    F2       F        0.45280    0.82710    0.77980    1.000
    O5       O        0.91980    0.81570    0.65820    1.000
    O6       O        0.34800    0.50360    0.94910    1.000
    O7       O        0.27610    0.21270    0.90750    1.000
    O8       O        0.46940    0.71170    0.00360    1.000
    O9       O        0.74890    0.75820    0.76170    1.000
    O10      O        0.53440    0.62430    0.87200    1.000
    O11      O        0.04330    0.13520    0.82580    1.000
    O12      O        0.81270    0.99370    0.73990    1.000
    N1       N        0.47400    0.79700    0.01600    1.000
    Ga4      Ga       0.26789    0.32679    0.70174    1.000
    Ga5      Ga       0.41638    0.35117    0.90296    1.000
    Ga6      Ga       0.92384    0.15885    0.73114    1.000
    P4       P        0.62372    0.35223    0.75877    1.000
    P5       P        0.27804    0.62408    0.66368    1.000
    P6       P        0.09491    0.14238    0.57205    1.000
    O13      O        0.23020    0.48380    0.64070    1.000
    O14      O        0.23270    0.22140    0.60790    1.000
    O15      O        0.48980    0.33350    0.69470    1.000
    O16      O        0.29540    0.16510    0.76220    1.000
    F3       F        0.29620    0.41870    0.80360    1.000
    F4       F        0.04720    0.32710    0.72020    1.000
    O17      O        0.58020    0.31570    0.84180    1.000
    O18      O        0.15200    0.00360    0.55090    1.000
    O19      O        0.22390    0.71270    0.59250    1.000
    O20      O        0.03060    0.21170    0.49640    1.000
    O21      O        0.75110    0.25820    0.73830    1.000
    O22      O        0.96560    0.12430    0.62800    1.000
    O23      O        0.45670    0.63520    0.67420    1.000
    O24      O        0.68730    0.49370    0.76010    1.000
    N2       N        0.02600    0.29700    0.48400    1.000
    Ga7      Ga       0.76789    0.17321    0.20174    1.000
    Ga8      Ga       0.91638    0.14883    0.40296    1.000
    Ga9      Ga       0.42384    0.34115    0.23114    1.000
    P7       P        0.12372    0.14777    0.25877    1.000
    P8       P        0.77804    0.87592    0.16368    1.000
    P9       P        0.59491    0.35762    0.07205    1.000
    O25      O        0.73020    0.01620    0.14070    1.000
    O26      O        0.73270    0.27860    0.10790    1.000
    O27      O        0.98980    0.16650    0.19470    1.000
    O28      O        0.79540    0.33490    0.26220    1.000
    F5       F        0.79620    0.08130    0.30360    1.000
    F6       F        0.54720    0.17290    0.22020    1.000
    O29      O        0.08020    0.18430    0.34180    1.000
    O30      O        0.65200    0.49640    0.05090    1.000
    O31      O        0.72390    0.78730    0.09250    1.000
    O32      O        0.53060    0.28830    0.99640    1.000
    O33      O        0.25110    0.24180    0.23830    1.000
    O34      O        0.46560    0.37570    0.12800    1.000
    O35      O        0.95670    0.86480    0.17420    1.000
    O36      O        0.18730    0.00630    0.26010    1.000
    N3       N        0.52600    0.20300    0.98400    1.000
    Ga10     Ga       0.73211    0.67321    0.29826    1.000
    Ga11     Ga       0.58362    0.64883    0.09704    1.000
    Ga12     Ga       0.07616    0.84115    0.26886    1.000
    P10      P        0.37628    0.64777    0.24123    1.000
    P11      P        0.72196    0.37592    0.33632    1.000
    P12      P        0.90509    0.85762    0.42795    1.000
    O37      O        0.76980    0.51620    0.35930    1.000
    O38      O        0.76730    0.77860    0.39210    1.000
    O39      O        0.51020    0.66650    0.30530    1.000
    O40      O        0.70460    0.83490    0.23780    1.000
    F7       F        0.70380    0.58130    0.19640    1.000
    F8       F        0.95280    0.67290    0.27980    1.000
    O41      O        0.41980    0.68430    0.15820    1.000
    O42      O        0.84800    0.99640    0.44910    1.000
    O43      O        0.77610    0.28730    0.40750    1.000
    O44      O        0.96940    0.78830    0.50360    1.000
    O45      O        0.24890    0.74180    0.26170    1.000
    O46      O        0.03440    0.87570    0.37200    1.000
    O47      O        0.54330    0.36480    0.32580    1.000
    O48      O        0.31270    0.50630    0.23990    1.000
    N4       N        0.97400    0.70300    0.51600    1.000
