data_functionalizedCrystal
_audit_creation_method	'EQeq! by Chris Wilmer'
_symmetry_space_group_name_H-M	'P1'
_symmetry_Int_Tables_number	1
_symmetry_cell_setting	triclinic
loop_
_symmetry_equiv_pos_as_xyz
  x,y,z
_cell_length_a	18.5653
_cell_length_b	18.5653
_cell_length_c	23.9636
_cell_angle_alpha	90
_cell_angle_beta	90
_cell_angle_gamma	120
loop_
_atom_site_label
_atom_site_type_symbol
_atom_site_fract_x
_atom_site_fract_y
_atom_site_fract_z
_atom_site_charge
Mof_O 	O 	0.48134	0.37099	0.99451	-0.403
Mof_O 	O 	0.44018	0.41081	0.0712	-0.406
Mof_N 	N 	0.2389	0.0848	0.2007	-0.099
Mof_H 	H 	0.4603	0.2818	0.2181	0.124
Mof_C 	C 	0.45	0.3595	0.04287	0.347
Mof_C 	C 	0.4225	0.2764	0.06923	-0.072
Mof_C 	C 	0.3814	0.2556	0.1195	-0.03
Mof_H 	H 	0.3676	0.2921	0.1365	0.061
Mof_O 	O 	0.62901	0.11035	0.99451	-0.403
Mof_O 	O 	0.58919	0.02937	0.0712	-0.406
Mof_N 	N 	0.9152	0.1541	0.2007	-0.099
Mof_H 	H 	0.7182	0.1785	0.2181	0.124
Mof_C 	C 	0.6405	0.0905	0.04287	0.348
Mof_C 	C 	0.7236	0.1461	0.06923	-0.072
Mof_C 	C 	0.7444	0.1258	0.1195	-0.03
Mof_H 	H 	0.7079	0.0755	0.1365	0.061
Mof_O 	O 	0.88965	0.51866	0.99451	-0.402
Mof_O 	O 	0.97063	0.55982	0.0712	-0.405
Mof_N 	N 	0.8459	0.7611	0.2007	-0.098
Mof_H 	H 	0.8215	0.5397	0.2181	0.125
Mof_C 	C 	0.9095	0.55	0.04287	0.349
Mof_C 	C 	0.8539	0.5775	0.06923	-0.071
Mof_C 	C 	0.8742	0.6186	0.1195	-0.029
Mof_H 	H 	0.9245	0.6324	0.1365	0.062
Mof_O 	O 	0.51866	0.62901	0.49451	-0.401
Mof_O 	O 	0.55982	0.58919	0.5712	-0.405
Mof_N 	N 	0.7611	0.9152	0.7007	-0.098
Mof_H 	H 	0.5397	0.7182	0.7181	0.125
Mof_C 	C 	0.55	0.6405	0.54287	0.348
Mof_C 	C 	0.5775	0.7236	0.56923	-0.071
Mof_C 	C 	0.6186	0.7444	0.6195	-0.029
Mof_H 	H 	0.6324	0.7079	0.6365	0.062
Mof_O 	O 	0.37099	0.88965	0.49451	-0.401
Mof_O 	O 	0.41081	0.97063	0.5712	-0.405
Mof_N 	N 	0.0848	0.8459	0.7007	-0.098
Mof_H 	H 	0.2818	0.8215	0.7181	0.125
Mof_C 	C 	0.3595	0.9095	0.54287	0.348
Mof_C 	C 	0.2764	0.8539	0.56923	-0.071
Mof_C 	C 	0.2556	0.8742	0.6195	-0.029
Mof_H 	H 	0.2921	0.9245	0.6365	0.062
Mof_O 	O 	0.11035	0.48134	0.49451	-0.401
Mof_O 	O 	0.02937	0.44018	0.5712	-0.405
Mof_N 	N 	0.1541	0.2389	0.7007	-0.098
Mof_H 	H 	0.1785	0.4603	0.7181	0.125
Mof_C 	C 	0.0905	0.45	0.54287	0.348
Mof_C 	C 	0.1461	0.4225	0.56923	-0.071
Mof_C 	C 	0.1258	0.3814	0.6195	-0.029
Mof_H 	H 	0.0755	0.3676	0.6365	0.062
Mof_O 	O 	0.37099	0.48134	0.00549	-0.402
Mof_O 	O 	0.41081	0.44018	0.9288	-0.405
Mof_N 	N 	0.0848	0.2389	0.7993	-0.098
Mof_H 	H 	0.2818	0.4603	0.7819	0.125
Mof_C 	C 	0.3595	0.45	0.95713	0.348
Mof_C 	C 	0.2764	0.4225	0.93077	-0.071
Mof_C 	C 	0.2556	0.3814	0.8805	-0.029
Mof_H 	H 	0.2921	0.3676	0.8635	0.062
Mof_O 	O 	0.11035	0.62901	0.00549	-0.402
Mof_O 	O 	0.02937	0.58919	0.9288	-0.405
Mof_N 	N 	0.1541	0.9152	0.7993	-0.098
Mof_H 	H 	0.1785	0.7182	0.7819	0.125
Mof_C 	C 	0.0905	0.6405	0.95713	0.349
Mof_C 	C 	0.1461	0.7236	0.93077	-0.071
Mof_C 	C 	0.1258	0.7444	0.8805	-0.029
Mof_H 	H 	0.0755	0.7079	0.8635	0.062
Mof_O 	O 	0.51866	0.88965	0.00549	-0.402
Mof_O 	O 	0.55982	0.97063	0.9288	-0.405
Mof_N 	N 	0.7611	0.8459	0.7993	-0.098
Mof_H 	H 	0.5397	0.8215	0.7819	0.125
Mof_C 	C 	0.55	0.9095	0.95713	0.349
Mof_C 	C 	0.5775	0.8539	0.93077	-0.071
Mof_C 	C 	0.6186	0.8742	0.8805	-0.029
Mof_H 	H 	0.6324	0.9245	0.8635	0.062
Mof_O 	O 	0.62901	0.51866	0.50549	-0.401
Mof_O 	O 	0.58919	0.55982	0.4288	-0.405
Mof_N 	N 	0.9152	0.7611	0.2993	-0.098
Mof_H 	H 	0.7182	0.5397	0.2819	0.125
Mof_C 	C 	0.6405	0.55	0.45713	0.348
Mof_C 	C 	0.7236	0.5775	0.43077	-0.071
Mof_C 	C 	0.7444	0.6186	0.3805	-0.029
Mof_H 	H 	0.7079	0.6324	0.3635	0.062
Mof_O 	O 	0.88965	0.37099	0.50549	-0.401
Mof_O 	O 	0.97063	0.41081	0.4288	-0.405
Mof_N 	N 	0.8459	0.0848	0.2993	-0.098
Mof_H 	H 	0.8215	0.2818	0.2819	0.125
Mof_C 	C 	0.9095	0.3595	0.45713	0.348
Mof_C 	C 	0.8539	0.2764	0.43077	-0.071
Mof_C 	C 	0.8742	0.2556	0.3805	-0.029
Mof_H 	H 	0.9245	0.2921	0.3635	0.062
Mof_O 	O 	0.48134	0.11035	0.50549	-0.401
Mof_O 	O 	0.44018	0.02937	0.4288	-0.405
Mof_N 	N 	0.2389	0.1541	0.2993	-0.098
Mof_H 	H 	0.4603	0.1785	0.2819	0.125
Mof_C 	C 	0.45	0.0905	0.45713	0.348
Mof_C 	C 	0.4225	0.1461	0.43077	-0.071
Mof_C 	C 	0.3814	0.1258	0.3805	-0.029
Mof_H 	H 	0.3676	0.0755	0.3635	0.062
Mof_O 	O 	0.51866	0.62901	0.00549	-0.402
Mof_O 	O 	0.55982	0.58919	0.9288	-0.405
Mof_N 	N 	0.7611	0.9152	0.7993	-0.098
Mof_H 	H 	0.5397	0.7182	0.7819	0.125
Mof_C 	C 	0.55	0.6405	0.95713	0.348
Mof_C 	C 	0.5775	0.7236	0.93077	-0.071
Mof_C 	C 	0.6186	0.7444	0.8805	-0.029
Mof_H 	H 	0.6324	0.7079	0.8635	0.062
Mof_O 	O 	0.37099	0.88965	0.00549	-0.402
Mof_O 	O 	0.41081	0.97063	0.9288	-0.405
Mof_N 	N 	0.0848	0.8459	0.7993	-0.098
Mof_H 	H 	0.2818	0.8215	0.7819	0.125
Mof_C 	C 	0.3595	0.9095	0.95713	0.349
Mof_C 	C 	0.2764	0.8539	0.93077	-0.071
Mof_C 	C 	0.2556	0.8742	0.8805	-0.029
Mof_H 	H 	0.2921	0.9245	0.8635	0.062
Mof_O 	O 	0.11035	0.48134	0.00549	-0.402
Mof_O 	O 	0.02937	0.44018	0.9288	-0.405
Mof_N 	N 	0.1541	0.2389	0.7993	-0.098
Mof_H 	H 	0.1785	0.4603	0.7819	0.125
Mof_C 	C 	0.0905	0.45	0.95713	0.349
Mof_C 	C 	0.1461	0.4225	0.93077	-0.071
Mof_C 	C 	0.1258	0.3814	0.8805	-0.029
Mof_H 	H 	0.0755	0.3676	0.8635	0.062
Mof_O 	O 	0.48134	0.37099	0.50549	-0.401
Mof_O 	O 	0.44018	0.41081	0.4288	-0.405
Mof_N 	N 	0.2389	0.0848	0.2993	-0.098
Mof_H 	H 	0.4603	0.2818	0.2819	0.125
Mof_C 	C 	0.45	0.3595	0.45713	0.348
Mof_C 	C 	0.4225	0.2764	0.43077	-0.071
Mof_C 	C 	0.3814	0.2556	0.3805	-0.029
Mof_H 	H 	0.3676	0.2921	0.3635	0.062
Mof_O 	O 	0.62901	0.11035	0.50549	-0.401
Mof_O 	O 	0.58919	0.02937	0.4288	-0.405
Mof_N 	N 	0.9152	0.1541	0.2993	-0.098
Mof_H 	H 	0.7182	0.1785	0.2819	0.125
Mof_C 	C 	0.6405	0.0905	0.45713	0.348
Mof_C 	C 	0.7236	0.1461	0.43077	-0.071
Mof_C 	C 	0.7444	0.1258	0.3805	-0.029
Mof_H 	H 	0.7079	0.0755	0.3635	0.062
Mof_O 	O 	0.88965	0.51866	0.50549	-0.401
Mof_O 	O 	0.97063	0.55982	0.4288	-0.405
Mof_N 	N 	0.8459	0.7611	0.2993	-0.098
Mof_H 	H 	0.8215	0.5397	0.2819	0.125
Mof_C 	C 	0.9095	0.55	0.45713	0.348
Mof_C 	C 	0.8539	0.5775	0.43077	-0.071
Mof_C 	C 	0.8742	0.6186	0.3805	-0.029
Mof_H 	H 	0.9245	0.6324	0.3635	0.062
Mof_O 	O 	0.62901	0.51866	0.99451	-0.402
Mof_O 	O 	0.58919	0.55982	0.0712	-0.405
Mof_N 	N 	0.9152	0.7611	0.2007	-0.098
Mof_H 	H 	0.7182	0.5397	0.2181	0.125
Mof_C 	C 	0.6405	0.55	0.04287	0.348
Mof_C 	C 	0.7236	0.5775	0.06923	-0.071
Mof_C 	C 	0.7444	0.6186	0.1195	-0.029
Mof_H 	H 	0.7079	0.6324	0.1365	0.062
Mof_O 	O 	0.88965	0.37099	0.99451	-0.402
Mof_O 	O 	0.97063	0.41081	0.0712	-0.405
Mof_N 	N 	0.8459	0.0848	0.2007	-0.098
Mof_H 	H 	0.8215	0.2818	0.2181	0.125
Mof_C 	C 	0.9095	0.3595	0.04287	0.349
Mof_C 	C 	0.8539	0.2764	0.06923	-0.071
Mof_C 	C 	0.8742	0.2556	0.1195	-0.029
Mof_H 	H 	0.9245	0.2921	0.1365	0.062
Mof_O 	O 	0.48134	0.11035	0.99451	-0.402
Mof_O 	O 	0.44018	0.02937	0.0712	-0.405
Mof_N 	N 	0.2389	0.1541	0.2007	-0.098
Mof_H 	H 	0.4603	0.1785	0.2181	0.125
Mof_C 	C 	0.45	0.0905	0.04287	0.349
Mof_C 	C 	0.4225	0.1461	0.06923	-0.071
Mof_C 	C 	0.3814	0.1258	0.1195	-0.029
Mof_H 	H 	0.3676	0.0755	0.1365	0.062
Mof_O 	O 	0.37099	0.48134	0.49451	-0.401
Mof_O 	O 	0.41081	0.44018	0.5712	-0.405
Mof_N 	N 	0.0848	0.2389	0.7007	-0.098
Mof_H 	H 	0.2818	0.4603	0.7181	0.125
Mof_C 	C 	0.3595	0.45	0.54287	0.348
Mof_C 	C 	0.2764	0.4225	0.56923	-0.071
Mof_C 	C 	0.2556	0.3814	0.6195	-0.029
Mof_H 	H 	0.2921	0.3676	0.6365	0.062
Mof_O 	O 	0.11035	0.62901	0.49451	-0.401
Mof_O 	O 	0.02937	0.58919	0.5712	-0.405
Mof_N 	N 	0.1541	0.9152	0.7007	-0.098
Mof_H 	H 	0.1785	0.7182	0.7181	0.125
Mof_C 	C 	0.0905	0.6405	0.54287	0.348
Mof_C 	C 	0.1461	0.7236	0.56923	-0.071
Mof_C 	C 	0.1258	0.7444	0.6195	-0.029
Mof_H 	H 	0.0755	0.7079	0.6365	0.062
Mof_O 	O 	0.51866	0.88965	0.49451	-0.401
Mof_O 	O 	0.55982	0.97063	0.5712	-0.405
Mof_N 	N 	0.7611	0.8459	0.7007	-0.098
Mof_H 	H 	0.5397	0.8215	0.7181	0.125
Mof_C 	C 	0.55	0.9095	0.54287	0.348
Mof_C 	C 	0.5775	0.8539	0.56923	-0.071
Mof_C 	C 	0.6186	0.8742	0.6195	-0.029
Mof_H 	H 	0.6324	0.9245	0.6365	0.062
Mof_Cu	Cu	0.52377	0.47623	0.95469	0.905
Mof_Cu	Cu	0.52377	0.04754	0.95469	0.905
Mof_Cu	Cu	0.95246	0.47623	0.95469	0.905
Mof_Cu	Cu	0.47623	0.52377	0.45469	0.905
Mof_Cu	Cu	0.47623	0.95246	0.45469	0.905
Mof_Cu	Cu	0.04754	0.52377	0.45469	0.905
Mof_Cu	Cu	0.47623	0.52377	0.04531	0.905
Mof_Cu	Cu	0.04754	0.52377	0.04531	0.905
Mof_Cu	Cu	0.47623	0.95246	0.04531	0.905
Mof_Cu	Cu	0.52377	0.47623	0.54531	0.905
Mof_Cu	Cu	0.95246	0.47623	0.54531	0.905
Mof_Cu	Cu	0.52377	0.04754	0.54531	0.905
Mof_N 	N 	0.4359	0.2577	0.25	-0.244
Mof_C 	C 	0.2073	0.0574	0.25	0.08
Mof_H 	H 	0.154	0.0111	0.25	0.026
Mof_N 	N 	0.7423	0.1782	0.25	-0.244
Mof_C 	C 	0.9426	0.1499	0.25	0.08
Mof_H 	H 	0.9889	0.1429	0.25	0.026
Mof_N 	N 	0.8218	0.5641	0.25	-0.244
Mof_C 	C 	0.8501	0.7927	0.25	0.08
Mof_H 	H 	0.8571	0.846	0.25	0.026
Mof_N 	N 	0.5641	0.7423	0.75	-0.244
Mof_C 	C 	0.7927	0.9426	0.75	0.08
Mof_H 	H 	0.846	0.9889	0.75	0.026
Mof_N 	N 	0.2577	0.8218	0.75	-0.244
Mof_C 	C 	0.0574	0.8501	0.75	0.08
Mof_H 	H 	0.0111	0.8571	0.75	0.026
Mof_N 	N 	0.1782	0.4359	0.75	-0.244
Mof_C 	C 	0.1499	0.2073	0.75	0.08
Mof_H 	H 	0.1429	0.154	0.75	0.026
Mof_N 	N 	0.2577	0.4359	0.75	-0.244
Mof_C 	C 	0.0574	0.2073	0.75	0.08
Mof_H 	H 	0.0111	0.154	0.75	0.026
Mof_N 	N 	0.1782	0.7423	0.75	-0.244
Mof_C 	C 	0.1499	0.9426	0.75	0.08
Mof_H 	H 	0.1429	0.9889	0.75	0.026
Mof_N 	N 	0.5641	0.8218	0.75	-0.244
Mof_C 	C 	0.7927	0.8501	0.75	0.08
Mof_H 	H 	0.846	0.8571	0.75	0.026
Mof_N 	N 	0.7423	0.5641	0.25	-0.244
Mof_C 	C 	0.9426	0.7927	0.25	0.08
Mof_H 	H 	0.9889	0.846	0.25	0.026
Mof_N 	N 	0.8218	0.2577	0.25	-0.244
Mof_C 	C 	0.8501	0.0574	0.25	0.08
Mof_H 	H 	0.8571	0.0111	0.25	0.026
Mof_N 	N 	0.4359	0.1782	0.25	-0.244
Mof_C 	C 	0.2073	0.1499	0.25	0.08
Mof_H 	H 	0.154	0.1429	0.25	0.026
Mof_C 	C 	0.4429	0.22145	0.0435	0.012
Mof_H 	H 	0.4701	0.23505	0.0092	0.058
Mof_C 	C 	0.3603	0.18015	0.1452	0.01
Mof_C 	C 	0.3167	0.15835	0.2005	0.048
Mof_C 	C 	0.77855	0.22145	0.0435	0.012
Mof_H 	H 	0.76495	0.23505	0.0092	0.059
Mof_C 	C 	0.81985	0.18015	0.1452	0.01
Mof_C 	C 	0.84165	0.15835	0.2005	0.048
Mof_C 	C 	0.77855	0.5571	0.0435	0.012
Mof_H 	H 	0.76495	0.5299	0.0092	0.058
Mof_C 	C 	0.81985	0.6397	0.1452	0.01
Mof_C 	C 	0.84165	0.6833	0.2005	0.048
Mof_C 	C 	0.5571	0.77855	0.5435	0.012
Mof_H 	H 	0.5299	0.76495	0.5092	0.059
Mof_C 	C 	0.6397	0.81985	0.6452	0.01
Mof_C 	C 	0.6833	0.84165	0.7005	0.048
Mof_C 	C 	0.22145	0.77855	0.5435	0.012
Mof_H 	H 	0.23505	0.76495	0.5092	0.059
Mof_C 	C 	0.18015	0.81985	0.6452	0.01
Mof_C 	C 	0.15835	0.84165	0.7005	0.048
Mof_C 	C 	0.22145	0.4429	0.5435	0.012
Mof_H 	H 	0.23505	0.4701	0.5092	0.059
Mof_C 	C 	0.18015	0.3603	0.6452	0.01
Mof_C 	C 	0.15835	0.3167	0.7005	0.048
Mof_C 	C 	0.22145	0.4429	0.9565	0.012
Mof_H 	H 	0.23505	0.4701	0.9908	0.058
Mof_C 	C 	0.18015	0.3603	0.8548	0.01
Mof_C 	C 	0.15835	0.3167	0.7995	0.048
Mof_C 	C 	0.22145	0.77855	0.9565	0.012
Mof_H 	H 	0.23505	0.76495	0.9908	0.059
Mof_C 	C 	0.18015	0.81985	0.8548	0.01
Mof_C 	C 	0.15835	0.84165	0.7995	0.048
Mof_C 	C 	0.5571	0.77855	0.9565	0.012
Mof_H 	H 	0.5299	0.76495	0.9908	0.058
Mof_C 	C 	0.6397	0.81985	0.8548	0.01
Mof_C 	C 	0.6833	0.84165	0.7995	0.048
Mof_C 	C 	0.77855	0.5571	0.4565	0.012
Mof_H 	H 	0.76495	0.5299	0.4908	0.059
Mof_C 	C 	0.81985	0.6397	0.3548	0.01
Mof_C 	C 	0.84165	0.6833	0.2995	0.048
Mof_C 	C 	0.77855	0.22145	0.4565	0.012
Mof_H 	H 	0.76495	0.23505	0.4908	0.059
Mof_C 	C 	0.81985	0.18015	0.3548	0.01
Mof_C 	C 	0.84165	0.15835	0.2995	0.048
Mof_C 	C 	0.4429	0.22145	0.4565	0.012
Mof_H 	H 	0.4701	0.23505	0.4908	0.059
Mof_C 	C 	0.3603	0.18015	0.3548	0.01
Mof_C 	C 	0.3167	0.15835	0.2995	0.048
Mof_C 	C 	0.3576	0.1788	0.25	0.088
Mof_C 	C 	0.8212	0.1788	0.25	0.088
Mof_C 	C 	0.8212	0.6424	0.25	0.088
Mof_C 	C 	0.6424	0.8212	0.75	0.088
Mof_C 	C 	0.1788	0.8212	0.75	0.088
Mof_C 	C 	0.1788	0.3576	0.75	0.088
_end
